
  -OEChem-04052316483D

 85 93  0     1  0  0  0  0  0999 V2000
  -17.1871  -30.6394   23.6785 C   0  0  0  0  0  0  0  0  0  0  0  0
  -18.5229  -31.0108   23.5640 C   0  0  0  0  0  0  0  0  0  0  0  0
  -23.5150  -14.1886   21.3471 C   0  0  0  0  0  0  0  0  0  0  0  0
  -25.9149  -14.3471   21.1179 C   0  0  0  0  0  0  0  0  0  0  0  0
  -16.8188  -29.3053   23.5094 C   0  0  0  0  0  0  0  0  0  0  0  0
  -19.4914  -30.0481   23.2814 C   0  0  0  0  0  0  0  0  0  0  0  0
  -25.7219  -29.2395   19.8401 C   0  0  0  0  0  0  0  0  0  0  0  0
  -23.6394  -12.8515   21.7244 C   0  0  0  0  0  0  0  0  0  0  0  0
  -26.0393  -13.0100   21.4953 C   0  0  0  0  0  0  0  0  0  0  0  0
  -27.0180  -28.7727   20.0544 C   0  0  0  0  0  0  0  0  0  0  0  0
  -24.1410   -9.8724   20.2086 C   0  0  0  0  0  0  0  0  0  0  0  0
  -23.2676   -8.9522   19.6288 C   0  0  0  0  0  0  0  0  0  0  0  0
  -26.2548  -26.5112   19.7040 C   0  0  0  0  0  0  0  0  0  0  0  0
  -22.4242   -8.3737   21.8177 C   0  0  0  0  0  0  0  0  0  0  0  0
  -24.6528  -14.9364   21.0437 C   0  0  0  0  0  0  0  0  0  0  0  0
  -24.5314  -17.4437   21.4979 C   0  0  0  0  0  0  0  0  0  0  0  0
  -17.7819  -28.3274   23.2151 C   0  0  0  0  0  0  0  0  0  0  0  0
  -24.6787  -28.3433   19.5665 C   0  0  0  0  0  0  0  0  0  0  0  0
  -19.1357  -28.6995   23.1095 C   0  0  0  0  0  0  0  0  0  0  0  0
  -24.9469  -26.9695   19.4842 C   0  0  0  0  0  0  0  0  0  0  0  0
  -30.7778  -23.2685   19.2853 C   0  0  0  0  0  0  0  0  0  0  0  0
  -24.9015  -12.2622   21.7985 C   0  0  0  0  0  0  0  0  0  0  0  0
  -27.2841  -27.4081   19.9892 C   0  0  0  0  0  0  0  0  0  0  0  0
  -24.1560  -10.0431   21.5929 C   0  0  0  0  0  0  0  0  0  0  0  0
  -22.4092   -8.2029   20.4334 C   0  0  0  0  0  0  0  0  0  0  0  0
  -23.2976   -9.2938   22.3974 C   0  0  0  0  0  0  0  0  0  0  0  0
  -24.5250  -16.3174   20.6533 C   0  0  0  0  0  0  0  0  0  0  0  0
  -31.5462  -22.8020   20.3686 C   0  0  0  0  0  0  0  0  0  0  0  0
  -29.8394  -22.2865   19.0818 C   0  0  0  0  0  0  0  0  0  0  0  0
  -24.3805  -18.5115   20.6474 C   0  0  0  0  0  0  0  0  0  0  0  0
  -24.6622  -17.5180   22.9238 C   0  0  0  0  0  0  0  0  0  0  0  0
  -21.9547  -27.5644   21.0077 C   0  0  0  0  0  0  0  0  0  0  0  0
  -21.4953  -25.7960   18.3274 C   0  0  0  0  0  0  0  0  0  0  0  0
  -22.8672  -24.1662   15.6613 C   0  0  0  0  0  0  0  0  0  0  0  0
  -25.9425  -20.2667   15.3565 C   0  0  0  0  0  0  0  0  0  0  0  0
  -17.3420  -26.8904   23.0876 C   0  0  0  0  0  0  0  0  0  0  0  0
  -23.2912  -28.8652   19.3113 C   0  0  0  0  0  0  0  0  0  0  0  0
  -23.8659  -25.9677   19.1736 C   0  0  0  0  0  0  0  0  0  0  0  0
  -18.3802  -25.9925   22.4197 C   0  0  0  0  0  0  0  0  0  0  0  0
  -22.6554  -19.0875   16.0501 C   0  0  0  0  0  0  0  0  0  0  0  0
  -19.7627  -26.2412   23.0143 C   0  0  0  0  0  0  0  0  0  0  0  0
  -22.8030  -18.3577   17.3864 C   0  0  0  0  0  0  0  0  0  0  0  0
  -23.8858  -18.8993   15.1654 C   0  0  0  0  0  0  0  0  0  0  0  0
  -25.3147  -18.5270   17.1385 C   0  0  0  0  0  0  0  0  0  0  0  0
  -20.2121  -27.6884   22.7794 C   0  0  1  0  0  0  0  0  0  0  0  0
  -22.2064  -27.8191   19.5484 C   0  0  1  0  0  0  0  0  0  0  0  0
  -24.1221  -18.7335   18.0878 C   0  0  2  0  0  0  0  0  0  0  0  0
  -32.6968  -23.4615   21.0108 C   0  0  0  0  0  0  0  0  0  0  0  0
  -28.0487  -20.3002   20.9244 C   0  0  0  0  0  0  0  0  0  0  0  0
  -22.2414  -22.7816   13.6641 C   0  0  0  0  0  0  0  0  0  0  0  0
  -21.0214  -23.3920   20.1456 C   0  0  0  0  0  0  0  0  0  0  0  0
  -21.3491  -21.9097   18.1547 C   0  0  0  0  0  0  0  0  0  0  0  0
  -19.4664  -23.5458   18.1930 C   0  0  0  0  0  0  0  0  0  0  0  0
  -24.0123  -26.1470   13.7840 C   0  0  0  0  0  0  0  0  0  0  0  0
  -30.9447  -24.5558   18.5180 C   0  0  0  0  0  0  0  0  0  0  0  0
  -28.7454  -22.1733   18.0986 C   0  0  0  0  0  0  0  0  0  0  0  0
  -30.4276  -25.7883   19.2629 C   0  0  0  0  0  0  0  0  0  0  0  0
  -29.1815  -21.7197   16.6839 C   0  0  0  0  0  0  0  0  0  0  0  0
  -29.3739  -20.0907   20.2121 C   0  0  0  0  0  0  0  0  0  0  0  0
  -28.0275  -21.5695   15.6949 C   0  0  0  0  0  0  0  0  0  0  0  0
  -28.9256  -25.7524   19.5200 C   0  0  0  0  0  0  0  0  0  1  0  0
  -21.8334  -24.3865   17.9056 C   0  0  1  0  0  0  0  0  0  0  0  0
  -22.5211  -24.1834   14.1833 C   0  0  2  0  0  0  0  0  0  0  0  0
  -20.9378  -23.3270   18.6075 C   0  0  0  0  0  0  0  0  0  0  0  0
  -24.3812  -16.6398   19.3651 N   0  0  0  0  0  0  0  0  0  0  0  0
  -31.1318  -21.6158   20.8218 N   0  0  0  0  0  0  0  0  0  0  0  0
  -30.0927  -21.3288   20.0193 N   0  0  0  0  0  0  0  0  0  0  0  0
  -24.2958  -17.9806   19.3939 N   0  0  0  0  0  0  0  0  0  0  0  0
  -22.5244  -26.5267   18.9381 N   0  0  0  0  0  0  0  0  0  0  0  0
  -25.1027  -19.2748   15.8892 N   0  0  0  0  0  0  0  0  0  0  0  0
  -24.3132  -19.8434   20.8569 N   0  0  0  0  0  0  0  0  0  0  0  0
  -24.8091  -16.3248   23.6443 N   0  0  0  0  0  0  0  0  0  0  0  0
  -20.6686  -27.8610   21.4170 N   0  0  0  0  0  0  0  0  0  0  0  0
  -21.7533  -24.3660   16.4490 N   0  0  0  0  0  0  0  0  0  0  0  0
  -27.0715  -20.5669   16.1089 N   0  0  0  0  0  0  0  0  0  0  0  0
  -23.6460  -24.7609   13.3946 N   0  3  0  0  0  0  0  0  0  0  0  0
  -24.6327  -18.6089   23.5422 O   0  0  0  0  0  0  0  0  0  0  0  0
  -22.8599  -27.1296   21.7100 O   0  0  0  0  0  0  0  0  0  0  0  0
  -20.3621  -26.2352   18.1162 O   0  0  0  0  0  0  0  0  0  0  0  0
  -24.0107  -23.9892   16.0756 O   0  0  0  0  0  0  0  0  0  0  0  0
  -25.7011  -20.8460   14.2920 O   0  0  0  0  0  0  0  0  0  0  0  0
  -25.0232  -10.9576   22.1669 O   0  0  0  0  0  0  0  0  0  0  0  0
  -28.5482  -26.9496   20.1986 O   0  0  0  0  0  0  0  0  0  1  0  0
  -21.5695   -7.3204   19.8763 F   0  0  0  0  0  0  0  0  0  0  0  0
  -23.3067   -9.4543   23.7279 F   0  0  0  0  0  0  0  0  0  0  0  0
  1  2  1  0  0  0  0
  1  5  2  0  0  0  0
  2  6  2  0  0  0  0
  3  8  2  0  0  0  0
  3 15  1  0  0  0  0
  4  9  1  0  0  0  0
  4 15  2  0  0  0  0
  5 17  1  0  0  0  0
  6 19  1  0  0  0  0
  7 10  2  0  0  0  0
  7 18  1  0  0  0  0
  8 22  1  0  0  0  0
  9 22  2  0  0  0  0
 10 23  1  0  0  0  0
 11 12  2  0  0  0  0
 11 24  1  0  0  0  0
 12 25  1  0  0  0  0
 13 20  1  0  0  0  0
 13 23  2  0  0  0  0
 14 25  2  0  0  0  0
 14 26  1  0  0  0  0
 15 27  1  0  0  0  0
 16 27  1  0  0  0  0
 16 30  2  0  0  0  0
 16 31  1  0  0  0  0
 17 19  2  0  0  0  0
 17 36  1  0  0  0  0
 18 20  2  0  0  0  0
 18 37  1  0  0  0  0
 19 45  1  0  0  0  0
 20 38  1  0  0  0  0
 21 28  1  0  0  0  0
 21 29  2  0  0  0  0
 21 55  1  0  0  0  0
 22 82  1  0  0  0  0
 23 83  1  0  0  0  0
 24 26  2  0  0  0  0
 24 82  1  0  0  0  0
 25 84  1  0  0  0  0
 26 85  1  0  0  0  0
 27 65  2  0  0  0  0
 28 48  1  0  0  0  0
 28 66  2  0  0  0  0
 29 56  1  0  0  0  0
 29 67  1  0  0  0  0
 30 68  1  0  0  0  0
 30 71  1  0  0  0  0
 31 72  1  0  0  0  0
 31 77  2  0  0  0  0
 32 46  1  0  0  0  0
 32 73  1  0  0  0  0
 32 78  2  0  0  0  0
 33 62  1  0  0  0  0
 33 69  1  0  0  0  0
 33 79  2  0  0  0  0
 34 63  1  0  0  0  0
 34 74  1  0  0  0  0
 34 80  2  0  0  0  0
 35 70  1  0  0  0  0
 35 75  1  0  0  0  0
 35 81  2  0  0  0  0
 36 39  1  0  0  0  0
 37 46  1  0  0  0  0
 38 69  1  0  0  0  0
 39 41  1  0  0  0  0
 40 42  1  0  0  0  0
 40 43  1  0  0  0  0
 41 45  1  0  0  0  0
 42 47  1  0  0  0  0
 43 70  1  0  0  0  0
 44 47  1  0  0  0  0
 44 70  1  0  0  0  0
 45 73  1  0  0  0  0
 46 69  1  0  0  0  0
 47 68  1  0  0  0  0
 49 59  1  0  0  0  0
 50 63  1  0  0  0  0
 51 64  1  0  0  0  0
 52 64  1  0  0  0  0
 53 64  1  0  0  0  0
 54 76  1  0  0  0  0
 55 57  1  0  0  0  0
 56 58  1  0  0  0  0
 57 61  1  0  0  0  0
 58 60  1  0  0  0  0
 59 67  1  0  0  0  0
 60 75  1  0  0  0  0
 61 83  1  0  0  0  0
 62 64  1  0  0  0  0
 62 74  1  0  0  0  0
 63 76  1  0  0  0  0
 65 68  1  0  0  0  0
 66 67  1  0  0  0  0
M  CHG  1  76   1
M  ISO  4  35 100  61 101  75 100  83 101
M  END
> <Batch ID>
0033

> <Smiles>
CCn1nc(C)c(CC[101CH2:1][101O:1]c2ccc3c(c2)CN(C(=O)C(NC(=O)C(C)NC)C(C)(C)C)C(C(=O)NC2CCCc4ccccc42)C3)c1CCC[100NH:0][100C:0](=O)N1CCCC(n2nc(-c3ccc(Oc4ccc(F)cc4F)cc3)c(C(N)=O)c2N)C1

> <Shape>
0.227

> <Color>
0.084

> <Negative vol penalty>
0.000

$$$$

  -OEChem-04052316483D

 83 91  0     1  0  0  0  0  0999 V2000
  -24.0499  -18.1745   22.9412 C   0  0  0  0  0  0  0  0  0  0  0  0
  -24.7630  -19.2804   23.3901 C   0  0  0  0  0  0  0  0  0  0  0  0
  -25.8078  -13.0541   21.5071 C   0  0  0  0  0  0  0  0  0  0  0  0
  -26.3500  -12.9498   19.1550 C   0  0  0  0  0  0  0  0  0  0  0  0
  -23.1370  -18.3151   21.8982 C   0  0  0  0  0  0  0  0  0  0  0  0
  -24.5546  -20.5295   22.8042 C   0  0  0  0  0  0  0  0  0  0  0  0
  -27.3347  -25.8666   23.7602 C   0  0  0  0  0  0  0  0  0  0  0  0
  -24.6749  -12.2725   21.2806 C   0  0  0  0  0  0  0  0  0  0  0  0
  -25.2171  -12.1681   18.9285 C   0  0  0  0  0  0  0  0  0  0  0  0
  -28.4177  -26.5711   23.2364 C   0  0  0  0  0  0  0  0  0  0  0  0
  -23.9597   -9.0028   20.8006 C   0  0  0  0  0  0  0  0  0  0  0  0
  -23.7087   -7.9536   21.6847 C   0  0  0  0  0  0  0  0  0  0  0  0
  -26.9149  -27.8137   21.8162 C   0  0  0  0  0  0  0  0  0  0  0  0
  -29.1708  -24.7810   17.6866 C   0  0  0  0  0  0  0  0  0  0  0  0
  -21.5860   -8.9509   22.2654 C   0  0  0  0  0  0  0  0  0  0  0  0
  -26.6453  -13.3928   20.4443 C   0  0  0  0  0  0  0  0  0  0  0  0
  -29.1103  -13.7493   20.9958 C   0  0  0  0  0  0  0  0  0  0  0  0
  -22.9270  -19.5644   21.2914 C   0  0  0  0  0  0  0  0  0  0  0  0
  -26.0325  -26.1231   23.3073 C   0  0  0  0  0  0  0  0  0  0  0  0
  -23.6200  -20.6965   21.7663 C   0  0  0  0  0  0  0  0  0  0  0  0
  -25.8168  -27.1128   22.3377 C   0  0  0  0  0  0  0  0  0  0  0  0
  -29.3160  -26.1225   18.0220 C   0  0  0  0  0  0  0  0  0  0  0  0
  -30.1152  -23.8561   18.1179 C   0  0  0  0  0  0  0  0  0  0  0  0
  -24.3795  -11.8295   19.9914 C   0  0  0  0  0  0  0  0  0  0  0  0
  -28.2083  -27.5428   22.2622 C   0  0  0  0  0  0  0  0  0  0  0  0
  -23.0239  -10.0261   20.6489 C   0  0  0  0  0  0  0  0  0  0  0  0
  -22.5218   -7.9276   22.4171 C   0  0  0  0  0  0  0  0  0  0  0  0
  -21.8371  -10.0001   21.3812 C   0  0  0  0  0  0  0  0  0  0  0  0
  -27.8154  -14.2006   20.6775 C   0  0  0  0  0  0  0  0  0  0  0  0
  -30.4146  -26.4851   18.7845 C   0  0  0  0  0  0  0  0  0  0  0  0
  -31.1782  -24.3202   18.8759 C   0  0  0  0  0  0  0  0  0  0  0  0
  -29.8543  -14.8976   21.1155 C   0  0  0  0  0  0  0  0  0  0  0  0
  -29.5971  -12.4117   21.1678 C   0  0  0  0  0  0  0  0  0  0  0  0
  -23.7925  -24.4151   21.8346 C   0  0  0  0  0  0  0  0  0  0  0  0
  -21.9923  -27.0667   22.3356 C   0  0  0  0  0  0  0  0  0  0  0  0
  -21.8830  -30.4337   22.8815 C   0  0  0  0  0  0  0  0  0  0  0  0
  -29.2162  -20.2637   18.7378 C   0  0  0  0  0  0  0  0  0  0  0  0
  -21.9212  -19.6613   20.1715 C   0  0  0  0  0  0  0  0  0  0  0  0
  -24.8720  -25.3732   23.9017 C   0  0  0  0  0  0  0  0  0  0  0  0
  -24.4362  -27.4403   21.8324 C   0  0  0  0  0  0  0  0  0  0  0  0
  -22.0933  -20.9183   19.3250 C   0  0  0  0  0  0  0  0  0  0  0  0
  -29.4419  -19.5234   22.2731 C   0  0  0  0  0  0  0  0  0  0  0  0
  -22.1922  -22.1412   20.2246 C   0  0  0  0  0  0  0  0  0  0  0  0
  -29.1704  -18.0179   22.2865 C   0  0  0  0  0  0  0  0  0  0  0  0
  -28.5856  -20.2302   21.2265 C   0  0  0  0  0  0  0  0  0  0  0  0
  -28.4592  -18.1856   19.8563 C   0  0  0  0  0  0  0  0  0  0  0  0
  -23.4323  -22.0589   21.1237 C   0  0  1  0  0  0  0  0  0  0  0  0
  -23.6444  -25.3568   22.9961 C   0  0  1  0  0  0  0  0  0  0  0  0
  -29.3109  -17.4106   20.8781 C   0  0  2  0  0  0  0  0  0  0  0  0
  -28.3078  -27.1181   17.5625 C   0  0  0  0  0  0  0  0  0  0  0  0
  -20.2663  -32.3242   23.2126 C   0  0  0  0  0  0  0  0  0  0  0  0
  -21.3787  -27.0622   19.3467 C   0  0  0  0  0  0  0  0  0  0  0  0
  -20.5887  -29.4269   19.5762 C   0  0  0  0  0  0  0  0  0  0  0  0
  -19.4245  -27.5993   20.8120 C   0  0  0  0  0  0  0  0  0  0  0  0
  -22.9477  -31.0252   25.5788 C   0  0  0  0  0  0  0  0  0  0  0  0
  -29.9555  -22.4191   17.7556 C   0  0  0  0  0  0  0  0  0  0  0  0
  -30.6240  -27.9258   19.1774 C   0  0  0  0  0  0  0  0  0  0  0  0
  -31.3243  -28.1007   20.5267 C   0  0  0  0  0  0  0  0  0  0  0  0
  -30.5191  -27.5546   21.7001 C   0  0  0  0  0  0  0  0  0  1  0  0
  -21.7224  -28.3368   21.5655 C   0  0  1  0  0  0  0  0  0  0  0  0
  -21.1183  -31.2655   23.8953 C   0  0  2  0  0  0  0  0  0  0  0  0
  -20.8049  -28.0990   20.3330 C   0  0  0  0  0  0  0  0  0  0  0  0
  -27.7378  -15.5318   20.6000 N   0  0  0  0  0  0  0  0  0  0  0  0
  -31.3528  -25.6155   19.2217 N   0  0  0  0  0  0  0  0  0  0  0  0
  -28.9933  -15.9268   20.8715 N   0  0  0  0  0  0  0  0  0  0  0  0
  -23.3347  -26.6754   22.4399 N   0  0  0  0  0  0  0  0  0  0  0  0
  -28.7797  -19.6161   19.9054 N   0  0  0  0  0  0  0  0  0  0  0  0
  -31.1545  -15.1173   21.4047 N   0  0  0  0  0  0  0  0  0  0  0  0
  -28.6985  -11.3480   21.0086 N   0  0  0  0  0  0  0  0  0  0  0  0
  -23.3785  -23.1239   22.1008 N   0  0  0  0  0  0  0  0  0  0  0  0
  -21.1913  -29.2938   22.5301 N   0  0  0  0  0  0  0  0  0  0  0  0
  -29.4920  -21.6194   18.8676 N   0  0  0  0  0  0  0  0  0  0  0  0
  -22.0634  -31.9490   24.8229 N   0  3  0  0  0  0  0  0  0  0  0  0
  -30.7898  -12.1678   21.4703 O   0  0  0  0  0  0  0  0  0  0  0  0
  -24.2473  -24.8297   20.7749 O   0  0  0  0  0  0  0  0  0  0  0  0
  -21.0476  -26.4484   22.8324 O   0  0  0  0  0  0  0  0  0  0  0  0
  -22.9823  -30.7641   22.4422 O   0  0  0  0  0  0  0  0  0  0  0  0
  -29.3553  -19.6759   17.6597 O   0  0  0  0  0  0  0  0  0  0  0  0
  -23.2743  -11.0666   19.7701 O   0  0  0  0  0  0  0  0  0  0  0  0
  -29.2638  -28.2315   21.7488 O   0  0  0  0  0  0  0  0  0  1  0  0
  -22.2802   -6.9192   23.2650 F   0  0  0  0  0  0  0  0  0  0  0  0
  -20.9338  -10.9797   21.2388 F   0  0  0  0  0  0  0  0  0  0  0  0
  -32.4102  -23.2755   19.4668 Cl  0  0  0  0  0  0  0  0  0  0  0  0
  1  2  1  0  0  0  0
  1  5  2  0  0  0  0
  2  6  2  0  0  0  0
  3  8  2  0  0  0  0
  3 16  1  0  0  0  0
  4  9  1  0  0  0  0
  4 16  2  0  0  0  0
  5 18  1  0  0  0  0
  6 20  1  0  0  0  0
  7 10  2  0  0  0  0
  7 19  1  0  0  0  0
  8 24  1  0  0  0  0
  9 24  2  0  0  0  0
 10 25  1  0  0  0  0
 11 12  2  0  0  0  0
 11 26  1  0  0  0  0
 12 27  1  0  0  0  0
 13 21  1  0  0  0  0
 13 25  2  0  0  0  0
 14 22  1  0  0  0  0
 14 23  2  0  0  0  0
 15 27  2  0  0  0  0
 15 28  1  0  0  0  0
 16 29  1  0  0  0  0
 17 29  1  0  0  0  0
 17 32  2  0  0  0  0
 17 33  1  0  0  0  0
 18 20  2  0  0  0  0
 18 38  1  0  0  0  0
 19 21  2  0  0  0  0
 19 39  1  0  0  0  0
 20 47  1  0  0  0  0
 21 40  1  0  0  0  0
 22 30  2  0  0  0  0
 22 50  1  0  0  0  0
 23 31  1  0  0  0  0
 23 56  1  0  0  0  0
 24 79  1  0  0  0  0
 25 80  1  0  0  0  0
 26 28  2  0  0  0  0
 26 79  1  0  0  0  0
 27 81  1  0  0  0  0
 28 82  1  0  0  0  0
 29 63  2  0  0  0  0
 30 57  1  0  0  0  0
 30 64  1  0  0  0  0
 31 64  2  0  0  0  0
 31 83  1  0  0  0  0
 32 65  1  0  0  0  0
 32 68  1  0  0  0  0
 33 69  1  0  0  0  0
 33 74  2  0  0  0  0
 34 48  1  0  0  0  0
 34 70  1  0  0  0  0
 34 75  2  0  0  0  0
 35 60  1  0  0  0  0
 35 66  1  0  0  0  0
 35 76  2  0  0  0  0
 36 61  1  0  0  0  0
 36 71  1  0  0  0  0
 36 77  2  0  0  0  0
 37 67  1  0  0  0  0
 37 72  1  0  0  0  0
 37 78  2  0  0  0  0
 38 41  1  0  0  0  0
 39 48  1  0  0  0  0
 40 66  1  0  0  0  0
 41 43  1  0  0  0  0
 42 44  1  0  0  0  0
 42 45  1  0  0  0  0
 43 47  1  0  0  0  0
 44 49  1  0  0  0  0
 45 67  1  0  0  0  0
 46 49  1  0  0  0  0
 46 67  1  0  0  0  0
 47 70  1  0  0  0  0
 48 66  1  0  0  0  0
 49 65  1  0  0  0  0
 51 61  1  0  0  0  0
 52 62  1  0  0  0  0
 53 62  1  0  0  0  0
 54 62  1  0  0  0  0
 55 73  1  0  0  0  0
 56 72  1  0  0  0  0
 57 58  1  0  0  0  0
 58 59  1  0  0  0  0
 59 80  1  0  0  0  0
 60 62  1  0  0  0  0
 60 71  1  0  0  0  0
 61 73  1  0  0  0  0
 63 65  1  0  0  0  0
M  CHG  1  73   1
M  ISO  4  37 100  59 101  72 100  80 101
M  END
> <Batch ID>
0033

> <Smiles>
CNC(C)C(=O)NC(C(=O)N1Cc2cc([101O:1][101CH2:1]CCc3nc(Cl)c(C[100NH:0][100C:0](=O)N4CCCC(n5nc(-c6ccc(Oc7ccc(F)cc7F)cc6)c(C(N)=O)c5N)C4)cc3C)ccc2CC1C(=O)NC1CCCc2ccccc21)C(C)(C)C

> <Shape>
0.252

> <Color>
0.061

> <Negative vol penalty>
0.000

$$$$

  -OEChem-04052316483D

 90 98  0     1  0  0  0  0  0999 V2000
  -24.3721  -38.2638   22.5098 C   0  0  0  0  0  0  0  0  0  0  0  0
  -25.1647  -37.4892   21.6688 C   0  0  0  0  0  0  0  0  0  0  0  0
  -22.3413  -11.5156   21.2995 C   0  0  0  0  0  0  0  0  0  0  0  0
  -23.3776  -12.7039   23.1301 C   0  0  0  0  0  0  0  0  0  0  0  0
  -23.8524  -37.7115   23.6798 C   0  0  0  0  0  0  0  0  0  0  0  0
  -25.4390  -36.1623   21.9979 C   0  0  0  0  0  0  0  0  0  0  0  0
  -26.5942  -29.7802   18.9564 C   0  0  0  0  0  0  0  0  0  0  0  0
  -21.2159  -11.2804   22.0892 C   0  0  0  0  0  0  0  0  0  0  0  0
  -22.2522  -12.4687   23.9199 C   0  0  0  0  0  0  0  0  0  0  0  0
  -27.5155  -28.7338   18.9652 C   0  0  0  0  0  0  0  0  0  0  0  0
  -18.2170  -10.0572   23.7427 C   0  0  0  0  0  0  0  0  0  0  0  0
  -17.6721   -8.7733   23.7319 C   0  0  0  0  0  0  0  0  0  0  0  0
  -26.4985  -27.8631   20.9718 C   0  0  0  0  0  0  0  0  0  0  0  0
  -32.0033  -24.3429   20.1860 C   0  0  0  0  0  0  0  0  0  0  0  0
  -30.0104  -24.4316   18.2359 C   0  0  0  0  0  0  0  0  0  0  0  0
  -19.7607   -7.8799   24.5544 C   0  0  0  0  0  0  0  0  0  0  0  0
  -23.4223  -12.2273   21.8200 C   0  0  0  0  0  0  0  0  0  0  0  0
  -24.8160  -13.5718   20.1594 C   0  0  0  0  0  0  0  0  0  0  0  0
  -24.1125  -36.3743   24.0185 C   0  0  0  0  0  0  0  0  0  0  0  0
  -25.6233  -29.8821   19.9631 C   0  0  0  0  0  0  0  0  0  0  0  0
  -24.9234  -35.5920   23.1742 C   0  0  0  0  0  0  0  0  0  0  0  0
  -25.5644  -28.9102   20.9722 C   0  0  0  0  0  0  0  0  0  0  0  0
  -31.1987  -25.4756   20.0621 C   0  0  0  0  0  0  0  0  0  0  0  0
  -31.8115  -23.2546   19.3348 C   0  0  0  0  0  0  0  0  0  0  0  0
  -30.2022  -25.5199   19.0870 C   0  0  0  0  0  0  0  0  0  0  0  0
  -21.1713  -11.7570   23.3994 C   0  0  0  0  0  0  0  0  0  0  0  0
  -27.4696  -27.7767   19.9746 C   0  0  0  0  0  0  0  0  0  0  0  0
  -19.5338  -10.2525   24.1593 C   0  0  0  0  0  0  0  0  0  0  0  0
  -18.4439   -7.6846   24.1377 C   0  0  0  0  0  0  0  0  0  0  0  0
  -20.3057   -9.1638   24.5652 C   0  0  0  0  0  0  0  0  0  0  0  0
  -30.8150  -23.2989   18.3598 C   0  0  0  0  0  0  0  0  0  0  0  0
  -24.5853  -12.4701   21.0049 C   0  0  0  0  0  0  0  0  0  0  0  0
  -26.0540  -13.3333   19.6146 C   0  0  0  0  0  0  0  0  0  0  0  0
  -23.9855  -14.7092   19.8907 C   0  0  0  0  0  0  0  0  0  0  0  0
  -24.9348  -32.0260   22.2066 C   0  0  0  0  0  0  0  0  0  0  0  0
  -22.3717  -30.1022   22.7084 C   0  0  0  0  0  0  0  0  0  0  0  0
  -20.9831  -26.9965   22.4375 C   0  0  0  0  0  0  0  0  0  0  0  0
  -30.7732  -10.1416   21.4566 C   0  0  0  0  0  0  0  0  0  0  0  0
  -23.5678  -35.8353   25.3175 C   0  0  0  0  0  0  0  0  0  0  0  0
  -24.6198  -31.0019   19.9245 C   0  0  0  0  0  0  0  0  0  0  0  0
  -24.5289  -28.9631   22.0646 C   0  0  0  0  0  0  0  0  0  0  0  0
  -23.5966  -34.3116   25.4046 C   0  0  0  0  0  0  0  0  0  0  0  0
  -28.9846   -9.7507   18.4030 C   0  0  0  0  0  0  0  0  0  0  0  0
  -24.9503  -33.7763   24.9486 C   0  0  0  0  0  0  0  0  0  0  0  0
  -27.6751  -10.5027   18.6473 C   0  0  0  0  0  0  0  0  0  0  0  0
  -29.4692   -9.0372   19.6632 C   0  0  0  0  0  0  0  0  0  0  0  0
  -28.2813  -10.6504   21.0987 C   0  0  0  0  0  0  0  0  0  0  0  0
  -25.2230  -34.1415   23.4844 C   0  0  1  0  0  0  0  0  0  0  0  0
  -23.9985  -31.2946   21.2868 C   0  0  1  0  0  0  0  0  0  0  0  0
  -27.7820  -11.4319   19.8714 C   0  0  2  0  0  0  0  0  0  0  0  0
  -31.4231  -26.6301   20.9825 C   0  0  0  0  0  0  0  0  0  0  0  0
  -18.8877  -25.7223   22.9697 C   0  0  0  0  0  0  0  0  0  0  0  0
  -23.1896  -29.9888   25.6458 C   0  0  0  0  0  0  0  0  0  0  0  0
  -21.6847  -28.0064   25.9162 C   0  0  0  0  0  0  0  0  0  0  0  0
  -20.7296  -30.2142   25.2558 C   0  0  0  0  0  0  0  0  0  0  0  0
  -20.4897  -26.3881   19.5835 C   0  0  0  0  0  0  0  0  0  0  0  0
  -32.6979  -22.0556   19.5006 C   0  0  0  0  0  0  0  0  0  0  0  0
  -29.3306  -26.7231   18.9341 C   0  0  0  0  0  0  0  0  0  1  0  0
  -32.7949  -14.9025   21.9640 C   0  0  0  0  0  0  0  0  0  0  0  0
  -31.9838  -16.1933   21.8285 C   0  0  0  0  0  0  0  0  0  0  0  0
  -31.9653  -13.7887   22.6063 C   0  0  0  0  0  0  0  0  0  0  0  0
  -32.8034  -17.2937   21.1508 C   0  0  0  0  0  0  0  0  0  0  0  0
  -32.7658  -12.4868   22.7047 C   0  0  0  0  0  0  0  0  0  0  0  0
  -32.0147  -18.5869   20.9277 C   0  0  0  0  0  0  0  0  0  0  0  0
  -31.9477  -11.3385   23.2861 C   0  0  0  0  0  0  0  0  0  0  0  0
  -32.8439  -19.6869   20.2796 C   0  0  0  0  0  0  0  0  0  0  0  0
  -22.0908  -28.9007   23.5783 C   0  0  1  0  0  0  0  0  0  0  0  0
  -19.6297  -26.5396   21.9236 C   0  0  2  0  0  0  0  0  0  0  0  0
  -21.9445  -29.2773   25.0797 C   0  0  0  0  0  0  0  0  0  0  0  0
  -25.5957  -11.5965   21.0007 N   0  0  0  0  0  0  0  0  0  0  0  0
  -26.4732  -12.1491   20.1458 N   0  0  0  0  0  0  0  0  0  0  0  0
  -23.5737  -30.0807   21.9869 N   0  0  0  0  0  0  0  0  0  0  0  0
  -29.5502   -9.9742   20.7863 N   0  0  0  0  0  0  0  0  0  0  0  0
  -26.8140  -14.0230   18.7376 N   0  0  0  0  0  0  0  0  0  0  0  0
  -22.7441  -14.7973   20.5353 N   0  0  0  0  0  0  0  0  0  0  0  0
  -24.4798  -33.2703   22.5994 N   0  0  0  0  0  0  0  0  0  0  0  0
  -20.9161  -28.2499   23.0083 N   0  0  0  0  0  0  0  0  0  0  0  0
  -30.7646  -11.0532   22.5052 N   0  0  0  0  0  0  0  0  0  0  0  0
  -19.7954  -25.7011   20.7028 N   0  3  0  0  0  0  0  0  0  0  0  0
  -32.0115  -20.9092   20.1559 N   0  3  0  0  0  0  0  0  0  0  0  0
  -24.3267  -15.6123   19.0898 O   0  0  0  0  0  0  0  0  0  0  0  0
  -25.9911  -31.4998   22.5368 O   0  0  0  0  0  0  0  0  0  0  0  0
  -21.5514  -31.0224   22.6650 O   0  0  0  0  0  0  0  0  0  0  0  0
  -21.9975  -26.3087   22.3453 O   0  0  0  0  0  0  0  0  0  0  0  0
  -31.7983   -9.5282   21.1403 O   0  0  0  0  0  0  0  0  0  0  0  0
  -20.0732  -11.5279   24.1702 O   0  0  0  0  0  0  0  0  0  0  0  0
  -28.3745  -26.7474   19.9859 O   0  0  0  0  0  0  0  0  0  1  0  0
  -17.9199   -6.4519   24.1287 F   0  0  0  0  0  0  0  0  0  0  0  0
  -21.5709   -9.3453   24.9676 F   0  0  0  0  0  0  0  0  0  0  0  0
  -30.5485  -21.9719   17.2887 Cl  0  0  0  0  0  0  0  0  0  0  0  0
  1  2  1  0  0  0  0
  1  5  2  0  0  0  0
  2  6  2  0  0  0  0
  3  8  2  0  0  0  0
  3 17  1  0  0  0  0
  4  9  1  0  0  0  0
  4 17  2  0  0  0  0
  5 19  1  0  0  0  0
  6 21  1  0  0  0  0
  7 10  2  0  0  0  0
  7 20  1  0  0  0  0
  8 26  1  0  0  0  0
  9 26  2  0  0  0  0
 10 27  1  0  0  0  0
 11 12  2  0  0  0  0
 11 28  1  0  0  0  0
 12 29  1  0  0  0  0
 13 22  1  0  0  0  0
 13 27  2  0  0  0  0
 14 23  1  0  0  0  0
 14 24  2  0  0  0  0
 15 25  1  0  0  0  0
 15 31  2  0  0  0  0
 16 29  2  0  0  0  0
 16 30  1  0  0  0  0
 17 32  1  0  0  0  0
 18 32  1  0  0  0  0
 18 33  2  0  0  0  0
 18 34  1  0  0  0  0
 19 21  2  0  0  0  0
 19 39  1  0  0  0  0
 20 22  2  0  0  0  0
 20 40  1  0  0  0  0
 21 48  1  0  0  0  0
 22 41  1  0  0  0  0
 23 25  2  0  0  0  0
 23 51  1  0  0  0  0
 24 31  1  0  0  0  0
 24 57  1  0  0  0  0
 25 58  1  0  0  0  0
 26 86  1  0  0  0  0
 27 87  1  0  0  0  0
 28 30  2  0  0  0  0
 28 86  1  0  0  0  0
 29 88  1  0  0  0  0
 30 89  1  0  0  0  0
 31 90  1  0  0  0  0
 32 70  2  0  0  0  0
 33 71  1  0  0  0  0
 33 74  1  0  0  0  0
 34 75  1  0  0  0  0
 34 81  2  0  0  0  0
 35 49  1  0  0  0  0
 35 76  1  0  0  0  0
 35 82  2  0  0  0  0
 36 67  1  0  0  0  0
 36 72  1  0  0  0  0
 36 83  2  0  0  0  0
 37 68  1  0  0  0  0
 37 77  1  0  0  0  0
 37 84  2  0  0  0  0
 38 73  1  0  0  0  0
 38 78  1  0  0  0  0
 38 85  2  0  0  0  0
 39 42  1  0  0  0  0
 40 49  1  0  0  0  0
 41 72  1  0  0  0  0
 42 44  1  0  0  0  0
 43 45  1  0  0  0  0
 43 46  1  0  0  0  0
 44 48  1  0  0  0  0
 45 50  1  0  0  0  0
 46 73  1  0  0  0  0
 47 50  1  0  0  0  0
 47 73  1  0  0  0  0
 48 76  1  0  0  0  0
 49 72  1  0  0  0  0
 50 71  1  0  0  0  0
 52 68  1  0  0  0  0
 53 69  1  0  0  0  0
 54 69  1  0  0  0  0
 55 69  1  0  0  0  0
 56 79  1  0  0  0  0
 57 80  1  0  0  0  0
 58 87  1  0  0  0  0
 59 60  1  0  0  0  0
 59 61  1  0  0  0  0
 60 62  1  0  0  0  0
 61 63  1  0  0  0  0
 62 64  1  0  0  0  0
 63 65  1  0  0  0  0
 64 66  1  0  0  0  0
 65 78  1  0  0  0  0
 66 80  1  0  0  0  0
 67 69  1  0  0  0  0
 67 77  1  0  0  0  0
 68 79  1  0  0  0  0
 70 71  1  0  0  0  0
M  CHG  2  79   1  80   1
M  ISO  4  38 100  58 101  78 100  87 101
M  END
> <Batch ID>
0033

> <Smiles>
CNC(C)C(=O)NC(C(=O)N1Cc2cc([101O:1][101CH2:1]c3cc(Cl)c(CNCCCCCCCC[100NH:0][100C:0](=O)N4CCCC(n5nc(-c6ccc(Oc7ccc(F)cc7F)cc6)c(C(N)=O)c5N)C4)cc3C)ccc2CC1C(=O)NC1CCCc2ccccc21)C(C)(C)C

> <Shape>
0.276

> <Color>
0.082

> <Negative vol penalty>
0.000

$$$$

  -OEChem-04052316483D

 84 92  0     1  0  0  0  0  0999 V2000
  -24.9405  -14.2039   12.8964 C   0  0  0  0  0  0  0  0  0  0  0  0
  -25.9225  -14.1902   13.8818 C   0  0  0  0  0  0  0  0  0  0  0  0
  -26.3776  -27.9956   18.9134 C   0  0  0  0  0  0  0  0  0  0  0  0
  -26.2282  -27.1503   21.1718 C   0  0  0  0  0  0  0  0  0  0  0  0
  -23.6248  -14.5231   13.2295 C   0  0  0  0  0  0  0  0  0  0  0  0
  -25.5895  -14.4968   15.2007 C   0  0  0  0  0  0  0  0  0  0  0  0
  -28.0226  -12.0722   20.2709 C   0  0  0  0  0  0  0  0  0  0  0  0
  -25.9191  -29.2390   19.3484 C   0  0  0  0  0  0  0  0  0  0  0  0
  -25.7698  -28.3938   21.6068 C   0  0  0  0  0  0  0  0  0  0  0  0
  -29.0134  -12.5211   21.1431 C   0  0  0  0  0  0  0  0  0  0  0  0
  -27.0920  -31.4142   22.3480 C   0  0  0  0  0  0  0  0  0  0  0  0
  -27.6497  -31.9369   23.5147 C   0  0  0  0  0  0  0  0  0  0  0  0
  -27.3142  -13.4139   22.6042 C   0  0  0  0  0  0  0  0  0  0  0  0
  -29.2381  -16.9390   21.5978 C   0  0  0  0  0  0  0  0  0  0  0  0
  -25.4639  -31.9733   24.5433 C   0  0  0  0  0  0  0  0  0  0  0  0
  -26.5321  -26.9512   19.8251 C   0  0  0  0  0  0  0  0  0  0  0  0
  -28.3418  -25.2310   19.3019 C   0  0  0  0  0  0  0  0  0  0  0  0
  -23.2736  -14.8243   14.5548 C   0  0  0  0  0  0  0  0  0  0  0  0
  -26.6684  -12.3008   20.5539 C   0  0  0  0  0  0  0  0  0  0  0  0
  -24.2681  -14.8216   15.5516 C   0  0  0  0  0  0  0  0  0  0  0  0
  -26.3081  -12.9647   21.7353 C   0  0  0  0  0  0  0  0  0  0  0  0
  -30.4576  -17.0474   22.2569 C   0  0  0  0  0  0  0  0  0  0  0  0
  -29.0466  -17.5984   20.3888 C   0  0  0  0  0  0  0  0  0  0  0  0
  -25.6152  -29.4381   20.6951 C   0  0  0  0  0  0  0  0  0  0  0  0
  -28.6594  -13.1946   22.3085 C   0  0  0  0  0  0  0  0  0  0  0  0
  -25.7202  -31.1711   22.2788 C   0  0  0  0  0  0  0  0  0  0  0  0
  -26.8357  -32.2164   24.6124 C   0  0  0  0  0  0  0  0  0  0  0  0
  -24.9062  -31.4506   23.3765 C   0  0  0  0  0  0  0  0  0  0  0  0
  -27.0051  -25.6663   19.3762 C   0  0  0  0  0  0  0  0  0  0  0  0
  -31.4456  -17.8214   21.6697 C   0  0  0  0  0  0  0  0  0  0  0  0
  -30.0976  -18.3479   19.8854 C   0  0  0  0  0  0  0  0  0  0  0  0
  -28.2589  -23.9486   18.8173 C   0  0  0  0  0  0  0  0  0  0  0  0
  -29.5504  -25.9240   19.6407 C   0  0  0  0  0  0  0  0  0  0  0  0
  -24.3167  -13.8947   19.1281 C   0  0  0  0  0  0  0  0  0  0  0  0
  -22.5146  -12.5563   21.4697 C   0  0  0  0  0  0  0  0  0  0  0  0
  -22.3749  -11.1837   24.5911 C   0  0  0  0  0  0  0  0  0  0  0  0
  -25.8959  -18.8927   18.8083 C   0  0  0  0  0  0  0  0  0  0  0  0
  -21.8474  -15.2095   14.8583 C   0  0  0  0  0  0  0  0  0  0  0  0
  -25.6106  -11.7867   19.6162 C   0  0  0  0  0  0  0  0  0  0  0  0
  -24.8676  -13.2174   22.0953 C   0  0  0  0  0  0  0  0  0  0  0  0
  -21.5053  -15.1565   16.3450 C   0  0  0  0  0  0  0  0  0  0  0  0
  -24.3480  -21.4231   16.8391 C   0  0  0  0  0  0  0  0  0  0  0  0
  -22.5944  -15.8373   17.1680 C   0  0  0  0  0  0  0  0  0  0  0  0
  -25.0068  -22.7165   17.3218 C   0  0  0  0  0  0  0  0  0  0  0  0
  -24.1405  -20.4340   17.9839 C   0  0  0  0  0  0  0  0  0  0  0  0
  -26.0124  -21.4206   19.2475 C   0  0  0  0  0  0  0  0  0  0  0  0
  -23.9413  -15.1243   16.9978 C   0  0  1  0  0  0  0  0  0  0  0  0
  -24.2833  -12.5269   19.7492 C   0  0  1  0  0  0  0  0  0  0  0  0
  -26.2932  -22.4270   18.1185 C   0  0  2  0  0  0  0  0  0  0  0  0
  -33.6042  -19.0961   21.7155 C   0  0  0  0  0  0  0  0  0  0  0  0
  -20.7562  -10.2177   26.2476 C   0  0  0  0  0  0  0  0  0  0  0  0
  -21.5436  -15.3663   22.1559 C   0  0  0  0  0  0  0  0  0  0  0  0
  -20.7192  -14.4717   24.3441 C   0  0  0  0  0  0  0  0  0  0  0  0
  -19.7667  -13.6072   22.2068 C   0  0  0  0  0  0  0  0  0  0  0  0
  -23.7411   -8.5584   24.5703 C   0  0  0  0  0  0  0  0  0  0  0  0
  -30.6713  -16.3351   23.5686 C   0  0  0  0  0  0  0  0  0  0  0  0
  -27.7375  -17.4795   19.6861 C   0  0  0  0  0  0  0  0  0  0  0  0
  -32.7751  -17.9744   22.3334 C   0  0  0  0  0  0  0  0  0  0  0  0
  -31.5246  -15.0704   23.4507 C   0  0  0  0  0  0  0  0  0  0  0  0
  -30.8837  -13.9876   22.5903 C   0  0  0  0  0  0  0  0  0  1  0  0
  -22.1167  -12.9526   22.8710 C   0  0  1  0  0  0  0  0  0  0  0  0
  -21.7149   -9.9173   25.1060 C   0  0  2  0  0  0  0  0  0  0  0  0
  -21.0639  -14.0965   22.8870 C   0  0  0  0  0  0  0  0  0  0  0  0
  -26.1366  -24.7359   18.9710 N   0  0  0  0  0  0  0  0  0  0  0  0
  -31.2965  -18.4767   20.4967 N   0  0  0  0  0  0  0  0  0  0  0  0
  -26.9293  -23.7033   18.6375 N   0  0  0  0  0  0  0  0  0  0  0  0
  -23.8704  -12.7010   21.1432 N   0  0  0  0  0  0  0  0  0  0  0  0
  -25.3984  -20.2017   18.6978 N   0  0  0  0  0  0  0  0  0  0  0  0
  -29.1943  -23.0180   18.5317 N   0  0  0  0  0  0  0  0  0  0  0  0
  -29.4551  -27.2359   20.1246 N   0  0  0  0  0  0  0  0  0  0  0  0
  -23.9755  -13.9131   17.7892 N   0  0  0  0  0  0  0  0  0  0  0  0
  -21.6789  -11.7283   23.5327 N   0  0  0  0  0  0  0  0  0  0  0  0
  -27.0967  -18.7615   19.4950 N   0  0  0  0  0  0  0  0  0  0  0  0
  -22.7453   -8.9592   25.5973 N   0  3  0  0  0  0  0  0  0  0  0  0
  -30.6823  -25.4013   19.5025 O   0  0  0  0  0  0  0  0  0  0  0  0
  -24.6276  -14.8620   19.8133 O   0  0  0  0  0  0  0  0  0  0  0  0
  -21.6553  -12.1272   20.6956 O   0  0  0  0  0  0  0  0  0  0  0  0
  -23.4028  -11.6458   25.0814 O   0  0  0  0  0  0  0  0  0  0  0  0
  -25.3158  -17.9141   18.3258 O   0  0  0  0  0  0  0  0  0  0  0  0
  -25.1681  -30.6514   21.1200 O   0  0  0  0  0  0  0  0  0  0  0  0
  -29.6245  -13.6344   23.1612 O   0  0  0  0  0  0  0  0  0  1  0  0
  -27.3717  -32.7169   25.7333 F   0  0  0  0  0  0  0  0  0  0  0  0
  -23.5878  -31.2181   23.3164 F   0  0  0  0  0  0  0  0  0  0  0  0
  -29.9832  -19.2093   18.4010 Cl  0  0  0  0  0  0  0  0  0  0  0  0
  1  2  1  0  0  0  0
  1  5  2  0  0  0  0
  2  6  2  0  0  0  0
  3  8  2  0  0  0  0
  3 16  1  0  0  0  0
  4  9  1  0  0  0  0
  4 16  2  0  0  0  0
  5 18  1  0  0  0  0
  6 20  1  0  0  0  0
  7 10  2  0  0  0  0
  7 19  1  0  0  0  0
  8 24  1  0  0  0  0
  9 24  2  0  0  0  0
 10 25  1  0  0  0  0
 11 12  2  0  0  0  0
 11 26  1  0  0  0  0
 12 27  1  0  0  0  0
 13 21  1  0  0  0  0
 13 25  2  0  0  0  0
 14 22  1  0  0  0  0
 14 23  2  0  0  0  0
 15 27  2  0  0  0  0
 15 28  1  0  0  0  0
 16 29  1  0  0  0  0
 17 29  1  0  0  0  0
 17 32  2  0  0  0  0
 17 33  1  0  0  0  0
 18 20  2  0  0  0  0
 18 38  1  0  0  0  0
 19 21  2  0  0  0  0
 19 39  1  0  0  0  0
 20 47  1  0  0  0  0
 21 40  1  0  0  0  0
 22 30  2  0  0  0  0
 22 56  1  0  0  0  0
 23 31  1  0  0  0  0
 23 57  1  0  0  0  0
 24 80  1  0  0  0  0
 25 81  1  0  0  0  0
 26 28  2  0  0  0  0
 26 80  1  0  0  0  0
 27 82  1  0  0  0  0
 28 83  1  0  0  0  0
 29 64  2  0  0  0  0
 30 58  1  0  0  0  0
 30 65  1  0  0  0  0
 31 65  2  0  0  0  0
 31 84  1  0  0  0  0
 32 66  1  0  0  0  0
 32 69  1  0  0  0  0
 33 70  1  0  0  0  0
 33 75  2  0  0  0  0
 34 48  1  0  0  0  0
 34 71  1  0  0  0  0
 34 76  2  0  0  0  0
 35 61  1  0  0  0  0
 35 67  1  0  0  0  0
 35 77  2  0  0  0  0
 36 62  1  0  0  0  0
 36 72  1  0  0  0  0
 36 78  2  0  0  0  0
 37 68  1  0  0  0  0
 37 73  1  0  0  0  0
 37 79  2  0  0  0  0
 38 41  1  0  0  0  0
 39 48  1  0  0  0  0
 40 67  1  0  0  0  0
 41 43  1  0  0  0  0
 42 44  1  0  0  0  0
 42 45  1  0  0  0  0
 43 47  1  0  0  0  0
 44 49  1  0  0  0  0
 45 68  1  0  0  0  0
 46 49  1  0  0  0  0
 46 68  1  0  0  0  0
 47 71  1  0  0  0  0
 48 67  1  0  0  0  0
 49 66  1  0  0  0  0
 50 58  1  0  0  0  0
 51 62  1  0  0  0  0
 52 63  1  0  0  0  0
 53 63  1  0  0  0  0
 54 63  1  0  0  0  0
 55 74  1  0  0  0  0
 56 59  1  0  0  0  0
 57 73  1  0  0  0  0
 59 60  1  0  0  0  0
 60 81  1  0  0  0  0
 61 63  1  0  0  0  0
 61 72  1  0  0  0  0
 62 74  1  0  0  0  0
 64 66  1  0  0  0  0
M  CHG  1  74   1
M  ISO  4  37 100  60 101  73 100  81 101
M  END
> <Batch ID>
0033

> <Smiles>
CCc1nc(Cl)c(C[100NH:0][100C:0](=O)N2CCCC(n3nc(-c4ccc(Oc5ccc(F)cc5F)cc4)c(C(N)=O)c3N)C2)cc1CC[101CH2:1][101O:1]c1ccc2c(c1)CN(C(=O)C(NC(=O)C(C)NC)C(C)(C)C)C(C(=O)NC1CCCc3ccccc31)C2

> <Shape>
0.233

> <Color>
0.084

> <Negative vol penalty>
0.000

$$$$

  -OEChem-04052316483D

 89 97  0     1  0  0  0  0  0999 V2000
  -17.2119  -11.9624   20.9824 C   0  0  0  0  0  0  0  0  0  0  0  0
  -17.7684  -13.2094   21.2487 C   0  0  0  0  0  0  0  0  0  0  0  0
  -22.3968  -28.9134   20.7122 C   0  0  0  0  0  0  0  0  0  0  0  0
  -22.9600  -26.6989   21.4969 C   0  0  0  0  0  0  0  0  0  0  0  0
  -17.9099  -10.8029   21.3176 C   0  0  0  0  0  0  0  0  0  0  0  0
  -19.0228  -13.2975   21.8513 C   0  0  0  0  0  0  0  0  0  0  0  0
  -23.3068  -17.5531   20.8302 C   0  0  0  0  0  0  0  0  0  0  0  0
  -21.0710  -28.7123   21.0960 C   0  0  0  0  0  0  0  0  0  0  0  0
  -21.6342  -26.4978   21.8808 C   0  0  0  0  0  0  0  0  0  0  0  0
  -23.6586  -18.7138   21.5178 C   0  0  0  0  0  0  0  0  0  0  0  0
  -17.6132  -28.9178   22.1989 C   0  0  0  0  0  0  0  0  0  0  0  0
  -16.9721  -29.9509   22.8825 C   0  0  0  0  0  0  0  0  0  0  0  0
  -25.3979  -17.4991   22.6662 C   0  0  0  0  0  0  0  0  0  0  0  0
  -25.6052  -23.1270   23.0021 C   0  0  0  0  0  0  0  0  0  0  0  0
  -18.6252  -29.8144   24.6391 C   0  0  0  0  0  0  0  0  0  0  0  0
  -24.5819  -22.2586   24.9656 C   0  0  0  0  0  0  0  0  0  0  0  0
  -23.3414  -27.9067   20.9126 C   0  0  0  0  0  0  0  0  0  0  0  0
  -25.7498  -28.6545   21.2969 C   0  0  0  0  0  0  0  0  0  0  0  0
  -19.1776  -10.8769   21.9159 C   0  0  0  0  0  0  0  0  0  0  0  0
  -23.9920  -16.3521   21.0639 C   0  0  0  0  0  0  0  0  0  0  0  0
  -19.7377  -12.1379   22.1961 C   0  0  0  0  0  0  0  0  0  0  0  0
  -25.0545  -16.3252   21.9784 C   0  0  0  0  0  0  0  0  0  0  0  0
  -24.8343  -22.1414   23.6082 C   0  0  0  0  0  0  0  0  0  0  0  0
  -26.0933  -24.1849   23.7611 C   0  0  0  0  0  0  0  0  0  0  0  0
  -20.6897  -27.5045   21.6803 C   0  0  0  0  0  0  0  0  0  0  0  0
  -24.7024  -18.6863   22.4381 C   0  0  0  0  0  0  0  0  0  0  0  0
  -18.7603  -28.3329   22.7354 C   0  0  0  0  0  0  0  0  0  0  0  0
  -17.4781  -30.3992   24.1026 C   0  0  0  0  0  0  0  0  0  0  0  0
  -19.2663  -28.7813   23.9555 C   0  0  0  0  0  0  0  0  0  0  0  0
  -24.7110  -28.1137   20.5158 C   0  0  0  0  0  0  0  0  0  0  0  0
  -25.7844  -24.2107   25.1115 C   0  0  0  0  0  0  0  0  0  0  0  0
  -26.8457  -28.6389   20.4690 C   0  0  0  0  0  0  0  0  0  0  0  0
  -25.7264  -29.1285   22.6498 C   0  0  0  0  0  0  0  0  0  0  0  0
  -23.1789  -13.4835   22.1656 C   0  0  0  0  0  0  0  0  0  0  0  0
  -26.2316  -12.7390   21.3601 C   0  0  0  0  0  0  0  0  0  0  0  0
  -29.4187  -13.8124   20.7796 C   0  0  0  0  0  0  0  0  0  0  0  0
  -28.3170  -25.3098   15.7147 C   0  0  0  0  0  0  0  0  0  0  0  0
  -19.8733   -9.5960   22.3033 C   0  0  0  0  0  0  0  0  0  0  0  0
  -23.6178  -15.1150   20.2944 C   0  0  0  0  0  0  0  0  0  0  0  0
  -25.8349  -15.0661   22.2506 C   0  0  0  0  0  0  0  0  0  0  0  0
  -21.3604   -9.7756   22.5977 C   0  0  0  0  0  0  0  0  0  0  0  0
  -28.0471  -28.8577   15.8430 C   0  0  0  0  0  0  0  0  0  0  0  0
  -21.5835  -10.9834   23.5023 C   0  0  0  0  0  0  0  0  0  0  0  0
  -27.2552  -29.1181   17.1256 C   0  0  0  0  0  0  0  0  0  0  0  0
  -27.5658  -27.5965   15.1289 C   0  0  0  0  0  0  0  0  0  0  0  0
  -26.7470  -26.6432   17.2489 C   0  0  0  0  0  0  0  0  0  0  0  0
  -21.1069  -12.2746   22.8261 C   0  0  1  0  0  0  0  0  0  0  0  0
  -24.0478  -13.8265   20.9888 C   0  0  1  0  0  0  0  0  0  0  0  0
  -27.2333  -27.8737   18.0335 C   0  0  2  0  0  0  0  0  0  0  0  0
  -25.3130  -25.6519   27.1083 C   0  0  0  0  0  0  0  0  0  0  0  0
  -31.7031  -12.9665   20.1769 C   0  0  0  0  0  0  0  0  0  0  0  0
  -26.6007  -11.7126   24.2097 C   0  0  0  0  0  0  0  0  0  0  0  0
  -29.0758  -11.7772   23.8381 C   0  0  0  0  0  0  0  0  0  0  0  0
  -27.6454  -10.2839   22.4428 C   0  0  0  0  0  0  0  0  0  0  0  0
  -29.4782  -15.4064   18.2867 C   0  0  0  0  0  0  0  0  0  0  0  0
  -26.9319  -25.2567   23.1102 C   0  0  0  0  0  0  0  0  0  0  0  0
  -24.2966  -20.9976   22.8243 C   0  0  0  0  0  0  0  0  0  1  0  0
  -26.2809  -25.3234   25.9758 C   0  0  0  0  0  0  0  0  0  0  0  0
  -28.4352  -25.1544   23.3982 C   0  0  0  0  0  0  0  0  0  0  0  0
  -29.1172  -23.8786   22.8892 C   0  0  0  0  0  0  0  0  0  0  0  0
  -29.0909  -23.7398   21.3652 C   0  0  0  0  0  0  0  0  0  0  0  0
  -29.7647  -22.4587   20.8604 C   0  0  0  0  0  0  0  0  0  0  0  0
  -29.7125  -22.2318   19.3457 C   0  0  0  0  0  0  0  0  0  0  0  0
  -30.4633  -23.2995   18.5471 C   0  0  0  0  0  0  0  0  0  0  0  0
  -30.4012  -23.0808   17.0306 C   0  0  0  0  0  0  0  0  0  0  0  0
  -28.9929  -23.0362   16.4448 C   0  0  0  0  0  0  0  0  0  0  0  0
  -27.5648  -12.7828   22.0670 C   0  0  1  0  0  0  0  0  0  0  0  0
  -30.3893  -13.5216   19.6492 C   0  0  2  0  0  0  0  0  0  0  0  0
  -27.7059  -11.6626   23.1359 C   0  0  0  0  0  0  0  0  0  0  0  0
  -25.0388  -23.2715   25.7356 N   0  0  0  0  0  0  0  0  0  0  0  0
  -25.1109  -27.7791   19.2861 N   0  0  0  0  0  0  0  0  0  0  0  0
  -26.4133  -28.1106   19.2882 N   0  0  0  0  0  0  0  0  0  0  0  0
  -25.4269  -13.8812   21.4779 N   0  0  0  0  0  0  0  0  0  0  0  0
  -27.5704  -26.4530   16.0444 N   0  0  0  0  0  0  0  0  0  0  0  0
  -28.1272  -29.0258   20.6430 N   0  0  0  0  0  0  0  0  0  0  0  0
  -24.5175  -29.0723   23.3566 N   0  0  0  0  0  0  0  0  0  0  0  0
  -22.0739  -12.7181   21.8450 N   0  0  0  0  0  0  0  0  0  0  0  0
  -28.5823  -12.7434   21.0222 N   0  0  0  0  0  0  0  0  0  0  0  0
  -28.2719  -24.2743   16.6401 N   0  0  0  0  0  0  0  0  0  0  0  0
  -30.6792  -14.7662   18.8824 N   0  3  0  0  0  0  0  0  0  0  0  0
  -26.7435  -29.6034   23.2098 O   0  0  0  0  0  0  0  0  0  0  0  0
  -23.4887  -13.8824   23.2821 O   0  0  0  0  0  0  0  0  0  0  0  0
  -25.9188  -11.7314   20.7209 O   0  0  0  0  0  0  0  0  0  0  0  0
  -29.4065  -14.8796   21.3891 O   0  0  0  0  0  0  0  0  0  0  0  0
  -28.9793  -25.2208   14.6752 O   0  0  0  0  0  0  0  0  0  0  0  0
  -19.3961  -27.3079   22.0552 O   0  0  0  0  0  0  0  0  0  0  0  0
  -25.0496  -19.8249   23.1154 O   0  0  0  0  0  0  0  0  0  1  0  0
  -16.8632  -31.3923   24.7581 F   0  0  0  0  0  0  0  0  0  0  0  0
  -20.3686  -28.2241   24.4754 F   0  0  0  0  0  0  0  0  0  0  0  0
  1  2  1  0  0  0  0
  1  5  2  0  0  0  0
  2  6  2  0  0  0  0
  3  8  2  0  0  0  0
  3 17  1  0  0  0  0
  4  9  1  0  0  0  0
  4 17  2  0  0  0  0
  5 19  1  0  0  0  0
  6 21  1  0  0  0  0
  7 10  2  0  0  0  0
  7 20  1  0  0  0  0
  8 25  1  0  0  0  0
  9 25  2  0  0  0  0
 10 26  1  0  0  0  0
 11 12  2  0  0  0  0
 11 27  1  0  0  0  0
 12 28  1  0  0  0  0
 13 22  1  0  0  0  0
 13 26  2  0  0  0  0
 14 23  2  0  0  0  0
 14 24  1  0  0  0  0
 15 28  2  0  0  0  0
 15 29  1  0  0  0  0
 16 23  1  0  0  0  0
 16 70  2  0  0  0  0
 17 30  1  0  0  0  0
 18 30  1  0  0  0  0
 18 32  2  0  0  0  0
 18 33  1  0  0  0  0
 19 21  2  0  0  0  0
 19 38  1  0  0  0  0
 20 22  2  0  0  0  0
 20 39  1  0  0  0  0
 21 47  1  0  0  0  0
 22 40  1  0  0  0  0
 23 57  1  0  0  0  0
 24 31  2  0  0  0  0
 24 56  1  0  0  0  0
 25 86  1  0  0  0  0
 26 87  1  0  0  0  0
 27 29  2  0  0  0  0
 27 86  1  0  0  0  0
 28 88  1  0  0  0  0
 29 89  1  0  0  0  0
 30 71  2  0  0  0  0
 31 58  1  0  0  0  0
 31 70  1  0  0  0  0
 32 72  1  0  0  0  0
 32 75  1  0  0  0  0
 33 76  1  0  0  0  0
 33 81  2  0  0  0  0
 34 48  1  0  0  0  0
 34 77  1  0  0  0  0
 34 82  2  0  0  0  0
 35 67  1  0  0  0  0
 35 73  1  0  0  0  0
 35 83  2  0  0  0  0
 36 68  1  0  0  0  0
 36 78  1  0  0  0  0
 36 84  2  0  0  0  0
 37 74  1  0  0  0  0
 37 79  1  0  0  0  0
 37 85  2  0  0  0  0
 38 41  1  0  0  0  0
 39 48  1  0  0  0  0
 40 73  1  0  0  0  0
 41 43  1  0  0  0  0
 42 44  1  0  0  0  0
 42 45  1  0  0  0  0
 43 47  1  0  0  0  0
 44 49  1  0  0  0  0
 45 74  1  0  0  0  0
 46 49  1  0  0  0  0
 46 74  1  0  0  0  0
 47 77  1  0  0  0  0
 48 73  1  0  0  0  0
 49 72  1  0  0  0  0
 50 58  1  0  0  0  0
 51 68  1  0  0  0  0
 52 69  1  0  0  0  0
 53 69  1  0  0  0  0
 54 69  1  0  0  0  0
 55 80  1  0  0  0  0
 56 59  1  0  0  0  0
 57 87  1  0  0  0  0
 59 60  1  0  0  0  0
 60 61  1  0  0  0  0
 61 62  1  0  0  0  0
 62 63  1  0  0  0  0
 63 64  1  0  0  0  0
 64 65  1  0  0  0  0
 65 66  1  0  0  0  0
 66 79  1  0  0  0  0
 67 69  1  0  0  0  0
 67 78  1  0  0  0  0
 68 80  1  0  0  0  0
 71 72  1  0  0  0  0
M  CHG  1  80   1
M  ISO  4  37 100  57 101  79 100  87 101
M  END
> <Batch ID>
0033

> <Smiles>
CCc1ncc([101CH2:1][101O:1]c2ccc3c(c2)CN(C(=O)C(NC(=O)C(C)NC)C(C)(C)C)C(C(=O)NC2CCCc4ccccc42)C3)cc1CCCCCCCCC[100NH:0][100C:0](=O)N1CCCC(n2nc(-c3ccc(Oc4ccc(F)cc4F)cc3)c(C(N)=O)c2N)C1

> <Shape>
0.213

> <Color>
0.073

> <Negative vol penalty>
0.000

$$$$

  -OEChem-04052316483D

 86 95  0     1  0  0  0  0  0999 V2000
  -15.4620  -27.4374   29.2027 C   0  0  0  0  0  0  0  0  0  0  0  0
  -16.3014  -26.5271   28.5684 C   0  0  0  0  0  0  0  0  0  0  0  0
  -23.0007   -9.8939   19.9818 C   0  0  0  0  0  0  0  0  0  0  0  0
  -23.7306   -9.9440   22.2843 C   0  0  0  0  0  0  0  0  0  0  0  0
  -15.9725  -28.2904   30.1803 C   0  0  0  0  0  0  0  0  0  0  0  0
  -17.6520  -26.4702   28.9105 C   0  0  0  0  0  0  0  0  0  0  0  0
  -21.2022  -21.4826   29.0700 C   0  0  0  0  0  0  0  0  0  0  0  0
  -22.2360   -8.7584   20.2489 C   0  0  0  0  0  0  0  0  0  0  0  0
  -22.9658   -8.8085   22.5515 C   0  0  0  0  0  0  0  0  0  0  0  0
  -22.1191  -20.9545   28.1622 C   0  0  0  0  0  0  0  0  0  0  0  0
  -23.2127   -5.4702   22.0767 C   0  0  0  0  0  0  0  0  0  0  0  0
  -23.8028   -4.4531   22.8269 C   0  0  0  0  0  0  0  0  0  0  0  0
  -23.9133  -22.0471   29.3481 C   0  0  0  0  0  0  0  0  0  0  0  0
  -28.3690  -20.0753   22.3397 C   0  0  0  0  0  0  0  0  0  0  0  0
  -22.0821   -4.6930   24.5058 C   0  0  0  0  0  0  0  0  0  0  0  0
  -23.7481  -10.4867   20.9995 C   0  0  0  0  0  0  0  0  0  0  0  0
  -24.1305  -13.0028   20.8245 C   0  0  0  0  0  0  0  0  0  0  0  0
  -17.3280  -28.2373   30.5415 C   0  0  0  0  0  0  0  0  0  0  0  0
  -21.6334  -22.3071   30.1190 C   0  0  0  0  0  0  0  0  0  0  0  0
  -18.1813  -27.3242   29.8929 C   0  0  0  0  0  0  0  0  0  0  0  0
  -23.0001  -22.5822   30.2694 C   0  0  0  0  0  0  0  0  0  0  0  0
  -27.7116  -20.4269   23.5221 C   0  0  0  0  0  0  0  0  0  0  0  0
  -27.0693  -19.4293   24.2678 C   0  0  0  0  0  0  0  0  0  0  0  0
  -22.2185   -8.2157   21.5337 C   0  0  0  0  0  0  0  0  0  0  0  0
  -23.4746  -21.2391   28.2995 C   0  0  0  0  0  0  0  0  0  0  0  0
  -22.0573   -6.0988   22.5411 C   0  0  0  0  0  0  0  0  0  0  0  0
  -23.2376   -4.0644   24.0414 C   0  0  0  0  0  0  0  0  0  0  0  0
  -21.4920   -5.7102   23.7556 C   0  0  0  0  0  0  0  0  0  0  0  0
  -24.5388  -11.6593   20.7241 C   0  0  0  0  0  0  0  0  0  0  0  0
  -28.3817  -18.7422   21.9625 C   0  0  0  0  0  0  0  0  0  0  0  0
  -27.1548  -18.1205   23.7993 C   0  0  0  0  0  0  0  0  0  0  0  0
  -25.2387  -13.7268   20.4583 C   0  0  0  0  0  0  0  0  0  0  0  0
  -22.8627  -13.5476   21.2140 C   0  0  0  0  0  0  0  0  0  0  0  0
  -21.0944  -25.3222   30.9692 C   0  0  0  0  0  0  0  0  0  0  0  0
  -22.8244  -24.4852   33.5824 C   0  0  0  0  0  0  0  0  0  0  0  0
  -25.1560  -22.4171   34.9729 C   0  0  0  0  0  0  0  0  0  0  0  0
  -30.7346  -14.6670   20.6962 C   0  0  0  0  0  0  0  0  0  0  0  0
  -17.8439  -29.2119   31.5703 C   0  0  0  0  0  0  0  0  0  0  0  0
  -20.6346  -22.8471   31.1056 C   0  0  0  0  0  0  0  0  0  0  0  0
  -27.6557  -21.8745   23.9359 C   0  0  0  0  0  0  0  0  0  0  0  0
  -26.3625  -19.7260   25.5619 C   0  0  0  0  0  0  0  0  0  0  0  0
  -23.5166  -23.4454   31.3904 C   0  0  0  0  0  0  0  0  0  0  0  0
  -19.2075  -28.8306   32.1407 C   0  0  0  0  0  0  0  0  0  0  0  0
  -27.2552  -22.0677   25.3988 C   0  0  0  0  0  0  0  0  0  0  0  0
  -29.5916  -12.2438   18.3513 C   0  0  0  0  0  0  0  0  0  0  0  0
  -20.1647  -28.4391   31.0194 C   0  0  0  0  0  0  0  0  0  0  0  0
  -28.1443  -11.9823   18.7717 C   0  0  0  0  0  0  0  0  0  0  0  0
  -30.4963  -12.4793   19.5588 C   0  0  0  0  0  0  0  0  0  0  0  0
  -28.5881  -13.2718   20.9021 C   0  0  0  0  0  0  0  0  0  0  0  0
  -19.6468  -27.2153   30.2541 C   0  0  1  0  0  0  0  0  0  0  0  0
  -21.1279  -24.0937   31.8337 C   0  0  1  0  0  0  0  0  0  0  0  0
  -26.0281  -21.2153   25.7399 C   0  0  2  0  0  0  0  0  0  0  0  0
  -27.6268  -13.0840   19.7160 C   0  0  2  0  0  0  0  0  0  0  0  0
  -26.5314  -16.9933   24.5582 C   0  0  0  0  0  0  0  0  0  0  0  0
  -26.3930  -22.0023   37.1165 C   0  0  0  0  0  0  0  0  0  0  0  0
  -24.6182  -26.8859   33.0090 C   0  0  0  0  0  0  0  0  0  0  0  0
  -26.3232  -25.8916   34.5494 C   0  0  0  0  0  0  0  0  0  0  0  0
  -24.0797  -26.5398   35.4266 C   0  0  0  0  0  0  0  0  0  0  0  0
  -24.0214  -19.6964   35.2364 C   0  0  0  0  0  0  0  0  0  0  0  0
  -29.0814  -18.3441   20.7060 C   0  0  0  0  0  0  0  0  0  0  0  0
  -25.5480  -21.4931   27.1626 C   0  0  0  0  0  0  0  0  0  1  0  0
  -30.5674  -17.9802   20.8920 C   0  0  0  0  0  0  0  0  0  0  0  0
  -30.8175  -16.8452   21.8827 C   0  0  0  0  0  0  0  0  0  0  0  0
  -24.2897  -24.5021   33.9448 C   0  0  1  0  0  0  0  0  0  0  0  0
  -25.1697  -21.6517   36.2838 C   0  0  2  0  0  0  0  0  0  0  0  0
  -24.8181  -25.9401   34.2101 C   0  0  0  0  0  0  0  0  0  0  0  0
  -25.8074  -11.5344   20.3252 N   0  0  0  0  0  0  0  0  0  0  0  0
  -27.7923  -17.7526   22.6654 N   0  0  0  0  0  0  0  0  0  0  0  0
  -26.2057  -12.8087   20.1716 N   0  0  0  0  0  0  0  0  0  0  0  0
  -22.5001  -23.9550   32.3256 N   0  0  0  0  0  0  0  0  0  0  0  0
  -29.9501  -13.5368   20.4128 N   0  0  0  0  0  0  0  0  0  0  0  0
  -25.4706  -15.0528   20.3567 N   0  0  0  0  0  0  0  0  0  0  0  0
  -21.8326  -12.6621   21.5590 N   0  0  0  0  0  0  0  0  0  0  0  0
  -19.8940  -26.0054   31.0088 N   0  0  0  0  0  0  0  0  0  0  0  0
  -24.4413  -23.5919   35.0749 N   0  0  0  0  0  0  0  0  0  0  0  0
  -30.1389  -15.6246   21.5079 N   0  0  0  0  0  0  0  0  0  0  0  0
  -25.1812  -20.1839   36.0265 N   0  3  0  0  0  0  0  0  0  0  0  0
  -22.6448  -14.7827   21.2391 O   0  0  0  0  0  0  0  0  0  0  0  0
  -22.0849  -25.6283   30.3158 O   0  0  0  0  0  0  0  0  0  0  0  0
  -21.9972  -24.9197   34.3878 O   0  0  0  0  0  0  0  0  0  0  0  0
  -25.7256  -22.0150   33.9608 O   0  0  0  0  0  0  0  0  0  0  0  0
  -31.8789  -14.8144   20.2538 O   0  0  0  0  0  0  0  0  0  0  0  0
  -21.4721   -7.1079   21.7948 O   0  0  0  0  0  0  0  0  0  0  0  0
  -24.3717  -20.7255   27.4144 O   0  0  0  0  0  0  0  0  0  1  0  0
  -23.8035   -3.0866   24.7609 F   0  0  0  0  0  0  0  0  0  0  0  0
  -20.3814   -6.3095   24.2064 F   0  0  0  0  0  0  0  0  0  0  0  0
  1  2  1  0  0  0  0
  1  5  2  0  0  0  0
  2  6  2  0  0  0  0
  3  8  2  0  0  0  0
  3 16  1  0  0  0  0
  4  9  1  0  0  0  0
  4 16  2  0  0  0  0
  5 18  1  0  0  0  0
  6 20  1  0  0  0  0
  7 10  2  0  0  0  0
  7 19  1  0  0  0  0
  8 24  1  0  0  0  0
  9 24  2  0  0  0  0
 10 25  1  0  0  0  0
 11 12  2  0  0  0  0
 11 26  1  0  0  0  0
 12 27  1  0  0  0  0
 13 21  1  0  0  0  0
 13 25  2  0  0  0  0
 14 22  1  0  0  0  0
 14 30  2  0  0  0  0
 15 27  2  0  0  0  0
 15 28  1  0  0  0  0
 16 29  1  0  0  0  0
 17 29  1  0  0  0  0
 17 32  2  0  0  0  0
 17 33  1  0  0  0  0
 18 20  2  0  0  0  0
 18 38  1  0  0  0  0
 19 21  2  0  0  0  0
 19 39  1  0  0  0  0
 20 50  1  0  0  0  0
 21 42  1  0  0  0  0
 22 23  2  0  0  0  0
 22 40  1  0  0  0  0
 23 31  1  0  0  0  0
 23 41  1  0  0  0  0
 24 83  1  0  0  0  0
 25 84  1  0  0  0  0
 26 28  2  0  0  0  0
 26 83  1  0  0  0  0
 27 85  1  0  0  0  0
 28 86  1  0  0  0  0
 29 67  2  0  0  0  0
 30 60  1  0  0  0  0
 30 68  1  0  0  0  0
 31 54  1  0  0  0  0
 31 68  2  0  0  0  0
 32 69  1  0  0  0  0
 32 72  1  0  0  0  0
 33 73  1  0  0  0  0
 33 78  2  0  0  0  0
 34 51  1  0  0  0  0
 34 74  1  0  0  0  0
 34 79  2  0  0  0  0
 35 64  1  0  0  0  0
 35 70  1  0  0  0  0
 35 80  2  0  0  0  0
 36 65  1  0  0  0  0
 36 75  1  0  0  0  0
 36 81  2  0  0  0  0
 37 71  1  0  0  0  0
 37 76  1  0  0  0  0
 37 82  2  0  0  0  0
 38 43  1  0  0  0  0
 39 51  1  0  0  0  0
 40 44  1  0  0  0  0
 41 52  1  0  0  0  0
 42 70  1  0  0  0  0
 43 46  1  0  0  0  0
 44 52  1  0  0  0  0
 45 47  1  0  0  0  0
 45 48  1  0  0  0  0
 46 50  1  0  0  0  0
 47 53  1  0  0  0  0
 48 71  1  0  0  0  0
 49 53  1  0  0  0  0
 49 71  1  0  0  0  0
 50 74  1  0  0  0  0
 51 70  1  0  0  0  0
 52 61  1  0  0  0  0
 53 69  1  0  0  0  0
 55 65  1  0  0  0  0
 56 66  1  0  0  0  0
 57 66  1  0  0  0  0
 58 66  1  0  0  0  0
 59 77  1  0  0  0  0
 60 62  1  0  0  0  0
 61 84  1  0  0  0  0
 62 63  1  0  0  0  0
 63 76  1  0  0  0  0
 64 66  1  0  0  0  0
 64 75  1  0  0  0  0
 65 77  1  0  0  0  0
 67 69  1  0  0  0  0
M  CHG  1  77   1
M  ISO  4  37 100  61 101  76 100  84 101
M  END
> <Batch ID>
0033

> <Smiles>
CNC(C)C(=O)NC(C(=O)N1Cc2cc([101O:1][101CH2:1]C3CCc4cc(CCC[100NH:0][100C:0](=O)N5CCCC(n6nc(-c7ccc(Oc8ccc(F)cc8F)cc7)c(C(N)=O)c6N)C5)nc(C)c4C3)ccc2CC1C(=O)NC1CCCc2ccccc21)C(C)(C)C

> <Shape>
0.181

> <Color>
0.197

> <Negative vol penalty>
0.000

$$$$

  -OEChem-04052316483D

 81 89  0     1  0  0  0  0  0999 V2000
  -39.7375  -27.9055   24.6384 C   0  0  0  0  0  0  0  0  0  0  0  0
  -38.9081  -26.8763   25.0723 C   0  0  0  0  0  0  0  0  0  0  0  0
  -22.9979   -9.8942   19.9903 C   0  0  0  0  0  0  0  0  0  0  0  0
  -23.7553   -9.9429   22.2840 C   0  0  0  0  0  0  0  0  0  0  0  0
  -39.1825  -29.0900   24.1557 C   0  0  0  0  0  0  0  0  0  0  0  0
  -37.5232  -27.0314   25.0248 C   0  0  0  0  0  0  0  0  0  0  0  0
  -35.1727  -22.9434   23.1785 C   0  0  0  0  0  0  0  0  0  0  0  0
  -22.2392   -8.7565   20.2650 C   0  0  0  0  0  0  0  0  0  0  0  0
  -22.9966   -8.8051   22.5587 C   0  0  0  0  0  0  0  0  0  0  0  0
  -35.0144  -21.8574   24.0383 C   0  0  0  0  0  0  0  0  0  0  0  0
  -23.2460   -5.4680   22.0760 C   0  0  0  0  0  0  0  0  0  0  0  0
  -23.8477   -4.4513   22.8175 C   0  0  0  0  0  0  0  0  0  0  0  0
  -32.7336  -22.5254   24.4522 C   0  0  0  0  0  0  0  0  0  0  0  0
  -31.6867  -16.7216   23.2424 C   0  0  0  0  0  0  0  0  0  0  0  0
  -22.1468   -4.6845   24.5174 C   0  0  0  0  0  0  0  0  0  0  0  0
  -32.3277  -18.7018   21.4779 C   0  0  0  0  0  0  0  0  0  0  0  0
  -23.7560  -10.4874   20.9999 C   0  0  0  0  0  0  0  0  0  0  0  0
  -24.1299  -13.0048   20.8240 C   0  0  0  0  0  0  0  0  0  0  0  0
  -37.7899  -29.2559   24.0932 C   0  0  0  0  0  0  0  0  0  0  0  0
  -34.1143  -23.8363   22.9572 C   0  0  0  0  0  0  0  0  0  0  0  0
  -36.9490  -28.2197   24.5421 C   0  0  0  0  0  0  0  0  0  0  0  0
  -32.8803  -23.6205   23.5872 C   0  0  0  0  0  0  0  0  0  0  0  0
  -31.1001  -16.7281   21.9817 C   0  0  0  0  0  0  0  0  0  0  0  0
  -22.2385   -8.2119   21.5491 C   0  0  0  0  0  0  0  0  0  0  0  0
  -33.7956  -21.6499   24.6776 C   0  0  0  0  0  0  0  0  0  0  0  0
  -22.0947   -6.0931   22.5552 C   0  0  0  0  0  0  0  0  0  0  0  0
  -23.2981   -4.0595   24.0382 C   0  0  0  0  0  0  0  0  0  0  0  0
  -21.5451   -5.7013   23.7759 C   0  0  0  0  0  0  0  0  0  0  0  0
  -31.4214  -17.7337   21.0768 C   0  0  0  0  0  0  0  0  0  0  0  0
  -24.5403  -11.6624   20.7167 C   0  0  0  0  0  0  0  0  0  0  0  0
  -32.5813  -17.7350   23.5465 C   0  0  0  0  0  0  0  0  0  0  0  0
  -25.2318  -13.7321   20.4455 C   0  0  0  0  0  0  0  0  0  0  0  0
  -22.8656  -13.5458   21.2295 C   0  0  0  0  0  0  0  0  0  0  0  0
  -33.6535  -26.9396   23.4680 C   0  0  0  0  0  0  0  0  0  0  0  0
  -30.7477  -14.6212   20.7170 C   0  0  0  0  0  0  0  0  0  0  0  0
  -30.8846  -26.3940   21.8687 C   0  0  0  0  0  0  0  0  0  0  0  0
  -28.4893  -24.1644   20.9001 C   0  0  0  0  0  0  0  0  0  0  0  0
  -37.2368  -30.5724   23.6079 C   0  0  0  0  0  0  0  0  0  0  0  0
  -34.2929  -24.9878   22.0061 C   0  0  0  0  0  0  0  0  0  0  0  0
  -31.7066  -24.5384   23.3675 C   0  0  0  0  0  0  0  0  0  0  0  0
  -35.7564  -30.5128   23.2405 C   0  0  0  0  0  0  0  0  0  0  0  0
  -29.5566  -12.2844   18.2756 C   0  0  0  0  0  0  0  0  0  0  0  0
  -34.9656  -29.7898   24.3263 C   0  0  0  0  0  0  0  0  0  0  0  0
  -28.1219  -12.0016   18.7193 C   0  0  0  0  0  0  0  0  0  0  0  0
  -30.4783  -12.5022   19.4714 C   0  0  0  0  0  0  0  0  0  0  0  0
  -28.5829  -13.2920   20.8518 C   0  0  0  0  0  0  0  0  0  0  0  0
  -35.4417  -28.3406   24.4831 C   0  0  1  0  0  0  0  0  0  0  0  0
  -33.3072  -26.1256   22.2535 C   0  0  1  0  0  0  0  0  0  0  0  0
  -27.6125  -13.0964   19.6735 C   0  0  2  0  0  0  0  0  0  0  0  0
  -26.3283  -24.0215   19.6323 C   0  0  0  0  0  0  0  0  0  0  0  0
  -29.4185  -27.6512   24.2309 C   0  0  0  0  0  0  0  0  0  0  0  0
  -27.2988  -26.6389   23.3645 C   0  0  0  0  0  0  0  0  0  0  0  0
  -28.5359  -28.3094   21.9854 C   0  0  0  0  0  0  0  0  0  0  0  0
  -29.6393  -22.2866   18.9226 C   0  0  0  0  0  0  0  0  0  0  0  0
  -30.1313  -15.6440   21.6379 C   0  0  0  0  0  0  0  0  0  0  0  0
  -33.2377  -17.7594   24.9037 C   0  0  0  0  0  0  0  0  0  0  0  0
  -32.4537  -18.5507   25.9529 C   0  0  0  0  0  0  0  0  0  0  0  0
  -32.3291  -20.0334   25.6222 C   0  0  0  0  0  0  0  0  0  1  0  0
  -29.4862  -25.9828   22.2617 C   0  0  1  0  0  0  0  0  0  0  0  0
  -27.8423  -23.9034   19.5518 C   0  0  2  0  0  0  0  0  0  0  0  0
  -28.7074  -27.1292   22.9665 C   0  0  0  0  0  0  0  0  0  0  0  0
  -32.9181  -18.7285   22.6938 N   0  0  0  0  0  0  0  0  0  0  0  0
  -25.8043  -11.5413   20.3023 N   0  0  0  0  0  0  0  0  0  0  0  0
  -26.1976  -12.8168   20.1459 N   0  0  0  0  0  0  0  0  0  0  0  0
  -31.9328  -25.6536   22.4334 N   0  0  0  0  0  0  0  0  0  0  0  0
  -29.9483  -13.5335   20.3651 N   0  0  0  0  0  0  0  0  0  0  0  0
  -25.4591  -15.0588   20.3431 N   0  0  0  0  0  0  0  0  0  0  0  0
  -21.8419  -12.6572   21.5856 N   0  0  0  0  0  0  0  0  0  0  0  0
  -34.9086  -27.5157   23.4202 N   0  0  0  0  0  0  0  0  0  0  0  0
  -28.8496  -25.4873   21.0461 N   0  0  0  0  0  0  0  0  0  0  0  0
  -28.1820  -22.5344   19.0707 N   0  3  0  0  0  0  0  0  0  0  0  0
  -22.6449  -14.7803   21.2591 O   0  0  0  0  0  0  0  0  0  0  0  0
  -32.8414  -27.0390   24.3804 O   0  0  0  0  0  0  0  0  0  0  0  0
  -31.9043  -14.7873   20.3209 O   0  0  0  0  0  0  0  0  0  0  0  0
  -31.0408  -27.3328   21.0840 O   0  0  0  0  0  0  0  0  0  0  0  0
  -28.6548  -23.2837   21.7412 O   0  0  0  0  0  0  0  0  0  0  0  0
  -21.4981   -7.1018   21.8175 O   0  0  0  0  0  0  0  0  0  0  0  0
  -33.6385  -20.5910   25.5178 O   0  0  0  0  0  0  0  0  0  1  0  0
  -23.8751   -3.0821   24.7494 F   0  0  0  0  0  0  0  0  0  0  0  0
  -20.4386   -6.2972   24.2409 F   0  0  0  0  0  0  0  0  0  0  0  0
  -30.7333  -17.8061   19.5024 Cl  0  0  0  0  0  0  0  0  0  0  0  0
  1  2  1  0  0  0  0
  1  5  2  0  0  0  0
  2  6  2  0  0  0  0
  3  8  2  0  0  0  0
  3 17  1  0  0  0  0
  4  9  1  0  0  0  0
  4 17  2  0  0  0  0
  5 19  1  0  0  0  0
  6 21  1  0  0  0  0
  7 10  2  0  0  0  0
  7 20  1  0  0  0  0
  8 24  1  0  0  0  0
  9 24  2  0  0  0  0
 10 25  1  0  0  0  0
 11 12  2  0  0  0  0
 11 26  1  0  0  0  0
 12 27  1  0  0  0  0
 13 22  1  0  0  0  0
 13 25  2  0  0  0  0
 14 23  2  0  0  0  0
 14 31  1  0  0  0  0
 15 27  2  0  0  0  0
 15 28  1  0  0  0  0
 16 29  2  0  0  0  0
 16 62  1  0  0  0  0
 17 30  1  0  0  0  0
 18 30  1  0  0  0  0
 18 32  2  0  0  0  0
 18 33  1  0  0  0  0
 19 21  2  0  0  0  0
 19 38  1  0  0  0  0
 20 22  2  0  0  0  0
 20 39  1  0  0  0  0
 21 47  1  0  0  0  0
 22 40  1  0  0  0  0
 23 29  1  0  0  0  0
 23 55  1  0  0  0  0
 24 77  1  0  0  0  0
 25 78  1  0  0  0  0
 26 28  2  0  0  0  0
 26 77  1  0  0  0  0
 27 79  1  0  0  0  0
 28 80  1  0  0  0  0
 29 81  1  0  0  0  0
 30 63  2  0  0  0  0
 31 56  1  0  0  0  0
 31 62  2  0  0  0  0
 32 64  1  0  0  0  0
 32 67  1  0  0  0  0
 33 68  1  0  0  0  0
 33 72  2  0  0  0  0
 34 48  1  0  0  0  0
 34 69  1  0  0  0  0
 34 73  2  0  0  0  0
 35 55  1  0  0  0  0
 35 66  1  0  0  0  0
 35 74  2  0  0  0  0
 36 59  1  0  0  0  0
 36 65  1  0  0  0  0
 36 75  2  0  0  0  0
 37 60  1  0  0  0  0
 37 70  1  0  0  0  0
 37 76  2  0  0  0  0
 38 41  1  0  0  0  0
 39 48  1  0  0  0  0
 40 65  1  0  0  0  0
 41 43  1  0  0  0  0
 42 44  1  0  0  0  0
 42 45  1  0  0  0  0
 43 47  1  0  0  0  0
 44 49  1  0  0  0  0
 45 66  1  0  0  0  0
 46 49  1  0  0  0  0
 46 66  1  0  0  0  0
 47 69  1  0  0  0  0
 48 65  1  0  0  0  0
 49 64  1  0  0  0  0
 50 60  1  0  0  0  0
 51 61  1  0  0  0  0
 52 61  1  0  0  0  0
 53 61  1  0  0  0  0
 54 71  1  0  0  0  0
 56 57  1  0  0  0  0
 57 58  1  0  0  0  0
 58 78  1  0  0  0  0
 59 61  1  0  0  0  0
 59 70  1  0  0  0  0
 60 71  1  0  0  0  0
 63 64  1  0  0  0  0
M  CHG  1  71   1
M  ISO  4  35 100  55 100  58 101  78 101
M  END
> <Batch ID>
0033

> <Smiles>
CNC(C)C(=O)NC(C(=O)N1Cc2cc([101O:1][101CH2:1]CCc3cc([100CH2:0][100C:0](=O)N4CCCC(n5nc(-c6ccc(Oc7ccc(F)cc7F)cc6)c(C(N)=O)c5N)C4)c(Cl)cn3)ccc2CC1C(=O)NC1CCCc2ccccc21)C(C)(C)C

> <Shape>
0.219

> <Color>
0.205

> <Negative vol penalty>
0.000

$$$$

  -OEChem-04052316483D

 84 92  0     1  0  0  0  0  0999 V2000
  -19.9211  -21.6784   19.9045 C   0  0  0  0  0  0  0  0  0  0  0  0
  -21.2724  -21.5274   20.1989 C   0  0  0  0  0  0  0  0  0  0  0  0
  -25.7146  -13.5484   21.1435 C   0  0  0  0  0  0  0  0  0  0  0  0
  -25.0296  -14.0740   18.8870 C   0  0  0  0  0  0  0  0  0  0  0  0
  -19.4199  -22.9330   19.5600 C   0  0  0  0  0  0  0  0  0  0  0  0
  -22.1235  -22.6308   20.1479 C   0  0  0  0  0  0  0  0  0  0  0  0
  -26.9503  -23.7268   23.7543 C   0  0  0  0  0  0  0  0  0  0  0  0
  -24.6665  -12.6341   21.2487 C   0  0  0  0  0  0  0  0  0  0  0  0
  -23.9815  -13.1596   18.9922 C   0  0  0  0  0  0  0  0  0  0  0  0
  -28.3190  -23.5310   23.5748 C   0  0  0  0  0  0  0  0  0  0  0  0
  -24.0037   -9.4772   20.2350 C   0  0  0  0  0  0  0  0  0  0  0  0
  -24.2850   -8.2300   20.7926 C   0  0  0  0  0  0  0  0  0  0  0  0
  -28.5497  -25.8282   22.8754 C   0  0  0  0  0  0  0  0  0  0  0  0
  -32.4626  -23.1121   18.2959 C   0  0  0  0  0  0  0  0  0  0  0  0
  -22.6710   -8.6476   22.5411 C   0  0  0  0  0  0  0  0  0  0  0  0
  -25.8961  -14.2684   19.9627 C   0  0  0  0  0  0  0  0  0  0  0  0
  -28.2857  -14.9598   19.3974 C   0  0  0  0  0  0  0  0  0  0  0  0
  -20.2634  -24.0542   19.5142 C   0  0  0  0  0  0  0  0  0  0  0  0
  -26.3683  -24.9738   23.4848 C   0  0  0  0  0  0  0  0  0  0  0  0
  -21.6333  -23.9013   19.8012 C   0  0  0  0  0  0  0  0  0  0  0  0
  -27.1739  -26.0379   23.0548 C   0  0  0  0  0  0  0  0  0  0  0  0
  -33.7063  -23.1456   18.9166 C   0  0  0  0  0  0  0  0  0  0  0  0
  -32.0613  -21.9670   17.6169 C   0  0  0  0  0  0  0  0  0  0  0  0
  -23.8000  -12.4396   20.1731 C   0  0  0  0  0  0  0  0  0  0  0  0
  -29.1184  -24.5810   23.1325 C   0  0  0  0  0  0  0  0  0  0  0  0
  -23.0560  -10.3097   20.8305 C   0  0  0  0  0  0  0  0  0  0  0  0
  -23.6187   -7.8152   21.9456 C   0  0  0  0  0  0  0  0  0  0  0  0
  -22.3897   -9.8949   21.9836 C   0  0  0  0  0  0  0  0  0  0  0  0
  -26.9783  -15.2135   19.8536 C   0  0  0  0  0  0  0  0  0  0  0  0
  -34.5051  -22.0168   18.8298 C   0  0  0  0  0  0  0  0  0  0  0  0
  -32.9338  -20.8910   17.5881 C   0  0  0  0  0  0  0  0  0  0  0  0
  -28.9219  -16.1739   19.4861 C   0  0  0  0  0  0  0  0  0  0  0  0
  -28.8726  -13.7362   18.9348 C   0  0  0  0  0  0  0  0  0  0  0  0
  -24.1642  -26.0282   21.4516 C   0  0  0  0  0  0  0  0  0  0  0  0
  -24.5254  -28.7968   23.1027 C   0  0  0  0  0  0  0  0  0  0  0  0
  -26.5024  -30.7550   25.0785 C   0  0  0  0  0  0  0  0  0  0  0  0
  -28.9914  -21.7001   18.7108 C   0  0  0  0  0  0  0  0  0  0  0  0
  -19.6848  -25.3810   19.0907 C   0  0  0  0  0  0  0  0  0  0  0  0
  -24.8948  -25.1762   23.7091 C   0  0  0  0  0  0  0  0  0  0  0  0
  -26.6012  -27.4017   22.7710 C   0  0  0  0  0  0  0  0  0  0  0  0
  -20.5812  -26.5707   19.4245 C   0  0  0  0  0  0  0  0  0  0  0  0
  -27.4867  -20.4887   21.7017 C   0  0  0  0  0  0  0  0  0  0  0  0
  -22.0227  -26.2841   19.0163 C   0  0  0  0  0  0  0  0  0  0  0  0
  -27.3226  -18.9893   21.4473 C   0  0  0  0  0  0  0  0  0  0  0  0
  -27.2544  -21.3053   20.4323 C   0  0  0  0  0  0  0  0  0  0  0  0
  -27.9040  -19.3938   19.0189 C   0  0  0  0  0  0  0  0  0  0  0  0
  -22.5834  -25.0790   19.7809 C   0  0  1  0  0  0  0  0  0  0  0  0
  -24.3240  -26.3448   22.9116 C   0  0  1  0  0  0  0  0  0  0  0  0
  -28.1836  -18.5250   20.2571 C   0  0  2  0  0  0  0  0  0  0  0  0
  -35.8515  -21.9965   19.4766 C   0  0  0  0  0  0  0  0  0  0  0  0
  -26.5398  -32.9800   26.2385 C   0  0  0  0  0  0  0  0  0  0  0  0
  -25.0286  -30.1793   20.4296 C   0  0  0  0  0  0  0  0  0  0  0  0
  -25.9763  -32.1225   21.6922 C   0  0  0  0  0  0  0  0  0  0  0  0
  -23.5906  -31.4701   22.0173 C   0  0  0  0  0  0  0  0  0  0  0  0
  -26.7857  -29.4929   27.7404 C   0  0  0  0  0  0  0  0  0  0  0  0
  -34.1474  -24.3848   19.6540 C   0  0  0  0  0  0  0  0  0  0  0  0
  -30.7272  -21.9357   16.9529 C   0  0  0  0  0  0  0  0  0  0  0  0
  -32.9949  -25.1703   20.2896 C   0  0  0  0  0  0  0  0  0  0  0  0
  -32.2544  -24.3789   21.3686 C   0  0  0  0  0  0  0  0  0  0  0  0
  -31.0933  -25.1754   21.9483 C   0  0  0  0  0  0  0  0  0  1  0  0
  -25.4170  -30.0084   22.9763 C   0  0  1  0  0  0  0  0  0  0  0  0
  -26.2133  -31.5004   26.3689 C   0  0  2  0  0  0  0  0  0  0  0  0
  -25.0139  -30.9190   21.7823 C   0  0  0  0  0  0  0  0  0  0  0  0
  -26.7934  -16.4885   20.2061 N   0  0  0  0  0  0  0  0  0  0  0  0
  -34.1496  -20.8863   18.1792 N   0  0  0  0  0  0  0  0  0  0  0  0
  -27.9931  -17.0468   19.9715 N   0  0  0  0  0  0  0  0  0  0  0  0
  -25.1541  -27.5479   22.9993 N   0  0  0  0  0  0  0  0  0  0  0  0
  -28.1020  -20.8153   19.3427 N   0  0  0  0  0  0  0  0  0  0  0  0
  -30.1796  -16.5691   19.1957 N   0  0  0  0  0  0  0  0  0  0  0  0
  -28.0778  -12.5822   18.9081 N   0  0  0  0  0  0  0  0  0  0  0  0
  -22.9465  -25.4602   21.1290 N   0  0  0  0  0  0  0  0  0  0  0  0
  -25.3857  -30.6754   24.2735 N   0  0  0  0  0  0  0  0  0  0  0  0
  -29.7623  -21.1530   17.6925 N   0  0  0  0  0  0  0  0  0  0  0  0
  -27.0238  -30.9369   27.4854 N   0  3  0  0  0  0  0  0  0  0  0  0
  -30.0712  -13.6647   18.5718 O   0  0  0  0  0  0  0  0  0  0  0  0
  -25.0775  -26.2818   20.6748 O   0  0  0  0  0  0  0  0  0  0  0  0
  -23.3167  -28.9527   23.2935 O   0  0  0  0  0  0  0  0  0  0  0  0
  -27.6092  -30.2932   24.8097 O   0  0  0  0  0  0  0  0  0  0  0  0
  -29.0947  -22.8883   19.0341 O   0  0  0  0  0  0  0  0  0  0  0  0
  -22.7773  -11.5473   20.2753 O   0  0  0  0  0  0  0  0  0  0  0  0
  -30.4545  -24.3924   22.9559 O   0  0  0  0  0  0  0  0  0  1  0  0
  -23.8878   -6.6168   22.4800 F   0  0  0  0  0  0  0  0  0  0  0  0
  -21.4774  -10.6898   22.5595 F   0  0  0  0  0  0  0  0  0  0  0  0
  -32.5527  -19.4208   16.7808 Cl  0  0  0  0  0  0  0  0  0  0  0  0
  1  2  1  0  0  0  0
  1  5  2  0  0  0  0
  2  6  2  0  0  0  0
  3  8  2  0  0  0  0
  3 16  1  0  0  0  0
  4  9  1  0  0  0  0
  4 16  2  0  0  0  0
  5 18  1  0  0  0  0
  6 20  1  0  0  0  0
  7 10  2  0  0  0  0
  7 19  1  0  0  0  0
  8 24  1  0  0  0  0
  9 24  2  0  0  0  0
 10 25  1  0  0  0  0
 11 12  2  0  0  0  0
 11 26  1  0  0  0  0
 12 27  1  0  0  0  0
 13 21  1  0  0  0  0
 13 25  2  0  0  0  0
 14 22  1  0  0  0  0
 14 23  2  0  0  0  0
 15 27  2  0  0  0  0
 15 28  1  0  0  0  0
 16 29  1  0  0  0  0
 17 29  1  0  0  0  0
 17 32  2  0  0  0  0
 17 33  1  0  0  0  0
 18 20  2  0  0  0  0
 18 38  1  0  0  0  0
 19 21  2  0  0  0  0
 19 39  1  0  0  0  0
 20 47  1  0  0  0  0
 21 40  1  0  0  0  0
 22 30  2  0  0  0  0
 22 56  1  0  0  0  0
 23 31  1  0  0  0  0
 23 57  1  0  0  0  0
 24 80  1  0  0  0  0
 25 81  1  0  0  0  0
 26 28  2  0  0  0  0
 26 80  1  0  0  0  0
 27 82  1  0  0  0  0
 28 83  1  0  0  0  0
 29 64  2  0  0  0  0
 30 50  1  0  0  0  0
 30 65  1  0  0  0  0
 31 65  2  0  0  0  0
 31 84  1  0  0  0  0
 32 66  1  0  0  0  0
 32 69  1  0  0  0  0
 33 70  1  0  0  0  0
 33 75  2  0  0  0  0
 34 48  1  0  0  0  0
 34 71  1  0  0  0  0
 34 76  2  0  0  0  0
 35 61  1  0  0  0  0
 35 67  1  0  0  0  0
 35 77  2  0  0  0  0
 36 62  1  0  0  0  0
 36 72  1  0  0  0  0
 36 78  2  0  0  0  0
 37 68  1  0  0  0  0
 37 73  1  0  0  0  0
 37 79  2  0  0  0  0
 38 41  1  0  0  0  0
 39 48  1  0  0  0  0
 40 67  1  0  0  0  0
 41 43  1  0  0  0  0
 42 44  1  0  0  0  0
 42 45  1  0  0  0  0
 43 47  1  0  0  0  0
 44 49  1  0  0  0  0
 45 68  1  0  0  0  0
 46 49  1  0  0  0  0
 46 68  1  0  0  0  0
 47 71  1  0  0  0  0
 48 67  1  0  0  0  0
 49 66  1  0  0  0  0
 51 62  1  0  0  0  0
 52 63  1  0  0  0  0
 53 63  1  0  0  0  0
 54 63  1  0  0  0  0
 55 74  1  0  0  0  0
 56 58  1  0  0  0  0
 57 73  1  0  0  0  0
 58 59  1  0  0  0  0
 59 60  1  0  0  0  0
 60 81  1  0  0  0  0
 61 63  1  0  0  0  0
 61 72  1  0  0  0  0
 62 74  1  0  0  0  0
 64 66  1  0  0  0  0
M  CHG  1  74   1
M  ISO  4  37 100  60 101  73 100  81 101
M  END
> <Batch ID>
0033

> <Smiles>
CNC(C)C(=O)NC(C(=O)N1Cc2cc([101O:1][101CH2:1]CCCc3cc(C[100NH:0][100C:0](=O)N4CCCC(n5nc(-c6ccc(Oc7ccc(F)cc7F)cc6)c(C(N)=O)c5N)C4)c(Cl)nc3C)ccc2CC1C(=O)NC1CCCc2ccccc21)C(C)(C)C

> <Shape>
0.207

> <Color>
0.065

> <Negative vol penalty>
0.000

$$$$

  -OEChem-04052316483D

 85 93  0     1  0  0  0  0  0999 V2000
  -26.0407  -28.6695   21.4718 C   0  0  0  0  0  0  0  0  0  0  0  0
  -26.8017  -27.5393   21.1907 C   0  0  0  0  0  0  0  0  0  0  0  0
  -23.0500   -9.9127   20.0573 C   0  0  0  0  0  0  0  0  0  0  0  0
  -23.7597  -10.0602   22.3620 C   0  0  0  0  0  0  0  0  0  0  0  0
  -24.9339  -28.9774   20.6819 C   0  0  0  0  0  0  0  0  0  0  0  0
  -26.4555  -26.7157   20.1200 C   0  0  0  0  0  0  0  0  0  0  0  0
  -30.4619  -25.3684   17.3310 C   0  0  0  0  0  0  0  0  0  0  0  0
  -22.2745   -8.7956   20.3676 C   0  0  0  0  0  0  0  0  0  0  0  0
  -22.9842   -8.9431   22.6724 C   0  0  0  0  0  0  0  0  0  0  0  0
  -31.2780  -24.3569   17.8358 C   0  0  0  0  0  0  0  0  0  0  0  0
  -20.3901   -5.6876   20.4812 C   0  0  0  0  0  0  0  0  0  0  0  0
  -20.4500   -4.5943   19.6171 C   0  0  0  0  0  0  0  0  0  0  0  0
  -30.1958  -22.7660   16.3809 C   0  0  0  0  0  0  0  0  0  0  0  0
  -22.8221   -4.3972   20.0311 C   0  0  0  0  0  0  0  0  0  0  0  0
  -30.9191  -18.9964   22.6135 C   0  0  0  0  0  0  0  0  0  0  0  0
  -31.9384  -17.3923   21.4293 C   0  0  0  0  0  0  0  0  0  0  0  0
  -23.7927  -10.5450   21.0545 C   0  0  0  0  0  0  0  0  0  0  0  0
  -24.1950  -13.0481   20.7712 C   0  0  0  0  0  0  0  0  0  0  0  0
  -24.5797  -28.1625   19.5951 C   0  0  0  0  0  0  0  0  0  0  0  0
  -29.4976  -25.0836   16.3536 C   0  0  0  0  0  0  0  0  0  0  0  0
  -25.3421  -27.0123   19.3156 C   0  0  0  0  0  0  0  0  0  0  0  0
  -29.3705  -23.7760   15.8635 C   0  0  0  0  0  0  0  0  0  0  0  0
  -30.0299  -17.9524   22.4847 C   0  0  0  0  0  0  0  0  0  0  0  0
  -30.6747  -16.9375   21.7354 C   0  0  0  0  0  0  0  0  0  0  0  0
  -22.2416   -8.3108   21.6751 C   0  0  0  0  0  0  0  0  0  0  0  0
  -31.1431  -23.0549   17.3629 C   0  0  0  0  0  0  0  0  0  0  0  0
  -21.5461   -6.1358   21.1202 C   0  0  0  0  0  0  0  0  0  0  0  0
  -21.6660   -3.9490   19.3921 C   0  0  0  0  0  0  0  0  0  0  0  0
  -22.7622   -5.4906   20.8952 C   0  0  0  0  0  0  0  0  0  0  0  0
  -24.5944  -11.6986   20.7345 C   0  0  0  0  0  0  0  0  0  0  0  0
  -25.3118  -13.7473   20.3834 C   0  0  0  0  0  0  0  0  0  0  0  0
  -22.9279  -13.6185   21.1245 C   0  0  0  0  0  0  0  0  0  0  0  0
  -26.3284  -25.2784   16.2053 C   0  0  0  0  0  0  0  0  0  0  0  0
  -26.8127  -24.4613   13.1037 C   0  0  0  0  0  0  0  0  0  0  0  0
  -28.8212  -22.9758   10.7786 C   0  0  0  0  0  0  0  0  0  0  0  0
  -30.7954  -14.6850   20.6139 C   0  0  0  0  0  0  0  0  0  0  0  0
  -23.3470  -28.5100   18.7986 C   0  0  0  0  0  0  0  0  0  0  0  0
  -28.6434  -26.1910   15.8000 C   0  0  0  0  0  0  0  0  0  0  0  0
  -28.3645  -23.4221   14.8000 C   0  0  0  0  0  0  0  0  0  0  0  0
  -23.2681  -27.7917   17.4540 C   0  0  0  0  0  0  0  0  0  0  0  0
  -29.6777  -12.1391   18.3899 C   0  0  0  0  0  0  0  0  0  0  0  0
  -23.5871  -26.3094   17.6210 C   0  0  0  0  0  0  0  0  0  0  0  0
  -28.2227  -11.9085   18.8046 C   0  0  0  0  0  0  0  0  0  0  0  0
  -30.5714  -12.4300   19.5942 C   0  0  0  0  0  0  0  0  0  0  0  0
  -28.6520  -13.2881   20.8782 C   0  0  0  0  0  0  0  0  0  0  0  0
  -25.0131  -26.1080   18.1476 C   0  0  1  0  0  0  0  0  0  0  0  0
  -27.3443  -25.6891   15.1772 C   0  0  1  0  0  0  0  0  0  0  0  0
  -27.7013  -13.0554   19.6925 C   0  0  2  0  0  0  0  0  0  0  0  0
  -26.8103  -21.1076   19.5378 C   0  0  0  0  0  0  0  0  0  0  0  0
  -28.9321  -22.4300    8.3317 C   0  0  0  0  0  0  0  0  0  0  0  0
  -24.8280  -22.1823   13.5245 C   0  0  0  0  0  0  0  0  0  0  0  0
  -25.6852  -21.1394   11.4161 C   0  0  0  0  0  0  0  0  0  0  0  0
  -24.5928  -23.3808   11.3421 C   0  0  0  0  0  0  0  0  0  0  0  0
  -31.2635  -24.6057   10.4072 C   0  0  0  0  0  0  0  0  0  0  0  0
  -28.6585  -17.9127   23.0311 C   0  0  0  0  0  0  0  0  0  0  0  0
  -26.6267  -19.7818   20.2590 C   0  0  0  0  0  0  0  0  0  0  0  0
  -27.5569  -18.1974   21.9926 C   0  0  0  0  0  0  0  0  0  0  0  0
  -27.7257  -19.5520   21.2971 C   0  0  0  0  0  0  0  0  0  0  0  0
  -33.0558  -20.8842   21.2491 C   0  0  0  0  0  0  0  0  0  0  0  0
  -32.5917  -20.8119   19.7935 C   0  0  0  0  0  0  0  0  0  0  0  0
  -33.3106  -19.5046   21.8669 C   0  0  0  0  0  0  0  0  0  0  0  0
  -32.3829  -22.2001   19.2035 C   0  0  0  0  0  0  0  0  0  1  0  0
  -26.9043  -23.1609   12.3425 C   0  0  1  0  0  0  0  0  0  0  0  0
  -29.2924  -23.4383    9.4117 C   0  0  2  0  0  0  0  0  0  0  0  0
  -25.5203  -22.4718   12.1777 C   0  0  0  0  0  0  0  0  0  0  0  0
  -25.8655  -11.5473   20.3532 N   0  0  0  0  0  0  0  0  0  0  0  0
  -32.0760  -18.6447   21.9684 N   0  0  0  0  0  0  0  0  0  0  0  0
  -26.2745  -12.8107   20.1468 N   0  0  0  0  0  0  0  0  0  0  0  0
  -27.5481  -24.5383   14.2949 N   0  0  0  0  0  0  0  0  0  0  0  0
  -30.0173  -13.5302   20.3862 N   0  0  0  0  0  0  0  0  0  0  0  0
  -25.5543  -15.0659   20.2251 N   0  0  0  0  0  0  0  0  0  0  0  0
  -21.8882  -12.7565   21.4991 N   0  0  0  0  0  0  0  0  0  0  0  0
  -30.1518  -15.6776   21.3522 N   0  0  0  0  0  0  0  0  0  0  0  0
  -25.9755  -26.2868   17.0817 N   0  0  0  0  0  0  0  0  0  0  0  0
  -27.5709  -23.4715   11.0825 N   0  0  0  0  0  0  0  0  0  0  0  0
  -30.7713  -23.6222    9.4085 N   0  3  0  0  0  0  0  0  0  0  0  0
  -22.7188  -14.8549   21.0926 O   0  0  0  0  0  0  0  0  0  0  0  0
  -25.8957  -24.1319   16.2028 O   0  0  0  0  0  0  0  0  0  0  0  0
  -26.1200  -25.3777   12.6541 O   0  0  0  0  0  0  0  0  0  0  0  0
  -29.4933  -22.2447   11.5027 O   0  0  0  0  0  0  0  0  0  0  0  0
  -31.9380  -14.7970   20.1623 O   0  0  0  0  0  0  0  0  0  0  0  0
  -21.4848   -7.2209   21.9784 O   0  0  0  0  0  0  0  0  0  0  0  0
  -31.9379  -22.0657   17.8543 O   0  0  0  0  0  0  0  0  0  1  0  0
  -21.7232   -2.8982   18.5635 F   0  0  0  0  0  0  0  0  0  0  0  0
  -23.8759   -5.9158   21.5071 F   0  0  0  0  0  0  0  0  0  0  0  0
  1  2  1  0  0  0  0
  1  5  2  0  0  0  0
  2  6  2  0  0  0  0
  3  8  2  0  0  0  0
  3 17  1  0  0  0  0
  4  9  1  0  0  0  0
  4 17  2  0  0  0  0
  5 19  1  0  0  0  0
  6 21  1  0  0  0  0
  7 10  2  0  0  0  0
  7 20  1  0  0  0  0
  8 25  1  0  0  0  0
  9 25  2  0  0  0  0
 10 26  1  0  0  0  0
 11 12  2  0  0  0  0
 11 27  1  0  0  0  0
 12 28  1  0  0  0  0
 13 22  1  0  0  0  0
 13 26  2  0  0  0  0
 14 28  2  0  0  0  0
 14 29  1  0  0  0  0
 15 23  2  0  0  0  0
 15 67  1  0  0  0  0
 16 24  2  0  0  0  0
 16 67  1  0  0  0  0
 17 30  1  0  0  0  0
 18 30  1  0  0  0  0
 18 31  2  0  0  0  0
 18 32  1  0  0  0  0
 19 21  2  0  0  0  0
 19 37  1  0  0  0  0
 20 22  2  0  0  0  0
 20 38  1  0  0  0  0
 21 46  1  0  0  0  0
 22 39  1  0  0  0  0
 23 24  1  0  0  0  0
 23 55  1  0  0  0  0
 24 73  1  0  0  0  0
 25 82  1  0  0  0  0
 26 83  1  0  0  0  0
 27 29  2  0  0  0  0
 27 82  1  0  0  0  0
 28 84  1  0  0  0  0
 29 85  1  0  0  0  0
 30 66  2  0  0  0  0
 31 68  1  0  0  0  0
 31 71  1  0  0  0  0
 32 72  1  0  0  0  0
 32 77  2  0  0  0  0
 33 47  1  0  0  0  0
 33 74  1  0  0  0  0
 33 78  2  0  0  0  0
 34 63  1  0  0  0  0
 34 69  1  0  0  0  0
 34 79  2  0  0  0  0
 35 64  1  0  0  0  0
 35 75  1  0  0  0  0
 35 80  2  0  0  0  0
 36 70  1  0  0  0  0
 36 73  1  0  0  0  0
 36 81  2  0  0  0  0
 37 40  1  0  0  0  0
 38 47  1  0  0  0  0
 39 69  1  0  0  0  0
 40 42  1  0  0  0  0
 41 43  1  0  0  0  0
 41 44  1  0  0  0  0
 42 46  1  0  0  0  0
 43 48  1  0  0  0  0
 44 70  1  0  0  0  0
 45 48  1  0  0  0  0
 45 70  1  0  0  0  0
 46 74  1  0  0  0  0
 47 69  1  0  0  0  0
 48 68  1  0  0  0  0
 49 56  1  0  0  0  0
 50 64  1  0  0  0  0
 51 65  1  0  0  0  0
 52 65  1  0  0  0  0
 53 65  1  0  0  0  0
 54 76  1  0  0  0  0
 55 57  1  0  0  0  0
 56 58  1  0  0  0  0
 57 58  1  0  0  0  0
 59 60  1  0  0  0  0
 59 61  1  0  0  0  0
 60 62  1  0  0  0  0
 61 67  1  0  0  0  0
 62 83  1  0  0  0  0
 63 65  1  0  0  0  0
 63 75  1  0  0  0  0
 64 76  1  0  0  0  0
 66 68  1  0  0  0  0
M  CHG  1  76   1
M  ISO  4  36 100  62 101  73 100  83 101
M  END
> <Batch ID>
0033

> <Smiles>
CCCCCc1cn(CCC[101CH2:1][101O:1]c2ccc3c(c2)CN(C(=O)C(NC(=O)C(C)NC)C(C)(C)C)C(C(=O)NC2CCCc4ccccc42)C3)cc1[100NH:0][100C:0](=O)N1CCCC(n2nc(-c3ccc(Oc4ccc(F)cc4F)cc3)c(C(N)=O)c2N)C1

> <Shape>
0.234

> <Color>
0.202

> <Negative vol penalty>
0.000

$$$$

  -OEChem-04052316483D

 83 91  0     1  0  0  0  0  0999 V2000
  -14.4232  -23.2012   29.0341 C   0  0  0  0  0  0  0  0  0  0  0  0
  -15.4864  -22.4206   29.4764 C   0  0  0  0  0  0  0  0  0  0  0  0
  -23.0015   -9.8919   19.9817 C   0  0  0  0  0  0  0  0  0  0  0  0
  -23.7272   -9.9481   22.2855 C   0  0  0  0  0  0  0  0  0  0  0  0
  -14.4977  -23.8429   27.7986 C   0  0  0  0  0  0  0  0  0  0  0  0
  -16.6244  -22.2803   28.6828 C   0  0  0  0  0  0  0  0  0  0  0  0
  -23.7218  -21.4560   29.1962 C   0  0  0  0  0  0  0  0  0  0  0  0
  -22.2367   -8.7568   20.2503 C   0  0  0  0  0  0  0  0  0  0  0  0
  -22.9623   -8.8130   22.5541 C   0  0  0  0  0  0  0  0  0  0  0  0
  -24.7457  -20.6275   28.7392 C   0  0  0  0  0  0  0  0  0  0  0  0
  -23.2114   -5.4736   22.0882 C   0  0  0  0  0  0  0  0  0  0  0  0
  -23.8006   -4.4586   22.8420 C   0  0  0  0  0  0  0  0  0  0  0  0
  -24.7954  -21.8467   26.6582 C   0  0  0  0  0  0  0  0  0  0  0  0
  -30.0836  -18.4128   25.6414 C   0  0  0  0  0  0  0  0  0  0  0  0
  -22.0767   -4.7021   24.5171 C   0  0  0  0  0  0  0  0  0  0  0  0
  -23.7468  -10.4876   20.9993 C   0  0  0  0  0  0  0  0  0  0  0  0
  -24.1284  -13.0034   20.8186 C   0  0  0  0  0  0  0  0  0  0  0  0
  -15.6411  -23.7183   26.9937 C   0  0  0  0  0  0  0  0  0  0  0  0
  -23.2187  -22.4809   28.3820 C   0  0  0  0  0  0  0  0  0  0  0  0
  -16.7137  -22.9199   27.4347 C   0  0  0  0  0  0  0  0  0  0  0  0
  -23.7668  -22.6885   27.1082 C   0  0  0  0  0  0  0  0  0  0  0  0
  -29.1145  -19.3598   25.9534 C   0  0  0  0  0  0  0  0  0  0  0  0
  -27.8477  -19.2621   25.3886 C   0  0  0  0  0  0  0  0  0  0  0  0
  -22.2171   -8.2174   21.5364 C   0  0  0  0  0  0  0  0  0  0  0  0
  -25.2807  -20.8209   27.4689 C   0  0  0  0  0  0  0  0  0  0  0  0
  -22.0549   -6.1029   22.5488 C   0  0  0  0  0  0  0  0  0  0  0  0
  -23.2332   -4.0728   24.0564 C   0  0  0  0  0  0  0  0  0  0  0  0
  -21.4875   -5.7171   23.7633 C   0  0  0  0  0  0  0  0  0  0  0  0
  -24.5375  -11.6598   20.7224 C   0  0  0  0  0  0  0  0  0  0  0  0
  -29.7384  -17.3956   24.7661 C   0  0  0  0  0  0  0  0  0  0  0  0
  -27.6026  -18.2070   24.5246 C   0  0  0  0  0  0  0  0  0  0  0  0
  -25.2371  -13.7269   20.4527 C   0  0  0  0  0  0  0  0  0  0  0  0
  -22.8598  -13.5487   21.2045 C   0  0  0  0  0  0  0  0  0  0  0  0
  -20.3867  -23.1392   27.0973 C   0  0  0  0  0  0  0  0  0  0  0  0
  -21.8680  -25.8813   26.1977 C   0  0  0  0  0  0  0  0  0  0  0  0
  -24.7894  -27.5015   25.4997 C   0  0  0  0  0  0  0  0  0  0  0  0
  -30.7321  -14.6700   20.6983 C   0  0  0  0  0  0  0  0  0  0  0  0
  -15.6563  -24.3925   25.6447 C   0  0  0  0  0  0  0  0  0  0  0  0
  -22.1323  -23.3831   28.9000 C   0  0  0  0  0  0  0  0  0  0  0  0
  -23.2757  -23.7875   26.2030 C   0  0  0  0  0  0  0  0  0  0  0  0
  -17.0503  -24.4962   25.0313 C   0  0  0  0  0  0  0  0  0  0  0  0
  -29.5944  -12.2404   18.3574 C   0  0  0  0  0  0  0  0  0  0  0  0
  -17.7843  -23.1640   25.1456 C   0  0  0  0  0  0  0  0  0  0  0  0
  -28.1464  -11.9793   18.7758 C   0  0  0  0  0  0  0  0  0  0  0  0
  -30.4968  -12.4793   19.5660 C   0  0  0  0  0  0  0  0  0  0  0  0
  -28.5858  -13.2745   20.9038 C   0  0  0  0  0  0  0  0  0  0  0  0
  -17.9752  -22.7635   26.6135 C   0  0  1  0  0  0  0  0  0  0  0  0
  -21.3442  -24.0686   27.7881 C   0  0  1  0  0  0  0  0  0  0  0  0
  -27.6268  -13.0832   19.7164 C   0  0  2  0  0  0  0  0  0  0  0  0
  -29.4590  -20.4688   26.8916 C   0  0  0  0  0  0  0  0  0  0  0  0
  -26.2605  -18.0483   23.8880 C   0  0  0  0  0  0  0  0  0  0  0  0
  -25.6784  -29.7266   24.7542 C   0  0  0  0  0  0  0  0  0  0  0  0
  -20.9806  -25.2762   23.3417 C   0  0  0  0  0  0  0  0  0  0  0  0
  -22.6554  -26.9554   22.5397 C   0  0  0  0  0  0  0  0  0  0  0  0
  -20.7750  -27.6769   24.0115 C   0  0  0  0  0  0  0  0  0  0  0  0
  -26.3389  -27.8495   27.9971 C   0  0  0  0  0  0  0  0  0  0  0  0
  -26.7812  -20.2678   25.7087 C   0  0  0  0  0  0  0  0  0  1  0  0
  -30.7527  -16.3608   24.4095 C   0  0  0  0  0  0  0  0  0  0  0  0
  -31.6079  -16.7057   23.1747 C   0  0  0  0  0  0  0  0  0  0  0  0
  -30.8120  -16.8512   21.8795 C   0  0  0  0  0  0  0  0  0  0  0  0
  -22.6677  -26.3192   24.9945 C   0  0  1  0  0  0  0  0  0  0  0  0
  -25.3246  -28.8502   25.9456 C   0  0  2  0  0  0  0  0  0  0  0  0
  -21.7779  -26.5349   23.7379 C   0  0  0  0  0  0  0  0  0  0  0  0
  -25.8069  -11.5345   20.3261 N   0  0  0  0  0  0  0  0  0  0  0  0
  -28.5185  -17.2679   24.1977 N   0  0  0  0  0  0  0  0  0  0  0  0
  -26.2050  -12.8085   20.1701 N   0  0  0  0  0  0  0  0  0  0  0  0
  -22.2077  -24.6392   26.7523 N   0  0  0  0  0  0  0  0  0  0  0  0
  -29.9486  -13.5387   20.4163 N   0  0  0  0  0  0  0  0  0  0  0  0
  -25.4686  -15.0528   20.3482 N   0  0  0  0  0  0  0  0  0  0  0  0
  -21.8294  -12.6636   21.5498 N   0  0  0  0  0  0  0  0  0  0  0  0
  -19.0613  -23.5148   27.2053 N   0  0  0  0  0  0  0  0  0  0  0  0
  -23.4136  -27.5026   25.4088 N   0  0  0  0  0  0  0  0  0  0  0  0
  -30.1346  -15.6293   21.5065 N   0  0  0  0  0  0  0  0  0  0  0  0
  -26.5479  -28.6726   26.7781 N   0  3  0  0  0  0  0  0  0  0  0  0
  -22.6413  -14.7837   21.2260 O   0  0  0  0  0  0  0  0  0  0  0  0
  -20.8186  -22.1551   26.5086 O   0  0  0  0  0  0  0  0  0  0  0  0
  -20.9795  -26.6175   26.6338 O   0  0  0  0  0  0  0  0  0  0  0  0
  -25.5191  -26.5438   25.2528 O   0  0  0  0  0  0  0  0  0  0  0  0
  -31.8772  -14.8167   20.2577 O   0  0  0  0  0  0  0  0  0  0  0  0
  -21.4707   -7.1099   21.7989 O   0  0  0  0  0  0  0  0  0  0  0  0
  -26.2797  -20.0131   27.0202 O   0  0  0  0  0  0  0  0  0  1  0  0
  -23.7983   -3.0971   24.7795 F   0  0  0  0  0  0  0  0  0  0  0  0
  -20.3759   -6.3172   24.2105 F   0  0  0  0  0  0  0  0  0  0  0  0
  1  2  1  0  0  0  0
  1  5  2  0  0  0  0
  2  6  2  0  0  0  0
  3  8  2  0  0  0  0
  3 16  1  0  0  0  0
  4  9  1  0  0  0  0
  4 16  2  0  0  0  0
  5 18  1  0  0  0  0
  6 20  1  0  0  0  0
  7 10  2  0  0  0  0
  7 19  1  0  0  0  0
  8 24  1  0  0  0  0
  9 24  2  0  0  0  0
 10 25  1  0  0  0  0
 11 12  2  0  0  0  0
 11 26  1  0  0  0  0
 12 27  1  0  0  0  0
 13 21  1  0  0  0  0
 13 25  2  0  0  0  0
 14 22  2  0  0  0  0
 14 30  1  0  0  0  0
 15 27  2  0  0  0  0
 15 28  1  0  0  0  0
 16 29  1  0  0  0  0
 17 29  1  0  0  0  0
 17 32  2  0  0  0  0
 17 33  1  0  0  0  0
 18 20  2  0  0  0  0
 18 38  1  0  0  0  0
 19 21  2  0  0  0  0
 19 39  1  0  0  0  0
 20 47  1  0  0  0  0
 21 40  1  0  0  0  0
 22 23  1  0  0  0  0
 22 50  1  0  0  0  0
 23 31  2  0  0  0  0
 23 57  1  0  0  0  0
 24 80  1  0  0  0  0
 25 81  1  0  0  0  0
 26 28  2  0  0  0  0
 26 80  1  0  0  0  0
 27 82  1  0  0  0  0
 28 83  1  0  0  0  0
 29 64  2  0  0  0  0
 30 58  1  0  0  0  0
 30 65  2  0  0  0  0
 31 51  1  0  0  0  0
 31 65  1  0  0  0  0
 32 66  1  0  0  0  0
 32 69  1  0  0  0  0
 33 70  1  0  0  0  0
 33 75  2  0  0  0  0
 34 48  1  0  0  0  0
 34 71  1  0  0  0  0
 34 76  2  0  0  0  0
 35 61  1  0  0  0  0
 35 67  1  0  0  0  0
 35 77  2  0  0  0  0
 36 62  1  0  0  0  0
 36 72  1  0  0  0  0
 36 78  2  0  0  0  0
 37 68  1  0  0  0  0
 37 73  1  0  0  0  0
 37 79  2  0  0  0  0
 38 41  1  0  0  0  0
 39 48  1  0  0  0  0
 40 67  1  0  0  0  0
 41 43  1  0  0  0  0
 42 44  1  0  0  0  0
 42 45  1  0  0  0  0
 43 47  1  0  0  0  0
 44 49  1  0  0  0  0
 45 68  1  0  0  0  0
 46 49  1  0  0  0  0
 46 68  1  0  0  0  0
 47 71  1  0  0  0  0
 48 67  1  0  0  0  0
 49 66  1  0  0  0  0
 52 62  1  0  0  0  0
 53 63  1  0  0  0  0
 54 63  1  0  0  0  0
 55 63  1  0  0  0  0
 56 74  1  0  0  0  0
 57 81  1  0  0  0  0
 58 59  1  0  0  0  0
 59 60  1  0  0  0  0
 60 73  1  0  0  0  0
 61 63  1  0  0  0  0
 61 72  1  0  0  0  0
 62 74  1  0  0  0  0
 64 66  1  0  0  0  0
M  CHG  1  74   1
M  ISO  4  37 100  57 101  73 100  81 101
M  END
> <Batch ID>
0033

> <Smiles>
CNC(C)C(=O)NC(C(=O)N1Cc2cc([101O:1][101CH2:1]c3c(C)cc(CCC[100NH:0][100C:0](=O)N4CCCC(n5nc(-c6ccc(Oc7ccc(F)cc7F)cc6)c(C(N)=O)c5N)C4)nc3C)ccc2CC1C(=O)NC1CCCc2ccccc21)C(C)(C)C

> <Shape>
0.192

> <Color>
0.202

> <Negative vol penalty>
0.000

$$$$

  -OEChem-04052316483D

 86 94  0     1  0  0  0  0  0999 V2000
  -22.7124  -23.4504   20.7169 C   0  0  0  0  0  0  0  0  0  0  0  0
  -23.8417  -22.8948   20.1240 C   0  0  0  0  0  0  0  0  0  0  0  0
  -25.9102  -27.4685   18.9297 C   0  0  0  0  0  0  0  0  0  0  0  0
  -26.3327  -27.6507   21.3015 C   0  0  0  0  0  0  0  0  0  0  0  0
  -22.1500  -22.8492   21.8421 C   0  0  0  0  0  0  0  0  0  0  0  0
  -24.4098  -21.7381   20.6567 C   0  0  0  0  0  0  0  0  0  0  0  0
  -27.9012  -15.8073   18.6689 C   0  0  0  0  0  0  0  0  0  0  0  0
  -24.7929  -28.2923   19.0654 C   0  0  0  0  0  0  0  0  0  0  0  0
  -25.2153  -28.4746   21.4372 C   0  0  0  0  0  0  0  0  0  0  0  0
  -29.0604  -15.0904   18.9623 C   0  0  0  0  0  0  0  0  0  0  0  0
  -22.2673  -30.3332   22.4690 C   0  0  0  0  0  0  0  0  0  0  0  0
  -21.4017  -30.0816   23.5335 C   0  0  0  0  0  0  0  0  0  0  0  0
  -27.9562  -14.0940   20.8616 C   0  0  0  0  0  0  0  0  0  0  0  0
  -30.9501  -16.1094   22.8391 C   0  0  0  0  0  0  0  0  0  0  0  0
  -32.0518  -18.2313   23.1863 C   0  0  0  0  0  0  0  0  0  0  0  0
  -20.9919  -27.8606   22.6754 C   0  0  0  0  0  0  0  0  0  0  0  0
  -26.6801  -27.1476   20.0478 C   0  0  0  0  0  0  0  0  0  0  0  0
  -29.1577  -26.6951   19.6422 C   0  0  0  0  0  0  0  0  0  0  0  0
  -22.7058  -21.6791   22.3831 C   0  0  0  0  0  0  0  0  0  0  0  0
  -26.7624  -15.6809   19.4773 C   0  0  0  0  0  0  0  0  0  0  0  0
  -23.8551  -21.1214   21.7910 C   0  0  0  0  0  0  0  0  0  0  0  0
  -26.7830  -14.8084   20.5748 C   0  0  0  0  0  0  0  0  0  0  0  0
  -30.8807  -17.4797   23.0900 C   0  0  0  0  0  0  0  0  0  0  0  0
  -32.1907  -15.4905   22.6846 C   0  0  0  0  0  0  0  0  0  0  0  0
  -33.3618  -16.2421   22.7809 C   0  0  0  0  0  0  0  0  0  0  0  0
  -24.4454  -28.7954   20.3191 C   0  0  0  0  0  0  0  0  0  0  0  0
  -29.0890  -14.2358   20.0605 C   0  0  0  0  0  0  0  0  0  0  0  0
  -22.4951  -29.3485   21.5077 C   0  0  0  0  0  0  0  0  0  0  0  0
  -20.7640  -28.8454   23.6367 C   0  0  0  0  0  0  0  0  0  0  0  0
  -21.8574  -28.1122   21.6109 C   0  0  0  0  0  0  0  0  0  0  0  0
  -33.2924  -17.6125   23.0318 C   0  0  0  0  0  0  0  0  0  0  0  0
  -27.8341  -26.2962   19.9084 C   0  0  0  0  0  0  0  0  0  0  0  0
  -29.8695  -25.5210   19.6065 C   0  0  0  0  0  0  0  0  0  0  0  0
  -29.6956  -28.0094   19.4450 C   0  0  0  0  0  0  0  0  0  0  0  0
  -25.0663  -17.6669   21.2893 C   0  0  0  0  0  0  0  0  0  0  0  0
  -23.1063  -15.0994   21.5874 C   0  0  0  0  0  0  0  0  0  0  0  0
  -22.7357  -11.7087   21.4743 C   0  0  0  0  0  0  0  0  0  0  0  0
  -28.9364  -20.2764   22.1517 C   0  0  0  0  0  0  0  0  0  0  0  0
  -22.0907  -21.0919   23.6286 C   0  0  0  0  0  0  0  0  0  0  0  0
  -25.5112  -16.4408   19.1317 C   0  0  0  0  0  0  0  0  0  0  0  0
  -25.5805  -14.6218   21.4622 C   0  0  0  0  0  0  0  0  0  0  0  0
  -22.5319  -19.6574   23.9077 C   0  0  0  0  0  0  0  0  0  0  0  0
  -29.3690  -20.8671   18.6076 C   0  0  0  0  0  0  0  0  0  0  0  0
  -24.0440  -19.5249   23.7560 C   0  0  0  0  0  0  0  0  0  0  0  0
  -29.1472  -22.3783   18.5218 C   0  0  0  0  0  0  0  0  0  0  0  0
  -28.4372  -20.2290   19.6336 C   0  0  0  0  0  0  0  0  0  0  0  0
  -28.3057  -22.3297   20.9154 C   0  0  0  0  0  0  0  0  0  0  0  0
  -24.4856  -19.8535   22.3247 C   0  0  1  0  0  0  0  0  0  0  0  0
  -24.5762  -16.6258   20.3230 C   0  0  1  0  0  0  0  0  0  0  0  0
  -29.2339  -23.0371   19.9112 C   0  0  2  0  0  0  0  0  0  0  0  0
  -34.9914  -15.0103   25.0950 C   0  0  0  0  0  0  0  0  0  0  0  0
  -35.4368  -16.0994   21.3793 C   0  0  0  0  0  0  0  0  0  0  0  0
  -21.0248   -9.9021   21.8002 C   0  0  0  0  0  0  0  0  0  0  0  0
  -23.3261  -15.4403   24.6116 C   0  0  0  0  0  0  0  0  0  0  0  0
  -22.4214  -13.1200   24.8688 C   0  0  0  0  0  0  0  0  0  0  0  0
  -21.0304  -14.8865   23.7883 C   0  0  0  0  0  0  0  0  0  0  0  0
  -23.0083  -10.7850   18.6758 C   0  0  0  0  0  0  0  0  0  0  0  0
  -32.2353  -14.0075   22.4157 C   0  0  0  0  0  0  0  0  0  0  0  0
  -29.5539  -18.1408   23.2540 C   0  0  0  0  0  0  0  0  0  0  0  0
  -35.6036  -15.6590   23.8595 C   0  0  0  0  0  0  0  0  0  0  0  0
  -32.5373  -13.6548   20.9576 C   0  0  0  0  0  0  0  0  0  0  0  0
  -31.4638  -14.1320   19.9863 C   0  0  0  0  0  0  0  0  0  1  0  0
  -34.6851  -15.5624   22.6132 C   0  0  1  0  0  0  0  0  0  0  0  0
  -23.0110  -13.9320   22.5399 C   0  0  1  0  0  0  0  0  0  0  0  0
  -21.6963  -10.8310   20.8007 C   0  0  2  0  0  0  0  0  0  0  0  0
  -22.4707  -14.3495   23.9367 C   0  0  0  0  0  0  0  0  0  0  0  0
  -27.7098  -24.9722   20.0328 N   0  0  0  0  0  0  0  0  0  0  0  0
  -28.9643  -24.5289   19.8439 N   0  0  0  0  0  0  0  0  0  0  0  0
  -24.3830  -15.3915   21.0868 N   0  0  0  0  0  0  0  0  0  0  0  0
  -28.5821  -20.8895   20.9385 N   0  0  0  0  0  0  0  0  0  0  0  0
  -31.1753  -25.2509   19.3954 N   0  0  0  0  0  0  0  0  0  0  0  0
  -28.8246  -29.1053   19.5151 N   0  0  0  0  0  0  0  0  0  0  0  0
  -24.2095  -18.7401   21.4424 N   0  0  0  0  0  0  0  0  0  0  0  0
  -22.2053  -12.9198   21.8656 N   0  0  0  0  0  0  0  0  0  0  0  0
  -29.1747  -18.9089   22.0890 N   0  0  0  0  0  0  0  0  0  0  0  0
  -22.3302   -9.9994   19.7388 N   0  3  0  0  0  0  0  0  0  0  0  0
  -30.9096  -28.2050   19.1971 O   0  0  0  0  0  0  0  0  0  0  0  0
  -26.1415  -17.5074   21.8552 O   0  0  0  0  0  0  0  0  0  0  0  0
  -22.0845  -15.7244   21.2927 O   0  0  0  0  0  0  0  0  0  0  0  0
  -23.9007  -11.3539   21.6402 O   0  0  0  0  0  0  0  0  0  0  0  0
  -29.0382  -20.9026   23.2123 O   0  0  0  0  0  0  0  0  0  0  0  0
  -23.3553  -29.5995   20.4519 O   0  0  0  0  0  0  0  0  0  0  0  0
  -30.2194  -13.5354   20.3495 O   0  0  0  0  0  0  0  0  0  1  0  0
  -19.9341  -28.6034   24.6598 F   0  0  0  0  0  0  0  0  0  0  0  0
  -22.0733  -27.1619   20.6910 F   0  0  0  0  0  0  0  0  0  0  0  0
  -34.7187  -18.5776   23.1563 Cl  0  0  0  0  0  0  0  0  0  0  0  0
  1  2  1  0  0  0  0
  1  5  2  0  0  0  0
  2  6  2  0  0  0  0
  3  8  2  0  0  0  0
  3 17  1  0  0  0  0
  4  9  1  0  0  0  0
  4 17  2  0  0  0  0
  5 19  1  0  0  0  0
  6 21  1  0  0  0  0
  7 10  2  0  0  0  0
  7 20  1  0  0  0  0
  8 26  1  0  0  0  0
  9 26  2  0  0  0  0
 10 27  1  0  0  0  0
 11 12  2  0  0  0  0
 11 28  1  0  0  0  0
 12 29  1  0  0  0  0
 13 22  1  0  0  0  0
 13 27  2  0  0  0  0
 14 23  2  0  0  0  0
 14 24  1  0  0  0  0
 15 23  1  0  0  0  0
 15 31  2  0  0  0  0
 16 29  2  0  0  0  0
 16 30  1  0  0  0  0
 17 32  1  0  0  0  0
 18 32  1  0  0  0  0
 18 33  2  0  0  0  0
 18 34  1  0  0  0  0
 19 21  2  0  0  0  0
 19 39  1  0  0  0  0
 20 22  2  0  0  0  0
 20 40  1  0  0  0  0
 21 48  1  0  0  0  0
 22 41  1  0  0  0  0
 23 59  1  0  0  0  0
 24 25  2  0  0  0  0
 24 58  1  0  0  0  0
 25 31  1  0  0  0  0
 25 63  1  0  0  0  0
 26 82  1  0  0  0  0
 27 83  1  0  0  0  0
 28 30  2  0  0  0  0
 28 82  1  0  0  0  0
 29 84  1  0  0  0  0
 30 85  1  0  0  0  0
 31 86  1  0  0  0  0
 32 67  2  0  0  0  0
 33 68  1  0  0  0  0
 33 71  1  0  0  0  0
 34 72  1  0  0  0  0
 34 77  2  0  0  0  0
 35 49  1  0  0  0  0
 35 73  1  0  0  0  0
 35 78  2  0  0  0  0
 36 64  1  0  0  0  0
 36 69  1  0  0  0  0
 36 79  2  0  0  0  0
 37 65  1  0  0  0  0
 37 74  1  0  0  0  0
 37 80  2  0  0  0  0
 38 70  1  0  0  0  0
 38 75  1  0  0  0  0
 38 81  2  0  0  0  0
 39 42  1  0  0  0  0
 40 49  1  0  0  0  0
 41 69  1  0  0  0  0
 42 44  1  0  0  0  0
 43 45  1  0  0  0  0
 43 46  1  0  0  0  0
 44 48  1  0  0  0  0
 45 50  1  0  0  0  0
 46 70  1  0  0  0  0
 47 50  1  0  0  0  0
 47 70  1  0  0  0  0
 48 73  1  0  0  0  0
 49 69  1  0  0  0  0
 50 68  1  0  0  0  0
 51 60  1  0  0  0  0
 52 63  1  0  0  0  0
 53 65  1  0  0  0  0
 54 66  1  0  0  0  0
 55 66  1  0  0  0  0
 56 66  1  0  0  0  0
 57 76  1  0  0  0  0
 58 61  1  0  0  0  0
 59 75  1  0  0  0  0
 60 63  1  0  0  0  0
 61 62  1  0  0  0  0
 62 83  1  0  0  0  0
 64 66  1  0  0  0  0
 64 74  1  0  0  0  0
 65 76  1  0  0  0  0
 67 68  1  0  0  0  0
M  CHG  1  76   1
M  ISO  4  38 100  62 101  75 100  83 101
M  END
> <Batch ID>
0033

> <Smiles>
CCC(C)c1c(Cl)cc(C[100NH:0][100C:0](=O)N2CCCC(n3nc(-c4ccc(Oc5ccc(F)cc5F)cc4)c(C(N)=O)c3N)C2)cc1CC[101CH2:1][101O:1]c1ccc2c(c1)CN(C(=O)C(NC(=O)C(C)NC)C(C)(C)C)C(C(=O)NC1CCCc3ccccc31)C2

> <Shape>
0.243

> <Color>
0.052

> <Negative vol penalty>
0.000

$$$$

  -OEChem-04052316483D

 85 93  0     1  0  0  0  0  0999 V2000
  -18.2584  -27.9851   22.8928 C   0  0  0  0  0  0  0  0  0  0  0  0
  -19.4664  -28.3336   23.4884 C   0  0  0  0  0  0  0  0  0  0  0  0
  -26.7539  -13.4428   21.3010 C   0  0  0  0  0  0  0  0  0  0  0  0
  -26.2536  -14.0193   19.0088 C   0  0  0  0  0  0  0  0  0  0  0  0
  -18.2288  -27.0070   21.8996 C   0  0  0  0  0  0  0  0  0  0  0  0
  -20.6454  -27.7033   23.0918 C   0  0  0  0  0  0  0  0  0  0  0  0
  -27.6497  -28.9660   22.2779 C   0  0  0  0  0  0  0  0  0  0  0  0
  -26.0186  -12.2653   21.1654 C   0  0  0  0  0  0  0  0  0  0  0  0
  -25.5183  -12.8417   18.8731 C   0  0  0  0  0  0  0  0  0  0  0  0
  -28.8883  -28.4428   22.6463 C   0  0  0  0  0  0  0  0  0  0  0  0
  -23.9731   -9.2810   21.5308 C   0  0  0  0  0  0  0  0  0  0  0  0
  -23.0927   -8.9424   22.5584 C   0  0  0  0  0  0  0  0  0  0  0  0
  -28.7275  -26.8240   20.8650 C   0  0  0  0  0  0  0  0  0  0  0  0
  -31.9666  -23.8345   24.4399 C   0  0  0  0  0  0  0  0  0  0  0  0
  -32.6483  -24.4356   22.2015 C   0  0  0  0  0  0  0  0  0  0  0  0
  -21.8844  -11.0040   22.2026 C   0  0  0  0  0  0  0  0  0  0  0  0
  -26.8714  -14.3198   20.2227 C   0  0  0  0  0  0  0  0  0  0  0  0
  -29.0031  -15.7162   20.1076 C   0  0  0  0  0  0  0  0  0  0  0  0
  -19.4093  -26.3713   21.4839 C   0  0  0  0  0  0  0  0  0  0  0  0
  -26.9344  -28.4142   21.2054 C   0  0  0  0  0  0  0  0  0  0  0  0
  -20.6313  -26.7148   22.0931 C   0  0  0  0  0  0  0  0  0  0  0  0
  -27.4811  -27.3437   20.4834 C   0  0  0  0  0  0  0  0  0  0  0  0
  -32.3180  -24.8077   23.5046 C   0  0  0  0  0  0  0  0  0  0  0  0
  -31.9455  -22.4891   24.0723 C   0  0  0  0  0  0  0  0  0  0  0  0
  -32.6272  -23.0902   21.8337 C   0  0  0  0  0  0  0  0  0  0  0  0
  -25.4009  -11.9647   19.9515 C   0  0  0  0  0  0  0  0  0  0  0  0
  -29.4261  -27.3698   21.9416 C   0  0  0  0  0  0  0  0  0  0  0  0
  -23.8091  -10.4812   20.8391 C   0  0  0  0  0  0  0  0  0  0  0  0
  -22.0484   -9.8038   22.8943 C   0  0  0  0  0  0  0  0  0  0  0  0
  -22.7648  -11.3427   21.1750 C   0  0  0  0  0  0  0  0  0  0  0  0
  -32.2758  -22.1169   22.7692 C   0  0  0  0  0  0  0  0  0  0  0  0
  -27.6303  -15.5366   20.3623 C   0  0  0  0  0  0  0  0  0  0  0  0
  -29.2342  -17.0405   20.3894 C   0  0  0  0  0  0  0  0  0  0  0  0
  -29.9819  -14.7706   19.6566 C   0  0  0  0  0  0  0  0  0  0  0  0
  -24.1150  -26.9804   20.8905 C   0  0  0  0  0  0  0  0  0  0  0  0
  -24.8353  -27.1188   17.7307 C   0  0  0  0  0  0  0  0  0  0  0  0
  -27.2339  -27.3341   15.3127 C   0  0  0  0  0  0  0  0  0  0  0  0
  -27.7709  -22.4154   20.0511 C   0  0  0  0  0  0  0  0  0  0  0  0
  -19.3207  -25.2864   20.4399 C   0  0  0  0  0  0  0  0  0  0  0  0
  -25.6117  -29.0073   20.8038 C   0  0  0  0  0  0  0  0  0  0  0  0
  -26.7625  -26.7284   19.3115 C   0  0  0  0  0  0  0  0  0  0  0  0
  -20.6670  -24.9329   19.8132 C   0  0  0  0  0  0  0  0  0  0  0  0
  -26.3043  -20.4839   22.6577 C   0  0  0  0  0  0  0  0  0  0  0  0
  -21.7314  -24.7667   20.8931 C   0  0  0  0  0  0  0  0  0  0  0  0
  -26.6263  -19.0400   22.2686 C   0  0  0  0  0  0  0  0  0  0  0  0
  -26.0136  -21.3472   21.4321 C   0  0  0  0  0  0  0  0  0  0  0  0
  -27.3826  -19.8770   20.0045 C   0  0  0  0  0  0  0  0  0  0  0  0
  -21.9349  -26.0714   21.6726 C   0  0  1  0  0  0  0  0  0  0  0  0
  -24.7349  -28.0361   20.0194 C   0  0  1  0  0  0  0  0  0  0  0  0
  -27.7376  -18.9809   21.2033 C   0  0  2  0  0  0  0  0  0  0  0  0
  -31.5631  -21.4807   25.1077 C   0  0  0  0  0  0  0  0  0  0  0  0
  -27.5191  -27.3872   12.8200 C   0  0  0  0  0  0  0  0  0  0  0  0
  -24.3259  -24.1127   17.6109 C   0  0  0  0  0  0  0  0  0  0  0  0
  -25.5189  -24.0688   15.4102 C   0  0  0  0  0  0  0  0  0  0  0  0
  -23.4259  -25.4016   15.6659 C   0  0  0  0  0  0  0  0  0  0  0  0
  -28.4713  -30.0213   15.3950 C   0  0  0  0  0  0  0  0  0  0  0  0
  -32.3407  -26.2635   23.9024 C   0  0  0  0  0  0  0  0  0  0  0  0
  -32.9886  -22.7376   20.4265 C   0  0  0  0  0  0  0  0  0  0  0  0
  -31.7517  -22.4190   19.5746 C   0  0  0  0  0  0  0  0  0  0  0  0
  -30.8105  -23.6232   19.4750 C   0  0  0  0  0  0  0  0  0  0  0  0
  -29.5791  -23.3360   18.6220 C   0  0  0  0  0  0  0  0  0  0  0  0
  -30.9967  -26.9473   23.6768 C   0  0  0  0  0  0  0  0  0  1  0  0
  -25.5555  -26.2166   16.7579 C   0  0  1  0  0  0  0  0  0  0  0  0
  -27.3482  -28.2169   14.0830 C   0  0  2  0  0  0  0  0  0  0  0  0
  -24.7194  -24.9601   16.3845 C   0  0  0  0  0  0  0  0  0  0  0  0
  -27.0314  -16.6571   20.7743 N   0  0  0  0  0  0  0  0  0  0  0  0
  -28.0326  -17.5535   20.7808 N   0  0  0  0  0  0  0  0  0  0  0  0
  -25.4696  -27.3394   18.9615 N   0  0  0  0  0  0  0  0  0  0  0  0
  -27.1064  -21.2480   20.4616 N   0  0  0  0  0  0  0  0  0  0  0  0
  -30.3460  -17.8045   20.3381 N   0  0  0  0  0  0  0  0  0  0  0  0
  -29.5747  -13.4515   19.4146 N   0  0  0  0  0  0  0  0  0  0  0  0
  -22.7334  -27.0009   20.9027 N   0  0  0  0  0  0  0  0  0  0  0  0
  -25.9193  -27.0524   15.6188 N   0  0  0  0  0  0  0  0  0  0  0  0
  -28.7985  -22.2318   19.1339 N   0  0  0  0  0  0  0  0  0  0  0  0
  -28.5196  -29.1297   14.2077 N   0  3  0  0  0  0  0  0  0  0  0  0
  -31.1855  -15.0820   19.4895 O   0  0  0  0  0  0  0  0  0  0  0  0
  -24.8367  -26.2037   21.5050 O   0  0  0  0  0  0  0  0  0  0  0  0
  -23.7533  -27.6153   17.4077 O   0  0  0  0  0  0  0  0  0  0  0  0
  -28.2131  -26.9315   15.9369 O   0  0  0  0  0  0  0  0  0  0  0  0
  -27.4742  -23.5376   20.4748 O   0  0  0  0  0  0  0  0  0  0  0  0
  -24.6835  -10.8156   19.8187 O   0  0  0  0  0  0  0  0  0  0  0  0
  -30.6347  -26.8567   22.2994 O   0  0  0  0  0  0  0  0  0  1  0  0
  -21.2021   -9.4778   23.8800 F   0  0  0  0  0  0  0  0  0  0  0  0
  -22.6015  -12.4965   20.5134 F   0  0  0  0  0  0  0  0  0  0  0  0
  -32.2498  -20.4466   22.3127 Cl  0  0  0  0  0  0  0  0  0  0  0  0
  1  2  1  0  0  0  0
  1  5  2  0  0  0  0
  2  6  2  0  0  0  0
  3  8  2  0  0  0  0
  3 17  1  0  0  0  0
  4  9  1  0  0  0  0
  4 17  2  0  0  0  0
  5 19  1  0  0  0  0
  6 21  1  0  0  0  0
  7 10  2  0  0  0  0
  7 20  1  0  0  0  0
  8 26  1  0  0  0  0
  9 26  2  0  0  0  0
 10 27  1  0  0  0  0
 11 12  2  0  0  0  0
 11 28  1  0  0  0  0
 12 29  1  0  0  0  0
 13 22  1  0  0  0  0
 13 27  2  0  0  0  0
 14 23  1  0  0  0  0
 14 24  2  0  0  0  0
 15 23  2  0  0  0  0
 15 25  1  0  0  0  0
 16 29  2  0  0  0  0
 16 30  1  0  0  0  0
 17 32  1  0  0  0  0
 18 32  1  0  0  0  0
 18 33  2  0  0  0  0
 18 34  1  0  0  0  0
 19 21  2  0  0  0  0
 19 39  1  0  0  0  0
 20 22  2  0  0  0  0
 20 40  1  0  0  0  0
 21 48  1  0  0  0  0
 22 41  1  0  0  0  0
 23 57  1  0  0  0  0
 24 31  1  0  0  0  0
 24 51  1  0  0  0  0
 25 31  2  0  0  0  0
 25 58  1  0  0  0  0
 26 81  1  0  0  0  0
 27 82  1  0  0  0  0
 28 30  2  0  0  0  0
 28 81  1  0  0  0  0
 29 83  1  0  0  0  0
 30 84  1  0  0  0  0
 31 85  1  0  0  0  0
 32 66  2  0  0  0  0
 33 67  1  0  0  0  0
 33 70  1  0  0  0  0
 34 71  1  0  0  0  0
 34 76  2  0  0  0  0
 35 49  1  0  0  0  0
 35 72  1  0  0  0  0
 35 77  2  0  0  0  0
 36 63  1  0  0  0  0
 36 68  1  0  0  0  0
 36 78  2  0  0  0  0
 37 64  1  0  0  0  0
 37 73  1  0  0  0  0
 37 79  2  0  0  0  0
 38 69  1  0  0  0  0
 38 74  1  0  0  0  0
 38 80  2  0  0  0  0
 39 42  1  0  0  0  0
 40 49  1  0  0  0  0
 41 68  1  0  0  0  0
 42 44  1  0  0  0  0
 43 45  1  0  0  0  0
 43 46  1  0  0  0  0
 44 48  1  0  0  0  0
 45 50  1  0  0  0  0
 46 69  1  0  0  0  0
 47 50  1  0  0  0  0
 47 69  1  0  0  0  0
 48 72  1  0  0  0  0
 49 68  1  0  0  0  0
 50 67  1  0  0  0  0
 52 64  1  0  0  0  0
 53 65  1  0  0  0  0
 54 65  1  0  0  0  0
 55 65  1  0  0  0  0
 56 75  1  0  0  0  0
 57 62  1  0  0  0  0
 58 59  1  0  0  0  0
 59 60  1  0  0  0  0
 60 61  1  0  0  0  0
 61 74  1  0  0  0  0
 62 82  1  0  0  0  0
 63 65  1  0  0  0  0
 63 73  1  0  0  0  0
 64 75  1  0  0  0  0
 66 67  1  0  0  0  0
M  CHG  1  75   1
M  ISO  4  38 100  62 101  74 100  82 101
M  END
> <Batch ID>
0033

> <Smiles>
CNC(C)C(=O)NC(C(=O)N1Cc2cc([101O:1][101CH2:1]Cc3cc(C)c(Cl)c(CCCC[100NH:0][100C:0](=O)N4CCCC(n5nc(-c6ccc(Oc7ccc(F)cc7F)cc6)c(C(N)=O)c5N)C4)c3)ccc2CC1C(=O)NC1CCCc2ccccc21)C(C)(C)C

> <Shape>
0.230

> <Color>
0.071

> <Negative vol penalty>
0.000

$$$$

  -OEChem-04052316483D

 81 89  0     1  0  0  0  0  0999 V2000
  -28.6437  -22.1822   27.5316 C   0  0  0  0  0  0  0  0  0  0  0  0
  -28.1262  -23.2453   26.7986 C   0  0  0  0  0  0  0  0  0  0  0  0
  -29.8460  -17.4752   21.4187 C   0  0  0  0  0  0  0  0  0  0  0  0
  -31.4253  -18.2577   19.7662 C   0  0  0  0  0  0  0  0  0  0  0  0
  -28.3921  -20.8713   27.1290 C   0  0  0  0  0  0  0  0  0  0  0  0
  -27.3575  -22.9981   25.6617 C   0  0  0  0  0  0  0  0  0  0  0  0
  -23.1947  -25.8754   25.4677 C   0  0  0  0  0  0  0  0  0  0  0  0
  -30.1977  -16.1566   21.1305 C   0  0  0  0  0  0  0  0  0  0  0  0
  -31.7770  -16.9390   19.4780 C   0  0  0  0  0  0  0  0  0  0  0  0
  -23.3545  -27.1999   25.0627 C   0  0  0  0  0  0  0  0  0  0  0  0
  -30.4216  -12.5699   20.5746 C   0  0  0  0  0  0  0  0  0  0  0  0
  -29.3925  -11.6399   20.4278 C   0  0  0  0  0  0  0  0  0  0  0  0
  -22.6003  -26.6078   22.8492 C   0  0  0  0  0  0  0  0  0  0  0  0
  -27.1636  -28.7383   20.7311 C   0  0  0  0  0  0  0  0  0  0  0  0
  -28.4883  -12.9298   18.5959 C   0  0  0  0  0  0  0  0  0  0  0  0
  -25.1907  -29.4219   19.5924 C   0  0  0  0  0  0  0  0  0  0  0  0
  -30.4598  -18.5258   20.7366 C   0  0  0  0  0  0  0  0  0  0  0  0
  -30.6826  -20.7342   21.9939 C   0  0  0  0  0  0  0  0  0  0  0  0
  -27.6119  -20.6077   25.9922 C   0  0  0  0  0  0  0  0  0  0  0  0
  -22.7461  -24.9034   24.5619 C   0  0  0  0  0  0  0  0  0  0  0  0
  -27.0963  -21.6824   25.2427 C   0  0  0  0  0  0  0  0  0  0  0  0
  -22.4332  -25.2722   23.2458 C   0  0  0  0  0  0  0  0  0  0  0  0
  -26.4169  -28.7777   19.5588 C   0  0  0  0  0  0  0  0  0  0  0  0
  -31.1632  -15.8885   20.1602 C   0  0  0  0  0  0  0  0  0  0  0  0
  -23.0600  -27.5657   23.7526 C   0  0  0  0  0  0  0  0  0  0  0  0
  -30.4841  -13.6799   19.7322 C   0  0  0  0  0  0  0  0  0  0  0  0
  -28.4258  -11.8198   19.4384 C   0  0  0  0  0  0  0  0  0  0  0  0
  -29.5174  -13.8598   18.7428 C   0  0  0  0  0  0  0  0  0  0  0  0
  -26.6683  -29.3358   21.8847 C   0  0  0  0  0  0  0  0  0  0  0  0
  -30.0965  -19.8881   21.0335 C   0  0  0  0  0  0  0  0  0  0  0  0
  -25.4309  -29.9552   21.8141 C   0  0  0  0  0  0  0  0  0  0  0  0
  -29.9855  -21.9126   21.8845 C   0  0  0  0  0  0  0  0  0  0  0  0
  -31.7607  -20.4779   22.9036 C   0  0  0  0  0  0  0  0  0  0  0  0
  -23.9677  -22.2289   23.3542 C   0  0  0  0  0  0  0  0  0  0  0  0
  -21.0117  -21.9279   22.0527 C   0  0  0  0  0  0  0  0  0  0  0  0
  -18.1357  -23.4428   21.0135 C   0  0  0  0  0  0  0  0  0  0  0  0
  -27.8259  -25.8942   18.8136 C   0  0  0  0  0  0  0  0  0  0  0  0
  -27.4064  -19.1748   25.5690 C   0  0  0  0  0  0  0  0  0  0  0  0
  -22.5535  -23.4842   25.0216 C   0  0  0  0  0  0  0  0  0  0  0  0
  -21.9290  -24.2707   22.2402 C   0  0  0  0  0  0  0  0  0  0  0  0
  -26.2699  -18.9927   24.5663 C   0  0  0  0  0  0  0  0  0  0  0  0
  -25.7269  -23.0010   19.3802 C   0  0  0  0  0  0  0  0  0  0  0  0
  -26.3662  -20.0337   23.4554 C   0  0  0  0  0  0  0  0  0  0  0  0
  -26.7360  -21.9989   19.9440 C   0  0  0  0  0  0  0  0  0  0  0  0
  -26.3530  -23.8587   18.2845 C   0  0  0  0  0  0  0  0  0  0  0  0
  -28.5982  -23.5823   19.2623 C   0  0  0  0  0  0  0  0  0  0  0  0
  -26.2372  -21.4544   24.0179 C   0  0  1  0  0  0  0  0  0  0  0  0
  -22.5809  -22.4764   23.8766 C   0  0  1  0  0  0  0  0  0  0  0  0
  -28.0326  -22.7002   20.3902 C   0  0  2  0  0  0  0  0  0  0  0  0
  -15.9150  -22.9407   19.9581 C   0  0  0  0  0  0  0  0  0  0  0  0
  -22.3745  -21.6123   19.3411 C   0  0  0  0  0  0  0  0  0  0  0  0
  -20.1649  -22.0680   18.2556 C   0  0  0  0  0  0  0  0  0  0  0  0
  -20.4430  -20.0704   19.7236 C   0  0  0  0  0  0  0  0  0  0  0  0
  -16.6568  -24.4593   23.3669 C   0  0  0  0  0  0  0  0  0  0  0  0
  -26.9184  -28.1476   18.3084 C   0  0  0  0  0  0  0  0  0  0  0  0
  -24.8295  -30.6241   23.0262 C   0  0  0  0  0  0  0  0  0  0  0  0
  -24.2314  -29.6200   24.0055 C   0  0  0  0  0  0  0  0  0  1  0  0
  -20.3599  -22.3724   20.7657 C   0  0  1  0  0  0  0  0  0  0  0  0
  -16.6755  -23.1117   21.2640 C   0  0  2  0  0  0  0  0  0  0  0  0
  -20.8469  -21.5495   19.5397 C   0  0  0  0  0  0  0  0  0  0  0  0
  -24.6766  -30.0138   20.6937 N   0  0  0  0  0  0  0  0  0  0  0  0
  -29.1034  -20.4787   20.3634 N   0  0  0  0  0  0  0  0  0  0  0  0
  -29.0601  -21.7085   20.9036 N   0  0  0  0  0  0  0  0  0  0  0  0
  -21.7632  -22.8944   22.7360 N   0  0  0  0  0  0  0  0  0  0  0  0
  -27.5725  -24.5129   18.7794 N   0  0  0  0  0  0  0  0  0  0  0  0
  -30.0799  -23.0930   22.5326 N   0  0  0  0  0  0  0  0  0  0  0  0
  -32.3653  -19.2136   22.8838 N   0  0  0  0  0  0  0  0  0  0  0  0
  -24.8523  -21.7598   24.3065 N   0  0  0  0  0  0  0  0  0  0  0  0
  -18.9204  -22.3092   20.9941 N   0  0  0  0  0  0  0  0  0  0  0  0
  -26.8065  -26.7061   18.3317 N   0  0  0  0  0  0  0  0  0  0  0  0
  -16.0248  -24.1994   22.0478 N   0  3  0  0  0  0  0  0  0  0  0  0
  -32.1649  -21.3389   23.7214 O   0  0  0  0  0  0  0  0  0  0  0  0
  -24.2165  -22.4460   22.1741 O   0  0  0  0  0  0  0  0  0  0  0  0
  -20.8539  -20.7678   22.4413 O   0  0  0  0  0  0  0  0  0  0  0  0
  -18.5392  -24.5918   20.8477 O   0  0  0  0  0  0  0  0  0  0  0  0
  -28.8811  -26.3695   19.2469 O   0  0  0  0  0  0  0  0  0  0  0  0
  -31.5069  -14.6019   19.8788 O   0  0  0  0  0  0  0  0  0  0  0  0
  -23.2158  -28.8577   23.3545 O   0  0  0  0  0  0  0  0  0  1  0  0
  -27.4385  -10.9258   19.2964 F   0  0  0  0  0  0  0  0  0  0  0  0
  -29.5729  -14.9236   17.9297 F   0  0  0  0  0  0  0  0  0  0  0  0
  -27.5946  -29.2864   23.3336 Cl  0  0  0  0  0  0  0  0  0  0  0  0
  1  2  1  0  0  0  0
  1  5  2  0  0  0  0
  2  6  2  0  0  0  0
  3  8  2  0  0  0  0
  3 17  1  0  0  0  0
  4  9  1  0  0  0  0
  4 17  2  0  0  0  0
  5 19  1  0  0  0  0
  6 21  1  0  0  0  0
  7 10  2  0  0  0  0
  7 20  1  0  0  0  0
  8 24  1  0  0  0  0
  9 24  2  0  0  0  0
 10 25  1  0  0  0  0
 11 12  2  0  0  0  0
 11 26  1  0  0  0  0
 12 27  1  0  0  0  0
 13 22  1  0  0  0  0
 13 25  2  0  0  0  0
 14 23  2  0  0  0  0
 14 29  1  0  0  0  0
 15 27  2  0  0  0  0
 15 28  1  0  0  0  0
 16 23  1  0  0  0  0
 16 61  2  0  0  0  0
 17 30  1  0  0  0  0
 18 30  1  0  0  0  0
 18 32  2  0  0  0  0
 18 33  1  0  0  0  0
 19 21  2  0  0  0  0
 19 38  1  0  0  0  0
 20 22  2  0  0  0  0
 20 39  1  0  0  0  0
 21 47  1  0  0  0  0
 22 40  1  0  0  0  0
 23 55  1  0  0  0  0
 24 77  1  0  0  0  0
 25 78  1  0  0  0  0
 26 28  2  0  0  0  0
 26 77  1  0  0  0  0
 27 79  1  0  0  0  0
 28 80  1  0  0  0  0
 29 31  2  0  0  0  0
 29 81  1  0  0  0  0
 30 62  2  0  0  0  0
 31 56  1  0  0  0  0
 31 61  1  0  0  0  0
 32 63  1  0  0  0  0
 32 66  1  0  0  0  0
 33 67  1  0  0  0  0
 33 72  2  0  0  0  0
 34 48  1  0  0  0  0
 34 68  1  0  0  0  0
 34 73  2  0  0  0  0
 35 58  1  0  0  0  0
 35 64  1  0  0  0  0
 35 74  2  0  0  0  0
 36 59  1  0  0  0  0
 36 69  1  0  0  0  0
 36 75  2  0  0  0  0
 37 65  1  0  0  0  0
 37 70  1  0  0  0  0
 37 76  2  0  0  0  0
 38 41  1  0  0  0  0
 39 48  1  0  0  0  0
 40 64  1  0  0  0  0
 41 43  1  0  0  0  0
 42 44  1  0  0  0  0
 42 45  1  0  0  0  0
 43 47  1  0  0  0  0
 44 49  1  0  0  0  0
 45 65  1  0  0  0  0
 46 49  1  0  0  0  0
 46 65  1  0  0  0  0
 47 68  1  0  0  0  0
 48 64  1  0  0  0  0
 49 63  1  0  0  0  0
 50 59  1  0  0  0  0
 51 60  1  0  0  0  0
 52 60  1  0  0  0  0
 53 60  1  0  0  0  0
 54 71  1  0  0  0  0
 55 70  1  0  0  0  0
 56 57  1  0  0  0  0
 57 78  1  0  0  0  0
 58 60  1  0  0  0  0
 58 69  1  0  0  0  0
 59 71  1  0  0  0  0
 62 63  1  0  0  0  0
M  CHG  1  71   1
M  ISO  4  37 100  57 101  70 100  78 101
M  END
> <Batch ID>
0033

> <Smiles>
CNC(C)C(=O)NC(C(=O)N1Cc2cc([101O:1][101CH2:1]Cc3ncc(C[100NH:0][100C:0](=O)N4CCCC(n5nc(-c6ccc(Oc7ccc(F)cc7F)cc6)c(C(N)=O)c5N)C4)cc3Cl)ccc2CC1C(=O)NC1CCCc2ccccc21)C(C)(C)C

> <Shape>
0.160

> <Color>
0.082

> <Negative vol penalty>
0.000

$$$$

  -OEChem-04052316483D

 88 96  0     1  0  0  0  0  0999 V2000
  -25.7231  -14.5045   18.4054 C   0  0  0  0  0  0  0  0  0  0  0  0
  -25.7040  -15.6824   19.1455 C   0  0  0  0  0  0  0  0  0  0  0  0
  -29.1002  -17.8093   19.2381 C   0  0  0  0  0  0  0  0  0  0  0  0
  -30.2032  -18.2805   21.3354 C   0  0  0  0  0  0  0  0  0  0  0  0
  -25.5858  -14.5516   17.0187 C   0  0  0  0  0  0  0  0  0  0  0  0
  -25.5486  -16.9082   18.4991 C   0  0  0  0  0  0  0  0  0  0  0  0
  -22.5815  -21.8327   20.6090 C   0  0  0  0  0  0  0  0  0  0  0  0
  -29.6258  -16.5173   19.2520 C   0  0  0  0  0  0  0  0  0  0  0  0
  -30.7287  -16.9885   21.3493 C   0  0  0  0  0  0  0  0  0  0  0  0
  -23.0240  -22.9988   21.2320 C   0  0  0  0  0  0  0  0  0  0  0  0
  -28.9618  -13.5743   20.7786 C   0  0  0  0  0  0  0  0  0  0  0  0
  -28.1029  -12.5216   20.4625 C   0  0  0  0  0  0  0  0  0  0  0  0
  -23.0168  -24.1321   19.1025 C   0  0  0  0  0  0  0  0  0  0  0  0
  -25.7262  -27.9348   21.0384 C   0  0  0  0  0  0  0  0  0  0  0  0
  -23.5028  -28.2526   21.9286 C   0  0  0  0  0  0  0  0  0  0  0  0
  -29.5220  -11.9228   18.6012 C   0  0  0  0  0  0  0  0  0  0  0  0
  -29.3889  -18.6909   20.2798 C   0  0  0  0  0  0  0  0  0  0  0  0
  -27.6223  -20.4518   20.8143 C   0  0  0  0  0  0  0  0  0  0  0  0
  -25.4191  -15.7778   16.3560 C   0  0  0  0  0  0  0  0  0  0  0  0
  -22.3635  -21.8044   19.2240 C   0  0  0  0  0  0  0  0  0  0  0  0
  -25.4103  -16.9718   17.1022 C   0  0  0  0  0  0  0  0  0  0  0  0
  -22.5692  -22.9651   18.4647 C   0  0  0  0  0  0  0  0  0  0  0  0
  -24.3824  -27.5648   21.0926 C   0  0  0  0  0  0  0  0  0  0  0  0
  -26.1904  -28.9926   21.8203 C   0  0  0  0  0  0  0  0  0  0  0  0
  -25.3108  -29.6804   22.6563 C   0  0  0  0  0  0  0  0  0  0  0  0
  -30.4400  -16.1069   20.3076 C   0  0  0  0  0  0  0  0  0  0  0  0
  -23.2444  -24.1479   20.4784 C   0  0  0  0  0  0  0  0  0  0  0  0
  -30.1007  -13.8012   20.0060 C   0  0  0  0  0  0  0  0  0  0  0  0
  -28.3830  -11.6959   19.3738 C   0  0  0  0  0  0  0  0  0  0  0  0
  -23.9670  -29.3104   22.7105 C   0  0  0  0  0  0  0  0  0  0  0  0
  -30.3809  -12.9754   18.9173 C   0  0  0  0  0  0  0  0  0  0  0  0
  -28.8468  -20.0258   20.2658 C   0  0  0  0  0  0  0  0  0  0  0  0
  -27.5723  -21.7966   20.5394 C   0  0  0  0  0  0  0  0  0  0  0  0
  -26.6197  -19.6993   21.5101 C   0  0  0  0  0  0  0  0  0  0  0  0
  -23.6075  -20.1819   16.7901 C   0  0  0  0  0  0  0  0  0  0  0  0
  -21.2688  -21.6729   15.1079 C   0  0  0  0  0  0  0  0  0  0  0  0
  -19.1249  -24.3151   14.8435 C   0  0  0  0  0  0  0  0  0  0  0  0
  -31.0426  -26.4159   20.1745 C   0  0  0  0  0  0  0  0  0  0  0  0
  -25.3220  -15.7822   14.8509 C   0  0  0  0  0  0  0  0  0  0  0  0
  -21.8606  -20.5461   18.5711 C   0  0  0  0  0  0  0  0  0  0  0  0
  -22.3304  -22.9927   16.9778 C   0  0  0  0  0  0  0  0  0  0  0  0
  -24.7859  -17.0921   14.2790 C   0  0  0  0  0  0  0  0  0  0  0  0
  -29.7945  -24.7704   17.2743 C   0  0  0  0  0  0  0  0  0  0  0  0
  -25.4823  -18.2832   14.9294 C   0  0  0  0  0  0  0  0  0  0  0  0
  -29.3090  -23.4188   17.8011 C   0  0  0  0  0  0  0  0  0  0  0  0
  -31.0569  -25.2369   17.9959 C   0  0  0  0  0  0  0  0  0  0  0  0
  -30.4673  -23.9194   19.9935 C   0  0  0  0  0  0  0  0  0  0  0  0
  -25.2190  -18.3189   16.4397 C   0  0  1  0  0  0  0  0  0  0  0  0
  -22.1642  -20.4857   17.0772 C   0  0  1  0  0  0  0  0  0  0  0  0
  -29.1648  -23.4337   19.3348 C   0  0  2  0  0  0  0  0  0  0  0  0
  -28.0299  -32.1983   27.8438 C   0  0  0  0  0  0  0  0  0  0  0  0
  -17.3627  -25.2791   13.3393 C   0  0  0  0  0  0  0  0  0  0  0  0
  -23.4373  -22.6431   13.1932 C   0  0  0  0  0  0  0  0  0  0  0  0
  -21.8071  -24.3254   12.3098 C   0  0  0  0  0  0  0  0  0  0  0  0
  -21.3273  -21.8879   12.0833 C   0  0  0  0  0  0  0  0  0  0  0  0
  -17.0533  -24.1117   16.9473 C   0  0  0  0  0  0  0  0  0  0  0  0
  -27.6337  -29.3697   21.7464 C   0  0  0  0  0  0  0  0  0  0  0  0
  -25.7880  -30.8160   23.5007 C   0  0  0  0  0  0  0  0  0  0  0  0
  -23.8823  -26.4277   20.2510 C   0  0  0  0  0  0  0  0  0  1  0  0
  -27.6463  -31.0445   26.9309 C   0  0  0  0  0  0  0  0  0  0  0  0
  -28.5582  -28.1964   22.1040 C   0  0  0  0  0  0  0  0  0  0  0  0
  -26.5227  -30.3707   24.7712 C   0  0  0  0  0  0  0  0  0  0  0  0
  -26.9410  -31.5403   25.6679 C   0  0  0  0  0  0  0  0  0  0  0  0
  -30.0333  -28.6059   22.0602 C   0  0  0  0  0  0  0  0  0  0  0  0
  -30.9712  -27.4597   22.4250 C   0  0  0  0  0  0  0  0  0  0  0  0
  -21.1576  -22.9784   14.3580 C   0  0  1  0  0  0  0  0  0  0  0  0
  -17.6401  -24.3804   14.5344 C   0  0  2  0  0  0  0  0  0  0  0  0
  -21.9388  -22.9580   13.0138 C   0  0  0  0  0  0  0  0  0  0  0  0
  -29.5256  -21.0194   19.6861 N   0  0  0  0  0  0  0  0  0  0  0  0
  -28.7248  -22.0831   19.8688 N   0  0  0  0  0  0  0  0  0  0  0  0
  -21.8450  -21.7357   16.3846 N   0  0  0  0  0  0  0  0  0  0  0  0
  -30.8531  -25.2296   19.4466 N   0  0  0  0  0  0  0  0  0  0  0  0
  -26.6553  -22.7501   20.8083 N   0  0  0  0  0  0  0  0  0  0  0  0
  -26.8302  -18.3277   21.7068 N   0  0  0  0  0  0  0  0  0  0  0  0
  -23.8931  -18.8324   16.7096 N   0  0  0  0  0  0  0  0  0  0  0  0
  -19.7308  -23.2473   14.2158 N   0  0  0  0  0  0  0  0  0  0  0  0
  -30.8226  -26.3233   21.5434 N   0  0  0  0  0  0  0  0  0  0  0  0
  -16.8899  -24.9127   15.7069 N   0  3  0  0  0  0  0  0  0  0  0  0
  -25.5608  -20.2243   21.9303 O   0  0  0  0  0  0  0  0  0  0  0  0
  -24.4027  -21.1038   16.6504 O   0  0  0  0  0  0  0  0  0  0  0  0
  -20.8529  -20.6368   14.5834 O   0  0  0  0  0  0  0  0  0  0  0  0
  -19.6914  -25.1319   15.5663 O   0  0  0  0  0  0  0  0  0  0  0  0
  -31.3776  -27.4800   19.6432 O   0  0  0  0  0  0  0  0  0  0  0  0
  -30.9528  -14.8462   20.3215 O   0  0  0  0  0  0  0  0  0  0  0  0
  -23.6769  -25.2873   21.0839 O   0  0  0  0  0  0  0  0  0  1  0  0
  -27.5590  -10.6841   19.0713 F   0  0  0  0  0  0  0  0  0  0  0  0
  -23.1135  -29.9645   23.5108 F   0  0  0  0  0  0  0  0  0  0  0  0
  -31.4742  -13.1878   18.1720 F   0  0  0  0  0  0  0  0  0  0  0  0
  1  2  1  0  0  0  0
  1  5  2  0  0  0  0
  2  6  2  0  0  0  0
  3  8  2  0  0  0  0
  3 17  1  0  0  0  0
  4  9  1  0  0  0  0
  4 17  2  0  0  0  0
  5 19  1  0  0  0  0
  6 21  1  0  0  0  0
  7 10  2  0  0  0  0
  7 20  1  0  0  0  0
  8 26  1  0  0  0  0
  9 26  2  0  0  0  0
 10 27  1  0  0  0  0
 11 12  2  0  0  0  0
 11 28  1  0  0  0  0
 12 29  1  0  0  0  0
 13 22  1  0  0  0  0
 13 27  2  0  0  0  0
 14 23  2  0  0  0  0
 14 24  1  0  0  0  0
 15 23  1  0  0  0  0
 15 30  2  0  0  0  0
 16 29  2  0  0  0  0
 16 31  1  0  0  0  0
 17 32  1  0  0  0  0
 18 32  1  0  0  0  0
 18 33  2  0  0  0  0
 18 34  1  0  0  0  0
 19 21  2  0  0  0  0
 19 39  1  0  0  0  0
 20 22  2  0  0  0  0
 20 40  1  0  0  0  0
 21 48  1  0  0  0  0
 22 41  1  0  0  0  0
 23 59  1  0  0  0  0
 24 25  2  0  0  0  0
 24 57  1  0  0  0  0
 25 30  1  0  0  0  0
 25 58  1  0  0  0  0
 26 84  1  0  0  0  0
 27 85  1  0  0  0  0
 28 31  2  0  0  0  0
 28 84  1  0  0  0  0
 29 86  1  0  0  0  0
 30 87  1  0  0  0  0
 31 88  1  0  0  0  0
 32 69  2  0  0  0  0
 33 70  1  0  0  0  0
 33 73  1  0  0  0  0
 34 74  1  0  0  0  0
 34 79  2  0  0  0  0
 35 49  1  0  0  0  0
 35 75  1  0  0  0  0
 35 80  2  0  0  0  0
 36 66  1  0  0  0  0
 36 71  1  0  0  0  0
 36 81  2  0  0  0  0
 37 67  1  0  0  0  0
 37 76  1  0  0  0  0
 37 82  2  0  0  0  0
 38 72  1  0  0  0  0
 38 77  1  0  0  0  0
 38 83  2  0  0  0  0
 39 42  1  0  0  0  0
 40 49  1  0  0  0  0
 41 71  1  0  0  0  0
 42 44  1  0  0  0  0
 43 45  1  0  0  0  0
 43 46  1  0  0  0  0
 44 48  1  0  0  0  0
 45 50  1  0  0  0  0
 46 72  1  0  0  0  0
 47 50  1  0  0  0  0
 47 72  1  0  0  0  0
 48 75  1  0  0  0  0
 49 71  1  0  0  0  0
 50 70  1  0  0  0  0
 51 60  1  0  0  0  0
 52 67  1  0  0  0  0
 53 68  1  0  0  0  0
 54 68  1  0  0  0  0
 55 68  1  0  0  0  0
 56 78  1  0  0  0  0
 57 61  1  0  0  0  0
 58 62  1  0  0  0  0
 59 85  1  0  0  0  0
 60 63  1  0  0  0  0
 61 64  1  0  0  0  0
 62 63  1  0  0  0  0
 64 65  1  0  0  0  0
 65 77  1  0  0  0  0
 66 68  1  0  0  0  0
 66 76  1  0  0  0  0
 67 78  1  0  0  0  0
 69 70  1  0  0  0  0
M  CHG  1  78   1
M  ISO  4  38 100  59 101  77 100  85 101
M  END
> <Batch ID>
0033

> <Smiles>
CCCCCc1c(F)cc([101CH2:1][101O:1]c2ccc3c(c2)CN(C(=O)C(NC(=O)C(C)NC)C(C)(C)C)C(C(=O)NC2CCCc4ccccc42)C3)cc1CCCC[100NH:0][100C:0](=O)N1CCCC(n2nc(-c3ccc(Oc4ccc(F)cc4F)cc3)c(C(N)=O)c2N)C1

> <Shape>
0.220

> <Color>
0.054

> <Negative vol penalty>
0.000

$$$$

  -OEChem-04052316483D

 87 97  0     1  0  0  0  0  0999 V2000
  -25.6986  -30.4951   19.4579 C   0  0  0  0  0  0  0  0  0  0  0  0
  -25.0776  -29.4998   18.7117 C   0  0  0  0  0  0  0  0  0  0  0  0
  -29.7358  -19.6865   18.2811 C   0  0  0  0  0  0  0  0  0  0  0  0
  -29.1614  -19.6507   20.6275 C   0  0  0  0  0  0  0  0  0  0  0  0
  -26.3843  -30.1613   20.6239 C   0  0  0  0  0  0  0  0  0  0  0  0
  -25.1320  -28.1722   19.1376 C   0  0  0  0  0  0  0  0  0  0  0  0
  -23.7517  -20.2947   18.9720 C   0  0  0  0  0  0  0  0  0  0  0  0
  -29.3486  -21.0244   18.2066 C   0  0  0  0  0  0  0  0  0  0  0  0
  -28.7743  -20.9887   20.5531 C   0  0  0  0  0  0  0  0  0  0  0  0
  -24.1711  -19.0682   19.4855 C   0  0  0  0  0  0  0  0  0  0  0  0
  -28.8507  -24.5521   17.4834 C   0  0  0  0  0  0  0  0  0  0  0  0
  -29.6903  -25.4332   16.8022 C   0  0  0  0  0  0  0  0  0  0  0  0
  -23.9383  -19.9332   21.7251 C   0  0  0  0  0  0  0  0  0  0  0  0
  -31.4780  -24.9227   18.3451 C   0  0  0  0  0  0  0  0  0  0  0  0
  -29.6422  -18.9996   19.4915 C   0  0  0  0  0  0  0  0  0  0  0  0
  -31.3217  -17.1181   19.8748 C   0  0  0  0  0  0  0  0  0  0  0  0
  -26.4572  -28.8270   21.0569 C   0  0  0  0  0  0  0  0  0  0  0  0
  -23.4317  -21.3551   19.8321 C   0  0  0  0  0  0  0  0  0  0  0  0
  -25.7989  -27.8183   20.3244 C   0  0  0  0  0  0  0  0  0  0  0  0
  -23.5106  -21.1705   21.2200 C   0  0  0  0  0  0  0  0  0  0  0  0
  -21.8636  -12.8491   21.3471 C   0  0  0  0  0  0  0  0  0  0  0  0
  -22.3615  -14.1679   21.2114 C   0  0  0  0  0  0  0  0  0  0  0  0
  -28.8678  -21.6756   19.3427 C   0  0  0  0  0  0  0  0  0  0  0  0
  -24.2666  -18.8881   20.8622 C   0  0  0  0  0  0  0  0  0  0  0  0
  -29.3247  -23.8563   18.5956 C   0  0  0  0  0  0  0  0  0  0  0  0
  -31.0040  -25.6186   17.2329 C   0  0  0  0  0  0  0  0  0  0  0  0
  -30.6384  -24.0416   19.0264 C   0  0  0  0  0  0  0  0  0  0  0  0
  -30.0415  -17.6173   19.5689 C   0  0  0  0  0  0  0  0  0  0  0  0
  -22.6954  -12.1936   22.2365 C   0  0  0  0  0  0  0  0  0  0  0  0
  -23.4767  -14.2641   22.0238 C   0  0  0  0  0  0  0  0  0  0  0  0
  -31.1800  -15.7530   19.8202 C   0  0  0  0  0  0  0  0  0  0  0  0
  -32.5308  -17.8251   20.1811 C   0  0  0  0  0  0  0  0  0  0  0  0
  -24.4988  -24.3295   20.3424 C   0  0  0  0  0  0  0  0  0  0  0  0
  -21.8870  -24.3559   22.3994 C   0  0  0  0  0  0  0  0  0  0  0  0
  -21.0938  -27.6185   21.7946 C   0  0  0  0  0  0  0  0  0  0  0  0
  -26.4797  -12.1103   20.5191 C   0  0  0  0  0  0  0  0  0  0  0  0
  -27.2060  -28.5229   22.3305 C   0  0  0  0  0  0  0  0  0  0  0  0
  -22.9521  -22.6610   19.2583 C   0  0  0  0  0  0  0  0  0  0  0  0
  -20.6758  -12.1929   20.7333 C   0  0  0  0  0  0  0  0  0  0  0  0
  -21.8534  -15.3154   20.4114 C   0  0  0  0  0  0  0  0  0  0  0  0
  -23.1748  -22.2756   22.1847 C   0  0  0  0  0  0  0  0  0  0  0  0
  -22.5766  -10.7766   22.6698 C   0  0  0  0  0  0  0  0  0  0  0  0
  -24.3462  -15.4586   22.1959 C   0  0  0  0  0  0  0  0  0  0  0  0
  -27.5840  -27.0510   22.4609 C   0  0  0  0  0  0  0  0  0  0  0  0
  -20.7455  -10.6610   20.8877 C   0  0  0  0  0  0  0  0  0  0  0  0
  -22.9165  -16.4240   20.3009 C   0  0  0  0  0  0  0  0  0  0  0  0
  -21.1811  -10.2373   22.3036 C   0  0  0  0  0  0  0  0  0  0  0  0
  -28.6068  -12.3385   17.6731 C   0  0  0  0  0  0  0  0  0  0  0  0
  -26.3688  -26.1765   22.1905 C   0  0  0  0  0  0  0  0  0  0  0  0
  -29.3312  -13.6722   17.8638 C   0  0  0  0  0  0  0  0  0  0  0  0
  -27.1597  -12.4082   18.1558 C   0  0  0  0  0  0  0  0  0  0  0  0
  -27.7156  -14.2196   19.7317 C   0  0  0  0  0  0  0  0  0  0  0  0
  -25.8706  -26.3635   20.7518 C   0  0  1  0  0  0  0  0  0  0  0  0
  -23.0843  -23.8369   20.2238 C   0  0  1  0  0  0  0  0  0  0  0  0
  -29.1948  -14.1825   19.3110 C   0  0  2  0  0  0  0  0  0  0  0  0
  -23.6501  -16.7256   21.6355 C   0  0  1  0  0  0  0  0  0  1  0  0
  -22.7026  -17.3412   22.6722 C   0  0  0  0  0  0  0  0  0  0  0  0
  -20.0182  -29.8577   22.1500 C   0  0  0  0  0  0  0  0  0  0  0  0
  -19.5206  -23.0351   20.9989 C   0  0  0  0  0  0  0  0  0  0  0  0
  -18.3716  -25.2595   20.9958 C   0  0  0  0  0  0  0  0  0  0  0  0
  -18.9577  -24.1635   23.1586 C   0  0  0  0  0  0  0  0  0  0  0  0
  -23.3122  -28.5393   23.5237 C   0  0  0  0  0  0  0  0  0  0  0  0
  -24.7456  -12.7490   23.5643 C   0  0  0  0  0  0  0  0  0  0  0  0
  -25.8770  -11.9510   22.9213 C   0  0  0  0  0  0  0  0  0  0  0  0
  -20.7954  -25.1565   21.7342 C   0  0  1  0  0  0  0  0  0  0  0  0
  -20.9620  -28.8121   22.7233 C   0  0  2  0  0  0  0  0  0  0  0  0
  -19.4369  -24.4006   21.7099 C   0  0  0  0  0  0  0  0  0  0  0  0
  -29.1520  -16.6482   19.3369 N   0  0  0  0  0  0  0  0  0  0  0  0
  -23.6760  -13.0583   22.6406 N   0  0  0  0  0  0  0  0  0  0  0  0
  -29.8745  -15.5264   19.4971 N   0  0  0  0  0  0  0  0  0  0  0  0
  -22.6324  -23.4990   21.5795 N   0  0  0  0  0  0  0  0  0  0  0  0
  -27.1001  -12.8977   19.5352 N   0  0  0  0  0  0  0  0  0  0  0  0
  -32.0461  -14.7365   20.0175 N   0  0  0  0  0  0  0  0  0  0  0  0
  -32.5005  -19.2263   20.1943 N   0  0  0  0  0  0  0  0  0  0  0  0
  -24.6035  -25.6833   20.5988 N   0  0  0  0  0  0  0  0  0  0  0  0
  -20.7524  -26.4407   22.4250 N   0  0  0  0  0  0  0  0  0  0  0  0
  -26.4724  -12.6454   21.8015 N   0  0  0  0  0  0  0  0  0  0  0  0
  -22.2919  -29.4484   22.9410 N   0  3  0  0  0  0  0  0  0  0  0  0
  -33.6102  -17.2322   20.4195 O   0  0  0  0  0  0  0  0  0  0  0  0
  -25.4265  -23.5395   20.2125 O   0  0  0  0  0  0  0  0  0  0  0  0
  -22.0706  -24.4792   23.6136 O   0  0  0  0  0  0  0  0  0  0  0  0
  -21.4593  -27.7212   20.6257 O   0  0  0  0  0  0  0  0  0  0  0  0
  -25.9747  -11.0095   20.2741 O   0  0  0  0  0  0  0  0  0  0  0  0
  -28.4902  -22.9812   19.2705 O   0  0  0  0  0  0  0  0  0  0  0  0
  -24.6766  -17.6876   21.3679 O   0  0  0  0  0  0  0  0  0  1  0  0
  -31.8106  -26.4636   16.5777 F   0  0  0  0  0  0  0  0  0  0  0  0
  -31.0998  -23.3751   20.0935 F   0  0  0  0  0  0  0  0  0  0  0  0
  1  2  1  0  0  0  0
  1  5  2  0  0  0  0
  2  6  2  0  0  0  0
  3  8  2  0  0  0  0
  3 15  1  0  0  0  0
  4  9  1  0  0  0  0
  4 15  2  0  0  0  0
  5 17  1  0  0  0  0
  6 19  1  0  0  0  0
  7 10  2  0  0  0  0
  7 18  1  0  0  0  0
  8 23  1  0  0  0  0
  9 23  2  0  0  0  0
 10 24  1  0  0  0  0
 11 12  2  0  0  0  0
 11 25  1  0  0  0  0
 12 26  1  0  0  0  0
 13 20  1  0  0  0  0
 13 24  2  0  0  0  0
 14 26  2  0  0  0  0
 14 27  1  0  0  0  0
 15 28  1  0  0  0  0
 16 28  1  0  0  0  0
 16 31  2  0  0  0  0
 16 32  1  0  0  0  0
 17 19  2  0  0  0  0
 17 37  1  0  0  0  0
 18 20  2  0  0  0  0
 18 38  1  0  0  0  0
 19 53  1  0  0  0  0
 20 41  1  0  0  0  0
 21 22  1  0  0  0  0
 21 29  2  0  0  0  0
 21 39  1  0  0  0  0
 22 30  2  0  0  0  0
 22 40  1  0  0  0  0
 23 84  1  0  0  0  0
 24 85  1  0  0  0  0
 25 27  2  0  0  0  0
 25 84  1  0  0  0  0
 26 86  1  0  0  0  0
 27 87  1  0  0  0  0
 28 68  2  0  0  0  0
 29 42  1  0  0  0  0
 29 69  1  0  0  0  0
 30 43  1  0  0  0  0
 30 69  1  0  0  0  0
 31 70  1  0  0  0  0
 31 73  1  0  0  0  0
 32 74  1  0  0  0  0
 32 79  2  0  0  0  0
 33 54  1  0  0  0  0
 33 75  1  0  0  0  0
 33 80  2  0  0  0  0
 34 65  1  0  0  0  0
 34 71  1  0  0  0  0
 34 81  2  0  0  0  0
 35 66  1  0  0  0  0
 35 76  1  0  0  0  0
 35 82  2  0  0  0  0
 36 72  1  0  0  0  0
 36 77  1  0  0  0  0
 36 83  2  0  0  0  0
 37 44  1  0  0  0  0
 38 54  1  0  0  0  0
 39 45  1  0  0  0  0
 40 46  1  0  0  0  0
 41 71  1  0  0  0  0
 42 47  1  0  0  0  0
 43 56  1  0  0  0  0
 44 49  1  0  0  0  0
 45 47  1  0  0  0  0
 46 56  1  0  0  0  0
 48 50  1  0  0  0  0
 48 51  1  0  0  0  0
 49 53  1  0  0  0  0
 50 55  1  0  0  0  0
 51 72  1  0  0  0  0
 52 55  1  0  0  0  0
 52 72  1  0  0  0  0
 53 75  1  0  0  0  0
 54 71  1  0  0  0  0
 55 70  1  0  0  0  0
 56 57  1  0  0  0  0
 56 85  1  0  0  0  0
 58 66  1  0  0  0  0
 59 67  1  0  0  0  0
 60 67  1  0  0  0  0
 61 67  1  0  0  0  0
 62 78  1  0  0  0  0
 63 64  1  0  0  0  0
 63 69  1  0  0  0  0
 64 77  1  0  0  0  0
 65 67  1  0  0  0  0
 65 76  1  0  0  0  0
 66 78  1  0  0  0  0
 68 70  1  0  0  0  0
M  CHG  1  78   1
M  ISO  4  36 100  56 101  77 100  85 101
M  END
> <Batch ID>
0033

> <Smiles>
CNC(C)C(=O)NC(C(=O)N1Cc2cc([101O:1][101C:1]3(C)CCc4c5c(n(CC[100NH:0][100C:0](=O)N6CCCC(n7nc(-c8ccc(Oc9ccc(F)cc9F)cc8)c(C(N)=O)c7N)C6)c4C3)CCCC5)ccc2CC1C(=O)NC1CCCc2ccccc21)C(C)(C)C

> <Shape>
0.241

> <Color>
0.061

> <Negative vol penalty>
0.000

$$$$

  -OEChem-04052316483D

 82 90  0     1  0  0  0  0  0999 V2000
  -23.7495  -23.7910   18.8823 C   0  0  0  0  0  0  0  0  0  0  0  0
  -24.8377  -22.9979   19.2317 C   0  0  0  0  0  0  0  0  0  0  0  0
  -22.5182  -28.2223   20.6382 C   0  0  0  0  0  0  0  0  0  0  0  0
  -23.6351  -28.3859   22.7743 C   0  0  0  0  0  0  0  0  0  0  0  0
  -22.4659  -23.4299   19.2895 C   0  0  0  0  0  0  0  0  0  0  0  0
  -24.6430  -21.8437   19.9896 C   0  0  0  0  0  0  0  0  0  0  0  0
  -27.2524  -17.8863   18.2076 C   0  0  0  0  0  0  0  0  0  0  0  0
  -21.2903  -28.1045   21.2893 C   0  0  0  0  0  0  0  0  0  0  0  0
  -22.4072  -28.2681   23.4254 C   0  0  0  0  0  0  0  0  0  0  0  0
  -28.6150  -17.8389   18.4987 C   0  0  0  0  0  0  0  0  0  0  0  0
  -19.5426  -25.6963   22.8927 C   0  0  0  0  0  0  0  0  0  0  0  0
  -18.6622  -24.7133   22.4410 C   0  0  0  0  0  0  0  0  0  0  0  0
  -28.1737  -16.2740   20.2807 C   0  0  0  0  0  0  0  0  0  0  0  0
  -32.4505  -19.3948   20.0361 C   0  0  0  0  0  0  0  0  0  0  0  0
  -31.8229  -19.6923   22.3501 C   0  0  0  0  0  0  0  0  0  0  0  0
  -17.0187  -26.4133   21.9448 C   0  0  0  0  0  0  0  0  0  0  0  0
  -23.6907  -28.3630   21.3807 C   0  0  0  0  0  0  0  0  0  0  0  0
  -25.5891  -29.6712   20.2888 C   0  0  0  0  0  0  0  0  0  0  0  0
  -22.2542  -22.2656   20.0446 C   0  0  0  0  0  0  0  0  0  0  0  0
  -26.3374  -17.1350   18.9592 C   0  0  0  0  0  0  0  0  0  0  0  0
  -23.3555  -21.4674   20.4085 C   0  0  0  0  0  0  0  0  0  0  0  0
  -26.8003  -16.3117   19.9955 C   0  0  0  0  0  0  0  0  0  0  0  0
  -32.1353  -18.8518   21.2816 C   0  0  0  0  0  0  0  0  0  0  0  0
  -32.4533  -20.7785   19.8591 C   0  0  0  0  0  0  0  0  0  0  0  0
  -32.1408  -21.6190   20.9275 C   0  0  0  0  0  0  0  0  0  0  0  0
  -21.2348  -28.1274   22.6828 C   0  0  0  0  0  0  0  0  0  0  0  0
  -29.0756  -17.0349   19.5372 C   0  0  0  0  0  0  0  0  0  0  0  0
  -19.1611  -27.0379   22.8705 C   0  0  0  0  0  0  0  0  0  0  0  0
  -17.4002  -25.0718   21.9671 C   0  0  0  0  0  0  0  0  0  0  0  0
  -17.8992  -27.3963   22.3965 C   0  0  0  0  0  0  0  0  0  0  0  0
  -31.8256  -21.0759   22.1731 C   0  0  0  0  0  0  0  0  0  0  0  0
  -24.9595  -28.4841   20.7087 C   0  0  0  0  0  0  0  0  0  0  0  0
  -26.7613  -29.2515   19.7090 C   0  0  0  0  0  0  0  0  0  0  0  0
  -25.1533  -31.0315   20.4119 C   0  0  0  0  0  0  0  0  0  0  0  0
  -23.8644  -17.8321   20.8306 C   0  0  0  0  0  0  0  0  0  0  0  0
  -23.4901  -14.6103   20.8764 C   0  0  0  0  0  0  0  0  0  0  0  0
  -24.9028  -11.5241   20.5209 C   0  0  0  0  0  0  0  0  0  0  0  0
  -30.0579  -24.4263   20.5489 C   0  0  0  0  0  0  0  0  0  0  0  0
  -20.8540  -21.9414   20.5019 C   0  0  0  0  0  0  0  0  0  0  0  0
  -24.8737  -17.1766   18.6153 C   0  0  0  0  0  0  0  0  0  0  0  0
  -25.8613  -15.4701   20.8192 C   0  0  0  0  0  0  0  0  0  0  0  0
  -20.6887  -20.5027   20.9846 C   0  0  0  0  0  0  0  0  0  0  0  0
  -28.6681  -25.5225   17.3923 C   0  0  0  0  0  0  0  0  0  0  0  0
  -21.8278  -20.1207   21.9244 C   0  0  0  0  0  0  0  0  0  0  0  0
  -27.6121  -26.5269   17.8574 C   0  0  0  0  0  0  0  0  0  0  0  0
  -28.7520  -24.3299   18.3403 C   0  0  0  0  0  0  0  0  0  0  0  0
  -27.9525  -25.6945   20.2304 C   0  0  0  0  0  0  0  0  0  0  0  0
  -23.1819  -20.1947   21.2086 C   0  0  1  0  0  0  0  0  0  0  0  0
  -23.9750  -16.7659   19.7776 C   0  0  1  0  0  0  0  0  0  0  0  0
  -27.8349  -26.9346   19.3258 C   0  0  2  0  0  0  0  0  0  0  0  0
  -32.7961  -21.3323   18.5145 C   0  0  0  0  0  0  0  0  0  0  0  0
  -24.3541   -9.0790   20.6557 C   0  0  0  0  0  0  0  0  0  0  0  0
  -23.5039  -14.7775   23.9230 C   0  0  0  0  0  0  0  0  0  0  0  0
  -23.9108  -12.3079   23.9872 C   0  0  0  0  0  0  0  0  0  0  0  0
  -21.8132  -13.1987   22.9726 C   0  0  0  0  0  0  0  0  0  0  0  0
  -25.6098  -11.0902   17.6800 C   0  0  0  0  0  0  0  0  0  0  0  0
  -32.1314  -17.3545   21.4722 C   0  0  0  0  0  0  0  0  0  0  0  0
  -32.1490  -23.1016   20.7208 C   0  0  0  0  0  0  0  0  0  0  0  0
  -30.7683  -16.7364   21.1809 C   0  0  0  0  0  0  0  0  0  1  0  0
  -24.0039  -13.4865   21.7437 C   0  0  1  0  0  0  0  0  0  0  0  0
  -24.4576  -10.2953   19.7486 C   0  0  2  0  0  0  0  0  0  0  0  0
  -23.3257  -13.4599   23.1425 C   0  0  0  0  0  0  0  0  0  0  0  0
  -25.6726  -27.3923   20.4201 N   0  0  0  0  0  0  0  0  0  0  0  0
  -26.7624  -27.8915   19.8125 N   0  0  0  0  0  0  0  0  0  0  0  0
  -24.4388  -15.5497   20.4484 N   0  0  0  0  0  0  0  0  0  0  0  0
  -28.9835  -24.7855   19.7183 N   0  0  0  0  0  0  0  0  0  0  0  0
  -27.7809  -29.9167   19.1257 N   0  0  0  0  0  0  0  0  0  0  0  0
  -23.9237  -31.2855   21.0346 N   0  0  0  0  0  0  0  0  0  0  0  0
  -23.3709  -19.0352   20.3634 N   0  0  0  0  0  0  0  0  0  0  0  0
  -23.8282  -12.2615   20.9711 N   0  0  0  0  0  0  0  0  0  0  0  0
  -30.9867  -23.5565   19.9907 N   0  0  0  0  0  0  0  0  0  0  0  0
  -25.4275   -9.9884   18.6597 N   0  3  0  0  0  0  0  0  0  0  0  0
  -25.8266  -31.9923   19.9679 O   0  0  0  0  0  0  0  0  0  0  0  0
  -24.2006  -17.5812   21.9820 O   0  0  0  0  0  0  0  0  0  0  0  0
  -22.2925  -14.6490   20.5835 O   0  0  0  0  0  0  0  0  0  0  0  0
  -26.0856  -11.7999   20.7095 O   0  0  0  0  0  0  0  0  0  0  0  0
  -30.1835  -24.8536   21.7016 O   0  0  0  0  0  0  0  0  0  0  0  0
  -20.0367  -28.0127   23.3185 O   0  0  0  0  0  0  0  0  0  0  0  0
  -30.4050  -16.9873   19.8239 O   0  0  0  0  0  0  0  0  0  1  0  0
  -16.5554  -24.1278   21.5320 F   0  0  0  0  0  0  0  0  0  0  0  0
  -17.5275  -28.6836   22.3716 F   0  0  0  0  0  0  0  0  0  0  0  0
  -31.4317  -22.0823   23.5196 Cl  0  0  0  0  0  0  0  0  0  0  0  0
  1  2  1  0  0  0  0
  1  5  2  0  0  0  0
  2  6  2  0  0  0  0
  3  8  2  0  0  0  0
  3 17  1  0  0  0  0
  4  9  1  0  0  0  0
  4 17  2  0  0  0  0
  5 19  1  0  0  0  0
  6 21  1  0  0  0  0
  7 10  2  0  0  0  0
  7 20  1  0  0  0  0
  8 26  1  0  0  0  0
  9 26  2  0  0  0  0
 10 27  1  0  0  0  0
 11 12  2  0  0  0  0
 11 28  1  0  0  0  0
 12 29  1  0  0  0  0
 13 22  1  0  0  0  0
 13 27  2  0  0  0  0
 14 23  1  0  0  0  0
 14 24  2  0  0  0  0
 15 23  2  0  0  0  0
 15 31  1  0  0  0  0
 16 29  2  0  0  0  0
 16 30  1  0  0  0  0
 17 32  1  0  0  0  0
 18 32  1  0  0  0  0
 18 33  2  0  0  0  0
 18 34  1  0  0  0  0
 19 21  2  0  0  0  0
 19 39  1  0  0  0  0
 20 22  2  0  0  0  0
 20 40  1  0  0  0  0
 21 48  1  0  0  0  0
 22 41  1  0  0  0  0
 23 57  1  0  0  0  0
 24 25  1  0  0  0  0
 24 51  1  0  0  0  0
 25 31  2  0  0  0  0
 25 58  1  0  0  0  0
 26 78  1  0  0  0  0
 27 79  1  0  0  0  0
 28 30  2  0  0  0  0
 28 78  1  0  0  0  0
 29 80  1  0  0  0  0
 30 81  1  0  0  0  0
 31 82  1  0  0  0  0
 32 63  2  0  0  0  0
 33 64  1  0  0  0  0
 33 67  1  0  0  0  0
 34 68  1  0  0  0  0
 34 73  2  0  0  0  0
 35 49  1  0  0  0  0
 35 69  1  0  0  0  0
 35 74  2  0  0  0  0
 36 60  1  0  0  0  0
 36 65  1  0  0  0  0
 36 75  2  0  0  0  0
 37 61  1  0  0  0  0
 37 70  1  0  0  0  0
 37 76  2  0  0  0  0
 38 66  1  0  0  0  0
 38 71  1  0  0  0  0
 38 77  2  0  0  0  0
 39 42  1  0  0  0  0
 40 49  1  0  0  0  0
 41 65  1  0  0  0  0
 42 44  1  0  0  0  0
 43 45  1  0  0  0  0
 43 46  1  0  0  0  0
 44 48  1  0  0  0  0
 45 50  1  0  0  0  0
 46 66  1  0  0  0  0
 47 50  1  0  0  0  0
 47 66  1  0  0  0  0
 48 69  1  0  0  0  0
 49 65  1  0  0  0  0
 50 64  1  0  0  0  0
 52 61  1  0  0  0  0
 53 62  1  0  0  0  0
 54 62  1  0  0  0  0
 55 62  1  0  0  0  0
 56 72  1  0  0  0  0
 57 59  1  0  0  0  0
 58 71  1  0  0  0  0
 59 79  1  0  0  0  0
 60 62  1  0  0  0  0
 60 70  1  0  0  0  0
 61 72  1  0  0  0  0
 63 64  1  0  0  0  0
M  CHG  1  72   1
M  ISO  4  38 100  59 101  71 100  79 101
M  END
> <Batch ID>
0033

> <Smiles>
CNC(C)C(=O)NC(C(=O)N1Cc2cc([101O:1][101CH2:1]Cc3cc(C)c(C[100NH:0][100C:0](=O)N4CCCC(n5nc(-c6ccc(Oc7ccc(F)cc7F)cc6)c(C(N)=O)c5N)C4)c(Cl)c3)ccc2CC1C(=O)NC1CCCc2ccccc21)C(C)(C)C

> <Shape>
0.215

> <Color>
0.069

> <Negative vol penalty>
0.000

$$$$

  -OEChem-04052316483D

 93101  0     1  0  0  0  0  0999 V2000
  -13.6880  -28.6589   27.0636 C   0  0  0  0  0  0  0  0  0  0  0  0
  -14.9629  -28.1129   27.1733 C   0  0  0  0  0  0  0  0  0  0  0  0
  -22.9950   -9.9650   20.0472 C   0  0  0  0  0  0  0  0  0  0  0  0
  -24.3119   -9.5961   22.0389 C   0  0  0  0  0  0  0  0  0  0  0  0
  -12.9580  -28.4914   25.8876 C   0  0  0  0  0  0  0  0  0  0  0  0
  -15.5081  -27.3983   26.1073 C   0  0  0  0  0  0  0  0  0  0  0  0
  -20.3266  -28.6558   25.1877 C   0  0  0  0  0  0  0  0  0  0  0  0
  -22.3541   -8.7420   20.2444 C   0  0  0  0  0  0  0  0  0  0  0  0
  -23.6709   -8.3730   22.2362 C   0  0  0  0  0  0  0  0  0  0  0  0
  -21.2969  -28.1205   26.0336 C   0  0  0  0  0  0  0  0  0  0  0  0
  -20.7120   -7.2805   23.4494 C   0  0  0  0  0  0  0  0  0  0  0  0
  -20.2776   -6.9790   24.7401 C   0  0  0  0  0  0  0  0  0  0  0  0
  -21.8061  -26.4421   24.3774 C   0  0  0  0  0  0  0  0  0  0  0  0
  -21.6905   -5.0192   24.7578 C   0  0  0  0  0  0  0  0  0  0  0  0
  -23.9740  -10.3921   20.9445 C   0  0  0  0  0  0  0  0  0  0  0  0
  -24.0410  -12.9296   20.6908 C   0  0  0  0  0  0  0  0  0  0  0  0
  -13.4985  -27.7826   24.8031 C   0  0  0  0  0  0  0  0  0  0  0  0
  -20.0807  -28.0807   23.9326 C   0  0  0  0  0  0  0  0  0  0  0  0
  -14.7842  -27.2200   24.9162 C   0  0  0  0  0  0  0  0  0  0  0  0
  -20.8339  -26.9736   23.5164 C   0  0  0  0  0  0  0  0  0  0  0  0
  -22.6920   -7.9460   21.3389 C   0  0  0  0  0  0  0  0  0  0  0  0
  -22.0349  -27.0117   25.6297 C   0  0  0  0  0  0  0  0  0  0  0  0
  -21.6356   -6.4514   22.8129 C   0  0  0  0  0  0  0  0  0  0  0  0
  -20.7668   -5.8483   25.3943 C   0  0  0  0  0  0  0  0  0  0  0  0
  -22.1249   -5.3208   23.4671 C   0  0  0  0  0  0  0  0  0  0  0  0
  -24.6369  -11.6551   20.7410 C   0  0  0  0  0  0  0  0  0  0  0  0
  -25.0897  -13.7909   20.4790 C   0  0  0  0  0  0  0  0  0  0  0  0
  -22.6627  -13.3016   20.8237 C   0  0  0  0  0  0  0  0  0  0  0  0
  -17.5749  -26.6958   22.5519 C   0  0  0  0  0  0  0  0  0  0  0  0
  -19.5008  -26.7048   19.9416 C   0  0  0  0  0  0  0  0  0  0  0  0
  -22.0663  -26.7393   17.6914 C   0  0  0  0  0  0  0  0  0  0  0  0
  -30.9489  -13.4502   21.6641 C   0  0  0  0  0  0  0  0  0  0  0  0
  -12.6528  -27.5874   23.5696 C   0  0  0  0  0  0  0  0  0  0  0  0
  -19.0491  -28.6865   23.0209 C   0  0  0  0  0  0  0  0  0  0  0  0
  -20.6226  -26.3316   22.1704 C   0  0  0  0  0  0  0  0  0  0  0  0
  -13.4510  -27.1366   22.3490 C   0  0  0  0  0  0  0  0  0  0  0  0
  -29.4349  -13.9811   18.4856 C   0  0  0  0  0  0  0  0  0  0  0  0
  -14.4011  -26.0028   22.7213 C   0  0  0  0  0  0  0  0  0  0  0  0
  -27.9798  -13.5602   18.6987 C   0  0  0  0  0  0  0  0  0  0  0  0
  -22.9244  -24.4053   27.6816 C   0  0  0  0  0  0  0  0  0  0  0  0
  -24.6785  -24.8715   25.9254 C   0  0  0  0  0  0  0  0  0  0  0  0
  -23.2897  -22.9224   27.6569 C   0  0  0  0  0  0  0  0  0  0  0  0
  -25.0473  -23.3896   25.8959 C   0  0  0  0  0  0  0  0  0  0  0  0
  -30.3992  -13.0980   19.2745 C   0  0  0  0  0  0  0  0  0  0  0  0
  -28.6498  -12.5725   20.9290 C   0  0  0  0  0  0  0  0  0  0  0  0
  -15.4198  -26.4594   23.7727 C   0  0  1  0  0  0  0  0  0  0  0  0
  -18.5261  -27.7061   21.9755 C   0  0  1  0  0  0  0  0  0  0  0  0
  -27.6362  -13.4691   20.1977 C   0  0  2  0  0  0  0  0  0  0  0  0
  -23.2283  -25.0845   26.3487 C   0  0  0  0  0  0  0  0  0  1  0  0
  -24.7507  -22.6584   27.2254 C   0  0  0  0  0  0  0  0  0  0  0  0
  -27.6815  -22.4252   35.6223 C   0  0  0  0  0  0  0  0  0  0  0  0
  -22.6344  -26.0676   15.3412 C   0  0  0  0  0  0  0  0  0  0  0  0
  -19.6990  -23.7909   20.8248 C   0  0  0  0  0  0  0  0  0  0  0  0
  -21.1308  -23.3528   18.8183 C   0  0  0  0  0  0  0  0  0  0  0  0
  -18.7765  -24.1232   18.5242 C   0  0  0  0  0  0  0  0  0  0  0  0
  -22.6482  -29.5339   16.9100 C   0  0  0  0  0  0  0  0  0  0  0  0
  -25.7295  -23.1164   28.3241 C   0  0  0  0  0  0  0  0  0  0  0  0
  -24.9455  -21.1446   27.0184 C   0  0  0  0  0  0  0  0  0  0  0  0
  -26.7029  -21.9897   34.5435 C   0  0  0  0  0  0  0  0  0  0  0  0
  -25.4429  -22.3956   29.6337 C   0  0  0  0  0  0  0  0  0  0  0  0
  -26.3345  -20.7720   26.4945 C   0  0  0  0  0  0  0  0  0  0  0  0
  -27.0432  -22.6177   33.1920 C   0  0  0  0  0  0  0  0  0  0  0  0
  -26.3960  -22.8103   30.7584 C   0  0  0  0  0  0  0  0  0  0  0  0
  -26.5649  -19.2826   26.2205 C   0  0  0  0  0  0  0  0  0  0  0  0
  -26.0763  -22.1504   32.1016 C   0  0  0  0  0  0  0  0  0  0  0  0
  -27.9942  -18.9585   25.7815 C   0  0  0  0  0  0  0  0  0  0  0  0
  -28.1593  -17.4649   25.4912 C   0  0  0  0  0  0  0  0  0  0  0  0
  -29.5968  -17.1323   25.0844 C   0  0  0  0  0  0  0  0  0  0  0  0
  -29.7663  -15.6337   24.8259 C   0  0  0  0  0  0  0  0  0  0  0  0
  -31.1919  -15.2444   24.4278 C   0  0  0  0  0  0  0  0  0  0  0  0
  -31.3449  -13.7647   24.0938 C   0  0  0  0  0  0  0  0  0  0  0  0
  -20.5187  -25.7532   19.3608 C   0  0  1  0  0  0  0  0  0  0  0  0
  -22.1284  -27.1841   16.2413 C   0  0  2  0  0  0  0  0  0  0  0  0
  -20.0386  -24.2749   19.4010 C   0  0  0  0  0  0  0  0  0  0  0  0
  -25.9614  -11.6983   20.5744 N   0  0  0  0  0  0  0  0  0  0  0  0
  -26.2064  -13.0103   20.4173 N   0  0  0  0  0  0  0  0  0  0  0  0
  -19.5981  -26.9565   21.3175 N   0  0  0  0  0  0  0  0  0  0  0  0
  -30.0187  -13.0554   20.6885 N   0  0  0  0  0  0  0  0  0  0  0  0
  -25.1563  -15.1321   20.3413 N   0  0  0  0  0  0  0  0  0  0  0  0
  -21.7155  -12.2909   21.0376 N   0  0  0  0  0  0  0  0  0  0  0  0
  -16.4627  -27.2507   23.1556 N   0  0  0  0  0  0  0  0  0  0  0  0
  -20.8215  -26.2469   18.0217 N   0  0  0  0  0  0  0  0  0  0  0  0
  -30.5053  -13.3855   22.9793 N   0  0  0  0  0  0  0  0  0  0  0  0
  -23.0403  -28.3540   16.0969 N   0  3  0  0  0  0  0  0  0  0  0  0
  -22.2804  -14.4932   20.7386 O   0  0  0  0  0  0  0  0  0  0  0  0
  -17.8304  -25.5012   22.4546 O   0  0  0  0  0  0  0  0  0  0  0  0
  -18.6550  -27.2118   19.2005 O   0  0  0  0  0  0  0  0  0  0  0  0
  -23.0272  -26.8171   18.4538 O   0  0  0  0  0  0  0  0  0  0  0  0
  -32.0885  -13.8370   21.3835 O   0  0  0  0  0  0  0  0  0  0  0  0
  -22.0666   -6.7526   21.5317 O   0  0  0  0  0  0  0  0  0  0  0  0
  -22.9882  -26.4833   26.4590 O   0  0  0  0  0  0  0  0  0  1  0  0
  -20.3507   -5.5597   26.6344 F   0  0  0  0  0  0  0  0  0  0  0  0
  -23.0132   -4.5211   22.8611 F   0  0  0  0  0  0  0  0  0  0  0  0
  1  2  1  0  0  0  0
  1  5  2  0  0  0  0
  2  6  2  0  0  0  0
  3  8  2  0  0  0  0
  3 15  1  0  0  0  0
  4  9  1  0  0  0  0
  4 15  2  0  0  0  0
  5 17  1  0  0  0  0
  6 19  1  0  0  0  0
  7 10  2  0  0  0  0
  7 18  1  0  0  0  0
  8 21  1  0  0  0  0
  9 21  2  0  0  0  0
 10 22  1  0  0  0  0
 11 12  2  0  0  0  0
 11 23  1  0  0  0  0
 12 24  1  0  0  0  0
 13 20  1  0  0  0  0
 13 22  2  0  0  0  0
 14 24  2  0  0  0  0
 14 25  1  0  0  0  0
 15 26  1  0  0  0  0
 16 26  1  0  0  0  0
 16 27  2  0  0  0  0
 16 28  1  0  0  0  0
 17 19  2  0  0  0  0
 17 33  1  0  0  0  0
 18 20  2  0  0  0  0
 18 34  1  0  0  0  0
 19 46  1  0  0  0  0
 20 35  1  0  0  0  0
 21 90  1  0  0  0  0
 22 91  1  0  0  0  0
 23 25  2  0  0  0  0
 23 90  1  0  0  0  0
 24 92  1  0  0  0  0
 25 93  1  0  0  0  0
 26 75  2  0  0  0  0
 27 76  1  0  0  0  0
 27 79  1  0  0  0  0
 28 80  1  0  0  0  0
 28 85  2  0  0  0  0
 29 47  1  0  0  0  0
 29 81  1  0  0  0  0
 29 86  2  0  0  0  0
 30 72  1  0  0  0  0
 30 77  1  0  0  0  0
 30 87  2  0  0  0  0
 31 73  1  0  0  0  0
 31 82  1  0  0  0  0
 31 88  2  0  0  0  0
 32 78  1  0  0  0  0
 32 83  1  0  0  0  0
 32 89  2  0  0  0  0
 33 36  1  0  0  0  0
 34 47  1  0  0  0  0
 35 77  1  0  0  0  0
 36 38  1  0  0  0  0
 37 39  1  0  0  0  0
 37 44  1  0  0  0  0
 38 46  1  0  0  0  0
 39 48  1  0  0  0  0
 40 42  1  0  0  0  0
 40 49  1  0  0  0  0
 41 43  1  0  0  0  0
 41 49  1  0  0  0  0
 42 50  1  0  0  0  0
 43 50  1  0  0  0  0
 44 78  1  0  0  0  0
 45 48  1  0  0  0  0
 45 78  1  0  0  0  0
 46 81  1  0  0  0  0
 47 77  1  0  0  0  0
 48 76  1  0  0  0  0
 49 91  1  0  0  0  0
 50 57  1  0  0  0  0
 50 58  1  0  0  0  0
 51 59  1  0  0  0  0
 52 73  1  0  0  0  0
 53 74  1  0  0  0  0
 54 74  1  0  0  0  0
 55 74  1  0  0  0  0
 56 84  1  0  0  0  0
 57 60  1  0  0  0  0
 58 61  1  0  0  0  0
 59 62  1  0  0  0  0
 60 63  1  0  0  0  0
 61 64  1  0  0  0  0
 62 65  1  0  0  0  0
 63 65  1  0  0  0  0
 64 66  1  0  0  0  0
 66 67  1  0  0  0  0
 67 68  1  0  0  0  0
 68 69  1  0  0  0  0
 69 70  1  0  0  0  0
 70 71  1  0  0  0  0
 71 83  1  0  0  0  0
 72 74  1  0  0  0  0
 72 82  1  0  0  0  0
 73 84  1  0  0  0  0
 75 76  1  0  0  0  0
M  CHG  1  84   1
M  ISO  4  32 100  49 101  83 100  91 101
M  END
> <Batch ID>
0033

> <Smiles>
CCCCCCCC1(CCCCCCCCC[100NH:0][100C:0](=O)N2CCCC(n3nc(-c4ccc(Oc5ccc(F)cc5F)cc4)c(C(N)=O)c3N)C2)CC[101CH:1]([101O:1]c2ccc3c(c2)CN(C(=O)C(NC(=O)C(C)NC)C(C)(C)C)C(C(=O)NC2CCCc4ccccc42)C3)CC1

> <Shape>
0.213

> <Color>
0.182

> <Negative vol penalty>
0.000

$$$$

  -OEChem-04052316483D

 88 96  0     1  0  0  0  0  0999 V2000
  -20.6566  -37.6918   25.0335 C   0  0  0  0  0  0  0  0  0  0  0  0
  -20.9481  -36.6752   24.1296 C   0  0  0  0  0  0  0  0  0  0  0  0
  -24.7289   -8.4195   21.4151 C   0  0  0  0  0  0  0  0  0  0  0  0
  -23.1365  -10.1846   20.9846 C   0  0  0  0  0  0  0  0  0  0  0  0
  -21.6705  -38.5385   25.4794 C   0  0  0  0  0  0  0  0  0  0  0  0
  -22.2537  -36.5054   23.6703 C   0  0  0  0  0  0  0  0  0  0  0  0
  -23.6973  -31.6515   23.6700 C   0  0  0  0  0  0  0  0  0  0  0  0
  -23.8651   -7.8713   22.3632 C   0  0  0  0  0  0  0  0  0  0  0  0
  -22.2726   -9.6365   21.9327 C   0  0  0  0  0  0  0  0  0  0  0  0
  -23.2341  -30.8495   22.6278 C   0  0  0  0  0  0  0  0  0  0  0  0
  -21.0706   -5.9678   22.3812 C   0  0  0  0  0  0  0  0  0  0  0  0
  -20.8706   -4.5877   22.3547 C   0  0  0  0  0  0  0  0  0  0  0  0
  -25.3544  -31.0957   21.5040 C   0  0  0  0  0  0  0  0  0  0  0  0
  -21.4343  -28.1625   17.1098 C   0  0  0  0  0  0  0  0  0  0  0  0
  -21.9563  -27.0393   19.6095 C   0  0  0  0  0  0  0  0  0  0  0  0
  -21.7219   -4.4210   24.6096 C   0  0  0  0  0  0  0  0  0  0  0  0
  -24.3646   -9.5762   20.7258 C   0  0  0  0  0  0  0  0  0  0  0  0
  -25.3049   -9.8512   18.3704 C   0  0  0  0  0  0  0  0  0  0  0  0
  -22.9910  -38.3729   25.0328 C   0  0  0  0  0  0  0  0  0  0  0  0
  -24.9909  -32.1914   23.6317 C   0  0  0  0  0  0  0  0  0  0  0  0
  -23.2861  -37.3515   24.1097 C   0  0  0  0  0  0  0  0  0  0  0  0
  -25.8325  -31.9021   22.5481 C   0  0  0  0  0  0  0  0  0  0  0  0
  -21.4133  -26.7771   17.2699 C   0  0  0  0  0  0  0  0  0  0  0  0
  -21.7164  -28.9864   18.1995 C   0  0  0  0  0  0  0  0  0  0  0  0
  -21.6743  -26.2154   18.5198 C   0  0  0  0  0  0  0  0  0  0  0  0
  -21.9773  -28.4248   19.4493 C   0  0  0  0  0  0  0  0  0  0  0  0
  -22.6369   -8.4798   22.6220 C   0  0  0  0  0  0  0  0  0  0  0  0
  -24.0616  -30.5739   21.5433 C   0  0  0  0  0  0  0  0  0  0  0  0
  -21.5964   -6.5746   23.5219 C   0  0  0  0  0  0  0  0  0  0  0  0
  -21.1962   -3.8142   23.4688 C   0  0  0  0  0  0  0  0  0  0  0  0
  -21.9220   -5.8012   24.6360 C   0  0  0  0  0  0  0  0  0  0  0  0
  -25.2568  -10.1432   19.7467 C   0  0  0  0  0  0  0  0  0  0  0  0
  -26.3152  -10.6457   17.8860 C   0  0  0  0  0  0  0  0  0  0  0  0
  -24.5076   -8.9431   17.5988 C   0  0  0  0  0  0  0  0  0  0  0  0
  -26.1927  -35.1336   23.5759 C   0  0  0  0  0  0  0  0  0  0  0  0
  -28.6819  -15.7938   19.8878 C   0  0  0  0  0  0  0  0  0  0  0  0
  -29.0182  -33.5652   23.8572 C   0  0  0  0  0  0  0  0  0  0  0  0
  -30.7927  -30.6869   23.3952 C   0  0  0  0  0  0  0  0  0  0  0  0
  -24.0446  -39.3425   25.5067 C   0  0  0  0  0  0  0  0  0  0  0  0
  -25.4849  -33.0327   24.7765 C   0  0  0  0  0  0  0  0  0  0  0  0
  -27.2367  -32.4408   22.4688 C   0  0  0  0  0  0  0  0  0  0  0  0
  -25.4717  -38.8601   25.2597 C   0  0  0  0  0  0  0  0  0  0  0  0
  -30.4076  -12.7297   19.1999 C   0  0  0  0  0  0  0  0  0  0  0  0
  -25.6156  -38.3242   23.8388 C   0  0  0  0  0  0  0  0  0  0  0  0
  -29.2900  -11.6882   19.1654 C   0  0  0  0  0  0  0  0  0  0  0  0
  -30.1263  -13.8166   20.2327 C   0  0  0  0  0  0  0  0  0  0  0  0
  -27.6876  -13.4560   20.0211 C   0  0  0  0  0  0  0  0  0  0  0  0
  -24.6947  -37.1200   23.6075 C   0  0  1  0  0  0  0  0  0  0  0  0
  -26.6395  -33.9512   24.3884 C   0  0  1  0  0  0  0  0  0  0  0  0
  -27.9176  -12.3564   18.9693 C   0  0  2  0  0  0  0  0  0  0  0  0
  -21.1083  -25.9152   16.0890 C   0  0  0  0  0  0  0  0  0  0  0  0
  -21.7341  -30.4669   18.0038 C   0  0  0  0  0  0  0  0  0  0  0  0
  -33.0907  -29.7213   23.6855 C   0  0  0  0  0  0  0  0  0  0  0  0
  -29.9697  -35.0957   21.3950 C   0  0  0  0  0  0  0  0  0  0  0  0
  -31.8370  -33.4426   21.1750 C   0  0  0  0  0  0  0  0  0  0  0  0
  -31.6758  -34.8758   23.2104 C   0  0  0  0  0  0  0  0  0  0  0  0
  -29.8128  -28.6186   25.2716 C   0  0  0  0  0  0  0  0  0  0  0  0
  -21.6566  -24.7212   18.7171 C   0  0  0  0  0  0  0  0  0  0  0  0
  -22.2825  -29.2867   20.6302 C   0  0  0  0  0  0  0  0  0  1  0  0
  -27.2893  -16.3315   19.6743 C   0  0  0  0  0  0  0  0  0  0  0  0
  -23.0718  -24.1434   18.7882 C   0  0  0  0  0  0  0  0  0  0  0  0
  -27.2889  -17.8504   19.5383 C   0  0  0  0  0  0  0  0  0  0  0  0
  -23.0423  -22.6220   18.9532 C   0  0  0  0  0  0  0  0  0  0  0  0
  -25.8767  -18.4218   19.3789 C   0  0  0  0  0  0  0  0  0  0  0  0
  -24.4574  -22.0488   19.0554 C   0  0  0  0  0  0  0  0  0  0  0  0
  -25.9040  -19.9491   19.2765 C   0  0  0  0  0  0  0  0  0  0  0  0
  -24.4902  -20.5207   19.1495 C   0  0  0  0  0  0  0  0  0  0  0  0
  -30.0228  -32.9900   22.8881 C   0  0  1  0  0  0  0  0  0  0  0  0
  -31.7211  -29.9170   24.3170 C   0  0  2  0  0  0  0  0  0  0  0  0
  -30.8492  -34.0923   22.1674 C   0  0  0  0  0  0  0  0  0  0  0  0
  -26.1644  -11.0521   20.1131 N   0  0  0  0  0  0  0  0  0  0  0  0
  -26.7924  -11.3380   18.9598 N   0  0  0  0  0  0  0  0  0  0  0  0
  -27.6715  -33.2635   23.6097 N   0  0  0  0  0  0  0  0  0  0  0  0
  -28.8044  -14.4111   20.0261 N   0  0  0  0  0  0  0  0  0  0  0  0
  -26.8330  -10.8125   16.6505 N   0  0  0  0  0  0  0  0  0  0  0  0
  -23.5129   -8.2046   18.2543 N   0  0  0  0  0  0  0  0  0  0  0  0
  -25.2578  -35.9302   24.2090 N   0  0  0  0  0  0  0  0  0  0  0  0
  -30.8280  -32.0415   23.6499 N   0  0  0  0  0  0  0  0  0  0  0  0
  -31.1497  -28.5755   24.6252 N   0  3  0  0  0  0  0  0  0  0  0  0
  -24.6832   -8.7790   16.3677 O   0  0  0  0  0  0  0  0  0  0  0  0
  -26.6626  -35.3108   22.4581 O   0  0  0  0  0  0  0  0  0  0  0  0
  -29.6315  -16.5805   19.9272 O   0  0  0  0  0  0  0  0  0  0  0  0
  -29.4144  -34.2508   24.8030 O   0  0  0  0  0  0  0  0  0  0  0  0
  -30.1076  -30.1415   22.5328 O   0  0  0  0  0  0  0  0  0  0  0  0
  -21.7936   -7.9450   23.5469 O   0  0  0  0  0  0  0  0  0  0  0  0
  -23.6086  -29.7864   20.5171 O   0  0  0  0  0  0  0  0  0  1  0  0
  -21.0026   -2.4891   23.4438 F   0  0  0  0  0  0  0  0  0  0  0  0
  -22.4263   -6.3786   25.7352 F   0  0  0  0  0  0  0  0  0  0  0  0
  1  2  1  0  0  0  0
  1  5  2  0  0  0  0
  2  6  2  0  0  0  0
  3  8  2  0  0  0  0
  3 17  1  0  0  0  0
  4  9  1  0  0  0  0
  4 17  2  0  0  0  0
  5 19  1  0  0  0  0
  6 21  1  0  0  0  0
  7 10  2  0  0  0  0
  7 20  1  0  0  0  0
  8 27  1  0  0  0  0
  9 27  2  0  0  0  0
 10 28  1  0  0  0  0
 11 12  2  0  0  0  0
 11 29  1  0  0  0  0
 12 30  1  0  0  0  0
 13 22  1  0  0  0  0
 13 28  2  0  0  0  0
 14 23  2  0  0  0  0
 14 24  1  0  0  0  0
 15 25  2  0  0  0  0
 15 26  1  0  0  0  0
 16 30  2  0  0  0  0
 16 31  1  0  0  0  0
 17 32  1  0  0  0  0
 18 32  1  0  0  0  0
 18 33  2  0  0  0  0
 18 34  1  0  0  0  0
 19 21  2  0  0  0  0
 19 39  1  0  0  0  0
 20 22  2  0  0  0  0
 20 40  1  0  0  0  0
 21 48  1  0  0  0  0
 22 41  1  0  0  0  0
 23 25  1  0  0  0  0
 23 51  1  0  0  0  0
 24 26  2  0  0  0  0
 24 52  1  0  0  0  0
 25 58  1  0  0  0  0
 26 59  1  0  0  0  0
 27 85  1  0  0  0  0
 28 86  1  0  0  0  0
 29 31  2  0  0  0  0
 29 85  1  0  0  0  0
 30 87  1  0  0  0  0
 31 88  1  0  0  0  0
 32 71  2  0  0  0  0
 33 72  1  0  0  0  0
 33 75  1  0  0  0  0
 34 76  1  0  0  0  0
 34 80  2  0  0  0  0
 35 49  1  0  0  0  0
 35 77  1  0  0  0  0
 35 81  2  0  0  0  0
 36 60  1  0  0  0  0
 36 74  1  0  0  0  0
 36 82  2  0  0  0  0
 37 68  1  0  0  0  0
 37 73  1  0  0  0  0
 37 83  2  0  0  0  0
 38 69  1  0  0  0  0
 38 78  1  0  0  0  0
 38 84  2  0  0  0  0
 39 42  1  0  0  0  0
 40 49  1  0  0  0  0
 41 73  1  0  0  0  0
 42 44  1  0  0  0  0
 43 45  1  0  0  0  0
 43 46  1  0  0  0  0
 44 48  1  0  0  0  0
 45 50  1  0  0  0  0
 46 74  1  0  0  0  0
 47 50  1  0  0  0  0
 47 74  1  0  0  0  0
 48 77  1  0  0  0  0
 49 73  1  0  0  0  0
 50 72  1  0  0  0  0
 53 69  1  0  0  0  0
 54 70  1  0  0  0  0
 55 70  1  0  0  0  0
 56 70  1  0  0  0  0
 57 79  1  0  0  0  0
 58 61  1  0  0  0  0
 59 86  1  0  0  0  0
 60 62  1  0  0  0  0
 61 63  1  0  0  0  0
 62 64  1  0  0  0  0
 63 65  1  0  0  0  0
 64 66  1  0  0  0  0
 65 67  1  0  0  0  0
 66 67  1  0  0  0  0
 68 70  1  0  0  0  0
 68 78  1  0  0  0  0
 69 79  1  0  0  0  0
 71 72  1  0  0  0  0
M  CHG  1  79   1
M  ISO  4  36 100  59 101  60 100  86 101
M  END
> <Batch ID>
0033

> <Smiles>
CNC(C)C(=O)NC(C(=O)N1Cc2cc([101O:1][101CH2:1]c3cc(CCCCCCCC[100CH2:0][100C:0](=O)N4CCCC(n5nc(-c6ccc(Oc7ccc(F)cc7F)cc6)c(C(N)=O)c5N)C4)c(C)cc3C)ccc2CC1C(=O)NC1CCCc2ccccc21)C(C)(C)C

> <Shape>
0.227

> <Color>
0.084

> <Negative vol penalty>
0.000

$$$$

  -OEChem-04052316483D

 82 90  0     1  0  0  0  0  0999 V2000
  -23.0028  -23.6330   17.9499 C   0  0  0  0  0  0  0  0  0  0  0  0
  -24.1343  -22.9692   18.4129 C   0  0  0  0  0  0  0  0  0  0  0  0
  -25.2517  -26.8420   19.7711 C   0  0  0  0  0  0  0  0  0  0  0  0
  -27.1845  -27.9275   20.7318 C   0  0  0  0  0  0  0  0  0  0  0  0
  -21.7354  -23.2066   18.3447 C   0  0  0  0  0  0  0  0  0  0  0  0
  -23.9992  -21.8792   19.2719 C   0  0  0  0  0  0  0  0  0  0  0  0
  -26.9878  -18.0019   17.9759 C   0  0  0  0  0  0  0  0  0  0  0  0
  -24.5258  -28.0268   19.8928 C   0  0  0  0  0  0  0  0  0  0  0  0
  -26.4586  -29.1123   20.8534 C   0  0  0  0  0  0  0  0  0  0  0  0
  -28.3362  -18.0952   18.3181 C   0  0  0  0  0  0  0  0  0  0  0  0
  -24.1351  -30.4073   22.9404 C   0  0  0  0  0  0  0  0  0  0  0  0
  -24.2345  -31.1076   24.1426 C   0  0  0  0  0  0  0  0  0  0  0  0
  -27.9439  -16.6735   20.2271 C   0  0  0  0  0  0  0  0  0  0  0  0
  -35.6135  -18.6578   22.8138 C   0  0  0  0  0  0  0  0  0  0  0  0
  -34.4428  -20.7460   23.1390 C   0  0  0  0  0  0  0  0  0  0  0  0
  -25.1058  -33.0227   22.9550 C   0  0  0  0  0  0  0  0  0  0  0  0
  -26.5811  -26.7923   20.1906 C   0  0  0  0  0  0  0  0  0  0  0  0
  -28.1090  -25.1566   18.9669 C   0  0  0  0  0  0  0  0  0  0  0  0
  -21.5843  -22.1048   19.2014 C   0  0  0  0  0  0  0  0  0  0  0  0
  -26.1037  -17.2513   18.7642 C   0  0  0  0  0  0  0  0  0  0  0  0
  -22.7286  -21.4385   19.6797 C   0  0  0  0  0  0  0  0  0  0  0  0
  -26.5853  -16.5702   19.8913 C   0  0  0  0  0  0  0  0  0  0  0  0
  -34.5098  -18.1452   22.1321 C   0  0  0  0  0  0  0  0  0  0  0  0
  -33.3391  -20.2334   22.4572 C   0  0  0  0  0  0  0  0  0  0  0  0
  -25.1292  -29.1620   20.4340 C   0  0  0  0  0  0  0  0  0  0  0  0
  -28.8138  -17.4334   19.4455 C   0  0  0  0  0  0  0  0  0  0  0  0
  -24.5212  -31.0147   21.7455 C   0  0  0  0  0  0  0  0  0  0  0  0
  -33.3727  -18.9330   21.9538 C   0  0  0  0  0  0  0  0  0  0  0  0
  -24.7198  -32.4153   24.1499 C   0  0  0  0  0  0  0  0  0  0  0  0
  -25.0065  -32.3224   21.7528 C   0  0  0  0  0  0  0  0  0  0  0  0
  -35.5800  -19.9582   23.3173 C   0  0  0  0  0  0  0  0  0  0  0  0
  -27.3313  -25.5685   20.0657 C   0  0  0  0  0  0  0  0  0  0  0  0
  -28.6110  -23.9339   19.3406 C   0  0  0  0  0  0  0  0  0  0  0  0
  -28.3557  -25.8198   17.7199 C   0  0  0  0  0  0  0  0  0  0  0  0
  -23.5051  -17.9136   20.4707 C   0  0  0  0  0  0  0  0  0  0  0  0
  -31.0175  -20.6880   23.2088 C   0  0  0  0  0  0  0  0  0  0  0  0
  -23.3853  -14.6905   20.8161 C   0  0  0  0  0  0  0  0  0  0  0  0
  -25.0519  -11.7124   20.8122 C   0  0  0  0  0  0  0  0  0  0  0  0
  -20.1958  -21.7101   19.6384 C   0  0  0  0  0  0  0  0  0  0  0  0
  -24.6575  -17.1388   18.3665 C   0  0  0  0  0  0  0  0  0  0  0  0
  -25.6813  -15.7348   20.7593 C   0  0  0  0  0  0  0  0  0  0  0  0
  -20.1242  -20.3144   20.2524 C   0  0  0  0  0  0  0  0  0  0  0  0
  -27.4429  -20.9362   23.2338 C   0  0  0  0  0  0  0  0  0  0  0  0
  -21.2485  -20.1181   21.2645 C   0  0  0  0  0  0  0  0  0  0  0  0
  -27.1609  -22.1477   22.3462 C   0  0  0  0  0  0  0  0  0  0  0  0
  -28.7274  -21.1186   24.0361 C   0  0  0  0  0  0  0  0  0  0  0  0
  -29.6481  -22.6351   22.3115 C   0  0  0  0  0  0  0  0  0  0  0  0
  -22.6220  -20.2366   20.5931 C   0  0  1  0  0  0  0  0  0  0  0  0
  -23.7449  -16.7661   19.5308 C   0  0  1  0  0  0  0  0  0  0  0  0
  -28.3752  -22.4788   21.4607 C   0  0  2  0  0  0  0  0  0  0  0  0
  -34.5643  -16.7508   21.6002 C   0  0  0  0  0  0  0  0  0  0  0  0
  -24.6932   -9.2538   21.1644 C   0  0  0  0  0  0  0  0  0  0  0  0
  -23.2548  -15.1438   23.8307 C   0  0  0  0  0  0  0  0  0  0  0  0
  -23.8527  -12.7335   24.1488 C   0  0  0  0  0  0  0  0  0  0  0  0
  -21.7368  -13.3480   22.9791 C   0  0  0  0  0  0  0  0  0  0  0  0
  -25.9127  -11.0736   18.0536 C   0  0  0  0  0  0  0  0  0  0  0  0
  -32.1311  -21.0922   22.2758 C   0  0  0  0  0  0  0  0  0  0  0  0
  -30.8105  -18.7252   19.4246 C   0  0  0  0  0  0  0  0  0  1  0  0
  -32.2547  -18.6291   19.8769 C   0  0  0  0  0  0  0  0  0  0  0  0
  -23.9487  -13.6997   21.8061 C   0  0  1  0  0  0  0  0  0  0  0  0
  -24.7390  -10.3838   20.1477 C   0  0  2  0  0  0  0  0  0  0  0  0
  -23.2151  -13.7485   23.1761 C   0  0  0  0  0  0  0  0  0  0  0  0
  -27.3356  -24.6796   21.0626 N   0  0  0  0  0  0  0  0  0  0  0  0
  -28.1221  -23.6969   20.5917 N   0  0  0  0  0  0  0  0  0  0  0  0
  -24.2742  -15.6610   20.3326 N   0  0  0  0  0  0  0  0  0  0  0  0
  -29.8525  -21.4540   23.1615 N   0  0  0  0  0  0  0  0  0  0  0  0
  -29.4183  -23.0492   18.7179 N   0  0  0  0  0  0  0  0  0  0  0  0
  -27.7622  -27.0702   17.4994 N   0  0  0  0  0  0  0  0  0  0  0  0
  -22.9384  -19.0225   19.8717 N   0  0  0  0  0  0  0  0  0  0  0  0
  -23.9039  -12.3972   21.1504 N   0  0  0  0  0  0  0  0  0  0  0  0
  -25.7762  -10.0574   19.1286 N   0  3  0  0  0  0  0  0  0  0  0  0
  -29.0677  -25.3111   16.8212 O   0  0  0  0  0  0  0  0  0  0  0  0
  -23.8102  -17.8008   21.6522 O   0  0  0  0  0  0  0  0  0  0  0  0
  -31.1788  -19.7184   23.9544 O   0  0  0  0  0  0  0  0  0  0  0  0
  -22.2021  -14.6021   20.4787 O   0  0  0  0  0  0  0  0  0  0  0  0
  -26.1999  -12.1018   21.0146 O   0  0  0  0  0  0  0  0  0  0  0  0
  -24.4212  -30.3184   20.5527 O   0  0  0  0  0  0  0  0  0  0  0  0
  -30.1293  -17.5233   19.7821 O   0  0  0  0  0  0  0  0  0  1  0  0
  -32.2883  -18.4292   21.2848 O   0  0  0  0  0  0  0  0  0  0  0  0
  -24.8137  -33.0882   25.3043 F   0  0  0  0  0  0  0  0  0  0  0  0
  -25.3777  -32.9115   20.6079 F   0  0  0  0  0  0  0  0  0  0  0  0
  -36.9419  -20.5899   24.1582 Cl  0  0  0  0  0  0  0  0  0  0  0  0
  1  2  1  0  0  0  0
  1  5  2  0  0  0  0
  2  6  2  0  0  0  0
  3  8  2  0  0  0  0
  3 17  1  0  0  0  0
  4  9  1  0  0  0  0
  4 17  2  0  0  0  0
  5 19  1  0  0  0  0
  6 21  1  0  0  0  0
  7 10  2  0  0  0  0
  7 20  1  0  0  0  0
  8 25  1  0  0  0  0
  9 25  2  0  0  0  0
 10 26  1  0  0  0  0
 11 12  2  0  0  0  0
 11 27  1  0  0  0  0
 12 29  1  0  0  0  0
 13 22  1  0  0  0  0
 13 26  2  0  0  0  0
 14 23  2  0  0  0  0
 14 31  1  0  0  0  0
 15 24  1  0  0  0  0
 15 31  2  0  0  0  0
 16 29  2  0  0  0  0
 16 30  1  0  0  0  0
 17 32  1  0  0  0  0
 18 32  1  0  0  0  0
 18 33  2  0  0  0  0
 18 34  1  0  0  0  0
 19 21  2  0  0  0  0
 19 39  1  0  0  0  0
 20 22  2  0  0  0  0
 20 40  1  0  0  0  0
 21 48  1  0  0  0  0
 22 41  1  0  0  0  0
 23 28  1  0  0  0  0
 23 51  1  0  0  0  0
 24 28  2  0  0  0  0
 24 57  1  0  0  0  0
 25 77  1  0  0  0  0
 26 78  1  0  0  0  0
 27 30  2  0  0  0  0
 27 77  1  0  0  0  0
 28 79  1  0  0  0  0
 29 80  1  0  0  0  0
 30 81  1  0  0  0  0
 31 82  1  0  0  0  0
 32 63  2  0  0  0  0
 33 64  1  0  0  0  0
 33 67  1  0  0  0  0
 34 68  1  0  0  0  0
 34 72  2  0  0  0  0
 35 49  1  0  0  0  0
 35 69  1  0  0  0  0
 35 73  2  0  0  0  0
 36 57  1  0  0  0  0
 36 66  1  0  0  0  0
 36 74  2  0  0  0  0
 37 60  1  0  0  0  0
 37 65  1  0  0  0  0
 37 75  2  0  0  0  0
 38 61  1  0  0  0  0
 38 70  1  0  0  0  0
 38 76  2  0  0  0  0
 39 42  1  0  0  0  0
 40 49  1  0  0  0  0
 41 65  1  0  0  0  0
 42 44  1  0  0  0  0
 43 45  1  0  0  0  0
 43 46  1  0  0  0  0
 44 48  1  0  0  0  0
 45 50  1  0  0  0  0
 46 66  1  0  0  0  0
 47 50  1  0  0  0  0
 47 66  1  0  0  0  0
 48 69  1  0  0  0  0
 49 65  1  0  0  0  0
 50 64  1  0  0  0  0
 52 61  1  0  0  0  0
 53 62  1  0  0  0  0
 54 62  1  0  0  0  0
 55 62  1  0  0  0  0
 56 71  1  0  0  0  0
 58 59  1  0  0  0  0
 58 78  1  0  0  0  0
 59 79  1  0  0  0  0
 60 62  1  0  0  0  0
 60 70  1  0  0  0  0
 61 71  1  0  0  0  0
 63 64  1  0  0  0  0
M  CHG  1  71   1
M  ISO  4  36 100  57 100  58 101  78 101
M  END
> <Batch ID>
0033

> <Smiles>
CNC(C)C(=O)NC(C(=O)N1Cc2cc([101O:1][101CH2:1]COc3c(C)cc(Cl)cc3[100CH2:0][100C:0](=O)N3CCCC(n4nc(-c5ccc(Oc6ccc(F)cc6F)cc5)c(C(N)=O)c4N)C3)ccc2CC1C(=O)NC1CCCc2ccccc21)C(C)(C)C

> <Shape>
0.184

> <Color>
0.084

> <Negative vol penalty>
0.000

$$$$

  -OEChem-04052316483D

 83 91  0     1  0  0  0  0  0999 V2000
  -25.8853  -23.4421   22.7431 C   0  0  0  0  0  0  0  0  0  0  0  0
  -26.1320  -22.4370   21.8135 C   0  0  0  0  0  0  0  0  0  0  0  0
  -28.3214  -26.5655   18.8908 C   0  0  0  0  0  0  0  0  0  0  0  0
  -29.3134  -25.9070   20.9930 C   0  0  0  0  0  0  0  0  0  0  0  0
  -25.6344  -23.1124   24.0744 C   0  0  0  0  0  0  0  0  0  0  0  0
  -26.1291  -21.1016   22.2149 C   0  0  0  0  0  0  0  0  0  0  0  0
  -24.5018  -14.5529   19.8100 C   0  0  0  0  0  0  0  0  0  0  0  0
  -29.6324  -12.4075   20.8143 C   0  0  0  0  0  0  0  0  0  0  0  0
  -30.2453  -13.5511   20.3025 C   0  0  0  0  0  0  0  0  0  0  0  0
  -27.7885  -27.7024   19.4984 C   0  0  0  0  0  0  0  0  0  0  0  0
  -28.7805  -27.0439   21.6006 C   0  0  0  0  0  0  0  0  0  0  0  0
  -25.0614  -13.2823   19.6829 C   0  0  0  0  0  0  0  0  0  0  0  0
  -25.1649  -28.4646   21.4884 C   0  0  0  0  0  0  0  0  0  0  0  0
  -23.8353  -28.7830   21.2124 C   0  0  0  0  0  0  0  0  0  0  0  0
  -24.5373  -12.8270   21.9931 C   0  0  0  0  0  0  0  0  0  0  0  0
  -28.2261  -12.2836   18.8537 C   0  0  0  0  0  0  0  0  0  0  0  0
  -24.5333  -30.9103   20.3042 C   0  0  0  0  0  0  0  0  0  0  0  0
  -29.0838  -25.6678   19.6382 C   0  0  0  0  0  0  0  0  0  0  0  0
  -30.8879  -24.3732   18.3824 C   0  0  0  0  0  0  0  0  0  0  0  0
  -25.6188  -21.7718   24.4904 C   0  0  0  0  0  0  0  0  0  0  0  0
  -23.9646  -14.9748   21.0347 C   0  0  0  0  0  0  0  0  0  0  0  0
  -25.8790  -20.7537   23.5532 C   0  0  0  0  0  0  0  0  0  0  0  0
  -23.9692  -14.1024   22.1325 C   0  0  0  0  0  0  0  0  0  0  0  0
  -28.6228  -11.7737   20.0899 C   0  0  0  0  0  0  0  0  0  0  0  0
  -29.8486  -14.0611   19.0663 C   0  0  0  0  0  0  0  0  0  0  0  0
  -28.8390  -13.4273   18.3419 C   0  0  0  0  0  0  0  0  0  0  0  0
  -28.0181  -27.9416   20.8533 C   0  0  0  0  0  0  0  0  0  0  0  0
  -25.0819  -12.4202   20.7753 C   0  0  0  0  0  0  0  0  0  0  0  0
  -26.1788  -29.3690   21.1724 C   0  0  0  0  0  0  0  0  0  0  0  0
  -23.5195  -30.0059   20.6203 C   0  0  0  0  0  0  0  0  0  0  0  0
  -25.8630  -30.5918   20.5803 C   0  0  0  0  0  0  0  0  0  0  0  0
  -29.6341  -24.4929   19.0113 C   0  0  0  0  0  0  0  0  0  0  0  0
  -30.9336  -23.0692   17.9533 C   0  0  0  0  0  0  0  0  0  0  0  0
  -31.9190  -25.3530   18.2022 C   0  0  0  0  0  0  0  0  0  0  0  0
  -24.6246  -17.3094   23.0883 C   0  0  0  0  0  0  0  0  0  0  0  0
  -21.9346  -16.2483   24.5582 C   0  0  0  0  0  0  0  0  0  0  0  0
  -19.7509  -13.6831   25.1037 C   0  0  0  0  0  0  0  0  0  0  0  0
  -30.2183  -17.7254   18.8905 C   0  0  0  0  0  0  0  0  0  0  0  0
  -25.3895  -21.4671   25.9496 C   0  0  0  0  0  0  0  0  0  0  0  0
  -23.3405  -16.3386   21.1481 C   0  0  0  0  0  0  0  0  0  0  0  0
  -23.3871  -14.4998   23.4636 C   0  0  0  0  0  0  0  0  0  0  0  0
  -25.0338  -20.0071   26.2183 C   0  0  0  0  0  0  0  0  0  0  0  0
  -27.3117  -19.5444   17.7328 C   0  0  0  0  0  0  0  0  0  0  0  0
  -25.9770  -19.0793   25.4591 C   0  0  0  0  0  0  0  0  0  0  0  0
  -27.7680  -20.9933   17.9132 C   0  0  0  0  0  0  0  0  0  0  0  0
  -27.8262  -18.6580   18.8632 C   0  0  0  0  0  0  0  0  0  0  0  0
  -29.7628  -20.1380   19.2281 C   0  0  0  0  0  0  0  0  0  0  0  0
  -25.8598  -19.2922   23.9450 C   0  0  1  0  0  0  0  0  0  0  0  0
  -23.2851  -16.8529   22.5833 C   0  0  1  0  0  0  0  0  0  0  0  0
  -29.2937  -21.0806   18.1049 C   0  0  2  0  0  0  0  0  0  0  0  0
  -28.3976  -13.9554   17.0163 C   0  0  0  0  0  0  0  0  0  0  0  0
  -26.0723   -8.4211   21.6162 C   0  0  0  0  0  0  0  0  0  0  0  0
  -17.6706  -13.1053   26.3828 C   0  0  0  0  0  0  0  0  0  0  0  0
  -23.5779  -16.0095   27.1180 C   0  0  0  0  0  0  0  0  0  0  0  0
  -21.7615  -14.5713   28.0671 C   0  0  0  0  0  0  0  0  0  0  0  0
  -21.2772  -16.9361   27.4380 C   0  0  0  0  0  0  0  0  0  0  0  0
  -18.2352  -13.1403   22.6203 C   0  0  0  0  0  0  0  0  0  0  0  0
  -27.9590  -10.5356   20.6446 C   0  0  0  0  0  0  0  0  0  0  0  0
  -30.5186  -15.2874   18.5392 C   0  0  0  0  0  0  0  0  0  0  0  0
  -26.3581   -9.6896   22.4092 C   0  0  0  0  0  0  0  0  0  0  0  0
  -21.6314  -15.2171   25.6182 C   0  0  1  0  0  0  0  0  0  0  0  0
  -18.2342  -13.6270   25.0702 C   0  0  2  0  0  0  0  0  0  0  0  0
  -26.7318  -10.8702   21.5042 C   0  0  2  0  0  0  0  0  0  1  0  0
  -22.0748  -15.6764   27.0359 C   0  0  0  0  0  0  0  0  0  0  0  0
  -28.9339  -23.3558   18.9861 N   0  0  0  0  0  0  0  0  0  0  0  0
  -29.7504  -22.5091   18.3360 N   0  0  0  0  0  0  0  0  0  0  0  0
  -22.7940  -15.8458   23.5261 N   0  0  0  0  0  0  0  0  0  0  0  0
  -29.2868  -18.7730   18.9806 N   0  0  0  0  0  0  0  0  0  0  0  0
  -31.8701  -22.3586   17.2896 N   0  0  0  0  0  0  0  0  0  0  0  0
  -31.7089  -26.6443   18.7050 N   0  0  0  0  0  0  0  0  0  0  0  0
  -24.6695  -18.6465   23.4345 N   0  0  0  0  0  0  0  0  0  0  0  0
  -20.2074  -14.9210   25.5042 N   0  0  0  0  0  0  0  0  0  0  0  0
  -29.6852  -16.4628   18.6617 N   0  0  0  0  0  0  0  0  0  0  0  0
  -17.7731  -12.7316   23.9718 N   0  3  0  0  0  0  0  0  0  0  0  0
  -32.9880  -25.0957   17.5984 O   0  0  0  0  0  0  0  0  0  0  0  0
  -25.5486  -16.5077   23.1601 O   0  0  0  0  0  0  0  0  0  0  0  0
  -21.4221  -17.3674   24.6391 O   0  0  0  0  0  0  0  0  0  0  0  0
  -20.4596  -12.7235   24.8080 O   0  0  0  0  0  0  0  0  0  0  0  0
  -31.4363  -17.9028   19.0004 O   0  0  0  0  0  0  0  0  0  0  0  0
  -27.4984  -29.0510   21.4464 O   0  0  0  0  0  0  0  0  0  0  0  0
  -25.6281  -11.1797   20.6542 O   0  0  0  0  0  0  0  0  0  1  0  0
  -22.2427  -30.3109   20.3538 F   0  0  0  0  0  0  0  0  0  0  0  0
  -26.8328  -31.4642   20.2734 F   0  0  0  0  0  0  0  0  0  0  0  0
  1  2  1  0  0  0  0
  1  5  2  0  0  0  0
  2  6  2  0  0  0  0
  3 10  2  0  0  0  0
  3 18  1  0  0  0  0
  4 11  1  0  0  0  0
  4 18  2  0  0  0  0
  5 20  1  0  0  0  0
  6 22  1  0  0  0  0
  7 12  2  0  0  0  0
  7 21  1  0  0  0  0
  8  9  2  0  0  0  0
  8 24  1  0  0  0  0
  9 25  1  0  0  0  0
 10 27  1  0  0  0  0
 11 27  2  0  0  0  0
 12 28  1  0  0  0  0
 13 14  2  0  0  0  0
 13 29  1  0  0  0  0
 14 30  1  0  0  0  0
 15 23  1  0  0  0  0
 15 28  2  0  0  0  0
 16 24  2  0  0  0  0
 16 26  1  0  0  0  0
 17 30  2  0  0  0  0
 17 31  1  0  0  0  0
 18 32  1  0  0  0  0
 19 32  1  0  0  0  0
 19 33  2  0  0  0  0
 19 34  1  0  0  0  0
 20 22  2  0  0  0  0
 20 39  1  0  0  0  0
 21 23  2  0  0  0  0
 21 40  1  0  0  0  0
 22 48  1  0  0  0  0
 23 41  1  0  0  0  0
 24 58  1  0  0  0  0
 25 26  2  0  0  0  0
 25 59  1  0  0  0  0
 26 51  1  0  0  0  0
 27 80  1  0  0  0  0
 28 81  1  0  0  0  0
 29 31  2  0  0  0  0
 29 80  1  0  0  0  0
 30 82  1  0  0  0  0
 31 83  1  0  0  0  0
 32 65  2  0  0  0  0
 33 66  1  0  0  0  0
 33 69  1  0  0  0  0
 34 70  1  0  0  0  0
 34 75  2  0  0  0  0
 35 49  1  0  0  0  0
 35 71  1  0  0  0  0
 35 76  2  0  0  0  0
 36 61  1  0  0  0  0
 36 67  1  0  0  0  0
 36 77  2  0  0  0  0
 37 62  1  0  0  0  0
 37 72  1  0  0  0  0
 37 78  2  0  0  0  0
 38 68  1  0  0  0  0
 38 73  1  0  0  0  0
 38 79  2  0  0  0  0
 39 42  1  0  0  0  0
 40 49  1  0  0  0  0
 41 67  1  0  0  0  0
 42 44  1  0  0  0  0
 43 45  1  0  0  0  0
 43 46  1  0  0  0  0
 44 48  1  0  0  0  0
 45 50  1  0  0  0  0
 46 68  1  0  0  0  0
 47 50  1  0  0  0  0
 47 68  1  0  0  0  0
 48 71  1  0  0  0  0
 49 67  1  0  0  0  0
 50 66  1  0  0  0  0
 52 60  1  0  0  0  0
 53 62  1  0  0  0  0
 54 64  1  0  0  0  0
 55 64  1  0  0  0  0
 56 64  1  0  0  0  0
 57 74  1  0  0  0  0
 58 63  1  0  0  0  0
 59 73  1  0  0  0  0
 60 63  1  0  0  0  0
 61 64  1  0  0  0  0
 61 72  1  0  0  0  0
 62 74  1  0  0  0  0
 63 81  1  0  0  0  0
 65 66  1  0  0  0  0
M  CHG  1  74   1
M  ISO  4  38 100  63 101  73 100  81 101
M  END
> <Batch ID>
0033

> <Smiles>
CC[101CH:1](Cc1ccc(C[100NH:0][100C:0](=O)N2CCCC(n3nc(-c4ccc(Oc5ccc(F)cc5F)cc4)c(C(N)=O)c3N)C2)c(C)c1)[101O:1]c1ccc2c(c1)CN(C(=O)C(NC(=O)C(C)NC)C(C)(C)C)C(C(=O)NC1CCCc3ccccc31)C2

> <Shape>
0.210

> <Color>
0.071

> <Negative vol penalty>
0.000

$$$$

  -OEChem-04052316483D

 86 94  0     1  0  0  0  0  0999 V2000
  -16.8410  -29.2536   24.2888 C   0  0  0  0  0  0  0  0  0  0  0  0
  -17.1962  -28.2788   23.3620 C   0  0  0  0  0  0  0  0  0  0  0  0
  -26.5306  -13.6962   21.7928 C   0  0  0  0  0  0  0  0  0  0  0  0
  -25.6413  -14.3099   19.6319 C   0  0  0  0  0  0  0  0  0  0  0  0
  -17.6028  -30.4156   24.4033 C   0  0  0  0  0  0  0  0  0  0  0  0
  -18.3130  -28.4660   22.5483 C   0  0  0  0  0  0  0  0  0  0  0  0
  -22.1836  -24.1564   20.5603 C   0  0  0  0  0  0  0  0  0  0  0  0
  -25.6741  -12.5961   21.8330 C   0  0  0  0  0  0  0  0  0  0  0  0
  -24.7847  -13.2098   19.6720 C   0  0  0  0  0  0  0  0  0  0  0  0
  -22.2779  -23.4650   19.3534 C   0  0  0  0  0  0  0  0  0  0  0  0
  -22.1102  -10.7677   19.3663 C   0  0  0  0  0  0  0  0  0  0  0  0
  -20.7814  -10.9666   18.9918 C   0  0  0  0  0  0  0  0  0  0  0  0
  -23.9294  -25.0459   18.5836 C   0  0  0  0  0  0  0  0  0  0  0  0
  -24.4268  -19.7715   15.6731 C   0  0  0  0  0  0  0  0  0  0  0  0
  -24.9408  -21.9757   14.8279 C   0  0  0  0  0  0  0  0  0  0  0  0
  -20.5234  -12.5851   20.7669 C   0  0  0  0  0  0  0  0  0  0  0  0
  -26.5142  -14.5532   20.6923 C   0  0  0  0  0  0  0  0  0  0  0  0
  -28.7038  -15.7329   20.1252 C   0  0  0  0  0  0  0  0  0  0  0  0
  -18.7351  -30.6129   23.5973 C   0  0  0  0  0  0  0  0  0  0  0  0
  -22.9548  -25.3061   20.7841 C   0  0  0  0  0  0  0  0  0  0  0  0
  -19.0900  -29.6324   22.6511 C   0  0  0  0  0  0  0  0  0  0  0  0
  -23.8449  -25.7487   19.7952 C   0  0  0  0  0  0  0  0  0  0  0  0
  -24.0263  -21.0729   15.3705 C   0  0  0  0  0  0  0  0  0  0  0  0
  -25.7418  -19.3729   15.4332 C   0  0  0  0  0  0  0  0  0  0  0  0
  -26.2558  -21.5771   14.5879 C   0  0  0  0  0  0  0  0  0  0  0  0
  -24.8011  -12.3529   20.7726 C   0  0  0  0  0  0  0  0  0  0  0  0
  -23.1488  -23.9113   18.3637 C   0  0  0  0  0  0  0  0  0  0  0  0
  -22.6457  -11.4774   20.4412 C   0  0  0  0  0  0  0  0  0  0  0  0
  -19.9880  -11.8753   19.6921 C   0  0  0  0  0  0  0  0  0  0  0  0
  -21.8523  -12.3861   21.1415 C   0  0  0  0  0  0  0  0  0  0  0  0
  -26.6563  -20.2757   14.8906 C   0  0  0  0  0  0  0  0  0  0  0  0
  -27.3984  -15.6901   20.6505 C   0  0  0  0  0  0  0  0  0  0  0  0
  -29.1117  -17.0292   20.3245 C   0  0  0  0  0  0  0  0  0  0  0  0
  -29.4783  -14.6939   19.5118 C   0  0  0  0  0  0  0  0  0  0  0  0
  -22.3076  -28.3666   21.3481 C   0  0  0  0  0  0  0  0  0  0  0  0
  -25.5176  -28.5643   21.7707 C   0  0  0  0  0  0  0  0  0  0  0  0
  -28.6103  -27.2766   21.1198 C   0  0  0  0  0  0  0  0  0  0  0  0
  -28.1305  -22.5205   20.1562 C   0  0  0  0  0  0  0  0  0  0  0  0
  -19.5002  -31.9064   23.7242 C   0  0  0  0  0  0  0  0  0  0  0  0
  -22.8611  -26.0253   22.1018 C   0  0  0  0  0  0  0  0  0  0  0  0
  -24.7097  -26.9657   19.9939 C   0  0  0  0  0  0  0  0  0  0  0  0
  -20.8858  -31.8598   23.0854 C   0  0  0  0  0  0  0  0  0  0  0  0
  -27.0347  -20.7528   23.0461 C   0  0  0  0  0  0  0  0  0  0  0  0
  -20.8123  -31.2346   21.6960 C   0  0  0  0  0  0  0  0  0  0  0  0
  -27.1334  -19.2827   22.6349 C   0  0  0  0  0  0  0  0  0  0  0  0
  -26.5896  -21.6356   21.8822 C   0  0  0  0  0  0  0  0  0  0  0  0
  -27.5001  -20.0323   20.2470 C   0  0  0  0  0  0  0  0  0  0  0  0
  -20.3089  -29.7879   21.7679 C   0  0  1  0  0  0  0  0  0  0  0  0
  -23.3155  -27.4795   22.0224 C   0  0  1  0  0  0  0  0  0  0  0  0
  -27.9995  -19.1104   21.3726 C   0  0  2  0  0  0  0  0  0  0  0  0
  -26.1266  -17.9688   15.7732 C   0  0  0  0  0  0  0  0  0  0  0  0
  -31.1009  -27.0102   21.2723 C   0  0  0  0  0  0  0  0  0  0  0  0
  -25.5209  -30.8312   19.7284 C   0  0  0  0  0  0  0  0  0  0  0  0
  -27.9987  -30.5425   19.5156 C   0  0  0  0  0  0  0  0  0  0  0  0
  -27.0056  -31.2063   21.7056 C   0  0  0  0  0  0  0  0  0  0  0  0
  -28.3882  -25.4277   23.4201 C   0  0  0  0  0  0  0  0  0  0  0  0
  -22.6033  -21.5042   15.6301 C   0  0  0  0  0  0  0  0  0  0  0  0
  -27.2013  -22.5781   14.0055 C   0  0  0  0  0  0  0  0  0  0  0  0
  -27.6932  -23.5861   15.0532 C   0  0  0  0  0  0  0  0  0  0  0  0
  -28.4626  -22.8974   16.1823 C   0  0  0  0  0  0  0  0  0  0  0  0
  -28.9149  -23.9063   17.2420 C   0  0  0  0  0  0  0  0  0  0  0  0
  -29.6974  -23.2532   18.3766 C   0  0  0  0  0  0  0  0  0  0  0  0
  -22.4190  -22.0835   17.0285 C   0  0  0  0  0  0  0  0  0  1  0  0
  -26.6993  -28.8390   20.8723 C   0  0  1  0  0  0  0  0  0  0  0  0
  -29.7837  -26.9645   22.0309 C   0  0  2  0  0  0  0  0  0  0  0  0
  -26.7886  -30.3329   20.4507 C   0  0  0  0  0  0  0  0  0  0  0  0
  -27.0033  -16.8657   21.1464 N   0  0  0  0  0  0  0  0  0  0  0  0
  -28.0667  -17.6594   20.9336 N   0  0  0  0  0  0  0  0  0  0  0  0
  -24.5774  -27.6385   21.2968 N   0  0  0  0  0  0  0  0  0  0  0  0
  -27.4526  -21.4256   20.7174 N   0  0  0  0  0  0  0  0  0  0  0  0
  -30.2588  -17.6800   20.0364 N   0  0  0  0  0  0  0  0  0  0  0  0
  -28.9070  -13.4203   19.3861 N   0  0  0  0  0  0  0  0  0  0  0  0
  -21.3685  -28.9053   22.2069 N   0  0  0  0  0  0  0  0  0  0  0  0
  -27.8750  -28.3473   21.5825 N   0  0  0  0  0  0  0  0  0  0  0  0
  -28.9325  -22.2331   19.0585 N   0  0  0  0  0  0  0  0  0  0  0  0
  -29.6308  -25.6066   22.6257 N   0  3  0  0  0  0  0  0  0  0  0  0
  -30.6486  -14.8849   19.1027 O   0  0  0  0  0  0  0  0  0  0  0  0
  -22.3775  -28.5500   20.1385 O   0  0  0  0  0  0  0  0  0  0  0  0
  -25.4356  -29.1443   22.8563 O   0  0  0  0  0  0  0  0  0  0  0  0
  -28.3722  -26.6370   20.0976 O   0  0  0  0  0  0  0  0  0  0  0  0
  -28.0326  -23.6681   20.6038 O   0  0  0  0  0  0  0  0  0  0  0  0
  -23.9653  -11.2793   20.8113 O   0  0  0  0  0  0  0  0  0  0  0  0
  -23.2423  -23.2386   17.1844 O   0  0  0  0  0  0  0  0  0  1  0  0
  -18.7124  -12.0674   19.3313 F   0  0  0  0  0  0  0  0  0  0  0  0
  -22.3614  -13.0717   22.1742 F   0  0  0  0  0  0  0  0  0  0  0  0
  -28.2890  -19.7808   14.5929 Cl  0  0  0  0  0  0  0  0  0  0  0  0
  1  2  1  0  0  0  0
  1  5  2  0  0  0  0
  2  6  2  0  0  0  0
  3  8  2  0  0  0  0
  3 17  1  0  0  0  0
  4  9  1  0  0  0  0
  4 17  2  0  0  0  0
  5 19  1  0  0  0  0
  6 21  1  0  0  0  0
  7 10  2  0  0  0  0
  7 20  1  0  0  0  0
  8 26  1  0  0  0  0
  9 26  2  0  0  0  0
 10 27  1  0  0  0  0
 11 12  2  0  0  0  0
 11 28  1  0  0  0  0
 12 29  1  0  0  0  0
 13 22  1  0  0  0  0
 13 27  2  0  0  0  0
 14 23  1  0  0  0  0
 14 24  2  0  0  0  0
 15 23  2  0  0  0  0
 15 25  1  0  0  0  0
 16 29  2  0  0  0  0
 16 30  1  0  0  0  0
 17 32  1  0  0  0  0
 18 32  1  0  0  0  0
 18 33  2  0  0  0  0
 18 34  1  0  0  0  0
 19 21  2  0  0  0  0
 19 39  1  0  0  0  0
 20 22  2  0  0  0  0
 20 40  1  0  0  0  0
 21 48  1  0  0  0  0
 22 41  1  0  0  0  0
 23 57  1  0  0  0  0
 24 31  1  0  0  0  0
 24 51  1  0  0  0  0
 25 31  2  0  0  0  0
 25 58  1  0  0  0  0
 26 82  1  0  0  0  0
 27 83  1  0  0  0  0
 28 30  2  0  0  0  0
 28 82  1  0  0  0  0
 29 84  1  0  0  0  0
 30 85  1  0  0  0  0
 31 86  1  0  0  0  0
 32 67  2  0  0  0  0
 33 68  1  0  0  0  0
 33 71  1  0  0  0  0
 34 72  1  0  0  0  0
 34 77  2  0  0  0  0
 35 49  1  0  0  0  0
 35 73  1  0  0  0  0
 35 78  2  0  0  0  0
 36 64  1  0  0  0  0
 36 69  1  0  0  0  0
 36 79  2  0  0  0  0
 37 65  1  0  0  0  0
 37 74  1  0  0  0  0
 37 80  2  0  0  0  0
 38 70  1  0  0  0  0
 38 75  1  0  0  0  0
 38 81  2  0  0  0  0
 39 42  1  0  0  0  0
 40 49  1  0  0  0  0
 41 69  1  0  0  0  0
 42 44  1  0  0  0  0
 43 45  1  0  0  0  0
 43 46  1  0  0  0  0
 44 48  1  0  0  0  0
 45 50  1  0  0  0  0
 46 70  1  0  0  0  0
 47 50  1  0  0  0  0
 47 70  1  0  0  0  0
 48 73  1  0  0  0  0
 49 69  1  0  0  0  0
 50 68  1  0  0  0  0
 52 65  1  0  0  0  0
 53 66  1  0  0  0  0
 54 66  1  0  0  0  0
 55 66  1  0  0  0  0
 56 76  1  0  0  0  0
 57 63  1  0  0  0  0
 58 59  1  0  0  0  0
 59 60  1  0  0  0  0
 60 61  1  0  0  0  0
 61 62  1  0  0  0  0
 62 75  1  0  0  0  0
 63 83  1  0  0  0  0
 64 66  1  0  0  0  0
 64 74  1  0  0  0  0
 65 76  1  0  0  0  0
 67 68  1  0  0  0  0
M  CHG  1  76   1
M  ISO  4  38 100  63 101  75 100  83 101
M  END
> <Batch ID>
0033

> <Smiles>
CNC(C)C(=O)NC(C(=O)N1Cc2cc([101O:1][101CH2:1]Cc3cc(C)c(Cl)c(CCCCC[100NH:0][100C:0](=O)N4CCCC(n5nc(-c6ccc(Oc7ccc(F)cc7F)cc6)c(C(N)=O)c5N)C4)c3)ccc2CC1C(=O)NC1CCCc2ccccc21)C(C)(C)C

> <Shape>
0.239

> <Color>
0.086

> <Negative vol penalty>
0.000

$$$$

  -OEChem-04052316482D

  0  0  0     0  0  0  0  0  0999 V2000
M  END
$$$$

  -OEChem-04052316483D

 85 93  0     1  0  0  0  0  0999 V2000
  -16.7497  -29.3997   24.2989 C   0  0  0  0  0  0  0  0  0  0  0  0
  -17.8921  -29.8619   24.9445 C   0  0  0  0  0  0  0  0  0  0  0  0
  -26.2197  -17.6291   21.7298 C   0  0  0  0  0  0  0  0  0  0  0  0
  -28.4864  -17.7009   20.8968 C   0  0  0  0  0  0  0  0  0  0  0  0
  -16.8663  -28.5282   23.2169 C   0  0  0  0  0  0  0  0  0  0  0  0
  -19.1518  -29.4520   24.5090 C   0  0  0  0  0  0  0  0  0  0  0  0
  -25.8959  -31.7974   23.9328 C   0  0  0  0  0  0  0  0  0  0  0  0
  -26.0038  -16.4363   21.0397 C   0  0  0  0  0  0  0  0  0  0  0  0
  -28.2706  -16.5080   20.2068 C   0  0  0  0  0  0  0  0  0  0  0  0
  -27.1973  -31.4277   24.2697 C   0  0  0  0  0  0  0  0  0  0  0  0
  -28.1612  -13.2059   20.9174 C   0  0  0  0  0  0  0  0  0  0  0  0
  -29.1512  -12.2264   20.9941 C   0  0  0  0  0  0  0  0  0  0  0  0
  -27.2799  -29.9823   22.3402 C   0  0  0  0  0  0  0  0  0  0  0  0
  -31.7657  -27.8023   20.7101 C   0  0  0  0  0  0  0  0  0  0  0  0
  -33.4722  -27.5253   22.3977 C   0  0  0  0  0  0  0  0  0  0  0  0
  -32.7447  -25.6268   21.0925 C   0  0  0  0  0  0  0  0  0  0  0  0
  -29.4221  -12.3122   18.5949 C   0  0  0  0  0  0  0  0  0  0  0  0
  -27.4610  -18.2614   21.6583 C   0  0  0  0  0  0  0  0  0  0  0  0
  -28.1634  -19.6407   23.6860 C   0  0  0  0  0  0  0  0  0  0  0  0
  -18.1284  -28.1150   22.7618 C   0  0  0  0  0  0  0  0  0  0  0  0
  -25.2718  -31.2530   22.8011 C   0  0  0  0  0  0  0  0  0  0  0  0
  -19.2853  -28.5731   23.4207 C   0  0  0  0  0  0  0  0  0  0  0  0
  -25.9715  -30.3486   21.9896 C   0  0  0  0  0  0  0  0  0  0  0  0
  -32.5770  -28.3428   21.7077 C   0  0  0  0  0  0  0  0  0  0  0  0
  -31.8495  -26.4443   20.4025 C   0  0  0  0  0  0  0  0  0  0  0  0
  -33.5560  -26.1673   22.0901 C   0  0  0  0  0  0  0  0  0  0  0  0
  -27.0293  -15.8757   20.2782 C   0  0  0  0  0  0  0  0  0  0  0  0
  -27.8885  -30.5179   23.4750 C   0  0  0  0  0  0  0  0  0  0  0  0
  -27.8016  -13.7386   19.6794 C   0  0  0  0  0  0  0  0  0  0  0  0
  -29.7817  -11.7795   19.8329 C   0  0  0  0  0  0  0  0  0  0  0  0
  -28.4321  -13.2918   18.5182 C   0  0  0  0  0  0  0  0  0  0  0  0
  -27.6844  -19.4939   22.3704 C   0  0  0  0  0  0  0  0  0  0  0  0
  -28.1962  -20.9986   23.8899 C   0  0  0  0  0  0  0  0  0  0  0  0
  -28.5446  -18.6393   24.6386 C   0  0  0  0  0  0  0  0  0  0  0  0
  -22.6946  -29.4597   22.3056 C   0  0  0  0  0  0  0  0  0  0  0  0
  -23.3933  -30.0060   19.1854 C   0  0  0  0  0  0  0  0  0  0  0  0
  -25.7392  -30.8018   16.8380 C   0  0  0  0  0  0  0  0  0  0  0  0
  -28.6543  -25.6701   20.1726 C   0  0  0  0  0  0  0  0  0  0  0  0
  -18.2025  -27.1347   21.6181 C   0  0  0  0  0  0  0  0  0  0  0  0
  -23.8772  -31.6824   22.4363 C   0  0  0  0  0  0  0  0  0  0  0  0
  -25.3537  -29.7509   20.7529 C   0  0  0  0  0  0  0  0  0  0  0  0
  -19.5874  -27.0438   20.9825 C   0  0  0  0  0  0  0  0  0  0  0  0
  -26.0456  -25.0448   22.5136 C   0  0  0  0  0  0  0  0  0  0  0  0
  -20.6624  -26.9315   22.0588 C   0  0  0  0  0  0  0  0  0  0  0  0
  -26.2130  -23.5645   22.8611 C   0  0  0  0  0  0  0  0  0  0  0  0
  -26.3626  -25.3191   21.0452 C   0  0  0  0  0  0  0  0  0  0  0  0
  -27.8491  -23.3561   20.9432 C   0  0  0  0  0  0  0  0  0  0  0  0
  -20.6702  -28.1707   22.9621 C   0  0  1  0  0  0  0  0  0  0  0  0
  -23.1543  -30.6737   21.5489 C   0  0  1  0  0  0  0  0  0  0  0  0
  -27.5946  -23.0394   22.4268 C   0  0  2  0  0  0  0  0  0  0  0  0
  -26.0187  -31.1362   14.3667 C   0  0  0  0  0  0  0  0  0  0  0  0
  -23.3317  -26.9835   18.7720 C   0  0  0  0  0  0  0  0  0  0  0  0
  -24.5228  -27.3268   16.5967 C   0  0  0  0  0  0  0  0  0  0  0  0
  -22.2560  -28.3086   16.9440 C   0  0  0  0  0  0  0  0  0  0  0  0
  -26.5679  -33.6204   17.1957 C   0  0  0  0  0  0  0  0  0  0  0  0
  -32.4862  -29.8108   22.0394 C   0  0  0  0  0  0  0  0  0  0  0  0
  -30.9825  -25.8658   19.3356 C   0  0  0  0  0  0  0  0  0  0  0  0
  -31.4613  -30.1339   23.1288 C   0  0  0  0  0  0  0  0  0  0  0  0
  -30.0291  -29.7991   22.7287 C   0  0  0  0  0  0  0  0  0  1  0  0
  -24.2404  -29.3169   18.1430 C   0  0  1  0  0  0  0  0  0  0  0  0
  -25.7250  -31.8063   15.6999 C   0  0  2  0  0  0  0  0  0  0  0  0
  -34.5134  -25.2936   22.8282 C   0  0  0  0  0  0  0  0  0  0  0  0
  -23.5989  -27.9936   17.6382 C   0  0  0  0  0  0  0  0  0  0  0  0
  -27.4310  -20.6650   21.7803 N   0  0  0  0  0  0  0  0  0  0  0  0
  -27.7519  -21.5607   22.7294 N   0  0  0  0  0  0  0  0  0  0  0  0
  -23.9857  -30.1972   20.4417 N   0  0  0  0  0  0  0  0  0  0  0  0
  -27.6869  -24.7978   20.6983 N   0  0  0  0  0  0  0  0  0  0  0  0
  -28.5615  -21.7547   24.9470 N   0  0  0  0  0  0  0  0  0  0  0  0
  -28.4494  -17.2916   24.2655 N   0  0  0  0  0  0  0  0  0  0  0  0
  -21.3249  -29.2768   22.2971 N   0  0  0  0  0  0  0  0  0  0  0  0
  -24.4797  -30.3028   17.0946 N   0  0  0  0  0  0  0  0  0  0  0  0
  -29.8846  -25.0960   19.8768 N   0  0  0  0  0  0  0  0  0  0  0  0
  -26.7492  -32.8642   15.9299 N   0  3  0  0  0  0  0  0  0  0  0  0
  -28.9420  -18.9303   25.7922 O   0  0  0  0  0  0  0  0  0  0  0  0
  -23.5214  -28.7412   22.8550 O   0  0  0  0  0  0  0  0  0  0  0  0
  -22.2507  -30.3678   18.8934 O   0  0  0  0  0  0  0  0  0  0  0  0
  -26.7656  -30.4883   17.4370 O   0  0  0  0  0  0  0  0  0  0  0  0
  -28.4393  -26.8725   19.9859 O   0  0  0  0  0  0  0  0  0  0  0  0
  -26.8191  -14.7116   19.6049 O   0  0  0  0  0  0  0  0  0  0  0  0
  -29.1586  -30.1549   23.8020 O   0  0  0  0  0  0  0  0  0  1  0  0
  -30.7335  -10.8399   19.9069 F   0  0  0  0  0  0  0  0  0  0  0  0
  -28.0917  -13.8006   17.3261 F   0  0  0  0  0  0  0  0  0  0  0  0
  -35.2413  -25.9566   23.7750 F   0  0  0  0  0  0  0  0  0  0  0  0
  -33.9115  -24.2659   23.4969 F   0  0  0  0  0  0  0  0  0  0  0  0
  -35.4309  -24.7074   22.0051 F   0  0  0  0  0  0  0  0  0  0  0  0
  1  2  1  0  0  0  0
  1  5  2  0  0  0  0
  2  6  2  0  0  0  0
  3  8  2  0  0  0  0
  3 18  1  0  0  0  0
  4  9  1  0  0  0  0
  4 18  2  0  0  0  0
  5 20  1  0  0  0  0
  6 22  1  0  0  0  0
  7 10  2  0  0  0  0
  7 21  1  0  0  0  0
  8 27  1  0  0  0  0
  9 27  2  0  0  0  0
 10 28  1  0  0  0  0
 11 12  2  0  0  0  0
 11 29  1  0  0  0  0
 12 30  1  0  0  0  0
 13 23  1  0  0  0  0
 13 28  2  0  0  0  0
 14 24  1  0  0  0  0
 14 25  2  0  0  0  0
 15 24  2  0  0  0  0
 15 26  1  0  0  0  0
 16 25  1  0  0  0  0
 16 26  2  0  0  0  0
 17 30  2  0  0  0  0
 17 31  1  0  0  0  0
 18 32  1  0  0  0  0
 19 32  1  0  0  0  0
 19 33  2  0  0  0  0
 19 34  1  0  0  0  0
 20 22  2  0  0  0  0
 20 39  1  0  0  0  0
 21 23  2  0  0  0  0
 21 40  1  0  0  0  0
 22 48  1  0  0  0  0
 23 41  1  0  0  0  0
 24 56  1  0  0  0  0
 25 57  1  0  0  0  0
 26 62  1  0  0  0  0
 27 79  1  0  0  0  0
 28 80  1  0  0  0  0
 29 31  2  0  0  0  0
 29 79  1  0  0  0  0
 30 81  1  0  0  0  0
 31 82  1  0  0  0  0
 32 64  2  0  0  0  0
 33 65  1  0  0  0  0
 33 68  1  0  0  0  0
 34 69  1  0  0  0  0
 34 74  2  0  0  0  0
 35 49  1  0  0  0  0
 35 70  1  0  0  0  0
 35 75  2  0  0  0  0
 36 60  1  0  0  0  0
 36 66  1  0  0  0  0
 36 76  2  0  0  0  0
 37 61  1  0  0  0  0
 37 71  1  0  0  0  0
 37 77  2  0  0  0  0
 38 67  1  0  0  0  0
 38 72  1  0  0  0  0
 38 78  2  0  0  0  0
 39 42  1  0  0  0  0
 40 49  1  0  0  0  0
 41 66  1  0  0  0  0
 42 44  1  0  0  0  0
 43 45  1  0  0  0  0
 43 46  1  0  0  0  0
 44 48  1  0  0  0  0
 45 50  1  0  0  0  0
 46 67  1  0  0  0  0
 47 50  1  0  0  0  0
 47 67  1  0  0  0  0
 48 70  1  0  0  0  0
 49 66  1  0  0  0  0
 50 65  1  0  0  0  0
 51 61  1  0  0  0  0
 52 63  1  0  0  0  0
 53 63  1  0  0  0  0
 54 63  1  0  0  0  0
 55 73  1  0  0  0  0
 56 58  1  0  0  0  0
 57 72  1  0  0  0  0
 58 59  1  0  0  0  0
 59 80  1  0  0  0  0
 60 63  1  0  0  0  0
 60 71  1  0  0  0  0
 61 73  1  0  0  0  0
 62 83  1  0  0  0  0
 62 84  1  0  0  0  0
 62 85  1  0  0  0  0
 64 65  1  0  0  0  0
M  CHG  1  73   1
M  ISO  4  38 100  59 101  72 100  80 101
M  END
> <Batch ID>
0033

> <Smiles>
CNC(C)C(=O)NC(C(=O)N1Cc2cc([101O:1][101CH2:1]CCc3cc(C[100NH:0][100C:0](=O)N4CCCC(n5nc(-c6ccc(Oc7ccc(F)cc7F)cc6)c(C(N)=O)c5N)C4)cc(C(F)(F)F)c3)ccc2CC1C(=O)NC1CCCc2ccccc21)C(C)(C)C

> <Shape>
0.253

> <Color>
0.121

> <Negative vol penalty>
0.000

$$$$

  -OEChem-04052316483D

 78 86  0     1  0  0  0  0  0999 V2000
  -20.4193  -21.3276   15.5687 C   0  0  0  0  0  0  0  0  0  0  0  0
  -21.5899  -21.7589   16.1843 C   0  0  0  0  0  0  0  0  0  0  0  0
  -23.4001  -28.2800   23.0776 C   0  0  0  0  0  0  0  0  0  0  0  0
  -22.4323  -29.8727   21.5401 C   0  0  0  0  0  0  0  0  0  0  0  0
  -19.7494  -20.2059   16.0555 C   0  0  0  0  0  0  0  0  0  0  0  0
  -22.0908  -21.0693   17.2879 C   0  0  0  0  0  0  0  0  0  0  0  0
  -27.0911  -20.3196   17.0044 C   0  0  0  0  0  0  0  0  0  0  0  0
  -22.3677  -28.5264   23.9826 C   0  0  0  0  0  0  0  0  0  0  0  0
  -21.3999  -30.1191   22.4451 C   0  0  0  0  0  0  0  0  0  0  0  0
  -27.9155  -21.4003   17.3146 C   0  0  0  0  0  0  0  0  0  0  0  0
  -18.5252  -28.6263   23.4085 C   0  0  0  0  0  0  0  0  0  0  0  0
  -17.2245  -28.6769   22.9074 C   0  0  0  0  0  0  0  0  0  0  0  0
  -28.2763  -20.4851   19.5172 C   0  0  0  0  0  0  0  0  0  0  0  0
  -17.0096  -30.9508   23.6949 C   0  0  0  0  0  0  0  0  0  0  0  0
  -23.4324  -28.9532   21.8563 C   0  0  0  0  0  0  0  0  0  0  0  0
  -24.5225  -27.7296   19.9013 C   0  0  0  0  0  0  0  0  0  0  0  0
  -20.2477  -19.4965   17.1596 C   0  0  0  0  0  0  0  0  0  0  0  0
  -26.8439  -19.3175   17.9537 C   0  0  0  0  0  0  0  0  0  0  0  0
  -21.4263  -19.9378   17.7908 C   0  0  0  0  0  0  0  0  0  0  0  0
  -27.4504  -19.3914   19.2157 C   0  0  0  0  0  0  0  0  0  0  0  0
  -21.3676  -29.4459   23.6664 C   0  0  0  0  0  0  0  0  0  0  0  0
  -28.5060  -21.4846   18.5721 C   0  0  0  0  0  0  0  0  0  0  0  0
  -19.0681  -29.7379   24.0529 C   0  0  0  0  0  0  0  0  0  0  0  0
  -16.4667  -29.8392   23.0506 C   0  0  0  0  0  0  0  0  0  0  0  0
  -18.3103  -30.9002   24.1961 C   0  0  0  0  0  0  0  0  0  0  0  0
  -24.4989  -28.6996   20.9213 C   0  0  0  0  0  0  0  0  0  0  0  0
  -25.7462  -27.8936   19.2997 C   0  0  0  0  0  0  0  0  0  0  0  0
  -23.5271  -26.7664   19.5308 C   0  0  0  0  0  0  0  0  0  0  0  0
  -24.2547  -18.2223   19.4371 C   0  0  0  0  0  0  0  0  0  0  0  0
  -26.3240  -15.9986   20.5752 C   0  0  0  0  0  0  0  0  0  0  0  0
  -29.5451  -15.1493   21.3167 C   0  0  0  0  0  0  0  0  0  0  0  0
  -31.1578  -28.7210   19.4426 C   0  0  0  0  0  0  0  0  0  0  0  0
  -19.4633  -18.3177   17.6791 C   0  0  0  0  0  0  0  0  0  0  0  0
  -25.9736  -18.1445   17.5944 C   0  0  0  0  0  0  0  0  0  0  0  0
  -27.2333  -18.3312   20.2632 C   0  0  0  0  0  0  0  0  0  0  0  0
  -20.2627  -17.4218   18.6218 C   0  0  0  0  0  0  0  0  0  0  0  0
  -29.1967  -31.5527   19.7683 C   0  0  0  0  0  0  0  0  0  0  0  0
  -21.0091  -18.2628   19.6525 C   0  0  0  0  0  0  0  0  0  0  0  0
  -27.7944  -30.9969   20.0150 C   0  0  0  0  0  0  0  0  0  0  0  0
  -30.6936  -25.6921   17.3634 C   0  0  0  0  0  0  0  0  0  0  0  0
  -29.8823  -25.2117   19.7073 C   0  0  0  0  0  0  0  0  0  0  0  0
  -30.2443  -30.7495   20.5308 C   0  0  0  0  0  0  0  0  0  0  0  0
  -31.5581  -26.8217   17.9185 C   0  0  0  0  0  0  0  0  0  0  0  0
  -30.7662  -26.3492   20.2108 C   0  0  0  0  0  0  0  0  0  0  0  0
  -28.8347  -28.7187   20.4575 C   0  0  0  0  0  0  0  0  0  0  0  0
  -22.0146  -19.2016   18.9749 C   0  0  1  0  0  0  0  0  0  0  0  0
  -25.3796  -17.4456   18.8134 C   0  0  1  0  0  0  0  0  0  0  0  0
  -27.7345  -29.4912   19.7021 C   0  0  1  0  0  0  0  0  0  0  0  0
  -30.4335  -24.6077   18.4124 C   0  0  0  0  0  0  0  0  0  0  0  0
  -30.9194  -13.2787   22.2704 C   0  0  0  0  0  0  0  0  0  0  0  0
  -25.3836  -16.7415   23.3812 C   0  0  0  0  0  0  0  0  0  0  0  0
  -27.4045  -15.5771   24.2913 C   0  0  0  0  0  0  0  0  0  0  0  0
  -25.7005  -14.2899   23.0021 C   0  0  0  0  0  0  0  0  0  0  0  0
  -31.0816  -14.8430   18.8059 C   0  0  0  0  0  0  0  0  0  0  0  0
  -29.5108  -23.5230   17.8711 C   0  0  0  0  0  0  0  0  0  1  0  0
  -27.2253  -15.8954   21.7818 C   0  0  1  0  0  0  0  0  0  0  0  0
  -30.3561  -13.9047   21.0041 C   0  0  2  0  0  0  0  0  0  0  0  0
  -26.4312  -15.6471   23.0953 C   0  0  0  0  0  0  0  0  0  0  0  0
  -25.6189  -29.4260   20.9680 N   0  0  0  0  0  0  0  0  0  0  0  0
  -26.3576  -28.9120   19.9700 N   0  0  0  0  0  0  0  0  0  0  0  0
  -26.3691  -17.2074   19.8662 N   0  0  0  0  0  0  0  0  0  0  0  0
  -30.1517  -29.3249   20.2118 N   0  0  0  0  0  0  0  0  0  0  0  0
  -31.0091  -27.3519   19.1654 N   0  0  0  0  0  0  0  0  0  0  0  0
  -26.3483  -27.2646   18.2680 N   0  0  0  0  0  0  0  0  0  0  0  0
  -22.3269  -26.7340   20.2538 N   0  0  0  0  0  0  0  0  0  0  0  0
  -23.2002  -18.4719   18.5796 N   0  0  0  0  0  0  0  0  0  0  0  0
  -28.2058  -14.8605   21.4716 N   0  0  0  0  0  0  0  0  0  0  0  0
  -31.4925  -14.2404   20.1002 N   0  3  0  0  0  0  0  0  0  0  0  0
  -23.7037  -25.9476   18.5971 O   0  0  0  0  0  0  0  0  0  0  0  0
  -24.3367  -18.5682   20.6098 O   0  0  0  0  0  0  0  0  0  0  0  0
  -25.6116  -15.0393   20.2687 O   0  0  0  0  0  0  0  0  0  0  0  0
  -30.0499  -16.2654   21.4174 O   0  0  0  0  0  0  0  0  0  0  0  0
  -32.1282  -29.3641   19.0235 O   0  0  0  0  0  0  0  0  0  0  0  0
  -20.3599  -29.6863   24.5492 O   0  0  0  0  0  0  0  0  0  0  0  0
  -29.3177  -22.5480   18.8804 O   0  0  0  0  0  0  0  0  0  1  0  0
  -15.2181  -29.8881   22.5679 F   0  0  0  0  0  0  0  0  0  0  0  0
  -18.8269  -31.9717   24.8132 F   0  0  0  0  0  0  0  0  0  0  0  0
  -31.6298  -24.0134   18.7041 F   0  0  0  0  0  0  0  0  0  0  0  0
  1  2  1  0  0  0  0
  1  5  2  0  0  0  0
  2  6  2  0  0  0  0
  3  8  2  0  0  0  0
  3 15  1  0  0  0  0
  4  9  1  0  0  0  0
  4 15  2  0  0  0  0
  5 17  1  0  0  0  0
  6 19  1  0  0  0  0
  7 10  2  0  0  0  0
  7 18  1  0  0  0  0
  8 21  1  0  0  0  0
  9 21  2  0  0  0  0
 10 22  1  0  0  0  0
 11 12  2  0  0  0  0
 11 23  1  0  0  0  0
 12 24  1  0  0  0  0
 13 20  1  0  0  0  0
 13 22  2  0  0  0  0
 14 24  2  0  0  0  0
 14 25  1  0  0  0  0
 15 26  1  0  0  0  0
 16 26  1  0  0  0  0
 16 27  2  0  0  0  0
 16 28  1  0  0  0  0
 17 19  2  0  0  0  0
 17 33  1  0  0  0  0
 18 20  2  0  0  0  0
 18 34  1  0  0  0  0
 19 46  1  0  0  0  0
 20 35  1  0  0  0  0
 21 74  1  0  0  0  0
 22 75  1  0  0  0  0
 23 25  2  0  0  0  0
 23 74  1  0  0  0  0
 24 76  1  0  0  0  0
 25 77  1  0  0  0  0
 26 59  2  0  0  0  0
 27 60  1  0  0  0  0
 27 64  1  0  0  0  0
 28 65  1  0  0  0  0
 28 69  2  0  0  0  0
 29 47  1  0  0  0  0
 29 66  1  0  0  0  0
 29 70  2  0  0  0  0
 30 56  1  0  0  0  0
 30 61  1  0  0  0  0
 30 71  2  0  0  0  0
 31 57  1  0  0  0  0
 31 67  1  0  0  0  0
 31 72  2  0  0  0  0
 32 62  1  0  0  0  0
 32 63  1  0  0  0  0
 32 73  2  0  0  0  0
 33 36  1  0  0  0  0
 34 47  1  0  0  0  0
 35 61  1  0  0  0  0
 36 38  1  0  0  0  0
 37 39  1  0  0  0  0
 37 42  1  0  0  0  0
 38 46  1  0  0  0  0
 39 48  1  0  0  0  0
 40 43  1  0  0  0  0
 40 49  1  0  0  0  0
 41 44  1  0  0  0  0
 41 49  1  0  0  0  0
 42 62  1  0  0  0  0
 43 63  1  0  0  0  0
 44 63  1  0  0  0  0
 45 48  1  0  0  0  0
 45 62  1  0  0  0  0
 46 66  1  0  0  0  0
 47 61  1  0  0  0  0
 48 60  1  0  0  0  0
 49 55  1  0  0  0  0
 49 78  1  0  0  0  0
 50 57  1  0  0  0  0
 51 58  1  0  0  0  0
 52 58  1  0  0  0  0
 53 58  1  0  0  0  0
 54 68  1  0  0  0  0
 55 75  1  0  0  0  0
 56 58  1  0  0  0  0
 56 67  1  0  0  0  0
 57 68  1  0  0  0  0
 59 60  1  0  0  0  0
M  CHG  1  68   1
M  ISO  4  32 100  55 101  63 100  75 101
M  END
> <Batch ID>
0033

> <Smiles>
CNC(C)C(=O)NC(C(=O)N1Cc2cc([101O:1][101CH2:1]C3(F)CC[100N:0]([100C:0](=O)N4CCCC(n5nc(-c6ccc(Oc7ccc(F)cc7F)cc6)c(C(N)=O)c5N)C4)CC3)ccc2CC1C(=O)NC1CCCc2ccccc21)C(C)(C)C

> <Shape>
0.223

> <Color>
0.062

> <Negative vol penalty>
0.000

$$$$

  -OEChem-04052316483D

 84 92  0     1  0  0  0  0  0999 V2000
  -27.8909  -37.7069   21.4482 C   0  0  0  0  0  0  0  0  0  0  0  0
  -28.2315  -36.3956   21.7645 C   0  0  0  0  0  0  0  0  0  0  0  0
  -23.6027   -9.5176   19.7710 C   0  0  0  0  0  0  0  0  0  0  0  0
  -24.4698   -9.4079   22.0233 C   0  0  0  0  0  0  0  0  0  0  0  0
  -26.5895  -38.1589   21.6624 C   0  0  0  0  0  0  0  0  0  0  0  0
  -27.2711  -35.5359   22.2963 C   0  0  0  0  0  0  0  0  0  0  0  0
  -27.3583  -30.9543   20.1409 C   0  0  0  0  0  0  0  0  0  0  0  0
  -23.1192   -8.2150   19.8936 C   0  0  0  0  0  0  0  0  0  0  0  0
  -23.9862   -8.1053   22.1460 C   0  0  0  0  0  0  0  0  0  0  0  0
  -28.3608  -30.0765   20.5513 C   0  0  0  0  0  0  0  0  0  0  0  0
  -22.6646   -4.8802   23.1805 C   0  0  0  0  0  0  0  0  0  0  0  0
  -21.9974   -4.5435   24.3582 C   0  0  0  0  0  0  0  0  0  0  0  0
  -26.7836  -28.9600   21.9953 C   0  0  0  0  0  0  0  0  0  0  0  0
  -20.3526   -6.2571   23.9161 C   0  0  0  0  0  0  0  0  0  0  0  0
  -24.2780  -10.1141   20.8358 C   0  0  0  0  0  0  0  0  0  0  0  0
  -24.1009  -12.6516   21.0286 C   0  0  0  0  0  0  0  0  0  0  0  0
  -25.6101  -37.3015   22.1881 C   0  0  0  0  0  0  0  0  0  0  0  0
  -26.0615  -30.8481   20.6637 C   0  0  0  0  0  0  0  0  0  0  0  0
  -25.9556  -35.9773   22.5190 C   0  0  0  0  0  0  0  0  0  0  0  0
  -25.7659  -29.8360   21.5879 C   0  0  0  0  0  0  0  0  0  0  0  0
  -30.3321  -18.8127   21.9427 C   0  0  0  0  0  0  0  0  0  0  0  0
  -31.1078  -19.7056   22.7371 C   0  0  0  0  0  0  0  0  0  0  0  0
  -23.3109   -7.5089   21.0811 C   0  0  0  0  0  0  0  0  0  0  0  0
  -28.0742  -29.0810   21.4808 C   0  0  0  0  0  0  0  0  0  0  0  0
  -22.1759   -5.9053   22.3706 C   0  0  0  0  0  0  0  0  0  0  0  0
  -20.8414   -5.2319   24.7260 C   0  0  0  0  0  0  0  0  0  0  0  0
  -21.0199   -6.5937   22.7384 C   0  0  0  0  0  0  0  0  0  0  0  0
  -24.7782  -11.4594   20.7095 C   0  0  0  0  0  0  0  0  0  0  0  0
  -30.1770  -17.5844   22.5465 C   0  0  0  0  0  0  0  0  0  0  0  0
  -31.5159  -19.1256   23.9182 C   0  0  0  0  0  0  0  0  0  0  0  0
  -24.9997  -13.6470   20.7320 C   0  0  0  0  0  0  0  0  0  0  0  0
  -22.7778  -12.8423   21.5468 C   0  0  0  0  0  0  0  0  0  0  0  0
  -24.1707  -32.7452   22.3754 C   0  0  0  0  0  0  0  0  0  0  0  0
  -30.2098  -15.6681   20.9753 C   0  0  0  0  0  0  0  0  0  0  0  0
  -21.9919  -30.4011   21.8456 C   0  0  0  0  0  0  0  0  0  0  0  0
  -21.3821  -27.1229   21.1188 C   0  0  0  0  0  0  0  0  0  0  0  0
  -24.2288  -37.8490   22.4462 C   0  0  0  0  0  0  0  0  0  0  0  0
  -24.9848  -31.7859   20.1906 C   0  0  0  0  0  0  0  0  0  0  0  0
  -24.3846  -29.6669   22.1641 C   0  0  0  0  0  0  0  0  0  0  0  0
  -23.1750  -36.7661   22.6633 C   0  0  0  0  0  0  0  0  0  0  0  0
  -29.3936  -13.4940   18.2464 C   0  0  0  0  0  0  0  0  0  0  0  0
  -23.6901  -35.7067   23.6325 C   0  0  0  0  0  0  0  0  0  0  0  0
  -28.0804  -12.8464   18.6837 C   0  0  0  0  0  0  0  0  0  0  0  0
  -30.3190  -13.7372   19.4344 C   0  0  0  0  0  0  0  0  0  0  0  0
  -28.3865  -13.8942   20.9714 C   0  0  0  0  0  0  0  0  0  0  0  0
  -24.9355  -35.0073   23.0745 C   0  0  1  0  0  0  0  0  0  0  0  0
  -23.8258  -31.9100   21.1749 C   0  0  1  0  0  0  0  0  0  0  0  0
  -27.4099  -13.6592   19.8054 C   0  0  2  0  0  0  0  0  0  0  0  0
  -29.7570  -19.1632   20.6201 C   0  0  0  0  0  0  0  0  0  0  0  0
  -32.3294  -19.7098   25.0085 C   0  0  0  0  0  0  0  0  0  0  0  0
  -19.5008  -25.4953   20.7890 C   0  0  0  0  0  0  0  0  0  0  0  0
  -21.5584  -30.2944   24.8640 C   0  0  0  0  0  0  0  0  0  0  0  0
  -20.4340  -28.0791   24.5540 C   0  0  0  0  0  0  0  0  0  0  0  0
  -19.4671  -30.1244   23.5030 C   0  0  0  0  0  0  0  0  0  0  0  0
  -22.1963  -26.5690   18.3279 C   0  0  0  0  0  0  0  0  0  0  0  0
  -31.4425  -21.1199   22.3351 C   0  0  0  0  0  0  0  0  0  0  0  0
  -29.4481  -16.3928   22.0563 C   0  0  0  0  0  0  0  0  0  0  0  0
  -30.2954  -22.1135   22.5518 C   0  0  0  0  0  0  0  0  0  0  0  0
  -30.6508  -23.5420   22.1246 C   0  0  0  0  0  0  0  0  0  0  0  0
  -29.4671  -24.4907   22.3312 C   0  0  0  0  0  0  0  0  0  0  0  0
  -29.7897  -25.9446   21.9850 C   0  0  0  0  0  0  0  0  0  0  0  0
  -28.6451  -26.9093   22.2643 C   0  0  0  0  0  0  0  0  0  1  0  0
  -21.5921  -29.1321   22.5588 C   0  0  1  0  0  0  0  0  0  0  0  0
  -20.4515  -26.4705   20.1124 C   0  0  2  0  0  0  0  0  0  0  0  0
  -20.7895  -29.4117   23.8607 C   0  0  0  0  0  0  0  0  0  0  0  0
  -26.0120  -11.6756   20.2457 N   0  0  0  0  0  0  0  0  0  0  0  0
  -26.1170  -13.0151   20.2710 N   0  0  0  0  0  0  0  0  0  0  0  0
  -23.3675  -30.6123   21.6750 N   0  0  0  0  0  0  0  0  0  0  0  0
  -29.6382  -14.4928   20.4874 N   0  0  0  0  0  0  0  0  0  0  0  0
  -24.9353  -14.9923   20.8231 N   0  0  0  0  0  0  0  0  0  0  0  0
  -21.9880  -11.7113   21.7949 N   0  0  0  0  0  0  0  0  0  0  0  0
  -24.5616  -34.0349   22.0699 N   0  0  0  0  0  0  0  0  0  0  0  0
  -20.8778  -28.3209   21.5790 N   0  0  0  0  0  0  0  0  0  0  0  0
  -21.2367  -25.7267   19.0872 N   0  3  0  0  0  0  0  0  0  0  0  0
  -22.3037  -13.9825   21.7673 O   0  0  0  0  0  0  0  0  0  0  0  0
  -24.0869  -32.2562   23.4959 O   0  0  0  0  0  0  0  0  0  0  0  0
  -31.2793  -16.1357   20.5756 O   0  0  0  0  0  0  0  0  0  0  0  0
  -21.1158  -31.1731   21.4480 O   0  0  0  0  0  0  0  0  0  0  0  0
  -22.4480  -26.6183   21.4651 O   0  0  0  0  0  0  0  0  0  0  0  0
  -22.8391   -6.2379   21.2012 O   0  0  0  0  0  0  0  0  0  0  0  0
  -29.0510  -28.2234   21.8836 O   0  0  0  0  0  0  0  0  0  1  0  0
  -20.1998   -4.9075   25.8562 F   0  0  0  0  0  0  0  0  0  0  0  0
  -20.5449   -7.5787   21.9638 F   0  0  0  0  0  0  0  0  0  0  0  0
  -30.9647  -17.5111   24.0653 S   0  0  0  0  0  0  0  0  0  0  0  0
  1  2  1  0  0  0  0
  1  5  2  0  0  0  0
  2  6  2  0  0  0  0
  3  8  2  0  0  0  0
  3 15  1  0  0  0  0
  4  9  1  0  0  0  0
  4 15  2  0  0  0  0
  5 17  1  0  0  0  0
  6 19  1  0  0  0  0
  7 10  2  0  0  0  0
  7 18  1  0  0  0  0
  8 23  1  0  0  0  0
  9 23  2  0  0  0  0
 10 24  1  0  0  0  0
 11 12  2  0  0  0  0
 11 25  1  0  0  0  0
 12 26  1  0  0  0  0
 13 20  1  0  0  0  0
 13 24  2  0  0  0  0
 14 26  2  0  0  0  0
 14 27  1  0  0  0  0
 15 28  1  0  0  0  0
 16 28  1  0  0  0  0
 16 31  2  0  0  0  0
 16 32  1  0  0  0  0
 17 19  2  0  0  0  0
 17 37  1  0  0  0  0
 18 20  2  0  0  0  0
 18 38  1  0  0  0  0
 19 46  1  0  0  0  0
 20 39  1  0  0  0  0
 21 22  1  0  0  0  0
 21 29  2  0  0  0  0
 21 49  1  0  0  0  0
 22 30  2  0  0  0  0
 22 56  1  0  0  0  0
 23 80  1  0  0  0  0
 24 81  1  0  0  0  0
 25 27  2  0  0  0  0
 25 80  1  0  0  0  0
 26 82  1  0  0  0  0
 27 83  1  0  0  0  0
 28 66  2  0  0  0  0
 29 57  1  0  0  0  0
 29 84  1  0  0  0  0
 30 50  1  0  0  0  0
 30 84  1  0  0  0  0
 31 67  1  0  0  0  0
 31 70  1  0  0  0  0
 32 71  1  0  0  0  0
 32 75  2  0  0  0  0
 33 47  1  0  0  0  0
 33 72  1  0  0  0  0
 33 76  2  0  0  0  0
 34 57  1  0  0  0  0
 34 69  1  0  0  0  0
 34 77  2  0  0  0  0
 35 63  1  0  0  0  0
 35 68  1  0  0  0  0
 35 78  2  0  0  0  0
 36 64  1  0  0  0  0
 36 73  1  0  0  0  0
 36 79  2  0  0  0  0
 37 40  1  0  0  0  0
 38 47  1  0  0  0  0
 39 68  1  0  0  0  0
 40 42  1  0  0  0  0
 41 43  1  0  0  0  0
 41 44  1  0  0  0  0
 42 46  1  0  0  0  0
 43 48  1  0  0  0  0
 44 69  1  0  0  0  0
 45 48  1  0  0  0  0
 45 69  1  0  0  0  0
 46 72  1  0  0  0  0
 47 68  1  0  0  0  0
 48 67  1  0  0  0  0
 51 64  1  0  0  0  0
 52 65  1  0  0  0  0
 53 65  1  0  0  0  0
 54 65  1  0  0  0  0
 55 74  1  0  0  0  0
 56 58  1  0  0  0  0
 58 59  1  0  0  0  0
 59 60  1  0  0  0  0
 60 61  1  0  0  0  0
 61 62  1  0  0  0  0
 62 81  1  0  0  0  0
 63 65  1  0  0  0  0
 63 73  1  0  0  0  0
 64 74  1  0  0  0  0
 66 67  1  0  0  0  0
M  CHG  1  74   1
M  ISO  4  34 100  57 100  62 101  81 101
M  END
> <Batch ID>
0033

> <Smiles>
CNC(C)C(=O)NC(C(=O)N1Cc2cc([101O:1][101CH2:1]CCCCCc3c(C)sc([100CH2:0][100C:0](=O)N4CCCC(n5nc(-c6ccc(Oc7ccc(F)cc7F)cc6)c(C(N)=O)c5N)C4)c3C)ccc2CC1C(=O)NC1CCCc2ccccc21)C(C)(C)C

> <Shape>
0.347

> <Color>
0.153

> <Negative vol penalty>
0.000

$$$$

  -OEChem-04052316483D

 84 92  0     1  0  0  0  0  0999 V2000
  -28.0436  -18.8531   18.3736 C   0  0  0  0  0  0  0  0  0  0  0  0
  -27.2455  -19.9083   17.9434 C   0  0  0  0  0  0  0  0  0  0  0  0
  -24.6156  -14.7784   22.6680 C   0  0  0  0  0  0  0  0  0  0  0  0
  -26.1877  -16.0470   21.3428 C   0  0  0  0  0  0  0  0  0  0  0  0
  -28.5603  -18.8542   19.6685 C   0  0  0  0  0  0  0  0  0  0  0  0
  -26.9628  -20.9648   18.8084 C   0  0  0  0  0  0  0  0  0  0  0  0
  -25.7649  -28.0275   18.7904 C   0  0  0  0  0  0  0  0  0  0  0  0
  -24.9456  -13.6254   21.9558 C   0  0  0  0  0  0  0  0  0  0  0  0
  -26.5178  -14.8940   20.6306 C   0  0  0  0  0  0  0  0  0  0  0  0
  -24.8368  -28.9637   19.2442 C   0  0  0  0  0  0  0  0  0  0  0  0
  -28.4344  -12.1485   21.0886 C   0  0  0  0  0  0  0  0  0  0  0  0
  -29.7866  -11.8956   20.8586 C   0  0  0  0  0  0  0  0  0  0  0  0
  -25.8491  -28.8973   21.4328 C   0  0  0  0  0  0  0  0  0  0  0  0
  -18.4366  -28.3240   22.2122 C   0  0  0  0  0  0  0  0  0  0  0  0
  -20.7298  -27.6390   21.8824 C   0  0  0  0  0  0  0  0  0  0  0  0
  -29.3930  -11.9583   18.4757 C   0  0  0  0  0  0  0  0  0  0  0  0
  -25.2366  -15.9893   22.3614 C   0  0  0  0  0  0  0  0  0  0  0  0
  -25.5039  -17.6569   24.2733 C   0  0  0  0  0  0  0  0  0  0  0  0
  -28.2917  -19.9160   20.5467 C   0  0  0  0  0  0  0  0  0  0  0  0
  -26.7369  -27.5101   19.6587 C   0  0  0  0  0  0  0  0  0  0  0  0
  -27.4753  -20.9795   20.1168 C   0  0  0  0  0  0  0  0  0  0  0  0
  -26.7900  -27.9566   20.9869 C   0  0  0  0  0  0  0  0  0  0  0  0
  -19.6419  -28.4325   21.5185 C   0  0  0  0  0  0  0  0  0  0  0  0
  -18.3193  -27.4222   23.2698 C   0  0  0  0  0  0  0  0  0  0  0  0
  -20.6125  -26.7370   22.9400 C   0  0  0  0  0  0  0  0  0  0  0  0
  -25.8967  -13.6831   20.9372 C   0  0  0  0  0  0  0  0  0  0  0  0
  -24.8770  -29.3966   20.5663 C   0  0  0  0  0  0  0  0  0  0  0  0
  -27.5614  -12.3063   20.0122 C   0  0  0  0  0  0  0  0  0  0  0  0
  -30.2660  -11.8005   19.5521 C   0  0  0  0  0  0  0  0  0  0  0  0
  -28.0407  -12.2112   18.7057 C   0  0  0  0  0  0  0  0  0  0  0  0
  -19.4072  -26.6287   23.6337 C   0  0  0  0  0  0  0  0  0  0  0  0
  -24.8956  -17.1808   23.0964 C   0  0  0  0  0  0  0  0  0  0  0  0
  -24.8222  -18.8121   24.5690 C   0  0  0  0  0  0  0  0  0  0  0  0
  -26.5882  -17.1044   25.0315 C   0  0  0  0  0  0  0  0  0  0  0  0
  -27.4404  -24.6162   20.7695 C   0  0  0  0  0  0  0  0  0  0  0  0
  -29.9912  -26.1553   22.0528 C   0  0  0  0  0  0  0  0  0  0  0  0
  -31.3595  -29.0862   23.1412 C   0  0  0  0  0  0  0  0  0  0  0  0
  -22.6856  -23.6046   23.0154 C   0  0  0  0  0  0  0  0  0  0  0  0
  -28.8336  -19.8500   21.9526 C   0  0  0  0  0  0  0  0  0  0  0  0
  -27.7476  -26.5209   19.1466 C   0  0  0  0  0  0  0  0  0  0  0  0
  -27.8263  -27.4473   21.9538 C   0  0  0  0  0  0  0  0  0  0  0  0
  -28.7949  -21.1895   22.6838 C   0  0  0  0  0  0  0  0  0  0  0  0
  -20.5525  -20.7069   22.6272 C   0  0  0  0  0  0  0  0  0  0  0  0
  -27.4376  -21.8602   22.4977 C   0  0  0  0  0  0  0  0  0  0  0  0
  -21.5534  -19.5652   22.8140 C   0  0  0  0  0  0  0  0  0  0  0  0
  -21.1786  -21.8720   21.8665 C   0  0  0  0  0  0  0  0  0  0  0  0
  -23.4302  -21.2668   22.6651 C   0  0  0  0  0  0  0  0  0  0  0  0
  -27.1665  -22.1557   21.0176 C   0  0  1  0  0  0  0  0  0  0  0  0
  -28.3714  -25.6767   20.2537 C   0  0  1  0  0  0  0  0  0  0  0  0
  -22.8646  -20.0674   23.4472 C   0  0  2  0  0  0  0  0  0  0  0  0
  -17.0088  -27.3400   23.9848 C   0  0  0  0  0  0  0  0  0  0  0  0
  -33.4468  -30.0224   24.1726 C   0  0  0  0  0  0  0  0  0  0  0  0
  -29.1740  -24.9949   24.7538 C   0  0  0  0  0  0  0  0  0  0  0  0
  -30.6663  -26.6796   25.8507 C   0  0  0  0  0  0  0  0  0  0  0  0
  -31.6352  -24.9732   24.3106 C   0  0  0  0  0  0  0  0  0  0  0  0
  -31.8475  -30.8611   20.8238 C   0  0  0  0  0  0  0  0  0  0  0  0
  -19.7687  -29.4074   20.3751 C   0  0  0  0  0  0  0  0  0  0  0  0
  -21.8043  -25.9072   23.2951 C   0  0  0  0  0  0  0  0  0  0  0  0
  -20.2460  -30.8007   20.7996 C   0  0  0  0  0  0  0  0  0  0  0  0
  -21.6534  -30.7948   21.3980 C   0  0  0  0  0  0  0  0  0  0  0  0
  -22.6867  -30.3067   20.3917 C   0  0  0  0  0  0  0  0  0  1  0  0
  -30.2648  -26.8702   23.3540 C   0  0  1  0  0  0  0  0  0  0  0  0
  -32.7096  -29.7274   22.8756 C   0  0  2  0  0  0  0  0  0  0  0  0
  -30.4142  -25.8878   24.5498 C   0  0  0  0  0  0  0  0  0  0  0  0
  -23.9038  -17.9690   22.6734 N   0  0  0  0  0  0  0  0  0  0  0  0
  -23.8835  -18.9520   23.5895 N   0  0  0  0  0  0  0  0  0  0  0  0
  -28.7887  -26.4764   21.4072 N   0  0  0  0  0  0  0  0  0  0  0  0
  -22.4125  -22.3144   22.5313 N   0  0  0  0  0  0  0  0  0  0  0  0
  -24.9402  -19.7115   25.5687 N   0  0  0  0  0  0  0  0  0  0  0  0
  -27.1747  -15.9116   24.5869 N   0  0  0  0  0  0  0  0  0  0  0  0
  -27.9036  -23.3264   20.5927 N   0  0  0  0  0  0  0  0  0  0  0  0
  -31.4349  -27.7096   23.1204 N   0  0  0  0  0  0  0  0  0  0  0  0
  -21.6725  -24.5399   22.8434 N   0  0  0  0  0  0  0  0  0  0  0  0
  -32.5380  -31.0069   22.1311 N   0  3  0  0  0  0  0  0  0  0  0  0
  -27.0131  -17.6434   26.0814 O   0  0  0  0  0  0  0  0  0  0  0  0
  -26.3809  -24.9439   21.2908 O   0  0  0  0  0  0  0  0  0  0  0  0
  -30.8174  -25.3473   21.6214 O   0  0  0  0  0  0  0  0  0  0  0  0
  -30.3407  -29.7410   23.3501 O   0  0  0  0  0  0  0  0  0  0  0  0
  -23.7520  -23.9001   23.5655 O   0  0  0  0  0  0  0  0  0  0  0  0
  -26.2192  -12.5582   20.2422 O   0  0  0  0  0  0  0  0  0  0  0  0
  -23.9719  -30.3098   21.0121 O   0  0  0  0  0  0  0  0  0  1  0  0
  -31.5649  -11.5591   19.3314 F   0  0  0  0  0  0  0  0  0  0  0  0
  -27.2071  -12.3631   17.6675 F   0  0  0  0  0  0  0  0  0  0  0  0
  -19.2615  -25.5091   24.9469 Cl  0  0  0  0  0  0  0  0  0  0  0  0
  1  2  1  0  0  0  0
  1  5  2  0  0  0  0
  2  6  2  0  0  0  0
  3  8  2  0  0  0  0
  3 17  1  0  0  0  0
  4  9  1  0  0  0  0
  4 17  2  0  0  0  0
  5 19  1  0  0  0  0
  6 21  1  0  0  0  0
  7 10  2  0  0  0  0
  7 20  1  0  0  0  0
  8 26  1  0  0  0  0
  9 26  2  0  0  0  0
 10 27  1  0  0  0  0
 11 12  2  0  0  0  0
 11 28  1  0  0  0  0
 12 29  1  0  0  0  0
 13 22  1  0  0  0  0
 13 27  2  0  0  0  0
 14 23  1  0  0  0  0
 14 24  2  0  0  0  0
 15 23  2  0  0  0  0
 15 25  1  0  0  0  0
 16 29  2  0  0  0  0
 16 30  1  0  0  0  0
 17 32  1  0  0  0  0
 18 32  1  0  0  0  0
 18 33  2  0  0  0  0
 18 34  1  0  0  0  0
 19 21  2  0  0  0  0
 19 39  1  0  0  0  0
 20 22  2  0  0  0  0
 20 40  1  0  0  0  0
 21 48  1  0  0  0  0
 22 41  1  0  0  0  0
 23 57  1  0  0  0  0
 24 31  1  0  0  0  0
 24 51  1  0  0  0  0
 25 31  2  0  0  0  0
 25 58  1  0  0  0  0
 26 80  1  0  0  0  0
 27 81  1  0  0  0  0
 28 30  2  0  0  0  0
 28 80  1  0  0  0  0
 29 82  1  0  0  0  0
 30 83  1  0  0  0  0
 31 84  1  0  0  0  0
 32 65  2  0  0  0  0
 33 66  1  0  0  0  0
 33 69  1  0  0  0  0
 34 70  1  0  0  0  0
 34 75  2  0  0  0  0
 35 49  1  0  0  0  0
 35 71  1  0  0  0  0
 35 76  2  0  0  0  0
 36 62  1  0  0  0  0
 36 67  1  0  0  0  0
 36 77  2  0  0  0  0
 37 63  1  0  0  0  0
 37 72  1  0  0  0  0
 37 78  2  0  0  0  0
 38 68  1  0  0  0  0
 38 73  1  0  0  0  0
 38 79  2  0  0  0  0
 39 42  1  0  0  0  0
 40 49  1  0  0  0  0
 41 67  1  0  0  0  0
 42 44  1  0  0  0  0
 43 45  1  0  0  0  0
 43 46  1  0  0  0  0
 44 48  1  0  0  0  0
 45 50  1  0  0  0  0
 46 68  1  0  0  0  0
 47 50  1  0  0  0  0
 47 68  1  0  0  0  0
 48 71  1  0  0  0  0
 49 67  1  0  0  0  0
 50 66  1  0  0  0  0
 52 63  1  0  0  0  0
 53 64  1  0  0  0  0
 54 64  1  0  0  0  0
 55 64  1  0  0  0  0
 56 74  1  0  0  0  0
 57 59  1  0  0  0  0
 58 73  1  0  0  0  0
 59 60  1  0  0  0  0
 60 61  1  0  0  0  0
 61 81  1  0  0  0  0
 62 64  1  0  0  0  0
 62 72  1  0  0  0  0
 63 74  1  0  0  0  0
 65 66  1  0  0  0  0
M  CHG  1  74   1
M  ISO  4  38 100  61 101  73 100  81 101
M  END
> <Batch ID>
0033

> <Smiles>
CNC(C)C(=O)NC(C(=O)N1Cc2cc([101O:1][101CH2:1]CCCc3cc(C)c(Cl)c(C[100NH:0][100C:0](=O)N4CCCC(n5nc(-c6ccc(Oc7ccc(F)cc7F)cc6)c(C(N)=O)c5N)C4)c3)ccc2CC1C(=O)NC1CCCc2ccccc21)C(C)(C)C

> <Shape>
0.211

> <Color>
0.055

> <Negative vol penalty>
0.000

$$$$

  -OEChem-04052316483D

 88 96  0     1  0  0  0  0  0999 V2000
  -16.5724  -29.9221   22.1752 C   0  0  0  0  0  0  0  0  0  0  0  0
  -17.5473  -30.8512   22.5243 C   0  0  0  0  0  0  0  0  0  0  0  0
  -25.0268  -17.2823   22.7104 C   0  0  0  0  0  0  0  0  0  0  0  0
  -26.0727  -19.2640   23.6136 C   0  0  0  0  0  0  0  0  0  0  0  0
  -16.8743  -28.5610   22.1809 C   0  0  0  0  0  0  0  0  0  0  0  0
  -18.8245  -30.4194   22.8803 C   0  0  0  0  0  0  0  0  0  0  0  0
  -25.6962  -32.4083   22.5058 C   0  0  0  0  0  0  0  0  0  0  0  0
  -32.1698  -32.2059   22.6902 C   0  0  0  0  0  0  0  0  0  0  0  0
  -32.8228  -31.3153   21.8382 C   0  0  0  0  0  0  0  0  0  0  0  0
  -24.5366  -16.9638   23.9768 C   0  0  0  0  0  0  0  0  0  0  0  0
  -25.5825  -18.9456   24.8801 C   0  0  0  0  0  0  0  0  0  0  0  0
  -26.8140  -32.5794   23.3214 C   0  0  0  0  0  0  0  0  0  0  0  0
  -25.7152  -15.5860   26.8294 C   0  0  0  0  0  0  0  0  0  0  0  0
  -25.8357  -14.2636   27.2563 C   0  0  0  0  0  0  0  0  0  0  0  0
  -27.2443  -30.2080   23.2189 C   0  0  0  0  0  0  0  0  0  0  0  0
  -31.5593  -30.3718   24.1396 C   0  0  0  0  0  0  0  0  0  0  0  0
  -23.4337  -14.1136   27.4691 C   0  0  0  0  0  0  0  0  0  0  0  0
  -25.7949  -18.4324   22.5288 C   0  0  0  0  0  0  0  0  0  0  0  0
  -25.6698  -19.5444   20.2363 C   0  0  0  0  0  0  0  0  0  0  0  0
  -18.1586  -28.1129   22.5278 C   0  0  0  0  0  0  0  0  0  0  0  0
  -25.3373  -31.1321   22.0488 C   0  0  0  0  0  0  0  0  0  0  0  0
  -19.1435  -29.0509   22.8919 C   0  0  0  0  0  0  0  0  0  0  0  0
  -26.1230  -30.0237   22.3956 C   0  0  0  0  0  0  0  0  0  0  0  0
  -31.5381  -31.7342   23.8409 C   0  0  0  0  0  0  0  0  0  0  0  0
  -32.8441  -29.9529   22.1368 C   0  0  0  0  0  0  0  0  0  0  0  0
  -32.2124  -29.4811   23.2875 C   0  0  0  0  0  0  0  0  0  0  0  0
  -24.8144  -17.7954   25.0617 C   0  0  0  0  0  0  0  0  0  0  0  0
  -27.5865  -31.4788   23.6805 C   0  0  0  0  0  0  0  0  0  0  0  0
  -24.4540  -16.1723   26.7223 C   0  0  0  0  0  0  0  0  0  0  0  0
  -24.6949  -13.5274   27.5762 C   0  0  0  0  0  0  0  0  0  0  0  0
  -23.3133  -15.4361   27.0422 C   0  0  0  0  0  0  0  0  0  0  0  0
  -26.3021  -18.7617   21.2209 C   0  0  0  0  0  0  0  0  0  0  0  0
  -26.5554  -19.5565   19.1865 C   0  0  0  0  0  0  0  0  0  0  0  0
  -24.3960  -20.2018   20.2679 C   0  0  0  0  0  0  0  0  0  0  0  0
  -22.8021  -29.2498   22.4138 C   0  0  0  0  0  0  0  0  0  0  0  0
  -24.3550  -27.3948   20.2529 C   0  0  0  0  0  0  0  0  0  0  0  0
  -27.3098  -26.4869   18.8067 C   0  0  0  0  0  0  0  0  0  0  0  0
  -31.7510  -20.0406   17.2075 C   0  0  0  0  0  0  0  0  0  0  0  0
  -18.4243  -26.6288   22.5652 C   0  0  0  0  0  0  0  0  0  0  0  0
  -24.1441  -30.9680   21.1479 C   0  0  0  0  0  0  0  0  0  0  0  0
  -25.7920  -28.6354   21.9146 C   0  0  0  0  0  0  0  0  0  0  0  0
  -19.9093  -26.2763   22.5924 C   0  0  0  0  0  0  0  0  0  0  0  0
  -30.7408  -16.8335   18.3782 C   0  0  0  0  0  0  0  0  0  0  0  0
  -20.6431  -27.1350   23.6175 C   0  0  0  0  0  0  0  0  0  0  0  0
  -29.4479  -17.1148   19.1457 C   0  0  0  0  0  0  0  0  0  0  0  0
  -31.7569  -17.9601   18.5521 C   0  0  0  0  0  0  0  0  0  0  0  0
  -29.9587  -19.5874   18.9904 C   0  0  0  0  0  0  0  0  0  0  0  0
  -20.5477  -28.6232   23.2600 C   0  0  1  0  0  0  0  0  0  0  0  0
  -23.5752  -29.5525   21.1615 C   0  0  1  0  0  0  0  0  0  0  0  0
  -28.8820  -18.5054   18.8002 C   0  0  2  0  0  0  0  0  0  0  0  0
  -32.2217  -28.0268   23.6275 C   0  0  0  0  0  0  0  0  0  0  0  0
  -28.2666  -24.9175   17.0981 C   0  0  0  0  0  0  0  0  0  0  0  0
  -24.0744  -25.0822   22.2234 C   0  0  0  0  0  0  0  0  0  0  0  0
  -25.8275  -23.8543   20.9246 C   0  0  0  0  0  0  0  0  0  0  0  0
  -23.6710  -24.4701   19.8324 C   0  0  0  0  0  0  0  0  0  0  0  0
  -28.3180  -28.7216   17.1488 C   0  0  0  0  0  0  0  0  0  0  0  0
  -30.8310  -32.6981   24.7625 C   0  0  0  0  0  0  0  0  0  0  0  0
  -33.5486  -29.0183   21.2090 C   0  0  0  0  0  0  0  0  0  0  0  0
  -31.9853  -24.0521   17.5909 C   0  0  0  0  0  0  0  0  0  0  0  0
  -32.9545  -25.1038   18.1398 C   0  0  0  0  0  0  0  0  0  0  0  0
  -32.6000  -23.1719   16.4977 C   0  0  0  0  0  0  0  0  0  0  0  0
  -32.3210  -26.0317   19.1783 C   0  0  0  0  0  0  0  0  0  0  0  0
  -31.6034  -22.1642   15.9317 C   0  0  0  0  0  0  0  0  0  0  0  0
  -33.3245  -27.0679   19.6649 C   0  0  0  0  0  0  0  0  0  0  0  0
  -29.3656  -32.8899   24.3872 C   0  0  0  0  0  0  0  0  0  1  0  0
  -25.3665  -26.2771   20.3344 C   0  0  1  0  0  0  0  0  0  0  0  0
  -27.7066  -26.3084   17.3523 C   0  0  2  0  0  0  0  0  0  0  0  0
  -24.7402  -24.9467   20.8395 C   0  0  0  0  0  0  0  0  0  0  0  0
  -27.4969  -18.3093   20.8313 N   0  0  0  0  0  0  0  0  0  0  0  0
  -27.6225  -18.8092   19.5902 N   0  0  0  0  0  0  0  0  0  0  0  0
  -24.6120  -28.5255   21.0411 N   0  0  0  0  0  0  0  0  0  0  0  0
  -31.1579  -19.2515   18.2068 N   0  0  0  0  0  0  0  0  0  0  0  0
  -26.5176  -20.1334   17.9665 N   0  0  0  0  0  0  0  0  0  0  0  0
  -23.6133  -20.0867   21.4247 N   0  0  0  0  0  0  0  0  0  0  0  0
  -21.4717  -28.9472   22.1944 N   0  0  0  0  0  0  0  0  0  0  0  0
  -25.9805  -26.1851   19.0142 N   0  0  0  0  0  0  0  0  0  0  0  0
  -31.1161  -21.2467   16.9375 N   0  0  0  0  0  0  0  0  0  0  0  0
  -28.7431  -27.3092   16.9716 N   0  3  0  0  0  0  0  0  0  0  0  0
  -32.6565  -27.9744   20.6352 N   0  3  0  0  0  0  0  0  0  0  0  0
  -23.9576  -20.8577   19.2927 O   0  0  0  0  0  0  0  0  0  0  0  0
  -23.3707  -29.2864   23.4987 O   0  0  0  0  0  0  0  0  0  0  0  0
  -23.3767  -27.2721   19.5115 O   0  0  0  0  0  0  0  0  0  0  0  0
  -28.1011  -26.8535   19.6728 O   0  0  0  0  0  0  0  0  0  0  0  0
  -32.7678  -19.6934   16.5972 O   0  0  0  0  0  0  0  0  0  0  0  0
  -24.3361  -17.4850   26.2975 O   0  0  0  0  0  0  0  0  0  0  0  0
  -28.6776  -31.6429   24.4770 O   0  0  0  0  0  0  0  0  0  1  0  0
  -24.8106  -12.2570   27.9847 F   0  0  0  0  0  0  0  0  0  0  0  0
  -22.0989  -15.9935   26.9402 F   0  0  0  0  0  0  0  0  0  0  0  0
  1  2  1  0  0  0  0
  1  5  2  0  0  0  0
  2  6  2  0  0  0  0
  3 10  2  0  0  0  0
  3 18  1  0  0  0  0
  4 11  1  0  0  0  0
  4 18  2  0  0  0  0
  5 20  1  0  0  0  0
  6 22  1  0  0  0  0
  7 12  2  0  0  0  0
  7 21  1  0  0  0  0
  8  9  2  0  0  0  0
  8 24  1  0  0  0  0
  9 25  1  0  0  0  0
 10 27  1  0  0  0  0
 11 27  2  0  0  0  0
 12 28  1  0  0  0  0
 13 14  2  0  0  0  0
 13 29  1  0  0  0  0
 14 30  1  0  0  0  0
 15 23  1  0  0  0  0
 15 28  2  0  0  0  0
 16 24  2  0  0  0  0
 16 26  1  0  0  0  0
 17 30  2  0  0  0  0
 17 31  1  0  0  0  0
 18 32  1  0  0  0  0
 19 32  1  0  0  0  0
 19 33  2  0  0  0  0
 19 34  1  0  0  0  0
 20 22  2  0  0  0  0
 20 39  1  0  0  0  0
 21 23  2  0  0  0  0
 21 40  1  0  0  0  0
 22 48  1  0  0  0  0
 23 41  1  0  0  0  0
 24 57  1  0  0  0  0
 25 26  2  0  0  0  0
 25 58  1  0  0  0  0
 26 51  1  0  0  0  0
 27 85  1  0  0  0  0
 28 86  1  0  0  0  0
 29 31  2  0  0  0  0
 29 85  1  0  0  0  0
 30 87  1  0  0  0  0
 31 88  1  0  0  0  0
 32 69  2  0  0  0  0
 33 70  1  0  0  0  0
 33 73  1  0  0  0  0
 34 74  1  0  0  0  0
 34 80  2  0  0  0  0
 35 49  1  0  0  0  0
 35 75  1  0  0  0  0
 35 81  2  0  0  0  0
 36 66  1  0  0  0  0
 36 71  1  0  0  0  0
 36 82  2  0  0  0  0
 37 67  1  0  0  0  0
 37 76  1  0  0  0  0
 37 83  2  0  0  0  0
 38 72  1  0  0  0  0
 38 77  1  0  0  0  0
 38 84  2  0  0  0  0
 39 42  1  0  0  0  0
 40 49  1  0  0  0  0
 41 71  1  0  0  0  0
 42 44  1  0  0  0  0
 43 45  1  0  0  0  0
 43 46  1  0  0  0  0
 44 48  1  0  0  0  0
 45 50  1  0  0  0  0
 46 72  1  0  0  0  0
 47 50  1  0  0  0  0
 47 72  1  0  0  0  0
 48 75  1  0  0  0  0
 49 71  1  0  0  0  0
 50 70  1  0  0  0  0
 52 67  1  0  0  0  0
 53 68  1  0  0  0  0
 54 68  1  0  0  0  0
 55 68  1  0  0  0  0
 56 78  1  0  0  0  0
 57 65  1  0  0  0  0
 58 79  1  0  0  0  0
 59 60  1  0  0  0  0
 59 61  1  0  0  0  0
 60 62  1  0  0  0  0
 61 63  1  0  0  0  0
 62 64  1  0  0  0  0
 63 77  1  0  0  0  0
 64 79  1  0  0  0  0
 65 86  1  0  0  0  0
 66 68  1  0  0  0  0
 66 76  1  0  0  0  0
 67 78  1  0  0  0  0
 69 70  1  0  0  0  0
M  CHG  2  78   1  79   1
M  ISO  4  38 100  65 101  77 100  86 101
M  END
> <Batch ID>
0033

> <Smiles>
CNC(C)C(=O)NC(C(=O)N1Cc2cc([101O:1][101CH2:1]Cc3ccc(CNCCCCCC[100NH:0][100C:0](=O)N4CCCC(n5nc(-c6ccc(Oc7ccc(F)cc7F)cc6)c(C(N)=O)c5N)C4)c(C)c3)ccc2CC1C(=O)NC1CCCc2ccccc21)C(C)(C)C

> <Shape>
0.181

> <Color>
0.082

> <Negative vol penalty>
0.000

$$$$

  -OEChem-04052316483D

 86 94  0     1  0  0  0  0  0999 V2000
  -29.8697  -18.2207   17.4622 C   0  0  0  0  0  0  0  0  0  0  0  0
  -28.6730  -18.8787   17.1969 C   0  0  0  0  0  0  0  0  0  0  0  0
  -24.4774  -16.1808   18.2875 C   0  0  0  0  0  0  0  0  0  0  0  0
  -25.6940  -16.4662   20.3552 C   0  0  0  0  0  0  0  0  0  0  0  0
  -30.6331  -18.5846   18.5707 C   0  0  0  0  0  0  0  0  0  0  0  0
  -28.2384  -19.9003   18.0407 C   0  0  0  0  0  0  0  0  0  0  0  0
  -24.6372  -26.0916   17.9163 C   0  0  0  0  0  0  0  0  0  0  0  0
  -25.5480  -15.4611   17.7569 C   0  0  0  0  0  0  0  0  0  0  0  0
  -26.7646  -15.7465   19.8246 C   0  0  0  0  0  0  0  0  0  0  0  0
  -23.5666  -26.7277   18.5432 C   0  0  0  0  0  0  0  0  0  0  0  0
  -29.6738  -13.6754   19.1426 C   0  0  0  0  0  0  0  0  0  0  0  0
  -30.2662  -12.7037   19.9491 C   0  0  0  0  0  0  0  0  0  0  0  0
  -25.0071  -27.3246   20.3839 C   0  0  0  0  0  0  0  0  0  0  0  0
  -18.4285  -26.5537   22.7164 C   0  0  0  0  0  0  0  0  0  0  0  0
  -19.6759  -28.0660   21.3044 C   0  0  0  0  0  0  0  0  0  0  0  0
  -20.3755  -27.6894   23.5860 C   0  0  0  0  0  0  0  0  0  0  0  0
  -28.1569  -11.5341   20.0895 C   0  0  0  0  0  0  0  0  0  0  0  0
  -24.5504  -16.6834   19.5866 C   0  0  0  0  0  0  0  0  0  0  0  0
  -22.3474  -16.9145   20.8520 C   0  0  0  0  0  0  0  0  0  0  0  0
  -30.2125  -19.6176   19.4231 C   0  0  0  0  0  0  0  0  0  0  0  0
  -25.9002  -26.0577   18.5245 C   0  0  0  0  0  0  0  0  0  0  0  0
  -28.9963  -20.2774   19.1624 C   0  0  0  0  0  0  0  0  0  0  0  0
  -26.0927  -26.6896   19.7614 C   0  0  0  0  0  0  0  0  0  0  0  0
  -18.6111  -27.1833   21.4852 C   0  0  0  0  0  0  0  0  0  0  0  0
  -19.3107  -26.8067   23.7668 C   0  0  0  0  0  0  0  0  0  0  0  0
  -20.5581  -28.3190   22.3548 C   0  0  0  0  0  0  0  0  0  0  0  0
  -26.6916  -15.2440   18.5254 C   0  0  0  0  0  0  0  0  0  0  0  0
  -23.7508  -27.3418   19.7786 C   0  0  0  0  0  0  0  0  0  0  0  0
  -28.3229  -13.5765   18.8096 C   0  0  0  0  0  0  0  0  0  0  0  0
  -29.5078  -11.6331   20.4225 C   0  0  0  0  0  0  0  0  0  0  0  0
  -27.5644  -12.5058   19.2830 C   0  0  0  0  0  0  0  0  0  0  0  0
  -23.4451  -17.4274   20.1351 C   0  0  0  0  0  0  0  0  0  0  0  0
  -21.5854  -18.0179   21.1490 C   0  0  0  0  0  0  0  0  0  0  0  0
  -22.0438  -15.5616   21.2169 C   0  0  0  0  0  0  0  0  0  0  0  0
  -27.8204  -23.7552   19.5806 C   0  0  0  0  0  0  0  0  0  0  0  0
  -29.8778  -26.2197   20.0445 C   0  0  0  0  0  0  0  0  0  0  0  0
  -30.3242  -29.5650   20.5513 C   0  0  0  0  0  0  0  0  0  0  0  0
  -22.8869  -23.8322   21.7423 C   0  0  0  0  0  0  0  0  0  0  0  0
  -31.0479  -19.9437   20.6357 C   0  0  0  0  0  0  0  0  0  0  0  0
  -27.0512  -25.3905   17.8227 C   0  0  0  0  0  0  0  0  0  0  0  0
  -27.4337  -26.6991   20.4469 C   0  0  0  0  0  0  0  0  0  0  0  0
  -30.7033  -21.2893   21.2688 C   0  0  0  0  0  0  0  0  0  0  0  0
  -20.5211  -22.3849   19.5096 C   0  0  0  0  0  0  0  0  0  0  0  0
  -29.1921  -21.4415   21.4101 C   0  0  0  0  0  0  0  0  0  0  0  0
  -20.9031  -20.9040   19.4814 C   0  0  0  0  0  0  0  0  0  0  0  0
  -21.7517  -23.2834   19.6099 C   0  0  0  0  0  0  0  0  0  0  0  0
  -23.0399  -21.4887   20.7024 C   0  0  0  0  0  0  0  0  0  0  0  0
  -28.5037  -21.4073   20.0403 C   0  0  1  0  0  0  0  0  0  0  0  0
  -28.1695  -24.9731   18.7729 C   0  0  1  0  0  0  0  0  0  0  0  0
  -21.8289  -20.5412   20.6581 C   0  0  2  0  0  0  0  0  0  0  0  0
  -17.6676  -26.9121   20.3623 C   0  0  0  0  0  0  0  0  0  0  0  0
  -32.1186  -31.2775   20.9324 C   0  0  0  0  0  0  0  0  0  0  0  0
  -30.1661  -25.2719   22.9304 C   0  0  0  0  0  0  0  0  0  0  0  0
  -31.1698  -27.4968   23.4875 C   0  0  0  0  0  0  0  0  0  0  0  0
  -32.3035  -25.9937   21.8510 C   0  0  0  0  0  0  0  0  0  0  0  0
  -29.6067  -31.0351   18.0850 C   0  0  0  0  0  0  0  0  0  0  0  0
  -19.1161  -26.1334   25.0834 C   0  0  0  0  0  0  0  0  0  0  0  0
  -21.7103  -29.2742   22.1588 C   0  0  0  0  0  0  0  0  0  0  0  0
  -19.8426  -24.7830   25.2205 C   0  0  0  0  0  0  0  0  0  0  0  0
  -21.3658  -24.9158   25.1241 C   0  0  0  0  0  0  0  0  0  0  0  0
  -22.0524  -23.5579   25.2909 C   0  0  0  0  0  0  0  0  0  0  0  0
  -23.5766  -23.6965   25.2339 C   0  0  0  0  0  0  0  0  0  0  0  0
  -24.0671  -24.2247   23.8899 C   0  0  0  0  0  0  0  0  0  0  0  0
  -22.9672  -28.5715   21.6573 C   0  0  0  0  0  0  0  0  0  1  0  0
  -30.1685  -27.1704   21.1806 C   0  0  1  0  0  0  0  0  0  0  0  0
  -31.2594  -30.5668   19.8983 C   0  0  2  0  0  0  0  0  0  0  0  0
  -30.9261  -26.4815   22.3506 C   0  0  0  0  0  0  0  0  0  0  0  0
  -23.3891  -18.7535   19.9855 N   0  0  0  0  0  0  0  0  0  0  0  0
  -22.2470  -19.0832   20.6125 N   0  0  0  0  0  0  0  0  0  0  0  0
  -28.5265  -26.0281   19.7236 N   0  0  0  0  0  0  0  0  0  0  0  0
  -22.5867  -22.8878   20.7467 N   0  0  0  0  0  0  0  0  0  0  0  0
  -20.4207  -18.1713   21.8140 N   0  0  0  0  0  0  0  0  0  0  0  0
  -22.9341  -14.5499   20.8319 N   0  0  0  0  0  0  0  0  0  0  0  0
  -28.6585  -22.6779   19.3650 N   0  0  0  0  0  0  0  0  0  0  0  0
  -30.8774  -28.3027   20.5942 N   0  0  0  0  0  0  0  0  0  0  0  0
  -23.6786  -23.3731   22.7877 N   0  0  0  0  0  0  0  0  0  0  0  0
  -30.4789  -31.5927   19.1505 N   0  3  0  0  0  0  0  0  0  0  0  0
  -21.0053  -15.2569   21.8510 O   0  0  0  0  0  0  0  0  0  0  0  0
  -26.8625  -23.7907   20.3441 O   0  0  0  0  0  0  0  0  0  0  0  0
  -30.8156  -25.6730   19.4585 O   0  0  0  0  0  0  0  0  0  0  0  0
  -29.2156  -29.8724   20.9837 O   0  0  0  0  0  0  0  0  0  0  0  0
  -22.4751  -24.9967   21.7050 O   0  0  0  0  0  0  0  0  0  0  0  0
  -27.7363  -14.5415   18.0081 O   0  0  0  0  0  0  0  0  0  0  0  0
  -22.7074  -27.9628   20.3930 O   0  0  0  0  0  0  0  0  0  1  0  0
  -30.0772  -10.6993   21.1957 F   0  0  0  0  0  0  0  0  0  0  0  0
  -26.2664  -12.4048   18.9654 F   0  0  0  0  0  0  0  0  0  0  0  0
  1  2  1  0  0  0  0
  1  5  2  0  0  0  0
  2  6  2  0  0  0  0
  3  8  2  0  0  0  0
  3 18  1  0  0  0  0
  4  9  1  0  0  0  0
  4 18  2  0  0  0  0
  5 20  1  0  0  0  0
  6 22  1  0  0  0  0
  7 10  2  0  0  0  0
  7 21  1  0  0  0  0
  8 27  1  0  0  0  0
  9 27  2  0  0  0  0
 10 28  1  0  0  0  0
 11 12  2  0  0  0  0
 11 29  1  0  0  0  0
 12 30  1  0  0  0  0
 13 23  1  0  0  0  0
 13 28  2  0  0  0  0
 14 24  1  0  0  0  0
 14 25  2  0  0  0  0
 15 24  2  0  0  0  0
 15 26  1  0  0  0  0
 16 25  1  0  0  0  0
 16 26  2  0  0  0  0
 17 30  2  0  0  0  0
 17 31  1  0  0  0  0
 18 32  1  0  0  0  0
 19 32  1  0  0  0  0
 19 33  2  0  0  0  0
 19 34  1  0  0  0  0
 20 22  2  0  0  0  0
 20 39  1  0  0  0  0
 21 23  2  0  0  0  0
 21 40  1  0  0  0  0
 22 48  1  0  0  0  0
 23 41  1  0  0  0  0
 24 51  1  0  0  0  0
 25 57  1  0  0  0  0
 26 58  1  0  0  0  0
 27 83  1  0  0  0  0
 28 84  1  0  0  0  0
 29 31  2  0  0  0  0
 29 83  1  0  0  0  0
 30 85  1  0  0  0  0
 31 86  1  0  0  0  0
 32 68  2  0  0  0  0
 33 69  1  0  0  0  0
 33 72  1  0  0  0  0
 34 73  1  0  0  0  0
 34 78  2  0  0  0  0
 35 49  1  0  0  0  0
 35 74  1  0  0  0  0
 35 79  2  0  0  0  0
 36 65  1  0  0  0  0
 36 70  1  0  0  0  0
 36 80  2  0  0  0  0
 37 66  1  0  0  0  0
 37 75  1  0  0  0  0
 37 81  2  0  0  0  0
 38 71  1  0  0  0  0
 38 76  1  0  0  0  0
 38 82  2  0  0  0  0
 39 42  1  0  0  0  0
 40 49  1  0  0  0  0
 41 70  1  0  0  0  0
 42 44  1  0  0  0  0
 43 45  1  0  0  0  0
 43 46  1  0  0  0  0
 44 48  1  0  0  0  0
 45 50  1  0  0  0  0
 46 71  1  0  0  0  0
 47 50  1  0  0  0  0
 47 71  1  0  0  0  0
 48 74  1  0  0  0  0
 49 70  1  0  0  0  0
 50 69  1  0  0  0  0
 52 66  1  0  0  0  0
 53 67  1  0  0  0  0
 54 67  1  0  0  0  0
 55 67  1  0  0  0  0
 56 77  1  0  0  0  0
 57 59  1  0  0  0  0
 58 64  1  0  0  0  0
 59 60  1  0  0  0  0
 60 61  1  0  0  0  0
 61 62  1  0  0  0  0
 62 63  1  0  0  0  0
 63 76  1  0  0  0  0
 64 84  1  0  0  0  0
 65 67  1  0  0  0  0
 65 75  1  0  0  0  0
 66 77  1  0  0  0  0
 68 69  1  0  0  0  0
M  CHG  1  77   1
M  ISO  4  38 100  64 101  76 100  84 101
M  END
> <Batch ID>
0033

> <Smiles>
CNC(C)C(=O)NC(C(=O)N1Cc2cc([101O:1][101CH2:1]Cc3cc(C)cc(CCCCCC[100NH:0][100C:0](=O)N4CCCC(n5nc(-c6ccc(Oc7ccc(F)cc7F)cc6)c(C(N)=O)c5N)C4)c3)ccc2CC1C(=O)NC1CCCc2ccccc21)C(C)(C)C

> <Shape>
0.209

> <Color>
0.054

> <Negative vol penalty>
0.000

$$$$

  -OEChem-04052316483D

 89 98  0     1  0  0  0  0  0999 V2000
  -20.5797  -23.7080   21.3493 C   0  0  0  0  0  0  0  0  0  0  0  0
  -21.4504  -24.4394   20.5479 C   0  0  0  0  0  0  0  0  0  0  0  0
  -29.1170  -18.9706   20.1533 C   0  0  0  0  0  0  0  0  0  0  0  0
  -29.2762  -17.9313   17.9781 C   0  0  0  0  0  0  0  0  0  0  0  0
  -19.7128  -24.3688   22.2187 C   0  0  0  0  0  0  0  0  0  0  0  0
  -21.4539  -25.8322   20.6145 C   0  0  0  0  0  0  0  0  0  0  0  0
  -26.1350  -27.7575   20.7747 C   0  0  0  0  0  0  0  0  0  0  0  0
  -29.4285  -17.7528   20.7579 C   0  0  0  0  0  0  0  0  0  0  0  0
  -29.5877  -16.7135   18.5827 C   0  0  0  0  0  0  0  0  0  0  0  0
  -26.8391  -27.8204   19.5730 C   0  0  0  0  0  0  0  0  0  0  0  0
  -30.0712  -13.2480   19.5656 C   0  0  0  0  0  0  0  0  0  0  0  0
  -29.4257  -12.1055   19.0927 C   0  0  0  0  0  0  0  0  0  0  0  0
  -26.2824  -30.1593   19.3762 C   0  0  0  0  0  0  0  0  0  0  0  0
  -25.2323  -22.8401   11.7706 C   0  0  0  0  0  0  0  0  0  0  0  0
  -24.9720  -24.2592    9.8328 C   0  0  0  0  0  0  0  0  0  0  0  0
  -27.2893  -13.0709   19.6764 C   0  0  0  0  0  0  0  0  0  0  0  0
  -29.0408  -19.0598   18.7634 C   0  0  0  0  0  0  0  0  0  0  0  0
  -29.6196  -21.3174   17.7261 C   0  0  0  0  0  0  0  0  0  0  0  0
  -19.7125  -25.7701   22.3030 C   0  0  0  0  0  0  0  0  0  0  0  0
  -25.4891  -28.8943   21.2815 C   0  0  0  0  0  0  0  0  0  0  0  0
  -20.5853  -26.5125   21.4848 C   0  0  0  0  0  0  0  0  0  0  0  0
  -25.5730  -30.1089   20.5859 C   0  0  0  0  0  0  0  0  0  0  0  0
  -25.7384  -23.8140   10.9099 C   0  0  0  0  0  0  0  0  0  0  0  0
  -23.9599  -22.3111   11.5542 C   0  0  0  0  0  0  0  0  0  0  0  0
  -23.1935  -22.7563   10.4771 C   0  0  0  0  0  0  0  0  0  0  0  0
  -29.6639  -16.6243   19.9727 C   0  0  0  0  0  0  0  0  0  0  0  0
  -26.9104  -29.0207   18.8721 C   0  0  0  0  0  0  0  0  0  0  0  0
  -29.3258  -14.3019   20.0940 C   0  0  0  0  0  0  0  0  0  0  0  0
  -28.0348  -12.0169   19.1481 C   0  0  0  0  0  0  0  0  0  0  0  0
  -23.6996  -23.7303    9.6164 C   0  0  0  0  0  0  0  0  0  0  0  0
  -27.9348  -14.2134   20.1493 C   0  0  0  0  0  0  0  0  0  0  0  0
  -28.7186  -20.3174   18.1382 C   0  0  0  0  0  0  0  0  0  0  0  0
  -28.8214  -22.3017   17.1965 C   0  0  0  0  0  0  0  0  0  0  0  0
  -31.0502  -21.3534   17.8141 C   0  0  0  0  0  0  0  0  0  0  0  0
  -22.4729  -29.6573   21.9326 C   0  0  0  0  0  0  0  0  0  0  0  0
  -23.8243  -32.3425   23.1513 C   0  0  0  0  0  0  0  0  0  0  0  0
  -26.4675  -34.5012   23.1754 C   0  0  0  0  0  0  0  0  0  0  0  0
  -23.3489  -22.2464   14.7675 C   0  0  0  0  0  0  0  0  0  0  0  0
  -18.7242  -26.4417   23.2233 C   0  0  0  0  0  0  0  0  0  0  0  0
  -24.7561  -28.8165   22.5927 C   0  0  0  0  0  0  0  0  0  0  0  0
  -24.9141  -31.3629   21.0975 C   0  0  0  0  0  0  0  0  0  0  0  0
  -19.0529  -27.9053   23.5063 C   0  0  0  0  0  0  0  0  0  0  0  0
  -24.4297  -24.1641   17.5659 C   0  0  0  0  0  0  0  0  0  0  0  0
  -19.3972  -28.6351   22.2119 C   0  0  0  0  0  0  0  0  0  0  0  0
  -26.4282  -25.2632   13.4031 C   0  0  0  0  0  0  0  0  0  0  0  0
  -28.4641  -26.2022   12.2408 C   0  0  0  0  0  0  0  0  0  0  0  0
  -26.4139  -26.4638   14.3476 C   0  0  0  0  0  0  0  0  0  0  0  0
  -28.4494  -27.4028   13.1852 C   0  0  0  0  0  0  0  0  0  0  0  0
  -25.7328  -23.4859   17.9927 C   0  0  0  0  0  0  0  0  0  0  0  0
  -23.4002  -23.1492   17.0738 C   0  0  0  0  0  0  0  0  0  0  0  0
  -25.1817  -21.5706   16.4350 C   0  0  0  0  0  0  0  0  0  0  0  0
  -20.6362  -28.0237   21.5466 C   0  0  1  0  0  0  0  0  0  0  0  0
  -23.7046  -29.9098   22.7552 C   0  0  1  0  0  0  0  0  0  0  0  0
  -27.0605  -25.6137   12.0500 C   0  0  0  0  0  0  0  0  0  0  0  0
  -27.8176  -27.0521   14.5382 C   0  0  0  0  0  0  0  0  0  0  0  0
  -26.2708  -22.5587   16.8864 C   0  0  2  0  0  0  0  0  0  0  0  0
  -21.8287  -22.2030   10.2286 C   0  0  0  0  0  0  0  0  0  0  0  0
  -27.2676  -36.6239   24.2484 C   0  0  0  0  0  0  0  0  0  0  0  0
  -21.9306  -33.9494   21.3787 C   0  0  0  0  0  0  0  0  0  0  0  0
  -23.3840  -35.9519   21.7608 C   0  0  0  0  0  0  0  0  0  0  0  0
  -22.2288  -34.8657   23.6866 C   0  0  0  0  0  0  0  0  0  0  0  0
  -28.8238  -33.1536   24.3547 C   0  0  0  0  0  0  0  0  0  0  0  0
  -27.1097  -24.3854   11.1434 C   0  0  0  0  0  0  0  0  0  0  0  0
  -23.4398  -21.2683   12.4885 C   0  0  0  0  0  0  0  0  0  0  0  0
  -27.7695  -28.2798   15.4457 C   0  0  0  0  0  0  0  0  0  0  0  0
  -27.6511  -27.8950   16.9125 C   0  0  0  0  0  0  0  0  0  1  0  0
  -24.1914  -33.6993   22.6003 C   0  0  1  0  0  0  0  0  0  0  0  0
  -27.2648  -35.1047   24.3175 C   0  0  2  0  0  0  0  0  0  0  0  0
  -22.9446  -34.5927   22.3457 C   0  0  0  0  0  0  0  0  0  0  0  0
  -27.4454  -20.6371   17.8917 N   0  0  0  0  0  0  0  0  0  0  0  0
  -27.5406  -21.8492   17.3191 N   0  0  0  0  0  0  0  0  0  0  0  0
  -24.2040  -31.2344   22.3807 N   0  0  0  0  0  0  0  0  0  0  0  0
  -23.9730  -22.3023   16.0247 N   0  0  0  0  0  0  0  0  0  0  0  0
  -29.0971  -23.5016   16.6427 N   0  0  0  0  0  0  0  0  0  0  0  0
  -31.7121  -20.2586   18.3865 N   0  0  0  0  0  0  0  0  0  0  0  0
  -21.8398  -28.4629   22.2195 N   0  0  0  0  0  0  0  0  0  0  0  0
  -25.1559  -34.2714   23.5335 N   0  0  0  0  0  0  0  0  0  0  0  0
  -23.9601  -21.4247   13.8285 N   0  0  0  0  0  0  0  0  0  0  0  0
  -28.6765  -34.6295   24.2716 N   0  3  0  0  0  0  0  0  0  0  0  0
  -31.7205  -22.3347   17.4125 O   0  0  0  0  0  0  0  0  0  0  0  0
  -22.1219  -30.4854   21.1003 O   0  0  0  0  0  0  0  0  0  0  0  0
  -23.2291  -32.2684   24.2292 O   0  0  0  0  0  0  0  0  0  0  0  0
  -26.9582  -34.2613   22.0743 O   0  0  0  0  0  0  0  0  0  0  0  0
  -22.3259  -22.8859   14.5000 O   0  0  0  0  0  0  0  0  0  0  0  0
  -29.9681  -15.4359   20.5623 O   0  0  0  0  0  0  0  0  0  0  0  0
  -27.5965  -29.0847   17.6986 O   0  0  0  0  0  0  0  0  0  1  0  0
  -27.4149  -10.9204   18.6925 F   0  0  0  0  0  0  0  0  0  0  0  0
  -22.9715  -24.1647    8.5781 F   0  0  0  0  0  0  0  0  0  0  0  0
  -27.2133  -15.2232   20.6548 F   0  0  0  0  0  0  0  0  0  0  0  0
  1  2  1  0  0  0  0
  1  5  2  0  0  0  0
  2  6  2  0  0  0  0
  3  8  2  0  0  0  0
  3 17  1  0  0  0  0
  4  9  1  0  0  0  0
  4 17  2  0  0  0  0
  5 19  1  0  0  0  0
  6 21  1  0  0  0  0
  7 10  2  0  0  0  0
  7 20  1  0  0  0  0
  8 26  1  0  0  0  0
  9 26  2  0  0  0  0
 10 27  1  0  0  0  0
 11 12  2  0  0  0  0
 11 28  1  0  0  0  0
 12 29  1  0  0  0  0
 13 22  1  0  0  0  0
 13 27  2  0  0  0  0
 14 23  2  0  0  0  0
 14 24  1  0  0  0  0
 15 23  1  0  0  0  0
 15 30  2  0  0  0  0
 16 29  2  0  0  0  0
 16 31  1  0  0  0  0
 17 32  1  0  0  0  0
 18 32  1  0  0  0  0
 18 33  2  0  0  0  0
 18 34  1  0  0  0  0
 19 21  2  0  0  0  0
 19 39  1  0  0  0  0
 20 22  2  0  0  0  0
 20 40  1  0  0  0  0
 21 52  1  0  0  0  0
 22 41  1  0  0  0  0
 23 63  1  0  0  0  0
 24 25  2  0  0  0  0
 24 64  1  0  0  0  0
 25 30  1  0  0  0  0
 25 57  1  0  0  0  0
 26 85  1  0  0  0  0
 27 86  1  0  0  0  0
 28 31  2  0  0  0  0
 28 85  1  0  0  0  0
 29 87  1  0  0  0  0
 30 88  1  0  0  0  0
 31 89  1  0  0  0  0
 32 70  2  0  0  0  0
 33 71  1  0  0  0  0
 33 74  1  0  0  0  0
 34 75  1  0  0  0  0
 34 80  2  0  0  0  0
 35 53  1  0  0  0  0
 35 76  1  0  0  0  0
 35 81  2  0  0  0  0
 36 67  1  0  0  0  0
 36 72  1  0  0  0  0
 36 82  2  0  0  0  0
 37 68  1  0  0  0  0
 37 77  1  0  0  0  0
 37 83  2  0  0  0  0
 38 73  1  0  0  0  0
 38 78  1  0  0  0  0
 38 84  2  0  0  0  0
 39 42  1  0  0  0  0
 40 53  1  0  0  0  0
 41 72  1  0  0  0  0
 42 44  1  0  0  0  0
 43 49  1  0  0  0  0
 43 50  1  0  0  0  0
 44 52  1  0  0  0  0
 45 47  1  0  0  0  0
 45 54  1  0  0  0  0
 46 48  1  0  0  0  0
 46 54  1  0  0  0  0
 47 55  1  0  0  0  0
 48 55  1  0  0  0  0
 49 56  1  0  0  0  0
 50 73  1  0  0  0  0
 51 56  1  0  0  0  0
 51 73  1  0  0  0  0
 52 76  1  0  0  0  0
 53 72  1  0  0  0  0
 54 63  1  0  0  0  0
 55 65  1  0  0  0  0
 56 71  1  0  0  0  0
 58 68  1  0  0  0  0
 59 69  1  0  0  0  0
 60 69  1  0  0  0  0
 61 69  1  0  0  0  0
 62 79  1  0  0  0  0
 64 78  1  0  0  0  0
 65 66  1  0  0  0  0
 66 86  1  0  0  0  0
 67 69  1  0  0  0  0
 67 77  1  0  0  0  0
 68 79  1  0  0  0  0
 70 71  1  0  0  0  0
M  CHG  1  79   1
M  ISO  4  38 100  66 101  78 100  86 101
M  END
> <Batch ID>
0033

> <Smiles>
CNC(C)C(=O)NC(C(=O)N1Cc2cc([101O:1][101CH2:1]CC3CCC(Cc4cc(F)c(C)c(C[100NH:0][100C:0](=O)N5CCCC(n6nc(-c7ccc(Oc8ccc(F)cc8F)cc7)c(C(N)=O)c6N)C5)c4)CC3)ccc2CC1C(=O)NC1CCCc2ccccc21)C(C)(C)C

> <Shape>
0.226

> <Color>
0.093

> <Negative vol penalty>
0.000

$$$$

  -OEChem-04052316483D

 79 87  0     1  0  0  0  0  0999 V2000
  -23.4171   -7.8170   21.2422 C   0  0  0  0  0  0  0  0  0  0  0  0
  -24.2896   -8.8705   20.9885 C   0  0  0  0  0  0  0  0  0  0  0  0
  -21.3252  -26.0543   23.0416 C   0  0  0  0  0  0  0  0  0  0  0  0
  -21.6428  -26.3230   20.6617 C   0  0  0  0  0  0  0  0  0  0  0  0
  -22.0474   -8.0567   21.3432 C   0  0  0  0  0  0  0  0  0  0  0  0
  -23.7926  -10.1643   20.8345 C   0  0  0  0  0  0  0  0  0  0  0  0
  -26.5017  -15.3783   22.5609 C   0  0  0  0  0  0  0  0  0  0  0  0
  -20.0510  -26.6115   22.9345 C   0  0  0  0  0  0  0  0  0  0  0  0
  -20.3686  -26.8801   20.5545 C   0  0  0  0  0  0  0  0  0  0  0  0
  -27.2504  -16.3230   21.8603 C   0  0  0  0  0  0  0  0  0  0  0  0
  -16.8532  -28.2942   23.3424 C   0  0  0  0  0  0  0  0  0  0  0  0
  -16.4802  -29.2501   24.2872 C   0  0  0  0  0  0  0  0  0  0  0  0
  -25.2677  -17.6645   21.5625 C   0  0  0  0  0  0  0  0  0  0  0  0
  -18.3217  -30.6527   23.5953 C   0  0  0  0  0  0  0  0  0  0  0  0
  -30.1542  -20.2947   18.0795 C   0  0  0  0  0  0  0  0  0  0  0  0
  -22.1212  -25.9101   21.9052 C   0  0  0  0  0  0  0  0  0  0  0  0
  -23.7673  -24.0491   22.4835 C   0  0  0  0  0  0  0  0  0  0  0  0
  -21.5343   -9.3555   21.2000 C   0  0  0  0  0  0  0  0  0  0  0  0
  -25.1260  -15.5646   22.7585 C   0  0  0  0  0  0  0  0  0  0  0  0
  -22.4146  -10.4213   20.9324 C   0  0  0  0  0  0  0  0  0  0  0  0
  -24.5043  -16.7219   22.2682 C   0  0  0  0  0  0  0  0  0  0  0  0
  -30.1655  -21.2168   19.1432 C   0  0  0  0  0  0  0  0  0  0  0  0
  -19.5726  -27.0243   21.6910 C   0  0  0  0  0  0  0  0  0  0  0  0
  -26.6328  -17.4649   21.3585 C   0  0  0  0  0  0  0  0  0  0  0  0
  -17.9605  -28.5175   22.5241 C   0  0  0  0  0  0  0  0  0  0  0  0
  -17.2143  -30.4293   24.4136 C   0  0  0  0  0  0  0  0  0  0  0  0
  -18.6947  -29.6967   22.6505 C   0  0  0  0  0  0  0  0  0  0  0  0
  -23.4378  -25.3352   22.0153 C   0  0  0  0  0  0  0  0  0  0  0  0
  -29.6385  -20.5229   20.2048 C   0  0  0  0  0  0  0  0  0  0  0  0
  -25.1364  -23.9900   22.3900 C   0  0  0  0  0  0  0  0  0  0  0  0
  -22.9124  -23.0014   22.9601 C   0  0  0  0  0  0  0  0  0  0  0  0
  -22.5030  -13.9849   21.9049 C   0  0  0  0  0  0  0  0  0  0  0  0
  -21.0377  -16.1803   23.7906 C   0  0  0  0  0  0  0  0  0  0  0  0
  -21.1119  -19.2731   25.2314 C   0  0  0  0  0  0  0  0  0  0  0  0
  -29.8675  -24.9244   19.5812 C   0  0  0  0  0  0  0  0  0  0  0  0
  -20.0415   -9.5582   21.2705 C   0  0  0  0  0  0  0  0  0  0  0  0
  -24.3377  -14.5492   23.5394 C   0  0  0  0  0  0  0  0  0  0  0  0
  -23.0342  -16.9789   22.4708 C   0  0  0  0  0  0  0  0  0  0  0  0
  -19.6333  -11.0160   21.4669 C   0  0  0  0  0  0  0  0  0  0  0  0
  -28.5340  -27.6252   21.4797 C   0  0  0  0  0  0  0  0  0  0  0  0
  -20.4087  -11.9205   20.5143 C   0  0  0  0  0  0  0  0  0  0  0  0
  -27.1151  -27.1667   21.8213 C   0  0  0  0  0  0  0  0  0  0  0  0
  -28.9529  -27.1712   20.0831 C   0  0  0  0  0  0  0  0  0  0  0  0
  -27.3922  -25.2661   20.1752 C   0  0  0  0  0  0  0  0  0  0  0  0
  -21.9162  -11.8425   20.7840 C   0  0  1  0  0  0  0  0  0  0  0  0
  -22.8430  -14.5917   23.2368 C   0  0  1  0  0  0  0  0  0  0  0  0
  -26.9456  -25.6523   21.5957 C   0  0  2  0  0  0  0  0  0  0  0  0
  -29.3831  -20.9255   21.6009 C   0  0  0  0  0  0  0  0  0  0  0  0
  -19.7542  -20.8012   26.6870 C   0  0  0  0  0  0  0  0  0  0  0  0
  -19.2201  -16.8159   21.4237 C   0  0  0  0  0  0  0  0  0  0  0  0
  -18.5608  -18.9321   22.5878 C   0  0  0  0  0  0  0  0  0  0  0  0
  -18.0582  -16.7252   23.6364 C   0  0  0  0  0  0  0  0  0  0  0  0
  -23.2054  -19.3310   27.3226 C   0  0  0  0  0  0  0  0  0  0  0  0
  -30.6377  -22.6112   19.1173 C   0  0  0  0  0  0  0  0  0  0  0  0
  -28.7574  -18.1290   20.5023 C   0  0  0  0  0  0  0  0  0  1  0  0
  -20.4465  -17.5522   23.5730 C   0  0  1  0  0  0  0  0  0  0  0  0
  -20.8326  -19.7295   26.6520 C   0  0  2  0  0  0  0  0  0  0  0  0
  -19.0987  -17.5009   22.7996 C   0  0  0  0  0  0  0  0  0  0  0  0
  -29.6595  -19.1056   18.4333 N   0  0  0  0  0  0  0  0  0  0  0  0
  -24.5110  -26.0422   21.6517 N   0  0  0  0  0  0  0  0  0  0  0  0
  -29.3550  -19.2757   19.7311 N   0  0  0  0  0  0  0  0  0  0  0  0
  -25.5284  -25.1974   21.8913 N   0  0  0  0  0  0  0  0  0  0  0  0
  -22.3051  -15.9536   23.2354 N   0  0  0  0  0  0  0  0  0  0  0  0
  -28.7692  -25.7254   19.9351 N   0  0  0  0  0  0  0  0  0  0  0  0
  -26.0311  -23.0236   22.6866 N   0  0  0  0  0  0  0  0  0  0  0  0
  -22.4168  -22.0712   22.0363 N   0  0  0  0  0  0  0  0  0  0  0  0
  -22.2620  -12.6251   21.9512 N   0  0  0  0  0  0  0  0  0  0  0  0
  -20.3560  -18.1713   24.8909 N   0  0  0  0  0  0  0  0  0  0  0  0
  -29.6081  -23.5640   19.4682 N   0  0  0  0  0  0  0  0  0  0  0  0
  -22.0691  -20.2866   27.2698 N   0  3  0  0  0  0  0  0  0  0  0  0
  -22.5840  -22.9030   24.1668 O   0  0  0  0  0  0  0  0  0  0  0  0
  -22.4609  -14.6980   20.9092 O   0  0  0  0  0  0  0  0  0  0  0  0
  -20.4017  -15.3431   24.4356 O   0  0  0  0  0  0  0  0  0  0  0  0
  -21.9173  -19.8397   24.4960 O   0  0  0  0  0  0  0  0  0  0  0  0
  -30.9967  -25.3866   19.3861 O   0  0  0  0  0  0  0  0  0  0  0  0
  -18.3292  -27.5678   21.5860 O   0  0  0  0  0  0  0  0  0  0  0  0
  -27.3611  -18.3883   20.6738 O   0  0  0  0  0  0  0  0  0  1  0  0
  -16.8551  -31.3479   25.3199 F   0  0  0  0  0  0  0  0  0  0  0  0
  -19.7588  -29.9174   21.8663 F   0  0  0  0  0  0  0  0  0  0  0  0
  1  2  1  0  0  0  0
  1  5  2  0  0  0  0
  2  6  2  0  0  0  0
  3  8  2  0  0  0  0
  3 16  1  0  0  0  0
  4  9  1  0  0  0  0
  4 16  2  0  0  0  0
  5 18  1  0  0  0  0
  6 20  1  0  0  0  0
  7 10  2  0  0  0  0
  7 19  1  0  0  0  0
  8 23  1  0  0  0  0
  9 23  2  0  0  0  0
 10 24  1  0  0  0  0
 11 12  2  0  0  0  0
 11 25  1  0  0  0  0
 12 26  1  0  0  0  0
 13 21  1  0  0  0  0
 13 24  2  0  0  0  0
 14 26  2  0  0  0  0
 14 27  1  0  0  0  0
 15 22  1  0  0  0  0
 15 59  2  0  0  0  0
 16 28  1  0  0  0  0
 17 28  1  0  0  0  0
 17 30  2  0  0  0  0
 17 31  1  0  0  0  0
 18 20  2  0  0  0  0
 18 36  1  0  0  0  0
 19 21  2  0  0  0  0
 19 37  1  0  0  0  0
 20 45  1  0  0  0  0
 21 38  1  0  0  0  0
 22 29  2  0  0  0  0
 22 54  1  0  0  0  0
 23 76  1  0  0  0  0
 24 77  1  0  0  0  0
 25 27  2  0  0  0  0
 25 76  1  0  0  0  0
 26 78  1  0  0  0  0
 27 79  1  0  0  0  0
 28 60  2  0  0  0  0
 29 48  1  0  0  0  0
 29 61  1  0  0  0  0
 30 62  1  0  0  0  0
 30 65  1  0  0  0  0
 31 66  1  0  0  0  0
 31 71  2  0  0  0  0
 32 46  1  0  0  0  0
 32 67  1  0  0  0  0
 32 72  2  0  0  0  0
 33 56  1  0  0  0  0
 33 63  1  0  0  0  0
 33 73  2  0  0  0  0
 34 57  1  0  0  0  0
 34 68  1  0  0  0  0
 34 74  2  0  0  0  0
 35 64  1  0  0  0  0
 35 69  1  0  0  0  0
 35 75  2  0  0  0  0
 36 39  1  0  0  0  0
 37 46  1  0  0  0  0
 38 63  1  0  0  0  0
 39 41  1  0  0  0  0
 40 42  1  0  0  0  0
 40 43  1  0  0  0  0
 41 45  1  0  0  0  0
 42 47  1  0  0  0  0
 43 64  1  0  0  0  0
 44 47  1  0  0  0  0
 44 64  1  0  0  0  0
 45 67  1  0  0  0  0
 46 63  1  0  0  0  0
 47 62  1  0  0  0  0
 49 57  1  0  0  0  0
 50 58  1  0  0  0  0
 51 58  1  0  0  0  0
 52 58  1  0  0  0  0
 53 70  1  0  0  0  0
 54 69  1  0  0  0  0
 55 61  1  0  0  0  0
 55 77  1  0  0  0  0
 56 58  1  0  0  0  0
 56 68  1  0  0  0  0
 57 70  1  0  0  0  0
 59 61  1  0  0  0  0
 60 62  1  0  0  0  0
M  CHG  1  70   1
M  ISO  4  35 100  55 101  69 100  77 101
M  END
> <Batch ID>
0033

> <Smiles>
CNC(C)C(=O)NC(C(=O)N1Cc2cc([101O:1][101CH2:1]n3ncc(C[100NH:0][100C:0](=O)N4CCCC(n5nc(-c6ccc(Oc7ccc(F)cc7F)cc6)c(C(N)=O)c5N)C4)c3C)ccc2CC1C(=O)NC1CCCc2ccccc21)C(C)(C)C

> <Shape>
0.194

> <Color>
0.093

> <Negative vol penalty>
0.000

$$$$

  -OEChem-04052316483D

 90 98  0     1  0  0  0  0  0999 V2000
  -16.8600  -29.9117   24.5177 C   0  0  0  0  0  0  0  0  0  0  0  0
  -17.4491  -28.6827   24.2387 C   0  0  0  0  0  0  0  0  0  0  0  0
  -24.0456   -9.5575   21.7427 C   0  0  0  0  0  0  0  0  0  0  0  0
  -24.4947  -10.8515   23.7329 C   0  0  0  0  0  0  0  0  0  0  0  0
  -17.3160  -31.0634   23.8776 C   0  0  0  0  0  0  0  0  0  0  0  0
  -18.4940  -28.6045   23.3187 C   0  0  0  0  0  0  0  0  0  0  0  0
  -22.3099  -25.7048   24.9546 C   0  0  0  0  0  0  0  0  0  0  0  0
  -23.5891   -8.5019   22.5320 C   0  0  0  0  0  0  0  0  0  0  0  0
  -24.0382   -9.7960   24.5222 C   0  0  0  0  0  0  0  0  0  0  0  0
  -22.1415  -24.3234   24.8699 C   0  0  0  0  0  0  0  0  0  0  0  0
  -20.7800   -7.6972   24.2332 C   0  0  0  0  0  0  0  0  0  0  0  0
  -19.5953   -7.0676   23.8516 C   0  0  0  0  0  0  0  0  0  0  0  0
  -23.4692  -24.2911   22.8561 C   0  0  0  0  0  0  0  0  0  0  0  0
  -22.9289  -19.4351   24.5048 C   0  0  0  0  0  0  0  0  0  0  0  0
  -20.5211  -19.5246   24.3272 C   0  0  0  0  0  0  0  0  0  0  0  0
  -20.7798   -4.9737   23.6290 C   0  0  0  0  0  0  0  0  0  0  0  0
  -24.4985  -10.7323   22.3431 C   0  0  0  0  0  0  0  0  0  0  0  0
  -24.2097  -12.8870   21.0083 C   0  0  0  0  0  0  0  0  0  0  0  0
  -18.3735  -31.0007   22.9565 C   0  0  0  0  0  0  0  0  0  0  0  0
  -23.0514  -26.3924   23.9830 C   0  0  0  0  0  0  0  0  0  0  0  0
  -18.9638  -29.7562   22.6647 C   0  0  0  0  0  0  0  0  0  0  0  0
  -23.6477  -25.6809   22.9322 C   0  0  0  0  0  0  0  0  0  0  0  0
  -21.7426  -20.1686   24.5242 C   0  0  0  0  0  0  0  0  0  0  0  0
  -22.8937  -18.0576   24.2883 C   0  0  0  0  0  0  0  0  0  0  0  0
  -21.6722  -17.4135   24.0913 C   0  0  0  0  0  0  0  0  0  0  0  0
  -23.5854   -8.6212   23.9218 C   0  0  0  0  0  0  0  0  0  0  0  0
  -22.7188  -23.6168   23.8189 C   0  0  0  0  0  0  0  0  0  0  0  0
  -21.9647   -6.9651   24.3126 C   0  0  0  0  0  0  0  0  0  0  0  0
  -20.4859  -18.1470   24.1108 C   0  0  0  0  0  0  0  0  0  0  0  0
  -19.5952   -5.7058   23.5495 C   0  0  0  0  0  0  0  0  0  0  0  0
  -21.9646   -5.6033   24.0105 C   0  0  0  0  0  0  0  0  0  0  0  0
  -24.9706  -11.8228   21.5283 C   0  0  0  0  0  0  0  0  0  0  0  0
  -25.1155  -13.6477   20.3103 C   0  0  0  0  0  0  0  0  0  0  0  0
  -22.8094  -13.1631   21.1443 C   0  0  0  0  0  0  0  0  0  0  0  0
  -22.4034  -28.6703   21.8629 C   0  0  0  0  0  0  0  0  0  0  0  0
  -25.6043  -28.5607   21.3489 C   0  0  0  0  0  0  0  0  0  0  0  0
  -28.5060  -26.7721   21.5166 C   0  0  0  0  0  0  0  0  0  0  0  0
  -31.0439  -14.3594   20.7556 C   0  0  0  0  0  0  0  0  0  0  0  0
  -18.8006  -32.2654   22.2544 C   0  0  0  0  0  0  0  0  0  0  0  0
  -23.2461  -27.8790   24.1034 C   0  0  0  0  0  0  0  0  0  0  0  0
  -24.4701  -26.3693   21.8747 C   0  0  0  0  0  0  0  0  0  0  0  0
  -20.1615  -32.1533   21.5721 C   0  0  0  0  0  0  0  0  0  0  0  0
  -29.2254  -13.2912   17.8870 C   0  0  0  0  0  0  0  0  0  0  0  0
  -20.2539  -30.8562   20.7749 C   0  0  0  0  0  0  0  0  0  0  0  0
  -27.8601  -12.8897   18.4480 C   0  0  0  0  0  0  0  0  0  0  0  0
  -30.3573  -12.9355   18.8484 C   0  0  0  0  0  0  0  0  0  0  0  0
  -28.8296  -13.0583   20.7783 C   0  0  0  0  0  0  0  0  0  0  0  0
  -20.1160  -29.6344   21.6913 C   0  0  1  0  0  0  0  0  0  0  0  0
  -23.5907  -28.5459   22.7753 C   0  0  1  0  0  0  0  0  0  0  0  0
  -27.6517  -13.4475   19.8688 C   0  0  2  0  0  0  0  0  0  0  0  0
  -21.1868  -15.1710   25.1023 C   0  0  0  0  0  0  0  0  0  0  0  0
  -30.9538  -26.9351   20.9884 C   0  0  0  0  0  0  0  0  0  0  0  0
  -24.9888  -28.1674   18.3864 C   0  0  0  0  0  0  0  0  0  0  0  0
  -27.3505  -27.3994   18.0691 C   0  0  0  0  0  0  0  0  0  0  0  0
  -26.8912  -29.7204   18.8595 C   0  0  0  0  0  0  0  0  0  0  0  0
  -29.2618  -26.3925   24.3527 C   0  0  0  0  0  0  0  0  0  0  0  0
  -18.1225  -18.3624   23.9572 C   0  0  0  0  0  0  0  0  0  0  0  0
  -24.1903  -17.2878   24.2707 C   0  0  0  0  0  0  0  0  0  0  0  0
  -21.6286  -15.9368   23.8597 C   0  0  0  0  0  0  0  0  0  0  0  0
  -21.7807  -21.6417   24.7544 C   0  0  0  0  0  0  0  0  0  1  0  0
  -25.3851  -18.0738   24.8226 C   0  0  0  0  0  0  0  0  0  0  0  0
  -26.6950  -17.2790   24.7828 C   0  0  0  0  0  0  0  0  0  0  0  0
  -27.8637  -18.1132   25.3136 C   0  0  0  0  0  0  0  0  0  0  0  0
  -29.1872  -17.3439   25.3632 C   0  0  0  0  0  0  0  0  0  0  0  0
  -29.6833  -16.8958   23.9857 C   0  0  0  0  0  0  0  0  0  0  0  0
  -31.0234  -16.1602   24.0937 C   0  0  0  0  0  0  0  0  0  0  0  0
  -31.5866  -15.7549   22.7348 C   0  0  0  0  0  0  0  0  0  0  0  0
  -26.5138  -27.7779   20.4330 C   0  0  1  0  0  0  0  0  0  0  0  0
  -29.8815  -27.1316   22.0488 C   0  0  2  0  0  0  0  0  0  0  0  0
  -26.4190  -28.2533   18.9557 C   0  0  0  0  0  0  0  0  0  0  0  0
  -26.2604  -11.8973   21.1894 N   0  0  0  0  0  0  0  0  0  0  0  0
  -26.3170  -13.0174   20.4488 N   0  0  0  0  0  0  0  0  0  0  0  0
  -24.6262  -27.8247   22.0326 N   0  0  0  0  0  0  0  0  0  0  0  0
  -30.0993  -13.4956   20.1771 N   0  0  0  0  0  0  0  0  0  0  0  0
  -24.9934  -14.7877   19.5975 N   0  0  0  0  0  0  0  0  0  0  0  0
  -22.0238  -12.2786   21.8958 N   0  0  0  0  0  0  0  0  0  0  0  0
  -21.3544  -29.3919   22.4000 N   0  0  0  0  0  0  0  0  0  0  0  0
  -27.8517  -27.8736   21.0068 N   0  0  0  0  0  0  0  0  0  0  0  0
  -30.7186  -14.8506   22.0140 N   0  0  0  0  0  0  0  0  0  0  0  0
  -30.2210  -26.2803   23.2239 N   0  3  0  0  0  0  0  0  0  0  0  0
  -22.2676  -14.1557   20.6013 O   0  0  0  0  0  0  0  0  0  0  0  0
  -22.4371  -28.1514   20.7533 O   0  0  0  0  0  0  0  0  0  0  0  0
  -25.7607  -29.7793   21.4594 O   0  0  0  0  0  0  0  0  0  0  0  0
  -28.0583  -25.6279   21.5465 O   0  0  0  0  0  0  0  0  0  0  0  0
  -32.0965  -14.6742   20.1900 O   0  0  0  0  0  0  0  0  0  0  0  0
  -23.1399   -7.5915   24.6923 O   0  0  0  0  0  0  0  0  0  0  0  0
  -19.2835  -17.5350   23.9213 O   0  0  0  0  0  0  0  0  0  0  0  0
  -22.5543  -22.2592   23.7329 O   0  0  0  0  0  0  0  0  0  1  0  0
  -18.4571   -5.1010   23.1846 F   0  0  0  0  0  0  0  0  0  0  0  0
  -23.0993   -4.8945   24.0862 F   0  0  0  0  0  0  0  0  0  0  0  0
  1  2  1  0  0  0  0
  1  5  2  0  0  0  0
  2  6  2  0  0  0  0
  3  8  2  0  0  0  0
  3 17  1  0  0  0  0
  4  9  1  0  0  0  0
  4 17  2  0  0  0  0
  5 19  1  0  0  0  0
  6 21  1  0  0  0  0
  7 10  2  0  0  0  0
  7 20  1  0  0  0  0
  8 26  1  0  0  0  0
  9 26  2  0  0  0  0
 10 27  1  0  0  0  0
 11 12  2  0  0  0  0
 11 28  1  0  0  0  0
 12 30  1  0  0  0  0
 13 22  1  0  0  0  0
 13 27  2  0  0  0  0
 14 23  1  0  0  0  0
 14 24  2  0  0  0  0
 15 23  2  0  0  0  0
 15 29  1  0  0  0  0
 16 30  2  0  0  0  0
 16 31  1  0  0  0  0
 17 32  1  0  0  0  0
 18 32  1  0  0  0  0
 18 33  2  0  0  0  0
 18 34  1  0  0  0  0
 19 21  2  0  0  0  0
 19 39  1  0  0  0  0
 20 22  2  0  0  0  0
 20 40  1  0  0  0  0
 21 48  1  0  0  0  0
 22 41  1  0  0  0  0
 23 60  1  0  0  0  0
 24 25  1  0  0  0  0
 24 58  1  0  0  0  0
 25 29  2  0  0  0  0
 25 59  1  0  0  0  0
 26 86  1  0  0  0  0
 27 88  1  0  0  0  0
 28 31  2  0  0  0  0
 28 86  1  0  0  0  0
 29 87  1  0  0  0  0
 30 89  1  0  0  0  0
 31 90  1  0  0  0  0
 32 71  2  0  0  0  0
 33 72  1  0  0  0  0
 33 75  1  0  0  0  0
 34 76  1  0  0  0  0
 34 81  2  0  0  0  0
 35 49  1  0  0  0  0
 35 77  1  0  0  0  0
 35 82  2  0  0  0  0
 36 68  1  0  0  0  0
 36 73  1  0  0  0  0
 36 83  2  0  0  0  0
 37 69  1  0  0  0  0
 37 78  1  0  0  0  0
 37 84  2  0  0  0  0
 38 74  1  0  0  0  0
 38 79  1  0  0  0  0
 38 85  2  0  0  0  0
 39 42  1  0  0  0  0
 40 49  1  0  0  0  0
 41 73  1  0  0  0  0
 42 44  1  0  0  0  0
 43 45  1  0  0  0  0
 43 46  1  0  0  0  0
 44 48  1  0  0  0  0
 45 50  1  0  0  0  0
 46 74  1  0  0  0  0
 47 50  1  0  0  0  0
 47 74  1  0  0  0  0
 48 77  1  0  0  0  0
 49 73  1  0  0  0  0
 50 72  1  0  0  0  0
 51 59  1  0  0  0  0
 52 69  1  0  0  0  0
 53 70  1  0  0  0  0
 54 70  1  0  0  0  0
 55 70  1  0  0  0  0
 56 80  1  0  0  0  0
 57 87  1  0  0  0  0
 58 61  1  0  0  0  0
 60 88  1  0  0  0  0
 61 62  1  0  0  0  0
 62 63  1  0  0  0  0
 63 64  1  0  0  0  0
 64 65  1  0  0  0  0
 65 66  1  0  0  0  0
 66 67  1  0  0  0  0
 67 79  1  0  0  0  0
 68 70  1  0  0  0  0
 68 78  1  0  0  0  0
 69 80  1  0  0  0  0
 71 72  1  0  0  0  0
M  CHG  1  80   1
M  ISO  4  38 100  60 101  79 100  88 101
M  END
> <Batch ID>
0033

> <Smiles>
CCc1c(CCCCCCCC[100NH:0][100C:0](=O)N2CCCC(n3nc(-c4ccc(Oc5ccc(F)cc5F)cc4)c(C(N)=O)c3N)C2)cc([101CH2:1][101O:1]c2ccc3c(c2)CN(C(=O)C(NC(=O)C(C)NC)C(C)(C)C)C(C(=O)NC2CCCc4ccccc42)C3)cc1OC

> <Shape>
0.244

> <Color>
0.154

> <Negative vol penalty>
0.000

$$$$

  -OEChem-04052316483D

 85 93  0     1  0  0  0  0  0999 V2000
  -20.0679  -20.7492   13.5404 C   0  0  0  0  0  0  0  0  0  0  0  0
  -20.6880  -19.8524   14.4044 C   0  0  0  0  0  0  0  0  0  0  0  0
  -27.4907  -23.4665   20.6312 C   0  0  0  0  0  0  0  0  0  0  0  0
  -28.8494  -23.4424   18.6336 C   0  0  0  0  0  0  0  0  0  0  0  0
  -20.0100  -22.1034   13.8671 C   0  0  0  0  0  0  0  0  0  0  0  0
  -21.2516  -20.3094   15.5952 C   0  0  0  0  0  0  0  0  0  0  0  0
  -20.1094  -17.3536   19.5453 C   0  0  0  0  0  0  0  0  0  0  0  0
  -27.5813  -24.8576   20.6760 C   0  0  0  0  0  0  0  0  0  0  0  0
  -28.9399  -24.8336   18.6784 C   0  0  0  0  0  0  0  0  0  0  0  0
  -20.8202  -16.1613   19.6750 C   0  0  0  0  0  0  0  0  0  0  0  0
  -26.1466  -27.4984   19.1266 C   0  0  0  0  0  0  0  0  0  0  0  0
  -24.9772  -28.2164   19.3770 C   0  0  0  0  0  0  0  0  0  0  0  0
  -22.2388  -17.1941   21.3303 C   0  0  0  0  0  0  0  0  0  0  0  0
  -25.6003  -11.4826   19.3414 C   0  0  0  0  0  0  0  0  0  0  0  0
  -26.3125  -12.6217   21.3494 C   0  0  0  0  0  0  0  0  0  0  0  0
  -25.9820  -29.1609   21.3608 C   0  0  0  0  0  0  0  0  0  0  0  0
  -28.1249  -22.7588   19.6100 C   0  0  0  0  0  0  0  0  0  0  0  0
  -27.0524  -20.5538   18.9061 C   0  0  0  0  0  0  0  0  0  0  0  0
  -20.5647  -22.5758   15.0670 C   0  0  0  0  0  0  0  0  0  0  0  0
  -20.4654  -18.4803   20.3005 C   0  0  0  0  0  0  0  0  0  0  0  0
  -21.2023  -21.6714   15.9376 C   0  0  0  0  0  0  0  0  0  0  0  0
  -21.5293  -18.3988   21.2103 C   0  0  0  0  0  0  0  0  0  0  0  0
  -26.6228  -11.9501   20.1670 C   0  0  0  0  0  0  0  0  0  0  0  0
  -24.2674  -11.6868   19.6983 C   0  0  0  0  0  0  0  0  0  0  0  0
  -23.9570  -12.3584   20.8808 C   0  0  0  0  0  0  0  0  0  0  0  0
  -28.3058  -25.5412   19.6996 C   0  0  0  0  0  0  0  0  0  0  0  0
  -21.8870  -16.0822   20.5654 C   0  0  0  0  0  0  0  0  0  0  0  0
  -27.2336  -27.6116   19.9933 C   0  0  0  0  0  0  0  0  0  0  0  0
  -24.8949  -29.0476   20.4941 C   0  0  0  0  0  0  0  0  0  0  0  0
  -27.1513  -28.4428   21.1104 C   0  0  0  0  0  0  0  0  0  0  0  0
  -24.9795  -12.8259   21.7064 C   0  0  0  0  0  0  0  0  0  0  0  0
  -28.0322  -21.3217   19.5635 C   0  0  0  0  0  0  0  0  0  0  0  0
  -27.4074  -19.2520   19.1623 C   0  0  0  0  0  0  0  0  0  0  0  0
  -25.9224  -20.9793   18.1330 C   0  0  0  0  0  0  0  0  0  0  0  0
  -21.4860  -21.4109   19.6124 C   0  0  0  0  0  0  0  0  0  0  0  0
  -21.1613  -21.8535   22.8094 C   0  0  0  0  0  0  0  0  0  0  0  0
  -21.0454  -20.4731   25.9284 C   0  0  0  0  0  0  0  0  0  0  0  0
  -31.2744  -15.2453   19.5348 C   0  0  0  0  0  0  0  0  0  0  0  0
  -20.5192  -24.0556   15.3547 C   0  0  0  0  0  0  0  0  0  0  0  0
  -19.6717  -19.7511   20.1686 C   0  0  0  0  0  0  0  0  0  0  0  0
  -21.9388  -19.5737   22.0590 C   0  0  0  0  0  0  0  0  0  0  0  0
  -20.8109  -24.4020   16.8125 C   0  0  0  0  0  0  0  0  0  0  0  0
  -30.8128  -17.3398   22.3768 C   0  0  0  0  0  0  0  0  0  0  0  0
  -22.0359  -23.6397   17.3075 C   0  0  0  0  0  0  0  0  0  0  0  0
  -29.9732  -18.5015   21.8426 C   0  0  0  0  0  0  0  0  0  0  0  0
  -31.8222  -16.8498   21.3410 C   0  0  0  0  0  0  0  0  0  0  0  0
  -30.4043  -17.6615   19.4958 C   0  0  0  0  0  0  0  0  0  0  0  0
  -21.8034  -22.1250   17.2502 C   0  0  1  0  0  0  0  0  0  0  0  0
  -20.4466  -20.9883   20.6117 C   0  0  1  0  0  0  0  0  0  0  0  0
  -29.3338  -18.1533   20.4849 C   0  0  2  0  0  0  0  0  0  0  0  0
  -23.1930  -11.1765   18.7943 C   0  0  0  0  0  0  0  0  0  0  0  0
  -20.8078  -21.0917   28.3488 C   0  0  0  0  0  0  0  0  0  0  0  0
  -24.0527  -22.8278   22.8417 C   0  0  0  0  0  0  0  0  0  0  0  0
  -24.0552  -22.5207   25.3264 C   0  0  0  0  0  0  0  0  0  0  0  0
  -22.4892  -24.1530   24.2748 C   0  0  0  0  0  0  0  0  0  0  0  0
  -18.5604  -18.8904   26.2088 C   0  0  0  0  0  0  0  0  0  0  0  0
  -28.0478  -11.7305   19.7852 C   0  0  0  0  0  0  0  0  0  0  0  0
  -22.5096  -12.5715   21.2519 C   0  0  0  0  0  0  0  0  0  0  0  0
  -28.6060  -12.8820   18.9344 C   0  0  0  0  0  0  0  0  0  0  0  0
  -30.0576  -12.6269   18.5178 C   0  0  0  0  0  0  0  0  0  0  0  0
  -30.6282  -13.7522   17.6608 C   0  0  0  0  0  0  0  0  0  0  0  0
  -21.8690  -13.7064   20.4602 C   0  0  0  0  0  0  0  0  0  1  0  0
  -22.0592  -21.6757   24.0100 C   0  0  1  0  0  0  0  0  0  0  0  0
  -20.0789  -20.6709   27.0822 C   0  0  2  0  0  0  0  0  0  0  0  0
  -23.1578  -22.7726   24.0960 C   0  0  0  0  0  0  0  0  0  0  0  0
  -28.9413  -20.5703   20.1903 N   0  0  0  0  0  0  0  0  0  0  0  0
  -28.5342  -19.3167   19.9280 N   0  0  0  0  0  0  0  0  0  0  0  0
  -21.1358  -20.7960   21.8893 N   0  0  0  0  0  0  0  0  0  0  0  0
  -31.1514  -16.5352   20.0772 N   0  0  0  0  0  0  0  0  0  0  0  0
  -26.8625  -18.0697   18.8051 N   0  0  0  0  0  0  0  0  0  0  0  0
  -25.7044  -22.3541   17.9691 N   0  0  0  0  0  0  0  0  0  0  0  0
  -20.9782  -21.6980   18.3597 N   0  0  0  0  0  0  0  0  0  0  0  0
  -21.1797  -21.6185   25.1725 N   0  0  0  0  0  0  0  0  0  0  0  0
  -30.6020  -15.0294   18.3381 N   0  0  0  0  0  0  0  0  0  0  0  0
  -19.3412  -19.4067   27.3624 N   0  3  0  0  0  0  0  0  0  0  0  0
  -25.1201  -20.1647   17.6169 O   0  0  0  0  0  0  0  0  0  0  0  0
  -22.6615  -21.4735   19.9531 O   0  0  0  0  0  0  0  0  0  0  0  0
  -20.5013  -22.8895   22.6960 O   0  0  0  0  0  0  0  0  0  0  0  0
  -21.6262  -19.4101   25.7207 O   0  0  0  0  0  0  0  0  0  0  0  0
  -31.9300  -14.3508   20.0796 O   0  0  0  0  0  0  0  0  0  0  0  0
  -28.3941  -26.8987   19.7429 O   0  0  0  0  0  0  0  0  0  0  0  0
  -22.5829  -14.9198   20.6934 O   0  0  0  0  0  0  0  0  0  1  0  0
  -23.7725  -29.7382   20.7336 F   0  0  0  0  0  0  0  0  0  0  0  0
  -28.1928  -28.5565   21.9460 F   0  0  0  0  0  0  0  0  0  0  0  0
  -24.6366  -13.6600   23.1787 Cl  0  0  0  0  0  0  0  0  0  0  0  0
  1  2  1  0  0  0  0
  1  5  2  0  0  0  0
  2  6  2  0  0  0  0
  3  8  2  0  0  0  0
  3 17  1  0  0  0  0
  4  9  1  0  0  0  0
  4 17  2  0  0  0  0
  5 19  1  0  0  0  0
  6 21  1  0  0  0  0
  7 10  2  0  0  0  0
  7 20  1  0  0  0  0
  8 26  1  0  0  0  0
  9 26  2  0  0  0  0
 10 27  1  0  0  0  0
 11 12  2  0  0  0  0
 11 28  1  0  0  0  0
 12 29  1  0  0  0  0
 13 22  1  0  0  0  0
 13 27  2  0  0  0  0
 14 23  1  0  0  0  0
 14 24  2  0  0  0  0
 15 23  2  0  0  0  0
 15 31  1  0  0  0  0
 16 29  2  0  0  0  0
 16 30  1  0  0  0  0
 17 32  1  0  0  0  0
 18 32  1  0  0  0  0
 18 33  2  0  0  0  0
 18 34  1  0  0  0  0
 19 21  2  0  0  0  0
 19 39  1  0  0  0  0
 20 22  2  0  0  0  0
 20 40  1  0  0  0  0
 21 48  1  0  0  0  0
 22 41  1  0  0  0  0
 23 57  1  0  0  0  0
 24 25  1  0  0  0  0
 24 51  1  0  0  0  0
 25 31  2  0  0  0  0
 25 58  1  0  0  0  0
 26 81  1  0  0  0  0
 27 82  1  0  0  0  0
 28 30  2  0  0  0  0
 28 81  1  0  0  0  0
 29 83  1  0  0  0  0
 30 84  1  0  0  0  0
 31 85  1  0  0  0  0
 32 66  2  0  0  0  0
 33 67  1  0  0  0  0
 33 70  1  0  0  0  0
 34 71  1  0  0  0  0
 34 76  2  0  0  0  0
 35 49  1  0  0  0  0
 35 72  1  0  0  0  0
 35 77  2  0  0  0  0
 36 63  1  0  0  0  0
 36 68  1  0  0  0  0
 36 78  2  0  0  0  0
 37 64  1  0  0  0  0
 37 73  1  0  0  0  0
 37 79  2  0  0  0  0
 38 69  1  0  0  0  0
 38 74  1  0  0  0  0
 38 80  2  0  0  0  0
 39 42  1  0  0  0  0
 40 49  1  0  0  0  0
 41 68  1  0  0  0  0
 42 44  1  0  0  0  0
 43 45  1  0  0  0  0
 43 46  1  0  0  0  0
 44 48  1  0  0  0  0
 45 50  1  0  0  0  0
 46 69  1  0  0  0  0
 47 50  1  0  0  0  0
 47 69  1  0  0  0  0
 48 72  1  0  0  0  0
 49 68  1  0  0  0  0
 50 67  1  0  0  0  0
 52 64  1  0  0  0  0
 53 65  1  0  0  0  0
 54 65  1  0  0  0  0
 55 65  1  0  0  0  0
 56 75  1  0  0  0  0
 57 59  1  0  0  0  0
 58 62  1  0  0  0  0
 59 60  1  0  0  0  0
 60 61  1  0  0  0  0
 61 74  1  0  0  0  0
 62 82  1  0  0  0  0
 63 65  1  0  0  0  0
 63 73  1  0  0  0  0
 64 75  1  0  0  0  0
 66 67  1  0  0  0  0
M  CHG  1  75   1
M  ISO  4  38 100  62 101  74 100  82 101
M  END
> <Batch ID>
0033

> <Smiles>
CNC(C)C(=O)NC(C(=O)N1Cc2cc([101O:1][101CH2:1]Cc3c(C)cc(CCCC[100NH:0][100C:0](=O)N4CCCC(n5nc(-c6ccc(Oc7ccc(F)cc7F)cc6)c(C(N)=O)c5N)C4)cc3Cl)ccc2CC1C(=O)NC1CCCc2ccccc21)C(C)(C)C

> <Shape>
0.189

> <Color>
0.106

> <Negative vol penalty>
0.000

$$$$

  -OEChem-04052316483D

 83 91  0     1  0  0  0  0  0999 V2000
  -24.8409   -3.3174   38.0065 C   0  0  0  0  0  0  0  0  0  0  0  0
  -25.6386   -4.4525   37.9037 C   0  0  0  0  0  0  0  0  0  0  0  0
  -23.1862   -9.8192   19.9307 C   0  0  0  0  0  0  0  0  0  0  0  0
  -23.5601   -9.9996   22.3108 C   0  0  0  0  0  0  0  0  0  0  0  0
  -24.3844   -2.6808   36.8531 C   0  0  0  0  0  0  0  0  0  0  0  0
  -25.9812   -4.9511   36.6474 C   0  0  0  0  0  0  0  0  0  0  0  0
  -27.3133  -11.1231   33.2638 C   0  0  0  0  0  0  0  0  0  0  0  0
  -22.4174   -8.6740   20.1383 C   0  0  0  0  0  0  0  0  0  0  0  0
  -22.7912   -8.8544   22.5184 C   0  0  0  0  0  0  0  0  0  0  0  0
  -28.2792  -11.7220   32.4563 C   0  0  0  0  0  0  0  0  0  0  0  0
  -21.2259   -5.7738   23.6451 C   0  0  0  0  0  0  0  0  0  0  0  0
  -21.7187   -4.8133   24.5283 C   0  0  0  0  0  0  0  0  0  0  0  0
  -27.3675  -10.5859   30.5335 C   0  0  0  0  0  0  0  0  0  0  0  0
  -23.6796   -4.5453   23.1426 C   0  0  0  0  0  0  0  0  0  0  0  0
  -23.7576  -10.4820   21.0170 C   0  0  0  0  0  0  0  0  0  0  0  0
  -24.1015  -12.9979   20.7731 C   0  0  0  0  0  0  0  0  0  0  0  0
  -24.7135   -3.1775   35.5821 C   0  0  0  0  0  0  0  0  0  0  0  0
  -26.3725  -10.2411   32.7131 C   0  0  0  0  0  0  0  0  0  0  0  0
  -25.5297   -4.3198   35.4759 C   0  0  0  0  0  0  0  0  0  0  0  0
  -26.3891   -9.9790   31.3357 C   0  0  0  0  0  0  0  0  0  0  0  0
  -22.2199   -8.1916   21.4321 C   0  0  0  0  0  0  0  0  0  0  0  0
  -28.3082  -11.4512   31.0914 C   0  0  0  0  0  0  0  0  0  0  0  0
  -21.9598   -6.1200   22.5105 C   0  0  0  0  0  0  0  0  0  0  0  0
  -22.9456   -4.1991   24.2771 C   0  0  0  0  0  0  0  0  0  0  0  0
  -23.1867   -5.5058   22.2593 C   0  0  0  0  0  0  0  0  0  0  0  0
  -24.5524  -11.6646   20.8032 C   0  0  0  0  0  0  0  0  0  0  0  0
  -25.2345  -13.7384   20.5399 C   0  0  0  0  0  0  0  0  0  0  0  0
  -22.7769  -13.5203   20.9412 C   0  0  0  0  0  0  0  0  0  0  0  0
  -25.6649   -7.1702   33.1285 C   0  0  0  0  0  0  0  0  0  0  0  0
  -23.2060   -7.8684   31.1314 C   0  0  0  0  0  0  0  0  0  0  0  0
  -21.9460   -9.8821   28.6810 C   0  0  0  0  0  0  0  0  0  0  0  0
  -31.0707  -12.1709   21.5770 C   0  0  0  0  0  0  0  0  0  0  0  0
  -24.2356   -2.4279   34.3637 C   0  0  0  0  0  0  0  0  0  0  0  0
  -25.3203   -9.6240   33.5933 C   0  0  0  0  0  0  0  0  0  0  0  0
  -25.3886   -9.0554   30.6921 C   0  0  0  0  0  0  0  0  0  0  0  0
  -24.3338   -3.2374   33.0732 C   0  0  0  0  0  0  0  0  0  0  0  0
  -29.5317  -13.4817   18.4699 C   0  0  0  0  0  0  0  0  0  0  0  0
  -25.6938   -3.9209   32.9739 C   0  0  0  0  0  0  0  0  0  0  0  0
  -28.0468  -13.2008   18.6932 C   0  0  0  0  0  0  0  0  0  0  0  0
  -32.2297  -12.1074   24.8465 C   0  0  0  0  0  0  0  0  0  0  0  0
  -30.5088  -13.9367   24.5734 C   0  0  0  0  0  0  0  0  0  0  0  0
  -30.4150  -12.4890   19.2189 C   0  0  0  0  0  0  0  0  0  0  0  0
  -31.4402  -11.2613   23.8511 C   0  0  0  0  0  0  0  0  0  0  0  0
  -29.7654  -13.0618   23.5597 C   0  0  0  0  0  0  0  0  0  0  0  0
  -28.6377  -12.1259   20.9017 C   0  0  0  0  0  0  0  0  0  0  0  0
  -25.9023   -4.9054   34.1311 C   0  0  1  0  0  0  0  0  0  0  0  0
  -24.7318   -8.3421   33.0121 C   0  0  1  0  0  0  0  0  0  0  0  0
  -27.7216  -13.1367   20.1954 C   0  0  2  0  0  0  0  0  0  0  0  0
  -31.2981  -13.0826   25.5633 C   0  0  0  0  0  0  0  0  0  0  0  0
  -19.9268  -10.1808   27.2212 C   0  0  0  0  0  0  0  0  0  0  0  0
  -33.7723  -14.0343   28.2332 C   0  0  0  0  0  0  0  0  0  0  0  0
  -24.1238   -5.5379   29.3889 C   0  0  0  0  0  0  0  0  0  0  0  0
  -22.7164   -6.4604   27.5352 C   0  0  0  0  0  0  0  0  0  0  0  0
  -21.6449   -5.7222   29.6635 C   0  0  0  0  0  0  0  0  0  0  0  0
  -21.3864  -12.5621   29.8048 C   0  0  0  0  0  0  0  0  0  0  0  0
  -31.4100  -15.2771   26.7348 C   0  0  0  0  0  0  0  0  0  0  0  0
  -31.6195  -12.2737   29.8643 C   0  0  0  0  0  0  0  0  0  0  0  0
  -31.4103  -13.2792   28.7243 C   0  0  0  0  0  0  0  0  0  0  0  0
  -30.5046  -12.3433   30.9023 C   0  0  0  0  0  0  0  0  0  1  0  0
  -23.0063   -7.8523   29.6351 C   0  0  1  0  0  0  0  0  0  0  0  0
  -20.5978  -10.5634   28.5312 C   0  0  2  0  0  0  0  0  0  0  0  0
  -32.5542  -13.2889   27.7037 C   0  0  1  0  0  0  0  0  0  0  0  0
  -22.8931   -6.4092   29.0678 C   0  0  0  0  0  0  0  0  0  0  0  0
  -25.8691  -11.5610   20.6046 N   0  0  0  0  0  0  0  0  0  0  0  0
  -26.2553  -12.8386   20.4476 N   0  0  0  0  0  0  0  0  0  0  0  0
  -24.3835   -8.4715   31.5957 N   0  0  0  0  0  0  0  0  0  0  0  0
  -30.0561  -12.4102   20.6351 N   0  0  0  0  0  0  0  0  0  0  0  0
  -30.6837  -12.1053   22.9241 N   0  0  0  0  0  0  0  0  0  0  0  0
  -25.4471  -15.0648   20.4066 N   0  0  0  0  0  0  0  0  0  0  0  0
  -21.7281  -12.6201   21.1734 N   0  0  0  0  0  0  0  0  0  0  0  0
  -25.1692   -6.1299   33.8911 N   0  0  0  0  0  0  0  0  0  0  0  0
  -21.8431   -8.6918   29.3694 N   0  0  0  0  0  0  0  0  0  0  0  0
  -20.7598  -12.0446   28.5613 N   0  3  0  0  0  0  0  0  0  0  0  0
  -32.1062  -13.9728   26.4363 N   0  3  1  0  0  0  0  0  0  0  0  0
  -22.5281  -14.7478   20.8707 O   0  0  0  0  0  0  0  0  0  0  0  0
  -26.7534   -7.2064   32.5667 O   0  0  0  0  0  0  0  0  0  0  0  0
  -22.3454   -7.3708   31.8617 O   0  0  0  0  0  0  0  0  0  0  0  0
  -22.9859  -10.3563   28.2289 O   0  0  0  0  0  0  0  0  0  0  0  0
  -32.2508  -12.0269   21.2336 O   0  0  0  0  0  0  0  0  0  0  0  0
  -21.4695   -7.0743   21.6350 O   0  0  0  0  0  0  0  0  0  0  0  0
  -29.2574  -12.0383   30.2950 O   0  0  0  0  0  0  0  0  0  1  0  0
  -23.4195   -3.2779   25.1262 F   0  0  0  0  0  0  0  0  0  0  0  0
  -23.8969   -5.8351   21.1717 F   0  0  0  0  0  0  0  0  0  0  0  0
  1  2  1  0  0  0  0
  1  5  2  0  0  0  0
  2  6  2  0  0  0  0
  3  8  2  0  0  0  0
  3 15  1  0  0  0  0
  4  9  1  0  0  0  0
  4 15  2  0  0  0  0
  5 17  1  0  0  0  0
  6 19  1  0  0  0  0
  7 10  2  0  0  0  0
  7 18  1  0  0  0  0
  8 21  1  0  0  0  0
  9 21  2  0  0  0  0
 10 22  1  0  0  0  0
 11 12  2  0  0  0  0
 11 23  1  0  0  0  0
 12 24  1  0  0  0  0
 13 20  1  0  0  0  0
 13 22  2  0  0  0  0
 14 24  2  0  0  0  0
 14 25  1  0  0  0  0
 15 26  1  0  0  0  0
 16 26  1  0  0  0  0
 16 27  2  0  0  0  0
 16 28  1  0  0  0  0
 17 19  2  0  0  0  0
 17 33  1  0  0  0  0
 18 20  2  0  0  0  0
 18 34  1  0  0  0  0
 19 46  1  0  0  0  0
 20 35  1  0  0  0  0
 21 80  1  0  0  0  0
 22 81  1  0  0  0  0
 23 25  2  0  0  0  0
 23 80  1  0  0  0  0
 24 82  1  0  0  0  0
 25 83  1  0  0  0  0
 26 64  2  0  0  0  0
 27 65  1  0  0  0  0
 27 69  1  0  0  0  0
 28 70  1  0  0  0  0
 28 75  2  0  0  0  0
 29 47  1  0  0  0  0
 29 71  1  0  0  0  0
 29 76  2  0  0  0  0
 30 60  1  0  0  0  0
 30 66  1  0  0  0  0
 30 77  2  0  0  0  0
 31 61  1  0  0  0  0
 31 72  1  0  0  0  0
 31 78  2  0  0  0  0
 32 67  1  0  0  0  0
 32 68  1  0  0  0  0
 32 79  2  0  0  0  0
 33 36  1  0  0  0  0
 34 47  1  0  0  0  0
 35 66  1  0  0  0  0
 36 38  1  0  0  0  0
 37 39  1  0  0  0  0
 37 42  1  0  0  0  0
 38 46  1  0  0  0  0
 39 48  1  0  0  0  0
 40 43  1  0  0  0  0
 40 49  1  0  0  0  0
 41 44  1  0  0  0  0
 41 49  1  0  0  0  0
 42 67  1  0  0  0  0
 43 68  1  0  0  0  0
 44 68  1  0  0  0  0
 45 48  1  0  0  0  0
 45 67  1  0  0  0  0
 46 71  1  0  0  0  0
 47 66  1  0  0  0  0
 48 65  1  0  0  0  0
 49 74  1  0  0  0  0
 50 61  1  0  0  0  0
 51 62  1  0  0  0  0
 52 63  1  0  0  0  0
 53 63  1  0  0  0  0
 54 63  1  0  0  0  0
 55 73  1  0  0  0  0
 56 74  1  0  0  0  0
 57 58  1  0  0  0  0
 57 59  1  0  0  0  0
 58 62  1  0  0  0  0
 59 81  1  0  0  0  0
 60 63  1  0  0  0  0
 60 72  1  0  0  0  0
 61 73  1  0  0  0  0
 62 74  1  0  0  0  0
 64 65  1  0  0  0  0
M  CHG  2  73   1  74   1
M  ISO  4  32 100  59 101  68 100  81 101
M  END
> <Batch ID>
0033

> <Smiles>
CNC(C)C(=O)NC(C(=O)N1Cc2cc([101O:1][101CH2:1]CCC(C)N(C)C3CC[100N:0]([100C:0](=O)N4CCCC(n5nc(-c6ccc(Oc7ccc(F)cc7F)cc6)c(C(N)=O)c5N)C4)CC3)ccc2CC1C(=O)NC1CCCc2ccccc21)C(C)(C)C

> <Shape>
0.138

> <Color>
0.186

> <Negative vol penalty>
0.000

$$$$

  -OEChem-04052316483D

 88 96  0     1  0  0  0  0  0999 V2000
  -24.8698  -11.4448   20.1916 C   0  0  0  0  0  0  0  0  0  0  0  0
  -24.0192  -12.5416   20.0971 C   0  0  0  0  0  0  0  0  0  0  0  0
  -24.2443  -22.8672   15.8568 C   0  0  0  0  0  0  0  0  0  0  0  0
  -22.3067  -24.1111   16.5883 C   0  0  0  0  0  0  0  0  0  0  0  0
  -26.1354  -11.5923   20.7577 C   0  0  0  0  0  0  0  0  0  0  0  0
  -24.4333  -13.7864   20.5697 C   0  0  0  0  0  0  0  0  0  0  0  0
  -23.0396  -19.2667   18.2182 C   0  0  0  0  0  0  0  0  0  0  0  0
  -23.4368  -21.7586   15.6028 C   0  0  0  0  0  0  0  0  0  0  0  0
  -21.4991  -23.0025   16.3343 C   0  0  0  0  0  0  0  0  0  0  0  0
  -22.0852  -20.2215   18.5663 C   0  0  0  0  0  0  0  0  0  0  0  0
  -21.3060  -20.7302   13.1872 C   0  0  0  0  0  0  0  0  0  0  0  0
  -21.5014  -20.0473   11.9868 C   0  0  0  0  0  0  0  0  0  0  0  0
  -23.7457  -21.4009   19.8591 C   0  0  0  0  0  0  0  0  0  0  0  0
  -17.0691  -30.2756   23.4344 C   0  0  0  0  0  0  0  0  0  0  0  0
  -22.0266  -18.0353   13.2169 C   0  0  0  0  0  0  0  0  0  0  0  0
  -23.6793  -24.0434   16.3496 C   0  0  0  0  0  0  0  0  0  0  0  0
  -25.3127  -25.8883   15.6892 C   0  0  0  0  0  0  0  0  0  0  0  0
  -26.5689  -12.8416   21.2287 C   0  0  0  0  0  0  0  0  0  0  0  0
  -24.3536  -19.3660   18.6975 C   0  0  0  0  0  0  0  0  0  0  0  0
  -25.7054  -13.9505   21.1438 C   0  0  0  0  0  0  0  0  0  0  0  0
  -24.7155  -20.4474   19.5134 C   0  0  0  0  0  0  0  0  0  0  0  0
  -17.0807  -29.0749   24.1441 C   0  0  0  0  0  0  0  0  0  0  0  0
  -18.1073  -30.5742   22.5519 C   0  0  0  0  0  0  0  0  0  0  0  0
  -18.1304  -28.1728   23.9715 C   0  0  0  0  0  0  0  0  0  0  0  0
  -19.1571  -29.6721   22.3793 C   0  0  0  0  0  0  0  0  0  0  0  0
  -19.1687  -28.4713   23.0891 C   0  0  0  0  0  0  0  0  0  0  0  0
  -22.0642  -21.8263   15.8415 C   0  0  0  0  0  0  0  0  0  0  0  0
  -22.4375  -21.2873   19.3892 C   0  0  0  0  0  0  0  0  0  0  0  0
  -21.4710  -20.0657   14.4025 C   0  0  0  0  0  0  0  0  0  0  0  0
  -21.8617  -18.6998   12.0016 C   0  0  0  0  0  0  0  0  0  0  0  0
  -21.8312  -18.7182   14.4173 C   0  0  0  0  0  0  0  0  0  0  0  0
  -24.5131  -25.1887   16.6128 C   0  0  0  0  0  0  0  0  0  0  0  0
  -25.9008  -26.8845   16.4296 C   0  0  0  0  0  0  0  0  0  0  0  0
  -25.5066  -25.6581   14.2874 C   0  0  0  0  0  0  0  0  0  0  0  0
  -26.2126  -17.5599   20.5376 C   0  0  0  0  0  0  0  0  0  0  0  0
  -28.4691  -19.7476   19.7345 C   0  0  0  0  0  0  0  0  0  0  0  0
  -29.1908  -22.9131   18.6831 C   0  0  0  0  0  0  0  0  0  0  0  0
  -24.3340  -29.6662   21.4951 C   0  0  0  0  0  0  0  0  0  0  0  0
  -27.9276  -12.9419   21.8758 C   0  0  0  0  0  0  0  0  0  0  0  0
  -25.3780  -18.3423   18.2910 C   0  0  0  0  0  0  0  0  0  0  0  0
  -26.1179  -20.6108   20.0379 C   0  0  0  0  0  0  0  0  0  0  0  0
  -28.4332  -14.3758   22.0116 C   0  0  0  0  0  0  0  0  0  0  0  0
  -27.3536  -27.8838   20.8773 C   0  0  0  0  0  0  0  0  0  0  0  0
  -27.3359  -15.2785   22.5664 C   0  0  0  0  0  0  0  0  0  0  0  0
  -27.0402  -27.0541   19.6310 C   0  0  0  0  0  0  0  0  0  0  0  0
  -26.1410  -27.9990   21.7982 C   0  0  0  0  0  0  0  0  0  0  0  0
  -24.6016  -27.6694   19.9020 C   0  0  0  0  0  0  0  0  0  0  0  0
  -26.1280  -15.3224   21.6227 C   0  0  1  0  0  0  0  0  0  0  0  0
  -26.5578  -18.2622   19.2549 C   0  0  1  0  0  0  0  0  0  0  0  0
  -25.7779  -27.5718   18.9155 C   0  0  2  0  0  0  0  0  0  0  0  0
  -15.9571  -28.7797   25.0831 C   0  0  0  0  0  0  0  0  0  0  0  0
  -18.0706  -31.8664   21.8034 C   0  0  0  0  0  0  0  0  0  0  0  0
  -18.1403  -26.8856   24.7338 C   0  0  0  0  0  0  0  0  0  0  0  0
  -30.5875  -24.8428   17.8939 C   0  0  0  0  0  0  0  0  0  0  0  0
  -28.9899  -20.1206   22.7177 C   0  0  0  0  0  0  0  0  0  0  0  0
  -30.1942  -22.2464   22.1706 C   0  0  0  0  0  0  0  0  0  0  0  0
  -31.0479  -20.0711   21.2976 C   0  0  0  0  0  0  0  0  0  0  0  0
  -28.9297  -22.0941   15.8512 C   0  0  0  0  0  0  0  0  0  0  0  0
  -20.2697  -29.9953   21.4329 C   0  0  0  0  0  0  0  0  0  0  0  0
  -20.3033  -27.4957   22.9021 C   0  0  0  0  0  0  0  0  0  0  0  0
  -19.9607  -26.3153   21.9862 C   0  0  0  0  0  0  0  0  0  0  0  0
  -21.3189  -30.9701   21.9978 C   0  0  0  0  0  0  0  0  0  0  0  0
  -21.1483  -25.3776   21.7472 C   0  0  0  0  0  0  0  0  0  0  0  0
  -20.7539  -24.2014   20.8557 C   0  0  0  0  0  0  0  0  0  0  0  0
  -22.4833  -31.2594   21.0529 C   0  0  0  0  0  0  0  0  0  0  0  0
  -21.9376  -23.2858   20.5775 C   0  0  0  0  0  0  0  0  0  1  0  0
  -28.9395  -21.0601   20.3133 C   0  0  1  0  0  0  0  0  0  0  0  0
  -30.1189  -23.4268   17.5972 C   0  0  2  0  0  0  0  0  0  0  0  0
  -29.7659  -20.8707   21.6167 C   0  0  0  0  0  0  0  0  0  0  0  0
  -24.5844  -25.6973   17.8458 N   0  0  0  0  0  0  0  0  0  0  0  0
  -25.4360  -26.7270   17.7022 N   0  0  0  0  0  0  0  0  0  0  0  0
  -27.0819  -19.5805   19.6175 N   0  0  0  0  0  0  0  0  0  0  0  0
  -24.9785  -28.4968   21.0588 N   0  0  0  0  0  0  0  0  0  0  0  0
  -26.7650  -27.8710   16.1098 N   0  0  0  0  0  0  0  0  0  0  0  0
  -26.5433  -24.8038   13.8876 N   0  0  0  0  0  0  0  0  0  0  0  0
  -26.3974  -16.1911   20.4969 N   0  0  0  0  0  0  0  0  0  0  0  0
  -29.6588  -21.7435   19.2437 N   0  0  0  0  0  0  0  0  0  0  0  0
  -23.2447  -30.0723   20.7340 N   0  0  0  0  0  0  0  0  0  0  0  0
  -29.4232  -23.4283   16.2793 N   0  3  0  0  0  0  0  0  0  0  0  0
  -24.7924  -26.2072   13.4144 O   0  0  0  0  0  0  0  0  0  0  0  0
  -25.8100  -18.2118   21.4939 O   0  0  0  0  0  0  0  0  0  0  0  0
  -29.3019  -18.9046   19.3919 O   0  0  0  0  0  0  0  0  0  0  0  0
  -28.1563  -23.4935   19.0047 O   0  0  0  0  0  0  0  0  0  0  0  0
  -24.7054  -30.3042   22.4860 O   0  0  0  0  0  0  0  0  0  0  0  0
  -21.2758  -20.7448   15.5935 O   0  0  0  0  0  0  0  0  0  0  0  0
  -21.5078  -22.2204   19.7311 O   0  0  0  0  0  0  0  0  0  1  0  0
  -22.0478  -18.0438   10.8487 F   0  0  0  0  0  0  0  0  0  0  0  0
  -21.9900  -18.0742   15.5817 F   0  0  0  0  0  0  0  0  0  0  0  0
  1  2  1  0  0  0  0
  1  5  2  0  0  0  0
  2  6  2  0  0  0  0
  3  8  2  0  0  0  0
  3 16  1  0  0  0  0
  4  9  1  0  0  0  0
  4 16  2  0  0  0  0
  5 18  1  0  0  0  0
  6 20  1  0  0  0  0
  7 10  2  0  0  0  0
  7 19  1  0  0  0  0
  8 27  1  0  0  0  0
  9 27  2  0  0  0  0
 10 28  1  0  0  0  0
 11 12  2  0  0  0  0
 11 29  1  0  0  0  0
 12 30  1  0  0  0  0
 13 21  1  0  0  0  0
 13 28  2  0  0  0  0
 14 22  1  0  0  0  0
 14 23  2  0  0  0  0
 15 30  2  0  0  0  0
 15 31  1  0  0  0  0
 16 32  1  0  0  0  0
 17 32  1  0  0  0  0
 17 33  2  0  0  0  0
 17 34  1  0  0  0  0
 18 20  2  0  0  0  0
 18 39  1  0  0  0  0
 19 21  2  0  0  0  0
 19 40  1  0  0  0  0
 20 48  1  0  0  0  0
 21 41  1  0  0  0  0
 22 24  2  0  0  0  0
 22 51  1  0  0  0  0
 23 25  1  0  0  0  0
 23 52  1  0  0  0  0
 24 26  1  0  0  0  0
 24 53  1  0  0  0  0
 25 26  2  0  0  0  0
 25 59  1  0  0  0  0
 26 60  1  0  0  0  0
 27 85  1  0  0  0  0
 28 86  1  0  0  0  0
 29 31  2  0  0  0  0
 29 85  1  0  0  0  0
 30 87  1  0  0  0  0
 31 88  1  0  0  0  0
 32 70  2  0  0  0  0
 33 71  1  0  0  0  0
 33 74  1  0  0  0  0
 34 75  1  0  0  0  0
 34 80  2  0  0  0  0
 35 49  1  0  0  0  0
 35 76  1  0  0  0  0
 35 81  2  0  0  0  0
 36 67  1  0  0  0  0
 36 72  1  0  0  0  0
 36 82  2  0  0  0  0
 37 68  1  0  0  0  0
 37 77  1  0  0  0  0
 37 83  2  0  0  0  0
 38 73  1  0  0  0  0
 38 78  1  0  0  0  0
 38 84  2  0  0  0  0
 39 42  1  0  0  0  0
 40 49  1  0  0  0  0
 41 72  1  0  0  0  0
 42 44  1  0  0  0  0
 43 45  1  0  0  0  0
 43 46  1  0  0  0  0
 44 48  1  0  0  0  0
 45 50  1  0  0  0  0
 46 73  1  0  0  0  0
 47 50  1  0  0  0  0
 47 73  1  0  0  0  0
 48 76  1  0  0  0  0
 49 72  1  0  0  0  0
 50 71  1  0  0  0  0
 54 68  1  0  0  0  0
 55 69  1  0  0  0  0
 56 69  1  0  0  0  0
 57 69  1  0  0  0  0
 58 79  1  0  0  0  0
 59 62  1  0  0  0  0
 60 61  1  0  0  0  0
 61 63  1  0  0  0  0
 62 65  1  0  0  0  0
 63 64  1  0  0  0  0
 64 66  1  0  0  0  0
 65 78  1  0  0  0  0
 66 86  1  0  0  0  0
 67 69  1  0  0  0  0
 67 77  1  0  0  0  0
 68 79  1  0  0  0  0
 70 71  1  0  0  0  0
M  CHG  1  79   1
M  ISO  4  38 100  66 101  78 100  86 101
M  END
> <Batch ID>
0033

> <Smiles>
CNC(C)C(=O)NC(C(=O)N1Cc2cc([101O:1][101CH2:1]CCCCc3c(C)c(C)cc(C)c3CCC[100NH:0][100C:0](=O)N3CCCC(n4nc(-c5ccc(Oc6ccc(F)cc6F)cc5)c(C(N)=O)c4N)C3)ccc2CC1C(=O)NC1CCCc2ccccc21)C(C)(C)C

> <Shape>
0.208

> <Color>
0.064

> <Negative vol penalty>
0.000

$$$$

  -OEChem-04052316483D

 86 94  0     1  0  0  0  0  0999 V2000
  -33.1884  -28.2161   15.5708 C   0  0  0  0  0  0  0  0  0  0  0  0
  -32.6661  -27.5690   16.6861 C   0  0  0  0  0  0  0  0  0  0  0  0
  -23.9787   -9.2174   19.8350 C   0  0  0  0  0  0  0  0  0  0  0  0
  -24.5418   -9.4441   22.1735 C   0  0  0  0  0  0  0  0  0  0  0  0
  -33.1230  -29.6058   15.4784 C   0  0  0  0  0  0  0  0  0  0  0  0
  -32.0790  -28.3113   17.7102 C   0  0  0  0  0  0  0  0  0  0  0  0
  -27.7096  -26.3074   19.3031 C   0  0  0  0  0  0  0  0  0  0  0  0
  -23.5612   -7.9061   20.0626 C   0  0  0  0  0  0  0  0  0  0  0  0
  -24.1243   -8.1328   22.4012 C   0  0  0  0  0  0  0  0  0  0  0  0
  -27.7871  -25.2066   20.1552 C   0  0  0  0  0  0  0  0  0  0  0  0
  -22.8699   -4.9642   23.6681 C   0  0  0  0  0  0  0  0  0  0  0  0
  -22.0723   -4.7217   24.7864 C   0  0  0  0  0  0  0  0  0  0  0  0
  -27.3875  -26.6500   22.0463 C   0  0  0  0  0  0  0  0  0  0  0  0
  -29.0360  -20.8544   24.6845 C   0  0  0  0  0  0  0  0  0  0  0  0
  -26.8652  -21.1387   22.9556 C   0  0  0  0  0  0  0  0  0  0  0  0
  -20.4027   -6.2408   23.9251 C   0  0  0  0  0  0  0  0  0  0  0  0
  -24.4690   -9.9864   20.8905 C   0  0  0  0  0  0  0  0  0  0  0  0
  -24.1176  -12.5081   20.7315 C   0  0  0  0  0  0  0  0  0  0  0  0
  -32.5262  -30.3648   16.4974 C   0  0  0  0  0  0  0  0  0  0  0  0
  -27.4809  -27.5915   19.8181 C   0  0  0  0  0  0  0  0  0  0  0  0
  -32.0068  -29.7125   17.6319 C   0  0  0  0  0  0  0  0  0  0  0  0
  -27.3050  -27.7651   21.1983 C   0  0  0  0  0  0  0  0  0  0  0  0
  -27.9329  -20.0094   24.8054 C   0  0  0  0  0  0  0  0  0  0  0  0
  -27.9683  -21.9838   22.8347 C   0  0  0  0  0  0  0  0  0  0  0  0
  -23.6340   -7.3638   21.3457 C   0  0  0  0  0  0  0  0  0  0  0  0
  -27.6289  -25.3783   21.5273 C   0  0  0  0  0  0  0  0  0  0  0  0
  -22.4339   -5.8451   22.6783 C   0  0  0  0  0  0  0  0  0  0  0  0
  -20.8387   -5.3599   24.9149 C   0  0  0  0  0  0  0  0  0  0  0  0
  -21.2003   -6.4834   22.8068 C   0  0  0  0  0  0  0  0  0  0  0  0
  -26.8475  -20.1515   23.9409 C   0  0  0  0  0  0  0  0  0  0  0  0
  -29.0537  -21.8417   23.6992 C   0  0  0  0  0  0  0  0  0  0  0  0
  -24.9009  -11.3408   20.6558 C   0  0  0  0  0  0  0  0  0  0  0  0
  -24.9873  -13.5257   20.4243 C   0  0  0  0  0  0  0  0  0  0  0  0
  -22.7281  -12.6589   21.0511 C   0  0  0  0  0  0  0  0  0  0  0  0
  -29.1091  -30.3213   19.8423 C   0  0  0  0  0  0  0  0  0  0  0  0
  -26.3906  -31.4788   21.1811 C   0  0  0  0  0  0  0  0  0  0  0  0
  -23.5357  -30.8545   22.9436 C   0  0  0  0  0  0  0  0  0  0  0  0
  -30.9344  -14.0749   20.8504 C   0  0  0  0  0  0  0  0  0  0  0  0
  -32.5212  -31.8680   16.3749 C   0  0  0  0  0  0  0  0  0  0  0  0
  -27.3734  -28.7647   18.8830 C   0  0  0  0  0  0  0  0  0  0  0  0
  -27.0373  -29.1198   21.7995 C   0  0  0  0  0  0  0  0  0  0  0  0
  -31.5474  -32.5537   17.3298 C   0  0  0  0  0  0  0  0  0  0  0  0
  -28.9570  -14.4279   17.9107 C   0  0  0  0  0  0  0  0  0  0  0  0
  -31.6817  -31.9759   18.7351 C   0  0  0  0  0  0  0  0  0  0  0  0
  -27.6226  -13.7821   18.2877 C   0  0  0  0  0  0  0  0  0  0  0  0
  -30.1382  -13.6895   18.5365 C   0  0  0  0  0  0  0  0  0  0  0  0
  -28.7188  -12.8659   20.3752 C   0  0  0  0  0  0  0  0  0  0  0  0
  -31.3399  -30.4812   18.7520 C   0  0  1  0  0  0  0  0  0  0  0  0
  -27.6487  -30.1006   19.5664 C   0  0  1  0  0  0  0  0  0  0  0  0
  -27.4947  -13.6088   19.8131 C   0  0  2  0  0  0  0  0  0  0  0  0
  -21.5310  -32.0066   23.9189 C   0  0  0  0  0  0  0  0  0  0  0  0
  -28.1163  -32.5480   23.4589 C   0  0  0  0  0  0  0  0  0  0  0  0
  -26.0307  -32.8249   24.8161 C   0  0  0  0  0  0  0  0  0  0  0  0
  -26.3154  -34.1059   22.6946 C   0  0  0  0  0  0  0  0  0  0  0  0
  -21.6715  -29.2823   21.2667 C   0  0  0  0  0  0  0  0  0  0  0  0
  -27.9535  -18.9644   25.8738 C   0  0  0  0  0  0  0  0  0  0  0  0
  -27.9488  -23.0334   21.7627 C   0  0  0  0  0  0  0  0  0  1  0  0
  -28.2390  -17.5421   25.3622 C   0  0  0  0  0  0  0  0  0  0  0  0
  -29.6249  -17.4070   24.7232 C   0  0  0  0  0  0  0  0  0  0  0  0
  -29.8804  -15.9733   24.2514 C   0  0  0  0  0  0  0  0  0  0  0  0
  -31.2808  -15.8294   23.6483 C   0  0  0  0  0  0  0  0  0  0  0  0
  -31.5909  -14.3984   23.2218 C   0  0  0  0  0  0  0  0  0  0  0  0
  -25.8690  -31.6196   22.5907 C   0  0  1  0  0  0  0  0  0  0  0  0
  -22.0959  -31.2755   22.7110 C   0  0  2  0  0  0  0  0  0  0  0  0
  -26.5898  -32.7492   23.3793 C   0  0  0  0  0  0  0  0  0  0  0  0
  -26.1706  -11.5924   20.3262 N   0  0  0  0  0  0  0  0  0  0  0  0
  -26.1917  -12.9294   20.1920 N   0  0  0  0  0  0  0  0  0  0  0  0
  -26.9473  -30.2368   20.8445 N   0  0  0  0  0  0  0  0  0  0  0  0
  -29.9557  -13.5601   19.9842 N   0  0  0  0  0  0  0  0  0  0  0  0
  -24.8317  -14.8636   20.3329 N   0  0  0  0  0  0  0  0  0  0  0  0
  -21.9807  -11.5094   21.3417 N   0  0  0  0  0  0  0  0  0  0  0  0
  -29.9059  -30.2901   18.7137 N   0  0  0  0  0  0  0  0  0  0  0  0
  -24.4257  -31.7982   22.4760 N   0  0  0  0  0  0  0  0  0  0  0  0
  -30.6806  -13.9159   22.2072 N   0  0  0  0  0  0  0  0  0  0  0  0
  -21.2441  -30.0822   22.4433 N   0  3  0  0  0  0  0  0  0  0  0  0
  -22.1620  -13.7783   21.0620 O   0  0  0  0  0  0  0  0  0  0  0  0
  -29.4850  -30.5077   20.9937 O   0  0  0  0  0  0  0  0  0  0  0  0
  -26.3006  -32.4333   20.4049 O   0  0  0  0  0  0  0  0  0  0  0  0
  -23.8404  -29.7961   23.4892 O   0  0  0  0  0  0  0  0  0  0  0  0
  -31.9560  -14.6394   20.4446 O   0  0  0  0  0  0  0  0  0  0  0  0
  -23.2265   -6.0843   21.5682 O   0  0  0  0  0  0  0  0  0  0  0  0
  -27.7048  -24.3056   22.3613 O   0  0  0  0  0  0  0  0  0  1  0  0
  -20.0723   -5.1257   25.9881 F   0  0  0  0  0  0  0  0  0  0  0  0
  -20.7756   -7.3298   21.8586 F   0  0  0  0  0  0  0  0  0  0  0  0
  -25.4664  -19.1231   24.0601 Cl  0  0  0  0  0  0  0  0  0  0  0  0
  -30.4356  -22.8691   23.5795 Cl  0  0  0  0  0  0  0  0  0  0  0  0
  1  2  1  0  0  0  0
  1  5  2  0  0  0  0
  2  6  2  0  0  0  0
  3  8  2  0  0  0  0
  3 17  1  0  0  0  0
  4  9  1  0  0  0  0
  4 17  2  0  0  0  0
  5 19  1  0  0  0  0
  6 21  1  0  0  0  0
  7 10  2  0  0  0  0
  7 20  1  0  0  0  0
  8 25  1  0  0  0  0
  9 25  2  0  0  0  0
 10 26  1  0  0  0  0
 11 12  2  0  0  0  0
 11 27  1  0  0  0  0
 12 28  1  0  0  0  0
 13 22  1  0  0  0  0
 13 26  2  0  0  0  0
 14 23  2  0  0  0  0
 14 31  1  0  0  0  0
 15 24  1  0  0  0  0
 15 30  2  0  0  0  0
 16 28  2  0  0  0  0
 16 29  1  0  0  0  0
 17 32  1  0  0  0  0
 18 32  1  0  0  0  0
 18 33  2  0  0  0  0
 18 34  1  0  0  0  0
 19 21  2  0  0  0  0
 19 39  1  0  0  0  0
 20 22  2  0  0  0  0
 20 40  1  0  0  0  0
 21 48  1  0  0  0  0
 22 41  1  0  0  0  0
 23 30  1  0  0  0  0
 23 56  1  0  0  0  0
 24 31  2  0  0  0  0
 24 57  1  0  0  0  0
 25 81  1  0  0  0  0
 26 82  1  0  0  0  0
 27 29  2  0  0  0  0
 27 81  1  0  0  0  0
 28 83  1  0  0  0  0
 29 84  1  0  0  0  0
 30 85  1  0  0  0  0
 31 86  1  0  0  0  0
 32 66  2  0  0  0  0
 33 67  1  0  0  0  0
 33 70  1  0  0  0  0
 34 71  1  0  0  0  0
 34 76  2  0  0  0  0
 35 49  1  0  0  0  0
 35 72  1  0  0  0  0
 35 77  2  0  0  0  0
 36 63  1  0  0  0  0
 36 68  1  0  0  0  0
 36 78  2  0  0  0  0
 37 64  1  0  0  0  0
 37 73  1  0  0  0  0
 37 79  2  0  0  0  0
 38 69  1  0  0  0  0
 38 74  1  0  0  0  0
 38 80  2  0  0  0  0
 39 42  1  0  0  0  0
 40 49  1  0  0  0  0
 41 68  1  0  0  0  0
 42 44  1  0  0  0  0
 43 45  1  0  0  0  0
 43 46  1  0  0  0  0
 44 48  1  0  0  0  0
 45 50  1  0  0  0  0
 46 69  1  0  0  0  0
 47 50  1  0  0  0  0
 47 69  1  0  0  0  0
 48 72  1  0  0  0  0
 49 68  1  0  0  0  0
 50 67  1  0  0  0  0
 51 64  1  0  0  0  0
 52 65  1  0  0  0  0
 53 65  1  0  0  0  0
 54 65  1  0  0  0  0
 55 75  1  0  0  0  0
 56 58  1  0  0  0  0
 57 82  1  0  0  0  0
 58 59  1  0  0  0  0
 59 60  1  0  0  0  0
 60 61  1  0  0  0  0
 61 62  1  0  0  0  0
 62 74  1  0  0  0  0
 63 65  1  0  0  0  0
 63 73  1  0  0  0  0
 64 75  1  0  0  0  0
 66 67  1  0  0  0  0
M  CHG  1  75   1
M  ISO  4  38 100  57 101  74 100  82 101
M  END
> <Batch ID>
0033

> <Smiles>
CNC(C)C(=O)NC(C(=O)N1Cc2cc([101O:1][101CH2:1]c3cc(Cl)c(CCCCCC[100NH:0][100C:0](=O)N4CCCC(n5nc(-c6ccc(Oc7ccc(F)cc7F)cc6)c(C(N)=O)c5N)C4)cc3Cl)ccc2CC1C(=O)NC1CCCc2ccccc21)C(C)(C)C

> <Shape>
0.259

> <Color>
0.146

> <Negative vol penalty>
0.000

$$$$

  -OEChem-04052316483D

 86 94  0     1  0  0  0  0  0999 V2000
  -16.8273  -28.6114   24.0416 C   0  0  0  0  0  0  0  0  0  0  0  0
  -17.4825  -27.8268   23.0980 C   0  0  0  0  0  0  0  0  0  0  0  0
  -30.4819  -23.1382   19.1353 C   0  0  0  0  0  0  0  0  0  0  0  0
  -28.8770  -22.3275   17.5216 C   0  0  0  0  0  0  0  0  0  0  0  0
  -17.2833  -29.9009   24.3120 C   0  0  0  0  0  0  0  0  0  0  0  0
  -18.5935  -28.3317   22.4233 C   0  0  0  0  0  0  0  0  0  0  0  0
  -22.3910  -24.9917   22.1618 C   0  0  0  0  0  0  0  0  0  0  0  0
  -31.0651  -23.9387   18.1531 C   0  0  0  0  0  0  0  0  0  0  0  0
  -29.4602  -23.1280   16.5394 C   0  0  0  0  0  0  0  0  0  0  0  0
  -22.2831  -23.9781   21.2106 C   0  0  0  0  0  0  0  0  0  0  0  0
  -32.7508  -26.4677   16.1586 C   0  0  0  0  0  0  0  0  0  0  0  0
  -33.0624  -27.7847   16.4960 C   0  0  0  0  0  0  0  0  0  0  0  0
  -23.7533  -25.2059   19.7442 C   0  0  0  0  0  0  0  0  0  0  0  0
  -22.3846  -16.2121   17.9746 C   0  0  0  0  0  0  0  0  0  0  0  0
  -24.3537  -16.2332   19.3743 C   0  0  0  0  0  0  0  0  0  0  0  0
  -30.7340  -28.2120   16.9786 C   0  0  0  0  0  0  0  0  0  0  0  0
  -29.3878  -22.3326   18.8195 C   0  0  0  0  0  0  0  0  0  0  0  0
  -27.7344  -21.8550   20.7026 C   0  0  0  0  0  0  0  0  0  0  0  0
  -18.4063  -30.4184   23.6473 C   0  0  0  0  0  0  0  0  0  0  0  0
  -23.1735  -26.1270   21.9064 C   0  0  0  0  0  0  0  0  0  0  0  0
  -19.0641  -29.6299   22.6841 C   0  0  0  0  0  0  0  0  0  0  0  0
  -23.8716  -26.2313   20.6948 C   0  0  0  0  0  0  0  0  0  0  0  0
  -23.4889  -16.8861   18.4960 C   0  0  0  0  0  0  0  0  0  0  0  0
  -22.1451  -14.8851   18.3316 C   0  0  0  0  0  0  0  0  0  0  0  0
  -24.1142  -14.9062   19.7313 C   0  0  0  0  0  0  0  0  0  0  0  0
  -23.0099  -14.2322   19.2100 C   0  0  0  0  0  0  0  0  0  0  0  0
  -30.5543  -23.9336   16.8552 C   0  0  0  0  0  0  0  0  0  0  0  0
  -22.9620  -24.0864   20.0005 C   0  0  0  0  0  0  0  0  0  0  0  0
  -31.4307  -26.0228   16.2311 C   0  0  0  0  0  0  0  0  0  0  0  0
  -32.0540  -28.6569   16.9061 C   0  0  0  0  0  0  0  0  0  0  0  0
  -30.4223  -26.8950   16.6411 C   0  0  0  0  0  0  0  0  0  0  0  0
  -28.7852  -21.5051   19.8336 C   0  0  0  0  0  0  0  0  0  0  0  0
  -27.5323  -20.7317   21.4667 C   0  0  0  0  0  0  0  0  0  0  0  0
  -27.0061  -23.0853   20.8095 C   0  0  0  0  0  0  0  0  0  0  0  0
  -22.5924  -29.2422   21.6575 C   0  0  0  0  0  0  0  0  0  0  0  0
  -25.8240  -29.4322   21.4500 C   0  0  0  0  0  0  0  0  0  0  0  0
  -28.7734  -27.8956   20.6840 C   0  0  0  0  0  0  0  0  0  0  0  0
  -28.6196  -14.9176   20.5363 C   0  0  0  0  0  0  0  0  0  0  0  0
  -18.8335  -31.8351   23.9388 C   0  0  0  0  0  0  0  0  0  0  0  0
  -23.3010  -27.1992   22.9537 C   0  0  0  0  0  0  0  0  0  0  0  0
  -24.7409  -27.4203   20.3802 C   0  0  0  0  0  0  0  0  0  0  0  0
  -20.2436  -32.1586   23.4517 C   0  0  0  0  0  0  0  0  0  0  0  0
  -29.8447  -16.9235   23.2106 C   0  0  0  0  0  0  0  0  0  0  0  0
  -20.4438  -31.6567   22.0252 C   0  0  0  0  0  0  0  0  0  0  0  0
  -29.6173  -18.3567   22.7268 C   0  0  0  0  0  0  0  0  0  0  0  0
  -30.2436  -15.9973   22.0638 C   0  0  0  0  0  0  0  0  0  0  0  0
  -29.0952  -17.4392   20.4280 C   0  0  0  0  0  0  0  0  0  0  0  0
  -20.2877  -30.1331   21.9494 C   0  0  1  0  0  0  0  0  0  0  0  0
  -23.7146  -28.5502   22.3783 C   0  0  1  0  0  0  0  0  0  0  0  0
  -28.6366  -18.3988   21.5395 C   0  0  2  0  0  0  0  0  0  0  0  0
  -20.9562  -14.1854   17.7584 C   0  0  0  0  0  0  0  0  0  0  0  0
  -22.7532  -12.8092   19.5922 C   0  0  0  0  0  0  0  0  0  0  0  0
  -31.2448  -28.3176   20.5770 C   0  0  0  0  0  0  0  0  0  0  0  0
  -25.4402  -31.0109   18.8673 C   0  0  0  0  0  0  0  0  0  0  0  0
  -27.8468  -30.5798   18.3281 C   0  0  0  0  0  0  0  0  0  0  0  0
  -27.2414  -31.8847   20.3661 C   0  0  0  0  0  0  0  0  0  0  0  0
  -29.3362  -25.7961   22.6925 C   0  0  0  0  0  0  0  0  0  0  0  0
  -23.7474  -18.3209   18.1106 C   0  0  0  0  0  0  0  0  0  0  0  0
  -25.0555  -14.2296   20.6736 C   0  0  0  0  0  0  0  0  0  0  0  0
  -23.0772  -19.3413   19.0374 C   0  0  0  0  0  0  0  0  0  0  0  0
  -26.0766  -13.2986   19.9928 C   0  0  0  0  0  0  0  0  0  0  0  0
  -23.2867  -20.7876   18.5865 C   0  0  0  0  0  0  0  0  0  0  0  0
  -26.9555  -13.9846   18.9490 C   0  0  0  0  0  0  0  0  0  0  0  0
  -22.6416  -21.7730   19.5516 C   0  0  0  0  0  0  0  0  0  1  0  0
  -26.8272  -29.3910   20.3227 C   0  0  1  0  0  0  0  0  0  0  0  0
  -30.0917  -27.8159   21.4324 C   0  0  2  0  0  0  0  0  0  0  0  0
  -26.8210  -30.6950   19.4759 C   0  0  0  0  0  0  0  0  0  0  0  0
  -29.2204  -20.2572   20.0269 N   0  0  0  0  0  0  0  0  0  0  0  0
  -28.4393  -19.8132   21.0263 N   0  0  0  0  0  0  0  0  0  0  0  0
  -24.8284  -28.4452   21.4336 N   0  0  0  0  0  0  0  0  0  0  0  0
  -29.2718  -16.0832   20.9710 N   0  0  0  0  0  0  0  0  0  0  0  0
  -26.6691  -20.4499   22.4656 N   0  0  0  0  0  0  0  0  0  0  0  0
  -27.3424  -24.1379   19.9474 N   0  0  0  0  0  0  0  0  0  0  0  0
  -21.4800  -29.4778   22.4426 N   0  0  0  0  0  0  0  0  0  0  0  0
  -28.1153  -29.0813   20.9336 N   0  0  0  0  0  0  0  0  0  0  0  0
  -27.7094  -15.0884   19.5003 N   0  0  0  0  0  0  0  0  0  0  0  0
  -30.3782  -26.4081   21.8285 N   0  3  0  0  0  0  0  0  0  0  0  0
  -26.0954  -23.2521   21.6559 O   0  0  0  0  0  0  0  0  0  0  0  0
  -22.7265  -29.5415   20.4768 O   0  0  0  0  0  0  0  0  0  0  0  0
  -25.9244  -30.3037   22.3172 O   0  0  0  0  0  0  0  0  0  0  0  0
  -28.3696  -26.9976   19.9485 O   0  0  0  0  0  0  0  0  0  0  0  0
  -28.8287  -13.8079   21.0380 O   0  0  0  0  0  0  0  0  0  0  0  0
  -31.1230  -24.7147   15.8966 O   0  0  0  0  0  0  0  0  0  0  0  0
  -22.8579  -23.0988   19.0701 O   0  0  0  0  0  0  0  0  0  1  0  0
  -32.3537  -29.9212   17.2315 F   0  0  0  0  0  0  0  0  0  0  0  0
  -29.1525  -26.4730   16.7139 F   0  0  0  0  0  0  0  0  0  0  0  0
  1  2  1  0  0  0  0
  1  5  2  0  0  0  0
  2  6  2  0  0  0  0
  3  8  2  0  0  0  0
  3 17  1  0  0  0  0
  4  9  1  0  0  0  0
  4 17  2  0  0  0  0
  5 19  1  0  0  0  0
  6 21  1  0  0  0  0
  7 10  2  0  0  0  0
  7 20  1  0  0  0  0
  8 27  1  0  0  0  0
  9 27  2  0  0  0  0
 10 28  1  0  0  0  0
 11 12  2  0  0  0  0
 11 29  1  0  0  0  0
 12 30  1  0  0  0  0
 13 22  1  0  0  0  0
 13 28  2  0  0  0  0
 14 23  1  0  0  0  0
 14 24  2  0  0  0  0
 15 23  2  0  0  0  0
 15 25  1  0  0  0  0
 16 30  2  0  0  0  0
 16 31  1  0  0  0  0
 17 32  1  0  0  0  0
 18 32  1  0  0  0  0
 18 33  2  0  0  0  0
 18 34  1  0  0  0  0
 19 21  2  0  0  0  0
 19 39  1  0  0  0  0
 20 22  2  0  0  0  0
 20 40  1  0  0  0  0
 21 48  1  0  0  0  0
 22 41  1  0  0  0  0
 23 58  1  0  0  0  0
 24 26  1  0  0  0  0
 24 51  1  0  0  0  0
 25 26  2  0  0  0  0
 25 59  1  0  0  0  0
 26 52  1  0  0  0  0
 27 83  1  0  0  0  0
 28 84  1  0  0  0  0
 29 31  2  0  0  0  0
 29 83  1  0  0  0  0
 30 85  1  0  0  0  0
 31 86  1  0  0  0  0
 32 68  2  0  0  0  0
 33 69  1  0  0  0  0
 33 72  1  0  0  0  0
 34 73  1  0  0  0  0
 34 78  2  0  0  0  0
 35 49  1  0  0  0  0
 35 74  1  0  0  0  0
 35 79  2  0  0  0  0
 36 65  1  0  0  0  0
 36 70  1  0  0  0  0
 36 80  2  0  0  0  0
 37 66  1  0  0  0  0
 37 75  1  0  0  0  0
 37 81  2  0  0  0  0
 38 71  1  0  0  0  0
 38 76  1  0  0  0  0
 38 82  2  0  0  0  0
 39 42  1  0  0  0  0
 40 49  1  0  0  0  0
 41 70  1  0  0  0  0
 42 44  1  0  0  0  0
 43 45  1  0  0  0  0
 43 46  1  0  0  0  0
 44 48  1  0  0  0  0
 45 50  1  0  0  0  0
 46 71  1  0  0  0  0
 47 50  1  0  0  0  0
 47 71  1  0  0  0  0
 48 74  1  0  0  0  0
 49 70  1  0  0  0  0
 50 69  1  0  0  0  0
 53 66  1  0  0  0  0
 54 67  1  0  0  0  0
 55 67  1  0  0  0  0
 56 67  1  0  0  0  0
 57 77  1  0  0  0  0
 58 60  1  0  0  0  0
 59 61  1  0  0  0  0
 60 62  1  0  0  0  0
 61 63  1  0  0  0  0
 62 64  1  0  0  0  0
 63 76  1  0  0  0  0
 64 84  1  0  0  0  0
 65 67  1  0  0  0  0
 65 75  1  0  0  0  0
 66 77  1  0  0  0  0
 68 69  1  0  0  0  0
M  CHG  1  77   1
M  ISO  4  38 100  64 101  76 100  84 101
M  END
> <Batch ID>
0033

> <Smiles>
CNC(C)C(=O)NC(C(=O)N1Cc2cc([101O:1][101CH2:1]CCCc3cc(C)c(C)c(CCC[100NH:0][100C:0](=O)N4CCCC(n5nc(-c6ccc(Oc7ccc(F)cc7F)cc6)c(C(N)=O)c5N)C4)c3)ccc2CC1C(=O)NC1CCCc2ccccc21)C(C)(C)C

> <Shape>
0.249

> <Color>
0.075

> <Negative vol penalty>
0.000

$$$$

  -OEChem-04052316483D

 90 98  0     1  0  0  0  0  0999 V2000
  -28.0186  -33.0466   26.5941 C   0  0  0  0  0  0  0  0  0  0  0  0
  -28.1387  -31.8676   25.8656 C   0  0  0  0  0  0  0  0  0  0  0  0
  -25.4897  -14.2959   21.4753 C   0  0  0  0  0  0  0  0  0  0  0  0
  -25.1269  -14.7576   19.1317 C   0  0  0  0  0  0  0  0  0  0  0  0
  -26.7550  -33.5545   26.8928 C   0  0  0  0  0  0  0  0  0  0  0  0
  -26.9951  -31.1950   25.4363 C   0  0  0  0  0  0  0  0  0  0  0  0
  -27.3350  -29.6623   20.6217 C   0  0  0  0  0  0  0  0  0  0  0  0
  -25.4114  -12.9273   21.2178 C   0  0  0  0  0  0  0  0  0  0  0  0
  -25.0487  -13.3890   18.8742 C   0  0  0  0  0  0  0  0  0  0  0  0
  -28.0929  -28.5197   20.3693 C   0  0  0  0  0  0  0  0  0  0  0  0
  -24.9482   -9.3205   21.2337 C   0  0  0  0  0  0  0  0  0  0  0  0
  -24.1823   -8.5391   22.0988 C   0  0  0  0  0  0  0  0  0  0  0  0
  -26.0701  -27.2103   20.2558 C   0  0  0  0  0  0  0  0  0  0  0  0
  -31.4486  -22.5702   18.9816 C   0  0  0  0  0  0  0  0  0  0  0  0
  -31.1645  -24.4596   20.4602 C   0  0  0  0  0  0  0  0  0  0  0  0
  -22.2259   -9.8445   21.5456 C   0  0  0  0  0  0  0  0  0  0  0  0
  -25.3474  -15.2111   20.4322 C   0  0  0  0  0  0  0  0  0  0  0  0
  -26.5827  -17.4296   20.6772 C   0  0  0  0  0  0  0  0  0  0  0  0
  -25.5954  -32.8931   26.4587 C   0  0  0  0  0  0  0  0  0  0  0  0
  -25.9373  -29.5854   20.7040 C   0  0  0  0  0  0  0  0  0  0  0  0
  -25.7147  -31.6938   25.7306 C   0  0  0  0  0  0  0  0  0  0  0  0
  -25.2966  -28.3539   20.5068 C   0  0  0  0  0  0  0  0  0  0  0  0
  -31.7625  -23.2338   20.1677 C   0  0  0  0  0  0  0  0  0  0  0  0
  -30.5369  -23.1324   18.0881 C   0  0  0  0  0  0  0  0  0  0  0  0
  -30.2528  -25.0218   19.5667 C   0  0  0  0  0  0  0  0  0  0  0  0
  -25.1909  -12.4738   19.9173 C   0  0  0  0  0  0  0  0  0  0  0  0
  -27.4607  -27.2929   20.1891 C   0  0  0  0  0  0  0  0  0  0  0  0
  -24.3530  -10.3640   20.5247 C   0  0  0  0  0  0  0  0  0  0  0  0
  -22.8211   -8.8011   22.2547 C   0  0  0  0  0  0  0  0  0  0  0  0
  -22.9919  -10.6259   20.6806 C   0  0  0  0  0  0  0  0  0  0  0  0
  -29.9390  -24.3581   18.3806 C   0  0  0  0  0  0  0  0  0  0  0  0
  -25.4277  -16.6250   20.6977 C   0  0  0  0  0  0  0  0  0  0  0  0
  -26.1306  -18.6873   20.9940 C   0  0  0  0  0  0  0  0  0  0  0  0
  -27.9425  -17.0721   20.3967 C   0  0  0  0  0  0  0  0  0  0  0  0
  -23.7890  -30.1600   22.9753 C   0  0  0  0  0  0  0  0  0  0  0  0
  -21.6779  -29.5901   20.5794 C   0  0  0  0  0  0  0  0  0  0  0  0
  -21.0393  -28.1087   17.5719 C   0  0  0  0  0  0  0  0  0  0  0  0
  -20.8044  -21.3658   20.4388 C   0  0  0  0  0  0  0  0  0  0  0  0
  -24.2507  -33.4552   26.8464 C   0  0  0  0  0  0  0  0  0  0  0  0
  -25.1324  -30.8319   20.9505 C   0  0  0  0  0  0  0  0  0  0  0  0
  -23.7974  -28.2215   20.5652 C   0  0  0  0  0  0  0  0  0  0  0  0
  -23.0933  -32.8818   26.0330 C   0  0  0  0  0  0  0  0  0  0  0  0
  -22.6740  -20.9191   23.4357 C   0  0  0  0  0  0  0  0  0  0  0  0
  -23.2063  -31.3634   25.9408 C   0  0  0  0  0  0  0  0  0  0  0  0
  -23.6959  -19.8405   23.0720 C   0  0  0  0  0  0  0  0  0  0  0  0
  -21.3277  -20.6722   22.7586 C   0  0  0  0  0  0  0  0  0  0  0  0
  -22.4142  -19.4260   20.9310 C   0  0  0  0  0  0  0  0  0  0  0  0
  -24.4981  -30.9487   25.2261 C   0  0  1  0  0  0  0  0  0  0  0  0
  -23.7479  -30.5456   21.5237 C   0  0  1  0  0  0  0  0  0  0  0  0
  -23.8043  -19.6627   21.5456 C   0  0  2  0  0  0  0  0  0  0  0  0
  -32.7366  -22.6323   21.1238 C   0  0  0  0  0  0  0  0  0  0  0  0
  -19.2117  -27.7883   15.8824 C   0  0  0  0  0  0  0  0  0  0  0  0
  -20.3594  -27.5274   22.4005 C   0  0  0  0  0  0  0  0  0  0  0  0
  -19.1965  -26.5966   20.3881 C   0  0  0  0  0  0  0  0  0  0  0  0
  -18.7607  -28.9466   21.1027 C   0  0  0  0  0  0  0  0  0  0  0  0
  -22.5970  -29.4719   15.4566 C   0  0  0  0  0  0  0  0  0  0  0  0
  -30.2001  -22.4123   16.8064 C   0  0  0  0  0  0  0  0  0  0  0  0
  -29.6148  -26.3325   19.8830 C   0  0  0  0  0  0  0  0  0  1  0  0
  -29.2584  -21.2166   16.9940 C   0  0  0  0  0  0  0  0  0  0  0  0
  -27.8690  -21.5553   17.5473 C   0  0  0  0  0  0  0  0  0  0  0  0
  -27.0436  -22.4467   16.6167 C   0  0  0  0  0  0  0  0  0  0  0  0
  -25.6809  -22.7765   17.2323 C   0  0  0  0  0  0  0  0  0  0  0  0
  -24.8419  -23.6418   16.2895 C   0  0  0  0  0  0  0  0  0  0  0  0
  -23.4614  -23.9922   16.8521 C   0  0  0  0  0  0  0  0  0  0  0  0
  -22.6054  -22.7648   17.1723 C   0  0  0  0  0  0  0  0  0  0  0  0
  -21.2317  -23.1722   17.7078 C   0  0  0  0  0  0  0  0  0  0  0  0
  -20.3910  -21.9522   18.0630 C   0  0  0  0  0  0  0  0  0  0  0  0
  -20.9794  -28.3659   20.0386 C   0  0  1  0  0  0  0  0  0  0  0  0
  -20.3987  -28.6409   16.3027 C   0  0  2  0  0  0  0  0  0  0  0  0
  -19.8523  -27.8609   20.9833 C   0  0  0  0  0  0  0  0  0  0  0  0
  -24.3249  -17.3137   21.0035 N   0  0  0  0  0  0  0  0  0  0  0  0
  -24.7849  -18.5643   21.1782 N   0  0  0  0  0  0  0  0  0  0  0  0
  -23.0546  -29.4678   20.8151 N   0  0  0  0  0  0  0  0  0  0  0  0
  -21.5001  -20.5140   21.3125 N   0  0  0  0  0  0  0  0  0  0  0  0
  -26.7570  -19.8754   21.1304 N   0  0  0  0  0  0  0  0  0  0  0  0
  -28.2323  -15.7358   20.0894 N   0  0  0  0  0  0  0  0  0  0  0  0
  -24.3596  -31.1148   23.7951 N   0  0  0  0  0  0  0  0  0  0  0  0
  -20.5232  -28.7151   18.6976 N   0  0  0  0  0  0  0  0  0  0  0  0
  -21.0295  -21.1523   19.0844 N   0  0  0  0  0  0  0  0  0  0  0  0
  -21.3880  -28.6513   15.1882 N   0  3  0  0  0  0  0  0  0  0  0  0
  -28.8756  -17.9097   20.4341 O   0  0  0  0  0  0  0  0  0  0  0  0
  -23.3353  -29.0769   23.3259 O   0  0  0  0  0  0  0  0  0  0  0  0
  -21.0274  -30.6191   20.7783 O   0  0  0  0  0  0  0  0  0  0  0  0
  -21.9079  -27.2392   17.5656 O   0  0  0  0  0  0  0  0  0  0  0  0
  -20.0435  -22.2545   20.8364 O   0  0  0  0  0  0  0  0  0  0  0  0
  -25.1147  -11.1383   19.6656 O   0  0  0  0  0  0  0  0  0  0  0  0
  -28.2033  -26.1682   19.9416 O   0  0  0  0  0  0  0  0  0  1  0  0
  -22.0854   -8.0496   23.0843 F   0  0  0  0  0  0  0  0  0  0  0  0
  -22.4143  -11.6262   20.0012 F   0  0  0  0  0  0  0  0  0  0  0  0
  -29.0633  -24.8998   17.5211 F   0  0  0  0  0  0  0  0  0  0  0  0
  1  2  1  0  0  0  0
  1  5  2  0  0  0  0
  2  6  2  0  0  0  0
  3  8  2  0  0  0  0
  3 17  1  0  0  0  0
  4  9  1  0  0  0  0
  4 17  2  0  0  0  0
  5 19  1  0  0  0  0
  6 21  1  0  0  0  0
  7 10  2  0  0  0  0
  7 20  1  0  0  0  0
  8 26  1  0  0  0  0
  9 26  2  0  0  0  0
 10 27  1  0  0  0  0
 11 12  2  0  0  0  0
 11 28  1  0  0  0  0
 12 29  1  0  0  0  0
 13 22  1  0  0  0  0
 13 27  2  0  0  0  0
 14 23  1  0  0  0  0
 14 24  2  0  0  0  0
 15 23  2  0  0  0  0
 15 25  1  0  0  0  0
 16 29  2  0  0  0  0
 16 30  1  0  0  0  0
 17 32  1  0  0  0  0
 18 32  1  0  0  0  0
 18 33  2  0  0  0  0
 18 34  1  0  0  0  0
 19 21  2  0  0  0  0
 19 39  1  0  0  0  0
 20 22  2  0  0  0  0
 20 40  1  0  0  0  0
 21 48  1  0  0  0  0
 22 41  1  0  0  0  0
 23 51  1  0  0  0  0
 24 31  1  0  0  0  0
 24 57  1  0  0  0  0
 25 31  2  0  0  0  0
 25 58  1  0  0  0  0
 26 86  1  0  0  0  0
 27 87  1  0  0  0  0
 28 30  2  0  0  0  0
 28 86  1  0  0  0  0
 29 88  1  0  0  0  0
 30 89  1  0  0  0  0
 31 90  1  0  0  0  0
 32 71  2  0  0  0  0
 33 72  1  0  0  0  0
 33 75  1  0  0  0  0
 34 76  1  0  0  0  0
 34 81  2  0  0  0  0
 35 49  1  0  0  0  0
 35 77  1  0  0  0  0
 35 82  2  0  0  0  0
 36 68  1  0  0  0  0
 36 73  1  0  0  0  0
 36 83  2  0  0  0  0
 37 69  1  0  0  0  0
 37 78  1  0  0  0  0
 37 84  2  0  0  0  0
 38 74  1  0  0  0  0
 38 79  1  0  0  0  0
 38 85  2  0  0  0  0
 39 42  1  0  0  0  0
 40 49  1  0  0  0  0
 41 73  1  0  0  0  0
 42 44  1  0  0  0  0
 43 45  1  0  0  0  0
 43 46  1  0  0  0  0
 44 48  1  0  0  0  0
 45 50  1  0  0  0  0
 46 74  1  0  0  0  0
 47 50  1  0  0  0  0
 47 74  1  0  0  0  0
 48 77  1  0  0  0  0
 49 73  1  0  0  0  0
 50 72  1  0  0  0  0
 52 69  1  0  0  0  0
 53 70  1  0  0  0  0
 54 70  1  0  0  0  0
 55 70  1  0  0  0  0
 56 80  1  0  0  0  0
 57 59  1  0  0  0  0
 58 87  1  0  0  0  0
 59 60  1  0  0  0  0
 60 61  1  0  0  0  0
 61 62  1  0  0  0  0
 62 63  1  0  0  0  0
 63 64  1  0  0  0  0
 64 65  1  0  0  0  0
 65 66  1  0  0  0  0
 66 67  1  0  0  0  0
 67 79  1  0  0  0  0
 68 70  1  0  0  0  0
 68 78  1  0  0  0  0
 69 80  1  0  0  0  0
 71 72  1  0  0  0  0
M  CHG  1  80   1
M  ISO  4  38 100  58 101  79 100  87 101
M  END
> <Batch ID>
0033

> <Smiles>
CNC(C)C(=O)NC(C(=O)N1Cc2cc([101O:1][101CH2:1]c3cc(C)cc(CCCCCCCCCC[100NH:0][100C:0](=O)N4CCCC(n5nc(-c6ccc(Oc7ccc(F)cc7F)cc6)c(C(N)=O)c5N)C4)c3F)ccc2CC1C(=O)NC1CCCc2ccccc21)C(C)(C)C

> <Shape>
0.266

> <Color>
0.080

> <Negative vol penalty>
0.000

$$$$

  -OEChem-04052316483D

 85 93  0     1  0  0  0  0  0999 V2000
  -25.1598  -12.4878   16.6849 C   0  0  0  0  0  0  0  0  0  0  0  0
  -24.4168  -13.6555   16.8252 C   0  0  0  0  0  0  0  0  0  0  0  0
  -28.6988  -24.8112   18.1812 C   0  0  0  0  0  0  0  0  0  0  0  0
  -28.1374  -23.9334   20.3610 C   0  0  0  0  0  0  0  0  0  0  0  0
  -25.6993  -11.8667   17.8106 C   0  0  0  0  0  0  0  0  0  0  0  0
  -24.2119  -14.2023   18.0915 C   0  0  0  0  0  0  0  0  0  0  0  0
  -23.8386  -20.1462   19.5185 C   0  0  0  0  0  0  0  0  0  0  0  0
  -29.8707  -24.0548   18.1784 C   0  0  0  0  0  0  0  0  0  0  0  0
  -29.3093  -23.1769   20.3582 C   0  0  0  0  0  0  0  0  0  0  0  0
  -22.7519  -20.9928   19.7337 C   0  0  0  0  0  0  0  0  0  0  0  0
  -31.9747  -20.7385   20.7682 C   0  0  0  0  0  0  0  0  0  0  0  0
  -31.8898  -19.4083   21.1792 C   0  0  0  0  0  0  0  0  0  0  0  0
  -22.9403  -20.6208   22.1097 C   0  0  0  0  0  0  0  0  0  0  0  0
  -19.3719  -27.7810   21.5373 C   0  0  0  0  0  0  0  0  0  0  0  0
  -18.9342  -28.0017   23.9030 C   0  0  0  0  0  0  0  0  0  0  0  0
  -30.3223  -18.9577   19.3967 C   0  0  0  0  0  0  0  0  0  0  0  0
  -27.8321  -24.7506   19.2726 C   0  0  0  0  0  0  0  0  0  0  0  0
  -25.3573  -25.1436   18.7945 C   0  0  0  0  0  0  0  0  0  0  0  0
  -25.5090  -12.4114   19.0903 C   0  0  0  0  0  0  0  0  0  0  0  0
  -24.4785  -19.5210   20.5984 C   0  0  0  0  0  0  0  0  0  0  0  0
  -24.7482  -13.5872   19.2355 C   0  0  0  0  0  0  0  0  0  0  0  0
  -24.0364  -19.7688   21.9058 C   0  0  0  0  0  0  0  0  0  0  0  0
  -19.5627  -28.4553   22.7433 C   0  0  0  0  0  0  0  0  0  0  0  0
  -18.5524  -26.6532   21.4909 C   0  0  0  0  0  0  0  0  0  0  0  0
  -30.1760  -23.2376   19.2668 C   0  0  0  0  0  0  0  0  0  0  0  0
  -22.3008  -21.2279   21.0292 C   0  0  0  0  0  0  0  0  0  0  0  0
  -31.2333  -21.1784   19.6715 C   0  0  0  0  0  0  0  0  0  0  0  0
  -17.9238  -26.1996   22.6505 C   0  0  0  0  0  0  0  0  0  0  0  0
  -31.0637  -18.5179   20.4934 C   0  0  0  0  0  0  0  0  0  0  0  0
  -30.4072  -20.2880   18.9858 C   0  0  0  0  0  0  0  0  0  0  0  0
  -18.1146  -26.8739   23.8566 C   0  0  0  0  0  0  0  0  0  0  0  0
  -26.6217  -25.5322   19.2763 C   0  0  0  0  0  0  0  0  0  0  0  0
  -24.5522  -26.2319   19.0263 C   0  0  0  0  0  0  0  0  0  0  0  0
  -24.9473  -23.9092   18.1913 C   0  0  0  0  0  0  0  0  0  0  0  0
  -24.9369  -16.5057   21.4938 C   0  0  0  0  0  0  0  0  0  0  0  0
  -26.7752  -17.8759   23.7884 C   0  0  0  0  0  0  0  0  0  0  0  0
  -27.4855  -20.6346   25.6677 C   0  0  0  0  0  0  0  0  0  0  0  0
  -22.7781  -30.3549   22.3428 C   0  0  0  0  0  0  0  0  0  0  0  0
  -26.0718  -11.6785   20.2823 C   0  0  0  0  0  0  0  0  0  0  0  0
  -25.6661  -18.6316   20.3515 C   0  0  0  0  0  0  0  0  0  0  0  0
  -24.7016  -19.1379   23.1008 C   0  0  0  0  0  0  0  0  0  0  0  0
  -26.1245  -12.5272   21.5500 C   0  0  0  0  0  0  0  0  0  0  0  0
  -25.7178  -30.9513   20.4246 C   0  0  0  0  0  0  0  0  0  0  0  0
  -24.8053  -13.2657   21.7532 C   0  0  0  0  0  0  0  0  0  0  0  0
  -26.1138  -29.5623   19.9208 C   0  0  0  0  0  0  0  0  0  0  0  0
  -25.1422  -30.8959   21.8380 C   0  0  0  0  0  0  0  0  0  0  0  0
  -24.4189  -28.5628   21.5105 C   0  0  0  0  0  0  0  0  0  0  0  0
  -24.5249  -14.2245   20.5898 C   0  0  1  0  0  0  0  0  0  0  0  0
  -25.9185  -17.6432   21.4859 C   0  0  1  0  0  0  0  0  0  0  0  0
  -24.9528  -28.5604   20.0678 C   0  0  2  0  0  0  0  0  0  0  0  0
  -29.0173  -21.4388   27.4855 C   0  0  0  0  0  0  0  0  0  0  0  0
  -25.1452  -16.3210   25.8465 C   0  0  0  0  0  0  0  0  0  0  0  0
  -26.0492  -17.8477   27.6129 C   0  0  0  0  0  0  0  0  0  0  0  0
  -27.6025  -16.3989   26.3049 C   0  0  0  0  0  0  0  0  0  0  0  0
  -28.6343  -22.7364   23.9294 C   0  0  0  0  0  0  0  0  0  0  0  0
  -15.7432  -25.3126   22.3126 C   0  0  0  0  0  0  0  0  0  0  0  0
  -18.3583  -25.9393   20.1769 C   0  0  0  0  0  0  0  0  0  0  0  0
  -20.4378  -29.6619   22.7922 C   0  0  0  0  0  0  0  0  0  0  0  0
  -19.5528  -25.0740   19.7600 C   0  0  0  0  0  0  0  0  0  0  0  0
  -19.8286  -23.9261   20.7322 C   0  0  0  0  0  0  0  0  0  0  0  0
  -21.0444  -23.1137   20.3074 C   0  0  0  0  0  0  0  0  0  1  0  0
  -26.5314  -18.3962   25.1844 C   0  0  1  0  0  0  0  0  0  0  0  0
  -28.7990  -21.3266   25.9846 C   0  0  2  0  0  0  0  0  0  0  0  0
  -26.3181  -17.2515   26.2147 C   0  0  0  0  0  0  0  0  0  0  0  0
  -26.6246  -26.7707   19.7764 N   0  0  0  0  0  0  0  0  0  0  0  0
  -25.3521  -27.1698   19.6099 N   0  0  0  0  0  0  0  0  0  0  0  0
  -25.8550  -18.2711   22.8073 N   0  0  0  0  0  0  0  0  0  0  0  0
  -24.0444  -29.9286   21.9093 N   0  0  0  0  0  0  0  0  0  0  0  0
  -23.2451  -26.4685   18.7857 N   0  0  0  0  0  0  0  0  0  0  0  0
  -25.9017  -22.8958   18.0282 N   0  0  0  0  0  0  0  0  0  0  0  0
  -25.3209  -15.4259   20.7218 N   0  0  0  0  0  0  0  0  0  0  0  0
  -27.6525  -19.2770   25.4934 N   0  0  0  0  0  0  0  0  0  0  0  0
  -21.7923  -29.3761   22.3748 N   0  0  0  0  0  0  0  0  0  0  0  0
  -28.8149  -22.6988   25.4035 N   0  3  0  0  0  0  0  0  0  0  0  0
  -23.7734  -23.7167   17.7934 O   0  0  0  0  0  0  0  0  0  0  0  0
  -23.9080  -16.6000   22.1526 O   0  0  0  0  0  0  0  0  0  0  0  0
  -27.7505  -17.1514   23.5749 O   0  0  0  0  0  0  0  0  0  0  0  0
  -26.4176  -21.2375   25.5868 O   0  0  0  0  0  0  0  0  0  0  0  0
  -22.5420  -31.5224   22.6714 O   0  0  0  0  0  0  0  0  0  0  0  0
  -31.3193  -22.4992   19.2643 O   0  0  0  0  0  0  0  0  0  0  0  0
  -17.1236  -25.0958   22.5934 O   0  0  0  0  0  0  0  0  0  0  0  0
  -21.2399  -22.0532   21.2419 O   0  0  0  0  0  0  0  0  0  1  0  0
  -30.9834  -17.2401   20.8872 F   0  0  0  0  0  0  0  0  0  0  0  0
  -29.6935  -20.7044   17.9308 F   0  0  0  0  0  0  0  0  0  0  0  0
  -17.3502  -26.3372   25.3074 Cl  0  0  0  0  0  0  0  0  0  0  0  0
  1  2  1  0  0  0  0
  1  5  2  0  0  0  0
  2  6  2  0  0  0  0
  3  8  2  0  0  0  0
  3 17  1  0  0  0  0
  4  9  1  0  0  0  0
  4 17  2  0  0  0  0
  5 19  1  0  0  0  0
  6 21  1  0  0  0  0
  7 10  2  0  0  0  0
  7 20  1  0  0  0  0
  8 25  1  0  0  0  0
  9 25  2  0  0  0  0
 10 26  1  0  0  0  0
 11 12  2  0  0  0  0
 11 27  1  0  0  0  0
 12 29  1  0  0  0  0
 13 22  1  0  0  0  0
 13 26  2  0  0  0  0
 14 23  2  0  0  0  0
 14 24  1  0  0  0  0
 15 23  1  0  0  0  0
 15 31  2  0  0  0  0
 16 29  2  0  0  0  0
 16 30  1  0  0  0  0
 17 32  1  0  0  0  0
 18 32  1  0  0  0  0
 18 33  2  0  0  0  0
 18 34  1  0  0  0  0
 19 21  2  0  0  0  0
 19 39  1  0  0  0  0
 20 22  2  0  0  0  0
 20 40  1  0  0  0  0
 21 48  1  0  0  0  0
 22 41  1  0  0  0  0
 23 58  1  0  0  0  0
 24 28  2  0  0  0  0
 24 57  1  0  0  0  0
 25 80  1  0  0  0  0
 26 82  1  0  0  0  0
 27 30  2  0  0  0  0
 27 80  1  0  0  0  0
 28 31  1  0  0  0  0
 28 81  1  0  0  0  0
 29 83  1  0  0  0  0
 30 84  1  0  0  0  0
 31 85  1  0  0  0  0
 32 65  2  0  0  0  0
 33 66  1  0  0  0  0
 33 69  1  0  0  0  0
 34 70  1  0  0  0  0
 34 75  2  0  0  0  0
 35 49  1  0  0  0  0
 35 71  1  0  0  0  0
 35 76  2  0  0  0  0
 36 62  1  0  0  0  0
 36 67  1  0  0  0  0
 36 77  2  0  0  0  0
 37 63  1  0  0  0  0
 37 72  1  0  0  0  0
 37 78  2  0  0  0  0
 38 68  1  0  0  0  0
 38 73  1  0  0  0  0
 38 79  2  0  0  0  0
 39 42  1  0  0  0  0
 40 49  1  0  0  0  0
 41 67  1  0  0  0  0
 42 44  1  0  0  0  0
 43 45  1  0  0  0  0
 43 46  1  0  0  0  0
 44 48  1  0  0  0  0
 45 50  1  0  0  0  0
 46 68  1  0  0  0  0
 47 50  1  0  0  0  0
 47 68  1  0  0  0  0
 48 71  1  0  0  0  0
 49 67  1  0  0  0  0
 50 66  1  0  0  0  0
 51 63  1  0  0  0  0
 52 64  1  0  0  0  0
 53 64  1  0  0  0  0
 54 64  1  0  0  0  0
 55 74  1  0  0  0  0
 56 81  1  0  0  0  0
 57 59  1  0  0  0  0
 58 73  1  0  0  0  0
 59 60  1  0  0  0  0
 60 61  1  0  0  0  0
 61 82  1  0  0  0  0
 62 64  1  0  0  0  0
 62 72  1  0  0  0  0
 63 74  1  0  0  0  0
 65 66  1  0  0  0  0
M  CHG  1  74   1
M  ISO  4  38 100  61 101  73 100  82 101
M  END
> <Batch ID>
0033

> <Smiles>
CNC(C)C(=O)NC(C(=O)N1Cc2cc([101O:1][101CH2:1]CCCc3cc(C[100NH:0][100C:0](=O)N4CCCC(n5nc(-c6ccc(Oc7ccc(F)cc7F)cc6)c(C(N)=O)c5N)C4)cc(Cl)c3OC)ccc2CC1C(=O)NC1CCCc2ccccc21)C(C)(C)C

> <Shape>
0.189

> <Color>
0.081

> <Negative vol penalty>
0.000

$$$$

  -OEChem-04052316483D

 86 94  0     1  0  0  0  0  0999 V2000
  -32.5019  -18.0366   15.1421 C   0  0  0  0  0  0  0  0  0  0  0  0
  -31.3302  -17.6886   15.8064 C   0  0  0  0  0  0  0  0  0  0  0  0
  -23.2781   -9.7803   19.9870 C   0  0  0  0  0  0  0  0  0  0  0  0
  -23.7705   -9.9989   22.3422 C   0  0  0  0  0  0  0  0  0  0  0  0
  -33.3800  -18.9557   15.7149 C   0  0  0  0  0  0  0  0  0  0  0  0
  -31.0363  -18.2588   17.0445 C   0  0  0  0  0  0  0  0  0  0  0  0
  -25.4799  -20.3925   21.0308 C   0  0  0  0  0  0  0  0  0  0  0  0
  -22.5572   -8.6146   20.2459 C   0  0  0  0  0  0  0  0  0  0  0  0
  -23.0495   -8.8332   22.6011 C   0  0  0  0  0  0  0  0  0  0  0  0
  -24.9439  -20.2280   22.3073 C   0  0  0  0  0  0  0  0  0  0  0  0
  -23.2246   -5.3598   20.8666 C   0  0  0  0  0  0  0  0  0  0  0  0
  -23.4391   -4.2662   20.0278 C   0  0  0  0  0  0  0  0  0  0  0  0
  -26.4961  -21.8640   23.1634 C   0  0  0  0  0  0  0  0  0  0  0  0
  -21.1056   -4.2882   19.4023 C   0  0  0  0  0  0  0  0  0  0  0  0
  -23.8848  -10.4724   21.0351 C   0  0  0  0  0  0  0  0  0  0  0  0
  -24.1371  -12.9948   20.7491 C   0  0  0  0  0  0  0  0  0  0  0  0
  -33.0921  -19.5448   16.9561 C   0  0  0  0  0  0  0  0  0  0  0  0
  -26.5372  -21.2876   20.8127 C   0  0  0  0  0  0  0  0  0  0  0  0
  -31.9120  -19.1857   17.6351 C   0  0  0  0  0  0  0  0  0  0  0  0
  -27.0421  -22.0400   21.8828 C   0  0  0  0  0  0  0  0  0  0  0  0
  -22.4429   -8.1411   21.5529 C   0  0  0  0  0  0  0  0  0  0  0  0
  -25.4539  -20.9616   23.3744 C   0  0  0  0  0  0  0  0  0  0  0  0
  -21.9505   -5.9176   20.9734 C   0  0  0  0  0  0  0  0  0  0  0  0
  -22.3797   -3.7304   19.2956 C   0  0  0  0  0  0  0  0  0  0  0  0
  -20.8911   -5.3818   20.2412 C   0  0  0  0  0  0  0  0  0  0  0  0
  -24.6302  -11.6763   20.7683 C   0  0  0  0  0  0  0  0  0  0  0  0
  -25.2328  -13.7668   20.4493 C   0  0  0  0  0  0  0  0  0  0  0  0
  -28.9065  -17.3956   26.6381 C   0  0  0  0  0  0  0  0  0  0  0  0
  -26.8934  -17.9609   24.8102 C   0  0  0  0  0  0  0  0  0  0  0  0
  -29.1291  -17.2103   25.3261 C   0  0  0  0  0  0  0  0  0  0  0  0
  -28.0747  -17.5053   24.3615 C   0  0  0  0  0  0  0  0  0  0  0  0
  -27.5947  -17.9018   27.1357 C   0  0  0  0  0  0  0  0  0  0  0  0
  -22.8075  -13.4784   20.9817 C   0  0  0  0  0  0  0  0  0  0  0  0
  -29.5367  -21.0116   19.7977 C   0  0  0  0  0  0  0  0  0  0  0  0
  -29.4632  -24.2525   19.9151 C   0  0  0  0  0  0  0  0  0  0  0  0
  -28.0650  -27.0728   21.2332 C   0  0  0  0  0  0  0  0  0  0  0  0
  -31.1185  -12.9561   21.1920 C   0  0  0  0  0  0  0  0  0  0  0  0
  -34.0946  -20.4977   17.5575 C   0  0  0  0  0  0  0  0  0  0  0  0
  -27.0864  -21.4732   19.4248 C   0  0  0  0  0  0  0  0  0  0  0  0
  -28.1630  -23.0289   21.6977 C   0  0  0  0  0  0  0  0  0  0  0  0
  -33.5274  -21.3387   18.6982 C   0  0  0  0  0  0  0  0  0  0  0  0
  -29.4146  -13.5931   18.1314 C   0  0  0  0  0  0  0  0  0  0  0  0
  -32.7404  -20.4623   19.6673 C   0  0  0  0  0  0  0  0  0  0  0  0
  -27.9507  -13.2930   18.4584 C   0  0  0  0  0  0  0  0  0  0  0  0
  -30.3617  -12.6382   18.8548 C   0  0  0  0  0  0  0  0  0  0  0  0
  -28.7067  -12.2649   20.6424 C   0  0  0  0  0  0  0  0  0  0  0  0
  -31.5462  -19.8014   18.9682 C   0  0  1  0  0  0  0  0  0  0  0  0
  -28.5050  -22.0343   19.4138 C   0  0  1  0  0  0  0  0  0  0  0  0
  -27.7161  -13.2375   19.9799 C   0  0  2  0  0  0  0  0  0  0  0  0
  -28.3199  -17.2986   22.8952 C   0  0  0  0  0  0  0  0  0  0  0  0
  -28.2405  -29.5752   21.1652 C   0  0  0  0  0  0  0  0  0  0  0  0
  -31.9675  -24.1216   21.6532 C   0  0  0  0  0  0  0  0  0  0  0  0
  -31.5430  -26.4967   22.3218 C   0  0  0  0  0  0  0  0  0  0  0  0
  -31.9860  -25.9357   19.9318 C   0  0  0  0  0  0  0  0  0  0  0  0
  -25.2953  -27.3558   20.2295 C   0  0  0  0  0  0  0  0  0  0  0  0
  -30.4558  -16.7014   24.8386 C   0  0  0  0  0  0  0  0  0  0  0  0
  -30.3810  -15.2289   24.4479 C   0  0  0  0  0  0  0  0  0  0  0  0
  -31.7346  -14.7344   23.9282 C   0  0  0  0  0  0  0  0  0  0  0  0
  -25.3503  -20.1457   26.8915 C   0  0  0  0  0  0  0  0  0  0  0  0
  -25.3271  -18.6604   26.5568 C   0  0  0  0  0  0  0  0  0  0  0  0
  -31.7225  -13.2491   23.5812 C   0  0  0  0  0  0  0  0  0  0  0  0
  -25.8142  -21.0092   25.7247 C   0  0  0  0  0  0  0  0  0  1  0  0
  -29.7708  -25.2914   20.9662 C   0  0  1  0  0  0  0  0  0  0  0  0
  -27.5609  -28.3471   20.5800 C   0  0  2  0  0  0  0  0  0  0  0  0
  -31.2970  -25.4414   21.2224 C   0  0  0  0  0  0  0  0  0  0  0  0
  -25.9373  -11.6107   20.5016 N   0  0  0  0  0  0  0  0  0  0  0  0
  -26.2749  -12.8977   20.3120 N   0  0  0  0  0  0  0  0  0  0  0  0
  -26.6175  -18.1693   26.1595 N   0  0  0  0  0  0  0  0  0  0  0  0
  -28.6707  -23.1701   20.3230 N   0  0  0  0  0  0  0  0  0  0  0  0
  -30.0878  -12.6336   20.2939 N   0  0  0  0  0  0  0  0  0  0  0  0
  -25.3968  -15.0975   20.2922 N   0  0  0  0  0  0  0  0  0  0  0  0
  -21.8008  -12.5492   21.2777 N   0  0  0  0  0  0  0  0  0  0  0  0
  -30.4655  -20.7505   18.8084 N   0  0  0  0  0  0  0  0  0  0  0  0
  -29.1146  -26.5195   20.5307 N   0  0  0  0  0  0  0  0  0  0  0  0
  -30.7726  -12.9341   22.5376 N   0  0  0  0  0  0  0  0  0  0  0  0
  -26.0903  -28.4842   20.7786 N   0  3  0  0  0  0  0  0  0  0  0  0
  -27.4390  -18.0560   28.3459 O   0  0  0  0  0  0  0  0  0  0  0  0
  -22.5174  -14.6968   20.9125 O   0  0  0  0  0  0  0  0  0  0  0  0
  -29.4942  -20.4985   20.9098 O   0  0  0  0  0  0  0  0  0  0  0  0
  -29.9036  -24.3995   18.7723 O   0  0  0  0  0  0  0  0  0  0  0  0
  -27.5790  -26.6162   22.2656 O   0  0  0  0  0  0  0  0  0  0  0  0
  -32.2609  -13.2475   20.8219 O   0  0  0  0  0  0  0  0  0  0  0  0
  -21.7393   -7.0038   21.8060 O   0  0  0  0  0  0  0  0  0  0  0  0
  -24.9330  -20.8025   24.6214 O   0  0  0  0  0  0  0  0  0  1  0  0
  -22.5862   -2.6812   18.4890 F   0  0  0  0  0  0  0  0  0  0  0  0
  -19.6651   -5.9141   20.3386 F   0  0  0  0  0  0  0  0  0  0  0  0
  1  2  1  0  0  0  0
  1  5  2  0  0  0  0
  2  6  2  0  0  0  0
  3  8  2  0  0  0  0
  3 15  1  0  0  0  0
  4  9  1  0  0  0  0
  4 15  2  0  0  0  0
  5 17  1  0  0  0  0
  6 19  1  0  0  0  0
  7 10  2  0  0  0  0
  7 18  1  0  0  0  0
  8 21  1  0  0  0  0
  9 21  2  0  0  0  0
 10 22  1  0  0  0  0
 11 12  2  0  0  0  0
 11 23  1  0  0  0  0
 12 24  1  0  0  0  0
 13 20  1  0  0  0  0
 13 22  2  0  0  0  0
 14 24  2  0  0  0  0
 14 25  1  0  0  0  0
 15 26  1  0  0  0  0
 16 26  1  0  0  0  0
 16 27  2  0  0  0  0
 16 33  1  0  0  0  0
 17 19  2  0  0  0  0
 17 38  1  0  0  0  0
 18 20  2  0  0  0  0
 18 39  1  0  0  0  0
 19 47  1  0  0  0  0
 20 40  1  0  0  0  0
 21 83  1  0  0  0  0
 22 84  1  0  0  0  0
 23 25  2  0  0  0  0
 23 83  1  0  0  0  0
 24 85  1  0  0  0  0
 25 86  1  0  0  0  0
 26 66  2  0  0  0  0
 27 67  1  0  0  0  0
 27 71  1  0  0  0  0
 28 30  2  0  0  0  0
 28 32  1  0  0  0  0
 29 31  2  0  0  0  0
 29 68  1  0  0  0  0
 30 31  1  0  0  0  0
 30 56  1  0  0  0  0
 31 50  1  0  0  0  0
 32 68  1  0  0  0  0
 32 77  2  0  0  0  0
 33 72  1  0  0  0  0
 33 78  2  0  0  0  0
 34 48  1  0  0  0  0
 34 73  1  0  0  0  0
 34 79  2  0  0  0  0
 35 63  1  0  0  0  0
 35 69  1  0  0  0  0
 35 80  2  0  0  0  0
 36 64  1  0  0  0  0
 36 74  1  0  0  0  0
 36 81  2  0  0  0  0
 37 70  1  0  0  0  0
 37 75  1  0  0  0  0
 37 82  2  0  0  0  0
 38 41  1  0  0  0  0
 39 48  1  0  0  0  0
 40 69  1  0  0  0  0
 41 43  1  0  0  0  0
 42 44  1  0  0  0  0
 42 45  1  0  0  0  0
 43 47  1  0  0  0  0
 44 49  1  0  0  0  0
 45 70  1  0  0  0  0
 46 49  1  0  0  0  0
 46 70  1  0  0  0  0
 47 73  1  0  0  0  0
 48 69  1  0  0  0  0
 49 67  1  0  0  0  0
 51 64  1  0  0  0  0
 52 65  1  0  0  0  0
 53 65  1  0  0  0  0
 54 65  1  0  0  0  0
 55 76  1  0  0  0  0
 56 57  1  0  0  0  0
 57 58  1  0  0  0  0
 58 61  1  0  0  0  0
 59 60  1  0  0  0  0
 59 62  1  0  0  0  0
 60 68  1  0  0  0  0
 61 75  1  0  0  0  0
 62 84  1  0  0  0  0
 63 65  1  0  0  0  0
 63 74  1  0  0  0  0
 64 76  1  0  0  0  0
 66 67  1  0  0  0  0
M  CHG  1  76   1
M  ISO  4  37 100  62 101  75 100  84 101
M  END
> <Batch ID>
0033

> <Smiles>
CNC(C)C(=O)NC(C(=O)N1Cc2cc([101O:1][101CH2:1]CCn3cc(C)c(CCCC[100NH:0][100C:0](=O)N4CCCC(n5nc(-c6ccc(Oc7ccc(F)cc7F)cc6)c(C(N)=O)c5N)C4)cc3=O)ccc2CC1C(=O)NC1CCCc2ccccc21)C(C)(C)C

> <Shape>
0.220

> <Color>
0.190

> <Negative vol penalty>
0.000

$$$$

  -OEChem-04052316483D

 85 93  0     1  0  0  0  0  0999 V2000
  -25.3315  -19.6771   25.0722 C   0  0  0  0  0  0  0  0  0  0  0  0
  -25.3692  -21.0501   24.8567 C   0  0  0  0  0  0  0  0  0  0  0  0
  -24.1953  -13.0777   21.2147 C   0  0  0  0  0  0  0  0  0  0  0  0
  -26.3073  -12.6631   20.1172 C   0  0  0  0  0  0  0  0  0  0  0  0
  -24.2263  -18.9398   24.6528 C   0  0  0  0  0  0  0  0  0  0  0  0
  -24.2967  -21.6879   24.2324 C   0  0  0  0  0  0  0  0  0  0  0  0
  -24.4183  -26.6027   24.0496 C   0  0  0  0  0  0  0  0  0  0  0  0
  -23.7532  -11.8078   20.8438 C   0  0  0  0  0  0  0  0  0  0  0  0
  -25.8653  -11.3931   19.7463 C   0  0  0  0  0  0  0  0  0  0  0  0
  -25.2920  -27.3047   23.2203 C   0  0  0  0  0  0  0  0  0  0  0  0
  -24.1805   -8.6192   21.8845 C   0  0  0  0  0  0  0  0  0  0  0  0
  -23.5349   -7.8494   22.8520 C   0  0  0  0  0  0  0  0  0  0  0  0
  -23.4745  -27.7596   21.7008 C   0  0  0  0  0  0  0  0  0  0  0  0
  -27.3257  -28.4179   17.6461 C   0  0  0  0  0  0  0  0  0  0  0  0
  -21.5575   -7.7661   21.4662 C   0  0  0  0  0  0  0  0  0  0  0  0
  -25.4723  -13.5054   20.8513 C   0  0  0  0  0  0  0  0  0  0  0  0
  -26.6118  -15.1694   22.4134 C   0  0  0  0  0  0  0  0  0  0  0  0
  -23.1455  -19.5678   24.0120 C   0  0  0  0  0  0  0  0  0  0  0  0
  -23.0662  -26.4644   23.7047 C   0  0  0  0  0  0  0  0  0  0  0  0
  -23.1617  -20.9647   23.8234 C   0  0  0  0  0  0  0  0  0  0  0  0
  -22.5852  -27.0575   22.5287 C   0  0  0  0  0  0  0  0  0  0  0  0
  -28.4102  -27.6230   17.2923 C   0  0  0  0  0  0  0  0  0  0  0  0
  -29.4772  -27.4807   18.1723 C   0  0  0  0  0  0  0  0  0  0  0  0
  -24.5882  -10.9655   20.1097 C   0  0  0  0  0  0  0  0  0  0  0  0
  -24.8207  -27.8808   22.0443 C   0  0  0  0  0  0  0  0  0  0  0  0
  -23.5147   -8.9625   20.7078 C   0  0  0  0  0  0  0  0  0  0  0  0
  -22.2234   -7.4228   22.6429 C   0  0  0  0  0  0  0  0  0  0  0  0
  -22.2032   -8.5359   20.4987 C   0  0  0  0  0  0  0  0  0  0  0  0
  -25.9293  -14.8173   21.2336 C   0  0  0  0  0  0  0  0  0  0  0  0
  -27.3564  -29.0442   18.8817 C   0  0  0  0  0  0  0  0  0  0  0  0
  -29.4117  -28.1491   19.3842 C   0  0  0  0  0  0  0  0  0  0  0  0
  -26.8191  -16.5224   22.2994 C   0  0  0  0  0  0  0  0  0  0  0  0
  -27.0217  -14.3471   23.5140 C   0  0  0  0  0  0  0  0  0  0  0  0
  -21.1561  -24.0071   23.0588 C   0  0  0  0  0  0  0  0  0  0  0  0
  -28.4527  -20.8202   19.2765 C   0  0  0  0  0  0  0  0  0  0  0  0
  -18.8659  -26.3037   23.0051 C   0  0  0  0  0  0  0  0  0  0  0  0
  -18.0745  -29.5969   22.5862 C   0  0  0  0  0  0  0  0  0  0  0  0
  -21.9711  -18.7227   23.5856 C   0  0  0  0  0  0  0  0  0  0  0  0
  -22.1311  -25.7268   24.6234 C   0  0  0  0  0  0  0  0  0  0  0  0
  -21.1382  -26.9552   22.1234 C   0  0  0  0  0  0  0  0  0  0  0  0
  -21.0916  -19.4087   22.5453 C   0  0  0  0  0  0  0  0  0  0  0  0
  -24.9463  -19.8865   19.0312 C   0  0  0  0  0  0  0  0  0  0  0  0
  -20.7523  -20.8201   23.0008 C   0  0  0  0  0  0  0  0  0  0  0  0
  -24.9567  -18.4926   19.6572 C   0  0  0  0  0  0  0  0  0  0  0  0
  -26.2260  -20.1581   18.2446 C   0  0  0  0  0  0  0  0  0  0  0  0
  -27.4877  -18.5762   19.6694 C   0  0  0  0  0  0  0  0  0  0  0  0
  -22.0201  -21.6754   23.1190 C   0  0  1  0  0  0  0  0  0  0  0  0
  -20.8821  -25.2105   23.9158 C   0  0  1  0  0  0  0  0  0  0  0  0
  -26.2273  -18.2743   20.4972 C   0  0  2  0  0  0  0  0  0  0  0  0
  -28.4055  -26.9369   15.9659 C   0  0  0  0  0  0  0  0  0  0  0  0
  -16.1152  -31.1646   22.5637 C   0  0  0  0  0  0  0  0  0  0  0  0
  -18.0852  -25.2844   20.2372 C   0  0  0  0  0  0  0  0  0  0  0  0
  -16.8245  -27.4183   19.8834 C   0  0  0  0  0  0  0  0  0  0  0  0
  -16.1551  -25.8657   21.7175 C   0  0  0  0  0  0  0  0  0  0  0  0
  -19.1519  -31.1611   24.8559 C   0  0  0  0  0  0  0  0  0  0  0  0
  -30.6499  -26.6316   17.8091 C   0  0  0  0  0  0  0  0  0  0  0  0
  -26.1965  -29.9150   19.2997 C   0  0  0  0  0  0  0  0  0  0  0  0
  -28.3283  -22.1569   18.5896 C   0  0  0  0  0  0  0  0  0  0  0  0
  -30.6823  -25.2609   18.5084 C   0  0  0  0  0  0  0  0  0  0  0  0
  -29.5288  -23.0456   18.9001 C   0  0  0  0  0  0  0  0  0  0  0  0
  -29.4457  -24.4084   18.2044 C   0  0  0  0  0  0  0  0  0  0  0  0
  -25.1210  -29.1305   20.0433 C   0  0  0  0  0  0  0  0  0  1  0  0
  -18.2846  -27.2092   21.9463 C   0  0  1  0  0  0  0  0  0  0  0  0
  -17.2136  -30.5385   23.4088 C   0  0  2  0  0  0  0  0  0  0  0  0
  -17.3651  -26.4449   20.9525 C   0  0  0  0  0  0  0  0  0  0  0  0
  -25.7171  -15.8623   20.4292 N   0  0  0  0  0  0  0  0  0  0  0  0
  -28.3751  -28.9299   19.7630 N   0  0  0  0  0  0  0  0  0  0  0  0
  -26.2693  -16.8844   21.1049 N   0  0  0  0  0  0  0  0  0  0  0  0
  -20.2646  -26.2185   23.0516 N   0  0  0  0  0  0  0  0  0  0  0  0
  -27.4136  -19.9123   19.0713 N   0  0  0  0  0  0  0  0  0  0  0  0
  -27.4162  -17.4259   23.1054 N   0  0  0  0  0  0  0  0  0  0  0  0
  -26.7290  -12.9771   23.4698 N   0  0  0  0  0  0  0  0  0  0  0  0
  -21.6841  -22.9330   23.7495 N   0  0  0  0  0  0  0  0  0  0  0  0
  -17.6216  -28.2965   22.6582 N   0  0  0  0  0  0  0  0  0  0  0  0
  -18.0462  -31.6330   23.9832 N   0  3  0  0  0  0  0  0  0  0  0  0
  -27.6151  -14.8161   24.5147 O   0  0  0  0  0  0  0  0  0  0  0  0
  -20.9057  -24.0494   21.8600 O   0  0  0  0  0  0  0  0  0  0  0  0
  -29.4431  -20.5929   19.9762 O   0  0  0  0  0  0  0  0  0  0  0  0
  -18.1071  -25.6999   23.7676 O   0  0  0  0  0  0  0  0  0  0  0  0
  -19.0490  -29.9775   21.9411 O   0  0  0  0  0  0  0  0  0  0  0  0
  -24.1573   -9.7262   19.7479 O   0  0  0  0  0  0  0  0  0  0  0  0
  -25.6714  -28.5660   21.2327 O   0  0  0  0  0  0  0  0  0  1  0  0
  -21.6040   -6.6823   23.5714 F   0  0  0  0  0  0  0  0  0  0  0  0
  -21.5588   -8.8616   19.3698 F   0  0  0  0  0  0  0  0  0  0  0  0
  -30.6647  -28.0521   20.5593 Cl  0  0  0  0  0  0  0  0  0  0  0  0
  1  2  1  0  0  0  0
  1  5  2  0  0  0  0
  2  6  2  0  0  0  0
  3  8  2  0  0  0  0
  3 16  1  0  0  0  0
  4  9  1  0  0  0  0
  4 16  2  0  0  0  0
  5 18  1  0  0  0  0
  6 20  1  0  0  0  0
  7 10  2  0  0  0  0
  7 19  1  0  0  0  0
  8 24  1  0  0  0  0
  9 24  2  0  0  0  0
 10 25  1  0  0  0  0
 11 12  2  0  0  0  0
 11 26  1  0  0  0  0
 12 27  1  0  0  0  0
 13 21  1  0  0  0  0
 13 25  2  0  0  0  0
 14 22  2  0  0  0  0
 14 30  1  0  0  0  0
 15 27  2  0  0  0  0
 15 28  1  0  0  0  0
 16 29  1  0  0  0  0
 17 29  1  0  0  0  0
 17 32  2  0  0  0  0
 17 33  1  0  0  0  0
 18 20  2  0  0  0  0
 18 38  1  0  0  0  0
 19 21  2  0  0  0  0
 19 39  1  0  0  0  0
 20 47  1  0  0  0  0
 21 40  1  0  0  0  0
 22 23  1  0  0  0  0
 22 50  1  0  0  0  0
 23 31  2  0  0  0  0
 23 56  1  0  0  0  0
 24 81  1  0  0  0  0
 25 82  1  0  0  0  0
 26 28  2  0  0  0  0
 26 81  1  0  0  0  0
 27 83  1  0  0  0  0
 28 84  1  0  0  0  0
 29 66  2  0  0  0  0
 30 57  1  0  0  0  0
 30 67  2  0  0  0  0
 31 67  1  0  0  0  0
 31 85  1  0  0  0  0
 32 68  1  0  0  0  0
 32 71  1  0  0  0  0
 33 72  1  0  0  0  0
 33 76  2  0  0  0  0
 34 48  1  0  0  0  0
 34 73  1  0  0  0  0
 34 77  2  0  0  0  0
 35 58  1  0  0  0  0
 35 70  1  0  0  0  0
 35 78  2  0  0  0  0
 36 63  1  0  0  0  0
 36 69  1  0  0  0  0
 36 79  2  0  0  0  0
 37 64  1  0  0  0  0
 37 74  1  0  0  0  0
 37 80  2  0  0  0  0
 38 41  1  0  0  0  0
 39 48  1  0  0  0  0
 40 69  1  0  0  0  0
 41 43  1  0  0  0  0
 42 44  1  0  0  0  0
 42 45  1  0  0  0  0
 43 47  1  0  0  0  0
 44 49  1  0  0  0  0
 45 70  1  0  0  0  0
 46 49  1  0  0  0  0
 46 70  1  0  0  0  0
 47 73  1  0  0  0  0
 48 69  1  0  0  0  0
 49 68  1  0  0  0  0
 51 64  1  0  0  0  0
 52 65  1  0  0  0  0
 53 65  1  0  0  0  0
 54 65  1  0  0  0  0
 55 75  1  0  0  0  0
 56 59  1  0  0  0  0
 57 62  1  0  0  0  0
 58 60  1  0  0  0  0
 59 61  1  0  0  0  0
 60 61  1  0  0  0  0
 62 82  1  0  0  0  0
 63 65  1  0  0  0  0
 63 74  1  0  0  0  0
 64 75  1  0  0  0  0
 66 68  1  0  0  0  0
M  CHG  1  75   1
M  ISO  4  35 100  58 100  62 101  82 101
M  END
> <Batch ID>
0033

> <Smiles>
CNC(C)C(=O)NC(C(=O)N1Cc2cc([101O:1][101CH2:1]Cc3cc(C)c(CCCC[100CH2:0][100C:0](=O)N4CCCC(n5nc(-c6ccc(Oc7ccc(F)cc7F)cc6)c(C(N)=O)c5N)C4)c(Cl)n3)ccc2CC1C(=O)NC1CCCc2ccccc21)C(C)(C)C

> <Shape>
0.232

> <Color>
0.049

> <Negative vol penalty>
0.000

$$$$

  -OEChem-04052316483D

 84 92  0     1  0  0  0  0  0999 V2000
  -22.8561   -4.5342   24.1810 C   0  0  0  0  0  0  0  0  0  0  0  0
  -24.2144   -4.5728   24.4794 C   0  0  0  0  0  0  0  0  0  0  0  0
  -23.2838   -9.8018   19.9058 C   0  0  0  0  0  0  0  0  0  0  0  0
  -23.7277   -9.9400   22.2766 C   0  0  0  0  0  0  0  0  0  0  0  0
  -21.9730   -5.3833   24.8466 C   0  0  0  0  0  0  0  0  0  0  0  0
  -24.6905   -5.4613   25.4428 C   0  0  0  0  0  0  0  0  0  0  0  0
  -27.9987   -3.3020   28.6112 C   0  0  0  0  0  0  0  0  0  0  0  0
  -32.6835   -9.3999   26.5439 C   0  0  0  0  0  0  0  0  0  0  0  0
  -33.3519   -8.2380   26.9298 C   0  0  0  0  0  0  0  0  0  0  0  0
  -22.5548   -8.6304   20.1106 C   0  0  0  0  0  0  0  0  0  0  0  0
  -22.9987   -8.7686   22.4814 C   0  0  0  0  0  0  0  0  0  0  0  0
  -29.3003   -3.1204   28.1459 C   0  0  0  0  0  0  0  0  0  0  0  0
  -20.2736   -5.8005   20.0543 C   0  0  0  0  0  0  0  0  0  0  0  0
  -19.0480   -5.6767   19.4000 C   0  0  0  0  0  0  0  0  0  0  0  0
  -29.9988   -5.0913   29.3487 C   0  0  0  0  0  0  0  0  0  0  0  0
  -32.3881   -8.4927   24.3242 C   0  0  0  0  0  0  0  0  0  0  0  0
  -18.2413   -7.6496   20.5377 C   0  0  0  0  0  0  0  0  0  0  0  0
  -23.8704  -10.4566   20.9888 C   0  0  0  0  0  0  0  0  0  0  0  0
  -24.1347  -12.9863   20.7928 C   0  0  0  0  0  0  0  0  0  0  0  0
  -22.4371   -6.2759   25.8256 C   0  0  0  0  0  0  0  0  0  0  0  0
  -27.6845   -4.3877   29.4412 C   0  0  0  0  0  0  0  0  0  0  0  0
  -23.8129   -6.3241   26.1212 C   0  0  0  0  0  0  0  0  0  0  0  0
  -28.6930   -5.2831   29.8252 C   0  0  0  0  0  0  0  0  0  0  0  0
  -32.2016   -9.5272   25.2411 C   0  0  0  0  0  0  0  0  0  0  0  0
  -33.5385   -7.2035   26.0130 C   0  0  0  0  0  0  0  0  0  0  0  0
  -22.4122   -8.1138   21.3984 C   0  0  0  0  0  0  0  0  0  0  0  0
  -30.3001   -4.0167   28.5123 C   0  0  0  0  0  0  0  0  0  0  0  0
  -20.4831   -6.8488   20.9504 C   0  0  0  0  0  0  0  0  0  0  0  0
  -18.0319   -6.6012   19.6417 C   0  0  0  0  0  0  0  0  0  0  0  0
  -19.4670   -7.7733   21.1920 C   0  0  0  0  0  0  0  0  0  0  0  0
  -33.0566   -7.3308   24.7101 C   0  0  0  0  0  0  0  0  0  0  0  0
  -24.6240  -11.6664   20.7779 C   0  0  0  0  0  0  0  0  0  0  0  0
  -25.2383  -13.7644   20.5416 C   0  0  0  0  0  0  0  0  0  0  0  0
  -22.8018  -13.4660   21.0139 C   0  0  0  0  0  0  0  0  0  0  0  0
  -25.7572   -6.9047   29.2092 C   0  0  0  0  0  0  0  0  0  0  0  0
  -26.6605   -7.3898   32.2867 C   0  0  0  0  0  0  0  0  0  0  0  0
  -28.9785   -6.8840   34.7398 C   0  0  0  0  0  0  0  0  0  0  0  0
  -31.1053  -12.9108   21.3783 C   0  0  0  0  0  0  0  0  0  0  0  0
  -21.4510   -7.2075   26.4846 C   0  0  0  0  0  0  0  0  0  0  0  0
  -26.2812   -4.5546   29.9563 C   0  0  0  0  0  0  0  0  0  0  0  0
  -28.4119   -6.4533   30.7307 C   0  0  0  0  0  0  0  0  0  0  0  0
  -21.9844   -7.8564   27.7593 C   0  0  0  0  0  0  0  0  0  0  0  0
  -29.4669  -13.6551   18.3061 C   0  0  0  0  0  0  0  0  0  0  0  0
  -23.3958   -8.3903   27.5362 C   0  0  0  0  0  0  0  0  0  0  0  0
  -27.9958  -13.3489   18.5926 C   0  0  0  0  0  0  0  0  0  0  0  0
  -30.3964  -12.6736   19.0166 C   0  0  0  0  0  0  0  0  0  0  0  0
  -28.7038  -12.2459   20.7561 C   0  0  0  0  0  0  0  0  0  0  0  0
  -24.3642   -7.2567   27.1778 C   0  0  1  0  0  0  0  0  0  0  0  0
  -25.9663   -5.9860   30.3796 C   0  0  1  0  0  0  0  0  0  0  0  0
  -27.7295  -13.2433   20.1062 C   0  0  2  0  0  0  0  0  0  0  0  0
  -29.4581   -7.4349   37.1406 C   0  0  0  0  0  0  0  0  0  0  0  0
  -27.4555  -10.2218   31.4755 C   0  0  0  0  0  0  0  0  0  0  0  0
  -28.7684  -10.3872   33.6009 C   0  0  0  0  0  0  0  0  0  0  0  0
  -26.2974  -10.0561   33.6859 C   0  0  0  0  0  0  0  0  0  0  0  0
  -28.9779   -4.0281   35.5161 C   0  0  0  0  0  0  0  0  0  0  0  0
  -31.4870  -10.7695   24.8283 C   0  0  0  0  0  0  0  0  0  0  0  0
  -34.2669   -5.9648   26.4696 C   0  0  0  0  0  0  0  0  0  0  0  0
  -32.4011  -11.8712   24.2565 C   0  0  0  0  0  0  0  0  0  0  0  0
  -33.3458   -4.7730   26.7398 C   0  0  0  0  0  0  0  0  0  0  0  0
  -31.6603  -13.1219   23.7880 C   0  0  0  0  0  0  0  0  0  0  0  0
  -32.3639   -5.0151   27.8802 C   0  0  0  0  0  0  0  0  0  1  0  0
  -27.7808   -8.1392   32.9666 C   0  0  1  0  0  0  0  0  0  0  0  0
  -28.8366   -6.4313   36.1818 C   0  0  2  0  0  0  0  0  0  0  0  0
  -27.5808   -9.6802   32.9136 C   0  0  0  0  0  0  0  0  0  0  0  0
  -25.9362  -11.6056   20.5363 N   0  0  0  0  0  0  0  0  0  0  0  0
  -26.2808  -12.8971   20.3969 N   0  0  0  0  0  0  0  0  0  0  0  0
  -27.0230   -6.5773   31.2031 N   0  0  0  0  0  0  0  0  0  0  0  0
  -30.0927  -12.6217   20.4487 N   0  0  0  0  0  0  0  0  0  0  0  0
  -25.4088  -15.0991   20.4326 N   0  0  0  0  0  0  0  0  0  0  0  0
  -21.7869  -12.5307   21.2577 N   0  0  0  0  0  0  0  0  0  0  0  0
  -24.7357   -6.5154   28.3639 N   0  0  0  0  0  0  0  0  0  0  0  0
  -27.8754   -7.5951   34.3169 N   0  0  0  0  0  0  0  0  0  0  0  0
  -30.7315  -12.8449   22.7149 N   0  0  0  0  0  0  0  0  0  0  0  0
  -29.5067   -5.1150   36.3798 N   0  3  0  0  0  0  0  0  0  0  0  0
  -22.5161  -14.6870   20.9796 O   0  0  0  0  0  0  0  0  0  0  0  0
  -26.4688   -7.8944   29.0832 O   0  0  0  0  0  0  0  0  0  0  0  0
  -25.5073   -7.5150   32.7062 O   0  0  0  0  0  0  0  0  0  0  0  0
  -29.9703   -6.6352   34.0580 O   0  0  0  0  0  0  0  0  0  0  0  0
  -32.2558  -13.2108   21.0418 O   0  0  0  0  0  0  0  0  0  0  0  0
  -21.7007   -6.9709   21.5986 O   0  0  0  0  0  0  0  0  0  0  0  0
  -31.5713   -3.8421   28.0591 O   0  0  0  0  0  0  0  0  0  1  0  0
  -16.8555   -6.4831   19.0121 F   0  0  0  0  0  0  0  0  0  0  0  0
  -19.6628   -8.7832   22.0509 F   0  0  0  0  0  0  0  0  0  0  0  0
  -33.2699   -6.0720   23.5486 Cl  0  0  0  0  0  0  0  0  0  0  0  0
  1  2  1  0  0  0  0
  1  5  2  0  0  0  0
  2  6  2  0  0  0  0
  3 10  2  0  0  0  0
  3 18  1  0  0  0  0
  4 11  1  0  0  0  0
  4 18  2  0  0  0  0
  5 20  1  0  0  0  0
  6 22  1  0  0  0  0
  7 12  2  0  0  0  0
  7 21  1  0  0  0  0
  8  9  2  0  0  0  0
  8 24  1  0  0  0  0
  9 25  1  0  0  0  0
 10 26  1  0  0  0  0
 11 26  2  0  0  0  0
 12 27  1  0  0  0  0
 13 14  2  0  0  0  0
 13 28  1  0  0  0  0
 14 29  1  0  0  0  0
 15 23  1  0  0  0  0
 15 27  2  0  0  0  0
 16 24  2  0  0  0  0
 16 31  1  0  0  0  0
 17 29  2  0  0  0  0
 17 30  1  0  0  0  0
 18 32  1  0  0  0  0
 19 32  1  0  0  0  0
 19 33  2  0  0  0  0
 19 34  1  0  0  0  0
 20 22  2  0  0  0  0
 20 39  1  0  0  0  0
 21 23  2  0  0  0  0
 21 40  1  0  0  0  0
 22 48  1  0  0  0  0
 23 41  1  0  0  0  0
 24 56  1  0  0  0  0
 25 31  2  0  0  0  0
 25 57  1  0  0  0  0
 26 80  1  0  0  0  0
 27 81  1  0  0  0  0
 28 30  2  0  0  0  0
 28 80  1  0  0  0  0
 29 82  1  0  0  0  0
 30 83  1  0  0  0  0
 31 84  1  0  0  0  0
 32 65  2  0  0  0  0
 33 66  1  0  0  0  0
 33 69  1  0  0  0  0
 34 70  1  0  0  0  0
 34 75  2  0  0  0  0
 35 49  1  0  0  0  0
 35 71  1  0  0  0  0
 35 76  2  0  0  0  0
 36 62  1  0  0  0  0
 36 67  1  0  0  0  0
 36 77  2  0  0  0  0
 37 63  1  0  0  0  0
 37 72  1  0  0  0  0
 37 78  2  0  0  0  0
 38 68  1  0  0  0  0
 38 73  1  0  0  0  0
 38 79  2  0  0  0  0
 39 42  1  0  0  0  0
 40 49  1  0  0  0  0
 41 67  1  0  0  0  0
 42 44  1  0  0  0  0
 43 45  1  0  0  0  0
 43 46  1  0  0  0  0
 44 48  1  0  0  0  0
 45 50  1  0  0  0  0
 46 68  1  0  0  0  0
 47 50  1  0  0  0  0
 47 68  1  0  0  0  0
 48 71  1  0  0  0  0
 49 67  1  0  0  0  0
 50 66  1  0  0  0  0
 51 63  1  0  0  0  0
 52 64  1  0  0  0  0
 53 64  1  0  0  0  0
 54 64  1  0  0  0  0
 55 74  1  0  0  0  0
 56 58  1  0  0  0  0
 57 59  1  0  0  0  0
 58 60  1  0  0  0  0
 59 61  1  0  0  0  0
 60 73  1  0  0  0  0
 61 81  1  0  0  0  0
 62 64  1  0  0  0  0
 62 72  1  0  0  0  0
 63 74  1  0  0  0  0
 65 66  1  0  0  0  0
M  CHG  1  74   1
M  ISO  4  38 100  61 101  73 100  81 101
M  END
> <Batch ID>
0033

> <Smiles>
CNC(C)C(=O)NC(C(=O)N1Cc2cc([101O:1][101CH2:1]CCc3ccc(CCC[100NH:0][100C:0](=O)N4CCCC(n5nc(-c6ccc(Oc7ccc(F)cc7F)cc6)c(C(N)=O)c5N)C4)cc3Cl)ccc2CC1C(=O)NC1CCCc2ccccc21)C(C)(C)C

> <Shape>
0.130

> <Color>
0.182

> <Negative vol penalty>
0.000

$$$$

  -OEChem-04052316483D

 89 98  0     1  0  0  0  0  0999 V2000
  -20.0776  -23.7279   23.0486 C   0  0  0  0  0  0  0  0  0  0  0  0
  -21.2399  -24.0846   22.3724 C   0  0  0  0  0  0  0  0  0  0  0  0
  -25.9592  -13.5427   20.3966 C   0  0  0  0  0  0  0  0  0  0  0  0
  -23.5697  -13.2537   20.1877 C   0  0  0  0  0  0  0  0  0  0  0  0
  -19.1274  -24.6997   23.3597 C   0  0  0  0  0  0  0  0  0  0  0  0
  -21.4522  -25.4131   22.0059 C   0  0  0  0  0  0  0  0  0  0  0  0
  -26.1637  -26.9757   23.0084 C   0  0  0  0  0  0  0  0  0  0  0  0
  -26.0442  -12.3373   21.0933 C   0  0  0  0  0  0  0  0  0  0  0  0
  -23.6546  -12.0482   20.8844 C   0  0  0  0  0  0  0  0  0  0  0  0
  -27.1674  -26.5794   22.1255 C   0  0  0  0  0  0  0  0  0  0  0  0
  -23.2908   -8.7167   22.2939 C   0  0  0  0  0  0  0  0  0  0  0  0
  -22.5834   -7.6248   21.7909 C   0  0  0  0  0  0  0  0  0  0  0  0
  -27.0737  -28.7407   21.0582 C   0  0  0  0  0  0  0  0  0  0  0  0
  -23.8394   -7.7599   19.7314 C   0  0  0  0  0  0  0  0  0  0  0  0
  -24.7220  -14.0009   19.9438 C   0  0  0  0  0  0  0  0  0  0  0  0
  -24.7324  -15.4331   17.8328 C   0  0  0  0  0  0  0  0  0  0  0  0
  -19.3327  -26.0425   23.0054 C   0  0  0  0  0  0  0  0  0  0  0  0
  -25.5989  -28.2559   22.9156 C   0  0  0  0  0  0  0  0  0  0  0  0
  -20.5033  -26.4036   22.3114 C   0  0  0  0  0  0  0  0  0  0  0  0
  -26.0648  -29.1517   21.9427 C   0  0  0  0  0  0  0  0  0  0  0  0
  -30.2051  -25.5071   19.4832 C   0  0  0  0  0  0  0  0  0  0  0  0
  -24.8919  -11.5901   21.3372 C   0  0  0  0  0  0  0  0  0  0  0  0
  -27.6205  -27.4608   21.1484 C   0  0  0  0  0  0  0  0  0  0  0  0
  -24.2724   -9.3303   21.5156 C   0  0  0  0  0  0  0  0  0  0  0  0
  -22.8577   -7.1464   20.5096 C   0  0  0  0  0  0  0  0  0  0  0  0
  -24.5467   -8.8519   20.2344 C   0  0  0  0  0  0  0  0  0  0  0  0
  -24.6335  -15.2463   19.2246 C   0  0  0  0  0  0  0  0  0  0  0  0
  -30.2618  -24.5452   18.5044 C   0  0  0  0  0  0  0  0  0  0  0  0
  -31.4209  -26.2061   19.3606 C   0  0  0  0  0  0  0  0  0  0  0  0
  -24.5832  -16.7870   17.6565 C   0  0  0  0  0  0  0  0  0  0  0  0
  -24.9405  -14.4689   16.7922 C   0  0  0  0  0  0  0  0  0  0  0  0
  -22.6853  -29.3854   22.3335 C   0  0  0  0  0  0  0  0  0  0  0  0
  -24.0751  -32.2338   23.0244 C   0  0  0  0  0  0  0  0  0  0  0  0
  -26.9281  -34.0981   23.2018 C   0  0  0  0  0  0  0  0  0  0  0  0
  -25.5537  -22.0038   19.0213 C   0  0  0  0  0  0  0  0  0  0  0  0
  -18.2553  -27.0495   23.3215 C   0  0  0  0  0  0  0  0  0  0  0  0
  -24.5358  -28.6775   23.8925 C   0  0  0  0  0  0  0  0  0  0  0  0
  -25.5055  -30.5443   21.8142 C   0  0  0  0  0  0  0  0  0  0  0  0
  -18.7290  -28.4976   23.2287 C   0  0  0  0  0  0  0  0  0  0  0  0
  -23.1204  -20.3944   20.8752 C   0  0  0  0  0  0  0  0  0  0  0  0
  -19.5252  -28.7178   21.9464 C   0  0  0  0  0  0  0  0  0  0  0  0
  -23.2947  -18.9221   20.5033 C   0  0  0  0  0  0  0  0  0  0  0  0
  -29.0272  -22.4574   19.2380 C   0  0  0  0  0  0  0  0  0  0  0  0
  -27.9437  -24.0583   17.6033 C   0  0  0  0  0  0  0  0  0  0  0  0
  -24.4722  -21.0774   21.0469 C   0  0  0  0  0  0  0  0  0  0  0  0
  -28.0052  -21.3900   18.8362 C   0  0  0  0  0  0  0  0  0  0  0  0
  -26.9674  -22.9492   17.2223 C   0  0  0  0  0  0  0  0  0  0  0  0
  -25.5413  -19.5068   19.4632 C   0  0  0  0  0  0  0  0  0  0  0  0
  -20.7811  -27.8384   21.9189 C   0  0  1  0  0  0  0  0  0  0  0  0
  -29.2743  -23.4662   18.1019 C   0  0  0  0  0  0  0  0  0  0  0  0
  -23.6723  -29.8250   23.3776 C   0  0  1  0  0  0  0  0  0  0  0  0
  -24.2019  -18.7669   19.2699 C   0  0  1  0  0  0  0  0  0  0  0  0
  -31.8921  -27.3475   20.1646 C   0  0  0  0  0  0  0  0  0  0  0  0
  -27.7425  -36.4043   23.7636 C   0  0  0  0  0  0  0  0  0  0  0  0
  -23.0203  -33.2552   20.3497 C   0  0  0  0  0  0  0  0  0  0  0  0
  -24.6221  -35.1711   20.5288 C   0  0  0  0  0  0  0  0  0  0  0  0
  -22.8276  -34.8839   22.2377 C   0  0  0  0  0  0  0  0  0  0  0  0
  -28.6246  -33.0878   25.4063 C   0  0  0  0  0  0  0  0  0  0  0  0
  -29.1146  -25.7502   20.4434 C   0  0  0  0  0  0  0  0  0  1  0  0
  -32.0125  -23.5494   14.2528 C   0  0  0  0  0  0  0  0  0  0  0  0
  -31.3986  -24.3351   15.4160 C   0  0  0  0  0  0  0  0  0  0  0  0
  -31.3903  -23.9654   12.9160 C   0  0  0  0  0  0  0  0  0  0  0  0
  -31.9859  -23.9489   16.7760 C   0  0  0  0  0  0  0  0  0  0  0  0
  -32.0220  -23.2691   11.7148 C   0  0  0  0  0  0  0  0  0  0  0  0
  -24.7936  -33.2944   22.2258 C   0  0  1  0  0  0  0  0  0  0  0  0
  -27.4735  -35.0036   24.2913 C   0  0  2  0  0  0  0  0  0  0  0  0
  -23.8253  -34.1243   21.3364 C   0  0  0  0  0  0  0  0  0  0  0  0
  -24.4368  -16.3901   19.8856 N   0  0  0  0  0  0  0  0  0  0  0  0
  -32.1936  -25.7288   18.3812 N   0  0  0  0  0  0  0  0  0  0  0  0
  -31.4616  -24.7195   17.8796 N   0  0  0  0  0  0  0  0  0  0  0  0
  -24.4110  -17.3086   18.9049 N   0  0  0  0  0  0  0  0  0  0  0  0
  -24.4634  -30.9073   22.7886 N   0  0  0  0  0  0  0  0  0  0  0  0
  -25.3051  -20.9045   19.8568 N   0  0  0  0  0  0  0  0  0  0  0  0
  -26.7747  -22.0139   18.3302 N   0  0  0  0  0  0  0  0  0  0  0  0
  -24.5838  -17.5703   16.5571 N   0  0  0  0  0  0  0  0  0  0  0  0
  -25.0733  -13.1198   17.1482 N   0  0  0  0  0  0  0  0  0  0  0  0
  -21.8124  -28.4037   22.7623 N   0  0  0  0  0  0  0  0  0  0  0  0
  -25.5493  -34.0884   23.1886 N   0  0  0  0  0  0  0  0  0  0  0  0
  -28.7479  -34.4527   24.8329 N   0  3  0  0  0  0  0  0  0  0  0  0
  -25.0230  -14.7960   15.5840 O   0  0  0  0  0  0  0  0  0  0  0  0
  -22.7126  -29.8998   21.2216 O   0  0  0  0  0  0  0  0  0  0  0  0
  -23.2064  -32.5704   23.8330 O   0  0  0  0  0  0  0  0  0  0  0  0
  -27.6526  -33.4658   22.4365 O   0  0  0  0  0  0  0  0  0  0  0  0
  -24.7334  -22.9220   18.8987 O   0  0  0  0  0  0  0  0  0  0  0  0
  -24.9744  -10.4137   22.0167 O   0  0  0  0  0  0  0  0  0  0  0  0
  -28.6043  -27.0744   20.2808 O   0  0  0  0  0  0  0  0  0  1  0  0
  -22.1794   -6.0969   20.0273 F   0  0  0  0  0  0  0  0  0  0  0  0
  -25.4895   -9.4364   19.4825 F   0  0  0  0  0  0  0  0  0  0  0  0
  -31.8355  -21.5019   11.7923 Cl  0  0  0  0  0  0  0  0  0  0  0  0
  1  2  1  0  0  0  0
  1  5  2  0  0  0  0
  2  6  2  0  0  0  0
  3  8  2  0  0  0  0
  3 15  1  0  0  0  0
  4  9  1  0  0  0  0
  4 15  2  0  0  0  0
  5 17  1  0  0  0  0
  6 19  1  0  0  0  0
  7 10  2  0  0  0  0
  7 18  1  0  0  0  0
  8 22  1  0  0  0  0
  9 22  2  0  0  0  0
 10 23  1  0  0  0  0
 11 12  2  0  0  0  0
 11 24  1  0  0  0  0
 12 25  1  0  0  0  0
 13 20  1  0  0  0  0
 13 23  2  0  0  0  0
 14 25  2  0  0  0  0
 14 26  1  0  0  0  0
 15 27  1  0  0  0  0
 16 27  1  0  0  0  0
 16 30  2  0  0  0  0
 16 31  1  0  0  0  0
 17 19  2  0  0  0  0
 17 36  1  0  0  0  0
 18 20  2  0  0  0  0
 18 37  1  0  0  0  0
 19 49  1  0  0  0  0
 20 38  1  0  0  0  0
 21 28  2  0  0  0  0
 21 29  1  0  0  0  0
 21 59  1  0  0  0  0
 22 85  1  0  0  0  0
 23 86  1  0  0  0  0
 24 26  2  0  0  0  0
 24 85  1  0  0  0  0
 25 87  1  0  0  0  0
 26 88  1  0  0  0  0
 27 68  2  0  0  0  0
 28 50  1  0  0  0  0
 28 70  1  0  0  0  0
 29 53  1  0  0  0  0
 29 69  2  0  0  0  0
 30 71  1  0  0  0  0
 30 75  1  0  0  0  0
 31 76  1  0  0  0  0
 31 80  2  0  0  0  0
 32 51  1  0  0  0  0
 32 77  1  0  0  0  0
 32 81  2  0  0  0  0
 33 65  1  0  0  0  0
 33 72  1  0  0  0  0
 33 82  2  0  0  0  0
 34 66  1  0  0  0  0
 34 78  1  0  0  0  0
 34 83  2  0  0  0  0
 35 73  1  0  0  0  0
 35 74  1  0  0  0  0
 35 84  2  0  0  0  0
 36 39  1  0  0  0  0
 37 51  1  0  0  0  0
 38 72  1  0  0  0  0
 39 41  1  0  0  0  0
 40 42  1  0  0  0  0
 40 45  1  0  0  0  0
 41 49  1  0  0  0  0
 42 52  1  0  0  0  0
 43 46  1  0  0  0  0
 43 50  1  0  0  0  0
 44 47  1  0  0  0  0
 44 50  1  0  0  0  0
 45 73  1  0  0  0  0
 46 74  1  0  0  0  0
 47 74  1  0  0  0  0
 48 52  1  0  0  0  0
 48 73  1  0  0  0  0
 49 77  1  0  0  0  0
 51 72  1  0  0  0  0
 52 71  1  0  0  0  0
 54 66  1  0  0  0  0
 55 67  1  0  0  0  0
 56 67  1  0  0  0  0
 57 67  1  0  0  0  0
 58 79  1  0  0  0  0
 59 86  1  0  0  0  0
 60 61  1  0  0  0  0
 60 62  1  0  0  0  0
 61 63  1  0  0  0  0
 62 64  1  0  0  0  0
 63 70  1  0  0  0  0
 64 89  1  0  0  0  0
 65 67  1  0  0  0  0
 65 78  1  0  0  0  0
 66 79  1  0  0  0  0
 68 71  1  0  0  0  0
 69 70  1  0  0  0  0
M  CHG  1  79   1
M  ISO  4  35 100  59 101  74 100  86 101
M  END
> <Batch ID>
0033

> <Smiles>
CNC(C)C(=O)NC(C(=O)N1Cc2cc([101O:1][101CH2:1]c3c(C)nn(CCCCCCl)c3C3CC[100N:0]([100C:0](=O)N4CCCC(n5nc(-c6ccc(Oc7ccc(F)cc7F)cc6)c(C(N)=O)c5N)C4)CC3)ccc2CC1C(=O)NC1CCCc2ccccc21)C(C)(C)C

> <Shape>
0.251

> <Color>
0.087

> <Negative vol penalty>
0.000

$$$$

  -OEChem-04052316483D

 84 92  0     1  0  0  0  0  0999 V2000
  -24.7107  -20.6457   19.1623 C   0  0  0  0  0  0  0  0  0  0  0  0
  -24.3414  -21.9164   19.5917 C   0  0  0  0  0  0  0  0  0  0  0  0
  -22.7493  -16.9911   21.3861 C   0  0  0  0  0  0  0  0  0  0  0  0
  -24.5606  -17.9166   22.6898 C   0  0  0  0  0  0  0  0  0  0  0  0
  -25.9210  -20.0942   19.5804 C   0  0  0  0  0  0  0  0  0  0  0  0
  -25.1820  -22.6360   20.4403 C   0  0  0  0  0  0  0  0  0  0  0  0
  -25.6868  -27.4736   19.0303 C   0  0  0  0  0  0  0  0  0  0  0  0
  -23.6277  -16.0654   20.8229 C   0  0  0  0  0  0  0  0  0  0  0  0
  -25.4390  -16.9909   22.1266 C   0  0  0  0  0  0  0  0  0  0  0  0
  -24.6407  -28.3405   19.3432 C   0  0  0  0  0  0  0  0  0  0  0  0
  -25.3187  -13.2246   19.3112 C   0  0  0  0  0  0  0  0  0  0  0  0
  -24.8941  -11.8989   19.2218 C   0  0  0  0  0  0  0  0  0  0  0  0
  -25.8875  -29.1498   21.2431 C   0  0  0  0  0  0  0  0  0  0  0  0
  -18.3607  -30.7348   23.0385 C   0  0  0  0  0  0  0  0  0  0  0  0
  -17.5859  -28.1627   23.7915 C   0  0  0  0  0  0  0  0  0  0  0  0
  -24.6499  -11.8153   21.6240 C   0  0  0  0  0  0  0  0  0  0  0  0
  -23.2158  -17.9168   22.3195 C   0  0  0  0  0  0  0  0  0  0  0  0
  -21.5454  -18.7174   24.0735 C   0  0  0  0  0  0  0  0  0  0  0  0
  -26.7813  -20.8113   20.4268 C   0  0  0  0  0  0  0  0  0  0  0  0
  -26.8385  -27.4304   19.8291 C   0  0  0  0  0  0  0  0  0  0  0  0
  -26.4044  -22.0931   20.8711 C   0  0  0  0  0  0  0  0  0  0  0  0
  -26.9479  -28.2833   20.9367 C   0  0  0  0  0  0  0  0  0  0  0  0
  -17.0471  -30.3136   22.8321 C   0  0  0  0  0  0  0  0  0  0  0  0
  -16.6597  -29.0276   23.2086 C   0  0  0  0  0  0  0  0  0  0  0  0
  -19.2870  -29.8699   23.6214 C   0  0  0  0  0  0  0  0  0  0  0  0
  -18.8996  -28.5839   23.9979 C   0  0  0  0  0  0  0  0  0  0  0  0
  -24.9725  -16.0653   21.1932 C   0  0  0  0  0  0  0  0  0  0  0  0
  -24.7397  -29.1767   20.4514 C   0  0  0  0  0  0  0  0  0  0  0  0
  -25.4089  -13.8456   20.5570 C   0  0  0  0  0  0  0  0  0  0  0  0
  -24.5597  -11.1943   20.3782 C   0  0  0  0  0  0  0  0  0  0  0  0
  -25.0745  -13.1409   21.7134 C   0  0  0  0  0  0  0  0  0  0  0  0
  -22.3091  -18.8736   22.9012 C   0  0  0  0  0  0  0  0  0  0  0  0
  -20.8559  -19.8991   24.1941 C   0  0  0  0  0  0  0  0  0  0  0  0
  -21.4665  -17.6037   24.9730 C   0  0  0  0  0  0  0  0  0  0  0  0
  -28.2570  -25.2055   21.6016 C   0  0  0  0  0  0  0  0  0  0  0  0
  -30.5566  -27.4723   21.9103 C   0  0  0  0  0  0  0  0  0  0  0  0
  -31.3933  -30.7800   21.8327 C   0  0  0  0  0  0  0  0  0  0  0  0
  -20.7458  -25.3700   24.1296 C   0  0  0  0  0  0  0  0  0  0  0  0
  -28.0575  -20.1546   20.8901 C   0  0  0  0  0  0  0  0  0  0  0  0
  -27.9694  -26.5088   19.4627 C   0  0  0  0  0  0  0  0  0  0  0  0
  -28.1718  -28.2900   21.8146 C   0  0  0  0  0  0  0  0  0  0  0  0
  -29.0640  -21.1340   21.4886 C   0  0  0  0  0  0  0  0  0  0  0  0
  -20.2855  -23.7280   20.9375 C   0  0  0  0  0  0  0  0  0  0  0  0
  -28.3743  -22.0735   22.4726 C   0  0  0  0  0  0  0  0  0  0  0  0
  -20.7118  -22.2964   21.2676 C   0  0  0  0  0  0  0  0  0  0  0  0
  -21.1524  -24.7462   21.6723 C   0  0  0  0  0  0  0  0  0  0  0  0
  -21.6149  -23.1406   23.4838 C   0  0  0  0  0  0  0  0  0  0  0  0
  -27.3006  -22.9148   21.7720 C   0  0  1  0  0  0  0  0  0  0  0  0
  -28.8791  -26.1808   20.6426 C   0  0  1  0  0  0  0  0  0  0  0  0
  -20.7620  -22.0635   22.7893 C   0  0  2  0  0  0  0  0  0  0  0  0
  -16.0728  -31.2573   22.2071 C   0  0  0  0  0  0  0  0  0  0  0  0
  -15.2587  -28.5549   22.9981 C   0  0  0  0  0  0  0  0  0  0  0  0
  -33.3410  -32.3276   22.1630 C   0  0  0  0  0  0  0  0  0  0  0  0
  -30.3158  -27.1266   24.9323 C   0  0  0  0  0  0  0  0  0  0  0  0
  -31.5357  -29.2955   25.2076 C   0  0  0  0  0  0  0  0  0  0  0  0
  -32.6594  -27.3672   24.0934 C   0  0  0  0  0  0  0  0  0  0  0  0
  -31.2292  -31.7682   19.0479 C   0  0  0  0  0  0  0  0  0  0  0  0
  -20.7015  -30.3471   23.8337 C   0  0  0  0  0  0  0  0  0  0  0  0
  -19.8739  -27.6402   24.6228 C   0  0  0  0  0  0  0  0  0  0  0  0
  -21.7037  -29.7841   22.8199 C   0  0  0  0  0  0  0  0  0  0  0  0
  -21.4108  -30.2197   21.3834 C   0  0  0  0  0  0  0  0  0  0  0  0
  -22.4018  -29.6098   20.4013 C   0  0  0  0  0  0  0  0  0  1  0  0
  -30.8206  -28.6029   22.8752 C   0  0  1  0  0  0  0  0  0  0  0  0
  -32.5391  -31.5137   21.1593 C   0  0  2  0  0  0  0  0  0  0  0  0
  -31.3089  -28.0968   24.2619 C   0  0  0  0  0  0  0  0  0  0  0  0
  -22.1224  -20.0609   22.3186 N   0  0  0  0  0  0  0  0  0  0  0  0
  -21.2335  -20.6615   23.1281 N   0  0  0  0  0  0  0  0  0  0  0  0
  -29.2479  -27.3665   21.4187 N   0  0  0  0  0  0  0  0  0  0  0  0
  -21.1424  -24.4800   23.1176 N   0  0  0  0  0  0  0  0  0  0  0  0
  -19.9694  -20.3500   25.1070 N   0  0  0  0  0  0  0  0  0  0  0  0
  -22.2418  -16.4684   24.7004 N   0  0  0  0  0  0  0  0  0  0  0  0
  -27.9111  -23.9964   21.0290 N   0  0  0  0  0  0  0  0  0  0  0  0
  -31.7536  -29.5022   22.2049 N   0  0  0  0  0  0  0  0  0  0  0  0
  -20.3183  -26.6201   23.6992 N   0  0  0  0  0  0  0  0  0  0  0  0
  -32.0183  -32.4386   20.1133 N   0  3  0  0  0  0  0  0  0  0  0  0
  -20.7178  -17.6086   25.9795 O   0  0  0  0  0  0  0  0  0  0  0  0
  -28.1035  -25.5258   22.7744 O   0  0  0  0  0  0  0  0  0  0  0  0
  -31.4794  -26.7154   21.5986 O   0  0  0  0  0  0  0  0  0  0  0  0
  -30.2902  -31.2908   22.0140 O   0  0  0  0  0  0  0  0  0  0  0  0
  -20.7659  -25.0708   25.3284 O   0  0  0  0  0  0  0  0  0  0  0  0
  -25.8298  -15.1620   20.6440 O   0  0  0  0  0  0  0  0  0  0  0  0
  -23.7198  -30.0233   20.7594 O   0  0  0  0  0  0  0  0  0  1  0  0
  -24.1505   -9.9217   20.2921 F   0  0  0  0  0  0  0  0  0  0  0  0
  -25.1580  -13.7325   22.9129 F   0  0  0  0  0  0  0  0  0  0  0  0
  1  2  1  0  0  0  0
  1  5  2  0  0  0  0
  2  6  2  0  0  0  0
  3  8  2  0  0  0  0
  3 17  1  0  0  0  0
  4  9  1  0  0  0  0
  4 17  2  0  0  0  0
  5 19  1  0  0  0  0
  6 21  1  0  0  0  0
  7 10  2  0  0  0  0
  7 20  1  0  0  0  0
  8 27  1  0  0  0  0
  9 27  2  0  0  0  0
 10 28  1  0  0  0  0
 11 12  2  0  0  0  0
 11 29  1  0  0  0  0
 12 30  1  0  0  0  0
 13 22  1  0  0  0  0
 13 28  2  0  0  0  0
 14 23  2  0  0  0  0
 14 25  1  0  0  0  0
 15 24  2  0  0  0  0
 15 26  1  0  0  0  0
 16 30  2  0  0  0  0
 16 31  1  0  0  0  0
 17 32  1  0  0  0  0
 18 32  1  0  0  0  0
 18 33  2  0  0  0  0
 18 34  1  0  0  0  0
 19 21  2  0  0  0  0
 19 39  1  0  0  0  0
 20 22  2  0  0  0  0
 20 40  1  0  0  0  0
 21 48  1  0  0  0  0
 22 41  1  0  0  0  0
 23 24  1  0  0  0  0
 23 51  1  0  0  0  0
 24 52  1  0  0  0  0
 25 26  2  0  0  0  0
 25 58  1  0  0  0  0
 26 59  1  0  0  0  0
 27 81  1  0  0  0  0
 28 82  1  0  0  0  0
 29 31  2  0  0  0  0
 29 81  1  0  0  0  0
 30 83  1  0  0  0  0
 31 84  1  0  0  0  0
 32 66  2  0  0  0  0
 33 67  1  0  0  0  0
 33 70  1  0  0  0  0
 34 71  1  0  0  0  0
 34 76  2  0  0  0  0
 35 49  1  0  0  0  0
 35 72  1  0  0  0  0
 35 77  2  0  0  0  0
 36 63  1  0  0  0  0
 36 68  1  0  0  0  0
 36 78  2  0  0  0  0
 37 64  1  0  0  0  0
 37 73  1  0  0  0  0
 37 79  2  0  0  0  0
 38 69  1  0  0  0  0
 38 74  1  0  0  0  0
 38 80  2  0  0  0  0
 39 42  1  0  0  0  0
 40 49  1  0  0  0  0
 41 68  1  0  0  0  0
 42 44  1  0  0  0  0
 43 45  1  0  0  0  0
 43 46  1  0  0  0  0
 44 48  1  0  0  0  0
 45 50  1  0  0  0  0
 46 69  1  0  0  0  0
 47 50  1  0  0  0  0
 47 69  1  0  0  0  0
 48 72  1  0  0  0  0
 49 68  1  0  0  0  0
 50 67  1  0  0  0  0
 53 64  1  0  0  0  0
 54 65  1  0  0  0  0
 55 65  1  0  0  0  0
 56 65  1  0  0  0  0
 57 75  1  0  0  0  0
 58 60  1  0  0  0  0
 59 74  1  0  0  0  0
 60 61  1  0  0  0  0
 61 62  1  0  0  0  0
 62 82  1  0  0  0  0
 63 65  1  0  0  0  0
 63 73  1  0  0  0  0
 64 75  1  0  0  0  0
 66 67  1  0  0  0  0
M  CHG  1  75   1
M  ISO  4  38 100  62 101  74 100  82 101
M  END
> <Batch ID>
0033

> <Smiles>
CNC(C)C(=O)NC(C(=O)N1Cc2cc([101O:1][101CH2:1]CCCc3cc(C)c(C)cc3C[100NH:0][100C:0](=O)N3CCCC(n4nc(-c5ccc(Oc6ccc(F)cc6F)cc5)c(C(N)=O)c4N)C3)ccc2CC1C(=O)NC1CCCc2ccccc21)C(C)(C)C

> <Shape>
0.185

> <Color>
0.071

> <Negative vol penalty>
0.000

$$$$

  -OEChem-04052316483D

 84 92  0     1  0  0  0  0  0999 V2000
  -22.7107  -23.4438   20.7286 C   0  0  0  0  0  0  0  0  0  0  0  0
  -23.8391  -22.8887   20.1338 C   0  0  0  0  0  0  0  0  0  0  0  0
  -25.9269  -27.4713   18.9342 C   0  0  0  0  0  0  0  0  0  0  0  0
  -26.3563  -27.6534   21.3048 C   0  0  0  0  0  0  0  0  0  0  0  0
  -22.1496  -22.8415   21.8539 C   0  0  0  0  0  0  0  0  0  0  0  0
  -24.4077  -21.7313   20.6645 C   0  0  0  0  0  0  0  0  0  0  0  0
  -27.8958  -15.8020   18.6661 C   0  0  0  0  0  0  0  0  0  0  0  0
  -24.8119  -28.2978   19.0727 C   0  0  0  0  0  0  0  0  0  0  0  0
  -25.2413  -28.4799   21.4433 C   0  0  0  0  0  0  0  0  0  0  0  0
  -29.0552  -15.0847   18.9574 C   0  0  0  0  0  0  0  0  0  0  0  0
  -24.4590  -31.7193   20.8819 C   0  0  0  0  0  0  0  0  0  0  0  0
  -24.5993  -32.8696   21.6582 C   0  0  0  0  0  0  0  0  0  0  0  0
  -27.9533  -14.0865   20.8570 C   0  0  0  0  0  0  0  0  0  0  0  0
  -32.0578  -18.2214   23.1785 C   0  0  0  0  0  0  0  0  0  0  0  0
  -30.9512  -16.1017   22.8333 C   0  0  0  0  0  0  0  0  0  0  0  0
  -22.8594  -32.0830   23.1384 C   0  0  0  0  0  0  0  0  0  0  0  0
  -26.6991  -27.1490   20.0503 C   0  0  0  0  0  0  0  0  0  0  0  0
  -29.1745  -26.6905   19.6380 C   0  0  0  0  0  0  0  0  0  0  0  0
  -22.7059  -21.6708   22.3930 C   0  0  0  0  0  0  0  0  0  0  0  0
  -26.7579  -15.6750   19.4759 C   0  0  0  0  0  0  0  0  0  0  0  0
  -23.8543  -21.1135   21.7989 C   0  0  0  0  0  0  0  0  0  0  0  0
  -26.7798  -14.8014   20.5724 C   0  0  0  0  0  0  0  0  0  0  0  0
  -30.8850  -17.4722   23.0844 C   0  0  0  0  0  0  0  0  0  0  0  0
  -33.2968  -17.6002   23.0214 C   0  0  0  0  0  0  0  0  0  0  0  0
  -32.1902  -15.4804   22.6762 C   0  0  0  0  0  0  0  0  0  0  0  0
  -33.3629  -16.2297   22.7703 C   0  0  0  0  0  0  0  0  0  0  0  0
  -24.4691  -28.8022   20.3272 C   0  0  0  0  0  0  0  0  0  0  0  0
  -29.0851  -14.2290   20.0546 C   0  0  0  0  0  0  0  0  0  0  0  0
  -23.5188  -30.7508   21.2339 C   0  0  0  0  0  0  0  0  0  0  0  0
  -23.7995  -33.0515   22.7865 C   0  0  0  0  0  0  0  0  0  0  0  0
  -22.7191  -30.9326   22.3621 C   0  0  0  0  0  0  0  0  0  0  0  0
  -27.8507  -26.2948   19.9080 C   0  0  0  0  0  0  0  0  0  0  0  0
  -29.8835  -25.5148   19.6008 C   0  0  0  0  0  0  0  0  0  0  0  0
  -29.7149  -28.0035   19.4389 C   0  0  0  0  0  0  0  0  0  0  0  0
  -25.0644  -17.6593   21.2920 C   0  0  0  0  0  0  0  0  0  0  0  0
  -23.1044  -15.0918   21.5899 C   0  0  0  0  0  0  0  0  0  0  0  0
  -22.7331  -11.7013   21.4736 C   0  0  0  0  0  0  0  0  0  0  0  0
  -28.9449  -20.2732   22.1504 C   0  0  0  0  0  0  0  0  0  0  0  0
  -22.0922  -21.0823   23.6387 C   0  0  0  0  0  0  0  0  0  0  0  0
  -25.5064  -16.4355   19.1326 C   0  0  0  0  0  0  0  0  0  0  0  0
  -25.5783  -14.6140   21.4611 C   0  0  0  0  0  0  0  0  0  0  0  0
  -22.5336  -19.6475   23.9157 C   0  0  0  0  0  0  0  0  0  0  0  0
  -29.3692  -20.8617   18.6048 C   0  0  0  0  0  0  0  0  0  0  0  0
  -24.0454  -19.5149   23.7619 C   0  0  0  0  0  0  0  0  0  0  0  0
  -29.1507  -22.3733   18.5191 C   0  0  0  0  0  0  0  0  0  0  0  0
  -28.4387  -20.2261   19.6336 C   0  0  0  0  0  0  0  0  0  0  0  0
  -28.3157  -22.3276   20.9150 C   0  0  0  0  0  0  0  0  0  0  0  0
  -24.4853  -19.8450   22.3305 C   0  0  1  0  0  0  0  0  0  0  0  0
  -24.5730  -16.6194   20.3252 C   0  0  1  0  0  0  0  0  0  0  0  0
  -29.2427  -23.0324   19.9081 C   0  0  2  0  0  0  0  0  0  0  0  0
  -34.5378  -18.4249   23.1279 C   0  0  0  0  0  0  0  0  0  0  0  0
  -35.3013  -15.8316   21.2305 C   0  0  0  0  0  0  0  0  0  0  0  0
  -21.0223   -9.8947   21.7998 C   0  0  0  0  0  0  0  0  0  0  0  0
  -23.3280  -15.4295   24.6141 C   0  0  0  0  0  0  0  0  0  0  0  0
  -22.4233  -13.1091   24.8701 C   0  0  0  0  0  0  0  0  0  0  0  0
  -21.0312  -14.8769   23.7931 C   0  0  0  0  0  0  0  0  0  0  0  0
  -23.0021  -10.7805   18.6739 C   0  0  0  0  0  0  0  0  0  0  0  0
  -32.2343  -13.9977   22.4056 C   0  0  0  0  0  0  0  0  0  0  0  0
  -34.6915  -15.5638   22.6023 C   0  0  0  0  0  0  0  0  0  0  0  0
  -29.5603  -18.1365   23.2516 C   0  0  0  0  0  0  0  0  0  0  0  0
  -32.5343  -13.6465   20.9468 C   0  0  0  0  0  0  0  0  0  0  0  0
  -31.4597  -14.1248   19.9773 C   0  0  0  0  0  0  0  0  0  1  0  0
  -23.0101  -13.9235   22.5412 C   0  0  1  0  0  0  0  0  0  0  0  0
  -21.6928  -10.8244   20.8005 C   0  0  2  0  0  0  0  0  0  0  0  0
  -22.4716  -14.3395   23.9392 C   0  0  0  0  0  0  0  0  0  0  0  0
  -27.7236  -24.9711   20.0332 N   0  0  0  0  0  0  0  0  0  0  0  0
  -28.9765  -24.5248   19.8410 N   0  0  0  0  0  0  0  0  0  0  0  0
  -24.3804  -15.3843   21.0880 N   0  0  0  0  0  0  0  0  0  0  0  0
  -28.5888  -20.8867   20.9379 N   0  0  0  0  0  0  0  0  0  0  0  0
  -31.1879  -25.2414   19.3862 N   0  0  0  0  0  0  0  0  0  0  0  0
  -28.8468  -29.1014   19.5110 N   0  0  0  0  0  0  0  0  0  0  0  0
  -24.2079  -18.7325   21.4473 N   0  0  0  0  0  0  0  0  0  0  0  0
  -22.2034  -12.9121   21.8669 N   0  0  0  0  0  0  0  0  0  0  0  0
  -29.1798  -18.9051   22.0874 N   0  0  0  0  0  0  0  0  0  0  0  0
  -22.3252   -9.9939   19.7369 N   0  3  0  0  0  0  0  0  0  0  0  0
  -30.9287  -28.1961   19.1876 O   0  0  0  0  0  0  0  0  0  0  0  0
  -26.1402  -17.4991   21.8565 O   0  0  0  0  0  0  0  0  0  0  0  0
  -22.0823  -15.7173   21.2972 O   0  0  0  0  0  0  0  0  0  0  0  0
  -23.8982  -11.3462   21.6378 O   0  0  0  0  0  0  0  0  0  0  0  0
  -29.0511  -20.8994   23.2104 O   0  0  0  0  0  0  0  0  0  0  0  0
  -23.3812  -29.6089   20.4626 O   0  0  0  0  0  0  0  0  0  0  0  0
  -30.2157  -13.5281   20.3415 O   0  0  0  0  0  0  0  0  0  1  0  0
  -23.9355  -34.1555   23.5327 F   0  0  0  0  0  0  0  0  0  0  0  0
  -21.8149  -30.0052   22.7059 F   0  0  0  0  0  0  0  0  0  0  0  0
  1  2  1  0  0  0  0
  1  5  2  0  0  0  0
  2  6  2  0  0  0  0
  3  8  2  0  0  0  0
  3 17  1  0  0  0  0
  4  9  1  0  0  0  0
  4 17  2  0  0  0  0
  5 19  1  0  0  0  0
  6 21  1  0  0  0  0
  7 10  2  0  0  0  0
  7 20  1  0  0  0  0
  8 27  1  0  0  0  0
  9 27  2  0  0  0  0
 10 28  1  0  0  0  0
 11 12  2  0  0  0  0
 11 29  1  0  0  0  0
 12 30  1  0  0  0  0
 13 22  1  0  0  0  0
 13 28  2  0  0  0  0
 14 23  1  0  0  0  0
 14 24  2  0  0  0  0
 15 23  2  0  0  0  0
 15 25  1  0  0  0  0
 16 30  2  0  0  0  0
 16 31  1  0  0  0  0
 17 32  1  0  0  0  0
 18 32  1  0  0  0  0
 18 33  2  0  0  0  0
 18 34  1  0  0  0  0
 19 21  2  0  0  0  0
 19 39  1  0  0  0  0
 20 22  2  0  0  0  0
 20 40  1  0  0  0  0
 21 48  1  0  0  0  0
 22 41  1  0  0  0  0
 23 60  1  0  0  0  0
 24 26  1  0  0  0  0
 24 51  1  0  0  0  0
 25 26  2  0  0  0  0
 25 58  1  0  0  0  0
 26 59  1  0  0  0  0
 27 81  1  0  0  0  0
 28 82  1  0  0  0  0
 29 31  2  0  0  0  0
 29 81  1  0  0  0  0
 30 83  1  0  0  0  0
 31 84  1  0  0  0  0
 32 66  2  0  0  0  0
 33 67  1  0  0  0  0
 33 70  1  0  0  0  0
 34 71  1  0  0  0  0
 34 76  2  0  0  0  0
 35 49  1  0  0  0  0
 35 72  1  0  0  0  0
 35 77  2  0  0  0  0
 36 63  1  0  0  0  0
 36 68  1  0  0  0  0
 36 78  2  0  0  0  0
 37 64  1  0  0  0  0
 37 73  1  0  0  0  0
 37 79  2  0  0  0  0
 38 69  1  0  0  0  0
 38 74  1  0  0  0  0
 38 80  2  0  0  0  0
 39 42  1  0  0  0  0
 40 49  1  0  0  0  0
 41 68  1  0  0  0  0
 42 44  1  0  0  0  0
 43 45  1  0  0  0  0
 43 46  1  0  0  0  0
 44 48  1  0  0  0  0
 45 50  1  0  0  0  0
 46 69  1  0  0  0  0
 47 50  1  0  0  0  0
 47 69  1  0  0  0  0
 48 72  1  0  0  0  0
 49 68  1  0  0  0  0
 50 67  1  0  0  0  0
 52 59  1  0  0  0  0
 53 64  1  0  0  0  0
 54 65  1  0  0  0  0
 55 65  1  0  0  0  0
 56 65  1  0  0  0  0
 57 75  1  0  0  0  0
 58 61  1  0  0  0  0
 60 74  1  0  0  0  0
 61 62  1  0  0  0  0
 62 82  1  0  0  0  0
 63 65  1  0  0  0  0
 63 73  1  0  0  0  0
 64 75  1  0  0  0  0
 66 67  1  0  0  0  0
M  CHG  1  75   1
M  ISO  4  38 100  62 101  74 100  82 101
M  END
> <Batch ID>
0033

> <Smiles>
CCc1c(C)cc(C[100NH:0][100C:0](=O)N2CCCC(n3nc(-c4ccc(Oc5ccc(F)cc5F)cc4)c(C(N)=O)c3N)C2)cc1CC[101CH2:1][101O:1]c1ccc2c(c1)CN(C(=O)C(NC(=O)C(C)NC)C(C)(C)C)C(C(=O)NC1CCCc3ccccc31)C2

> <Shape>
0.239

> <Color>
0.053

> <Negative vol penalty>
0.000

$$$$

  -OEChem-04052316483D

 84 92  0     1  0  0  0  0  0999 V2000
  -22.7466  -11.4076   18.3648 C   0  0  0  0  0  0  0  0  0  0  0  0
  -22.2734  -12.7060   18.5249 C   0  0  0  0  0  0  0  0  0  0  0  0
  -29.6945  -27.8522   18.9632 C   0  0  0  0  0  0  0  0  0  0  0  0
  -29.6376  -28.0583   21.3698 C   0  0  0  0  0  0  0  0  0  0  0  0
  -23.8906  -10.9948   19.0465 C   0  0  0  0  0  0  0  0  0  0  0  0
  -22.9433  -13.5921   19.3678 C   0  0  0  0  0  0  0  0  0  0  0  0
  -23.5834  -19.6339   18.5979 C   0  0  0  0  0  0  0  0  0  0  0  0
  -31.0888  -27.8765   18.9941 C   0  0  0  0  0  0  0  0  0  0  0  0
  -31.0319  -28.0825   21.4007 C   0  0  0  0  0  0  0  0  0  0  0  0
  -22.8989  -20.7251   19.1313 C   0  0  0  0  0  0  0  0  0  0  0  0
  -33.5331  -30.1906   19.3022 C   0  0  0  0  0  0  0  0  0  0  0  0
  -34.1872  -30.9984   18.3721 C   0  0  0  0  0  0  0  0  0  0  0  0
  -24.5920  -20.9465   20.8353 C   0  0  0  0  0  0  0  0  0  0  0  0
  -18.7015  -27.7614   21.9741 C   0  0  0  0  0  0  0  0  0  0  0  0
  -19.8317  -25.9707   23.7903 C   0  0  0  0  0  0  0  0  0  0  0  0
  -35.3128  -29.0569   17.4773 C   0  0  0  0  0  0  0  0  0  0  0  0
  -28.9689  -27.9432   20.1511 C   0  0  0  0  0  0  0  0  0  0  0  0
  -26.6957  -26.7865   20.1972 C   0  0  0  0  0  0  0  0  0  0  0  0
  -24.5804  -11.8792   19.8907 C   0  0  0  0  0  0  0  0  0  0  0  0
  -24.7736  -19.1832   19.1867 C   0  0  0  0  0  0  0  0  0  0  0  0
  -24.0969  -13.1903   20.0625 C   0  0  0  0  0  0  0  0  0  0  0  0
  -25.2910  -19.8509   20.3059 C   0  0  0  0  0  0  0  0  0  0  0  0
  -18.3389  -26.4149   21.9433 C   0  0  0  0  0  0  0  0  0  0  0  0
  -19.6293  -28.2126   22.9130 C   0  0  0  0  0  0  0  0  0  0  0  0
  -18.9040  -25.5195   22.8514 C   0  0  0  0  0  0  0  0  0  0  0  0
  -31.7575  -27.9916   20.2128 C   0  0  0  0  0  0  0  0  0  0  0  0
  -23.4017  -21.3798   20.2519 C   0  0  0  0  0  0  0  0  0  0  0  0
  -33.7689  -28.8158   19.3199 C   0  0  0  0  0  0  0  0  0  0  0  0
  -35.0771  -30.4316   17.4597 C   0  0  0  0  0  0  0  0  0  0  0  0
  -34.6587  -28.2490   18.4074 C   0  0  0  0  0  0  0  0  0  0  0  0
  -20.1943  -27.3173   23.8211 C   0  0  0  0  0  0  0  0  0  0  0  0
  -27.5286  -27.9187   20.1197 C   0  0  0  0  0  0  0  0  0  0  0  0
  -25.4208  -27.2924   20.1245 C   0  0  0  0  0  0  0  0  0  0  0  0
  -27.0433  -25.4012   20.3235 C   0  0  0  0  0  0  0  0  0  0  0  0
  -25.7091  -16.4767   20.5662 C   0  0  0  0  0  0  0  0  0  0  0  0
  -28.5975  -17.9524   20.6083 C   0  0  0  0  0  0  0  0  0  0  0  0
  -30.3580  -20.8758   20.5759 C   0  0  0  0  0  0  0  0  0  0  0  0
  -21.5873  -31.0603   21.6253 C   0  0  0  0  0  0  0  0  0  0  0  0
  -25.7855  -11.3731   20.6434 C   0  0  0  0  0  0  0  0  0  0  0  0
  -25.5140  -18.0213   18.5833 C   0  0  0  0  0  0  0  0  0  0  0  0
  -26.5755  -19.4191   20.9632 C   0  0  0  0  0  0  0  0  0  0  0  0
  -26.6512  -12.4869   21.2267 C   0  0  0  0  0  0  0  0  0  0  0  0
  -23.7823  -31.9345   18.9617 C   0  0  0  0  0  0  0  0  0  0  0  0
  -25.7829  -13.5247   21.9309 C   0  0  0  0  0  0  0  0  0  0  0  0
  -24.8864  -30.8785   19.0361 C   0  0  0  0  0  0  0  0  0  0  0  0
  -23.2880  -32.3329   20.3506 C   0  0  0  0  0  0  0  0  0  0  0  0
  -23.9639  -30.1512   21.2763 C   0  0  0  0  0  0  0  0  0  0  0  0
  -24.8102  -14.1883   20.9487 C   0  0  1  0  0  0  0  0  0  0  0  0
  -26.4465  -17.3285   19.5721 C   0  0  1  0  0  0  0  0  0  0  0  0
  -24.4557  -29.6766   19.8982 C   0  0  2  0  0  0  0  0  0  0  0  0
  -17.3454  -25.9533   20.9282 C   0  0  0  0  0  0  0  0  0  0  0  0
  -32.7037  -21.7637   20.6582 C   0  0  0  0  0  0  0  0  0  0  0  0
  -28.7065  -17.3797   23.6033 C   0  0  0  0  0  0  0  0  0  0  0  0
  -30.5419  -19.0722   23.7894 C   0  0  0  0  0  0  0  0  0  0  0  0
  -30.8679  -17.0298   22.3949 C   0  0  0  0  0  0  0  0  0  0  0  0
  -30.0921  -22.1516   17.9187 C   0  0  0  0  0  0  0  0  0  0  0  0
  -18.5294  -24.0590   22.8352 C   0  0  0  0  0  0  0  0  0  0  0  0
  -19.9911  -29.6628   22.9129 C   0  0  0  0  0  0  0  0  0  0  0  0
  -19.1792  -23.2657   21.6960 C   0  0  0  0  0  0  0  0  0  0  0  0
  -20.7051  -23.2235   21.7904 C   0  0  0  0  0  0  0  0  0  0  0  0
  -21.3166  -22.4620   20.6222 C   0  0  0  0  0  0  0  0  0  1  0  0
  -29.3225  -18.8557   21.5765 C   0  0  1  0  0  0  0  0  0  0  0  0
  -31.5594  -21.3191   19.7606 C   0  0  2  0  0  0  0  0  0  0  0  0
  -29.8345  -18.0915   22.8300 C   0  0  0  0  0  0  0  0  0  0  0  0
  -26.8407  -29.0581   20.0064 N   0  0  0  0  0  0  0  0  0  0  0  0
  -25.5621  -28.6442   20.0121 N   0  0  0  0  0  0  0  0  0  0  0  0
  -27.2594  -18.2740   20.3399 N   0  0  0  0  0  0  0  0  0  0  0  0
  -22.8935  -31.1479   21.1161 N   0  0  0  0  0  0  0  0  0  0  0  0
  -24.2040  -26.7083   20.1465 N   0  0  0  0  0  0  0  0  0  0  0  0
  -28.4002  -25.0557   20.3845 N   0  0  0  0  0  0  0  0  0  0  0  0
  -25.4981  -15.1771   20.1465 N   0  0  0  0  0  0  0  0  0  0  0  0
  -30.3727  -19.5170   20.8095 N   0  0  0  0  0  0  0  0  0  0  0  0
  -21.2942  -29.9014   22.3335 N   0  0  0  0  0  0  0  0  0  0  0  0
  -31.1906  -22.4566   18.8712 N   0  3  0  0  0  0  0  0  0  0  0  0
  -26.1767  -24.4952   20.3642 O   0  0  0  0  0  0  0  0  0  0  0  0
  -25.3589  -16.9620   21.6356 O   0  0  0  0  0  0  0  0  0  0  0  0
  -29.1983  -17.0009   20.1031 O   0  0  0  0  0  0  0  0  0  0  0  0
  -29.4950  -21.6573   20.9694 O   0  0  0  0  0  0  0  0  0  0  0  0
  -20.7432  -31.9468   21.4563 O   0  0  0  0  0  0  0  0  0  0  0  0
  -33.1181  -28.0150   20.2433 O   0  0  0  0  0  0  0  0  0  0  0  0
  -22.7353  -22.4448   20.7749 O   0  0  0  0  0  0  0  0  0  1  0  0
  -35.7040  -31.2073   16.5656 F   0  0  0  0  0  0  0  0  0  0  0  0
  -34.8884  -26.9288   18.4188 F   0  0  0  0  0  0  0  0  0  0  0  0
  -21.3455  -27.8389   24.9966 Cl  0  0  0  0  0  0  0  0  0  0  0  0
  1  2  1  0  0  0  0
  1  5  2  0  0  0  0
  2  6  2  0  0  0  0
  3  8  2  0  0  0  0
  3 17  1  0  0  0  0
  4  9  1  0  0  0  0
  4 17  2  0  0  0  0
  5 19  1  0  0  0  0
  6 21  1  0  0  0  0
  7 10  2  0  0  0  0
  7 20  1  0  0  0  0
  8 26  1  0  0  0  0
  9 26  2  0  0  0  0
 10 27  1  0  0  0  0
 11 12  2  0  0  0  0
 11 28  1  0  0  0  0
 12 29  1  0  0  0  0
 13 22  1  0  0  0  0
 13 27  2  0  0  0  0
 14 23  1  0  0  0  0
 14 24  2  0  0  0  0
 15 25  1  0  0  0  0
 15 31  2  0  0  0  0
 16 29  2  0  0  0  0
 16 30  1  0  0  0  0
 17 32  1  0  0  0  0
 18 32  1  0  0  0  0
 18 33  2  0  0  0  0
 18 34  1  0  0  0  0
 19 21  2  0  0  0  0
 19 39  1  0  0  0  0
 20 22  2  0  0  0  0
 20 40  1  0  0  0  0
 21 48  1  0  0  0  0
 22 41  1  0  0  0  0
 23 25  2  0  0  0  0
 23 51  1  0  0  0  0
 24 31  1  0  0  0  0
 24 58  1  0  0  0  0
 25 57  1  0  0  0  0
 26 80  1  0  0  0  0
 27 81  1  0  0  0  0
 28 30  2  0  0  0  0
 28 80  1  0  0  0  0
 29 82  1  0  0  0  0
 30 83  1  0  0  0  0
 31 84  1  0  0  0  0
 32 65  2  0  0  0  0
 33 66  1  0  0  0  0
 33 69  1  0  0  0  0
 34 70  1  0  0  0  0
 34 75  2  0  0  0  0
 35 49  1  0  0  0  0
 35 71  1  0  0  0  0
 35 76  2  0  0  0  0
 36 62  1  0  0  0  0
 36 67  1  0  0  0  0
 36 77  2  0  0  0  0
 37 63  1  0  0  0  0
 37 72  1  0  0  0  0
 37 78  2  0  0  0  0
 38 68  1  0  0  0  0
 38 73  1  0  0  0  0
 38 79  2  0  0  0  0
 39 42  1  0  0  0  0
 40 49  1  0  0  0  0
 41 67  1  0  0  0  0
 42 44  1  0  0  0  0
 43 45  1  0  0  0  0
 43 46  1  0  0  0  0
 44 48  1  0  0  0  0
 45 50  1  0  0  0  0
 46 68  1  0  0  0  0
 47 50  1  0  0  0  0
 47 68  1  0  0  0  0
 48 71  1  0  0  0  0
 49 67  1  0  0  0  0
 50 66  1  0  0  0  0
 52 63  1  0  0  0  0
 53 64  1  0  0  0  0
 54 64  1  0  0  0  0
 55 64  1  0  0  0  0
 56 74  1  0  0  0  0
 57 59  1  0  0  0  0
 58 73  1  0  0  0  0
 59 60  1  0  0  0  0
 60 61  1  0  0  0  0
 61 81  1  0  0  0  0
 62 64  1  0  0  0  0
 62 72  1  0  0  0  0
 63 74  1  0  0  0  0
 65 66  1  0  0  0  0
M  CHG  1  74   1
M  ISO  4  38 100  61 101  73 100  81 101
M  END
> <Batch ID>
0033

> <Smiles>
CNC(C)C(=O)NC(C(=O)N1Cc2cc([101O:1][101CH2:1]CCCc3cc(Cl)c(C[100NH:0][100C:0](=O)N4CCCC(n5nc(-c6ccc(Oc7ccc(F)cc7F)cc6)c(C(N)=O)c5N)C4)cc3C)ccc2CC1C(=O)NC1CCCc2ccccc21)C(C)(C)C

> <Shape>
0.225

> <Color>
0.086

> <Negative vol penalty>
0.000

$$$$

  -OEChem-04052316483D

 84 92  0     1  0  0  0  0  0999 V2000
  -23.1447  -10.7950   18.8990 C   0  0  0  0  0  0  0  0  0  0  0  0
  -22.3885  -11.9070   19.2552 C   0  0  0  0  0  0  0  0  0  0  0  0
  -22.2410  -29.7514   19.7879 C   0  0  0  0  0  0  0  0  0  0  0  0
  -22.5537  -28.7399   21.9596 C   0  0  0  0  0  0  0  0  0  0  0  0
  -24.4852  -10.7157   19.2744 C   0  0  0  0  0  0  0  0  0  0  0  0
  -22.9719  -12.9399   19.9880 C   0  0  0  0  0  0  0  0  0  0  0  0
  -22.6872  -20.0498   20.8160 C   0  0  0  0  0  0  0  0  0  0  0  0
  -20.8674  -29.5279   19.8816 C   0  0  0  0  0  0  0  0  0  0  0  0
  -21.1800  -28.5164   22.0533 C   0  0  0  0  0  0  0  0  0  0  0  0
  -22.5462  -21.0131   21.8140 C   0  0  0  0  0  0  0  0  0  0  0  0
  -18.4111  -30.3081   22.7906 C   0  0  0  0  0  0  0  0  0  0  0  0
  -17.7861  -30.6207   23.9978 C   0  0  0  0  0  0  0  0  0  0  0  0
  -24.8914  -20.8038   22.3389 C   0  0  0  0  0  0  0  0  0  0  0  0
  -28.4632  -24.2490   26.2886 C   0  0  0  0  0  0  0  0  0  0  0  0
  -28.3152  -23.5885   23.9694 C   0  0  0  0  0  0  0  0  0  0  0  0
  -17.0883  -28.3195   24.2323 C   0  0  0  0  0  0  0  0  0  0  0  0
  -23.0842  -29.3574   20.8270 C   0  0  0  0  0  0  0  0  0  0  0  0
  -25.2108  -30.7265   21.1594 C   0  0  0  0  0  0  0  0  0  0  0  0
  -25.0880  -11.7526   20.0038 C   0  0  0  0  0  0  0  0  0  0  0  0
  -23.9311  -19.4473   20.5790 C   0  0  0  0  0  0  0  0  0  0  0  0
  -24.3213  -12.8739   20.3746 C   0  0  0  0  0  0  0  0  0  0  0  0
  -25.0461  -19.8350   21.3357 C   0  0  0  0  0  0  0  0  0  0  0  0
  -27.8034  -23.5662   25.2668 C   0  0  0  0  0  0  0  0  0  0  0  0
  -29.6347  -24.9542   26.0130 C   0  0  0  0  0  0  0  0  0  0  0  0
  -29.4867  -24.2937   23.6938 C   0  0  0  0  0  0  0  0  0  0  0  0
  -20.3369  -28.9104   21.0143 C   0  0  0  0  0  0  0  0  0  0  0  0
  -23.6477  -21.3882   22.5775 C   0  0  0  0  0  0  0  0  0  0  0  0
  -18.3748  -29.0012   22.3043 C   0  0  0  0  0  0  0  0  0  0  0  0
  -17.1247  -29.6264   24.7186 C   0  0  0  0  0  0  0  0  0  0  0  0
  -17.7134  -28.0070   23.0252 C   0  0  0  0  0  0  0  0  0  0  0  0
  -30.1464  -24.9765   24.7156 C   0  0  0  0  0  0  0  0  0  0  0  0
  -24.5033  -29.5875   20.7305 C   0  0  0  0  0  0  0  0  0  0  0  0
  -26.5203  -30.4556   20.8456 C   0  0  0  0  0  0  0  0  0  0  0  0
  -24.7277  -31.9224   21.7854 C   0  0  0  0  0  0  0  0  0  0  0  0
  -25.0522  -16.4773   20.7404 C   0  0  0  0  0  0  0  0  0  0  0  0
  -27.7127  -17.8279   19.4678 C   0  0  0  0  0  0  0  0  0  0  0  0
  -29.5928  -20.6365   18.9942 C   0  0  0  0  0  0  0  0  0  0  0  0
  -29.5602  -25.3528   20.0895 C   0  0  0  0  0  0  0  0  0  0  0  0
  -26.5274  -11.6005   20.4276 C   0  0  0  0  0  0  0  0  0  0  0  0
  -24.0724  -18.4292   19.4809 C   0  0  0  0  0  0  0  0  0  0  0  0
  -26.4077  -19.2331   21.1072 C   0  0  0  0  0  0  0  0  0  0  0  0
  -27.1705  -12.9087   20.8807 C   0  0  0  0  0  0  0  0  0  0  0  0
  -29.1926  -27.9952   17.7317 C   0  0  0  0  0  0  0  0  0  0  0  0
  -26.2448  -13.6559   21.8355 C   0  0  0  0  0  0  0  0  0  0  0  0
  -28.0129  -28.8057   18.2716 C   0  0  0  0  0  0  0  0  0  0  0  0
  -29.0025  -26.4980   17.9649 C   0  0  0  0  0  0  0  0  0  0  0  0
  -27.5420  -26.9302   19.9024 C   0  0  0  0  0  0  0  0  0  0  0  0
  -24.9251  -14.0261   21.1479 C   0  0  1  0  0  0  0  0  0  0  0  0
  -25.2742  -17.5087   19.6705 C   0  0  1  0  0  0  0  0  0  0  0  0
  -27.7139  -28.4503   19.7404 C   0  0  2  0  0  0  0  0  0  0  0  0
  -30.3078  -25.6714   27.1389 C   0  0  0  0  0  0  0  0  0  0  0  0
  -31.7343  -21.4199   17.9467 C   0  0  0  0  0  0  0  0  0  0  0  0
  -29.2875  -16.6004   21.7749 C   0  0  0  0  0  0  0  0  0  0  0  0
  -31.1691  -18.1588   21.2280 C   0  0  0  0  0  0  0  0  0  0  0  0
  -30.4232  -16.4698   19.5506 C   0  0  0  0  0  0  0  0  0  0  0  0
  -28.1629  -22.4783   17.1715 C   0  0  0  0  0  0  0  0  0  0  0  0
  -26.5375  -22.8040   25.5646 C   0  0  0  0  0  0  0  0  0  0  0  0
  -29.9984  -24.2901   22.2890 C   0  0  0  0  0  0  0  0  0  0  0  0
  -25.2948  -23.6817   25.3939 C   0  0  0  0  0  0  0  0  0  0  0  0
  -24.0231  -22.9074   25.7367 C   0  0  0  0  0  0  0  0  0  0  0  0
  -28.9569  -18.4732   20.0287 C   0  0  1  0  0  0  0  0  0  0  0  0
  -30.2400  -21.2174   17.7500 C   0  0  2  0  0  0  0  0  0  0  0  0
  -29.9333  -17.4357   20.6514 C   0  0  0  0  0  0  0  0  0  0  0  0
  -25.2974  -28.6620   20.1857 N   0  0  0  0  0  0  0  0  0  0  0  0
  -26.5175  -29.2191   20.2700 N   0  0  0  0  0  0  0  0  0  0  0  0
  -26.4936  -18.2373   20.0263 N   0  0  0  0  0  0  0  0  0  0  0  0
  -28.7238  -26.2284   19.3776 N   0  0  0  0  0  0  0  0  0  0  0  0
  -27.6622  -31.1568   21.0085 N   0  0  0  0  0  0  0  0  0  0  0  0
  -23.3535  -32.0371   22.0359 N   0  0  0  0  0  0  0  0  0  0  0  0
  -25.1090  -15.1737   20.2856 N   0  0  0  0  0  0  0  0  0  0  0  0
  -29.5334  -19.2598   18.9437 N   0  0  0  0  0  0  0  0  0  0  0  0
  -29.2292  -25.1574   21.4248 N   0  0  0  0  0  0  0  0  0  0  0  0
  -23.8748  -21.7610   24.8515 N   0  0  0  0  0  0  0  0  0  1  0  0
  -29.6275  -22.5338   17.4140 N   0  3  0  0  0  0  0  0  0  0  0  0
  -25.4897  -32.8685   22.0982 O   0  0  0  0  0  0  0  0  0  0  0  0
  -24.8461  -16.8375   21.8934 O   0  0  0  0  0  0  0  0  0  0  0  0
  -27.8181  -16.9968   18.5624 O   0  0  0  0  0  0  0  0  0  0  0  0
  -29.1844  -21.3339   19.9201 O   0  0  0  0  0  0  0  0  0  0  0  0
  -30.5331  -24.7912   19.5748 O   0  0  0  0  0  0  0  0  0  0  0  0
  -18.9965  -28.6923   21.1061 O   0  0  0  0  0  0  0  0  0  0  0  0
  -23.5127  -22.3277   23.5527 O   0  0  0  0  0  0  0  0  0  1  0  0
  -16.5258  -29.9264   25.8786 F   0  0  0  0  0  0  0  0  0  0  0  0
  -17.6761  -26.7494   22.5636 F   0  0  0  0  0  0  0  0  0  0  0  0
  -31.6008  -25.8523   24.3734 Cl  0  0  0  0  0  0  0  0  0  0  0  0
  1  2  1  0  0  0  0
  1  5  2  0  0  0  0
  2  6  2  0  0  0  0
  3  8  2  0  0  0  0
  3 17  1  0  0  0  0
  4  9  1  0  0  0  0
  4 17  2  0  0  0  0
  5 19  1  0  0  0  0
  6 21  1  0  0  0  0
  7 10  2  0  0  0  0
  7 20  1  0  0  0  0
  8 26  1  0  0  0  0
  9 26  2  0  0  0  0
 10 27  1  0  0  0  0
 11 12  2  0  0  0  0
 11 28  1  0  0  0  0
 12 29  1  0  0  0  0
 13 22  1  0  0  0  0
 13 27  2  0  0  0  0
 14 23  1  0  0  0  0
 14 24  2  0  0  0  0
 15 23  2  0  0  0  0
 15 25  1  0  0  0  0
 16 29  2  0  0  0  0
 16 30  1  0  0  0  0
 17 32  1  0  0  0  0
 18 32  1  0  0  0  0
 18 33  2  0  0  0  0
 18 34  1  0  0  0  0
 19 21  2  0  0  0  0
 19 39  1  0  0  0  0
 20 22  2  0  0  0  0
 20 40  1  0  0  0  0
 21 48  1  0  0  0  0
 22 41  1  0  0  0  0
 23 57  1  0  0  0  0
 24 31  1  0  0  0  0
 24 51  1  0  0  0  0
 25 31  2  0  0  0  0
 25 58  1  0  0  0  0
 26 80  1  0  0  0  0
 27 81  1  0  0  0  0
 28 30  2  0  0  0  0
 28 80  1  0  0  0  0
 29 82  1  0  0  0  0
 30 83  1  0  0  0  0
 31 84  1  0  0  0  0
 32 64  2  0  0  0  0
 33 65  1  0  0  0  0
 33 68  1  0  0  0  0
 34 69  1  0  0  0  0
 34 75  2  0  0  0  0
 35 49  1  0  0  0  0
 35 70  1  0  0  0  0
 35 76  2  0  0  0  0
 36 61  1  0  0  0  0
 36 66  1  0  0  0  0
 36 77  2  0  0  0  0
 37 62  1  0  0  0  0
 37 71  1  0  0  0  0
 37 78  2  0  0  0  0
 38 67  1  0  0  0  0
 38 72  1  0  0  0  0
 38 79  2  0  0  0  0
 39 42  1  0  0  0  0
 40 49  1  0  0  0  0
 41 66  1  0  0  0  0
 42 44  1  0  0  0  0
 43 45  1  0  0  0  0
 43 46  1  0  0  0  0
 44 48  1  0  0  0  0
 45 50  1  0  0  0  0
 46 67  1  0  0  0  0
 47 50  1  0  0  0  0
 47 67  1  0  0  0  0
 48 70  1  0  0  0  0
 49 66  1  0  0  0  0
 50 65  1  0  0  0  0
 52 62  1  0  0  0  0
 53 63  1  0  0  0  0
 54 63  1  0  0  0  0
 55 63  1  0  0  0  0
 56 74  1  0  0  0  0
 57 59  1  0  0  0  0
 58 72  1  0  0  0  0
 59 60  1  0  0  0  0
 60 73  1  0  0  0  0
 61 63  1  0  0  0  0
 61 71  1  0  0  0  0
 62 74  1  0  0  0  0
 64 65  1  0  0  0  0
 73 81  1  0  0  0  0
M  CHG  1  74   1
M  ISO  4  38 100  72 100  73 101  81 101
M  END
> <Batch ID>
0033

> <Smiles>
CNC(C)C(=O)NC(C(=O)N1Cc2cc([101O:1][101NH:1]CCCc3cc(C)c(Cl)c(C[100NH:0][100C:0](=O)N4CCCC(n5nc(-c6ccc(Oc7ccc(F)cc7F)cc6)c(C(N)=O)c5N)C4)c3)ccc2CC1C(=O)NC1CCCc2ccccc21)C(C)(C)C

> <Shape>
0.247

> <Color>
0.087

> <Negative vol penalty>
0.000

$$$$

  -OEChem-04052316483D

 85 94  0     1  0  0  0  0  0999 V2000
  -27.8074  -38.1947   23.0061 C   0  0  0  0  0  0  0  0  0  0  0  0
  -28.0862  -37.3117   21.9679 C   0  0  0  0  0  0  0  0  0  0  0  0
  -23.6778   -9.8316   22.3533 C   0  0  0  0  0  0  0  0  0  0  0  0
  -23.2245   -9.9766   19.9847 C   0  0  0  0  0  0  0  0  0  0  0  0
  -27.4703  -37.7029   24.2664 C   0  0  0  0  0  0  0  0  0  0  0  0
  -28.0290  -35.9362   22.1897 C   0  0  0  0  0  0  0  0  0  0  0  0
  -26.3997  -29.8071   18.8586 C   0  0  0  0  0  0  0  0  0  0  0  0
  -23.0168   -8.6044   22.4047 C   0  0  0  0  0  0  0  0  0  0  0  0
  -22.5636   -8.7493   20.0360 C   0  0  0  0  0  0  0  0  0  0  0  0
  -26.9370  -28.5474   18.5974 C   0  0  0  0  0  0  0  0  0  0  0  0
  -23.6815   -5.3825   21.6233 C   0  0  0  0  0  0  0  0  0  0  0  0
  -24.2905   -4.3474   22.3326 C   0  0  0  0  0  0  0  0  0  0  0  0
  -26.9873  -21.0629   19.5233 C   0  0  0  0  0  0  0  0  0  0  0  0
  -26.2661  -27.8123   20.7948 C   0  0  0  0  0  0  0  0  0  0  0  0
  -22.3738   -4.2239   23.7982 C   0  0  0  0  0  0  0  0  0  0  0  0
  -23.7816  -10.5178   21.1433 C   0  0  0  0  0  0  0  0  0  0  0  0
  -25.8319  -12.0052   20.8412 C   0  0  0  0  0  0  0  0  0  0  0  0
  -27.3995  -36.3207   24.5013 C   0  0  0  0  0  0  0  0  0  0  0  0
  -25.8003  -30.0826   20.0960 C   0  0  0  0  0  0  0  0  0  0  0  0
  -27.6919  -35.4254   23.4547 C   0  0  0  0  0  0  0  0  0  0  0  0
  -28.0215  -21.5904   20.3066 C   0  0  0  0  0  0  0  0  0  0  0  0
  -25.7197  -29.0755   21.0683 C   0  0  0  0  0  0  0  0  0  0  0  0
  -27.1294  -19.8237   18.9119 C   0  0  0  0  0  0  0  0  0  0  0  0
  -22.4597   -8.0632   21.2461 C   0  0  0  0  0  0  0  0  0  0  0  0
  -26.8728  -27.5507   19.5666 C   0  0  0  0  0  0  0  0  0  0  0  0
  -22.4186   -5.8384   22.0015 C   0  0  0  0  0  0  0  0  0  0  0  0
  -23.6367   -3.7680   23.4200 C   0  0  0  0  0  0  0  0  0  0  0  0
  -21.7647   -5.2590   23.0889 C   0  0  0  0  0  0  0  0  0  0  0  0
  -24.4637  -11.7858   21.0897 C   0  0  0  0  0  0  0  0  0  0  0  0
  -29.1832  -20.8222   20.4421 C   0  0  0  0  0  0  0  0  0  0  0  0
  -28.3151  -19.1423   19.1068 C   0  0  0  0  0  0  0  0  0  0  0  0
  -25.9763  -13.3700   20.8962 C   0  0  0  0  0  0  0  0  0  0  0  0
  -26.8787  -11.0599   20.5835 C   0  0  0  0  0  0  0  0  0  0  0  0
  -26.3896  -32.1101   22.4721 C   0  0  0  0  0  0  0  0  0  0  0  0
  -23.5936  -30.9492   23.6368 C   0  0  0  0  0  0  0  0  0  0  0  0
  -21.3236  -28.4021   23.7175 C   0  0  0  0  0  0  0  0  0  0  0  0
  -24.2178  -18.5061   19.6025 C   0  0  0  0  0  0  0  0  0  0  0  0
  -27.0769  -35.8364   25.8927 C   0  0  0  0  0  0  0  0  0  0  0  0
  -25.2016  -31.4385   20.3523 C   0  0  0  0  0  0  0  0  0  0  0  0
  -25.0686  -29.3142   22.4053 C   0  0  0  0  0  0  0  0  0  0  0  0
  -30.3229  -21.2688   21.3184 C   0  0  0  0  0  0  0  0  0  0  0  0
  -26.6728  -34.3653   25.9471 C   0  0  0  0  0  0  0  0  0  0  0  0
  -30.2997  -22.7593   21.6404 C   0  0  0  0  0  0  0  0  0  0  0  0
  -22.7759  -16.9586   22.4666 C   0  0  0  0  0  0  0  0  0  0  0  0
  -28.8990  -23.1866   22.0657 C   0  0  0  0  0  0  0  0  0  0  0  0
  -27.6382  -33.5157   25.1268 C   0  0  0  0  0  0  0  0  0  0  0  0
  -23.1940  -15.4926   22.3397 C   0  0  0  0  0  0  0  0  0  0  0  0
  -22.4784  -17.5806   21.1040 C   0  0  0  0  0  0  0  0  0  0  0  0
  -23.9785  -15.9775   19.9842 C   0  0  0  0  0  0  0  0  0  0  0  0
  -27.8708  -22.9544   20.9456 C   0  0  1  0  0  0  0  0  0  0  0  0
  -27.6163  -33.9266   23.6495 C   0  0  1  0  0  0  0  0  0  0  0  0
  -25.0726  -31.7637   21.8372 C   0  0  1  0  0  0  0  0  0  0  0  0
  -24.3430  -15.3228   21.3276 C   0  0  2  0  0  0  0  0  0  0  0  0
  -19.1583  -27.7264   24.7911 C   0  0  0  0  0  0  0  0  0  0  0  0
  -25.0757  -30.3306   26.2312 C   0  0  0  0  0  0  0  0  0  0  0  0
  -23.1739  -28.8371   26.8799 C   0  0  0  0  0  0  0  0  0  0  0  0
  -22.7816  -31.2771   26.5405 C   0  0  0  0  0  0  0  0  0  0  0  0
  -19.9465  -28.2322   21.1034 C   0  0  0  0  0  0  0  0  0  0  0  0
  -26.0182  -19.2814   18.0804 C   0  0  0  0  0  0  0  0  0  0  0  0
  -27.9543  -24.0578   19.8830 C   0  0  0  0  0  0  0  0  0  0  0  0
  -27.2965  -25.3464   20.3525 C   0  0  0  0  0  0  0  0  0  1  0  0
  -23.2045  -29.7988   24.5336 C   0  0  1  0  0  0  0  0  0  0  0  0
  -19.8107  -28.3968   23.5920 C   0  0  2  0  0  0  0  0  0  0  0  0
  -23.5730  -30.0567   26.0219 C   0  0  0  0  0  0  0  0  0  0  0  0
  -23.7873  -12.9203   21.2881 N   0  0  0  0  0  0  0  0  0  0  0  0
  -29.3377  -19.6065   19.8569 N   0  0  0  0  0  0  0  0  0  0  0  0
  -24.7343  -13.8657   21.1643 N   0  0  0  0  0  0  0  0  0  0  0  0
  -24.5035  -30.6581   22.6106 N   0  0  0  0  0  0  0  0  0  0  0  0
  -23.6080  -17.3862   20.1917 N   0  0  0  0  0  0  0  0  0  0  0  0
  -27.0433  -14.1823   20.7411 N   0  0  0  0  0  0  0  0  0  0  0  0
  -26.5569   -9.6960   20.5623 N   0  0  0  0  0  0  0  0  0  0  0  0
  -26.4441  -33.3889   22.9928 N   0  0  0  0  0  0  0  0  0  0  0  0
  -21.7835  -29.5632   24.3020 N   0  0  0  0  0  0  0  0  0  0  0  0
  -25.2854  -18.2337   18.7558 N   0  0  0  0  0  0  0  0  0  0  0  0
  -19.3957  -27.6657   22.3614 N   0  3  0  0  0  0  0  0  0  0  0  0
  -28.0673  -11.4132   20.3943 O   0  0  0  0  0  0  0  0  0  0  0  0
  -27.2893  -31.2782   22.4897 O   0  0  0  0  0  0  0  0  0  0  0  0
  -23.1026  -32.0633   23.8350 O   0  0  0  0  0  0  0  0  0  0  0  0
  -22.0267  -27.4680   23.3386 O   0  0  0  0  0  0  0  0  0  0  0  0
  -23.8424  -19.6632   19.8195 O   0  0  0  0  0  0  0  0  0  0  0  0
  -21.8149   -6.8656   21.2958 O   0  0  0  0  0  0  0  0  0  0  0  0
  -27.3971  -26.3204   19.3145 O   0  0  0  0  0  0  0  0  0  1  0  0
  -24.2210   -2.7729   24.1001 F   0  0  0  0  0  0  0  0  0  0  0  0
  -20.5508   -5.6919   23.4562 F   0  0  0  0  0  0  0  0  0  0  0  0
  -28.6165  -17.6006   18.4071 Cl  0  0  0  0  0  0  0  0  0  0  0  0
  1  2  1  0  0  0  0
  1  5  2  0  0  0  0
  2  6  2  0  0  0  0
  3  8  2  0  0  0  0
  3 16  1  0  0  0  0
  4  9  1  0  0  0  0
  4 16  2  0  0  0  0
  5 18  1  0  0  0  0
  6 20  1  0  0  0  0
  7 10  2  0  0  0  0
  7 19  1  0  0  0  0
  8 24  1  0  0  0  0
  9 24  2  0  0  0  0
 10 25  1  0  0  0  0
 11 12  2  0  0  0  0
 11 26  1  0  0  0  0
 12 27  1  0  0  0  0
 13 21  1  0  0  0  0
 13 23  2  0  0  0  0
 14 22  1  0  0  0  0
 14 25  2  0  0  0  0
 15 27  2  0  0  0  0
 15 28  1  0  0  0  0
 16 29  1  0  0  0  0
 17 29  1  0  0  0  0
 17 32  2  0  0  0  0
 17 33  1  0  0  0  0
 18 20  2  0  0  0  0
 18 38  1  0  0  0  0
 19 22  2  0  0  0  0
 19 39  1  0  0  0  0
 20 51  1  0  0  0  0
 21 30  2  0  0  0  0
 21 50  1  0  0  0  0
 22 40  1  0  0  0  0
 23 31  1  0  0  0  0
 23 59  1  0  0  0  0
 24 81  1  0  0  0  0
 25 82  1  0  0  0  0
 26 28  2  0  0  0  0
 26 81  1  0  0  0  0
 27 83  1  0  0  0  0
 28 84  1  0  0  0  0
 29 65  2  0  0  0  0
 30 41  1  0  0  0  0
 30 66  1  0  0  0  0
 31 66  2  0  0  0  0
 31 85  1  0  0  0  0
 32 67  1  0  0  0  0
 32 70  1  0  0  0  0
 33 71  1  0  0  0  0
 33 76  2  0  0  0  0
 34 52  1  0  0  0  0
 34 72  1  0  0  0  0
 34 77  2  0  0  0  0
 35 62  1  0  0  0  0
 35 68  1  0  0  0  0
 35 78  2  0  0  0  0
 36 63  1  0  0  0  0
 36 73  1  0  0  0  0
 36 79  2  0  0  0  0
 37 69  1  0  0  0  0
 37 74  1  0  0  0  0
 37 80  2  0  0  0  0
 38 42  1  0  0  0  0
 39 52  1  0  0  0  0
 40 68  1  0  0  0  0
 41 43  1  0  0  0  0
 42 46  1  0  0  0  0
 43 45  1  0  0  0  0
 44 47  1  0  0  0  0
 44 48  1  0  0  0  0
 45 50  1  0  0  0  0
 46 51  1  0  0  0  0
 47 53  1  0  0  0  0
 48 69  1  0  0  0  0
 49 53  1  0  0  0  0
 49 69  1  0  0  0  0
 50 60  1  0  0  0  0
 51 72  1  0  0  0  0
 52 68  1  0  0  0  0
 53 67  1  0  0  0  0
 54 63  1  0  0  0  0
 55 64  1  0  0  0  0
 56 64  1  0  0  0  0
 57 64  1  0  0  0  0
 58 75  1  0  0  0  0
 59 74  1  0  0  0  0
 60 61  1  0  0  0  0
 61 82  1  0  0  0  0
 62 64  1  0  0  0  0
 62 73  1  0  0  0  0
 63 75  1  0  0  0  0
 65 67  1  0  0  0  0
M  CHG  1  75   1
M  ISO  4  37 100  61 101  74 100  82 101
M  END
> <Batch ID>
0033

> <Smiles>
CNC(C)C(=O)NC(C(=O)N1Cc2cc([101O:1][101CH2:1]CC3CCCc4nc(Cl)c(C[100NH:0][100C:0](=O)N5CCCC(n6nc(-c7ccc(Oc8ccc(F)cc8F)cc7)c(C(N)=O)c6N)C5)cc43)ccc2CC1C(=O)NC1CCCc2ccccc21)C(C)(C)C

> <Shape>
0.318

> <Color>
0.114

> <Negative vol penalty>
0.000

$$$$

  -OEChem-04052316483D

 81 89  0     1  0  0  0  0  0999 V2000
  -25.0129  -28.1496   18.9876 C   0  0  0  0  0  0  0  0  0  0  0  0
  -25.7550  -27.1127   19.5440 C   0  0  0  0  0  0  0  0  0  0  0  0
  -23.0135   -9.9542   19.8975 C   0  0  0  0  0  0  0  0  0  0  0  0
  -23.8723   -9.7745   22.1486 C   0  0  0  0  0  0  0  0  0  0  0  0
  -25.2314  -29.4625   19.4029 C   0  0  0  0  0  0  0  0  0  0  0  0
  -26.7168  -27.3883   20.5153 C   0  0  0  0  0  0  0  0  0  0  0  0
  -26.5107  -24.1716   24.4211 C   0  0  0  0  0  0  0  0  0  0  0  0
  -22.2590   -8.7974   20.0930 C   0  0  0  0  0  0  0  0  0  0  0  0
  -23.1177   -8.6177   22.3441 C   0  0  0  0  0  0  0  0  0  0  0  0
  -27.0704  -22.9082   24.2357 C   0  0  0  0  0  0  0  0  0  0  0  0
  -19.9039   -7.8282   23.0288 C   0  0  0  0  0  0  0  0  0  0  0  0
  -19.1979   -7.7115   24.2260 C   0  0  0  0  0  0  0  0  0  0  0  0
  -29.0551  -23.6222   25.4062 C   0  0  0  0  0  0  0  0  0  0  0  0
  -20.4324   -5.7040   24.7582 C   0  0  0  0  0  0  0  0  0  0  0  0
  -29.5451  -18.6995   22.6473 C   0  0  0  0  0  0  0  0  0  0  0  0
  -23.8202  -10.4427   20.9253 C   0  0  0  0  0  0  0  0  0  0  0  0
  -24.2053  -12.9639   20.9806 C   0  0  0  0  0  0  0  0  0  0  0  0
  -26.1896  -29.7532   20.3867 C   0  0  0  0  0  0  0  0  0  0  0  0
  -27.2247  -25.1748   25.0920 C   0  0  0  0  0  0  0  0  0  0  0  0
  -26.9493  -28.7065   20.9431 C   0  0  0  0  0  0  0  0  0  0  0  0
  -28.5013  -24.8967   25.6010 C   0  0  0  0  0  0  0  0  0  0  0  0
  -30.1615  -17.5091   22.9639 C   0  0  0  0  0  0  0  0  0  0  0  0
  -22.3111   -8.1292   21.3163 C   0  0  0  0  0  0  0  0  0  0  0  0
  -28.3439  -22.6342   24.7257 C   0  0  0  0  0  0  0  0  0  0  0  0
  -20.8741   -6.8828   22.6961 C   0  0  0  0  0  0  0  0  0  0  0  0
  -19.4621   -6.6494   25.0908 C   0  0  0  0  0  0  0  0  0  0  0  0
  -21.1384   -5.8207   23.5609 C   0  0  0  0  0  0  0  0  0  0  0  0
  -29.8849  -17.2389   24.3269 C   0  0  0  0  0  0  0  0  0  0  0  0
  -24.6003  -11.6373   20.7238 C   0  0  0  0  0  0  0  0  0  0  0  0
  -29.1077  -18.2723   24.8016 C   0  0  0  0  0  0  0  0  0  0  0  0
  -25.2950  -13.7212   20.6262 C   0  0  0  0  0  0  0  0  0  0  0  0
  -22.9645  -13.4666   21.4936 C   0  0  0  0  0  0  0  0  0  0  0  0
  -28.3376  -28.0458   24.3030 C   0  0  0  0  0  0  0  0  0  0  0  0
  -29.0918  -28.1897   27.4547 C   0  0  0  0  0  0  0  0  0  0  0  0
  -29.7886  -26.5164   30.3463 C   0  0  0  0  0  0  0  0  0  0  0  0
  -30.8004  -14.6350   20.6451 C   0  0  0  0  0  0  0  0  0  0  0  0
  -26.4234  -31.1933   20.7693 C   0  0  0  0  0  0  0  0  0  0  0  0
  -26.5962  -26.5243   25.3072 C   0  0  0  0  0  0  0  0  0  0  0  0
  -29.3010  -25.9330   26.3461 C   0  0  0  0  0  0  0  0  0  0  0  0
  -27.1992  -31.3587   22.0735 C   0  0  0  0  0  0  0  0  0  0  0  0
  -29.5143  -12.4575   18.1389 C   0  0  0  0  0  0  0  0  0  0  0  0
  -28.4116  -30.4332   22.0946 C   0  0  0  0  0  0  0  0  0  0  0  0
  -28.0916  -12.1547   18.6124 C   0  0  0  0  0  0  0  0  0  0  0  0
  -30.4868  -12.5716   19.3108 C   0  0  0  0  0  0  0  0  0  0  0  0
  -28.6616  -13.2255   20.8322 C   0  0  0  0  0  0  0  0  0  0  0  0
  -27.9843  -28.9625   22.0170 C   0  0  1  0  0  0  0  0  0  0  0  0
  -27.6202  -27.6277   25.5552 C   0  0  1  0  0  0  0  0  0  0  0  0
  -27.6340  -13.1566   19.6896 C   0  0  2  0  0  0  0  0  0  0  0  0
  -27.3059  -17.6358   26.4249 C   0  0  0  0  0  0  0  0  0  0  0  0
  -30.4030  -26.9052   32.7481 C   0  0  0  0  0  0  0  0  0  0  0  0
  -31.9454  -28.8667   26.6126 C   0  0  0  0  0  0  0  0  0  0  0  0
  -32.6894  -28.3089   28.9371 C   0  0  0  0  0  0  0  0  0  0  0  0
  -31.0909  -30.1860   28.5577 C   0  0  0  0  0  0  0  0  0  0  0  0
  -27.3391  -25.1653   31.3124 C   0  0  0  0  0  0  0  0  0  0  0  0
  -30.9616  -16.6839   22.0362 C   0  0  0  0  0  0  0  0  0  0  0  0
  -28.5380  -18.5016   26.1471 C   0  0  0  0  0  0  0  0  0  0  0  0
  -28.1115  -20.4303   23.8445 C   0  0  0  0  0  0  0  0  0  1  0  0
  -30.2914  -27.8030   28.2856 C   0  0  1  0  0  0  0  0  0  0  0  0
  -29.2663  -26.6895   31.7611 C   0  0  2  0  0  0  0  0  0  0  0  0
  -31.4903  -28.7720   28.0826 C   0  0  0  0  0  0  0  0  0  0  0  0
  -25.8437  -11.5533   20.2433 N   0  0  0  0  0  0  0  0  0  0  0  0
  -28.9072  -19.1542   23.7719 N   0  0  0  0  0  0  0  0  0  0  0  0
  -26.2394  -12.8367   20.1952 N   0  0  0  0  0  0  0  0  0  0  0  0
  -28.6458  -27.2392   26.5255 N   0  0  0  0  0  0  0  0  0  0  0  0
  -29.9953  -13.5384   20.2954 N   0  0  0  0  0  0  0  0  0  0  0  0
  -25.5278  -15.0508   20.6443 N   0  0  0  0  0  0  0  0  0  0  0  0
  -21.9507  -12.5507   21.8064 N   0  0  0  0  0  0  0  0  0  0  0  0
  -27.5025  -28.5077   23.3037 N   0  0  0  0  0  0  0  0  0  0  0  0
  -29.8217  -27.7142   29.6640 N   0  0  0  0  0  0  0  0  0  0  0  0
  -30.2565  -15.5066   21.5807 N   0  0  0  0  0  0  0  0  0  0  0  0
  -28.5011  -25.4820   32.1821 N   0  3  0  0  0  0  0  0  0  0  0  0
  -22.7548  -14.6929   21.6539 O   0  0  0  0  0  0  0  0  0  0  0  0
  -29.5586  -27.9575   24.2481 O   0  0  0  0  0  0  0  0  0  0  0  0
  -28.5655  -29.2917   27.6287 O   0  0  0  0  0  0  0  0  0  0  0  0
  -30.1362  -25.4282   29.8930 O   0  0  0  0  0  0  0  0  0  0  0  0
  -31.9188  -14.8262   20.1556 O   0  0  0  0  0  0  0  0  0  0  0  0
  -21.5748   -7.0006   21.5075 O   0  0  0  0  0  0  0  0  0  0  0  0
  -28.8928  -21.4021   24.5455 O   0  0  0  0  0  0  0  0  0  1  0  0
  -18.7851   -6.5382   26.2412 F   0  0  0  0  0  0  0  0  0  0  0  0
  -22.0701   -4.9100   23.2473 F   0  0  0  0  0  0  0  0  0  0  0  0
  -30.4293  -15.8814   25.1944 Cl  0  0  0  0  0  0  0  0  0  0  0  0
  1  2  1  0  0  0  0
  1  5  2  0  0  0  0
  2  6  2  0  0  0  0
  3  8  2  0  0  0  0
  3 16  1  0  0  0  0
  4  9  1  0  0  0  0
  4 16  2  0  0  0  0
  5 18  1  0  0  0  0
  6 20  1  0  0  0  0
  7 10  2  0  0  0  0
  7 19  1  0  0  0  0
  8 23  1  0  0  0  0
  9 23  2  0  0  0  0
 10 24  1  0  0  0  0
 11 12  2  0  0  0  0
 11 25  1  0  0  0  0
 12 26  1  0  0  0  0
 13 21  1  0  0  0  0
 13 24  2  0  0  0  0
 14 26  2  0  0  0  0
 14 27  1  0  0  0  0
 15 22  2  0  0  0  0
 15 62  1  0  0  0  0
 16 29  1  0  0  0  0
 17 29  1  0  0  0  0
 17 31  2  0  0  0  0
 17 32  1  0  0  0  0
 18 20  2  0  0  0  0
 18 37  1  0  0  0  0
 19 21  2  0  0  0  0
 19 38  1  0  0  0  0
 20 46  1  0  0  0  0
 21 39  1  0  0  0  0
 22 28  1  0  0  0  0
 22 55  1  0  0  0  0
 23 77  1  0  0  0  0
 24 78  1  0  0  0  0
 25 27  2  0  0  0  0
 25 77  1  0  0  0  0
 26 79  1  0  0  0  0
 27 80  1  0  0  0  0
 28 30  2  0  0  0  0
 28 81  1  0  0  0  0
 29 61  2  0  0  0  0
 30 56  1  0  0  0  0
 30 62  1  0  0  0  0
 31 63  1  0  0  0  0
 31 66  1  0  0  0  0
 32 67  1  0  0  0  0
 32 72  2  0  0  0  0
 33 47  1  0  0  0  0
 33 68  1  0  0  0  0
 33 73  2  0  0  0  0
 34 58  1  0  0  0  0
 34 64  1  0  0  0  0
 34 74  2  0  0  0  0
 35 59  1  0  0  0  0
 35 69  1  0  0  0  0
 35 75  2  0  0  0  0
 36 65  1  0  0  0  0
 36 70  1  0  0  0  0
 36 76  2  0  0  0  0
 37 40  1  0  0  0  0
 38 47  1  0  0  0  0
 39 64  1  0  0  0  0
 40 42  1  0  0  0  0
 41 43  1  0  0  0  0
 41 44  1  0  0  0  0
 42 46  1  0  0  0  0
 43 48  1  0  0  0  0
 44 65  1  0  0  0  0
 45 48  1  0  0  0  0
 45 65  1  0  0  0  0
 46 68  1  0  0  0  0
 47 64  1  0  0  0  0
 48 63  1  0  0  0  0
 49 56  1  0  0  0  0
 50 59  1  0  0  0  0
 51 60  1  0  0  0  0
 52 60  1  0  0  0  0
 53 60  1  0  0  0  0
 54 71  1  0  0  0  0
 55 70  1  0  0  0  0
 57 62  1  0  0  0  0
 57 78  1  0  0  0  0
 58 60  1  0  0  0  0
 58 69  1  0  0  0  0
 59 71  1  0  0  0  0
 61 63  1  0  0  0  0
M  CHG  1  71   1
M  ISO  4  36 100  57 101  70 100  78 101
M  END
> <Batch ID>
0033

> <Smiles>
CCc1c(Cl)c(C[100NH:0][100C:0](=O)N2CCCC(n3nc(-c4ccc(Oc5ccc(F)cc5F)cc4)c(C(N)=O)c3N)C2)cn1[101CH2:1][101O:1]c1ccc2c(c1)CN(C(=O)C(NC(=O)C(C)NC)C(C)(C)C)C(C(=O)NC1CCCc3ccccc31)C2

> <Shape>
0.229

> <Color>
0.215

> <Negative vol penalty>
0.000

$$$$

  -OEChem-04052316483D

 84 92  0     1  0  0  0  0  0999 V2000
  -18.2201  -24.6954   21.4549 C   0  0  0  0  0  0  0  0  0  0  0  0
  -19.5911  -24.5128   21.3051 C   0  0  0  0  0  0  0  0  0  0  0  0
  -25.7874  -12.9530   21.4075 C   0  0  0  0  0  0  0  0  0  0  0  0
  -25.1973  -13.5423   19.1400 C   0  0  0  0  0  0  0  0  0  0  0  0
  -17.7283  -25.9059   21.9413 C   0  0  0  0  0  0  0  0  0  0  0  0
  -20.4711  -25.5411   21.6407 C   0  0  0  0  0  0  0  0  0  0  0  0
  -24.4502  -23.8998   24.3085 C   0  0  0  0  0  0  0  0  0  0  0  0
  -25.4711  -11.6204   21.1435 C   0  0  0  0  0  0  0  0  0  0  0  0
  -24.8810  -12.2097   18.8760 C   0  0  0  0  0  0  0  0  0  0  0  0
  -25.4719  -23.2655   23.6031 C   0  0  0  0  0  0  0  0  0  0  0  0
  -24.4759   -8.1229   21.1703 C   0  0  0  0  0  0  0  0  0  0  0  0
  -23.7199   -7.4341   22.1187 C   0  0  0  0  0  0  0  0  0  0  0  0
  -26.7571  -25.3065   23.6411 C   0  0  0  0  0  0  0  0  0  0  0  0
  -27.1511  -25.1194   18.1694 C   0  0  0  0  0  0  0  0  0  0  0  0
  -29.2387  -24.4803   19.9061 C   0  0  0  0  0  0  0  0  0  0  0  0
  -21.9274   -9.0316   21.8499 C   0  0  0  0  0  0  0  0  0  0  0  0
  -25.6504  -13.9140   20.4057 C   0  0  0  0  0  0  0  0  0  0  0  0
  -27.2269  -15.9166   20.5149 C   0  0  0  0  0  0  0  0  0  0  0  0
  -18.6032  -26.9462   22.2921 C   0  0  0  0  0  0  0  0  0  0  0  0
  -24.5699  -25.2476   24.6767 C   0  0  0  0  0  0  0  0  0  0  0  0
  -19.9904  -26.7672   22.1310 C   0  0  0  0  0  0  0  0  0  0  0  0
  -25.7367  -25.9549   24.3534 C   0  0  0  0  0  0  0  0  0  0  0  0
  -28.2085  -26.0116   18.3469 C   0  0  0  0  0  0  0  0  0  0  0  0
  -29.2524  -25.6920   19.2152 C   0  0  0  0  0  0  0  0  0  0  0  0
  -27.1375  -23.9077   18.8602 C   0  0  0  0  0  0  0  0  0  0  0  0
  -28.1813  -23.5881   19.7286 C   0  0  0  0  0  0  0  0  0  0  0  0
  -25.0179  -11.2487   19.8778 C   0  0  0  0  0  0  0  0  0  0  0  0
  -26.6243  -23.9696   23.2667 C   0  0  0  0  0  0  0  0  0  0  0  0
  -23.9578   -9.2661   20.5617 C   0  0  0  0  0  0  0  0  0  0  0  0
  -22.4456   -7.8884   22.4585 C   0  0  0  0  0  0  0  0  0  0  0  0
  -22.6835   -9.7204   20.9015 C   0  0  0  0  0  0  0  0  0  0  0  0
  -25.9765  -15.2908   20.6780 C   0  0  0  0  0  0  0  0  0  0  0  0
  -27.0145  -17.2157   20.9069 C   0  0  0  0  0  0  0  0  0  0  0  0
  -28.4694  -15.3722   20.0506 C   0  0  0  0  0  0  0  0  0  0  0  0
  -22.9619  -27.9068   24.0083 C   0  0  0  0  0  0  0  0  0  0  0  0
  -24.9541  -29.2023   26.2163 C   0  0  0  0  0  0  0  0  0  0  0  0
  -27.9311  -29.0471   27.8777 C   0  0  0  0  0  0  0  0  0  0  0  0
  -22.9468  -21.3309   20.7244 C   0  0  0  0  0  0  0  0  0  0  0  0
  -18.0221  -28.2537   22.7691 C   0  0  0  0  0  0  0  0  0  0  0  0
  -23.4703  -25.9098   25.4607 C   0  0  0  0  0  0  0  0  0  0  0  0
  -25.9229  -27.3978   24.7430 C   0  0  0  0  0  0  0  0  0  0  0  0
  -19.0418  -29.1591   23.4553 C   0  0  0  0  0  0  0  0  0  0  0  0
  -23.6385  -19.5042   23.7012 C   0  0  0  0  0  0  0  0  0  0  0  0
  -20.3268  -29.2323   22.6367 C   0  0  0  0  0  0  0  0  0  0  0  0
  -24.4281  -18.2896   23.2099 C   0  0  0  0  0  0  0  0  0  0  0  0
  -22.5475  -19.9061   22.7111 C   0  0  0  0  0  0  0  0  0  0  0  0
  -23.8051  -18.9129   20.8388 C   0  0  0  0  0  0  0  0  0  0  0  0
  -20.9782  -27.8501   22.5075 C   0  0  1  0  0  0  0  0  0  0  0  0
  -23.4796  -27.4302   25.3359 C   0  0  1  0  0  0  0  0  0  0  0  0
  -24.9531  -18.5041   21.7775 C   0  0  2  0  0  0  0  0  0  0  0  0
  -28.2019  -27.3026   17.5960 C   0  0  0  0  0  0  0  0  0  0  0  0
  -30.3952  -26.6312   19.4208 C   0  0  0  0  0  0  0  0  0  0  0  0
  -29.2945  -30.2674   29.5951 C   0  0  0  0  0  0  0  0  0  0  0  0
  -25.6968  -31.3022   24.1310 C   0  0  0  0  0  0  0  0  0  0  0  0
  -27.6940  -31.8800   25.5258 C   0  0  0  0  0  0  0  0  0  0  0  0
  -25.3977  -32.1935   26.4485 C   0  0  0  0  0  0  0  0  0  0  0  0
  -27.9104  -26.7253   29.7129 C   0  0  0  0  0  0  0  0  0  0  0  0
  -25.9944  -22.9687   18.6548 C   0  0  0  0  0  0  0  0  0  0  0  0
  -28.1879  -22.2834   20.4875 C   0  0  0  0  0  0  0  0  0  0  0  0
  -24.6090  -23.5828   18.9328 C   0  0  0  0  0  0  0  0  0  0  0  0
  -23.4381  -22.6375   18.6724 C   0  0  0  0  0  0  0  0  0  0  0  0
  -27.2453  -22.3049   21.6859 C   0  0  0  0  0  0  0  0  0  1  0  0
  -26.3155  -29.8535   26.1766 C   0  0  1  0  0  0  0  0  0  0  0  0
  -28.2692  -29.1707   29.3525 C   0  0  2  0  0  0  0  0  0  0  0  0
  -26.2720  -31.2807   25.5613 C   0  0  0  0  0  0  0  0  0  0  0  0
  -25.0391  -16.1238   21.1378 N   0  0  0  0  0  0  0  0  0  0  0  0
  -25.7010  -17.2863   21.2672 N   0  0  0  0  0  0  0  0  0  0  0  0
  -24.8169  -28.0028   25.5033 N   0  0  0  0  0  0  0  0  0  0  0  0
  -23.1115  -20.0956   21.3725 N   0  0  0  0  0  0  0  0  0  0  0  0
  -27.8250  -18.2931   20.9752 N   0  0  0  0  0  0  0  0  0  0  0  0
  -28.5122  -14.0189   19.6886 N   0  0  0  0  0  0  0  0  0  0  0  0
  -21.6706  -27.5015   23.7296 N   0  0  0  0  0  0  0  0  0  0  0  0
  -26.8305  -29.8063   27.5407 N   0  0  0  0  0  0  0  0  0  0  0  0
  -23.5177  -21.4283   19.4613 N   0  0  0  0  0  0  0  0  0  0  0  0
  -28.8242  -27.8865   29.8661 N   0  3  0  0  0  0  0  0  0  0  0  0
  -29.5149  -16.0613   19.9750 O   0  0  0  0  0  0  0  0  0  0  0  0
  -23.6803  -28.5927   23.2906 O   0  0  0  0  0  0  0  0  0  0  0  0
  -24.0479  -29.7343   26.8623 O   0  0  0  0  0  0  0  0  0  0  0  0
  -28.5807  -28.3499   27.1016 O   0  0  0  0  0  0  0  0  0  0  0  0
  -22.3407  -22.2785   21.2358 O   0  0  0  0  0  0  0  0  0  0  0  0
  -24.7094   -9.9484   19.6198 O   0  0  0  0  0  0  0  0  0  0  0  0
  -27.6227  -23.3531   22.5776 O   0  0  0  0  0  0  0  0  0  1  0  0
  -21.7190   -7.2260   23.3681 F   0  0  0  0  0  0  0  0  0  0  0  0
  -22.1800  -10.8174   20.3194 F   0  0  0  0  0  0  0  0  0  0  0  0
  1  2  1  0  0  0  0
  1  5  2  0  0  0  0
  2  6  2  0  0  0  0
  3  8  2  0  0  0  0
  3 17  1  0  0  0  0
  4  9  1  0  0  0  0
  4 17  2  0  0  0  0
  5 19  1  0  0  0  0
  6 21  1  0  0  0  0
  7 10  2  0  0  0  0
  7 20  1  0  0  0  0
  8 27  1  0  0  0  0
  9 27  2  0  0  0  0
 10 28  1  0  0  0  0
 11 12  2  0  0  0  0
 11 29  1  0  0  0  0
 12 30  1  0  0  0  0
 13 22  1  0  0  0  0
 13 28  2  0  0  0  0
 14 23  2  0  0  0  0
 14 25  1  0  0  0  0
 15 24  2  0  0  0  0
 15 26  1  0  0  0  0
 16 30  2  0  0  0  0
 16 31  1  0  0  0  0
 17 32  1  0  0  0  0
 18 32  1  0  0  0  0
 18 33  2  0  0  0  0
 18 34  1  0  0  0  0
 19 21  2  0  0  0  0
 19 39  1  0  0  0  0
 20 22  2  0  0  0  0
 20 40  1  0  0  0  0
 21 48  1  0  0  0  0
 22 41  1  0  0  0  0
 23 24  1  0  0  0  0
 23 51  1  0  0  0  0
 24 52  1  0  0  0  0
 25 26  2  0  0  0  0
 25 58  1  0  0  0  0
 26 59  1  0  0  0  0
 27 81  1  0  0  0  0
 28 82  1  0  0  0  0
 29 31  2  0  0  0  0
 29 81  1  0  0  0  0
 30 83  1  0  0  0  0
 31 84  1  0  0  0  0
 32 66  2  0  0  0  0
 33 67  1  0  0  0  0
 33 70  1  0  0  0  0
 34 71  1  0  0  0  0
 34 76  2  0  0  0  0
 35 49  1  0  0  0  0
 35 72  1  0  0  0  0
 35 77  2  0  0  0  0
 36 63  1  0  0  0  0
 36 68  1  0  0  0  0
 36 78  2  0  0  0  0
 37 64  1  0  0  0  0
 37 73  1  0  0  0  0
 37 79  2  0  0  0  0
 38 69  1  0  0  0  0
 38 74  1  0  0  0  0
 38 80  2  0  0  0  0
 39 42  1  0  0  0  0
 40 49  1  0  0  0  0
 41 68  1  0  0  0  0
 42 44  1  0  0  0  0
 43 45  1  0  0  0  0
 43 46  1  0  0  0  0
 44 48  1  0  0  0  0
 45 50  1  0  0  0  0
 46 69  1  0  0  0  0
 47 50  1  0  0  0  0
 47 69  1  0  0  0  0
 48 72  1  0  0  0  0
 49 68  1  0  0  0  0
 50 67  1  0  0  0  0
 53 64  1  0  0  0  0
 54 65  1  0  0  0  0
 55 65  1  0  0  0  0
 56 65  1  0  0  0  0
 57 75  1  0  0  0  0
 58 60  1  0  0  0  0
 59 62  1  0  0  0  0
 60 61  1  0  0  0  0
 61 74  1  0  0  0  0
 62 82  1  0  0  0  0
 63 65  1  0  0  0  0
 63 73  1  0  0  0  0
 64 75  1  0  0  0  0
 66 67  1  0  0  0  0
M  CHG  1  75   1
M  ISO  4  38 100  62 101  74 100  82 101
M  END
> <Batch ID>
0033

> <Smiles>
CNC(C)C(=O)NC(C(=O)N1Cc2cc([101O:1][101CH2:1]Cc3cc(C)c(C)cc3CCC[100NH:0][100C:0](=O)N3CCCC(n4nc(-c5ccc(Oc6ccc(F)cc6F)cc5)c(C(N)=O)c4N)C3)ccc2CC1C(=O)NC1CCCc2ccccc21)C(C)(C)C

> <Shape>
0.220

> <Color>
0.084

> <Negative vol penalty>
0.000

$$$$

  -OEChem-04052316483D

 81 89  0     1  0  0  0  0  0999 V2000
  -29.4395  -23.4442   17.8757 C   0  0  0  0  0  0  0  0  0  0  0  0
  -28.2230  -23.5789   18.5371 C   0  0  0  0  0  0  0  0  0  0  0  0
  -26.5301  -13.4474   19.2455 C   0  0  0  0  0  0  0  0  0  0  0  0
  -24.9153  -13.9718   20.9644 C   0  0  0  0  0  0  0  0  0  0  0  0
  -30.5425  -24.1905   18.2886 C   0  0  0  0  0  0  0  0  0  0  0  0
  -28.1091  -24.4591   19.6126 C   0  0  0  0  0  0  0  0  0  0  0  0
  -23.8968  -27.2613   19.3918 C   0  0  0  0  0  0  0  0  0  0  0  0
  -26.4482  -12.0960   19.5808 C   0  0  0  0  0  0  0  0  0  0  0  0
  -24.8334  -12.6203   21.2997 C   0  0  0  0  0  0  0  0  0  0  0  0
  -22.7042  -26.6495   19.7756 C   0  0  0  0  0  0  0  0  0  0  0  0
  -23.3228   -9.8453   20.1006 C   0  0  0  0  0  0  0  0  0  0  0  0
  -22.0526   -9.3043   20.2998 C   0  0  0  0  0  0  0  0  0  0  0  0
  -22.8581  -27.7168   21.9335 C   0  0  0  0  0  0  0  0  0  0  0  0
  -22.6552   -8.7242   22.5665 C   0  0  0  0  0  0  0  0  0  0  0  0
  -23.2182  -23.5406   22.3487 C   0  0  0  0  0  0  0  0  0  0  0  0
  -25.7637  -14.3854   19.9373 C   0  0  0  0  0  0  0  0  0  0  0  0
  -25.0663  -16.4724   18.6467 C   0  0  0  0  0  0  0  0  0  0  0  0
  -30.4395  -25.0875   19.3635 C   0  0  0  0  0  0  0  0  0  0  0  0
  -24.5858  -28.0982   20.2813 C   0  0  0  0  0  0  0  0  0  0  0  0
  -29.2121  -25.2171   20.0411 C   0  0  0  0  0  0  0  0  0  0  0  0
  -24.0579  -28.3400   21.5577 C   0  0  0  0  0  0  0  0  0  0  0  0
  -25.5999  -11.6824   20.6079 C   0  0  0  0  0  0  0  0  0  0  0  0
  -22.1862  -26.8749   21.0476 C   0  0  0  0  0  0  0  0  0  0  0  0
  -24.2592   -9.8256   21.1343 C   0  0  0  0  0  0  0  0  0  0  0  0
  -21.7188   -8.7438   21.5327 C   0  0  0  0  0  0  0  0  0  0  0  0
  -23.9254   -9.2651   22.3672 C   0  0  0  0  0  0  0  0  0  0  0  0
  -25.8482  -15.7816   19.5918 C   0  0  0  0  0  0  0  0  0  0  0  0
  -24.1159  -22.8866   23.2137 C   0  0  0  0  0  0  0  0  0  0  0  0
  -21.9755  -23.1509   22.7849 C   0  0  0  0  0  0  0  0  0  0  0  0
  -25.5330  -17.7633   18.6926 C   0  0  0  0  0  0  0  0  0  0  0  0
  -24.0121  -15.9902   17.8029 C   0  0  0  0  0  0  0  0  0  0  0  0
  -27.4534  -28.0396   21.6515 C   0  0  0  0  0  0  0  0  0  0  0  0
  -26.5763  -30.9769   22.7121 C   0  0  0  0  0  0  0  0  0  0  0  0
  -24.0566  -33.1493   23.4731 C   0  0  0  0  0  0  0  0  0  0  0  0
  -27.5713  -21.6473   22.4707 C   0  0  0  0  0  0  0  0  0  0  0  0
  -31.6717  -25.8376   19.8037 C   0  0  0  0  0  0  0  0  0  0  0  0
  -25.8571  -28.7718   19.8427 C   0  0  0  0  0  0  0  0  0  0  0  0
  -24.7485  -29.2461   22.5428 C   0  0  0  0  0  0  0  0  0  0  0  0
  -31.3692  -27.0253   20.7136 C   0  0  0  0  0  0  0  0  0  0  0  0
  -29.7171  -19.9030   20.2280 C   0  0  0  0  0  0  0  0  0  0  0  0
  -30.3788  -26.6250   21.8025 C   0  0  0  0  0  0  0  0  0  0  0  0
  -28.8655  -18.7266   19.7475 C   0  0  0  0  0  0  0  0  0  0  0  0
  -29.4498  -20.2309   21.6954 C   0  0  0  0  0  0  0  0  0  0  0  0
  -27.1801  -19.2816   21.5503 C   0  0  0  0  0  0  0  0  0  0  0  0
  -29.0424  -26.1799   21.1962 C   0  0  1  0  0  0  0  0  0  0  0  0
  -26.7416  -29.1973   21.0106 C   0  0  1  0  0  0  0  0  0  0  0  0
  -27.3737  -18.9494   20.0609 C   0  0  2  0  0  0  0  0  0  0  0  0
  -23.6498  -35.4635   24.3541 C   0  0  0  0  0  0  0  0  0  0  0  0
  -27.2254  -30.0142   25.5338 C   0  0  0  0  0  0  0  0  0  0  0  0
  -25.9317  -31.9651   26.4219 C   0  0  0  0  0  0  0  0  0  0  0  0
  -27.9670  -32.3493   25.0318 C   0  0  0  0  0  0  0  0  0  0  0  0
  -21.1969  -21.6507   24.6443 C   0  0  0  0  0  0  0  0  0  0  0  0
  -22.6950  -33.9838   20.9814 C   0  0  0  0  0  0  0  0  0  0  0  0
  -25.5870  -22.9500   23.1953 C   0  0  0  0  0  0  0  0  0  0  0  0
  -20.5962  -23.4984   22.2845 C   0  0  0  0  0  0  0  0  0  0  0  0
  -19.9939  -24.7379   22.9496 C   0  0  0  0  0  0  0  0  0  0  0  0
  -20.8654  -25.9809   22.8117 C   0  0  0  0  0  0  0  0  0  1  0  0
  -25.8550  -31.5026   23.9297 C   0  0  1  0  0  0  0  0  0  0  0  0
  -23.8405  -34.6077   23.1115 C   0  0  2  0  0  0  0  0  0  0  0  0
  -26.7325  -31.4391   25.2116 C   0  0  0  0  0  0  0  0  0  0  0  0
  -26.7439  -16.5686   20.1939 N   0  0  0  0  0  0  0  0  0  0  0  0
  -23.4962  -22.1384   24.1303 N   0  0  0  0  0  0  0  0  0  0  0  0
  -22.1958  -22.3198   23.8436 N   0  0  0  0  0  0  0  0  0  0  0  0
  -26.5277  -17.7671   19.6257 N   0  0  0  0  0  0  0  0  0  0  0  0
  -25.9918  -29.8765   22.0693 N   0  0  0  0  0  0  0  0  0  0  0  0
  -28.0172  -20.4321   21.9253 N   0  0  0  0  0  0  0  0  0  0  0  0
  -25.1856  -18.8842   18.0252 N   0  0  0  0  0  0  0  0  0  0  0  0
  -23.6587  -14.6363   17.8828 N   0  0  0  0  0  0  0  0  0  0  0  0
  -28.2651  -27.3300   20.7871 N   0  0  0  0  0  0  0  0  0  0  0  0
  -25.3966  -32.8440   23.5851 N   0  0  0  0  0  0  0  0  0  0  0  0
  -26.1979  -21.7581   22.6502 N   0  0  0  0  0  0  0  0  0  0  0  0
  -22.6333  -34.7544   22.2500 N   0  3  0  0  0  0  0  0  0  0  0  0
  -23.4129  -16.7342   16.9899 O   0  0  0  0  0  0  0  0  0  0  0  0
  -27.2802  -27.8082   22.8423 O   0  0  0  0  0  0  0  0  0  0  0  0
  -27.6160  -31.5271   22.3407 O   0  0  0  0  0  0  0  0  0  0  0  0
  -23.1294  -32.3607   23.6430 O   0  0  0  0  0  0  0  0  0  0  0  0
  -28.3397  -22.5676   22.7701 O   0  0  0  0  0  0  0  0  0  0  0  0
  -25.5195  -10.3637   20.9352 O   0  0  0  0  0  0  0  0  0  0  0  0
  -21.0227  -26.2785   21.4250 O   0  0  0  0  0  0  0  0  0  1  0  0
  -20.4985   -8.2258   21.7244 F   0  0  0  0  0  0  0  0  0  0  0  0
  -24.8204   -9.2443   23.3644 F   0  0  0  0  0  0  0  0  0  0  0  0
  1  2  1  0  0  0  0
  1  5  2  0  0  0  0
  2  6  2  0  0  0  0
  3  8  2  0  0  0  0
  3 16  1  0  0  0  0
  4  9  1  0  0  0  0
  4 16  2  0  0  0  0
  5 18  1  0  0  0  0
  6 20  1  0  0  0  0
  7 10  2  0  0  0  0
  7 19  1  0  0  0  0
  8 22  1  0  0  0  0
  9 22  2  0  0  0  0
 10 23  1  0  0  0  0
 11 12  2  0  0  0  0
 11 24  1  0  0  0  0
 12 25  1  0  0  0  0
 13 21  1  0  0  0  0
 13 23  2  0  0  0  0
 14 25  2  0  0  0  0
 14 26  1  0  0  0  0
 15 28  1  0  0  0  0
 15 29  2  0  0  0  0
 16 27  1  0  0  0  0
 17 27  1  0  0  0  0
 17 30  2  0  0  0  0
 17 31  1  0  0  0  0
 18 20  2  0  0  0  0
 18 36  1  0  0  0  0
 19 21  2  0  0  0  0
 19 37  1  0  0  0  0
 20 45  1  0  0  0  0
 21 38  1  0  0  0  0
 22 78  1  0  0  0  0
 23 79  1  0  0  0  0
 24 26  2  0  0  0  0
 24 78  1  0  0  0  0
 25 80  1  0  0  0  0
 26 81  1  0  0  0  0
 27 61  2  0  0  0  0
 28 54  1  0  0  0  0
 28 62  2  0  0  0  0
 29 55  1  0  0  0  0
 29 63  1  0  0  0  0
 30 64  1  0  0  0  0
 30 67  1  0  0  0  0
 31 68  1  0  0  0  0
 31 73  2  0  0  0  0
 32 46  1  0  0  0  0
 32 69  1  0  0  0  0
 32 74  2  0  0  0  0
 33 58  1  0  0  0  0
 33 65  1  0  0  0  0
 33 75  2  0  0  0  0
 34 59  1  0  0  0  0
 34 70  1  0  0  0  0
 34 76  2  0  0  0  0
 35 66  1  0  0  0  0
 35 71  1  0  0  0  0
 35 77  2  0  0  0  0
 36 39  1  0  0  0  0
 37 46  1  0  0  0  0
 38 65  1  0  0  0  0
 39 41  1  0  0  0  0
 40 42  1  0  0  0  0
 40 43  1  0  0  0  0
 41 45  1  0  0  0  0
 42 47  1  0  0  0  0
 43 66  1  0  0  0  0
 44 47  1  0  0  0  0
 44 66  1  0  0  0  0
 45 69  1  0  0  0  0
 46 65  1  0  0  0  0
 47 64  1  0  0  0  0
 48 59  1  0  0  0  0
 49 60  1  0  0  0  0
 50 60  1  0  0  0  0
 51 60  1  0  0  0  0
 52 63  1  0  0  0  0
 53 72  1  0  0  0  0
 54 71  1  0  0  0  0
 55 56  1  0  0  0  0
 56 57  1  0  0  0  0
 57 79  1  0  0  0  0
 58 60  1  0  0  0  0
 58 70  1  0  0  0  0
 59 72  1  0  0  0  0
 61 64  1  0  0  0  0
 62 63  1  0  0  0  0
M  CHG  1  72   1
M  ISO  4  35 100  57 101  71 100  79 101
M  END
> <Batch ID>
0033

> <Smiles>
CNC(C)C(=O)NC(C(=O)N1Cc2cc([101O:1][101CH2:1]CCc3cc(C[100NH:0][100C:0](=O)N4CCCC(n5nc(-c6ccc(Oc7ccc(F)cc7F)cc6)c(C(N)=O)c5N)C4)nn3C)ccc2CC1C(=O)NC1CCCc2ccccc21)C(C)(C)C

> <Shape>
0.283

> <Color>
0.076

> <Negative vol penalty>
0.000

$$$$

  -OEChem-04052316483D

 91 99  0     1  0  0  0  0  0999 V2000
  -28.6772  -34.0775   21.3694 C   0  0  0  0  0  0  0  0  0  0  0  0
  -27.6707  -33.2383   20.9024 C   0  0  0  0  0  0  0  0  0  0  0  0
  -23.0986   -9.8138   21.5412 C   0  0  0  0  0  0  0  0  0  0  0  0
  -23.8135  -10.8317   23.6123 C   0  0  0  0  0  0  0  0  0  0  0  0
  -29.9603  -33.5747   21.5808 C   0  0  0  0  0  0  0  0  0  0  0  0
  -27.9470  -31.8959   20.6455 C   0  0  0  0  0  0  0  0  0  0  0  0
  -24.3725  -28.7965   22.4512 C   0  0  0  0  0  0  0  0  0  0  0  0
  -22.3747   -8.8617   22.2589 C   0  0  0  0  0  0  0  0  0  0  0  0
  -23.0896   -9.8797   24.3301 C   0  0  0  0  0  0  0  0  0  0  0  0
  -23.1934  -28.6872   21.7152 C   0  0  0  0  0  0  0  0  0  0  0  0
  -20.6296   -5.9459   23.5536 C   0  0  0  0  0  0  0  0  0  0  0  0
  -20.7330   -4.6136   23.1539 C   0  0  0  0  0  0  0  0  0  0  0  0
  -23.9861  -26.6169   20.7641 C   0  0  0  0  0  0  0  0  0  0  0  0
  -19.4679  -23.1527   21.2515 C   0  0  0  0  0  0  0  0  0  0  0  0
  -18.8765  -25.4363   21.7733 C   0  0  0  0  0  0  0  0  0  0  0  0
  -20.0302  -24.9280   19.7123 C   0  0  0  0  0  0  0  0  0  0  0  0
  -23.1137   -4.6763   23.5608 C   0  0  0  0  0  0  0  0  0  0  0  0
  -23.8180  -10.7988   22.2178 C   0  0  0  0  0  0  0  0  0  0  0  0
  -24.1082  -13.0327   21.0207 C   0  0  0  0  0  0  0  0  0  0  0  0
  -30.2501  -32.2232   21.3355 C   0  0  0  0  0  0  0  0  0  0  0  0
  -25.3735  -27.8207   22.3407 C   0  0  0  0  0  0  0  0  0  0  0  0
  -29.2356  -31.3748   20.8525 C   0  0  0  0  0  0  0  0  0  0  0  0
  -25.1759  -26.7148   21.5017 C   0  0  0  0  0  0  0  0  0  0  0  0
  -18.8863  -24.0833   22.1125 C   0  0  0  0  0  0  0  0  0  0  0  0
  -20.0400  -23.5750   20.0515 C   0  0  0  0  0  0  0  0  0  0  0  0
  -19.4485  -25.8586   20.5732 C   0  0  0  0  0  0  0  0  0  0  0  0
  -22.3702   -8.8947   23.6534 C   0  0  0  0  0  0  0  0  0  0  0  0
  -23.0013  -27.5988   20.8693 C   0  0  0  0  0  0  0  0  0  0  0  0
  -21.7682   -6.6435   23.9568 C   0  0  0  0  0  0  0  0  0  0  0  0
  -21.9750   -3.9787   23.1575 C   0  0  0  0  0  0  0  0  0  0  0  0
  -23.0103   -6.0087   23.9604 C   0  0  0  0  0  0  0  0  0  0  0  0
  -24.5664  -11.7822   21.4770 C   0  0  0  0  0  0  0  0  0  0  0  0
  -25.1910  -13.5815   20.3782 C   0  0  0  0  0  0  0  0  0  0  0  0
  -22.8192  -13.6436   21.1649 C   0  0  0  0  0  0  0  0  0  0  0  0
  -28.4016  -27.8132   21.3741 C   0  0  0  0  0  0  0  0  0  0  0  0
  -28.3219  -24.7453   22.4250 C   0  0  0  0  0  0  0  0  0  0  0  0
  -26.4607  -21.9767   23.1440 C   0  0  0  0  0  0  0  0  0  0  0  0
  -30.6471  -14.7329   20.1529 C   0  0  0  0  0  0  0  0  0  0  0  0
  -31.6637  -31.7363   21.5338 C   0  0  0  0  0  0  0  0  0  0  0  0
  -26.6283  -27.9395   23.1616 C   0  0  0  0  0  0  0  0  0  0  0  0
  -26.2111  -25.6296   21.3629 C   0  0  0  0  0  0  0  0  0  0  0  0
  -31.7813  -30.2155   21.5939 C   0  0  0  0  0  0  0  0  0  0  0  0
  -29.6071  -11.5209   19.0223 C   0  0  0  0  0  0  0  0  0  0  0  0
  -30.9818  -29.5732   20.4647 C   0  0  0  0  0  0  0  0  0  0  0  0
  -28.1681  -11.4034   19.5278 C   0  0  0  0  0  0  0  0  0  0  0  0
  -30.4959  -12.2640   20.0173 C   0  0  0  0  0  0  0  0  0  0  0  0
  -28.5524  -13.4696   20.9357 C   0  0  0  0  0  0  0  0  0  0  0  0
  -29.4901  -29.9071   20.5857 C   0  0  1  0  0  0  0  0  0  0  0  0
  -27.7989  -27.1519   22.5812 C   0  0  1  0  0  0  0  0  0  0  0  0
  -27.6052  -12.7766   19.9412 C   0  0  2  0  0  0  0  0  0  0  0  0
  -18.2745  -23.6310   23.3953 C   0  0  0  0  0  0  0  0  0  0  0  0
  -26.6803  -19.6099   23.9489 C   0  0  0  0  0  0  0  0  0  0  0  0
  -29.3528  -23.9092   19.6776 C   0  0  0  0  0  0  0  0  0  0  0  0
  -28.6548  -21.5638   20.2065 C   0  0  0  0  0  0  0  0  0  0  0  0
  -30.3926  -22.6897   21.5975 C   0  0  0  0  0  0  0  0  0  0  0  0
  -24.7900  -22.5098   25.5280 C   0  0  0  0  0  0  0  0  0  0  0  0
  -20.6686  -22.5694   19.1202 C   0  0  0  0  0  0  0  0  0  0  0  0
  -19.4379  -27.3055   20.2110 C   0  0  0  0  0  0  0  0  0  0  0  0
  -22.1589  -22.3273   19.3846 C   0  0  0  0  0  0  0  0  0  0  0  0
  -22.7756  -21.2934   18.4373 C   0  0  0  0  0  0  0  0  0  0  0  0
  -24.2538  -21.0612   18.7570 C   0  0  0  0  0  0  0  0  0  0  0  0
  -24.8797  -20.0534   17.7915 C   0  0  0  0  0  0  0  0  0  0  0  0
  -26.3663  -19.8461   18.0897 C   0  0  0  0  0  0  0  0  0  0  0  0
  -26.9810  -18.8102   17.1465 C   0  0  0  0  0  0  0  0  0  0  0  0
  -28.4728  -18.5677   17.3951 C   0  0  0  0  0  0  0  0  0  0  0  0
  -28.8375  -17.9991   18.7697 C   0  0  0  0  0  0  0  0  0  0  0  0
  -30.3406  -17.7999   18.9675 C   0  0  0  0  0  0  0  0  0  0  0  0
  -30.6431  -17.2076   20.3390 C   0  0  0  0  0  0  0  0  0  0  0  0
  -20.6727  -28.0573   20.7170 C   0  0  0  0  0  0  0  0  0  1  0  0
  -27.9787  -23.4118   21.8061 C   0  0  1  0  0  0  0  0  0  0  0  0
  -26.4475  -21.0577   24.3522 C   0  0  2  0  0  0  0  0  0  0  0  0
  -29.0759  -22.9149   20.8228 C   0  0  0  0  0  0  0  0  0  0  0  0
  -25.8409  -11.5500   21.1517 N   0  0  0  0  0  0  0  0  0  0  0  0
  -26.1928  -12.6621   20.4842 N   0  0  0  0  0  0  0  0  0  0  0  0
  -27.4237  -25.7941   22.1814 N   0  0  0  0  0  0  0  0  0  0  0  0
  -29.9064  -13.5587   20.3669 N   0  0  0  0  0  0  0  0  0  0  0  0
  -25.3744  -14.7560   19.7385 N   0  0  0  0  0  0  0  0  0  0  0  0
  -21.8205  -12.9418   21.8537 N   0  0  0  0  0  0  0  0  0  0  0  0
  -28.8709  -29.0916   21.6084 N   0  0  0  0  0  0  0  0  0  0  0  0
  -27.7147  -22.5025   22.9160 N   0  0  0  0  0  0  0  0  0  0  0  0
  -30.0121  -15.9174   20.5056 N   0  0  0  0  0  0  0  0  0  0  0  0
  -25.1363  -21.1448   25.0551 N   0  3  0  0  0  0  0  0  0  0  0  0
  -22.5557  -14.7712   20.6826 O   0  0  0  0  0  0  0  0  0  0  0  0
  -28.4395  -27.2078   20.3093 O   0  0  0  0  0  0  0  0  0  0  0  0
  -29.3453  -24.8507   23.1055 O   0  0  0  0  0  0  0  0  0  0  0  0
  -25.4595  -22.2023   22.4678 O   0  0  0  0  0  0  0  0  0  0  0  0
  -31.7877  -14.7264   19.6775 O   0  0  0  0  0  0  0  0  0  0  0  0
  -21.6638   -7.9659   24.3541 O   0  0  0  0  0  0  0  0  0  0  0  0
  -21.8436  -27.4892   20.1443 O   0  0  0  0  0  0  0  0  0  1  0  0
  -22.0739   -2.6988   22.7751 F   0  0  0  0  0  0  0  0  0  0  0  0
  -24.1075   -6.6733   24.3479 F   0  0  0  0  0  0  0  0  0  0  0  0
  1  2  1  0  0  0  0
  1  5  2  0  0  0  0
  2  6  2  0  0  0  0
  3  8  2  0  0  0  0
  3 18  1  0  0  0  0
  4  9  1  0  0  0  0
  4 18  2  0  0  0  0
  5 20  1  0  0  0  0
  6 22  1  0  0  0  0
  7 10  2  0  0  0  0
  7 21  1  0  0  0  0
  8 27  1  0  0  0  0
  9 27  2  0  0  0  0
 10 28  1  0  0  0  0
 11 12  2  0  0  0  0
 11 29  1  0  0  0  0
 12 30  1  0  0  0  0
 13 23  1  0  0  0  0
 13 28  2  0  0  0  0
 14 24  1  0  0  0  0
 14 25  2  0  0  0  0
 15 24  2  0  0  0  0
 15 26  1  0  0  0  0
 16 25  1  0  0  0  0
 16 26  2  0  0  0  0
 17 30  2  0  0  0  0
 17 31  1  0  0  0  0
 18 32  1  0  0  0  0
 19 32  1  0  0  0  0
 19 33  2  0  0  0  0
 19 34  1  0  0  0  0
 20 22  2  0  0  0  0
 20 39  1  0  0  0  0
 21 23  2  0  0  0  0
 21 40  1  0  0  0  0
 22 48  1  0  0  0  0
 23 41  1  0  0  0  0
 24 51  1  0  0  0  0
 25 57  1  0  0  0  0
 26 58  1  0  0  0  0
 27 88  1  0  0  0  0
 28 89  1  0  0  0  0
 29 31  2  0  0  0  0
 29 88  1  0  0  0  0
 30 90  1  0  0  0  0
 31 91  1  0  0  0  0
 32 73  2  0  0  0  0
 33 74  1  0  0  0  0
 33 77  1  0  0  0  0
 34 78  1  0  0  0  0
 34 83  2  0  0  0  0
 35 49  1  0  0  0  0
 35 79  1  0  0  0  0
 35 84  2  0  0  0  0
 36 70  1  0  0  0  0
 36 75  1  0  0  0  0
 36 85  2  0  0  0  0
 37 71  1  0  0  0  0
 37 80  1  0  0  0  0
 37 86  2  0  0  0  0
 38 76  1  0  0  0  0
 38 81  1  0  0  0  0
 38 87  2  0  0  0  0
 39 42  1  0  0  0  0
 40 49  1  0  0  0  0
 41 75  1  0  0  0  0
 42 44  1  0  0  0  0
 43 45  1  0  0  0  0
 43 46  1  0  0  0  0
 44 48  1  0  0  0  0
 45 50  1  0  0  0  0
 46 76  1  0  0  0  0
 47 50  1  0  0  0  0
 47 76  1  0  0  0  0
 48 79  1  0  0  0  0
 49 75  1  0  0  0  0
 50 74  1  0  0  0  0
 52 71  1  0  0  0  0
 53 72  1  0  0  0  0
 54 72  1  0  0  0  0
 55 72  1  0  0  0  0
 56 82  1  0  0  0  0
 57 59  1  0  0  0  0
 58 69  1  0  0  0  0
 59 60  1  0  0  0  0
 60 61  1  0  0  0  0
 61 62  1  0  0  0  0
 62 63  1  0  0  0  0
 63 64  1  0  0  0  0
 64 65  1  0  0  0  0
 65 66  1  0  0  0  0
 66 67  1  0  0  0  0
 67 68  1  0  0  0  0
 68 81  1  0  0  0  0
 69 89  1  0  0  0  0
 70 72  1  0  0  0  0
 70 80  1  0  0  0  0
 71 82  1  0  0  0  0
 73 74  1  0  0  0  0
M  CHG  1  82   1
M  ISO  4  38 100  69 101  81 100  89 101
M  END
> <Batch ID>
0033

> <Smiles>
CNC(C)C(=O)NC(C(=O)N1Cc2cc([101O:1][101CH2:1]Cc3cc(C)cc(CCCCCCCCCCC[100NH:0][100C:0](=O)N4CCCC(n5nc(-c6ccc(Oc7ccc(F)cc7F)cc6)c(C(N)=O)c5N)C4)c3)ccc2CC1C(=O)NC1CCCc2ccccc21)C(C)(C)C

> <Shape>
0.238

> <Color>
0.171

> <Negative vol penalty>
0.000

$$$$

  -OEChem-04052316483D

 87 95  0     1  0  0  0  0  0999 V2000
  -18.5449  -32.7262   20.3681 C   0  0  0  0  0  0  0  0  0  0  0  0
  -19.8187  -32.3842   19.9255 C   0  0  0  0  0  0  0  0  0  0  0  0
  -25.1910  -16.0526   21.5989 C   0  0  0  0  0  0  0  0  0  0  0  0
  -25.1551  -15.9380   19.1859 C   0  0  0  0  0  0  0  0  0  0  0  0
  -18.1460  -32.3961   21.6626 C   0  0  0  0  0  0  0  0  0  0  0  0
  -20.6948  -31.7128   20.7777 C   0  0  0  0  0  0  0  0  0  0  0  0
  -24.8391  -27.4850   19.2105 C   0  0  0  0  0  0  0  0  0  0  0  0
  -23.9707  -15.3788   21.6490 C   0  0  0  0  0  0  0  0  0  0  0  0
  -23.9348  -15.2642   19.2360 C   0  0  0  0  0  0  0  0  0  0  0  0
  -26.2122  -27.5576   18.9802 C   0  0  0  0  0  0  0  0  0  0  0  0
  -21.0417  -13.3703   22.4249 C   0  0  0  0  0  0  0  0  0  0  0  0
  -20.9096  -12.3360   23.3514 C   0  0  0  0  0  0  0  0  0  0  0  0
  -26.6240  -26.8569   21.2515 C   0  0  0  0  0  0  0  0  0  0  0  0
  -32.8450  -25.6109   19.0449 C   0  0  0  0  0  0  0  0  0  0  0  0
  -31.2787  -27.7153   18.0958 C   0  0  0  0  0  0  0  0  0  0  0  0
  -22.7374  -11.1587   22.2977 C   0  0  0  0  0  0  0  0  0  0  0  0
  -25.7832  -16.3323   20.3673 C   0  0  0  0  0  0  0  0  0  0  0  0
  -28.3306  -16.4589   20.3226 C   0  0  0  0  0  0  0  0  0  0  0  0
  -19.0142  -31.7118   22.5279 C   0  0  0  0  0  0  0  0  0  0  0  0
  -24.3473  -27.1077   20.4684 C   0  0  0  0  0  0  0  0  0  0  0  0
  -20.3076  -31.3745   22.0855 C   0  0  0  0  0  0  0  0  0  0  0  0
  -25.2442  -26.7778   21.4944 C   0  0  0  0  0  0  0  0  0  0  0  0
  -32.1214  -26.4000   19.9389 C   0  0  0  0  0  0  0  0  0  0  0  0
  -32.7856  -25.8741   17.6764 C   0  0  0  0  0  0  0  0  0  0  0  0
  -31.3382  -27.4522   19.4644 C   0  0  0  0  0  0  0  0  0  0  0  0
  -23.3426  -14.9846   20.4676 C   0  0  0  0  0  0  0  0  0  0  0  0
  -27.1049  -27.2463   20.0017 C   0  0  0  0  0  0  0  0  0  0  0  0
  -22.0216  -13.2988   21.4348 C   0  0  0  0  0  0  0  0  0  0  0  0
  -21.7574  -11.2303   23.2878 C   0  0  0  0  0  0  0  0  0  0  0  0
  -22.8695  -12.1930   21.3712 C   0  0  0  0  0  0  0  0  0  0  0  0
  -32.0025  -26.9262   17.2018 C   0  0  0  0  0  0  0  0  0  0  0  0
  -27.0434  -17.0288   20.3148 C   0  0  0  0  0  0  0  0  0  0  0  0
  -29.1826  -17.5342   20.2580 C   0  0  0  0  0  0  0  0  0  0  0  0
  -28.7213  -15.0806   20.3826 C   0  0  0  0  0  0  0  0  0  0  0  0
  -22.5647  -28.5129   22.6936 C   0  0  0  0  0  0  0  0  0  0  0  0
  -22.7037  -25.5909   24.0955 C   0  0  0  0  0  0  0  0  0  0  0  0
  -24.3538  -22.6253   24.4545 C   0  0  0  0  0  0  0  0  0  0  0  0
  -28.5655  -23.1045   18.1503 C   0  0  0  0  0  0  0  0  0  0  0  0
  -18.5551  -31.4183   23.9342 C   0  0  0  0  0  0  0  0  0  0  0  0
  -22.8633  -27.0084   20.6927 C   0  0  0  0  0  0  0  0  0  0  0  0
  -24.7673  -26.3476   22.8567 C   0  0  0  0  0  0  0  0  0  0  0  0
  -19.4103  -30.3752   24.6489 C   0  0  0  0  0  0  0  0  0  0  0  0
  -29.4763  -22.1562   21.4590 C   0  0  0  0  0  0  0  0  0  0  0  0
  -20.8929  -30.6769   24.4554 C   0  0  0  0  0  0  0  0  0  0  0  0
  -29.0722  -20.6831   21.5417 C   0  0  0  0  0  0  0  0  0  0  0  0
  -28.4885  -22.9663   20.6224 C   0  0  0  0  0  0  0  0  0  0  0  0
  -27.8318  -20.9577   19.3543 C   0  0  0  0  0  0  0  0  0  0  0  0
  -21.2777  -30.6240   22.9720 C   0  0  1  0  0  0  0  0  0  0  0  0
  -22.4734  -27.1096   22.1642 C   0  0  1  0  0  0  0  0  0  0  0  0
  -28.8281  -20.0892   20.1413 C   0  0  2  0  0  0  0  0  0  0  0  0
  -32.2014  -26.1018   21.4002 C   0  0  0  0  0  0  0  0  0  0  0  0
  -24.2461  -20.4492   25.6996 C   0  0  0  0  0  0  0  0  0  0  0  0
  -23.7065  -26.9867   26.6166 C   0  0  0  0  0  0  0  0  0  0  0  0
  -24.4690  -24.7574   27.4635 C   0  0  0  0  0  0  0  0  0  0  0  0
  -22.0467  -25.1611   27.0250 C   0  0  0  0  0  0  0  0  0  0  0  0
  -24.1301  -21.0686   21.9474 C   0  0  0  0  0  0  0  0  0  0  0  0
  -33.5759  -25.0055   16.7517 C   0  0  0  0  0  0  0  0  0  0  0  0
  -30.5487  -28.3211   20.4131 C   0  0  0  0  0  0  0  0  0  0  0  0
  -32.9574  -23.6192   16.5026 C   0  0  0  0  0  0  0  0  0  0  0  0
  -31.5887  -23.6930   15.8183 C   0  0  0  0  0  0  0  0  0  0  0  0
  -31.0197  -22.2947   15.5646 C   0  0  0  0  0  0  0  0  0  0  0  0
  -29.6696  -22.3677   14.8452 C   0  0  0  0  0  0  0  0  0  0  0  0
  -28.6047  -23.0841   15.6689 C   0  0  0  0  0  0  0  0  0  0  0  0
  -29.2726  -27.6409   20.8968 C   0  0  0  0  0  0  0  0  0  1  0  0
  -23.6359  -24.9178   25.0737 C   0  0  1  0  0  0  0  0  0  0  0  0
  -23.8622  -21.1893   24.4278 C   0  0  2  0  0  0  0  0  0  0  0  0
  -23.4738  -25.4657   26.5197 C   0  0  0  0  0  0  0  0  0  0  0  0
  -27.0704  -18.3626   20.2506 N   0  0  0  0  0  0  0  0  0  0  0  0
  -28.3850  -18.6398   20.2175 N   0  0  0  0  0  0  0  0  0  0  0  0
  -23.3071  -26.2720   23.0287 N   0  0  0  0  0  0  0  0  0  0  0  0
  -28.3027  -22.3508   19.3061 N   0  0  0  0  0  0  0  0  0  0  0  0
  -30.5288  -17.6325   20.2326 N   0  0  0  0  0  0  0  0  0  0  0  0
  -27.7180  -14.1039   20.4446 N   0  0  0  0  0  0  0  0  0  0  0  0
  -21.4079  -29.2514   22.5323 N   0  0  0  0  0  0  0  0  0  0  0  0
  -23.3946  -23.4845   24.9473 N   0  0  0  0  0  0  0  0  0  0  0  0
  -28.3701  -22.4434   16.9438 N   0  0  0  0  0  0  0  0  0  0  0  0
  -24.4481  -20.4627   23.2660 N   0  3  0  0  0  0  0  0  0  0  0  0
  -29.9246  -14.7266   20.3979 O   0  0  0  0  0  0  0  0  0  0  0  0
  -23.6069  -28.8966   23.2114 O   0  0  0  0  0  0  0  0  0  0  0  0
  -21.4849  -25.5093   24.2674 O   0  0  0  0  0  0  0  0  0  0  0  0
  -25.4779  -22.9516   24.0794 O   0  0  0  0  0  0  0  0  0  0  0  0
  -28.9511  -24.2778   18.1906 O   0  0  0  0  0  0  0  0  0  0  0  0
  -22.1520  -14.3268   20.5162 O   0  0  0  0  0  0  0  0  0  0  0  0
  -28.4457  -27.3170   19.7798 O   0  0  0  0  0  0  0  0  0  1  0  0
  -21.6315  -10.2378   24.1785 F   0  0  0  0  0  0  0  0  0  0  0  0
  -23.8135  -12.1193   20.4230 F   0  0  0  0  0  0  0  0  0  0  0  0
  -31.9046  -27.2819   15.5156 Cl  0  0  0  0  0  0  0  0  0  0  0  0
  1  2  1  0  0  0  0
  1  5  2  0  0  0  0
  2  6  2  0  0  0  0
  3  8  2  0  0  0  0
  3 17  1  0  0  0  0
  4  9  1  0  0  0  0
  4 17  2  0  0  0  0
  5 19  1  0  0  0  0
  6 21  1  0  0  0  0
  7 10  2  0  0  0  0
  7 20  1  0  0  0  0
  8 26  1  0  0  0  0
  9 26  2  0  0  0  0
 10 27  1  0  0  0  0
 11 12  2  0  0  0  0
 11 28  1  0  0  0  0
 12 29  1  0  0  0  0
 13 22  1  0  0  0  0
 13 27  2  0  0  0  0
 14 23  1  0  0  0  0
 14 24  2  0  0  0  0
 15 25  1  0  0  0  0
 15 31  2  0  0  0  0
 16 29  2  0  0  0  0
 16 30  1  0  0  0  0
 17 32  1  0  0  0  0
 18 32  1  0  0  0  0
 18 33  2  0  0  0  0
 18 34  1  0  0  0  0
 19 21  2  0  0  0  0
 19 39  1  0  0  0  0
 20 22  2  0  0  0  0
 20 40  1  0  0  0  0
 21 48  1  0  0  0  0
 22 41  1  0  0  0  0
 23 25  2  0  0  0  0
 23 51  1  0  0  0  0
 24 31  1  0  0  0  0
 24 57  1  0  0  0  0
 25 58  1  0  0  0  0
 26 83  1  0  0  0  0
 27 84  1  0  0  0  0
 28 30  2  0  0  0  0
 28 83  1  0  0  0  0
 29 85  1  0  0  0  0
 30 86  1  0  0  0  0
 31 87  1  0  0  0  0
 32 68  2  0  0  0  0
 33 69  1  0  0  0  0
 33 72  1  0  0  0  0
 34 73  1  0  0  0  0
 34 78  2  0  0  0  0
 35 49  1  0  0  0  0
 35 74  1  0  0  0  0
 35 79  2  0  0  0  0
 36 65  1  0  0  0  0
 36 70  1  0  0  0  0
 36 80  2  0  0  0  0
 37 66  1  0  0  0  0
 37 75  1  0  0  0  0
 37 81  2  0  0  0  0
 38 71  1  0  0  0  0
 38 76  1  0  0  0  0
 38 82  2  0  0  0  0
 39 42  1  0  0  0  0
 40 49  1  0  0  0  0
 41 70  1  0  0  0  0
 42 44  1  0  0  0  0
 43 45  1  0  0  0  0
 43 46  1  0  0  0  0
 44 48  1  0  0  0  0
 45 50  1  0  0  0  0
 46 71  1  0  0  0  0
 47 50  1  0  0  0  0
 47 71  1  0  0  0  0
 48 74  1  0  0  0  0
 49 70  1  0  0  0  0
 50 69  1  0  0  0  0
 52 66  1  0  0  0  0
 53 67  1  0  0  0  0
 54 67  1  0  0  0  0
 55 67  1  0  0  0  0
 56 77  1  0  0  0  0
 57 59  1  0  0  0  0
 58 64  1  0  0  0  0
 59 60  1  0  0  0  0
 60 61  1  0  0  0  0
 61 62  1  0  0  0  0
 62 63  1  0  0  0  0
 63 76  1  0  0  0  0
 64 84  1  0  0  0  0
 65 67  1  0  0  0  0
 65 75  1  0  0  0  0
 66 77  1  0  0  0  0
 68 69  1  0  0  0  0
M  CHG  1  77   1
M  ISO  4  38 100  64 101  76 100  84 101
M  END
> <Batch ID>
0033

> <Smiles>
CNC(C)C(=O)NC(C(=O)N1Cc2cc([101O:1][101CH2:1]Cc3cc(Cl)c(CCCCCC[100NH:0][100C:0](=O)N4CCCC(n5nc(-c6ccc(Oc7ccc(F)cc7F)cc6)c(C(N)=O)c5N)C4)cc3C)ccc2CC1C(=O)NC1CCCc2ccccc21)C(C)(C)C

> <Shape>
0.214

> <Color>
0.096

> <Negative vol penalty>
0.000

$$$$

  -OEChem-04052316483D

 81 89  0     1  0  0  0  0  0999 V2000
  -27.4674  -31.5296   20.4920 C   0  0  0  0  0  0  0  0  0  0  0  0
  -27.6671  -30.1530   20.4705 C   0  0  0  0  0  0  0  0  0  0  0  0
  -23.0987   -9.8391   19.9324 C   0  0  0  0  0  0  0  0  0  0  0  0
  -23.8697   -9.8435   22.2221 C   0  0  0  0  0  0  0  0  0  0  0  0
  -26.7616  -32.1466   19.4599 C   0  0  0  0  0  0  0  0  0  0  0  0
  -27.1603  -29.3924   19.4174 C   0  0  0  0  0  0  0  0  0  0  0  0
  -30.5065  -26.0148   17.6740 C   0  0  0  0  0  0  0  0  0  0  0  0
  -22.3796   -8.6692   20.1767 C   0  0  0  0  0  0  0  0  0  0  0  0
  -23.1505   -8.6736   22.4665 C   0  0  0  0  0  0  0  0  0  0  0  0
  -30.6836  -24.8505   18.4202 C   0  0  0  0  0  0  0  0  0  0  0  0
  -19.9421   -7.8059   23.0781 C   0  0  0  0  0  0  0  0  0  0  0  0
  -19.1920   -7.7415   24.2523 C   0  0  0  0  0  0  0  0  0  0  0  0
  -29.2444  -23.6603   16.8933 C   0  0  0  0  0  0  0  0  0  0  0  0
  -31.3623  -18.5612   20.0756 C   0  0  0  0  0  0  0  0  0  0  0  0
  -29.1488  -18.7501   21.0251 C   0  0  0  0  0  0  0  0  0  0  0  0
  -20.4759   -5.8238   24.9673 C   0  0  0  0  0  0  0  0  0  0  0  0
  -23.8439  -10.4262   20.9551 C   0  0  0  0  0  0  0  0  0  0  0  0
  -24.1341  -12.9586   20.8535 C   0  0  0  0  0  0  0  0  0  0  0  0
  -26.2542  -31.3945   18.3887 C   0  0  0  0  0  0  0  0  0  0  0  0
  -29.6869  -26.0133   16.5362 C   0  0  0  0  0  0  0  0  0  0  0  0
  -26.4460  -29.9998   18.3707 C   0  0  0  0  0  0  0  0  0  0  0  0
  -29.0606  -24.8253   16.1330 C   0  0  0  0  0  0  0  0  0  0  0  0
  -30.3972  -18.1293   20.9854 C   0  0  0  0  0  0  0  0  0  0  0  0
  -31.0789  -19.6140   19.2056 C   0  0  0  0  0  0  0  0  0  0  0  0
  -29.8305  -20.2348   19.2453 C   0  0  0  0  0  0  0  0  0  0  0  0
  -22.4054   -8.0865   21.4438 C   0  0  0  0  0  0  0  0  0  0  0  0
  -30.0502  -23.6737   18.0315 C   0  0  0  0  0  0  0  0  0  0  0  0
  -20.9591   -6.8793   22.8485 C   0  0  0  0  0  0  0  0  0  0  0  0
  -19.4588   -6.7505   25.1969 C   0  0  0  0  0  0  0  0  0  0  0  0
  -21.2260   -5.8883   23.7931 C   0  0  0  0  0  0  0  0  0  0  0  0
  -28.8654  -19.8029   20.1550 C   0  0  0  0  0  0  0  0  0  0  0  0
  -24.5875  -11.6344   20.7031 C   0  0  0  0  0  0  0  0  0  0  0  0
  -25.2091  -13.7329   20.4909 C   0  0  0  0  0  0  0  0  0  0  0  0
  -22.8555  -13.4453   21.2826 C   0  0  0  0  0  0  0  0  0  0  0  0
  -27.0191  -27.5208   15.6914 C   0  0  0  0  0  0  0  0  0  0  0  0
  -27.5661  -26.0727   12.8407 C   0  0  0  0  0  0  0  0  0  0  0  0
  -29.0237  -23.5062   11.1273 C   0  0  0  0  0  0  0  0  0  0  0  0
  -30.6720  -14.8611   20.6610 C   0  0  0  0  0  0  0  0  0  0  0  0
  -25.4570  -32.0995   17.3200 C   0  0  0  0  0  0  0  0  0  0  0  0
  -29.5275  -27.2711   15.7269 C   0  0  0  0  0  0  0  0  0  0  0  0
  -28.1866  -24.7659   14.9078 C   0  0  0  0  0  0  0  0  0  0  0  0
  -25.2758  -31.2723   16.0499 C   0  0  0  0  0  0  0  0  0  0  0  0
  -29.5709  -12.4729   18.2609 C   0  0  0  0  0  0  0  0  0  0  0  0
  -24.8572  -29.8470   16.3964 C   0  0  0  0  0  0  0  0  0  0  0  0
  -28.1419  -12.1468   18.6983 C   0  0  0  0  0  0  0  0  0  0  0  0
  -30.4893  -12.7028   19.4590 C   0  0  0  0  0  0  0  0  0  0  0  0
  -28.5801  -13.3843   20.8605 C   0  0  0  0  0  0  0  0  0  0  0  0
  -25.9330  -29.1439   17.2330 C   0  0  1  0  0  0  0  0  0  0  0  0
  -28.2596  -27.2791   14.8787 C   0  0  1  0  0  0  0  0  0  0  0  0
  -27.6039  -13.1993   19.6862 C   0  0  2  0  0  0  0  0  0  0  0  0
  -32.1320  -20.0566   18.2427 C   0  0  0  0  0  0  0  0  0  0  0  0
  -29.2623  -22.5679    8.8122 C   0  0  0  0  0  0  0  0  0  0  0  0
  -24.7254  -24.9700   12.9976 C   0  0  0  0  0  0  0  0  0  0  0  0
  -25.3394  -23.3262   11.2117 C   0  0  0  0  0  0  0  0  0  0  0  0
  -25.4091  -25.7728   10.7299 C   0  0  0  0  0  0  0  0  0  0  0  0
  -31.9636  -23.8445   11.1679 C   0  0  0  0  0  0  0  0  0  0  0  0
  -30.7006  -17.0028   21.9146 C   0  0  0  0  0  0  0  0  0  0  0  0
  -29.5421  -21.3663   18.3029 C   0  0  0  0  0  0  0  0  0  1  0  0
  -27.1779  -24.7522   12.2205 C   0  0  1  0  0  0  0  0  0  0  0  0
  -29.8638  -23.4880    9.8631 C   0  0  2  0  0  0  0  0  0  0  0  0
  -25.6778  -24.7066   11.8142 C   0  0  0  0  0  0  0  0  0  0  0  0
  -25.8519  -11.5674   20.2780 N   0  0  0  0  0  0  0  0  0  0  0  0
  -26.2022  -12.8593   20.1581 N   0  0  0  0  0  0  0  0  0  0  0  0
  -28.0568  -26.0234   14.1532 N   0  0  0  0  0  0  0  0  0  0  0  0
  -29.9225  -13.7130   20.3558 N   0  0  0  0  0  0  0  0  0  0  0  0
  -25.3922  -15.0689   20.4275 N   0  0  0  0  0  0  0  0  0  0  0  0
  -21.8639  -12.5133   21.6175 N   0  0  0  0  0  0  0  0  0  0  0  0
  -27.0275  -28.7130   16.3898 N   0  0  0  0  0  0  0  0  0  0  0  0
  -28.1035  -24.5330   11.1143 N   0  0  0  0  0  0  0  0  0  0  0  0
  -30.0584  -15.7710   21.5133 N   0  0  0  0  0  0  0  0  0  0  0  0
  -31.2448  -23.0164   10.1656 N   0  3  0  0  0  0  0  0  0  0  0  0
  -22.5948  -14.6704   21.3508 O   0  0  0  0  0  0  0  0  0  0  0  0
  -26.1202  -26.6879   15.6841 O   0  0  0  0  0  0  0  0  0  0  0  0
  -27.4453  -27.1088   12.1824 O   0  0  0  0  0  0  0  0  0  0  0  0
  -29.1668  -22.6890   12.0340 O   0  0  0  0  0  0  0  0  0  0  0  0
  -31.8019  -15.0631   20.2034 O   0  0  0  0  0  0  0  0  0  0  0  0
  -21.7035   -6.9450   21.6826 O   0  0  0  0  0  0  0  0  0  0  0  0
  -30.2209  -22.5360   18.7584 O   0  0  0  0  0  0  0  0  0  1  0  0
  -18.7394   -6.6897   26.3251 F   0  0  0  0  0  0  0  0  0  0  0  0
  -22.2025   -4.9960   23.5786 F   0  0  0  0  0  0  0  0  0  0  0  0
  -27.3079  -20.5441   20.2340 Cl  0  0  0  0  0  0  0  0  0  0  0  0
  1  2  1  0  0  0  0
  1  5  2  0  0  0  0
  2  6  2  0  0  0  0
  3  8  2  0  0  0  0
  3 17  1  0  0  0  0
  4  9  1  0  0  0  0
  4 17  2  0  0  0  0
  5 19  1  0  0  0  0
  6 21  1  0  0  0  0
  7 10  2  0  0  0  0
  7 20  1  0  0  0  0
  8 26  1  0  0  0  0
  9 26  2  0  0  0  0
 10 27  1  0  0  0  0
 11 12  2  0  0  0  0
 11 28  1  0  0  0  0
 12 29  1  0  0  0  0
 13 22  1  0  0  0  0
 13 27  2  0  0  0  0
 14 23  1  0  0  0  0
 14 24  2  0  0  0  0
 15 23  2  0  0  0  0
 15 31  1  0  0  0  0
 16 29  2  0  0  0  0
 16 30  1  0  0  0  0
 17 32  1  0  0  0  0
 18 32  1  0  0  0  0
 18 33  2  0  0  0  0
 18 34  1  0  0  0  0
 19 21  2  0  0  0  0
 19 39  1  0  0  0  0
 20 22  2  0  0  0  0
 20 40  1  0  0  0  0
 21 48  1  0  0  0  0
 22 41  1  0  0  0  0
 23 57  1  0  0  0  0
 24 25  1  0  0  0  0
 24 51  1  0  0  0  0
 25 31  2  0  0  0  0
 25 58  1  0  0  0  0
 26 77  1  0  0  0  0
 27 78  1  0  0  0  0
 28 30  2  0  0  0  0
 28 77  1  0  0  0  0
 29 79  1  0  0  0  0
 30 80  1  0  0  0  0
 31 81  1  0  0  0  0
 32 62  2  0  0  0  0
 33 63  1  0  0  0  0
 33 66  1  0  0  0  0
 34 67  1  0  0  0  0
 34 72  2  0  0  0  0
 35 49  1  0  0  0  0
 35 68  1  0  0  0  0
 35 73  2  0  0  0  0
 36 59  1  0  0  0  0
 36 64  1  0  0  0  0
 36 74  2  0  0  0  0
 37 60  1  0  0  0  0
 37 69  1  0  0  0  0
 37 75  2  0  0  0  0
 38 65  1  0  0  0  0
 38 70  1  0  0  0  0
 38 76  2  0  0  0  0
 39 42  1  0  0  0  0
 40 49  1  0  0  0  0
 41 64  1  0  0  0  0
 42 44  1  0  0  0  0
 43 45  1  0  0  0  0
 43 46  1  0  0  0  0
 44 48  1  0  0  0  0
 45 50  1  0  0  0  0
 46 65  1  0  0  0  0
 47 50  1  0  0  0  0
 47 65  1  0  0  0  0
 48 68  1  0  0  0  0
 49 64  1  0  0  0  0
 50 63  1  0  0  0  0
 52 60  1  0  0  0  0
 53 61  1  0  0  0  0
 54 61  1  0  0  0  0
 55 61  1  0  0  0  0
 56 71  1  0  0  0  0
 57 70  1  0  0  0  0
 58 78  1  0  0  0  0
 59 61  1  0  0  0  0
 59 69  1  0  0  0  0
 60 71  1  0  0  0  0
 62 63  1  0  0  0  0
M  CHG  1  71   1
M  ISO  4  38 100  58 101  70 100  78 101
M  END
> <Batch ID>
0033

> <Smiles>
CNC(C)C(=O)NC(C(=O)N1Cc2cc([101O:1][101CH2:1]c3c(C)cc(C[100NH:0][100C:0](=O)N4CCCC(n5nc(-c6ccc(Oc7ccc(F)cc7F)cc6)c(C(N)=O)c5N)C4)cc3Cl)ccc2CC1C(=O)NC1CCCc2ccccc21)C(C)(C)C

> <Shape>
0.248

> <Color>
0.203

> <Negative vol penalty>
0.000

$$$$

  -OEChem-04052316483D

 86 95  0     1  0  0  0  0  0999 V2000
  -21.0519  -10.7016   21.0135 C   0  0  0  0  0  0  0  0  0  0  0  0
  -21.8256  -11.1491   19.9486 C   0  0  0  0  0  0  0  0  0  0  0  0
  -22.9943  -31.8134   22.3307 C   0  0  0  0  0  0  0  0  0  0  0  0
  -23.1658  -30.3263   20.4344 C   0  0  0  0  0  0  0  0  0  0  0  0
  -21.0779  -11.3879   22.2257 C   0  0  0  0  0  0  0  0  0  0  0  0
  -22.6346  -12.2759   20.0992 C   0  0  0  0  0  0  0  0  0  0  0  0
  -27.8813  -17.9407   18.0086 C   0  0  0  0  0  0  0  0  0  0  0  0
  -23.3154  -32.8955   21.5113 C   0  0  0  0  0  0  0  0  0  0  0  0
  -23.4869  -31.4084   19.6148 C   0  0  0  0  0  0  0  0  0  0  0  0
  -28.3805  -19.1951   18.3567 C   0  0  0  0  0  0  0  0  0  0  0  0
  -21.7446  -34.8638   19.2548 C   0  0  0  0  0  0  0  0  0  0  0  0
  -20.9829  -36.0248   19.3861 C   0  0  0  0  0  0  0  0  0  0  0  0
  -28.8285  -18.3914   20.5864 C   0  0  0  0  0  0  0  0  0  0  0  0
  -22.9717  -37.2627   19.9772 C   0  0  0  0  0  0  0  0  0  0  0  0
  -31.1987  -23.3925   19.2634 C   0  0  0  0  0  0  0  0  0  0  0  0
  -22.9195  -30.5288   21.7923 C   0  0  0  0  0  0  0  0  0  0  0  0
  -21.3038  -28.9065   22.9172 C   0  0  0  0  0  0  0  0  0  0  0  0
  -21.8783  -12.5309   22.3865 C   0  0  0  0  0  0  0  0  0  0  0  0
  -27.8420  -16.9031   18.9512 C   0  0  0  0  0  0  0  0  0  0  0  0
  -22.6928  -12.9683   21.3223 C   0  0  0  0  0  0  0  0  0  0  0  0
  -28.3327  -17.1236   20.2464 C   0  0  0  0  0  0  0  0  0  0  0  0
  -29.9385  -22.9076   19.5354 C   0  0  0  0  0  0  0  0  0  0  0  0
  -29.3219  -23.8123   20.4346 C   0  0  0  0  0  0  0  0  0  0  0  0
  -23.5617  -32.6930   20.1533 C   0  0  0  0  0  0  0  0  0  0  0  0
  -28.8521  -19.4212   19.6463 C   0  0  0  0  0  0  0  0  0  0  0  0
  -23.1199  -34.9021   19.4848 C   0  0  0  0  0  0  0  0  0  0  0  0
  -21.5964  -37.2243   19.7473 C   0  0  0  0  0  0  0  0  0  0  0  0
  -23.7334  -36.1016   19.8460 C   0  0  0  0  0  0  0  0  0  0  0  0
  -22.5884  -29.4105   22.6384 C   0  0  0  0  0  0  0  0  0  0  0  0
  -30.2242  -24.8227   20.6846 C   0  0  0  0  0  0  0  0  0  0  0  0
  -21.5264  -27.8493   23.7653 C   0  0  0  0  0  0  0  0  0  0  0  0
  -20.0239  -29.3539   22.4511 C   0  0  0  0  0  0  0  0  0  0  0  0
  -25.5823  -15.0844   20.3048 C   0  0  0  0  0  0  0  0  0  0  0  0
  -28.2720  -13.6033   21.5795 C   0  0  0  0  0  0  0  0  0  0  0  0
  -26.9414  -10.4642   21.4566 C   0  0  0  0  0  0  0  0  0  0  0  0
  -26.2319  -24.2546   24.6527 C   0  0  0  0  0  0  0  0  0  0  0  0
  -21.8744  -13.2309   23.7227 C   0  0  0  0  0  0  0  0  0  0  0  0
  -27.3274  -15.5481   18.5466 C   0  0  0  0  0  0  0  0  0  0  0  0
  -28.3159  -16.0421   21.2927 C   0  0  0  0  0  0  0  0  0  0  0  0
  -22.4126  -14.6561   23.6488 C   0  0  0  0  0  0  0  0  0  0  0  0
  -29.3174  -27.0742   23.5966 C   0  0  0  0  0  0  0  0  0  0  0  0
  -28.8252  -27.8932   22.4025 C   0  0  0  0  0  0  0  0  0  0  0  0
  -24.6060  -26.2911   27.0788 C   0  0  0  0  0  0  0  0  0  0  0  0
  -23.7392  -14.6727   22.9042 C   0  0  0  0  0  0  0  0  0  0  0  0
  -29.8148  -25.7453   23.0326 C   0  0  0  0  0  0  0  0  0  0  0  0
  -28.9604  -26.9871   21.1838 C   0  0  0  0  0  0  0  0  0  0  0  0
  -23.7886  -27.2760   26.2410 C   0  0  0  0  0  0  0  0  0  0  0  0
  -25.9450  -25.9660   26.4206 C   0  0  0  0  0  0  0  0  0  0  0  0
  -25.0341  -26.4786   24.1888 C   0  0  0  0  0  0  0  0  0  0  0  0
  -23.5570  -14.2094   21.4533 C   0  0  1  0  0  0  0  0  0  0  0  0
  -30.1004  -26.0393   21.5588 C   0  0  0  0  0  0  0  0  0  0  0  0
  -26.9087  -14.6764   19.7288 C   0  0  1  0  0  0  0  0  0  0  0  0
  -23.6512  -26.7938   24.7843 C   0  0  2  0  0  0  0  0  0  0  0  0
  -26.6930   -8.0190   21.9631 C   0  0  0  0  0  0  0  0  0  0  0  0
  -30.3652  -13.3072   19.3803 C   0  0  0  0  0  0  0  0  0  0  0  0
  -30.0649  -10.8259   19.5261 C   0  0  0  0  0  0  0  0  0  0  0  0
  -30.9026  -12.0973   21.5021 C   0  0  0  0  0  0  0  0  0  0  0  0
  -32.5583  -25.3688   19.9441 C   0  0  0  0  0  0  0  0  0  0  0  0
  -25.2853  -11.0091   23.8481 C   0  0  0  0  0  0  0  0  0  0  0  0
  -27.9624  -23.6959   21.0012 C   0  0  0  0  0  0  0  0  0  0  0  0
  -29.3399  -21.6504   18.9764 C   0  0  0  0  0  0  0  0  0  1  0  0
  -27.8316  -22.7077   22.1846 C   0  0  0  0  0  0  0  0  0  0  0  0
  -26.4287  -22.6341   22.7834 C   0  0  0  0  0  0  0  0  0  0  0  0
  -28.4749  -12.3106   20.8293 C   0  0  1  0  0  0  0  0  0  0  0  0
  -26.7067   -9.4263   22.5392 C   0  0  2  0  0  0  0  0  0  0  0  0
  -29.9297  -12.1522   20.3041 C   0  0  0  0  0  0  0  0  0  0  0  0
  -23.5553  -28.7296   23.2592 N   0  0  0  0  0  0  0  0  0  0  0  0
  -31.3613  -24.5572   19.9672 N   0  0  0  0  0  0  0  0  0  0  0  0
  -22.8781  -27.7870   23.9366 N   0  0  0  0  0  0  0  0  0  0  0  0
  -27.8841  -14.7183   20.8257 N   0  0  0  0  0  0  0  0  0  0  0  0
  -25.7445  -25.5132   25.0419 N   0  0  0  0  0  0  0  0  0  0  0  0
  -20.6958  -26.9762   24.3739 N   0  0  0  0  0  0  0  0  0  0  0  0
  -19.9756  -30.4544   21.5847 N   0  0  0  0  0  0  0  0  0  0  0  0
  -24.8582  -14.0390   20.8453 N   0  0  0  0  0  0  0  0  0  0  0  0
  -28.0448  -11.2451   21.7283 N   0  0  0  0  0  0  0  0  0  0  0  0
  -25.9939  -23.9000   23.3305 N   0  0  0  0  0  0  0  0  0  0  0  0
  -25.4014   -9.6698   23.2159 N   0  3  0  0  0  0  0  0  0  0  0  0
  -18.9534  -28.8045   22.8059 O   0  0  0  0  0  0  0  0  0  0  0  0
  -25.2418  -16.2609   20.2634 O   0  0  0  0  0  0  0  0  0  0  0  0
  -28.4592  -13.6283   22.7992 O   0  0  0  0  0  0  0  0  0  0  0  0
  -26.2203  -10.5690   20.4668 O   0  0  0  0  0  0  0  0  0  0  0  0
  -26.8299  -23.5004   25.4277 O   0  0  0  0  0  0  0  0  0  0  0  0
  -23.8749  -33.7487   19.3533 O   0  0  0  0  0  0  0  0  0  0  0  0
  -29.3405  -20.6445   19.9885 O   0  0  0  0  0  0  0  0  0  1  0  0
  -20.8651  -38.3396   19.8718 F   0  0  0  0  0  0  0  0  0  0  0  0
  -25.0545  -36.1449   20.0671 F   0  0  0  0  0  0  0  0  0  0  0  0
  1  2  1  0  0  0  0
  1  5  2  0  0  0  0
  2  6  2  0  0  0  0
  3  8  2  0  0  0  0
  3 16  1  0  0  0  0
  4  9  1  0  0  0  0
  4 16  2  0  0  0  0
  5 18  1  0  0  0  0
  6 20  1  0  0  0  0
  7 10  2  0  0  0  0
  7 19  1  0  0  0  0
  8 24  1  0  0  0  0
  9 24  2  0  0  0  0
 10 25  1  0  0  0  0
 11 12  2  0  0  0  0
 11 26  1  0  0  0  0
 12 27  1  0  0  0  0
 13 21  1  0  0  0  0
 13 25  2  0  0  0  0
 14 27  2  0  0  0  0
 14 28  1  0  0  0  0
 15 22  2  0  0  0  0
 15 68  1  0  0  0  0
 16 29  1  0  0  0  0
 17 29  1  0  0  0  0
 17 31  2  0  0  0  0
 17 32  1  0  0  0  0
 18 20  2  0  0  0  0
 18 37  1  0  0  0  0
 19 21  2  0  0  0  0
 19 38  1  0  0  0  0
 20 50  1  0  0  0  0
 21 39  1  0  0  0  0
 22 23  1  0  0  0  0
 22 61  1  0  0  0  0
 23 30  2  0  0  0  0
 23 60  1  0  0  0  0
 24 83  1  0  0  0  0
 25 84  1  0  0  0  0
 26 28  2  0  0  0  0
 26 83  1  0  0  0  0
 27 85  1  0  0  0  0
 28 86  1  0  0  0  0
 29 67  2  0  0  0  0
 30 51  1  0  0  0  0
 30 68  1  0  0  0  0
 31 69  1  0  0  0  0
 31 72  1  0  0  0  0
 32 73  1  0  0  0  0
 32 78  2  0  0  0  0
 33 52  1  0  0  0  0
 33 74  1  0  0  0  0
 33 79  2  0  0  0  0
 34 64  1  0  0  0  0
 34 70  1  0  0  0  0
 34 80  2  0  0  0  0
 35 65  1  0  0  0  0
 35 75  1  0  0  0  0
 35 81  2  0  0  0  0
 36 71  1  0  0  0  0
 36 76  1  0  0  0  0
 36 82  2  0  0  0  0
 37 40  1  0  0  0  0
 38 52  1  0  0  0  0
 39 70  1  0  0  0  0
 40 44  1  0  0  0  0
 41 42  1  0  0  0  0
 41 45  1  0  0  0  0
 42 46  1  0  0  0  0
 43 47  1  0  0  0  0
 43 48  1  0  0  0  0
 44 50  1  0  0  0  0
 45 51  1  0  0  0  0
 46 51  1  0  0  0  0
 47 53  1  0  0  0  0
 48 71  1  0  0  0  0
 49 53  1  0  0  0  0
 49 71  1  0  0  0  0
 50 74  1  0  0  0  0
 52 70  1  0  0  0  0
 53 69  1  0  0  0  0
 54 65  1  0  0  0  0
 55 66  1  0  0  0  0
 56 66  1  0  0  0  0
 57 66  1  0  0  0  0
 58 68  1  0  0  0  0
 59 77  1  0  0  0  0
 60 62  1  0  0  0  0
 61 84  1  0  0  0  0
 62 63  1  0  0  0  0
 63 76  1  0  0  0  0
 64 66  1  0  0  0  0
 64 75  1  0  0  0  0
 65 77  1  0  0  0  0
 67 69  1  0  0  0  0
M  CHG  1  77   1
M  ISO  4  36 100  61 101  76 100  84 101
M  END
> <Batch ID>
0033

> <Smiles>
CNC(C)C(=O)NC(C(=O)N1Cc2cc([101O:1][101CH2:1]c3cn(C)c(C4CCCC4)c3CCC[100NH:0][100C:0](=O)N3CCCC(n4nc(-c5ccc(Oc6ccc(F)cc6F)cc5)c(C(N)=O)c4N)C3)ccc2CC1C(=O)NC1CCCc2ccccc21)C(C)(C)C

> <Shape>
0.237

> <Color>
0.051

> <Negative vol penalty>
0.000

$$$$

  -OEChem-04052316483D

 84 92  0     1  0  0  0  0  0999 V2000
  -21.4551  -17.7070   22.0340 C   0  0  0  0  0  0  0  0  0  0  0  0
  -22.4659  -18.5988   22.3743 C   0  0  0  0  0  0  0  0  0  0  0  0
  -26.9293  -13.3121   21.1222 C   0  0  0  0  0  0  0  0  0  0  0  0
  -26.7944  -13.5434   18.7211 C   0  0  0  0  0  0  0  0  0  0  0  0
  -20.4410  -18.1069   21.1663 C   0  0  0  0  0  0  0  0  0  0  0  0
  -22.4566  -19.8945   21.8564 C   0  0  0  0  0  0  0  0  0  0  0  0
  -26.5031  -24.4150   22.4201 C   0  0  0  0  0  0  0  0  0  0  0  0
  -26.2362  -12.1041   21.0448 C   0  0  0  0  0  0  0  0  0  0  0  0
  -26.1014  -12.3353   18.6437 C   0  0  0  0  0  0  0  0  0  0  0  0
  -27.6184  -24.8896   21.7312 C   0  0  0  0  0  0  0  0  0  0  0  0
  -24.1873   -9.1366   21.5130 C   0  0  0  0  0  0  0  0  0  0  0  0
  -23.1580   -8.9178   22.4286 C   0  0  0  0  0  0  0  0  0  0  0  0
  -26.2293  -26.5149   20.6141 C   0  0  0  0  0  0  0  0  0  0  0  0
  -29.4055  -24.3627   17.2262 C   0  0  0  0  0  0  0  0  0  0  0  0
  -31.7944  -22.9833   16.8104 C   0  0  0  0  0  0  0  0  0  0  0  0
  -22.0019  -10.8686   21.5950 C   0  0  0  0  0  0  0  0  0  0  0  0
  -27.2083  -14.0318   19.9604 C   0  0  0  0  0  0  0  0  0  0  0  0
  -29.3178  -15.4662   19.9792 C   0  0  0  0  0  0  0  0  0  0  0  0
  -20.4268  -19.4043   20.6282 C   0  0  0  0  0  0  0  0  0  0  0  0
  -25.2385  -24.9805   22.2027 C   0  0  0  0  0  0  0  0  0  0  0  0
  -21.4286  -20.3246   20.9980 C   0  0  0  0  0  0  0  0  0  0  0  0
  -25.1000  -26.0473   21.3034 C   0  0  0  0  0  0  0  0  0  0  0  0
  -29.3816  -23.0644   16.7170 C   0  0  0  0  0  0  0  0  0  0  0  0
  -30.6239  -24.9714   17.5275 C   0  0  0  0  0  0  0  0  0  0  0  0
  -30.5760  -22.3747   16.5091 C   0  0  0  0  0  0  0  0  0  0  0  0
  -25.8223  -11.6157   19.8055 C   0  0  0  0  0  0  0  0  0  0  0  0
  -27.4811  -25.9378   20.8259 C   0  0  0  0  0  0  0  0  0  0  0  0
  -24.1239  -10.2214   20.6385 C   0  0  0  0  0  0  0  0  0  0  0  0
  -31.8184  -24.2817   17.3196 C   0  0  0  0  0  0  0  0  0  0  0  0
  -22.0653   -9.7838   22.4696 C   0  0  0  0  0  0  0  0  0  0  0  0
  -23.0312  -11.0874   20.6795 C   0  0  0  0  0  0  0  0  0  0  0  0
  -27.9237  -15.2800   20.0398 C   0  0  0  0  0  0  0  0  0  0  0  0
  -29.4884  -16.8237   20.0996 C   0  0  0  0  0  0  0  0  0  0  0  0
  -30.3649  -14.4986   19.8277 C   0  0  0  0  0  0  0  0  0  0  0  0
  -22.4573  -23.9013   21.1054 C   0  0  0  0  0  0  0  0  0  0  0  0
  -21.4190  -26.8538   21.9580 C   0  0  0  0  0  0  0  0  0  0  0  0
  -22.1746  -30.1237   22.5776 C   0  0  0  0  0  0  0  0  0  0  0  0
  -26.9758  -21.7999   18.5379 C   0  0  0  0  0  0  0  0  0  0  0  0
  -19.3010  -19.7868   19.7000 C   0  0  0  0  0  0  0  0  0  0  0  0
  -24.0500  -24.4748   22.9736 C   0  0  0  0  0  0  0  0  0  0  0  0
  -23.7678  -26.7024   21.0493 C   0  0  0  0  0  0  0  0  0  0  0  0
  -19.6161  -21.0204   18.8602 C   0  0  0  0  0  0  0  0  0  0  0  0
  -26.7409  -20.5383   21.8590 C   0  0  0  0  0  0  0  0  0  0  0  0
  -20.1379  -22.1369   19.7521 C   0  0  0  0  0  0  0  0  0  0  0  0
  -27.1516  -19.0710   21.7228 C   0  0  0  0  0  0  0  0  0  0  0  0
  -25.9422  -21.0155   20.6481 C   0  0  0  0  0  0  0  0  0  0  0  0
  -27.0072  -19.3212   19.2098 C   0  0  0  0  0  0  0  0  0  0  0  0
  -21.4558  -21.7292   20.4230 C   0  0  1  0  0  0  0  0  0  0  0  0
  -22.7204  -24.7841   22.2925 C   0  0  1  0  0  0  0  0  0  0  0  0
  -27.8629  -18.8100   20.3815 C   0  0  2  0  0  0  0  0  0  0  0  0
  -30.5758  -20.9839   15.9650 C   0  0  0  0  0  0  0  0  0  0  0  0
  -21.1103  -32.3044   23.2172 C   0  0  0  0  0  0  0  0  0  0  0  0
  -20.3414  -27.1576   19.1196 C   0  0  0  0  0  0  0  0  0  0  0  0
  -20.1626  -29.6216   19.5258 C   0  0  0  0  0  0  0  0  0  0  0  0
  -18.8283  -28.0312   20.9090 C   0  0  0  0  0  0  0  0  0  0  0  0
  -23.7719  -30.3076   25.0623 C   0  0  0  0  0  0  0  0  0  0  0  0
  -34.1880  -24.0850   17.3642 C   0  0  0  0  0  0  0  0  0  0  0  0
  -30.6309  -26.3751   18.0781 C   0  0  0  0  0  0  0  0  0  0  0  0
  -28.0656  -22.4334   16.4001 C   0  0  0  0  0  0  0  0  0  0  0  0
  -30.8985  -26.4450   19.5832 C   0  0  0  0  0  0  0  0  0  0  0  0
  -29.8185  -25.7698   20.4205 C   0  0  0  0  0  0  0  0  0  1  0  0
  -21.3254  -28.1942   21.2698 C   0  0  1  0  0  0  0  0  0  0  0  0
  -21.7967  -31.0452   23.7232 C   0  0  2  0  0  0  0  0  0  0  0  0
  -20.1893  -28.2377   20.2092 C   0  0  0  0  0  0  0  0  0  0  0  0
  -27.2561  -16.4275   20.1873 N   0  0  0  0  0  0  0  0  0  0  0  0
  -28.2350  -17.3477   20.2205 N   0  0  0  0  0  0  0  0  0  0  0  0
  -22.6345  -26.1683   21.8226 N   0  0  0  0  0  0  0  0  0  0  0  0
  -26.6727  -20.7401   19.4086 N   0  0  0  0  0  0  0  0  0  0  0  0
  -30.5868  -17.6084   20.1128 N   0  0  0  0  0  0  0  0  0  0  0  0
  -30.0140  -13.1461   19.7179 N   0  0  0  0  0  0  0  0  0  0  0  0
  -21.8076  -22.7216   21.4145 N   0  0  0  0  0  0  0  0  0  0  0  0
  -21.1923  -29.1885   22.3291 N   0  0  0  0  0  0  0  0  0  0  0  0
  -27.6758  -21.4530   17.3888 N   0  0  0  0  0  0  0  0  0  0  0  0
  -23.0116  -31.4469   24.4872 N   0  3  0  0  0  0  0  0  0  0  0  0
  -31.5767  -14.8220   19.8072 O   0  0  0  0  0  0  0  0  0  0  0  0
  -22.8158  -24.2644   19.9912 O   0  0  0  0  0  0  0  0  0  0  0  0
  -20.4519  -26.4339   22.5982 O   0  0  0  0  0  0  0  0  0  0  0  0
  -23.2335  -30.2258   21.9621 O   0  0  0  0  0  0  0  0  0  0  0  0
  -26.6516  -22.9695   18.7702 O   0  0  0  0  0  0  0  0  0  0  0  0
  -25.1463  -10.4368   19.7296 O   0  0  0  0  0  0  0  0  0  0  0  0
  -33.0171  -24.8620   17.6073 O   0  0  0  0  0  0  0  0  0  0  0  0
  -28.5680  -26.4025   20.1516 O   0  0  0  0  0  0  0  0  0  1  0  0
  -21.0761   -9.5727   23.3478 F   0  0  0  0  0  0  0  0  0  0  0  0
  -22.9643  -12.1306   19.8410 F   0  0  0  0  0  0  0  0  0  0  0  0
  1  2  1  0  0  0  0
  1  5  2  0  0  0  0
  2  6  2  0  0  0  0
  3  8  2  0  0  0  0
  3 17  1  0  0  0  0
  4  9  1  0  0  0  0
  4 17  2  0  0  0  0
  5 19  1  0  0  0  0
  6 21  1  0  0  0  0
  7 10  2  0  0  0  0
  7 20  1  0  0  0  0
  8 26  1  0  0  0  0
  9 26  2  0  0  0  0
 10 27  1  0  0  0  0
 11 12  2  0  0  0  0
 11 28  1  0  0  0  0
 12 30  1  0  0  0  0
 13 22  1  0  0  0  0
 13 27  2  0  0  0  0
 14 23  2  0  0  0  0
 14 24  1  0  0  0  0
 15 25  2  0  0  0  0
 15 29  1  0  0  0  0
 16 30  2  0  0  0  0
 16 31  1  0  0  0  0
 17 32  1  0  0  0  0
 18 32  1  0  0  0  0
 18 33  2  0  0  0  0
 18 34  1  0  0  0  0
 19 21  2  0  0  0  0
 19 39  1  0  0  0  0
 20 22  2  0  0  0  0
 20 40  1  0  0  0  0
 21 48  1  0  0  0  0
 22 41  1  0  0  0  0
 23 25  1  0  0  0  0
 23 59  1  0  0  0  0
 24 29  2  0  0  0  0
 24 58  1  0  0  0  0
 25 51  1  0  0  0  0
 26 80  1  0  0  0  0
 27 82  1  0  0  0  0
 28 31  2  0  0  0  0
 28 80  1  0  0  0  0
 29 81  1  0  0  0  0
 30 83  1  0  0  0  0
 31 84  1  0  0  0  0
 32 65  2  0  0  0  0
 33 66  1  0  0  0  0
 33 69  1  0  0  0  0
 34 70  1  0  0  0  0
 34 75  2  0  0  0  0
 35 49  1  0  0  0  0
 35 71  1  0  0  0  0
 35 76  2  0  0  0  0
 36 62  1  0  0  0  0
 36 67  1  0  0  0  0
 36 77  2  0  0  0  0
 37 63  1  0  0  0  0
 37 72  1  0  0  0  0
 37 78  2  0  0  0  0
 38 68  1  0  0  0  0
 38 73  1  0  0  0  0
 38 79  2  0  0  0  0
 39 42  1  0  0  0  0
 40 49  1  0  0  0  0
 41 67  1  0  0  0  0
 42 44  1  0  0  0  0
 43 45  1  0  0  0  0
 43 46  1  0  0  0  0
 44 48  1  0  0  0  0
 45 50  1  0  0  0  0
 46 68  1  0  0  0  0
 47 50  1  0  0  0  0
 47 68  1  0  0  0  0
 48 71  1  0  0  0  0
 49 67  1  0  0  0  0
 50 66  1  0  0  0  0
 52 63  1  0  0  0  0
 53 64  1  0  0  0  0
 54 64  1  0  0  0  0
 55 64  1  0  0  0  0
 56 74  1  0  0  0  0
 57 81  1  0  0  0  0
 58 60  1  0  0  0  0
 59 73  1  0  0  0  0
 60 61  1  0  0  0  0
 61 82  1  0  0  0  0
 62 64  1  0  0  0  0
 62 72  1  0  0  0  0
 63 74  1  0  0  0  0
 65 66  1  0  0  0  0
M  CHG  1  74   1
M  ISO  4  38 100  61 101  73 100  82 101
M  END
> <Batch ID>
0033

> <Smiles>
CNC(C)C(=O)NC(C(=O)N1Cc2cc([101O:1][101CH2:1]CCc3cc(C[100NH:0][100C:0](=O)N4CCCC(n5nc(-c6ccc(Oc7ccc(F)cc7F)cc6)c(C(N)=O)c5N)C4)c(C)cc3OC)ccc2CC1C(=O)NC1CCCc2ccccc21)C(C)(C)C

> <Shape>
0.209

> <Color>
0.084

> <Negative vol penalty>
0.000

$$$$

  -OEChem-04052316483D

 91 99  0     1  0  0  0  0  0999 V2000
  -19.3884  -30.3307   25.3645 C   0  0  0  0  0  0  0  0  0  0  0  0
  -20.7333  -30.0631   25.1301 C   0  0  0  0  0  0  0  0  0  0  0  0
  -26.6362  -13.2488   21.6742 C   0  0  0  0  0  0  0  0  0  0  0  0
  -26.0584  -13.6704   19.3665 C   0  0  0  0  0  0  0  0  0  0  0  0
  -18.4071  -29.6305   24.6640 C   0  0  0  0  0  0  0  0  0  0  0  0
  -21.0977  -29.0942   24.1958 C   0  0  0  0  0  0  0  0  0  0  0  0
  -25.9903  -29.1869   20.5134 C   0  0  0  0  0  0  0  0  0  0  0  0
  -25.9590  -12.0305   21.6212 C   0  0  0  0  0  0  0  0  0  0  0  0
  -25.3812  -12.4521   19.3135 C   0  0  0  0  0  0  0  0  0  0  0  0
  -27.2436  -28.5828   20.6034 C   0  0  0  0  0  0  0  0  0  0  0  0
  -26.5280   -8.9137   20.4402 C   0  0  0  0  0  0  0  0  0  0  0  0
  -27.1574   -7.7977   20.9915 C   0  0  0  0  0  0  0  0  0  0  0  0
  -26.4621  -26.7690   19.2182 C   0  0  0  0  0  0  0  0  0  0  0  0
  -32.6357  -23.3131   16.9661 C   0  0  0  0  0  0  0  0  0  0  0  0
  -25.3207   -7.5252   22.5372 C   0  0  0  0  0  0  0  0  0  0  0  0
  -26.6858  -14.0688   20.5469 C   0  0  0  0  0  0  0  0  0  0  0  0
  -28.7409  -15.5606   20.3039 C   0  0  0  0  0  0  0  0  0  0  0  0
  -18.7598  -28.6593   23.7137 C   0  0  0  0  0  0  0  0  0  0  0  0
  -24.9585  -28.5801   19.7829 C   0  0  0  0  0  0  0  0  0  0  0  0
  -20.1202  -28.3794   23.4830 C   0  0  0  0  0  0  0  0  0  0  0  0
  -25.1974  -27.3688   19.1183 C   0  0  0  0  0  0  0  0  0  0  0  0
  -31.7918  -22.5811   16.1384 C   0  0  0  0  0  0  0  0  0  0  0  0
  -30.8244  -23.2375   15.3856 C   0  0  0  0  0  0  0  0  0  0  0  0
  -25.3315  -11.6321   20.4409 C   0  0  0  0  0  0  0  0  0  0  0  0
  -27.4788  -27.3723   19.9581 C   0  0  0  0  0  0  0  0  0  0  0  0
  -25.2949   -9.3356   20.9376 C   0  0  0  0  0  0  0  0  0  0  0  0
  -26.5538   -7.1034   22.0399 C   0  0  0  0  0  0  0  0  0  0  0  0
  -24.6913   -8.6413   21.9860 C   0  0  0  0  0  0  0  0  0  0  0  0
  -27.3847  -15.3277   20.6011 C   0  0  0  0  0  0  0  0  0  0  0  0
  -32.4729  -24.6885   17.0052 C   0  0  0  0  0  0  0  0  0  0  0  0
  -30.7426  -24.6163   15.4956 C   0  0  0  0  0  0  0  0  0  0  0  0
  -28.9103  -16.9084   20.5069 C   0  0  0  0  0  0  0  0  0  0  0  0
  -29.7566  -14.6409   19.8820 C   0  0  0  0  0  0  0  0  0  0  0  0
  -22.0775  -27.4401   20.4930 C   0  0  0  0  0  0  0  0  0  0  0  0
  -21.8578  -27.0748   17.2774 C   0  0  0  0  0  0  0  0  0  0  0  0
  -23.4606  -26.6973   14.2882 C   0  0  0  0  0  0  0  0  0  0  0  0
  -25.1414  -21.5588   20.3632 C   0  0  0  0  0  0  0  0  0  0  0  0
  -17.6630  -27.8949   23.0156 C   0  0  0  0  0  0  0  0  0  0  0  0
  -23.6202  -29.2580   19.6734 C   0  0  0  0  0  0  0  0  0  0  0  0
  -24.1292  -26.6866   18.3046 C   0  0  0  0  0  0  0  0  0  0  0  0
  -18.1377  -27.1483   21.7715 C   0  0  0  0  0  0  0  0  0  0  0  0
  -27.1945  -20.5506   23.0917 C   0  0  0  0  0  0  0  0  0  0  0  0
  -19.4291  -26.3909   22.0638 C   0  0  0  0  0  0  0  0  0  0  0  0
  -27.5984  -19.1187   22.7360 C   0  0  0  0  0  0  0  0  0  0  0  0
  -25.7635  -20.8580   22.6563 C   0  0  0  0  0  0  0  0  0  0  0  0
  -25.8804  -19.1539   20.8797 C   0  0  0  0  0  0  0  0  0  0  0  0
  -20.5556  -27.3532   22.4595 C   0  0  1  0  0  0  0  0  0  0  0  0
  -22.4890  -28.2946   19.3276 C   0  0  1  0  0  0  0  0  0  0  0  0
  -27.3346  -18.8147   21.2490 C   0  0  2  0  0  0  0  0  0  0  0  0
  -31.7815  -20.4417   17.4459 C   0  0  0  0  0  0  0  0  0  0  0  0
  -23.0133  -26.3854   11.8387 C   0  0  0  0  0  0  0  0  0  0  0  0
  -21.1305  -24.1553   17.7845 C   0  0  0  0  0  0  0  0  0  0  0  0
  -21.6276  -23.6856   15.3760 C   0  0  0  0  0  0  0  0  0  0  0  0
  -19.7955  -25.2655   15.9845 C   0  0  0  0  0  0  0  0  0  0  0  0
  -24.8501  -29.2169   13.5951 C   0  0  0  0  0  0  0  0  0  0  0  0
  -31.9429  -21.0967   16.0773 C   0  0  0  0  0  0  0  0  0  0  0  0
  -29.9096  -22.4679   14.4918 C   0  0  0  0  0  0  0  0  0  0  0  0
  -33.3703  -25.5150   17.8916 C   0  0  0  0  0  0  0  0  0  0  0  0
  -28.7802  -21.7249   15.2276 C   0  0  0  0  0  0  0  0  0  0  0  0
  -32.8248  -25.7163   19.3100 C   0  0  0  0  0  0  0  0  0  0  0  0
  -27.8262  -22.6722   15.9621 C   0  0  0  0  0  0  0  0  0  0  0  0
  -31.5061  -26.4953   19.3402 C   0  0  0  0  0  0  0  0  0  0  0  0
  -26.7038  -21.8983   16.6584 C   0  0  0  0  0  0  0  0  0  0  0  0
  -25.7280  -22.8479   17.3596 C   0  0  0  0  0  0  0  0  0  0  0  0
  -30.9847  -26.6454   20.7683 C   0  0  0  0  0  0  0  0  0  0  0  0
  -24.5631  -22.1125   18.0141 C   0  0  0  0  0  0  0  0  0  0  0  0
  -29.6963  -27.4545   20.8136 C   0  0  0  0  0  0  0  0  0  1  0  0
  -22.2011  -25.9765   16.3002 C   0  0  1  0  0  0  0  0  0  0  0  0
  -23.2735  -27.3900   12.9504 C   0  0  2  0  0  0  0  0  0  0  0  0
  -21.2084  -24.7823   16.3782 C   0  0  0  0  0  0  0  0  0  0  0  0
  -26.7385  -16.4384   20.9654 N   0  0  0  0  0  0  0  0  0  0  0  0
  -31.5448  -25.3614   16.2887 N   0  0  0  0  0  0  0  0  0  0  0  0
  -27.6928  -17.3823   20.8984 N   0  0  0  0  0  0  0  0  0  0  0  0
  -22.8355  -27.3856   18.2331 N   0  0  0  0  0  0  0  0  0  0  0  0
  -25.5800  -20.5495   21.2361 N   0  0  0  0  0  0  0  0  0  0  0  0
  -29.9804  -17.7225   20.3869 N   0  0  0  0  0  0  0  0  0  0  0  0
  -29.4120  -13.2917   19.7226 N   0  0  0  0  0  0  0  0  0  0  0  0
  -21.0982  -28.0056   21.2871 N   0  0  0  0  0  0  0  0  0  0  0  0
  -22.2752  -26.6071   14.9868 N   0  0  0  0  0  0  0  0  0  0  0  0
  -24.9997  -21.1838   19.0328 N   0  0  0  0  0  0  0  0  0  0  0  0
  -24.4905  -28.1751   12.5989 N   0  3  0  0  0  0  0  0  0  0  0  0
  -30.9390  -15.0018   19.6690 O   0  0  0  0  0  0  0  0  0  0  0  0
  -22.6082  -26.3481   20.6587 O   0  0  0  0  0  0  0  0  0  0  0  0
  -20.7653  -27.6412   17.1912 O   0  0  0  0  0  0  0  0  0  0  0  0
  -24.5487  -26.2750   14.6732 O   0  0  0  0  0  0  0  0  0  0  0  0
  -24.8996  -22.7104   20.7405 O   0  0  0  0  0  0  0  0  0  0  0  0
  -24.6709  -10.4433   20.3887 O   0  0  0  0  0  0  0  0  0  0  0  0
  -28.7009  -26.7801   20.0449 O   0  0  0  0  0  0  0  0  0  1  0  0
  -27.1576   -6.0308   22.5681 F   0  0  0  0  0  0  0  0  0  0  0  0
  -23.5062   -9.0411   22.4672 F   0  0  0  0  0  0  0  0  0  0  0  0
  -29.5919  -25.5444   14.6154 Cl  0  0  0  0  0  0  0  0  0  0  0  0
  1  2  1  0  0  0  0
  1  5  2  0  0  0  0
  2  6  2  0  0  0  0
  3  8  2  0  0  0  0
  3 16  1  0  0  0  0
  4  9  1  0  0  0  0
  4 16  2  0  0  0  0
  5 18  1  0  0  0  0
  6 20  1  0  0  0  0
  7 10  2  0  0  0  0
  7 19  1  0  0  0  0
  8 24  1  0  0  0  0
  9 24  2  0  0  0  0
 10 25  1  0  0  0  0
 11 12  2  0  0  0  0
 11 26  1  0  0  0  0
 12 27  1  0  0  0  0
 13 21  1  0  0  0  0
 13 25  2  0  0  0  0
 14 22  1  0  0  0  0
 14 30  2  0  0  0  0
 15 27  2  0  0  0  0
 15 28  1  0  0  0  0
 16 29  1  0  0  0  0
 17 29  1  0  0  0  0
 17 32  2  0  0  0  0
 17 33  1  0  0  0  0
 18 20  2  0  0  0  0
 18 38  1  0  0  0  0
 19 21  2  0  0  0  0
 19 39  1  0  0  0  0
 20 47  1  0  0  0  0
 21 40  1  0  0  0  0
 22 23  2  0  0  0  0
 22 56  1  0  0  0  0
 23 31  1  0  0  0  0
 23 57  1  0  0  0  0
 24 87  1  0  0  0  0
 25 88  1  0  0  0  0
 26 28  2  0  0  0  0
 26 87  1  0  0  0  0
 27 89  1  0  0  0  0
 28 90  1  0  0  0  0
 29 71  2  0  0  0  0
 30 58  1  0  0  0  0
 30 72  1  0  0  0  0
 31 72  2  0  0  0  0
 31 91  1  0  0  0  0
 32 73  1  0  0  0  0
 32 76  1  0  0  0  0
 33 77  1  0  0  0  0
 33 82  2  0  0  0  0
 34 48  1  0  0  0  0
 34 78  1  0  0  0  0
 34 83  2  0  0  0  0
 35 68  1  0  0  0  0
 35 74  1  0  0  0  0
 35 84  2  0  0  0  0
 36 69  1  0  0  0  0
 36 79  1  0  0  0  0
 36 85  2  0  0  0  0
 37 75  1  0  0  0  0
 37 80  1  0  0  0  0
 37 86  2  0  0  0  0
 38 41  1  0  0  0  0
 39 48  1  0  0  0  0
 40 74  1  0  0  0  0
 41 43  1  0  0  0  0
 42 44  1  0  0  0  0
 42 45  1  0  0  0  0
 43 47  1  0  0  0  0
 44 49  1  0  0  0  0
 45 75  1  0  0  0  0
 46 49  1  0  0  0  0
 46 75  1  0  0  0  0
 47 78  1  0  0  0  0
 48 74  1  0  0  0  0
 49 73  1  0  0  0  0
 50 56  1  0  0  0  0
 51 69  1  0  0  0  0
 52 70  1  0  0  0  0
 53 70  1  0  0  0  0
 54 70  1  0  0  0  0
 55 81  1  0  0  0  0
 57 59  1  0  0  0  0
 58 60  1  0  0  0  0
 59 61  1  0  0  0  0
 60 62  1  0  0  0  0
 61 63  1  0  0  0  0
 62 65  1  0  0  0  0
 63 64  1  0  0  0  0
 64 66  1  0  0  0  0
 65 67  1  0  0  0  0
 66 80  1  0  0  0  0
 67 88  1  0  0  0  0
 68 70  1  0  0  0  0
 68 79  1  0  0  0  0
 69 81  1  0  0  0  0
 71 73  1  0  0  0  0
M  CHG  1  81   1
M  ISO  4  37 100  67 101  80 100  88 101
M  END
> <Batch ID>
0033

> <Smiles>
CCc1cc(CCCC[101CH2:1][101O:1]c2ccc3c(c2)CN(C(=O)C(NC(=O)C(C)NC)C(C)(C)C)C(C(=O)NC2CCCc4ccccc42)C3)nc(Cl)c1CCCCCC[100NH:0][100C:0](=O)N1CCCC(n2nc(-c3ccc(Oc4ccc(F)cc4F)cc3)c(C(N)=O)c2N)C1

> <Shape>
0.210

> <Color>
0.083

> <Negative vol penalty>
0.000

$$$$

  -OEChem-04052316483D

 95103  0     1  0  0  0  0  0999 V2000
  -35.4170  -17.6482   19.5592 C   0  0  0  0  0  0  0  0  0  0  0  0
  -35.7857  -18.9792   19.7265 C   0  0  0  0  0  0  0  0  0  0  0  0
  -22.6202  -10.3883   20.2111 C   0  0  0  0  0  0  0  0  0  0  0  0
  -24.2638   -9.5035   21.7449 C   0  0  0  0  0  0  0  0  0  0  0  0
  -34.3120  -17.3256   18.7725 C   0  0  0  0  0  0  0  0  0  0  0  0
  -35.0501  -19.9884   19.1062 C   0  0  0  0  0  0  0  0  0  0  0  0
  -33.9271  -25.5987   21.2901 C   0  0  0  0  0  0  0  0  0  0  0  0
  -21.8286   -9.2566   20.4064 C   0  0  0  0  0  0  0  0  0  0  0  0
  -23.4722   -8.3717   21.9403 C   0  0  0  0  0  0  0  0  0  0  0  0
  -34.5241  -26.8355   21.0501 C   0  0  0  0  0  0  0  0  0  0  0  0
  -20.7166   -7.5365   23.7093 C   0  0  0  0  0  0  0  0  0  0  0  0
  -20.5381   -7.0905   25.0188 C   0  0  0  0  0  0  0  0  0  0  0  0
  -32.8247  -27.3310   19.4112 C   0  0  0  0  0  0  0  0  0  0  0  0
  -21.5369   -4.9701   24.4327 C   0  0  0  0  0  0  0  0  0  0  0  0
  -23.8378  -10.5118   20.8803 C   0  0  0  0  0  0  0  0  0  0  0  0
  -24.3069  -13.0186   20.9414 C   0  0  0  0  0  0  0  0  0  0  0  0
  -33.5568  -18.3320   18.1502 C   0  0  0  0  0  0  0  0  0  0  0  0
  -32.7787  -25.2135   20.5834 C   0  0  0  0  0  0  0  0  0  0  0  0
  -33.9347  -19.6789   18.3093 C   0  0  0  0  0  0  0  0  0  0  0  0
  -32.2135  -26.0898   19.6460 C   0  0  0  0  0  0  0  0  0  0  0  0
  -22.2546   -8.2483   21.2710 C   0  0  0  0  0  0  0  0  0  0  0  0
  -33.9746  -27.7007   20.1085 C   0  0  0  0  0  0  0  0  0  0  0  0
  -21.3052   -6.6993   22.7614 C   0  0  0  0  0  0  0  0  0  0  0  0
  -20.9483   -5.8073   25.3805 C   0  0  0  0  0  0  0  0  0  0  0  0
  -21.7153   -5.4161   23.1232 C   0  0  0  0  0  0  0  0  0  0  0  0
  -24.6562  -11.6804   20.6785 C   0  0  0  0  0  0  0  0  0  0  0  0
  -25.4194  -13.7404   20.5839 C   0  0  0  0  0  0  0  0  0  0  0  0
  -23.0860  -13.5606   21.4623 C   0  0  0  0  0  0  0  0  0  0  0  0
  -32.0671  -22.8562   18.5733 C   0  0  0  0  0  0  0  0  0  0  0  0
  -30.9739  -14.3956   20.6680 C   0  0  0  0  0  0  0  0  0  0  0  0
  -29.0703  -24.0727   18.8216 C   0  0  0  0  0  0  0  0  0  0  0  0
  -27.0819  -26.7582   19.5154 C   0  0  0  0  0  0  0  0  0  0  0  0
  -32.3986  -17.9317   17.2709 C   0  0  0  0  0  0  0  0  0  0  0  0
  -32.1313  -23.8871   20.8731 C   0  0  0  0  0  0  0  0  0  0  0  0
  -30.9699  -25.7322   18.8753 C   0  0  0  0  0  0  0  0  0  0  0  0
  -31.4488  -19.0835   16.9527 C   0  0  0  0  0  0  0  0  0  0  0  0
  -33.3504  -31.2808   18.5992 C   0  0  0  0  0  0  0  0  0  0  0  0
  -29.5763  -12.3675   18.0654 C   0  0  0  0  0  0  0  0  0  0  0  0
  -32.2339  -20.3239   16.5382 C   0  0  0  0  0  0  0  0  0  0  0  0
  -34.4716  -32.2920   18.7982 C   0  0  0  0  0  0  0  0  0  0  0  0
  -28.1531  -12.0930   18.5494 C   0  0  0  0  0  0  0  0  0  0  0  0
  -32.9221  -30.6550   19.9240 C   0  0  0  0  0  0  0  0  0  0  0  0
  -30.5602  -12.4273   19.2296 C   0  0  0  0  0  0  0  0  0  0  0  0
  -28.7646  -13.1392   20.7757 C   0  0  0  0  0  0  0  0  0  0  0  0
  -33.1471  -20.8035   17.6729 C   0  0  1  0  0  0  0  0  0  0  0  0
  -31.2605  -23.3840   19.7260 C   0  0  1  0  0  0  0  0  0  0  0  0
  -35.6839  -31.6811   19.5207 C   0  0  2  0  0  0  0  0  0  0  0  0
  -27.7337  -13.1014   19.6336 C   0  0  2  0  0  0  0  0  0  0  0  0
  -35.2474  -31.0344   20.8575 C   0  0  1  0  0  0  0  0  0  0  0  0
  -34.1006  -30.0078   20.6725 C   0  0  1  0  0  0  0  0  0  1  0  0
  -36.7473  -32.7704   19.7100 C   0  0  0  0  0  0  0  0  0  0  0  0
  -24.6731  -27.4573   19.5956 C   0  0  0  0  0  0  0  0  0  0  0  0
  -33.0546  -30.5697   22.8778 C   0  0  0  0  0  0  0  0  0  0  0  0
  -29.0178  -24.2328   15.7750 C   0  0  0  0  0  0  0  0  0  0  0  0
  -27.0538  -25.7745   15.9594 C   0  0  0  0  0  0  0  0  0  0  0  0
  -26.8870  -23.4372   16.8147 C   0  0  0  0  0  0  0  0  0  0  0  0
  -27.2358  -27.3718   22.4065 C   0  0  0  0  0  0  0  0  0  0  0  0
  -30.4433  -15.3398   21.7172 C   0  0  0  0  0  0  0  0  0  0  0  0
  -31.4843  -16.3955   22.0798 C   0  0  0  0  0  0  0  0  0  0  0  0
  -30.9565  -17.4111   23.0989 C   0  0  0  0  0  0  0  0  0  0  0  0
  -31.9881  -18.4755   23.4852 C   0  0  0  0  0  0  0  0  0  0  0  0
  -31.4401  -19.5332   24.4459 C   0  0  0  0  0  0  0  0  0  0  0  0
  -32.5042  -20.5826   24.7797 C   0  0  0  0  0  0  0  0  0  0  0  0
  -31.9454  -21.6615   25.7100 C   0  0  0  0  0  0  0  0  0  0  0  0
  -32.9478  -22.7771   26.0199 C   0  0  0  0  0  0  0  0  0  0  0  0
  -32.3661  -23.8939   26.8913 C   0  0  0  0  0  0  0  0  0  0  0  0
  -33.4051  -24.9886   27.1494 C   0  0  0  0  0  0  0  0  0  0  0  0
  -33.8647  -25.7076   25.8766 C   0  0  0  0  0  0  0  0  0  0  0  0
  -32.7147  -26.3395   25.0880 C   0  0  0  0  0  0  0  0  0  0  0  0
  -33.1728  -27.0573   23.8138 C   0  0  0  0  0  0  0  0  0  0  0  0
  -32.0225  -27.6706   23.0098 C   0  0  0  0  0  0  0  0  0  0  0  0
  -32.5396  -28.3467   21.7352 C   0  0  0  0  0  0  0  0  0  0  0  0
  -28.2788  -25.1246   18.0826 C   0  0  1  0  0  0  0  0  0  0  0  0
  -25.8461  -26.8984   20.3858 C   0  0  2  0  0  0  0  0  0  0  0  0
  -33.5939  -29.4369   22.0032 C   0  0  1  0  0  0  0  0  0  0  0  0
  -27.8339  -24.6485   16.6709 C   0  0  0  0  0  0  0  0  0  0  0  0
  -25.8937  -11.5567   20.1915 N   0  0  0  0  0  0  0  0  0  0  0  0
  -26.3317  -12.8264   20.1454 N   0  0  0  0  0  0  0  0  0  0  0  0
  -30.3775  -24.4216   19.1896 N   0  0  0  0  0  0  0  0  0  0  0  0
  -30.1149  -13.3797   20.2483 N   0  0  0  0  0  0  0  0  0  0  0  0
  -25.6963  -15.0615   20.6049 N   0  0  0  0  0  0  0  0  0  0  0  0
  -22.9568  -13.7030   22.8506 N   0  0  0  0  0  0  0  0  0  0  0  0
  -32.3797  -21.5139   18.6733 N   0  0  0  0  0  0  0  0  0  0  0  0
  -27.1765  -25.4989   18.9619 N   0  0  0  0  0  0  0  0  0  0  0  0
  -26.1198  -27.8125   21.5306 N   0  3  0  0  0  0  0  0  0  0  0  0
  -22.1313  -13.8931   20.7196 O   0  0  0  0  0  0  0  0  0  0  0  0
  -32.3812  -23.6106   17.6601 O   0  0  0  0  0  0  0  0  0  0  0  0
  -32.1170  -14.5594   20.2335 O   0  0  0  0  0  0  0  0  0  0  0  0
  -28.5455  -22.9843   19.0697 O   0  0  0  0  0  0  0  0  0  0  0  0
  -27.8811  -27.6753   19.3408 O   0  0  0  0  0  0  0  0  0  0  0  0
  -21.4824   -7.1439   21.4620 O   0  0  0  0  0  0  0  0  0  0  0  0
  -34.5579  -28.9128   19.8709 O   0  0  0  0  0  0  0  0  0  1  0  0
  -20.7782   -5.3797   26.6384 F   0  0  0  0  0  0  0  0  0  0  0  0
  -22.2824   -4.6077   22.2172 F   0  0  0  0  0  0  0  0  0  0  0  0
  -36.6612  -30.2672   21.6666 Cl  0  0  0  0  0  0  0  0  0  0  0  0
  1  2  1  0  0  0  0
  1  5  2  0  0  0  0
  2  6  2  0  0  0  0
  3  8  2  0  0  0  0
  3 15  1  0  0  0  0
  4  9  1  0  0  0  0
  4 15  2  0  0  0  0
  5 17  1  0  0  0  0
  6 19  1  0  0  0  0
  7 10  2  0  0  0  0
  7 18  1  0  0  0  0
  8 21  1  0  0  0  0
  9 21  2  0  0  0  0
 10 22  1  0  0  0  0
 11 12  2  0  0  0  0
 11 23  1  0  0  0  0
 12 24  1  0  0  0  0
 13 20  1  0  0  0  0
 13 22  2  0  0  0  0
 14 24  2  0  0  0  0
 14 25  1  0  0  0  0
 15 26  1  0  0  0  0
 16 26  1  0  0  0  0
 16 27  2  0  0  0  0
 16 28  1  0  0  0  0
 17 19  2  0  0  0  0
 17 33  1  0  0  0  0
 18 20  2  0  0  0  0
 18 34  1  0  0  0  0
 19 45  1  0  0  0  0
 20 35  1  0  0  0  0
 21 91  1  0  0  0  0
 22 92  1  0  0  0  0
 23 25  2  0  0  0  0
 23 91  1  0  0  0  0
 24 93  1  0  0  0  0
 25 94  1  0  0  0  0
 26 77  2  0  0  0  0
 27 78  1  0  0  0  0
 27 81  1  0  0  0  0
 28 82  1  0  0  0  0
 28 86  2  0  0  0  0
 29 46  1  0  0  0  0
 29 83  1  0  0  0  0
 29 87  2  0  0  0  0
 30 58  1  0  0  0  0
 30 80  1  0  0  0  0
 30 88  2  0  0  0  0
 31 73  1  0  0  0  0
 31 79  1  0  0  0  0
 31 89  2  0  0  0  0
 32 74  1  0  0  0  0
 32 84  1  0  0  0  0
 32 90  2  0  0  0  0
 33 36  1  0  0  0  0
 34 46  1  0  0  0  0
 35 79  1  0  0  0  0
 36 39  1  0  0  0  0
 37 40  1  0  0  0  0
 37 42  1  0  0  0  0
 38 41  1  0  0  0  0
 38 43  1  0  0  0  0
 39 45  1  0  0  0  0
 40 47  1  0  0  0  0
 41 48  1  0  0  0  0
 42 50  1  0  0  0  0
 43 80  1  0  0  0  0
 44 48  1  0  0  0  0
 44 80  1  0  0  0  0
 45 83  1  0  0  0  0
 46 79  1  0  0  0  0
 47 49  1  0  0  0  0
 47 51  1  0  0  0  0
 48 78  1  0  0  0  0
 49 50  1  0  0  0  0
 49 95  1  0  0  0  0
 50 75  1  0  0  0  0
 50 92  1  0  0  0  0
 52 74  1  0  0  0  0
 53 75  1  0  0  0  0
 54 76  1  0  0  0  0
 55 76  1  0  0  0  0
 56 76  1  0  0  0  0
 57 85  1  0  0  0  0
 58 59  1  0  0  0  0
 59 60  1  0  0  0  0
 60 61  1  0  0  0  0
 61 62  1  0  0  0  0
 62 63  1  0  0  0  0
 63 64  1  0  0  0  0
 64 65  1  0  0  0  0
 65 66  1  0  0  0  0
 66 67  1  0  0  0  0
 67 68  1  0  0  0  0
 68 69  1  0  0  0  0
 69 70  1  0  0  0  0
 70 71  1  0  0  0  0
 71 72  1  0  0  0  0
 72 75  1  0  0  0  0
 73 76  1  0  0  0  0
 73 84  1  0  0  0  0
 74 85  1  0  0  0  0
 77 78  1  0  0  0  0
M  CHG  1  85   1
M  ISO  4  30 100  50 101  58 100  92 101
M  END
> <Batch ID>
0033

> <Smiles>
CNC(C)C(=O)NC(C(=O)N1Cc2cc([101O:1][101C:1]3(C(C)CCCCCCCCCCCCCC[100CH2:0][100C:0](=O)N4CCCC(n5nc(-c6ccc(Oc7ccc(F)cc7F)cc6)c(C(N)=O)c5N)C4)CCCC(C)C3Cl)ccc2CC1C(=O)NC1CCCc2ccccc21)C(C)(C)C

> <Shape>
0.244

> <Color>
0.203

> <Negative vol penalty>
0.000

$$$$

  -OEChem-04052316483D

 86 94  0     1  0  0  0  0  0999 V2000
  -23.3280  -19.4143   27.7141 C   0  0  0  0  0  0  0  0  0  0  0  0
  -24.3451  -19.9043   26.9012 C   0  0  0  0  0  0  0  0  0  0  0  0
  -26.8960  -13.0913   21.0037 C   0  0  0  0  0  0  0  0  0  0  0  0
  -26.8112  -13.3314   18.6012 C   0  0  0  0  0  0  0  0  0  0  0  0
  -21.9979  -19.7109   27.4197 C   0  0  0  0  0  0  0  0  0  0  0  0
  -24.0325  -20.6904   25.7927 C   0  0  0  0  0  0  0  0  0  0  0  0
  -27.2891  -25.3741   23.5647 C   0  0  0  0  0  0  0  0  0  0  0  0
  -26.3106  -11.8296   20.8983 C   0  0  0  0  0  0  0  0  0  0  0  0
  -26.2260  -12.0697   18.4957 C   0  0  0  0  0  0  0  0  0  0  0  0
  -28.1972  -25.4679   22.5110 C   0  0  0  0  0  0  0  0  0  0  0  0
  -23.2171  -10.5507   20.4305 C   0  0  0  0  0  0  0  0  0  0  0  0
  -22.1830  -10.2410   21.3138 C   0  0  0  0  0  0  0  0  0  0  0  0
  -26.4298  -26.2457   21.0651 C   0  0  0  0  0  0  0  0  0  0  0  0
  -30.5801  -23.4673   18.2010 C   0  0  0  0  0  0  0  0  0  0  0  0
  -29.0804  -24.4716   16.0737 C   0  0  0  0  0  0  0  0  0  0  0  0
  -23.4719   -8.3866   22.1725 C   0  0  0  0  0  0  0  0  0  0  0  0
  -27.1462  -13.8423   19.8551 C   0  0  0  0  0  0  0  0  0  0  0  0
  -29.1247  -15.4501   19.9452 C   0  0  0  0  0  0  0  0  0  0  0  0
  -21.6694  -20.5090   26.3126 C   0  0  0  0  0  0  0  0  0  0  0  0
  -25.9400  -25.7055   23.3733 C   0  0  0  0  0  0  0  0  0  0  0  0
  -22.6967  -20.9968   25.4824 C   0  0  0  0  0  0  0  0  0  0  0  0
  -25.5071  -26.1577   22.1186 C   0  0  0  0  0  0  0  0  0  0  0  0
  -30.1103  -22.6049   17.2105 C   0  0  0  0  0  0  0  0  0  0  0  0
  -30.3000  -24.8319   18.1279 C   0  0  0  0  0  0  0  0  0  0  0  0
  -29.3605  -23.1070   16.1469 C   0  0  0  0  0  0  0  0  0  0  0  0
  -25.9757  -11.3188   19.6443 C   0  0  0  0  0  0  0  0  0  0  0  0
  -27.7670  -25.9010   21.2602 C   0  0  0  0  0  0  0  0  0  0  0  0
  -24.3786   -9.7783   20.4181 C   0  0  0  0  0  0  0  0  0  0  0  0
  -22.3104   -9.1590   22.1848 C   0  0  0  0  0  0  0  0  0  0  0  0
  -24.5060   -8.6963   21.2891 C   0  0  0  0  0  0  0  0  0  0  0  0
  -29.5502  -25.3340   17.0643 C   0  0  0  0  0  0  0  0  0  0  0  0
  -27.7503  -15.1459   19.9634 C   0  0  0  0  0  0  0  0  0  0  0  0
  -29.1758  -16.8161   20.0790 C   0  0  0  0  0  0  0  0  0  0  0  0
  -30.2542  -14.5761   19.8185 C   0  0  0  0  0  0  0  0  0  0  0  0
  -23.1908  -24.1229   23.5755 C   0  0  0  0  0  0  0  0  0  0  0  0
  -21.9116  -27.0591   23.0610 C   0  0  0  0  0  0  0  0  0  0  0  0
  -22.3008  -30.2101   21.8095 C   0  0  0  0  0  0  0  0  0  0  0  0
  -25.2914  -21.1873   18.7923 C   0  0  0  0  0  0  0  0  0  0  0  0
  -20.2145  -20.7634   26.0072 C   0  0  0  0  0  0  0  0  0  0  0  0
  -24.9784  -25.6245   24.5271 C   0  0  0  0  0  0  0  0  0  0  0  0
  -24.0736  -26.5450   21.8666 C   0  0  0  0  0  0  0  0  0  0  0  0
  -19.9895  -21.9139   25.0294 C   0  0  0  0  0  0  0  0  0  0  0  0
  -26.7534  -20.4871   21.9623 C   0  0  0  0  0  0  0  0  0  0  0  0
  -20.9345  -21.7943   23.8379 C   0  0  0  0  0  0  0  0  0  0  0  0
  -27.2987  -19.0663   21.8078 C   0  0  0  0  0  0  0  0  0  0  0  0
  -25.4369  -20.6712   21.2108 C   0  0  0  0  0  0  0  0  0  0  0  0
  -26.0247  -18.8732   19.6311 C   0  0  0  0  0  0  0  0  0  0  0  0
  -22.3991  -21.8734   24.2853 C   0  0  1  0  0  0  0  0  0  0  0  0
  -23.5240  -25.4966   24.0849 C   0  0  1  0  0  0  0  0  0  0  0  0
  -27.3798  -18.6549   20.3255 C   0  0  2  0  0  0  0  0  0  0  0  0
  -31.8573  -20.8337   16.8987 C   0  0  0  0  0  0  0  0  0  0  0  0
  -21.0673  -32.3737   21.5015 C   0  0  0  0  0  0  0  0  0  0  0  0
  -20.3435  -25.8330   20.7484 C   0  0  0  0  0  0  0  0  0  0  0  0
  -19.8963  -28.1509   19.9144 C   0  0  0  0  0  0  0  0  0  0  0  0
  -19.0446  -27.4459   22.1505 C   0  0  0  0  0  0  0  0  0  0  0  0
  -24.2498  -31.6921   23.4721 C   0  0  0  0  0  0  0  0  0  0  0  0
  -30.4222  -21.1476   17.3102 C   0  0  0  0  0  0  0  0  0  0  0  0
  -30.8297  -25.7264   19.2223 C   0  0  0  0  0  0  0  0  0  0  0  0
  -28.8460  -22.2020   15.0758 C   0  0  0  0  0  0  0  0  0  0  0  0
  -27.6155  -21.4045   15.5327 C   0  0  0  0  0  0  0  0  0  0  0  0
  -26.4474  -22.3266   15.8949 C   0  0  0  0  0  0  0  0  0  0  0  0
  -25.2083  -21.5564   16.3396 C   0  0  0  0  0  0  0  0  0  0  0  0
  -30.0043  -25.6295   20.5007 C   0  0  0  0  0  0  0  0  0  1  0  0
  -21.5200  -27.8556   21.8399 C   0  0  1  0  0  0  0  0  0  0  0  0
  -21.9960  -31.5741   22.4021 C   0  0  2  0  0  0  0  0  0  0  0  0
  -20.2278  -27.3123   21.1672 C   0  0  0  0  0  0  0  0  0  0  0  0
  -26.9837  -16.2313   20.0984 N   0  0  0  0  0  0  0  0  0  0  0  0
  -27.8794  -17.2309   20.1663 N   0  0  0  0  0  0  0  0  0  0  0  0
  -23.1703  -26.4426   23.0246 N   0  0  0  0  0  0  0  0  0  0  0  0
  -25.5821  -20.2648   19.8109 N   0  0  0  0  0  0  0  0  0  0  0  0
  -30.2027  -17.6909   20.1295 N   0  0  0  0  0  0  0  0  0  0  0  0
  -30.0229  -13.1998   19.6898 N   0  0  0  0  0  0  0  0  0  0  0  0
  -22.7712  -23.2453   24.5569 N   0  0  0  0  0  0  0  0  0  0  0  0
  -21.4296  -29.2463   22.2713 N   0  0  0  0  0  0  0  0  0  0  0  0
  -25.4613  -20.7229   17.4938 N   0  0  0  0  0  0  0  0  0  0  0  0
  -23.2540  -32.3509   22.5881 N   0  3  0  0  0  0  0  0  0  0  0  0
  -31.4342  -15.0013   19.8358 O   0  0  0  0  0  0  0  0  0  0  0  0
  -23.3045  -23.8777   22.3802 O   0  0  0  0  0  0  0  0  0  0  0  0
  -21.1324  -26.9924   24.0150 O   0  0  0  0  0  0  0  0  0  0  0  0
  -23.2176  -30.0195   21.0135 O   0  0  0  0  0  0  0  0  0  0  0  0
  -24.9139  -22.3411   19.0231 O   0  0  0  0  0  0  0  0  0  0  0  0
  -25.4047  -10.0876   19.5410 O   0  0  0  0  0  0  0  0  0  0  0  0
  -28.6512  -25.9929   20.2298 O   0  0  0  0  0  0  0  0  0  1  0  0
  -21.3179   -8.8626   23.0341 F   0  0  0  0  0  0  0  0  0  0  0  0
  -25.6200   -7.9514   21.2826 F   0  0  0  0  0  0  0  0  0  0  0  0
  -29.1452  -27.1814   16.9213 Br  0  0  0  0  0  0  0  0  0  0  0  0
  1  2  1  0  0  0  0
  1  5  2  0  0  0  0
  2  6  2  0  0  0  0
  3  8  2  0  0  0  0
  3 17  1  0  0  0  0
  4  9  1  0  0  0  0
  4 17  2  0  0  0  0
  5 19  1  0  0  0  0
  6 21  1  0  0  0  0
  7 10  2  0  0  0  0
  7 20  1  0  0  0  0
  8 26  1  0  0  0  0
  9 26  2  0  0  0  0
 10 27  1  0  0  0  0
 11 12  2  0  0  0  0
 11 28  1  0  0  0  0
 12 29  1  0  0  0  0
 13 22  1  0  0  0  0
 13 27  2  0  0  0  0
 14 23  1  0  0  0  0
 14 24  2  0  0  0  0
 15 25  1  0  0  0  0
 15 31  2  0  0  0  0
 16 29  2  0  0  0  0
 16 30  1  0  0  0  0
 17 32  1  0  0  0  0
 18 32  1  0  0  0  0
 18 33  2  0  0  0  0
 18 34  1  0  0  0  0
 19 21  2  0  0  0  0
 19 39  1  0  0  0  0
 20 22  2  0  0  0  0
 20 40  1  0  0  0  0
 21 48  1  0  0  0  0
 22 41  1  0  0  0  0
 23 25  2  0  0  0  0
 23 57  1  0  0  0  0
 24 31  1  0  0  0  0
 24 58  1  0  0  0  0
 25 59  1  0  0  0  0
 26 82  1  0  0  0  0
 27 83  1  0  0  0  0
 28 30  2  0  0  0  0
 28 82  1  0  0  0  0
 29 84  1  0  0  0  0
 30 85  1  0  0  0  0
 31 86  1  0  0  0  0
 32 67  2  0  0  0  0
 33 68  1  0  0  0  0
 33 71  1  0  0  0  0
 34 72  1  0  0  0  0
 34 77  2  0  0  0  0
 35 49  1  0  0  0  0
 35 73  1  0  0  0  0
 35 78  2  0  0  0  0
 36 64  1  0  0  0  0
 36 69  1  0  0  0  0
 36 79  2  0  0  0  0
 37 65  1  0  0  0  0
 37 74  1  0  0  0  0
 37 80  2  0  0  0  0
 38 70  1  0  0  0  0
 38 75  1  0  0  0  0
 38 81  2  0  0  0  0
 39 42  1  0  0  0  0
 40 49  1  0  0  0  0
 41 69  1  0  0  0  0
 42 44  1  0  0  0  0
 43 45  1  0  0  0  0
 43 46  1  0  0  0  0
 44 48  1  0  0  0  0
 45 50  1  0  0  0  0
 46 70  1  0  0  0  0
 47 50  1  0  0  0  0
 47 70  1  0  0  0  0
 48 73  1  0  0  0  0
 49 69  1  0  0  0  0
 50 68  1  0  0  0  0
 51 57  1  0  0  0  0
 52 65  1  0  0  0  0
 53 66  1  0  0  0  0
 54 66  1  0  0  0  0
 55 66  1  0  0  0  0
 56 76  1  0  0  0  0
 58 63  1  0  0  0  0
 59 60  1  0  0  0  0
 60 61  1  0  0  0  0
 61 62  1  0  0  0  0
 62 75  1  0  0  0  0
 63 83  1  0  0  0  0
 64 66  1  0  0  0  0
 64 74  1  0  0  0  0
 65 76  1  0  0  0  0
 67 68  1  0  0  0  0
M  CHG  1  76   1
M  ISO  4  38 100  63 101  75 100  83 101
M  END
> <Batch ID>
0033

> <Smiles>
CCc1cc(C[101CH2:1][101O:1]c2ccc3c(c2)CN(C(=O)C(NC(=O)C(C)NC)C(C)(C)C)C(C(=O)NC2CCCc4ccccc42)C3)c(Br)cc1CCCC[100NH:0][100C:0](=O)N1CCCC(n2nc(-c3ccc(Oc4ccc(F)cc4F)cc3)c(C(N)=O)c2N)C1

> <Shape>
0.208

> <Color>
0.082

> <Negative vol penalty>
0.000

$$$$

  -OEChem-04052316483D

 89 97  0     1  0  0  0  0  0999 V2000
  -32.9709  -24.1975   19.6878 C   0  0  0  0  0  0  0  0  0  0  0  0
  -31.6137  -24.2028   19.3826 C   0  0  0  0  0  0  0  0  0  0  0  0
  -22.6679  -10.1976   20.1654 C   0  0  0  0  0  0  0  0  0  0  0  0
  -24.3218   -9.4170   21.7442 C   0  0  0  0  0  0  0  0  0  0  0  0
  -33.4088  -23.6741   20.9037 C   0  0  0  0  0  0  0  0  0  0  0  0
  -30.6935  -23.6836   20.2926 C   0  0  0  0  0  0  0  0  0  0  0  0
  -26.6320  -26.6551   20.8580 C   0  0  0  0  0  0  0  0  0  0  0  0
  -21.9336   -9.0271   20.3558 C   0  0  0  0  0  0  0  0  0  0  0  0
  -23.5874   -8.2465   21.9346 C   0  0  0  0  0  0  0  0  0  0  0  0
  -25.6615  -26.6038   19.8584 C   0  0  0  0  0  0  0  0  0  0  0  0
  -20.8415   -7.2824   23.6524 C   0  0  0  0  0  0  0  0  0  0  0  0
  -20.6579   -6.8403   24.9625 C   0  0  0  0  0  0  0  0  0  0  0  0
  -24.3260  -25.1438   21.2383 C   0  0  0  0  0  0  0  0  0  0  0  0
  -21.7810   -4.7707   24.4216 C   0  0  0  0  0  0  0  0  0  0  0  0
  -23.8620  -10.3925   20.8595 C   0  0  0  0  0  0  0  0  0  0  0  0
  -24.1954  -12.9213   20.9033 C   0  0  0  0  0  0  0  0  0  0  0  0
  -32.4926  -23.1570   21.8331 C   0  0  0  0  0  0  0  0  0  0  0  0
  -26.4615  -25.9411   22.0528 C   0  0  0  0  0  0  0  0  0  0  0  0
  -31.1196  -23.1515   21.5214 C   0  0  0  0  0  0  0  0  0  0  0  0
  -25.2947  -25.1897   22.2525 C   0  0  0  0  0  0  0  0  0  0  0  0
  -22.3934   -8.0515   21.2404 C   0  0  0  0  0  0  0  0  0  0  0  0
  -24.5096  -25.8458   20.0473 C   0  0  0  0  0  0  0  0  0  0  0  0
  -21.4948   -6.4686   22.7268 C   0  0  0  0  0  0  0  0  0  0  0  0
  -21.1276   -5.5845   25.3471 C   0  0  0  0  0  0  0  0  0  0  0  0
  -21.9645   -5.2128   23.1114 C   0  0  0  0  0  0  0  0  0  0  0  0
  -24.6213  -11.6012   20.6628 C   0  0  0  0  0  0  0  0  0  0  0  0
  -25.2756  -13.6981   20.5622 C   0  0  0  0  0  0  0  0  0  0  0  0
  -22.9361  -13.4023   21.3915 C   0  0  0  0  0  0  0  0  0  0  0  0
  -28.0339  -23.5915   23.5058 C   0  0  0  0  0  0  0  0  0  0  0  0
  -25.9063  -24.1650   25.8863 C   0  0  0  0  0  0  0  0  0  0  0  0
  -22.3790  -24.8758   26.1508 C   0  0  0  0  0  0  0  0  0  0  0  0
  -30.7604  -14.7230   20.6682 C   0  0  0  0  0  0  0  0  0  0  0  0
  -33.0176  -22.5587   23.1142 C   0  0  0  0  0  0  0  0  0  0  0  0
  -27.5055  -26.0281   23.1322 C   0  0  0  0  0  0  0  0  0  0  0  0
  -25.0544  -24.4212   23.5254 C   0  0  0  0  0  0  0  0  0  0  0  0
  -31.9441  -22.3694   24.1828 C   0  0  0  0  0  0  0  0  0  0  0  0
  -24.1971  -25.8809   15.3561 C   0  0  0  0  0  0  0  0  0  0  0  0
  -23.4048  -24.6363   14.9723 C   0  0  0  0  0  0  0  0  0  0  0  0
  -29.5615  -12.5030   18.1561 C   0  0  0  0  0  0  0  0  0  0  0  0
  -30.6986  -21.7271   23.5804 C   0  0  0  0  0  0  0  0  0  0  0  0
  -28.1372  -12.1748   18.6075 C   0  0  0  0  0  0  0  0  0  0  0  0
  -23.8313  -26.3813   16.7478 C   0  0  0  0  0  0  0  0  0  0  0  0
  -23.5362  -23.5347   16.0241 C   0  0  0  0  0  0  0  0  0  0  0  0
  -30.5113  -12.6447   19.3435 C   0  0  0  0  0  0  0  0  0  0  0  0
  -28.6474  -13.2719   20.8289 C   0  0  0  0  0  0  0  0  0  0  0  0
  -30.0885  -22.6198   22.4931 C   0  0  1  0  0  0  0  0  0  0  0  0
  -27.4647  -24.8490   24.0994 C   0  0  1  0  0  0  0  0  0  0  0  0
  -27.6412  -13.1745   19.6695 C   0  0  2  0  0  0  0  0  0  0  0  0
  -23.9663  -25.2794   17.8024 C   0  0  2  0  0  0  0  0  0  1  0  0
  -23.1601  -24.0009   17.4508 C   0  0  2  0  0  0  0  0  0  0  0  0
  -21.0928  -26.1195   27.9104 C   0  0  0  0  0  0  0  0  0  0  0  0
  -20.9036  -23.3379   16.5713 C   0  0  0  0  0  0  0  0  0  0  0  0
  -21.1675  -24.0008   18.9785 C   0  0  0  0  0  0  0  0  0  0  0  0
  -25.4683  -21.4031   27.1067 C   0  0  0  0  0  0  0  0  0  0  0  0
  -23.1415  -22.1113   27.7007 C   0  0  0  0  0  0  0  0  0  0  0  0
  -25.0969  -23.3102   28.6813 C   0  0  0  0  0  0  0  0  0  0  0  0
  -21.2125  -26.7248   24.1560 C   0  0  0  0  0  0  0  0  0  0  0  0
  -23.5170  -22.8788   18.4479 C   0  0  0  0  0  0  0  0  0  0  0  0
  -24.9836  -22.4459   18.3834 C   0  0  0  0  0  0  0  0  0  0  0  0
  -25.3801  -21.2974   19.3162 C   0  0  0  0  0  0  0  0  0  0  0  0
  -26.8728  -20.9650   19.2720 C   0  0  0  0  0  0  0  0  0  0  0  0
  -27.2068  -19.7922   20.1969 C   0  0  0  0  0  0  0  0  0  0  0  0
  -28.7049  -19.4793   20.1804 C   0  0  0  0  0  0  0  0  0  0  0  0
  -29.0403  -18.3273   21.1302 C   0  0  0  0  0  0  0  0  0  0  0  0
  -30.5309  -17.9818   21.1618 C   0  0  0  0  0  0  0  0  0  0  0  0
  -30.8565  -16.7842   22.0472 C   0  0  0  0  0  0  0  0  0  0  0  0
  -24.5328  -23.6480   26.2401 C   0  0  1  0  0  0  0  0  0  0  0  0
  -21.7453  -26.1995   26.5390 C   0  0  2  0  0  0  0  0  0  0  0  0
  -21.6383  -24.2399   17.5518 C   0  0  0  0  0  0  0  0  0  0  0  0
  -24.5689  -22.6192   27.4053 C   0  0  0  0  0  0  0  0  0  0  0  0
  -25.8742  -11.5391   20.2041 N   0  0  0  0  0  0  0  0  0  0  0  0
  -26.2449  -12.8299   20.1536 N   0  0  0  0  0  0  0  0  0  0  0  0
  -26.1073  -24.5329   24.5483 N   0  0  0  0  0  0  0  0  0  0  0  0
  -29.9836  -13.6081   20.3127 N   0  0  0  0  0  0  0  0  0  0  0  0
  -25.4813  -15.0322   20.5747 N   0  0  0  0  0  0  0  0  0  0  0  0
  -22.7686  -13.5512   22.7750 N   0  0  0  0  0  0  0  0  0  0  0  0
  -29.3467  -23.7093   23.0910 N   0  0  0  0  0  0  0  0  0  0  0  0
  -23.7103  -24.8233   26.5059 N   0  0  0  0  0  0  0  0  0  0  0  0
  -30.1831  -15.5898   21.5881 N   0  0  0  0  0  0  0  0  0  0  0  0
  -20.7045  -26.5867   25.5452 N   0  3  0  0  0  0  0  0  0  0  0  0
  -21.9819  -13.6760   20.6247 O   0  0  0  0  0  0  0  0  0  0  0  0
  -27.3343  -22.5882   23.4310 O   0  0  0  0  0  0  0  0  0  0  0  0
  -26.7670  -24.2465   26.7662 O   0  0  0  0  0  0  0  0  0  0  0  0
  -21.7545  -23.9768   25.5920 O   0  0  0  0  0  0  0  0  0  0  0  0
  -31.8830  -14.9335   20.1964 O   0  0  0  0  0  0  0  0  0  0  0  0
  -21.6770   -6.9093   21.4267 O   0  0  0  0  0  0  0  0  0  0  0  0
  -23.5556  -25.7933   19.0674 O   0  0  0  0  0  0  0  0  0  1  0  0
  -20.9526   -5.1607   26.6057 F   0  0  0  0  0  0  0  0  0  0  0  0
  -22.5939   -4.4271   22.2269 F   0  0  0  0  0  0  0  0  0  0  0  0
  1  2  1  0  0  0  0
  1  5  2  0  0  0  0
  2  6  2  0  0  0  0
  3  8  2  0  0  0  0
  3 15  1  0  0  0  0
  4  9  1  0  0  0  0
  4 15  2  0  0  0  0
  5 17  1  0  0  0  0
  6 19  1  0  0  0  0
  7 10  2  0  0  0  0
  7 18  1  0  0  0  0
  8 21  1  0  0  0  0
  9 21  2  0  0  0  0
 10 22  1  0  0  0  0
 11 12  2  0  0  0  0
 11 23  1  0  0  0  0
 12 24  1  0  0  0  0
 13 20  1  0  0  0  0
 13 22  2  0  0  0  0
 14 24  2  0  0  0  0
 14 25  1  0  0  0  0
 15 26  1  0  0  0  0
 16 26  1  0  0  0  0
 16 27  2  0  0  0  0
 16 28  1  0  0  0  0
 17 19  2  0  0  0  0
 17 33  1  0  0  0  0
 18 20  2  0  0  0  0
 18 34  1  0  0  0  0
 19 46  1  0  0  0  0
 20 35  1  0  0  0  0
 21 86  1  0  0  0  0
 22 87  1  0  0  0  0
 23 25  2  0  0  0  0
 23 86  1  0  0  0  0
 24 88  1  0  0  0  0
 25 89  1  0  0  0  0
 26 71  2  0  0  0  0
 27 72  1  0  0  0  0
 27 75  1  0  0  0  0
 28 76  1  0  0  0  0
 28 81  2  0  0  0  0
 29 47  1  0  0  0  0
 29 77  1  0  0  0  0
 29 82  2  0  0  0  0
 30 67  1  0  0  0  0
 30 73  1  0  0  0  0
 30 83  2  0  0  0  0
 31 68  1  0  0  0  0
 31 78  1  0  0  0  0
 31 84  2  0  0  0  0
 32 74  1  0  0  0  0
 32 79  1  0  0  0  0
 32 85  2  0  0  0  0
 33 36  1  0  0  0  0
 34 47  1  0  0  0  0
 35 73  1  0  0  0  0
 36 40  1  0  0  0  0
 37 38  1  0  0  0  0
 37 42  1  0  0  0  0
 38 43  1  0  0  0  0
 39 41  1  0  0  0  0
 39 44  1  0  0  0  0
 40 46  1  0  0  0  0
 41 48  1  0  0  0  0
 42 49  1  0  0  0  0
 43 50  1  0  0  0  0
 44 74  1  0  0  0  0
 45 48  1  0  0  0  0
 45 74  1  0  0  0  0
 46 77  1  0  0  0  0
 47 73  1  0  0  0  0
 48 72  1  0  0  0  0
 49 50  1  0  0  0  0
 49 87  1  0  0  0  0
 50 58  1  0  0  0  0
 50 69  1  0  0  0  0
 51 68  1  0  0  0  0
 52 69  1  0  0  0  0
 53 69  1  0  0  0  0
 54 70  1  0  0  0  0
 55 70  1  0  0  0  0
 56 70  1  0  0  0  0
 57 80  1  0  0  0  0
 58 59  1  0  0  0  0
 59 60  1  0  0  0  0
 60 61  1  0  0  0  0
 61 62  1  0  0  0  0
 62 63  1  0  0  0  0
 63 64  1  0  0  0  0
 64 65  1  0  0  0  0
 65 66  1  0  0  0  0
 66 79  1  0  0  0  0
 67 70  1  0  0  0  0
 67 78  1  0  0  0  0
 68 80  1  0  0  0  0
 71 72  1  0  0  0  0
M  CHG  1  80   1
M  ISO  4  32 100  49 101  79 100  87 101
M  END
> <Batch ID>
0033

> <Smiles>
CNC(C)C(=O)NC(C(=O)N1Cc2cc([101O:1][101CH:1]3CCCCC3(CCCCCCCCC[100NH:0][100C:0](=O)N3CCCC(n4nc(-c5ccc(Oc6ccc(F)cc6F)cc5)c(C(N)=O)c4N)C3)C(C)C)ccc2CC1C(=O)NC1CCCc2ccccc21)C(C)(C)C

> <Shape>
0.231

> <Color>
0.183

> <Negative vol penalty>
0.000

$$$$

  -OEChem-04052316483D

 84 92  0     1  0  0  0  0  0999 V2000
  -17.2792  -24.6671   24.1410 C   0  0  0  0  0  0  0  0  0  0  0  0
  -18.0613  -23.9234   23.2632 C   0  0  0  0  0  0  0  0  0  0  0  0
  -25.9594  -13.2502   21.8567 C   0  0  0  0  0  0  0  0  0  0  0  0
  -24.2718  -14.7856   21.0621 C   0  0  0  0  0  0  0  0  0  0  0  0
  -17.4239  -26.0526   24.1991 C   0  0  0  0  0  0  0  0  0  0  0  0
  -18.9879  -24.5650   22.4421 C   0  0  0  0  0  0  0  0  0  0  0  0
  -24.4432  -22.4192   20.6698 C   0  0  0  0  0  0  0  0  0  0  0  0
  -24.9768  -12.2859   22.0805 C   0  0  0  0  0  0  0  0  0  0  0  0
  -23.2891  -13.8213   21.2859 C   0  0  0  0  0  0  0  0  0  0  0  0
  -24.8704  -21.7959   19.4981 C   0  0  0  0  0  0  0  0  0  0  0  0
  -22.9585   -9.2948   22.5218 C   0  0  0  0  0  0  0  0  0  0  0  0
  -23.2217   -7.9910   22.1018 C   0  0  0  0  0  0  0  0  0  0  0  0
  -25.6355  -23.9219   18.6532 C   0  0  0  0  0  0  0  0  0  0  0  0
  -29.2885  -21.0959   17.6337 C   0  0  0  0  0  0  0  0  0  0  0  0
  -30.1171  -22.7275   15.5280 C   0  0  0  0  0  0  0  0  0  0  0  0
  -23.4547   -8.7708   19.8270 C   0  0  0  0  0  0  0  0  0  0  0  0
  -25.6070  -14.5001   21.3475 C   0  0  0  0  0  0  0  0  0  0  0  0
  -27.3613  -15.6993   19.9362 C   0  0  0  0  0  0  0  0  0  0  0  0
  -18.3595  -26.7105   23.3853 C   0  0  0  0  0  0  0  0  0  0  0  0
  -24.5994  -23.8026   20.8377 C   0  0  0  0  0  0  0  0  0  0  0  0
  -19.1444  -25.9607   22.4884 C   0  0  0  0  0  0  0  0  0  0  0  0
  -25.2118  -24.5599   19.8290 C   0  0  0  0  0  0  0  0  0  0  0  0
  -30.4380  -21.8749   17.7657 C   0  0  0  0  0  0  0  0  0  0  0  0
  -28.5533  -21.1326   16.4489 C   0  0  0  0  0  0  0  0  0  0  0  0
  -30.8523  -22.6907   16.7128 C   0  0  0  0  0  0  0  0  0  0  0  0
  -23.6416  -12.5714   21.7951 C   0  0  0  0  0  0  0  0  0  0  0  0
  -25.4640  -22.5477   18.4884 C   0  0  0  0  0  0  0  0  0  0  0  0
  -22.9433  -10.3366   21.5944 C   0  0  0  0  0  0  0  0  0  0  0  0
  -23.4699   -7.7290   20.7544 C   0  0  0  0  0  0  0  0  0  0  0  0
  -23.1914  -10.0746   20.2471 C   0  0  0  0  0  0  0  0  0  0  0  0
  -28.9676  -21.9484   15.3960 C   0  0  0  0  0  0  0  0  0  0  0  0
  -26.6215  -15.4968   21.1167 C   0  0  0  0  0  0  0  0  0  0  0  0
  -28.1869  -16.7580   20.2257 C   0  0  0  0  0  0  0  0  0  0  0  0
  -27.3068  -14.9935   18.6893 C   0  0  0  0  0  0  0  0  0  0  0  0
  -22.6140  -26.2502   21.2511 C   0  0  0  0  0  0  0  0  0  0  0  0
  -25.3693  -27.9110   21.6658 C   0  0  0  0  0  0  0  0  0  0  0  0
  -28.7229  -28.1521   21.0807 C   0  0  0  0  0  0  0  0  0  0  0  0
  -29.0232  -21.8171   22.4284 C   0  0  0  0  0  0  0  0  0  0  0  0
  -18.4468  -28.2148   23.4494 C   0  0  0  0  0  0  0  0  0  0  0  0
  -24.1575  -24.4556   22.1186 C   0  0  0  0  0  0  0  0  0  0  0  0
  -25.4210  -26.0449   19.9686 C   0  0  0  0  0  0  0  0  0  0  0  0
  -19.7152  -28.7790   22.8146 C   0  0  0  0  0  0  0  0  0  0  0  0
  -29.2122  -19.0251   24.6298 C   0  0  0  0  0  0  0  0  0  0  0  0
  -19.9671  -28.1300   21.4573 C   0  0  0  0  0  0  0  0  0  0  0  0
  -28.6106  -17.8772   23.8171 C   0  0  0  0  0  0  0  0  0  0  0  0
  -28.4997  -20.3470   24.3523 C   0  0  0  0  0  0  0  0  0  0  0  0
  -27.8166  -19.5716   22.1149 C   0  0  0  0  0  0  0  0  0  0  0  0
  -20.1779  -26.6178   21.5995 C   0  0  1  0  0  0  0  0  0  0  0  0
  -23.8999  -25.9518   21.9686 C   0  0  1  0  0  0  0  0  0  0  0  0
  -28.5383  -18.2285   22.3189 C   0  0  2  0  0  0  0  0  0  0  0  0
  -32.0813  -23.5313   16.8304 C   0  0  0  0  0  0  0  0  0  0  0  0
  -31.0563  -29.0601   21.2478 C   0  0  0  0  0  0  0  0  0  0  0  0
  -24.3846  -29.8384   19.5152 C   0  0  0  0  0  0  0  0  0  0  0  0
  -26.7252  -30.7050   19.3185 C   0  0  0  0  0  0  0  0  0  0  0  0
  -25.4887  -30.9354   21.4727 C   0  0  0  0  0  0  0  0  0  0  0  0
  -29.3163  -26.5072   23.4684 C   0  0  0  0  0  0  0  0  0  0  0  0
  -31.2112  -21.8183   19.0422 C   0  0  0  0  0  0  0  0  0  0  0  0
  -27.3158  -20.2745   16.3464 C   0  0  0  0  0  0  0  0  0  0  0  0
  -30.9525  -23.0008   19.9953 C   0  0  0  0  0  0  0  0  0  0  0  0
  -29.4907  -23.1724   20.4027 C   0  0  0  0  0  0  0  0  0  0  0  0
  -26.3040  -20.5827   17.4447 C   0  0  0  0  0  0  0  0  0  1  0  0
  -26.3157  -28.6563   20.7559 C   0  0  1  0  0  0  0  0  0  0  0  0
  -29.8881  -28.4503   22.0069 C   0  0  2  0  0  0  0  0  0  0  0  0
  -25.7230  -30.0061   20.2618 C   0  0  0  0  0  0  0  0  0  0  0  0
  -26.9485  -16.3577   22.0841 N   0  0  0  0  0  0  0  0  0  0  0  0
  -27.9029  -17.1113   21.5121 N   0  0  0  0  0  0  0  0  0  0  0  0
  -24.9664  -26.6384   21.2370 N   0  0  0  0  0  0  0  0  0  0  0  0
  -28.4669  -20.6221   22.9139 N   0  0  0  0  0  0  0  0  0  0  0  0
  -29.1211  -17.4118   19.5030 N   0  0  0  0  0  0  0  0  0  0  0  0
  -26.4015  -13.9313   18.5618 N   0  0  0  0  0  0  0  0  0  0  0  0
  -21.5131  -26.3368   22.0818 N   0  0  0  0  0  0  0  0  0  0  0  0
  -27.5696  -28.7873   21.4901 N   0  0  0  0  0  0  0  0  0  0  0  0
  -28.9560  -21.9964   21.0522 N   0  0  0  0  0  0  0  0  0  0  0  0
  -30.3581  -27.1997   22.6672 N   0  3  0  0  0  0  0  0  0  0  0  0
  -28.0509  -15.2854   17.7225 O   0  0  0  0  0  0  0  0  0  0  0  0
  -22.6203  -26.3930   20.0340 O   0  0  0  0  0  0  0  0  0  0  0  0
  -25.0067  -28.4356   22.7217 O   0  0  0  0  0  0  0  0  0  0  0  0
  -28.8264  -27.4310   20.0909 O   0  0  0  0  0  0  0  0  0  0  0  0
  -29.5462  -22.6591   23.1663 O   0  0  0  0  0  0  0  0  0  0  0  0
  -22.6825  -11.6306   22.0131 O   0  0  0  0  0  0  0  0  0  0  0  0
  -25.8813  -21.9419   17.3435 O   0  0  0  0  0  0  0  0  0  1  0  0
  -23.7242   -6.4771   20.3515 F   0  0  0  0  0  0  0  0  0  0  0  0
  -23.1793  -11.0716   19.3516 F   0  0  0  0  0  0  0  0  0  0  0  0
  -28.0836  -22.0196   13.9152 Cl  0  0  0  0  0  0  0  0  0  0  0  0
  1  2  1  0  0  0  0
  1  5  2  0  0  0  0
  2  6  2  0  0  0  0
  3  8  2  0  0  0  0
  3 17  1  0  0  0  0
  4  9  1  0  0  0  0
  4 17  2  0  0  0  0
  5 19  1  0  0  0  0
  6 21  1  0  0  0  0
  7 10  2  0  0  0  0
  7 20  1  0  0  0  0
  8 26  1  0  0  0  0
  9 26  2  0  0  0  0
 10 27  1  0  0  0  0
 11 12  2  0  0  0  0
 11 28  1  0  0  0  0
 12 29  1  0  0  0  0
 13 22  1  0  0  0  0
 13 27  2  0  0  0  0
 14 23  2  0  0  0  0
 14 24  1  0  0  0  0
 15 25  2  0  0  0  0
 15 31  1  0  0  0  0
 16 29  2  0  0  0  0
 16 30  1  0  0  0  0
 17 32  1  0  0  0  0
 18 32  1  0  0  0  0
 18 33  2  0  0  0  0
 18 34  1  0  0  0  0
 19 21  2  0  0  0  0
 19 39  1  0  0  0  0
 20 22  2  0  0  0  0
 20 40  1  0  0  0  0
 21 48  1  0  0  0  0
 22 41  1  0  0  0  0
 23 25  1  0  0  0  0
 23 57  1  0  0  0  0
 24 31  2  0  0  0  0
 24 58  1  0  0  0  0
 25 51  1  0  0  0  0
 26 80  1  0  0  0  0
 27 81  1  0  0  0  0
 28 30  2  0  0  0  0
 28 80  1  0  0  0  0
 29 82  1  0  0  0  0
 30 83  1  0  0  0  0
 31 84  1  0  0  0  0
 32 65  2  0  0  0  0
 33 66  1  0  0  0  0
 33 69  1  0  0  0  0
 34 70  1  0  0  0  0
 34 75  2  0  0  0  0
 35 49  1  0  0  0  0
 35 71  1  0  0  0  0
 35 76  2  0  0  0  0
 36 62  1  0  0  0  0
 36 67  1  0  0  0  0
 36 77  2  0  0  0  0
 37 63  1  0  0  0  0
 37 72  1  0  0  0  0
 37 78  2  0  0  0  0
 38 68  1  0  0  0  0
 38 73  1  0  0  0  0
 38 79  2  0  0  0  0
 39 42  1  0  0  0  0
 40 49  1  0  0  0  0
 41 67  1  0  0  0  0
 42 44  1  0  0  0  0
 43 45  1  0  0  0  0
 43 46  1  0  0  0  0
 44 48  1  0  0  0  0
 45 50  1  0  0  0  0
 46 68  1  0  0  0  0
 47 50  1  0  0  0  0
 47 68  1  0  0  0  0
 48 71  1  0  0  0  0
 49 67  1  0  0  0  0
 50 66  1  0  0  0  0
 52 63  1  0  0  0  0
 53 64  1  0  0  0  0
 54 64  1  0  0  0  0
 55 64  1  0  0  0  0
 56 74  1  0  0  0  0
 57 59  1  0  0  0  0
 58 61  1  0  0  0  0
 59 60  1  0  0  0  0
 60 73  1  0  0  0  0
 61 81  1  0  0  0  0
 62 64  1  0  0  0  0
 62 72  1  0  0  0  0
 63 74  1  0  0  0  0
 65 66  1  0  0  0  0
M  CHG  1  74   1
M  ISO  4  38 100  61 101  73 100  81 101
M  END
> <Batch ID>
0033

> <Smiles>
CNC(C)C(=O)NC(C(=O)N1Cc2cc([101O:1][101CH2:1]Cc3cc(CCC[100NH:0][100C:0](=O)N4CCCC(n5nc(-c6ccc(Oc7ccc(F)cc7F)cc6)c(C(N)=O)c5N)C4)c(C)cc3Cl)ccc2CC1C(=O)NC1CCCc2ccccc21)C(C)(C)C

> <Shape>
0.220

> <Color>
0.054

> <Negative vol penalty>
0.000

$$$$

  -OEChem-04052316483D

 88 96  0     1  0  0  0  0  0999 V2000
  -32.4708  -15.5623   21.2985 C   0  0  0  0  0  0  0  0  0  0  0  0
  -31.5371  -16.5914   21.3654 C   0  0  0  0  0  0  0  0  0  0  0  0
  -27.2621  -23.1315   18.7218 C   0  0  0  0  0  0  0  0  0  0  0  0
  -26.7143  -22.6877   21.0326 C   0  0  0  0  0  0  0  0  0  0  0  0
  -32.1086  -14.3278   20.7610 C   0  0  0  0  0  0  0  0  0  0  0  0
  -30.2408  -16.3870   20.8938 C   0  0  0  0  0  0  0  0  0  0  0  0
  -25.0766  -18.7619   23.1733 C   0  0  0  0  0  0  0  0  0  0  0  0
  -28.2177  -22.1159   18.7533 C   0  0  0  0  0  0  0  0  0  0  0  0
  -27.6699  -21.6721   21.0641 C   0  0  0  0  0  0  0  0  0  0  0  0
  -24.3019  -19.8580   22.7963 C   0  0  0  0  0  0  0  0  0  0  0  0
  -28.2703  -18.7392   18.5857 C   0  0  0  0  0  0  0  0  0  0  0  0
  -28.3064  -17.8496   17.5119 C   0  0  0  0  0  0  0  0  0  0  0  0
  -22.8573  -18.3953   21.5343 C   0  0  0  0  0  0  0  0  0  0  0  0
  -18.4789  -28.3206   22.3242 C   0  0  0  0  0  0  0  0  0  0  0  0
  -30.5838  -18.5069   17.0440 C   0  0  0  0  0  0  0  0  0  0  0  0
  -26.5105  -23.4175   19.8615 C   0  0  0  0  0  0  0  0  0  0  0  0
  -24.1643  -24.3454   19.4844 C   0  0  0  0  0  0  0  0  0  0  0  0
  -30.8046  -14.1051   20.2914 C   0  0  0  0  0  0  0  0  0  0  0  0
  -24.7533  -17.4735   22.7240 C   0  0  0  0  0  0  0  0  0  0  0  0
  -29.8612  -15.1488   20.3483 C   0  0  0  0  0  0  0  0  0  0  0  0
  -23.6280  -17.2841   21.9091 C   0  0  0  0  0  0  0  0  0  0  0  0
  -18.0440  -27.1901   21.6324 C   0  0  0  0  0  0  0  0  0  0  0  0
  -19.5286  -28.2187   23.2371 C   0  0  0  0  0  0  0  0  0  0  0  0
  -19.7086  -25.8558   22.7665 C   0  0  0  0  0  0  0  0  0  0  0  0
  -28.4216  -21.3861   19.9244 C   0  0  0  0  0  0  0  0  0  0  0  0
  -23.1938  -19.6752   21.9743 C   0  0  0  0  0  0  0  0  0  0  0  0
  -29.3909  -19.5127   18.8886 C   0  0  0  0  0  0  0  0  0  0  0  0
  -29.4631  -17.7335   16.7411 C   0  0  0  0  0  0  0  0  0  0  0  0
  -30.5476  -19.3966   18.1177 C   0  0  0  0  0  0  0  0  0  0  0  0
  -18.6588  -25.9577   21.8535 C   0  0  0  0  0  0  0  0  0  0  0  0
  -20.1434  -26.9863   23.4582 C   0  0  0  0  0  0  0  0  0  0  0  0
  -25.5236  -24.4669   19.8298 C   0  0  0  0  0  0  0  0  0  0  0  0
  -23.6629  -25.6178   19.6108 C   0  0  0  0  0  0  0  0  0  0  0  0
  -23.4213  -23.1860   19.0851 C   0  0  0  0  0  0  0  0  0  0  0  0
  -26.2167  -15.2868   20.9406 C   0  0  0  0  0  0  0  0  0  0  0  0
  -23.6699  -13.4618   21.7806 C   0  0  0  0  0  0  0  0  0  0  0  0
  -20.4242  -13.3228   22.8260 C   0  0  0  0  0  0  0  0  0  0  0  0
  -23.2237  -30.4188   22.4219 C   0  0  0  0  0  0  0  0  0  0  0  0
  -30.4731  -12.7689   19.6755 C   0  0  0  0  0  0  0  0  0  0  0  0
  -25.5835  -16.2980   23.1615 C   0  0  0  0  0  0  0  0  0  0  0  0
  -23.2265  -15.9187   21.4164 C   0  0  0  0  0  0  0  0  0  0  0  0
  -28.9738  -12.5152   19.5414 C   0  0  0  0  0  0  0  0  0  0  0  0
  -26.0306  -30.0397   20.2645 C   0  0  0  0  0  0  0  0  0  0  0  0
  -28.2758  -13.7381   18.9548 C   0  0  0  0  0  0  0  0  0  0  0  0
  -26.0402  -28.5457   19.9360 C   0  0  0  0  0  0  0  0  0  0  0  0
  -25.5915  -30.2981   21.7041 C   0  0  0  0  0  0  0  0  0  0  0  0
  -24.3125  -28.1920   21.7494 C   0  0  0  0  0  0  0  0  0  0  0  0
  -28.4383  -14.9579   19.8697 C   0  0  1  0  0  0  0  0  0  0  0  0
  -25.4615  -15.0992   22.2260 C   0  0  1  0  0  0  0  0  0  0  0  0
  -24.6949  -27.8847   20.2914 C   0  0  2  0  0  0  0  0  0  0  0  0
  -16.9163  -27.3486   20.6634 C   0  0  0  0  0  0  0  0  0  0  0  0
  -18.6041  -11.6893   23.3888 C   0  0  0  0  0  0  0  0  0  0  0  0
  -19.4222  -23.6124   24.9811 C   0  0  0  0  0  0  0  0  0  0  0  0
  -23.2212  -12.9412   18.8077 C   0  0  0  0  0  0  0  0  0  0  0  0
  -20.9179  -12.1354   19.3677 C   0  0  0  0  0  0  0  0  0  0  0  0
  -22.9104  -10.9405   20.2757 C   0  0  0  0  0  0  0  0  0  0  0  0
  -20.2488  -14.3010   25.6137 C   0  0  0  0  0  0  0  0  0  0  0  0
  -19.9604  -29.4572   23.9550 C   0  0  0  0  0  0  0  0  0  0  0  0
  -20.2411  -21.7550   21.6861 C   0  0  0  0  0  0  0  0  0  0  0  0
  -20.4115  -22.1926   23.1476 C   0  0  0  0  0  0  0  0  0  0  0  0
  -20.8380  -30.3810   23.1048 C   0  0  0  0  0  0  0  0  0  0  0  0
  -21.0504  -20.5043   21.3623 C   0  0  0  0  0  0  0  0  0  1  0  0
  -22.2976  -13.2111   21.2036 C   0  0  1  0  0  0  0  0  0  0  0  0
  -19.7547  -12.5238   23.9296 C   0  0  2  0  0  0  0  0  0  0  0  0
  -19.6182  -23.4653   23.4755 C   0  0  2  0  0  0  0  0  0  0  0  0
  -22.3452  -12.3332   19.9212 C   0  0  0  0  0  0  0  0  0  0  0  0
  -25.8641  -25.7178   20.1513 N   0  0  0  0  0  0  0  0  0  0  0  0
  -24.7116  -26.3940   20.0083 N   0  0  0  0  0  0  0  0  0  0  0  0
  -24.0736  -14.8018   21.8664 N   0  0  0  0  0  0  0  0  0  0  0  0
  -24.3084  -29.6458   21.9760 N   0  0  0  0  0  0  0  0  0  0  0  0
  -22.4317  -26.1373   19.4194 N   0  0  0  0  0  0  0  0  0  0  0  0
  -24.0911  -21.9573   19.0072 N   0  0  0  0  0  0  0  0  0  0  0  0
  -20.3189  -24.6338   22.9850 N   0  0  0  0  0  0  0  0  0  0  0  0
  -27.5329  -14.8697   20.9953 N   0  0  0  0  0  0  0  0  0  0  0  0
  -21.4971  -12.6466   22.2848 N   0  0  0  0  0  0  0  0  0  0  0  0
  -22.0426  -29.7232   22.6498 N   0  0  0  0  0  0  0  0  0  0  0  0
  -19.2203  -13.4370   24.9791 N   0  3  0  0  0  0  0  0  0  0  0  0
  -22.2034  -23.2410   18.7899 O   0  0  0  0  0  0  0  0  0  0  0  0
  -25.6469  -15.7727   19.9706 O   0  0  0  0  0  0  0  0  0  0  0  0
  -24.3554  -12.5045   22.1484 O   0  0  0  0  0  0  0  0  0  0  0  0
  -20.0321  -14.4339   22.4763 O   0  0  0  0  0  0  0  0  0  0  0  0
  -23.3005  -31.6395   22.5984 O   0  0  0  0  0  0  0  0  0  0  0  0
  -29.3537  -20.3949   19.9554 O   0  0  0  0  0  0  0  0  0  0  0  0
  -22.4363  -20.7434   21.6042 O   0  0  0  0  0  0  0  0  0  1  0  0
  -29.4982  -16.8781   15.7110 F   0  0  0  0  0  0  0  0  0  0  0  0
  -31.6277  -20.1362   18.4046 F   0  0  0  0  0  0  0  0  0  0  0  0
  -18.1100  -24.5595   20.9862 Cl  0  0  0  0  0  0  0  0  0  0  0  0
  -21.4486  -26.8722   24.5951 Cl  0  0  0  0  0  0  0  0  0  0  0  0
  1  2  1  0  0  0  0
  1  5  2  0  0  0  0
  2  6  2  0  0  0  0
  3  8  2  0  0  0  0
  3 16  1  0  0  0  0
  4  9  1  0  0  0  0
  4 16  2  0  0  0  0
  5 18  1  0  0  0  0
  6 20  1  0  0  0  0
  7 10  2  0  0  0  0
  7 19  1  0  0  0  0
  8 25  1  0  0  0  0
  9 25  2  0  0  0  0
 10 26  1  0  0  0  0
 11 12  2  0  0  0  0
 11 27  1  0  0  0  0
 12 28  1  0  0  0  0
 13 21  1  0  0  0  0
 13 26  2  0  0  0  0
 14 22  1  0  0  0  0
 14 23  2  0  0  0  0
 15 28  2  0  0  0  0
 15 29  1  0  0  0  0
 16 32  1  0  0  0  0
 17 32  1  0  0  0  0
 17 33  2  0  0  0  0
 17 34  1  0  0  0  0
 18 20  2  0  0  0  0
 18 39  1  0  0  0  0
 19 21  2  0  0  0  0
 19 40  1  0  0  0  0
 20 48  1  0  0  0  0
 21 41  1  0  0  0  0
 22 30  2  0  0  0  0
 22 51  1  0  0  0  0
 23 31  1  0  0  0  0
 23 58  1  0  0  0  0
 24 30  1  0  0  0  0
 24 31  2  0  0  0  0
 24 73  1  0  0  0  0
 25 83  1  0  0  0  0
 26 84  1  0  0  0  0
 27 29  2  0  0  0  0
 27 83  1  0  0  0  0
 28 85  1  0  0  0  0
 29 86  1  0  0  0  0
 30 87  1  0  0  0  0
 31 88  1  0  0  0  0
 32 67  2  0  0  0  0
 33 68  1  0  0  0  0
 33 71  1  0  0  0  0
 34 72  1  0  0  0  0
 34 78  2  0  0  0  0
 35 49  1  0  0  0  0
 35 74  1  0  0  0  0
 35 79  2  0  0  0  0
 36 63  1  0  0  0  0
 36 69  1  0  0  0  0
 36 80  2  0  0  0  0
 37 64  1  0  0  0  0
 37 75  1  0  0  0  0
 37 81  2  0  0  0  0
 38 70  1  0  0  0  0
 38 76  1  0  0  0  0
 38 82  2  0  0  0  0
 39 42  1  0  0  0  0
 40 49  1  0  0  0  0
 41 69  1  0  0  0  0
 42 44  1  0  0  0  0
 43 45  1  0  0  0  0
 43 46  1  0  0  0  0
 44 48  1  0  0  0  0
 45 50  1  0  0  0  0
 46 70  1  0  0  0  0
 47 50  1  0  0  0  0
 47 70  1  0  0  0  0
 48 74  1  0  0  0  0
 49 69  1  0  0  0  0
 50 68  1  0  0  0  0
 52 64  1  0  0  0  0
 53 65  1  0  0  0  0
 54 66  1  0  0  0  0
 55 66  1  0  0  0  0
 56 66  1  0  0  0  0
 57 77  1  0  0  0  0
 58 61  1  0  0  0  0
 59 60  1  0  0  0  0
 59 62  1  0  0  0  0
 60 65  1  0  0  0  0
 61 76  1  0  0  0  0
 62 84  1  0  0  0  0
 63 66  1  0  0  0  0
 63 75  1  0  0  0  0
 64 77  1  0  0  0  0
 65 73  1  0  0  0  0
 67 68  1  0  0  0  0
M  CHG  1  77   1
M  ISO  4  38 100  62 101  76 100  84 101
M  END
> <Batch ID>
0033

> <Smiles>
CNC(C)C(=O)NC(C(=O)N1Cc2cc([101O:1][101CH2:1]CCC(C)Nc3c(Cl)c(C)cc(CC[100NH:0][100C:0](=O)N4CCCC(n5nc(-c6ccc(Oc7ccc(F)cc7F)cc6)c(C(N)=O)c5N)C4)c3Cl)ccc2CC1C(=O)NC1CCCc2ccccc21)C(C)(C)C

> <Shape>
0.241

> <Color>
0.084

> <Negative vol penalty>
0.000

$$$$

  -OEChem-04052316483D

 82 90  0     1  0  0  0  0  0999 V2000
  -19.9160  -28.7910   25.8934 C   0  0  0  0  0  0  0  0  0  0  0  0
  -21.2377  -28.3629   25.8218 C   0  0  0  0  0  0  0  0  0  0  0  0
  -24.5760  -14.3151   21.3546 C   0  0  0  0  0  0  0  0  0  0  0  0
  -26.9675  -13.9752   21.3065 C   0  0  0  0  0  0  0  0  0  0  0  0
  -19.0866  -28.6783   24.7783 C   0  0  0  0  0  0  0  0  0  0  0  0
  -21.7306  -27.8208   24.6354 C   0  0  0  0  0  0  0  0  0  0  0  0
  -27.4066  -28.3888   22.4070 C   0  0  0  0  0  0  0  0  0  0  0  0
  -24.3839  -13.0389   20.8254 C   0  0  0  0  0  0  0  0  0  0  0  0
  -26.7754  -12.6989   20.7773 C   0  0  0  0  0  0  0  0  0  0  0  0
  -28.5179  -27.5478   22.4454 C   0  0  0  0  0  0  0  0  0  0  0  0
  -24.4056   -9.8487   21.9455 C   0  0  0  0  0  0  0  0  0  0  0  0
  -23.4226   -9.0473   22.5262 C   0  0  0  0  0  0  0  0  0  0  0  0
  -27.9417  -26.6965   20.2631 C   0  0  0  0  0  0  0  0  0  0  0  0
  -32.7284  -23.5182   22.7308 C   0  0  0  0  0  0  0  0  0  0  0  0
  -31.7208  -23.4838   20.5353 C   0  0  0  0  0  0  0  0  0  0  0  0
  -22.2674   -8.9292   20.4076 C   0  0  0  0  0  0  0  0  0  0  0  0
  -25.8678  -14.7833   21.5951 C   0  0  0  0  0  0  0  0  0  0  0  0
  -26.1448  -16.4555   23.5015 C   0  0  0  0  0  0  0  0  0  0  0  0
  -19.5723  -28.1435   23.5747 C   0  0  0  0  0  0  0  0  0  0  0  0
  -26.5469  -28.3821   21.2991 C   0  0  0  0  0  0  0  0  0  0  0  0
  -20.9065  -27.6996   23.5036 C   0  0  0  0  0  0  0  0  0  0  0  0
  -26.8216  -27.5402   20.2119 C   0  0  0  0  0  0  0  0  0  0  0  0
  -32.2391  -24.1981   21.6155 C   0  0  0  0  0  0  0  0  0  0  0  0
  -32.6997  -22.1241   22.7658 C   0  0  0  0  0  0  0  0  0  0  0  0
  -31.6920  -22.0897   20.5703 C   0  0  0  0  0  0  0  0  0  0  0  0
  -32.1814  -21.4098   21.6856 C   0  0  0  0  0  0  0  0  0  0  0  0
  -25.4836  -12.2308   20.5368 C   0  0  0  0  0  0  0  0  0  0  0  0
  -28.7840  -26.6994   21.3747 C   0  0  0  0  0  0  0  0  0  0  0  0
  -24.3194  -10.1904   20.5959 C   0  0  0  0  0  0  0  0  0  0  0  0
  -22.3535   -8.5876   21.7573 C   0  0  0  0  0  0  0  0  0  0  0  0
  -23.2503   -9.7306   19.8269 C   0  0  0  0  0  0  0  0  0  0  0  0
  -26.0669  -16.1017   22.1412 C   0  0  0  0  0  0  0  0  0  0  0  0
  -26.3387  -17.8152   23.4921 C   0  0  0  0  0  0  0  0  0  0  0  0
  -26.0503  -15.6290   24.6693 C   0  0  0  0  0  0  0  0  0  0  0  0
  -23.4752  -27.7007   20.8475 C   0  0  0  0  0  0  0  0  0  0  0  0
  -24.0805  -28.7724   17.8462 C   0  0  0  0  0  0  0  0  0  0  0  0
  -26.3701  -29.3452   15.3812 C   0  0  0  0  0  0  0  0  0  0  0  0
  -28.6608  -21.5747   19.4517 C   0  0  0  0  0  0  0  0  0  0  0  0
  -18.6248  -27.9982   22.4103 C   0  0  0  0  0  0  0  0  0  0  0  0
  -25.3674  -29.3146   21.2614 C   0  0  0  0  0  0  0  0  0  0  0  0
  -25.9411  -27.5097   18.9903 C   0  0  0  0  0  0  0  0  0  0  0  0
  -19.3297  -27.7581   21.0777 C   0  0  0  0  0  0  0  0  0  0  0  0
  -25.4025  -21.7130   20.8803 C   0  0  0  0  0  0  0  0  0  0  0  0
  -20.4071  -26.6890   21.2287 C   0  0  0  0  0  0  0  0  0  0  0  0
  -25.2103  -20.3225   21.4882 C   0  0  0  0  0  0  0  0  0  0  0  0
  -26.1878  -21.6534   19.5719 C   0  0  0  0  0  0  0  0  0  0  0  0
  -27.2900  -19.5612   20.2659 C   0  0  0  0  0  0  0  0  0  0  0  0
  -21.4849  -27.1290   22.2269 C   0  0  1  0  0  0  0  0  0  0  0  0
  -24.2717  -28.8537   20.3052 C   0  0  1  0  0  0  0  0  0  0  0  0
  -26.5518  -19.5759   21.6154 C   0  0  2  0  0  0  0  0  0  0  0  0
  -33.2290  -21.4201   23.9725 C   0  0  0  0  0  0  0  0  0  0  0  0
  -32.1503  -19.9150   21.7237 C   0  0  0  0  0  0  0  0  0  0  0  0
  -26.5594  -30.1923   13.0266 C   0  0  0  0  0  0  0  0  0  0  0  0
  -22.9334  -26.1417   16.8102 C   0  0  0  0  0  0  0  0  0  0  0  0
  -23.9995  -26.6286   14.5978 C   0  0  0  0  0  0  0  0  0  0  0  0
  -22.2534  -28.1627   15.5036 C   0  0  0  0  0  0  0  0  0  0  0  0
  -28.1577  -31.5581   16.1977 C   0  0  0  0  0  0  0  0  0  0  0  0
  -32.2708  -25.7067   21.5773 C   0  0  0  0  0  0  0  0  0  0  0  0
  -31.1317  -21.3482   19.4007 C   0  0  0  0  0  0  0  0  0  0  0  0
  -31.0015  -26.3281   22.1498 C   0  0  0  0  0  0  0  0  0  1  0  0
  -24.5506  -28.1386   16.5592 C   0  0  1  0  0  0  0  0  0  0  0  0
  -26.6216  -30.5568   14.5017 C   0  0  2  0  0  0  0  0  0  0  0  0
  -23.4499  -27.2668   15.8914 C   0  0  0  0  0  0  0  0  0  0  0  0
  -26.2003  -17.1519   21.3268 N   0  0  0  0  0  0  0  0  0  0  0  0
  -26.3638  -18.1790   22.1779 N   0  0  0  0  0  0  0  0  0  0  0  0
  -24.7965  -28.4354   19.0037 N   0  0  0  0  0  0  0  0  0  0  0  0
  -27.4498  -20.9340   19.7613 N   0  0  0  0  0  0  0  0  0  0  0  0
  -26.4884  -18.7232   24.4798 N   0  0  0  0  0  0  0  0  0  0  0  0
  -25.8505  -14.2523   24.4990 N   0  0  0  0  0  0  0  0  0  0  0  0
  -22.3870  -28.0783   21.6108 N   0  0  0  0  0  0  0  0  0  0  0  0
  -25.0391  -29.2289   15.7219 N   0  0  0  0  0  0  0  0  0  0  0  0
  -29.8104  -20.8243   19.6663 N   0  0  0  0  0  0  0  0  0  0  0  0
  -27.9656  -31.1339   14.7870 N   0  3  0  0  0  0  0  0  0  0  0  0
  -26.1241  -16.0998   25.8296 O   0  0  0  0  0  0  0  0  0  0  0  0
  -23.8215  -26.5535   20.5911 O   0  0  0  0  0  0  0  0  0  0  0  0
  -23.1182  -29.5438   17.8242 O   0  0  0  0  0  0  0  0  0  0  0  0
  -27.2643  -28.5767   15.7279 O   0  0  0  0  0  0  0  0  0  0  0  0
  -28.7140  -22.7318   19.0213 O   0  0  0  0  0  0  0  0  0  0  0  0
  -25.2965  -10.9854   20.0206 O   0  0  0  0  0  0  0  0  0  0  0  0
  -29.8677  -25.8770   21.4100 O   0  0  0  0  0  0  0  0  0  1  0  0
  -21.4105   -7.8168   22.3147 F   0  0  0  0  0  0  0  0  0  0  0  0
  -23.1628  -10.0546   18.5296 F   0  0  0  0  0  0  0  0  0  0  0  0
  1  2  1  0  0  0  0
  1  5  2  0  0  0  0
  2  6  2  0  0  0  0
  3  8  2  0  0  0  0
  3 17  1  0  0  0  0
  4  9  1  0  0  0  0
  4 17  2  0  0  0  0
  5 19  1  0  0  0  0
  6 21  1  0  0  0  0
  7 10  2  0  0  0  0
  7 20  1  0  0  0  0
  8 27  1  0  0  0  0
  9 27  2  0  0  0  0
 10 28  1  0  0  0  0
 11 12  2  0  0  0  0
 11 29  1  0  0  0  0
 12 30  1  0  0  0  0
 13 22  1  0  0  0  0
 13 28  2  0  0  0  0
 14 23  1  0  0  0  0
 14 24  2  0  0  0  0
 15 23  2  0  0  0  0
 15 25  1  0  0  0  0
 16 30  2  0  0  0  0
 16 31  1  0  0  0  0
 17 32  1  0  0  0  0
 18 32  1  0  0  0  0
 18 33  2  0  0  0  0
 18 34  1  0  0  0  0
 19 21  2  0  0  0  0
 19 39  1  0  0  0  0
 20 22  2  0  0  0  0
 20 40  1  0  0  0  0
 21 48  1  0  0  0  0
 22 41  1  0  0  0  0
 23 58  1  0  0  0  0
 24 26  1  0  0  0  0
 24 51  1  0  0  0  0
 25 26  2  0  0  0  0
 25 59  1  0  0  0  0
 26 52  1  0  0  0  0
 27 79  1  0  0  0  0
 28 80  1  0  0  0  0
 29 31  2  0  0  0  0
 29 79  1  0  0  0  0
 30 81  1  0  0  0  0
 31 82  1  0  0  0  0
 32 64  2  0  0  0  0
 33 65  1  0  0  0  0
 33 68  1  0  0  0  0
 34 69  1  0  0  0  0
 34 74  2  0  0  0  0
 35 49  1  0  0  0  0
 35 70  1  0  0  0  0
 35 75  2  0  0  0  0
 36 61  1  0  0  0  0
 36 66  1  0  0  0  0
 36 76  2  0  0  0  0
 37 62  1  0  0  0  0
 37 71  1  0  0  0  0
 37 77  2  0  0  0  0
 38 67  1  0  0  0  0
 38 72  1  0  0  0  0
 38 78  2  0  0  0  0
 39 42  1  0  0  0  0
 40 49  1  0  0  0  0
 41 66  1  0  0  0  0
 42 44  1  0  0  0  0
 43 45  1  0  0  0  0
 43 46  1  0  0  0  0
 44 48  1  0  0  0  0
 45 50  1  0  0  0  0
 46 67  1  0  0  0  0
 47 50  1  0  0  0  0
 47 67  1  0  0  0  0
 48 70  1  0  0  0  0
 49 66  1  0  0  0  0
 50 65  1  0  0  0  0
 53 62  1  0  0  0  0
 54 63  1  0  0  0  0
 55 63  1  0  0  0  0
 56 63  1  0  0  0  0
 57 73  1  0  0  0  0
 58 60  1  0  0  0  0
 59 72  1  0  0  0  0
 60 80  1  0  0  0  0
 61 63  1  0  0  0  0
 61 71  1  0  0  0  0
 62 73  1  0  0  0  0
 64 65  1  0  0  0  0
M  CHG  1  73   1
M  ISO  4  38 100  60 101  72 100  80 101
M  END
> <Batch ID>
0033

> <Smiles>
CNC(C)C(=O)NC(C(=O)N1Cc2cc([101O:1][101CH2:1]Cc3cc(C)c(C)c(C[100NH:0][100C:0](=O)N4CCCC(n5nc(-c6ccc(Oc7ccc(F)cc7F)cc6)c(C(N)=O)c5N)C4)c3)ccc2CC1C(=O)NC1CCCc2ccccc21)C(C)(C)C

> <Shape>
0.199

> <Color>
0.078

> <Negative vol penalty>
0.000

$$$$

  -OEChem-04052316483D

 79 87  0     1  0  0  0  0  0999 V2000
  -32.3067  -20.0926   34.4748 C   0  0  0  0  0  0  0  0  0  0  0  0
  -31.9692  -20.1281   33.1257 C   0  0  0  0  0  0  0  0  0  0  0  0
  -22.6903  -10.0575   20.0705 C   0  0  0  0  0  0  0  0  0  0  0  0
  -24.3059   -9.3734   21.7315 C   0  0  0  0  0  0  0  0  0  0  0  0
  -31.3443  -20.3830   35.4409 C   0  0  0  0  0  0  0  0  0  0  0  0
  -30.6686  -20.4530   32.7418 C   0  0  0  0  0  0  0  0  0  0  0  0
  -30.5431  -23.7383   28.8901 C   0  0  0  0  0  0  0  0  0  0  0  0
  -21.9848   -8.8705   20.2679 C   0  0  0  0  0  0  0  0  0  0  0  0
  -23.6004   -8.1864   21.9289 C   0  0  0  0  0  0  0  0  0  0  0  0
  -30.7858  -23.2326   27.6137 C   0  0  0  0  0  0  0  0  0  0  0  0
  -20.8216   -7.1861   23.5715 C   0  0  0  0  0  0  0  0  0  0  0  0
  -20.6019   -6.7755   24.8863 C   0  0  0  0  0  0  0  0  0  0  0  0
  -28.4128  -23.2026   27.1810 C   0  0  0  0  0  0  0  0  0  0  0  0
  -21.8062   -4.7275   24.4479 C   0  0  0  0  0  0  0  0  0  0  0  0
  -23.8509  -10.3089   20.8023 C   0  0  0  0  0  0  0  0  0  0  0  0
  -24.1063  -12.8471   20.7845 C   0  0  0  0  0  0  0  0  0  0  0  0
  -30.0337  -20.7211   35.0683 C   0  0  0  0  0  0  0  0  0  0  0  0
  -29.2307  -23.9701   29.3262 C   0  0  0  0  0  0  0  0  0  0  0  0
  -29.6874  -20.7469   33.7039 C   0  0  0  0  0  0  0  0  0  0  0  0
  -28.1563  -23.7137   28.4625 C   0  0  0  0  0  0  0  0  0  0  0  0
  -22.4398   -7.9350   21.1970 C   0  0  0  0  0  0  0  0  0  0  0  0
  -29.7204  -22.9619   26.7600 C   0  0  0  0  0  0  0  0  0  0  0  0
  -21.5335   -6.3674   22.6948 C   0  0  0  0  0  0  0  0  0  0  0  0
  -21.0942   -5.5462   25.3245 C   0  0  0  0  0  0  0  0  0  0  0  0
  -22.0259   -5.1381   23.1331 C   0  0  0  0  0  0  0  0  0  0  0  0
  -24.5804  -11.5346   20.5985 C   0  0  0  0  0  0  0  0  0  0  0  0
  -25.1748  -13.6472   20.4609 C   0  0  0  0  0  0  0  0  0  0  0  0
  -22.8156  -13.3022   21.2115 C   0  0  0  0  0  0  0  0  0  0  0  0
  -27.4120  -22.8309   31.6710 C   0  0  0  0  0  0  0  0  0  0  0  0
  -30.6409  -14.7753   20.8340 C   0  0  0  0  0  0  0  0  0  0  0  0
  -25.3416  -25.1075   30.6449 C   0  0  0  0  0  0  0  0  0  0  0  0
  -24.2741  -27.1192   28.1032 C   0  0  0  0  0  0  0  0  0  0  0  0
  -29.0156  -20.9810   36.1503 C   0  0  0  0  0  0  0  0  0  0  0  0
  -28.9871  -24.5411   30.6963 C   0  0  0  0  0  0  0  0  0  0  0  0
  -26.7297  -23.9643   28.8753 C   0  0  0  0  0  0  0  0  0  0  0  0
  -27.7566  -21.6819   35.6463 C   0  0  0  0  0  0  0  0  0  0  0  0
  -29.5756  -12.5403   18.2436 C   0  0  0  0  0  0  0  0  0  0  0  0
  -27.2522  -21.0194   34.3682 C   0  0  0  0  0  0  0  0  0  0  0  0
  -31.2858  -18.7359   23.8204 C   0  0  0  0  0  0  0  0  0  0  0  0
  -29.2008  -18.7115   22.3961 C   0  0  0  0  0  0  0  0  0  0  0  0
  -30.6444  -19.7720   24.7417 C   0  0  0  0  0  0  0  0  0  0  0  0
  -28.5595  -19.7477   23.3173 C   0  0  0  0  0  0  0  0  0  0  0  0
  -28.1534  -12.1638   18.6568 C   0  0  0  0  0  0  0  0  0  0  0  0
  -30.4791  -12.7268   19.4585 C   0  0  0  0  0  0  0  0  0  0  0  0
  -28.5406  -13.3403   20.8683 C   0  0  0  0  0  0  0  0  0  0  0  0
  -28.2935  -21.1192   33.2470 C   0  0  1  0  0  0  0  0  0  0  0  0
  -27.5841  -24.2545   31.2222 C   0  0  1  0  0  0  0  0  0  0  0  0
  -30.2322  -17.8533   23.1395 C   0  0  0  0  0  0  0  0  0  0  0  0
  -29.6132  -20.6303   23.9982 C   0  0  0  0  0  0  0  0  0  0  0  0
  -27.5873  -13.1725   19.6719 C   0  0  2  0  0  0  0  0  0  0  0  0
  -22.5369  -28.8447   27.5536 C   0  0  0  0  0  0  0  0  0  0  0  0
  -23.2369  -22.9108   30.4118 C   0  0  0  0  0  0  0  0  0  0  0  0
  -21.8741  -24.4631   28.9970 C   0  0  0  0  0  0  0  0  0  0  0  0
  -22.3948  -25.0659   31.3609 C   0  0  0  0  0  0  0  0  0  0  0  0
  -26.3269  -29.1791   27.5543 C   0  0  0  0  0  0  0  0  0  0  0  0
  -29.9715  -15.7093   21.8105 C   0  0  0  0  0  0  0  0  0  0  0  0
  -30.8946  -16.8598   22.1868 C   0  0  0  0  0  0  0  0  0  0  0  0
  -28.9508  -21.6238   24.9508 C   0  0  0  0  0  0  0  0  0  1  0  0
  -24.2302  -25.1602   29.6247 C   0  0  1  0  0  0  0  0  0  0  0  0
  -23.9501  -28.6016   28.0601 C   0  0  2  0  0  0  0  0  0  0  0  0
  -22.9606  -24.3933   30.0912 C   0  0  0  0  0  0  0  0  0  0  0  0
  -25.8511  -11.4986   20.1885 N   0  0  0  0  0  0  0  0  0  0  0  0
  -26.1845  -12.7984   20.1140 N   0  0  0  0  0  0  0  0  0  0  0  0
  -26.5427  -24.5172   30.2269 N   0  0  0  0  0  0  0  0  0  0  0  0
  -29.8958  -13.6751   20.4092 N   0  0  0  0  0  0  0  0  0  0  0  0
  -25.3397  -14.9869   20.4420 N   0  0  0  0  0  0  0  0  0  0  0  0
  -22.5915  -13.4846   22.5830 N   0  0  0  0  0  0  0  0  0  0  0  0
  -28.2875  -22.4456   32.6683 N   0  0  0  0  0  0  0  0  0  0  0  0
  -24.0039  -26.5731   29.3402 N   0  0  0  0  0  0  0  0  0  0  0  0
  -24.9009  -29.3137   27.1601 N   0  3  0  0  0  0  0  0  0  0  0  0
  -21.8833  -13.5245   20.4023 O   0  0  0  0  0  0  0  0  0  0  0  0
  -26.5478  -22.1340   31.1520 O   0  0  0  0  0  0  0  0  0  0  0  0
  -31.7906  -15.0195   20.4589 O   0  0  0  0  0  0  0  0  0  0  0  0
  -25.1535  -25.5793   31.7691 O   0  0  0  0  0  0  0  0  0  0  0  0
  -24.7186  -26.5061   27.1352 O   0  0  0  0  0  0  0  0  0  0  0  0
  -21.7515   -6.7768   21.3900 O   0  0  0  0  0  0  0  0  0  0  0  0
  -29.9545  -22.4676   25.5139 O   0  0  0  0  0  0  0  0  0  1  0  0
  -20.8845   -5.1527   26.5876 F   0  0  0  0  0  0  0  0  0  0  0  0
  -22.7116   -4.3477   22.2959 F   0  0  0  0  0  0  0  0  0  0  0  0
  1  2  1  0  0  0  0
  1  5  2  0  0  0  0
  2  6  2  0  0  0  0
  3  8  2  0  0  0  0
  3 15  1  0  0  0  0
  4  9  1  0  0  0  0
  4 15  2  0  0  0  0
  5 17  1  0  0  0  0
  6 19  1  0  0  0  0
  7 10  2  0  0  0  0
  7 18  1  0  0  0  0
  8 21  1  0  0  0  0
  9 21  2  0  0  0  0
 10 22  1  0  0  0  0
 11 12  2  0  0  0  0
 11 23  1  0  0  0  0
 12 24  1  0  0  0  0
 13 20  1  0  0  0  0
 13 22  2  0  0  0  0
 14 24  2  0  0  0  0
 14 25  1  0  0  0  0
 15 26  1  0  0  0  0
 16 26  1  0  0  0  0
 16 27  2  0  0  0  0
 16 28  1  0  0  0  0
 17 19  2  0  0  0  0
 17 33  1  0  0  0  0
 18 20  2  0  0  0  0
 18 34  1  0  0  0  0
 19 46  1  0  0  0  0
 20 35  1  0  0  0  0
 21 76  1  0  0  0  0
 22 77  1  0  0  0  0
 23 25  2  0  0  0  0
 23 76  1  0  0  0  0
 24 78  1  0  0  0  0
 25 79  1  0  0  0  0
 26 62  2  0  0  0  0
 27 63  1  0  0  0  0
 27 66  1  0  0  0  0
 28 67  1  0  0  0  0
 28 71  2  0  0  0  0
 29 47  1  0  0  0  0
 29 68  1  0  0  0  0
 29 72  2  0  0  0  0
 30 56  1  0  0  0  0
 30 65  1  0  0  0  0
 30 73  2  0  0  0  0
 31 59  1  0  0  0  0
 31 64  1  0  0  0  0
 31 74  2  0  0  0  0
 32 60  1  0  0  0  0
 32 69  1  0  0  0  0
 32 75  2  0  0  0  0
 33 36  1  0  0  0  0
 34 47  1  0  0  0  0
 35 64  1  0  0  0  0
 36 38  1  0  0  0  0
 37 43  1  0  0  0  0
 37 44  1  0  0  0  0
 38 46  1  0  0  0  0
 39 41  1  0  0  0  0
 39 48  1  0  0  0  0
 40 42  1  0  0  0  0
 40 48  1  0  0  0  0
 41 49  1  0  0  0  0
 42 49  1  0  0  0  0
 43 50  1  0  0  0  0
 44 65  1  0  0  0  0
 45 50  1  0  0  0  0
 45 65  1  0  0  0  0
 46 68  1  0  0  0  0
 47 64  1  0  0  0  0
 48 57  1  0  0  0  0
 49 58  1  0  0  0  0
 50 63  1  0  0  0  0
 51 60  1  0  0  0  0
 52 61  1  0  0  0  0
 53 61  1  0  0  0  0
 54 61  1  0  0  0  0
 55 70  1  0  0  0  0
 56 57  1  0  0  0  0
 58 77  1  0  0  0  0
 59 61  1  0  0  0  0
 59 69  1  0  0  0  0
 60 70  1  0  0  0  0
 62 63  1  0  0  0  0
M  CHG  1  70   1
M  ISO  4  30 100  56 100  58 101  77 101
M  END
> <Batch ID>
0033

> <Smiles>
CNC(C)C(=O)NC(C(=O)N1Cc2cc([101O:1][101CH2:1]C3CCC(C[100CH2:0][100C:0](=O)N4CCCC(n5nc(-c6ccc(Oc7ccc(F)cc7F)cc6)c(C(N)=O)c5N)C4)CC3)ccc2CC1C(=O)NC1CCCc2ccccc21)C(C)(C)C

> <Shape>
0.187

> <Color>
0.186

> <Negative vol penalty>
0.000

$$$$

  -OEChem-04052316483D

 87 96  0     1  0  0  0  0  0999 V2000
  -28.0236  -33.4332   24.7671 C   0  0  0  0  0  0  0  0  0  0  0  0
  -28.1405  -32.0486   24.6995 C   0  0  0  0  0  0  0  0  0  0  0  0
  -22.4369  -10.6611   22.2766 C   0  0  0  0  0  0  0  0  0  0  0  0
  -22.3702  -10.3830   19.8776 C   0  0  0  0  0  0  0  0  0  0  0  0
  -26.7743  -34.0342   24.6185 C   0  0  0  0  0  0  0  0  0  0  0  0
  -27.0080  -31.2641   24.4844 C   0  0  0  0  0  0  0  0  0  0  0  0
  -27.7869  -27.6297   21.0449 C   0  0  0  0  0  0  0  0  0  0  0  0
  -21.9183   -9.3766   22.4400 C   0  0  0  0  0  0  0  0  0  0  0  0
  -21.8517   -9.0984   20.0409 C   0  0  0  0  0  0  0  0  0  0  0  0
  -28.4837  -26.4967   21.4626 C   0  0  0  0  0  0  0  0  0  0  0  0
  -20.9504   -6.0351   23.4949 C   0  0  0  0  0  0  0  0  0  0  0  0
  -21.5426   -5.2138   24.4542 C   0  0  0  0  0  0  0  0  0  0  0  0
  -26.3974  -25.3095   21.7021 C   0  0  0  0  0  0  0  0  0  0  0  0
  -27.9192  -21.4702   21.2809 C   0  0  0  0  0  0  0  0  0  0  0  0
  -23.6527   -5.3737   23.2882 C   0  0  0  0  0  0  0  0  0  0  0  0
  -22.6628  -11.1643   20.9954 C   0  0  0  0  0  0  0  0  0  0  0  0
  -24.5551  -12.8569   20.7457 C   0  0  0  0  0  0  0  0  0  0  0  0
  -25.6273  -33.2573   24.3918 C   0  0  0  0  0  0  0  0  0  0  0  0
  -26.3871  -27.6146   20.9631 C   0  0  0  0  0  0  0  0  0  0  0  0
  -25.7420  -31.8552   24.3340 C   0  0  0  0  0  0  0  0  0  0  0  0
  -25.6854  -26.4429   21.2807 C   0  0  0  0  0  0  0  0  0  0  0  0
  -29.5679  -21.3385   19.5000 C   0  0  0  0  0  0  0  0  0  0  0  0
  -28.6702  -20.5742   18.7316 C   0  0  0  0  0  0  0  0  0  0  0  0
  -29.1854  -21.7699   20.7791 C   0  0  0  0  0  0  0  0  0  0  0  0
  -27.3956  -20.2883   19.2438 C   0  0  0  0  0  0  0  0  0  0  0  0
  -21.6257   -8.5952   21.3221 C   0  0  0  0  0  0  0  0  0  0  0  0
  -27.7888  -25.3372   21.7940 C   0  0  0  0  0  0  0  0  0  0  0  0
  -21.7092   -6.5257   22.4323 C   0  0  0  0  0  0  0  0  0  0  0  0
  -22.8938   -4.8831   24.3509 C   0  0  0  0  0  0  0  0  0  0  0  0
  -23.0603   -6.1950   22.3290 C   0  0  0  0  0  0  0  0  0  0  0  0
  -27.0239  -20.7318   20.5126 C   0  0  0  0  0  0  0  0  0  0  0  0
  -23.1980  -12.4914   20.8260 C   0  0  0  0  0  0  0  0  0  0  0  0
  -24.5345  -14.2210   20.5873 C   0  0  0  0  0  0  0  0  0  0  0  0
  -25.7293  -12.0366   20.8086 C   0  0  0  0  0  0  0  0  0  0  0  0
  -24.0395  -29.2175   22.3853 C   0  0  0  0  0  0  0  0  0  0  0  0
  -22.1821  -27.6008   20.2738 C   0  0  0  0  0  0  0  0  0  0  0  0
  -21.7875  -24.8775   18.2552 C   0  0  0  0  0  0  0  0  0  0  0  0
  -22.4511  -18.8115   18.1932 C   0  0  0  0  0  0  0  0  0  0  0  0
  -24.2914  -33.9490   24.2845 C   0  0  0  0  0  0  0  0  0  0  0  0
  -25.6521  -28.8368   20.4852 C   0  0  0  0  0  0  0  0  0  0  0  0
  -30.9578  -21.6537   19.0061 C   0  0  0  0  0  0  0  0  0  0  0  0
  -29.0229  -20.1055   17.3420 C   0  0  0  0  0  0  0  0  0  0  0  0
  -24.1839  -26.3685   21.1901 C   0  0  0  0  0  0  0  0  0  0  0  0
  -23.1966  -33.0698   23.6857 C   0  0  0  0  0  0  0  0  0  0  0  0
  -31.1179  -21.4720   17.4979 C   0  0  0  0  0  0  0  0  0  0  0  0
  -30.5230  -20.1411   17.0561 C   0  0  0  0  0  0  0  0  0  0  0  0
  -20.7360  -17.5308   21.0382 C   0  0  0  0  0  0  0  0  0  0  0  0
  -23.2086  -31.6880   24.3317 C   0  0  0  0  0  0  0  0  0  0  0  0
  -21.3309  -16.1341   21.2259 C   0  0  0  0  0  0  0  0  0  0  0  0
  -20.6012  -17.8930   19.5609 C   0  0  0  0  0  0  0  0  0  0  0  0
  -22.4366  -16.3610   18.9621 C   0  0  0  0  0  0  0  0  0  0  0  0
  -24.5404  -30.9717   24.0773 C   0  0  1  0  0  0  0  0  0  0  0  0
  -24.1937  -28.8696   20.9318 C   0  0  1  0  0  0  0  0  0  0  0  0
  -22.6438  -15.9731   20.4362 C   0  0  2  0  0  0  0  0  0  0  0  0
  -20.1478  -23.8125   16.6821 C   0  0  0  0  0  0  0  0  0  0  0  0
  -20.5162  -26.6602   22.6508 C   0  0  0  0  0  0  0  0  0  0  0  0
  -19.5279  -24.8983   21.1719 C   0  0  0  0  0  0  0  0  0  0  0  0
  -19.1849  -27.3103   20.6360 C   0  0  0  0  0  0  0  0  0  0  0  0
  -23.6731  -25.0604   15.9815 C   0  0  0  0  0  0  0  0  0  0  0  0
  -30.1237  -22.5597   21.6589 C   0  0  0  0  0  0  0  0  0  0  0  0
  -26.4154  -19.5078   18.4193 C   0  0  0  0  0  0  0  0  0  0  0  0
  -25.3482  -20.3710   17.7255 C   0  0  0  0  0  0  0  0  0  0  0  0
  -24.3810  -19.5884   16.8399 C   0  0  0  0  0  0  0  0  0  0  0  0
  -29.7827  -24.0457   21.6833 C   0  0  0  0  0  0  0  0  0  1  0  0
  -21.4631  -26.2734   20.2802 C   0  0  1  0  0  0  0  0  0  0  0  0
  -21.3376  -24.7509   16.8109 C   0  0  2  0  0  0  0  0  0  0  0  0
  -20.2012  -26.2872   21.1884 C   0  0  0  0  0  0  0  0  0  0  0  0
  -22.3751  -13.5388   20.7270 N   0  0  0  0  0  0  0  0  0  0  0  0
  -23.2176  -14.5759   20.5829 N   0  0  0  0  0  0  0  0  0  0  0  0
  -23.5099  -27.5916   20.7237 N   0  0  0  0  0  0  0  0  0  0  0  0
  -21.8813  -17.7204   18.8697 N   0  0  0  0  0  0  0  0  0  0  0  0
  -25.5145  -15.1396   20.4529 N   0  0  0  0  0  0  0  0  0  0  0  0
  -25.5704  -10.6539   20.9741 N   0  0  0  0  0  0  0  0  0  0  0  0
  -24.5799  -30.4413   22.7313 N   0  0  0  0  0  0  0  0  0  0  0  0
  -21.1909  -25.9498   18.8839 N   0  0  0  0  0  0  0  0  0  0  0  0
  -23.6682  -18.5640   17.5701 N   0  0  0  0  0  0  0  0  0  0  0  0
  -22.4466  -24.2224   15.9673 N   0  3  0  0  0  0  0  0  0  0  0  0
  -26.8857  -12.5174   20.7372 O   0  0  0  0  0  0  0  0  0  0  0  0
  -23.4708  -28.4343   23.1370 O   0  0  0  0  0  0  0  0  0  0  0  0
  -21.5896  -28.6075   19.8772 O   0  0  0  0  0  0  0  0  0  0  0  0
  -22.5854  -24.1004   18.7748 O   0  0  0  0  0  0  0  0  0  0  0  0
  -21.9176  -19.9254   18.1522 O   0  0  0  0  0  0  0  0  0  0  0  0
  -21.1199   -7.3417   21.4811 O   0  0  0  0  0  0  0  0  0  0  0  0
  -28.4664  -24.2300   22.2025 O   0  0  0  0  0  0  0  0  0  1  0  0
  -23.4628   -4.0956   25.2730 F   0  0  0  0  0  0  0  0  0  0  0  0
  -23.7948   -6.6642   21.3110 F   0  0  0  0  0  0  0  0  0  0  0  0
  -25.4634  -20.3900   21.1694 Cl  0  0  0  0  0  0  0  0  0  0  0  0
  1  2  1  0  0  0  0
  1  5  2  0  0  0  0
  2  6  2  0  0  0  0
  3  8  2  0  0  0  0
  3 16  1  0  0  0  0
  4  9  1  0  0  0  0
  4 16  2  0  0  0  0
  5 18  1  0  0  0  0
  6 20  1  0  0  0  0
  7 10  2  0  0  0  0
  7 19  1  0  0  0  0
  8 26  1  0  0  0  0
  9 26  2  0  0  0  0
 10 27  1  0  0  0  0
 11 12  2  0  0  0  0
 11 28  1  0  0  0  0
 12 29  1  0  0  0  0
 13 21  1  0  0  0  0
 13 27  2  0  0  0  0
 14 24  1  0  0  0  0
 14 31  2  0  0  0  0
 15 29  2  0  0  0  0
 15 30  1  0  0  0  0
 16 32  1  0  0  0  0
 17 32  1  0  0  0  0
 17 33  2  0  0  0  0
 17 34  1  0  0  0  0
 18 20  2  0  0  0  0
 18 39  1  0  0  0  0
 19 21  2  0  0  0  0
 19 40  1  0  0  0  0
 20 52  1  0  0  0  0
 21 43  1  0  0  0  0
 22 23  1  0  0  0  0
 22 24  2  0  0  0  0
 22 41  1  0  0  0  0
 23 25  2  0  0  0  0
 23 42  1  0  0  0  0
 24 60  1  0  0  0  0
 25 31  1  0  0  0  0
 25 61  1  0  0  0  0
 26 83  1  0  0  0  0
 27 84  1  0  0  0  0
 28 30  2  0  0  0  0
 28 83  1  0  0  0  0
 29 85  1  0  0  0  0
 30 86  1  0  0  0  0
 31 87  1  0  0  0  0
 32 68  2  0  0  0  0
 33 69  1  0  0  0  0
 33 72  1  0  0  0  0
 34 73  1  0  0  0  0
 34 78  2  0  0  0  0
 35 53  1  0  0  0  0
 35 74  1  0  0  0  0
 35 79  2  0  0  0  0
 36 65  1  0  0  0  0
 36 70  1  0  0  0  0
 36 80  2  0  0  0  0
 37 66  1  0  0  0  0
 37 75  1  0  0  0  0
 37 81  2  0  0  0  0
 38 71  1  0  0  0  0
 38 76  1  0  0  0  0
 38 82  2  0  0  0  0
 39 44  1  0  0  0  0
 40 53  1  0  0  0  0
 41 45  1  0  0  0  0
 42 46  1  0  0  0  0
 43 70  1  0  0  0  0
 44 48  1  0  0  0  0
 45 46  1  0  0  0  0
 47 49  1  0  0  0  0
 47 50  1  0  0  0  0
 48 52  1  0  0  0  0
 49 54  1  0  0  0  0
 50 71  1  0  0  0  0
 51 54  1  0  0  0  0
 51 71  1  0  0  0  0
 52 74  1  0  0  0  0
 53 70  1  0  0  0  0
 54 69  1  0  0  0  0
 55 66  1  0  0  0  0
 56 67  1  0  0  0  0
 57 67  1  0  0  0  0
 58 67  1  0  0  0  0
 59 77  1  0  0  0  0
 60 64  1  0  0  0  0
 61 62  1  0  0  0  0
 62 63  1  0  0  0  0
 63 76  1  0  0  0  0
 64 84  1  0  0  0  0
 65 67  1  0  0  0  0
 65 75  1  0  0  0  0
 66 77  1  0  0  0  0
 68 69  1  0  0  0  0
M  CHG  1  77   1
M  ISO  4  38 100  64 101  76 100  84 101
M  END
> <Batch ID>
0033

> <Smiles>
CNC(C)C(=O)NC(C(=O)N1Cc2cc([101O:1][101CH2:1]Cc3cc(Cl)c(CCC[100NH:0][100C:0](=O)N4CCCC(n5nc(-c6ccc(Oc7ccc(F)cc7F)cc6)c(C(N)=O)c5N)C4)c4c3CCCC4)ccc2CC1C(=O)NC1CCCc2ccccc21)C(C)(C)C

> <Shape>
0.265

> <Color>
0.095

> <Negative vol penalty>
0.000

$$$$

  -OEChem-04052316483D

 83 91  0     1  0  0  0  0  0999 V2000
  -31.3018  -11.0802   22.5134 C   0  0  0  0  0  0  0  0  0  0  0  0
  -31.5091  -12.3989   22.9050 C   0  0  0  0  0  0  0  0  0  0  0  0
  -20.4339  -27.1834   20.1730 C   0  0  0  0  0  0  0  0  0  0  0  0
  -21.5269  -25.7040   21.7395 C   0  0  0  0  0  0  0  0  0  0  0  0
  -30.6349  -10.8051   21.3203 C   0  0  0  0  0  0  0  0  0  0  0  0
  -31.0506  -13.4435   22.1030 C   0  0  0  0  0  0  0  0  0  0  0  0
  -28.4442  -20.1006   22.5567 C   0  0  0  0  0  0  0  0  0  0  0  0
  -19.3988  -27.3854   21.0859 C   0  0  0  0  0  0  0  0  0  0  0  0
  -20.4919  -25.9061   22.6525 C   0  0  0  0  0  0  0  0  0  0  0  0
  -28.6632  -21.3800   22.0478 C   0  0  0  0  0  0  0  0  0  0  0  0
  -18.8623  -29.2145   23.8787 C   0  0  0  0  0  0  0  0  0  0  0  0
  -18.4197  -30.5221   24.0779 C   0  0  0  0  0  0  0  0  0  0  0  0
  -27.4543  -20.7845   20.0470 C   0  0  0  0  0  0  0  0  0  0  0  0
  -29.3422  -24.7606   17.9022 C   0  0  0  0  0  0  0  0  0  0  0  0
  -16.2070  -29.8845   23.3467 C   0  0  0  0  0  0  0  0  0  0  0  0
  -32.0652  -24.9323   17.9439 C   0  0  0  0  0  0  0  0  0  0  0  0
  -21.4979  -26.3427   20.4997 C   0  0  0  0  0  0  0  0  0  0  0  0
  -23.7532  -26.8817   19.4365 C   0  0  0  0  0  0  0  0  0  0  0  0
  -30.1595  -11.8467   20.5081 C   0  0  0  0  0  0  0  0  0  0  0  0
  -27.7368  -19.1485   21.8087 C   0  0  0  0  0  0  0  0  0  0  0  0
  -30.3779  -13.1821   20.8972 C   0  0  0  0  0  0  0  0  0  0  0  0
  -27.2255  -19.4946   20.5498 C   0  0  0  0  0  0  0  0  0  0  0  0
  -30.0544  -24.5941   16.7196 C   0  0  0  0  0  0  0  0  0  0  0  0
  -19.4278  -26.7468   22.3257 C   0  0  0  0  0  0  0  0  0  0  0  0
  -28.1707  -21.7212   20.7916 C   0  0  0  0  0  0  0  0  0  0  0  0
  -17.9773  -28.2418   23.4134 C   0  0  0  0  0  0  0  0  0  0  0  0
  -17.0920  -30.8572   23.8120 C   0  0  0  0  0  0  0  0  0  0  0  0
  -16.6497  -28.5768   23.1474 C   0  0  0  0  0  0  0  0  0  0  0  0
  -31.4421  -24.6801   16.7323 C   0  0  0  0  0  0  0  0  0  0  0  0
  -22.5671  -26.1331   19.5568 C   0  0  0  0  0  0  0  0  0  0  0  0
  -30.0593  -25.0090   19.0614 C   0  0  0  0  0  0  0  0  0  0  0  0
  -24.4317  -26.2859   18.4016 C   0  0  0  0  0  0  0  0  0  0  0  0
  -24.2016  -28.0144   20.1926 C   0  0  0  0  0  0  0  0  0  0  0  0
  -28.4283  -16.3038   20.5705 C   0  0  0  0  0  0  0  0  0  0  0  0
  -25.2673  -16.2862   19.8424 C   0  0  0  0  0  0  0  0  0  0  0  0
  -22.4221  -18.0733   19.2440 C   0  0  0  0  0  0  0  0  0  0  0  0
  -26.2419  -21.7143   15.7616 C   0  0  0  0  0  0  0  0  0  0  0  0
  -29.4859  -11.5005   19.2038 C   0  0  0  0  0  0  0  0  0  0  0  0
  -27.4861  -17.7812   22.3831 C   0  0  0  0  0  0  0  0  0  0  0  0
  -26.4422  -18.5153   19.7155 C   0  0  0  0  0  0  0  0  0  0  0  0
  -28.7015  -12.6608   18.5966 C   0  0  0  0  0  0  0  0  0  0  0  0
  -22.9294  -22.8084   15.0494 C   0  0  0  0  0  0  0  0  0  0  0  0
  -29.5317  -13.9402   18.6268 C   0  0  0  0  0  0  0  0  0  0  0  0
  -22.6358  -23.8274   16.1518 C   0  0  0  0  0  0  0  0  0  0  0  0
  -23.7734  -21.6454   15.5661 C   0  0  0  0  0  0  0  0  0  0  0  0
  -24.7302  -23.0587   17.3440 C   0  0  0  0  0  0  0  0  0  0  0  0
  -29.8736  -14.3422   20.0666 C   0  0  1  0  0  0  0  0  0  0  0  0
  -27.1957  -16.7293   21.3170 C   0  0  1  0  0  0  0  0  0  0  0  0
  -23.9289  -24.2783   16.8575 C   0  0  2  0  0  0  0  0  0  0  0  0
  -20.0042  -17.7828   18.6380 C   0  0  0  0  0  0  0  0  0  0  0  0
  -26.0635  -15.7033   16.9551 C   0  0  0  0  0  0  0  0  0  0  0  0
  -23.7506  -16.3611   16.2579 C   0  0  0  0  0  0  0  0  0  0  0  0
  -24.0865  -14.4087   17.7738 C   0  0  0  0  0  0  0  0  0  0  0  0
  -21.5189  -19.3500   21.7567 C   0  0  0  0  0  0  0  0  0  0  0  0
  -29.2968  -24.3278   15.4598 C   0  0  0  0  0  0  0  0  0  0  0  0
  -29.3198  -25.1941   20.3642 C   0  0  0  0  0  0  0  0  0  0  0  0
  -29.2786  -22.8487   15.0299 C   0  0  0  0  0  0  0  0  0  0  0  0
  -28.6972  -21.8971   16.0734 C   0  0  0  0  0  0  0  0  0  0  0  0
  -29.1195  -23.8787   21.1091 C   0  0  0  0  0  0  0  0  0  1  0  0
  -24.4381  -16.7472   18.6681 C   0  0  1  0  0  0  0  0  0  0  0  0
  -21.0072  -17.9213   19.7728 C   0  0  2  0  0  0  0  0  0  0  0  0
  -24.6011  -15.8232   17.4284 C   0  0  0  0  0  0  0  0  0  0  0  0
  -31.4072  -25.0996   19.1130 N   0  0  0  0  0  0  0  0  0  0  0  0
  -22.4932  -25.1378   18.6692 N   0  0  0  0  0  0  0  0  0  0  0  0
  -23.6414  -25.2569   17.9811 N   0  0  0  0  0  0  0  0  0  0  0  0
  -26.2288  -17.1890   20.3180 N   0  0  0  0  0  0  0  0  0  0  0  0
  -24.9855  -22.1407   16.2228 N   0  0  0  0  0  0  0  0  0  0  0  0
  -25.6213  -26.5470   17.8192 N   0  0  0  0  0  0  0  0  0  0  0  0
  -23.3815  -28.4984   21.2208 N   0  0  0  0  0  0  0  0  0  0  0  0
  -28.7312  -14.9621   20.7031 N   0  0  0  0  0  0  0  0  0  0  0  0
  -23.0672  -16.8579   19.1548 N   0  0  0  0  0  0  0  0  0  0  0  0
  -27.3391  -22.2365   16.4355 N   0  0  0  0  0  0  0  0  0  0  0  0
  -20.6299  -19.1081   20.5913 N   0  3  0  0  0  0  0  0  0  0  0  0
  -25.2897  -28.5906   19.9524 O   0  0  0  0  0  0  0  0  0  0  0  0
  -29.0570  -17.1311   19.9210 O   0  0  0  0  0  0  0  0  0  0  0  0
  -25.0643  -15.1691   20.3246 O   0  0  0  0  0  0  0  0  0  0  0  0
  -22.9052  -19.1609   18.9371 O   0  0  0  0  0  0  0  0  0  0  0  0
  -26.3760  -20.9306   14.8156 O   0  0  0  0  0  0  0  0  0  0  0  0
  -18.4181  -26.9439   23.2169 O   0  0  0  0  0  0  0  0  0  0  0  0
  -28.3836  -22.9691   20.2922 O   0  0  0  0  0  0  0  0  0  1  0  0
  -16.6667  -32.1126   24.0048 F   0  0  0  0  0  0  0  0  0  0  0  0
  -15.7946  -27.6465   22.7014 F   0  0  0  0  0  0  0  0  0  0  0  0
  -32.3869  -24.4873   15.3084 Cl  0  0  0  0  0  0  0  0  0  0  0  0
  1  2  1  0  0  0  0
  1  5  2  0  0  0  0
  2  6  2  0  0  0  0
  3  8  2  0  0  0  0
  3 17  1  0  0  0  0
  4  9  1  0  0  0  0
  4 17  2  0  0  0  0
  5 19  1  0  0  0  0
  6 21  1  0  0  0  0
  7 10  2  0  0  0  0
  7 20  1  0  0  0  0
  8 24  1  0  0  0  0
  9 24  2  0  0  0  0
 10 25  1  0  0  0  0
 11 12  2  0  0  0  0
 11 26  1  0  0  0  0
 12 27  1  0  0  0  0
 13 22  1  0  0  0  0
 13 25  2  0  0  0  0
 14 23  2  0  0  0  0
 14 31  1  0  0  0  0
 15 27  2  0  0  0  0
 15 28  1  0  0  0  0
 16 29  2  0  0  0  0
 16 63  1  0  0  0  0
 17 30  1  0  0  0  0
 18 30  1  0  0  0  0
 18 32  2  0  0  0  0
 18 33  1  0  0  0  0
 19 21  2  0  0  0  0
 19 38  1  0  0  0  0
 20 22  2  0  0  0  0
 20 39  1  0  0  0  0
 21 47  1  0  0  0  0
 22 40  1  0  0  0  0
 23 29  1  0  0  0  0
 23 55  1  0  0  0  0
 24 79  1  0  0  0  0
 25 80  1  0  0  0  0
 26 28  2  0  0  0  0
 26 79  1  0  0  0  0
 27 81  1  0  0  0  0
 28 82  1  0  0  0  0
 29 83  1  0  0  0  0
 30 64  2  0  0  0  0
 31 56  1  0  0  0  0
 31 63  2  0  0  0  0
 32 65  1  0  0  0  0
 32 68  1  0  0  0  0
 33 69  1  0  0  0  0
 33 74  2  0  0  0  0
 34 48  1  0  0  0  0
 34 70  1  0  0  0  0
 34 75  2  0  0  0  0
 35 60  1  0  0  0  0
 35 66  1  0  0  0  0
 35 76  2  0  0  0  0
 36 61  1  0  0  0  0
 36 71  1  0  0  0  0
 36 77  2  0  0  0  0
 37 67  1  0  0  0  0
 37 72  1  0  0  0  0
 37 78  2  0  0  0  0
 38 41  1  0  0  0  0
 39 48  1  0  0  0  0
 40 66  1  0  0  0  0
 41 43  1  0  0  0  0
 42 44  1  0  0  0  0
 42 45  1  0  0  0  0
 43 47  1  0  0  0  0
 44 49  1  0  0  0  0
 45 67  1  0  0  0  0
 46 49  1  0  0  0  0
 46 67  1  0  0  0  0
 47 70  1  0  0  0  0
 48 66  1  0  0  0  0
 49 65  1  0  0  0  0
 50 61  1  0  0  0  0
 51 62  1  0  0  0  0
 52 62  1  0  0  0  0
 53 62  1  0  0  0  0
 54 73  1  0  0  0  0
 55 57  1  0  0  0  0
 56 59  1  0  0  0  0
 57 58  1  0  0  0  0
 58 72  1  0  0  0  0
 59 80  1  0  0  0  0
 60 62  1  0  0  0  0
 60 71  1  0  0  0  0
 61 73  1  0  0  0  0
 64 65  1  0  0  0  0
M  CHG  1  73   1
M  ISO  4  37 100  59 101  72 100  80 101
M  END
> <Batch ID>
0033

> <Smiles>
CNC(C)C(=O)NC(C(=O)N1Cc2cc([101O:1][101CH2:1]Cc3cc(CCC[100NH:0][100C:0](=O)N4CCCC(n5nc(-c6ccc(Oc7ccc(F)cc7F)cc6)c(C(N)=O)c5N)C4)c(Cl)cn3)ccc2CC1C(=O)NC1CCCc2ccccc21)C(C)(C)C

> <Shape>
0.214

> <Color>
0.062

> <Negative vol penalty>
0.000

$$$$

  -OEChem-04052316483D

 84 92  0     1  0  0  0  0  0999 V2000
  -21.7186  -11.9339   20.5809 C   0  0  0  0  0  0  0  0  0  0  0  0
  -21.5786  -13.2226   21.0861 C   0  0  0  0  0  0  0  0  0  0  0  0
  -25.0401  -28.5287   19.4353 C   0  0  0  0  0  0  0  0  0  0  0  0
  -25.8619  -26.9334   21.0529 C   0  0  0  0  0  0  0  0  0  0  0  0
  -22.9890  -11.4255   20.3134 C   0  0  0  0  0  0  0  0  0  0  0  0
  -22.7091  -14.0032   21.3250 C   0  0  0  0  0  0  0  0  0  0  0  0
  -23.1991  -20.0720   20.6650 C   0  0  0  0  0  0  0  0  0  0  0  0
  -26.2979  -29.1298   19.3890 C   0  0  0  0  0  0  0  0  0  0  0  0
  -27.1198  -27.5345   21.0065 C   0  0  0  0  0  0  0  0  0  0  0  0
  -23.1275  -21.1236   21.5776 C   0  0  0  0  0  0  0  0  0  0  0  0
  -30.6447  -28.4245   21.0442 C   0  0  0  0  0  0  0  0  0  0  0  0
  -31.7599  -27.5909   20.9605 C   0  0  0  0  0  0  0  0  0  0  0  0
  -25.5337  -21.1307   21.7490 C   0  0  0  0  0  0  0  0  0  0  0  0
  -23.8100  -21.7407   26.8414 C   0  0  0  0  0  0  0  0  0  0  0  0
  -22.2669  -23.0057   25.4793 C   0  0  0  0  0  0  0  0  0  0  0  0
  -30.9291  -26.6884   18.8791 C   0  0  0  0  0  0  0  0  0  0  0  0
  -24.8221  -27.4306   20.2673 C   0  0  0  0  0  0  0  0  0  0  0  0
  -23.0549  -25.7530   19.5120 C   0  0  0  0  0  0  0  0  0  0  0  0
  -24.1351  -12.2038   20.5401 C   0  0  0  0  0  0  0  0  0  0  0  0
  -24.4401  -19.5337   20.2953 C   0  0  0  0  0  0  0  0  0  0  0  0
  -23.9961  -13.5042   21.0615 C   0  0  0  0  0  0  0  0  0  0  0  0
  -25.6185  -20.0740   20.8296 C   0  0  0  0  0  0  0  0  0  0  0  0
  -23.5736  -22.7143   25.8710 C   0  0  0  0  0  0  0  0  0  0  0  0
  -22.7398  -21.0583   27.4200 C   0  0  0  0  0  0  0  0  0  0  0  0
  -21.1967  -22.3234   26.0580 C   0  0  0  0  0  0  0  0  0  0  0  0
  -21.4332  -21.3497   27.0283 C   0  0  0  0  0  0  0  0  0  0  0  0
  -27.3378  -28.6327   20.1746 C   0  0  0  0  0  0  0  0  0  0  0  0
  -24.2947  -21.6512   22.1220 C   0  0  0  0  0  0  0  0  0  0  0  0
  -29.6716  -28.3900   20.0453 C   0  0  0  0  0  0  0  0  0  0  0  0
  -31.9021  -26.7229   19.8779 C   0  0  0  0  0  0  0  0  0  0  0  0
  -29.8138  -27.5220   18.9628 C   0  0  0  0  0  0  0  0  0  0  0  0
  -23.5228  -26.8096   20.3160 C   0  0  0  0  0  0  0  0  0  0  0  0
  -21.7712  -25.5323   19.9478 C   0  0  0  0  0  0  0  0  0  0  0  0
  -23.7211  -25.0351   18.4649 C   0  0  0  0  0  0  0  0  0  0  0  0
  -25.8159  -16.6805   20.5593 C   0  0  0  0  0  0  0  0  0  0  0  0
  -28.1374  -18.0666   18.7672 C   0  0  0  0  0  0  0  0  0  0  0  0
  -29.6865  -20.9306   17.7450 C   0  0  0  0  0  0  0  0  0  0  0  0
  -18.9954  -26.5750   25.1497 C   0  0  0  0  0  0  0  0  0  0  0  0
  -25.4898  -11.5939   20.2802 C   0  0  0  0  0  0  0  0  0  0  0  0
  -24.5018  -18.4172   19.2893 C   0  0  0  0  0  0  0  0  0  0  0  0
  -26.9767  -19.5453   20.4499 C   0  0  0  0  0  0  0  0  0  0  0  0
  -26.6166  -12.6213   20.2082 C   0  0  0  0  0  0  0  0  0  0  0  0
  -18.0526  -27.7905   21.9387 C   0  0  0  0  0  0  0  0  0  0  0  0
  -26.5143  -13.6078   21.3672 C   0  0  0  0  0  0  0  0  0  0  0  0
  -19.3054  -27.5816   21.0862 C   0  0  0  0  0  0  0  0  0  0  0  0
  -18.4041  -28.1927   23.3693 C   0  0  0  0  0  0  0  0  0  0  0  0
  -20.5944  -27.0753   23.2030 C   0  0  0  0  0  0  0  0  0  0  0  0
  -25.1970  -14.3907   21.3106 C   0  0  1  0  0  0  0  0  0  0  0  0
  -25.7908  -17.6057   19.3757 C   0  0  1  0  0  0  0  0  0  0  0  0
  -20.2920  -26.6139   21.7670 C   0  0  2  0  0  0  0  0  0  0  0  0
  -23.0200  -20.0209   28.4578 C   0  0  0  0  0  0  0  0  0  0  0  0
  -20.2859  -20.6182   27.6492 C   0  0  0  0  0  0  0  0  0  0  0  0
  -31.5770  -21.7426   16.3083 C   0  0  0  0  0  0  0  0  0  0  0  0
  -30.1326  -17.1996   20.9067 C   0  0  0  0  0  0  0  0  0  0  0  0
  -31.7764  -18.8157   19.9298 C   0  0  0  0  0  0  0  0  0  0  0  0
  -30.9339  -16.9121   18.5552 C   0  0  0  0  0  0  0  0  0  0  0  0
  -27.8547  -22.4681   16.0016 C   0  0  0  0  0  0  0  0  0  0  0  0
  -24.7316  -23.4523   25.2444 C   0  0  0  0  0  0  0  0  0  0  0  0
  -19.8069  -22.6542   25.6211 C   0  0  0  0  0  0  0  0  0  0  0  0
  -19.0404  -23.5785   26.5860 C   0  0  0  0  0  0  0  0  0  0  0  0
  -19.7233  -24.9191   26.8489 C   0  0  0  0  0  0  0  0  0  0  0  0
  -25.2588  -22.7516   23.9969 C   0  0  0  0  0  0  0  0  0  1  0  0
  -29.3928  -18.8505   19.0647 C   0  0  1  0  0  0  0  0  0  0  0  0
  -30.0921  -21.4194   16.3662 C   0  0  2  0  0  0  0  0  0  0  0  0
  -30.5334  -17.9534   19.6229 C   0  0  0  0  0  0  0  0  0  0  0  0
  -22.6105  -27.2311   21.1959 N   0  0  0  0  0  0  0  0  0  0  0  0
  -21.5565  -26.4353   20.9473 N   0  0  0  0  0  0  0  0  0  0  0  0
  -26.9844  -18.4489   19.4674 N   0  0  0  0  0  0  0  0  0  0  0  0
  -19.3416  -27.2335   23.9582 N   0  0  0  0  0  0  0  0  0  0  0  0
  -20.8164  -24.6561   19.5698 N   0  0  0  0  0  0  0  0  0  0  0  0
  -25.0385  -25.3903   18.1447 N   0  0  0  0  0  0  0  0  0  0  0  0
  -25.2720  -15.4347   20.3112 N   0  0  0  0  0  0  0  0  0  0  0  0
  -29.7351  -19.5555   17.8341 N   0  0  0  0  0  0  0  0  0  0  0  0
  -19.9378  -25.6774   25.6366 N   0  0  0  0  0  0  0  0  0  0  0  0
  -29.3293  -22.6483   16.0072 N   0  3  0  0  0  0  0  0  0  0  0  0
  -23.1589  -24.1171   17.8208 O   0  0  0  0  0  0  0  0  0  0  0  0
  -26.2948  -17.0677   21.6188 O   0  0  0  0  0  0  0  0  0  0  0  0
  -28.1767  -17.1536   17.9387 O   0  0  0  0  0  0  0  0  0  0  0  0
  -29.3629  -21.6926   18.6533 O   0  0  0  0  0  0  0  0  0  0  0  0
  -17.9235  -26.7684   25.7332 O   0  0  0  0  0  0  0  0  0  0  0  0
  -28.5654  -29.2188   20.1294 O   0  0  0  0  0  0  0  0  0  0  0  0
  -24.2275  -22.6772   23.0134 O   0  0  0  0  0  0  0  0  0  1  0  0
  -32.9739  -25.9235   19.7969 F   0  0  0  0  0  0  0  0  0  0  0  0
  -28.8829  -27.4852   17.9995 F   0  0  0  0  0  0  0  0  0  0  0  0
  1  2  1  0  0  0  0
  1  5  2  0  0  0  0
  2  6  2  0  0  0  0
  3  8  2  0  0  0  0
  3 17  1  0  0  0  0
  4  9  1  0  0  0  0
  4 17  2  0  0  0  0
  5 19  1  0  0  0  0
  6 21  1  0  0  0  0
  7 10  2  0  0  0  0
  7 20  1  0  0  0  0
  8 27  1  0  0  0  0
  9 27  2  0  0  0  0
 10 28  1  0  0  0  0
 11 12  2  0  0  0  0
 11 29  1  0  0  0  0
 12 30  1  0  0  0  0
 13 22  1  0  0  0  0
 13 28  2  0  0  0  0
 14 23  1  0  0  0  0
 14 24  2  0  0  0  0
 15 23  2  0  0  0  0
 15 25  1  0  0  0  0
 16 30  2  0  0  0  0
 16 31  1  0  0  0  0
 17 32  1  0  0  0  0
 18 32  1  0  0  0  0
 18 33  2  0  0  0  0
 18 34  1  0  0  0  0
 19 21  2  0  0  0  0
 19 39  1  0  0  0  0
 20 22  2  0  0  0  0
 20 40  1  0  0  0  0
 21 48  1  0  0  0  0
 22 41  1  0  0  0  0
 23 58  1  0  0  0  0
 24 26  1  0  0  0  0
 24 51  1  0  0  0  0
 25 26  2  0  0  0  0
 25 59  1  0  0  0  0
 26 52  1  0  0  0  0
 27 81  1  0  0  0  0
 28 82  1  0  0  0  0
 29 31  2  0  0  0  0
 29 81  1  0  0  0  0
 30 83  1  0  0  0  0
 31 84  1  0  0  0  0
 32 66  2  0  0  0  0
 33 67  1  0  0  0  0
 33 70  1  0  0  0  0
 34 71  1  0  0  0  0
 34 76  2  0  0  0  0
 35 49  1  0  0  0  0
 35 72  1  0  0  0  0
 35 77  2  0  0  0  0
 36 63  1  0  0  0  0
 36 68  1  0  0  0  0
 36 78  2  0  0  0  0
 37 64  1  0  0  0  0
 37 73  1  0  0  0  0
 37 79  2  0  0  0  0
 38 69  1  0  0  0  0
 38 74  1  0  0  0  0
 38 80  2  0  0  0  0
 39 42  1  0  0  0  0
 40 49  1  0  0  0  0
 41 68  1  0  0  0  0
 42 44  1  0  0  0  0
 43 45  1  0  0  0  0
 43 46  1  0  0  0  0
 44 48  1  0  0  0  0
 45 50  1  0  0  0  0
 46 69  1  0  0  0  0
 47 50  1  0  0  0  0
 47 69  1  0  0  0  0
 48 72  1  0  0  0  0
 49 68  1  0  0  0  0
 50 67  1  0  0  0  0
 53 64  1  0  0  0  0
 54 65  1  0  0  0  0
 55 65  1  0  0  0  0
 56 65  1  0  0  0  0
 57 75  1  0  0  0  0
 58 62  1  0  0  0  0
 59 60  1  0  0  0  0
 60 61  1  0  0  0  0
 61 74  1  0  0  0  0
 62 82  1  0  0  0  0
 63 65  1  0  0  0  0
 63 73  1  0  0  0  0
 64 75  1  0  0  0  0
 66 67  1  0  0  0  0
M  CHG  1  75   1
M  ISO  4  38 100  62 101  74 100  82 101
M  END
> <Batch ID>
0033

> <Smiles>
CNC(C)C(=O)NC(C(=O)N1Cc2cc([101O:1][101CH2:1]Cc3cc(C)c(C)c(CCC[100NH:0][100C:0](=O)N4CCCC(n5nc(-c6ccc(Oc7ccc(F)cc7F)cc6)c(C(N)=O)c5N)C4)c3)ccc2CC1C(=O)NC1CCCc2ccccc21)C(C)(C)C

> <Shape>
0.196

> <Color>
0.077

> <Negative vol penalty>
0.000

$$$$

  -OEChem-04052316483D

 87 95  0     1  0  0  0  0  0999 V2000
  -15.7915  -27.5020   21.5792 C   0  0  0  0  0  0  0  0  0  0  0  0
  -16.1284  -26.2827   21.0003 C   0  0  0  0  0  0  0  0  0  0  0  0
  -29.0703  -26.5711   19.2201 C   0  0  0  0  0  0  0  0  0  0  0  0
  -26.8966  -25.7399   19.8692 C   0  0  0  0  0  0  0  0  0  0  0  0
  -16.7656  -28.2542   22.2343 C   0  0  0  0  0  0  0  0  0  0  0  0
  -17.4400  -25.8154   21.0752 C   0  0  0  0  0  0  0  0  0  0  0  0
  -19.2477  -19.9867   21.5892 C   0  0  0  0  0  0  0  0  0  0  0  0
  -28.5331  -27.8478   19.0558 C   0  0  0  0  0  0  0  0  0  0  0  0
  -26.3594  -27.0167   19.7049 C   0  0  0  0  0  0  0  0  0  0  0  0
  -19.7011  -19.0591   20.6523 C   0  0  0  0  0  0  0  0  0  0  0  0
  -24.4899  -30.1333   19.8047 C   0  0  0  0  0  0  0  0  0  0  0  0
  -23.6328  -30.6096   20.7967 C   0  0  0  0  0  0  0  0  0  0  0  0
  -21.9803  -19.6244   21.2045 C   0  0  0  0  0  0  0  0  0  0  0  0
  -24.4056  -14.5035   21.7482 C   0  0  0  0  0  0  0  0  0  0  0  0
  -23.8316  -15.8586   19.8459 C   0  0  0  0  0  0  0  0  0  0  0  0
  -25.4022  -30.3962   22.4280 C   0  0  0  0  0  0  0  0  0  0  0  0
  -28.2521  -25.5172   19.6268 C   0  0  0  0  0  0  0  0  0  0  0  0
  -29.3641  -23.6544   20.9688 C   0  0  0  0  0  0  0  0  0  0  0  0
  -18.0877  -27.7913   22.3256 C   0  0  0  0  0  0  0  0  0  0  0  0
  -20.1587  -20.7491   22.3343 C   0  0  0  0  0  0  0  0  0  0  0  0
  -18.4331  -26.5627   21.7309 C   0  0  0  0  0  0  0  0  0  0  0  0
  -21.5360  -20.5591   22.1521 C   0  0  0  0  0  0  0  0  0  0  0  0
  -24.7561  -15.4651   20.8071 C   0  0  0  0  0  0  0  0  0  0  0  0
  -27.1776  -28.0706   19.2982 C   0  0  0  0  0  0  0  0  0  0  0  0
  -21.0675  -18.8799   20.4578 C   0  0  0  0  0  0  0  0  0  0  0  0
  -25.8032  -29.7884   20.1243 C   0  0  0  0  0  0  0  0  0  0  0  0
  -24.0889  -30.7411   22.1083 C   0  0  0  0  0  0  0  0  0  0  0  0
  -26.2593  -29.9199   21.4359 C   0  0  0  0  0  0  0  0  0  0  0  0
  -28.8063  -24.1980   19.7961 C   0  0  0  0  0  0  0  0  0  0  0  0
  -23.1282  -13.9703   21.6858 C   0  0  0  0  0  0  0  0  0  0  0  0
  -22.5801  -15.2645   19.8685 C   0  0  0  0  0  0  0  0  0  0  0  0
  -29.7426  -22.3833   20.6117 C   0  0  0  0  0  0  0  0  0  0  0  0
  -29.5256  -24.2455   22.2650 C   0  0  0  0  0  0  0  0  0  0  0  0
  -20.7844  -23.8529   22.6148 C   0  0  0  0  0  0  0  0  0  0  0  0
  -22.7891  -22.8397   24.9551 C   0  0  0  0  0  0  0  0  0  0  0  0
  -24.6660  -20.3097   26.2677 C   0  0  0  0  0  0  0  0  0  0  0  0
  -28.7086  -17.5387   18.0414 C   0  0  0  0  0  0  0  0  0  0  0  0
  -19.1165  -28.6618   23.0029 C   0  0  0  0  0  0  0  0  0  0  0  0
  -19.6538  -21.7264   23.3602 C   0  0  0  0  0  0  0  0  0  0  0  0
  -22.5552  -21.3382   22.9412 C   0  0  0  0  0  0  0  0  0  0  0  0
  -20.4009  -27.9193   23.3626 C   0  0  0  0  0  0  0  0  0  0  0  0
  -30.0282  -20.1886   16.0632 C   0  0  0  0  0  0  0  0  0  0  0  0
  -20.8778  -27.0760   22.1844 C   0  0  0  0  0  0  0  0  0  0  0  0
  -29.8681  -21.4233   16.9520 C   0  0  0  0  0  0  0  0  0  0  0  0
  -28.8596  -19.2194   16.2279 C   0  0  0  0  0  0  0  0  0  0  0  0
  -28.4229  -20.0482   18.5074 C   0  0  0  0  0  0  0  0  0  0  0  0
  -19.8396  -26.0104   21.8126 C   0  0  1  0  0  0  0  0  0  0  0  0
  -20.6667  -22.8165   23.6963 C   0  0  1  0  0  0  0  0  0  0  0  0
  -29.6047  -21.0287   18.4177 C   0  0  2  0  0  0  0  0  0  0  0  0
  -22.2843   -7.9778   23.6900 C   0  0  0  0  0  0  0  0  0  0  0  0
  -26.2246  -19.7934   28.1656 C   0  0  0  0  0  0  0  0  0  0  0  0
  -25.0125  -24.3823   23.5456 C   0  0  0  0  0  0  0  0  0  0  0  0
  -26.6738  -23.0853   24.8970 C   0  0  0  0  0  0  0  0  0  0  0  0
  -25.0293  -24.5731   26.0392 C   0  0  0  0  0  0  0  0  0  0  0  0
  -22.8737  -18.2024   27.3192 C   0  0  0  0  0  0  0  0  0  0  0  0
  -26.1177  -16.0728   20.8292 C   0  0  0  0  0  0  0  0  0  0  0  0
  -22.7166  -12.9372   22.6807 C   0  0  0  0  0  0  0  0  0  0  0  0
  -21.5521  -15.6661   18.8388 C   0  0  0  0  0  0  0  0  0  0  0  0
  -22.8072   -9.0302   22.7254 C   0  0  0  0  0  0  0  0  0  0  0  0
  -27.1643  -15.3248   19.9799 C   0  0  0  0  0  0  0  0  0  0  0  0
  -23.0095  -11.4995   22.2324 C   0  0  0  0  0  0  0  0  0  0  0  0
  -22.5147  -10.4448   23.2274 C   0  0  0  0  0  0  0  0  0  0  0  0
  -28.5445  -15.9785   19.9644 C   0  0  0  0  0  0  0  0  0  0  0  0
  -20.6901  -16.8343   19.3050 C   0  0  0  0  0  0  0  0  0  1  0  0
  -24.2335  -22.4046   25.0113 C   0  0  1  0  0  0  0  0  0  0  0  0
  -24.7827  -19.7715   27.6824 C   0  0  2  0  0  0  0  0  0  0  0  0
  -25.2183  -23.5979   24.8569 C   0  0  0  0  0  0  0  0  0  0  0  0
  -28.8268  -23.3423   18.7707 N   0  0  0  0  0  0  0  0  0  0  0  0
  -22.2031  -14.3273   20.7669 N   0  0  0  0  0  0  0  0  0  0  0  0
  -29.4021  -22.2482   19.2979 N   0  0  0  0  0  0  0  0  0  0  0  0
  -22.0119  -22.2863   23.9278 N   0  0  0  0  0  0  0  0  0  0  0  0
  -28.6640  -18.8842   17.6404 N   0  0  0  0  0  0  0  0  0  0  0  0
  -30.3302  -21.3792   21.2964 N   0  0  0  0  0  0  0  0  0  0  0  0
  -29.0817  -25.5606   22.4596 N   0  0  0  0  0  0  0  0  0  0  0  0
  -19.8960  -24.9035   22.7432 N   0  0  0  0  0  0  0  0  0  0  0  0
  -24.3875  -21.6601   26.2564 N   0  0  0  0  0  0  0  0  0  0  0  0
  -28.5198  -17.3090   19.3987 N   0  0  0  0  0  0  0  0  0  0  0  0
  -24.2874  -18.3674   27.7449 N   0  3  0  0  0  0  0  0  0  0  0  0
  -30.0630  -23.6316   23.2178 O   0  0  0  0  0  0  0  0  0  0  0  0
  -21.6204  -23.7108   21.7302 O   0  0  0  0  0  0  0  0  0  0  0  0
  -22.3641  -23.6357   25.7962 O   0  0  0  0  0  0  0  0  0  0  0  0
  -24.8113  -19.6037   25.2723 O   0  0  0  0  0  0  0  0  0  0  0  0
  -28.9076  -16.6113   17.2494 O   0  0  0  0  0  0  0  0  0  0  0  0
  -26.6531  -29.3164   19.1382 O   0  0  0  0  0  0  0  0  0  0  0  0
  -21.5127  -17.9757   19.5434 O   0  0  0  0  0  0  0  0  0  1  0  0
  -23.2662  -31.2000   23.0605 F   0  0  0  0  0  0  0  0  0  0  0  0
  -27.5202  -29.5912   21.7488 F   0  0  0  0  0  0  0  0  0  0  0  0
  1  2  1  0  0  0  0
  1  5  2  0  0  0  0
  2  6  2  0  0  0  0
  3  8  2  0  0  0  0
  3 17  1  0  0  0  0
  4  9  1  0  0  0  0
  4 17  2  0  0  0  0
  5 19  1  0  0  0  0
  6 21  1  0  0  0  0
  7 10  2  0  0  0  0
  7 20  1  0  0  0  0
  8 24  1  0  0  0  0
  9 24  2  0  0  0  0
 10 25  1  0  0  0  0
 11 12  2  0  0  0  0
 11 26  1  0  0  0  0
 12 27  1  0  0  0  0
 13 22  1  0  0  0  0
 13 25  2  0  0  0  0
 14 23  2  0  0  0  0
 14 30  1  0  0  0  0
 15 23  1  0  0  0  0
 15 31  2  0  0  0  0
 16 27  2  0  0  0  0
 16 28  1  0  0  0  0
 17 29  1  0  0  0  0
 18 29  1  0  0  0  0
 18 32  2  0  0  0  0
 18 33  1  0  0  0  0
 19 21  2  0  0  0  0
 19 38  1  0  0  0  0
 20 22  2  0  0  0  0
 20 39  1  0  0  0  0
 21 47  1  0  0  0  0
 22 40  1  0  0  0  0
 23 56  1  0  0  0  0
 24 84  1  0  0  0  0
 25 85  1  0  0  0  0
 26 28  2  0  0  0  0
 26 84  1  0  0  0  0
 27 86  1  0  0  0  0
 28 87  1  0  0  0  0
 29 68  2  0  0  0  0
 30 57  1  0  0  0  0
 30 69  2  0  0  0  0
 31 58  1  0  0  0  0
 31 69  1  0  0  0  0
 32 70  1  0  0  0  0
 32 73  1  0  0  0  0
 33 74  1  0  0  0  0
 33 79  2  0  0  0  0
 34 48  1  0  0  0  0
 34 75  1  0  0  0  0
 34 80  2  0  0  0  0
 35 65  1  0  0  0  0
 35 71  1  0  0  0  0
 35 81  2  0  0  0  0
 36 66  1  0  0  0  0
 36 76  1  0  0  0  0
 36 82  2  0  0  0  0
 37 72  1  0  0  0  0
 37 77  1  0  0  0  0
 37 83  2  0  0  0  0
 38 41  1  0  0  0  0
 39 48  1  0  0  0  0
 40 71  1  0  0  0  0
 41 43  1  0  0  0  0
 42 44  1  0  0  0  0
 42 45  1  0  0  0  0
 43 47  1  0  0  0  0
 44 49  1  0  0  0  0
 45 72  1  0  0  0  0
 46 49  1  0  0  0  0
 46 72  1  0  0  0  0
 47 75  1  0  0  0  0
 48 71  1  0  0  0  0
 49 70  1  0  0  0  0
 50 59  1  0  0  0  0
 51 66  1  0  0  0  0
 52 67  1  0  0  0  0
 53 67  1  0  0  0  0
 54 67  1  0  0  0  0
 55 78  1  0  0  0  0
 56 60  1  0  0  0  0
 57 61  1  0  0  0  0
 58 64  1  0  0  0  0
 59 62  1  0  0  0  0
 60 63  1  0  0  0  0
 61 62  1  0  0  0  0
 63 77  1  0  0  0  0
 64 85  1  0  0  0  0
 65 67  1  0  0  0  0
 65 76  1  0  0  0  0
 66 78  1  0  0  0  0
 68 70  1  0  0  0  0
M  CHG  1  78   1
M  ISO  4  37 100  64 101  77 100  85 101
M  END
> <Batch ID>
0033

> <Smiles>
CCCCCc1cc(CCC[100NH:0][100C:0](=O)N2CCCC(n3nc(-c4ccc(Oc5ccc(F)cc5F)cc4)c(C(N)=O)c3N)C2)cc(C[101CH2:1][101O:1]c2ccc3c(c2)CN(C(=O)C(NC(=O)C(C)NC)C(C)(C)C)C(C(=O)NC2CCCc4ccccc42)C3)n1

> <Shape>
0.216

> <Color>
0.067

> <Negative vol penalty>
0.000

$$$$

  -OEChem-04052316483D

 81 89  0     1  0  0  0  0  0999 V2000
  -17.3577  -30.6282   23.7689 C   0  0  0  0  0  0  0  0  0  0  0  0
  -18.7255  -30.4259   23.9225 C   0  0  0  0  0  0  0  0  0  0  0  0
  -29.4366  -17.8250   19.3236 C   0  0  0  0  0  0  0  0  0  0  0  0
  -30.9704  -18.1415   21.1633 C   0  0  0  0  0  0  0  0  0  0  0  0
  -16.5528  -29.6004   23.2792 C   0  0  0  0  0  0  0  0  0  0  0  0
  -19.2891  -29.1952   23.5874 C   0  0  0  0  0  0  0  0  0  0  0  0
  -23.5742  -29.6792   20.9325 C   0  0  0  0  0  0  0  0  0  0  0  0
  -29.8356  -16.4924   19.2202 C   0  0  0  0  0  0  0  0  0  0  0  0
  -31.3694  -16.8089   21.0598 C   0  0  0  0  0  0  0  0  0  0  0  0
  -24.7290  -30.0068   21.6416 C   0  0  0  0  0  0  0  0  0  0  0  0
  -29.2233  -13.5775   20.8205 C   0  0  0  0  0  0  0  0  0  0  0  0
  -28.2274  -12.6123   20.6720 C   0  0  0  0  0  0  0  0  0  0  0  0
  -25.4023  -27.6907   21.6033 C   0  0  0  0  0  0  0  0  0  0  0  0
  -29.6499  -28.6368   23.7540 C   0  0  0  0  0  0  0  0  0  0  0  0
  -29.1905  -11.9436   18.5595 C   0  0  0  0  0  0  0  0  0  0  0  0
  -31.5275  -29.3334   21.9007 C   0  0  0  0  0  0  0  0  0  0  0  0
  -30.0041  -18.6495   20.2951 C   0  0  0  0  0  0  0  0  0  0  0  0
  -28.5444  -20.5417   21.1877 C   0  0  0  0  0  0  0  0  0  0  0  0
  -17.1083  -28.3597   22.9288 C   0  0  0  0  0  0  0  0  0  0  0  0
  -23.3190  -28.3509   20.5623 C   0  0  0  0  0  0  0  0  0  0  0  0
  -18.4907  -28.1495   23.0938 C   0  0  0  0  0  0  0  0  0  0  0  0
  -24.2448  -27.3492   20.8873 C   0  0  0  0  0  0  0  0  0  0  0  0
  -30.6802  -27.7505   23.4605 C   0  0  0  0  0  0  0  0  0  0  0  0
  -31.6410  -28.0978   22.5174 C   0  0  0  0  0  0  0  0  0  0  0  0
  -30.8020  -15.9844   20.0883 C   0  0  0  0  0  0  0  0  0  0  0  0
  -25.6418  -29.0121   21.9796 C   0  0  0  0  0  0  0  0  0  0  0  0
  -30.2028  -13.7258   19.8385 C   0  0  0  0  0  0  0  0  0  0  0  0
  -28.2110  -11.7953   19.5415 C   0  0  0  0  0  0  0  0  0  0  0  0
  -30.1864  -12.9089   18.7080 C   0  0  0  0  0  0  0  0  0  0  0  0
  -29.5927  -20.0263   20.4021 C   0  0  0  0  0  0  0  0  0  0  0  0
  -29.6256  -29.8483   23.0821 C   0  0  0  0  0  0  0  0  0  0  0  0
  -28.5628  -21.8927   20.9411 C   0  0  0  0  0  0  0  0  0  0  0  0
  -27.6354  -19.8602   22.0623 C   0  0  0  0  0  0  0  0  0  0  0  0
  -21.0387  -26.2370   21.2221 C   0  0  0  0  0  0  0  0  0  0  0  0
  -22.6032  -24.4449   19.0169 C   0  0  0  0  0  0  0  0  0  0  0  0
  -25.5126  -23.7754   17.3633 C   0  0  0  0  0  0  0  0  0  0  0  0
  -32.2955  -26.2021   19.9356 C   0  0  0  0  0  0  0  0  0  0  0  0
  -16.1909  -27.2634   22.4482 C   0  0  0  0  0  0  0  0  0  0  0  0
  -22.0818  -28.0181   19.7743 C   0  0  0  0  0  0  0  0  0  0  0  0
  -24.0274  -25.9112   20.4957 C   0  0  0  0  0  0  0  0  0  0  0  0
  -16.9236  -26.1127   21.7630 C   0  0  0  0  0  0  0  0  0  0  0  0
  -30.3551  -24.7507   17.3269 C   0  0  0  0  0  0  0  0  0  0  0  0
  -18.1364  -25.6875   22.5847 C   0  0  0  0  0  0  0  0  0  0  0  0
  -29.8632  -23.4324   17.9270 C   0  0  0  0  0  0  0  0  0  0  0  0
  -31.7721  -25.0862   17.7868 C   0  0  0  0  0  0  0  0  0  0  0  0
  -31.4725  -23.7707   19.8492 C   0  0  0  0  0  0  0  0  0  0  0  0
  -19.1430  -26.8367   22.7179 C   0  0  1  0  0  0  0  0  0  0  0  0
  -21.6715  -26.5538   19.8966 C   0  0  1  0  0  0  0  0  0  0  0  0
  -30.0270  -23.4179   19.4588 C   0  0  2  0  0  0  0  0  0  0  0  0
  -30.7350  -26.4369   24.1675 C   0  0  0  0  0  0  0  0  0  0  0  0
  -26.4920  -22.2283   15.6474 C   0  0  0  0  0  0  0  0  0  0  0  0
  -22.7325  -22.2196   21.1005 C   0  0  0  0  0  0  0  0  0  0  0  0
  -24.4974  -21.1152   19.7099 C   0  0  0  0  0  0  0  0  0  0  0  0
  -22.2063  -21.4474   18.7808 C   0  0  0  0  0  0  0  0  0  0  0  0
  -26.1377  -26.0148   15.5321 C   0  0  0  0  0  0  0  0  0  0  0  0
  -32.7649  -27.1865   22.1649 C   0  0  0  0  0  0  0  0  0  0  0  0
  -28.5217  -30.8352   23.3748 C   0  0  0  0  0  0  0  0  0  0  0  0
  -27.3099  -30.6344   22.4713 C   0  0  0  0  0  0  0  0  0  1  0  0
  -23.7324  -23.4438   19.0590 C   0  0  1  0  0  0  0  0  0  0  0  0
  -25.8079  -23.5648   15.8893 C   0  0  2  0  0  0  0  0  0  0  0  0
  -23.2956  -22.0832   19.6718 C   0  0  0  0  0  0  0  0  0  0  0  0
  -30.5411  -30.2208   22.1596 N   0  0  0  0  0  0  0  0  0  0  0  0
  -30.2305  -20.9727   19.7082 N   0  0  0  0  0  0  0  0  0  0  0  0
  -29.5811  -22.0964   20.0569 N   0  0  0  0  0  0  0  0  0  0  0  0
  -22.7997  -25.6350   19.7316 N   0  0  0  0  0  0  0  0  0  0  0  0
  -31.8594  -25.0570   19.2488 N   0  0  0  0  0  0  0  0  0  0  0  0
  -27.8070  -22.9145   21.3964 N   0  0  0  0  0  0  0  0  0  0  0  0
  -27.7558  -18.4706   22.2000 N   0  0  0  0  0  0  0  0  0  0  0  0
  -19.9082  -26.9822   21.4982 N   0  0  0  0  0  0  0  0  0  0  0  0
  -24.2445  -23.3485   17.6963 N   0  0  0  0  0  0  0  0  0  0  0  0
  -32.3429  -26.0916   21.3199 N   0  0  0  0  0  0  0  0  0  0  0  0
  -26.6967  -24.6469   15.3793 N   0  3  0  0  0  0  0  0  0  0  0  0
  -26.7323  -20.4633   22.6901 O   0  0  0  0  0  0  0  0  0  0  0  0
  -21.5382  -25.3790   21.9404 O   0  0  0  0  0  0  0  0  0  0  0  0
  -21.5873  -24.1837   18.3678 O   0  0  0  0  0  0  0  0  0  0  0  0
  -26.3269  -24.2659   18.1424 O   0  0  0  0  0  0  0  0  0  0  0  0
  -32.6135  -27.2473   19.3582 O   0  0  0  0  0  0  0  0  0  0  0  0
  -31.1914  -14.6840   19.9878 O   0  0  0  0  0  0  0  0  0  0  0  0
  -26.7695  -29.3290   22.6723 O   0  0  0  0  0  0  0  0  0  1  0  0
  -27.2555  -10.8674   19.3997 F   0  0  0  0  0  0  0  0  0  0  0  0
  -31.1254  -13.0459   17.7618 F   0  0  0  0  0  0  0  0  0  0  0  0
  1  2  1  0  0  0  0
  1  5  2  0  0  0  0
  2  6  2  0  0  0  0
  3  8  2  0  0  0  0
  3 17  1  0  0  0  0
  4  9  1  0  0  0  0
  4 17  2  0  0  0  0
  5 19  1  0  0  0  0
  6 21  1  0  0  0  0
  7 10  2  0  0  0  0
  7 20  1  0  0  0  0
  8 25  1  0  0  0  0
  9 25  2  0  0  0  0
 10 26  1  0  0  0  0
 11 12  2  0  0  0  0
 11 27  1  0  0  0  0
 12 28  1  0  0  0  0
 13 22  1  0  0  0  0
 13 26  2  0  0  0  0
 14 23  2  0  0  0  0
 14 31  1  0  0  0  0
 15 28  2  0  0  0  0
 15 29  1  0  0  0  0
 16 24  2  0  0  0  0
 16 62  1  0  0  0  0
 17 30  1  0  0  0  0
 18 30  1  0  0  0  0
 18 32  2  0  0  0  0
 18 33  1  0  0  0  0
 19 21  2  0  0  0  0
 19 38  1  0  0  0  0
 20 22  2  0  0  0  0
 20 39  1  0  0  0  0
 21 47  1  0  0  0  0
 22 40  1  0  0  0  0
 23 24  1  0  0  0  0
 23 50  1  0  0  0  0
 24 56  1  0  0  0  0
 25 78  1  0  0  0  0
 26 79  1  0  0  0  0
 27 29  2  0  0  0  0
 27 78  1  0  0  0  0
 28 80  1  0  0  0  0
 29 81  1  0  0  0  0
 30 63  2  0  0  0  0
 31 57  1  0  0  0  0
 31 62  2  0  0  0  0
 32 64  1  0  0  0  0
 32 67  1  0  0  0  0
 33 68  1  0  0  0  0
 33 73  2  0  0  0  0
 34 48  1  0  0  0  0
 34 69  1  0  0  0  0
 34 74  2  0  0  0  0
 35 59  1  0  0  0  0
 35 65  1  0  0  0  0
 35 75  2  0  0  0  0
 36 60  1  0  0  0  0
 36 70  1  0  0  0  0
 36 76  2  0  0  0  0
 37 66  1  0  0  0  0
 37 71  1  0  0  0  0
 37 77  2  0  0  0  0
 38 41  1  0  0  0  0
 39 48  1  0  0  0  0
 40 65  1  0  0  0  0
 41 43  1  0  0  0  0
 42 44  1  0  0  0  0
 42 45  1  0  0  0  0
 43 47  1  0  0  0  0
 44 49  1  0  0  0  0
 45 66  1  0  0  0  0
 46 49  1  0  0  0  0
 46 66  1  0  0  0  0
 47 69  1  0  0  0  0
 48 65  1  0  0  0  0
 49 64  1  0  0  0  0
 51 60  1  0  0  0  0
 52 61  1  0  0  0  0
 53 61  1  0  0  0  0
 54 61  1  0  0  0  0
 55 72  1  0  0  0  0
 56 71  1  0  0  0  0
 57 58  1  0  0  0  0
 58 79  1  0  0  0  0
 59 61  1  0  0  0  0
 59 70  1  0  0  0  0
 60 72  1  0  0  0  0
 63 64  1  0  0  0  0
M  CHG  1  72   1
M  ISO  4  37 100  58 101  71 100  79 101
M  END
> <Batch ID>
0033

> <Smiles>
CNC(C)C(=O)NC(C(=O)N1Cc2cc([101O:1][101CH2:1]Cc3cc(C)c(C[100NH:0][100C:0](=O)N4CCCC(n5nc(-c6ccc(Oc7ccc(F)cc7F)cc6)c(C(N)=O)c5N)C4)cn3)ccc2CC1C(=O)NC1CCCc2ccccc21)C(C)(C)C

> <Shape>
0.259

> <Color>
0.061

> <Negative vol penalty>
0.000

$$$$

  -OEChem-04052316483D

 87 95  0     1  0  0  0  0  0999 V2000
  -18.5503  -32.7355   20.3441 C   0  0  0  0  0  0  0  0  0  0  0  0
  -19.8251  -32.3916   19.9062 C   0  0  0  0  0  0  0  0  0  0  0  0
  -25.2030  -16.0210   21.5994 C   0  0  0  0  0  0  0  0  0  0  0  0
  -25.1543  -15.9250   19.1858 C   0  0  0  0  0  0  0  0  0  0  0  0
  -18.1473  -32.4090   21.6383 C   0  0  0  0  0  0  0  0  0  0  0  0
  -20.6983  -31.7218   20.7626 C   0  0  0  0  0  0  0  0  0  0  0  0
  -24.8445  -27.4874   19.2185 C   0  0  0  0  0  0  0  0  0  0  0  0
  -23.9822  -15.3483   21.6508 C   0  0  0  0  0  0  0  0  0  0  0  0
  -23.9335  -15.2523   19.2372 C   0  0  0  0  0  0  0  0  0  0  0  0
  -26.2184  -27.5586   18.9922 C   0  0  0  0  0  0  0  0  0  0  0  0
  -22.8766  -12.1670   21.3511 C   0  0  0  0  0  0  0  0  0  0  0  0
  -22.7496  -11.1234   22.2679 C   0  0  0  0  0  0  0  0  0  0  0  0
  -26.6230  -26.8636   21.2665 C   0  0  0  0  0  0  0  0  0  0  0  0
  -32.8449  -25.6043   19.0804 C   0  0  0  0  0  0  0  0  0  0  0  0
  -31.2874  -27.7112   18.1224 C   0  0  0  0  0  0  0  0  0  0  0  0
  -20.9282  -12.2903   23.3440 C   0  0  0  0  0  0  0  0  0  0  0  0
  -25.7891  -16.3095   20.3669 C   0  0  0  0  0  0  0  0  0  0  0  0
  -28.3364  -16.4334   20.3098 C   0  0  0  0  0  0  0  0  0  0  0  0
  -19.0125  -31.7264   22.5078 C   0  0  0  0  0  0  0  0  0  0  0  0
  -24.3488  -27.1137   20.4759 C   0  0  0  0  0  0  0  0  0  0  0  0
  -20.3070  -31.3871   22.0701 C   0  0  0  0  0  0  0  0  0  0  0  0
  -25.2425  -26.7859   21.5055 C   0  0  0  0  0  0  0  0  0  0  0  0
  -32.1216  -26.3979   19.9707 C   0  0  0  0  0  0  0  0  0  0  0  0
  -32.0107  -26.9177   17.2321 C   0  0  0  0  0  0  0  0  0  0  0  0
  -32.7895  -25.8643   17.7111 C   0  0  0  0  0  0  0  0  0  0  0  0
  -31.3428  -27.4513   19.4917 C   0  0  0  0  0  0  0  0  0  0  0  0
  -23.3475  -14.9639   20.4697 C   0  0  0  0  0  0  0  0  0  0  0  0
  -27.1078  -27.2495   20.0170 C   0  0  0  0  0  0  0  0  0  0  0  0
  -22.0295  -13.2723   21.4308 C   0  0  0  0  0  0  0  0  0  0  0  0
  -21.7754  -11.1851   23.2643 C   0  0  0  0  0  0  0  0  0  0  0  0
  -21.0553  -13.3340   22.4272 C   0  0  0  0  0  0  0  0  0  0  0  0
  -27.0499  -17.0049   20.3132 C   0  0  0  0  0  0  0  0  0  0  0  0
  -29.1894  -17.5082   20.2490 C   0  0  0  0  0  0  0  0  0  0  0  0
  -28.7257  -15.0543   20.3572 C   0  0  0  0  0  0  0  0  0  0  0  0
  -22.5604  -28.5257   22.6922 C   0  0  0  0  0  0  0  0  0  0  0  0
  -22.6935  -25.6073   24.1020 C   0  0  0  0  0  0  0  0  0  0  0  0
  -24.3408  -22.6416   24.4735 C   0  0  0  0  0  0  0  0  0  0  0  0
  -28.5679  -23.0952   18.1874 C   0  0  0  0  0  0  0  0  0  0  0  0
  -18.5490  -31.4367   23.9135 C   0  0  0  0  0  0  0  0  0  0  0  0
  -22.8640  -27.0159   20.6961 C   0  0  0  0  0  0  0  0  0  0  0  0
  -24.7612  -26.3595   22.8675 C   0  0  0  0  0  0  0  0  0  0  0  0
  -19.4015  -30.3949   24.6334 C   0  0  0  0  0  0  0  0  0  0  0  0
  -29.4950  -22.1204   21.4839 C   0  0  0  0  0  0  0  0  0  0  0  0
  -20.8849  -30.6953   24.4436 C   0  0  0  0  0  0  0  0  0  0  0  0
  -29.0895  -20.6473   21.5573 C   0  0  0  0  0  0  0  0  0  0  0  0
  -28.5037  -22.9381   20.6587 C   0  0  0  0  0  0  0  0  0  0  0  0
  -27.8380  -20.9401   19.3787 C   0  0  0  0  0  0  0  0  0  0  0  0
  -21.2740  -30.6383   22.9614 C   0  0  1  0  0  0  0  0  0  0  0  0
  -22.4698  -27.1211   22.1661 C   0  0  1  0  0  0  0  0  0  0  0  0
  -28.8373  -20.0645   20.1538 C   0  0  2  0  0  0  0  0  0  0  0  0
  -32.1958  -26.1002   21.4324 C   0  0  0  0  0  0  0  0  0  0  0  0
  -31.9366  -27.2154   15.7704 C   0  0  0  0  0  0  0  0  0  0  0  0
  -24.2280  -20.4687   25.7239 C   0  0  0  0  0  0  0  0  0  0  0  0
  -23.6897  -27.0089   26.6226 C   0  0  0  0  0  0  0  0  0  0  0  0
  -24.4483  -24.7813   27.4774 C   0  0  0  0  0  0  0  0  0  0  0  0
  -22.0276  -25.1853   27.0306 C   0  0  0  0  0  0  0  0  0  0  0  0
  -24.1235  -21.0785   21.9698 C   0  0  0  0  0  0  0  0  0  0  0  0
  -33.5731  -25.0017   16.7770 C   0  0  0  0  0  0  0  0  0  0  0  0
  -30.5511  -28.3232   20.4359 C   0  0  0  0  0  0  0  0  0  0  0  0
  -32.9518  -23.6175   16.5206 C   0  0  0  0  0  0  0  0  0  0  0  0
  -31.5796  -23.6981   15.8441 C   0  0  0  0  0  0  0  0  0  0  0  0
  -31.0075  -22.3025   15.5827 C   0  0  0  0  0  0  0  0  0  0  0  0
  -29.6538  -22.3825   14.8709 C   0  0  0  0  0  0  0  0  0  0  0  0
  -28.5940  -23.0938   15.7057 C   0  0  0  0  0  0  0  0  0  0  0  0
  -29.2732  -27.6450   20.9175 C   0  0  0  0  0  0  0  0  0  1  0  0
  -23.6224  -24.9360   25.0847 C   0  0  1  0  0  0  0  0  0  0  0  0
  -23.8483  -21.2058   24.4490 C   0  0  2  0  0  0  0  0  0  0  0  0
  -23.4564  -25.4878   26.5289 C   0  0  0  0  0  0  0  0  0  0  0  0
  -27.0782  -18.3391   20.2590 N   0  0  0  0  0  0  0  0  0  0  0  0
  -28.3929  -18.6150   20.2211 N   0  0  0  0  0  0  0  0  0  0  0  0
  -23.3005  -26.2852   23.0353 N   0  0  0  0  0  0  0  0  0  0  0  0
  -28.3103  -22.3330   19.3387 N   0  0  0  0  0  0  0  0  0  0  0  0
  -30.5355  -17.6051   20.2173 N   0  0  0  0  0  0  0  0  0  0  0  0
  -27.7216  -14.0783   20.4170 N   0  0  0  0  0  0  0  0  0  0  0  0
  -21.4047  -29.2645   22.5256 N   0  0  0  0  0  0  0  0  0  0  0  0
  -23.3806  -23.5026   24.9612 N   0  0  0  0  0  0  0  0  0  0  0  0
  -28.3654  -22.4437   16.9769 N   0  0  0  0  0  0  0  0  0  0  0  0
  -24.4372  -20.4759   23.2909 N   0  3  0  0  0  0  0  0  0  0  0  0
  -29.9286  -14.6987   20.3634 O   0  0  0  0  0  0  0  0  0  0  0  0
  -23.6014  -28.9101   23.2122 O   0  0  0  0  0  0  0  0  0  0  0  0
  -21.4742  -25.5268   24.2706 O   0  0  0  0  0  0  0  0  0  0  0  0
  -25.4661  -22.9662   24.1009 O   0  0  0  0  0  0  0  0  0  0  0  0
  -28.9552  -24.2677   18.2347 O   0  0  0  0  0  0  0  0  0  0  0  0
  -22.1563  -14.3072   20.5195 O   0  0  0  0  0  0  0  0  0  0  0  0
  -28.4493  -27.3188   19.7989 O   0  0  0  0  0  0  0  0  0  1  0  0
  -21.6526  -10.1821   24.1436 F   0  0  0  0  0  0  0  0  0  0  0  0
  -20.2378  -14.3927   22.5081 F   0  0  0  0  0  0  0  0  0  0  0  0
  1  2  1  0  0  0  0
  1  5  2  0  0  0  0
  2  6  2  0  0  0  0
  3  8  2  0  0  0  0
  3 17  1  0  0  0  0
  4  9  1  0  0  0  0
  4 17  2  0  0  0  0
  5 19  1  0  0  0  0
  6 21  1  0  0  0  0
  7 10  2  0  0  0  0
  7 20  1  0  0  0  0
  8 27  1  0  0  0  0
  9 27  2  0  0  0  0
 10 28  1  0  0  0  0
 11 12  2  0  0  0  0
 11 29  1  0  0  0  0
 12 30  1  0  0  0  0
 13 22  1  0  0  0  0
 13 28  2  0  0  0  0
 14 23  1  0  0  0  0
 14 25  2  0  0  0  0
 15 24  2  0  0  0  0
 15 26  1  0  0  0  0
 16 30  2  0  0  0  0
 16 31  1  0  0  0  0
 17 32  1  0  0  0  0
 18 32  1  0  0  0  0
 18 33  2  0  0  0  0
 18 34  1  0  0  0  0
 19 21  2  0  0  0  0
 19 39  1  0  0  0  0
 20 22  2  0  0  0  0
 20 40  1  0  0  0  0
 21 48  1  0  0  0  0
 22 41  1  0  0  0  0
 23 26  2  0  0  0  0
 23 51  1  0  0  0  0
 24 25  1  0  0  0  0
 24 52  1  0  0  0  0
 25 58  1  0  0  0  0
 26 59  1  0  0  0  0
 27 84  1  0  0  0  0
 28 85  1  0  0  0  0
 29 31  2  0  0  0  0
 29 84  1  0  0  0  0
 30 86  1  0  0  0  0
 31 87  1  0  0  0  0
 32 69  2  0  0  0  0
 33 70  1  0  0  0  0
 33 73  1  0  0  0  0
 34 74  1  0  0  0  0
 34 79  2  0  0  0  0
 35 49  1  0  0  0  0
 35 75  1  0  0  0  0
 35 80  2  0  0  0  0
 36 66  1  0  0  0  0
 36 71  1  0  0  0  0
 36 81  2  0  0  0  0
 37 67  1  0  0  0  0
 37 76  1  0  0  0  0
 37 82  2  0  0  0  0
 38 72  1  0  0  0  0
 38 77  1  0  0  0  0
 38 83  2  0  0  0  0
 39 42  1  0  0  0  0
 40 49  1  0  0  0  0
 41 71  1  0  0  0  0
 42 44  1  0  0  0  0
 43 45  1  0  0  0  0
 43 46  1  0  0  0  0
 44 48  1  0  0  0  0
 45 50  1  0  0  0  0
 46 72  1  0  0  0  0
 47 50  1  0  0  0  0
 47 72  1  0  0  0  0
 48 75  1  0  0  0  0
 49 71  1  0  0  0  0
 50 70  1  0  0  0  0
 53 67  1  0  0  0  0
 54 68  1  0  0  0  0
 55 68  1  0  0  0  0
 56 68  1  0  0  0  0
 57 78  1  0  0  0  0
 58 60  1  0  0  0  0
 59 65  1  0  0  0  0
 60 61  1  0  0  0  0
 61 62  1  0  0  0  0
 62 63  1  0  0  0  0
 63 64  1  0  0  0  0
 64 77  1  0  0  0  0
 65 85  1  0  0  0  0
 66 68  1  0  0  0  0
 66 76  1  0  0  0  0
 67 78  1  0  0  0  0
 69 70  1  0  0  0  0
M  CHG  1  78   1
M  ISO  4  38 100  65 101  77 100  85 101
M  END
> <Batch ID>
0033

> <Smiles>
CNC(C)C(=O)NC(C(=O)N1Cc2cc([101O:1][101CH2:1]Cc3cc(C)c(CCCCCC[100NH:0][100C:0](=O)N4CCCC(n5nc(-c6ccc(Oc7ccc(F)cc7F)cc6)c(C(N)=O)c5N)C4)cc3C)ccc2CC1C(=O)NC1CCCc2ccccc21)C(C)(C)C

> <Shape>
0.210

> <Color>
0.096

> <Negative vol penalty>
0.000

$$$$

  -OEChem-04052316483D

 83 91  0     1  0  0  0  0  0999 V2000
  -16.8348  -29.1334   24.2015 C   0  0  0  0  0  0  0  0  0  0  0  0
  -17.0149  -27.8427   23.7148 C   0  0  0  0  0  0  0  0  0  0  0  0
  -24.2746  -10.1149   22.1649 C   0  0  0  0  0  0  0  0  0  0  0  0
  -24.4678  -11.4993   24.1355 C   0  0  0  0  0  0  0  0  0  0  0  0
  -17.7857  -30.1173   23.9335 C   0  0  0  0  0  0  0  0  0  0  0  0
  -18.1455  -27.5353   22.9587 C   0  0  0  0  0  0  0  0  0  0  0  0
  -22.6765  -22.1487   21.6279 C   0  0  0  0  0  0  0  0  0  0  0  0
  -23.8236   -9.0561   22.9530 C   0  0  0  0  0  0  0  0  0  0  0  0
  -24.0167  -10.4405   24.9236 C   0  0  0  0  0  0  0  0  0  0  0  0
  -23.2230  -21.4402   20.5588 C   0  0  0  0  0  0  0  0  0  0  0  0
  -22.2778   -6.1013   24.4003 C   0  0  0  0  0  0  0  0  0  0  0  0
  -21.1759   -5.3774   23.9449 C   0  0  0  0  0  0  0  0  0  0  0  0
  -24.8383  -23.2006   20.2257 C   0  0  0  0  0  0  0  0  0  0  0  0
  -26.0411  -21.3432   15.7026 C   0  0  0  0  0  0  0  0  0  0  0  0
  -19.8369   -7.3879   23.9891 C   0  0  0  0  0  0  0  0  0  0  0  0
  -24.5968  -11.3366   22.7562 C   0  0  0  0  0  0  0  0  0  0  0  0
  -24.2806  -13.4228   21.3226 C   0  0  0  0  0  0  0  0  0  0  0  0
  -18.9333  -29.8194   23.1819 C   0  0  0  0  0  0  0  0  0  0  0  0
  -23.2007  -23.3956   21.9977 C   0  0  0  0  0  0  0  0  0  0  0  0
  -19.1119  -28.5164   22.6792 C   0  0  0  0  0  0  0  0  0  0  0  0
  -24.2982  -23.9218   21.3016 C   0  0  0  0  0  0  0  0  0  0  0  0
  -26.3670  -20.9857   17.0061 C   0  0  0  0  0  0  0  0  0  0  0  0
  -27.0763  -19.8134   17.2429 C   0  0  0  0  0  0  0  0  0  0  0  0
  -23.6946   -9.2189   24.3323 C   0  0  0  0  0  0  0  0  0  0  0  0
  -24.3022  -21.9674   19.8557 C   0  0  0  0  0  0  0  0  0  0  0  0
  -22.1592   -7.4685   24.6502 C   0  0  0  0  0  0  0  0  0  0  0  0
  -19.9555   -6.0207   23.7393 C   0  0  0  0  0  0  0  0  0  0  0  0
  -20.9388   -8.1118   24.4446 C   0  0  0  0  0  0  0  0  0  0  0  0
  -25.0633  -12.4306   21.9428 C   0  0  0  0  0  0  0  0  0  0  0  0
  -26.4445  -20.5010   14.6790 C   0  0  0  0  0  0  0  0  0  0  0  0
  -27.4331  -19.0396   16.1504 C   0  0  0  0  0  0  0  0  0  0  0  0
  -25.1900  -14.2215   20.6734 C   0  0  0  0  0  0  0  0  0  0  0  0
  -22.8586  -13.6062   21.3326 C   0  0  0  0  0  0  0  0  0  0  0  0
  -22.0606  -26.3601   22.1237 C   0  0  0  0  0  0  0  0  0  0  0  0
  -24.9316  -26.9896   23.4960 C   0  0  0  0  0  0  0  0  0  0  0  0
  -28.1996  -26.1000   23.9155 C   0  0  0  0  0  0  0  0  0  0  0  0
  -30.0234  -17.0098   20.5782 C   0  0  0  0  0  0  0  0  0  0  0  0
  -19.9100  -30.9277   22.8781 C   0  0  0  0  0  0  0  0  0  0  0  0
  -22.6168  -24.1350   23.1703 C   0  0  0  0  0  0  0  0  0  0  0  0
  -24.9107  -25.2470   21.6716 C   0  0  0  0  0  0  0  0  0  0  0  0
  -21.2655  -30.4271   22.3859 C   0  0  0  0  0  0  0  0  0  0  0  0
  -30.1222  -13.5413   19.7804 C   0  0  0  0  0  0  0  0  0  0  0  0
  -21.0824  -29.3556   21.3159 C   0  0  0  0  0  0  0  0  0  0  0  0
  -28.7533  -13.0243   20.2263 C   0  0  0  0  0  0  0  0  0  0  0  0
  -30.6533  -14.6184   20.7237 C   0  0  0  0  0  0  0  0  0  0  0  0
  -28.3641  -15.2305   21.4011 C   0  0  0  0  0  0  0  0  0  0  0  0
  -20.3375  -28.1379   21.8762 C   0  0  1  0  0  0  0  0  0  0  0  0
  -22.9022  -25.6332   23.1341 C   0  0  1  0  0  0  0  0  0  0  0  0
  -27.7621  -14.1823   20.4497 C   0  0  2  0  0  0  0  0  0  0  0  0
  -26.1122  -20.8529   13.2673 C   0  0  0  0  0  0  0  0  0  0  0  0
  -30.3080  -26.8300   25.0639 C   0  0  0  0  0  0  0  0  0  0  0  0
  -25.3123  -29.1760   21.4020 C   0  0  0  0  0  0  0  0  0  0  0  0
  -27.7481  -29.2087   21.9800 C   0  0  0  0  0  0  0  0  0  0  0  0
  -26.0497  -29.8008   23.7085 C   0  0  0  0  0  0  0  0  0  0  0  0
  -28.3410  -23.6020   25.4963 C   0  0  0  0  0  0  0  0  0  0  0  0
  -27.4347  -19.4138   18.6358 C   0  0  0  0  0  0  0  0  0  0  0  0
  -25.9418  -21.8776   18.1353 C   0  0  0  0  0  0  0  0  0  1  0  0
  -28.8907  -19.7250   19.0329 C   0  0  0  0  0  0  0  0  0  0  0  0
  -29.2405  -19.3625   20.4746 C   0  0  0  0  0  0  0  0  0  0  0  0
  -26.2951  -27.3903   22.9867 C   0  0  1  0  0  0  0  0  0  0  0  0
  -29.0565  -25.9716   25.1619 C   0  0  2  0  0  0  0  0  0  0  0  0
  -26.3388  -28.8698   22.5108 C   0  0  0  0  0  0  0  0  0  0  0  0
  -26.3694  -12.5828   21.7084 N   0  0  0  0  0  0  0  0  0  0  0  0
  -27.1345  -19.3543   14.8700 N   0  0  0  0  0  0  0  0  0  0  0  0
  -26.4144  -13.6800   20.9337 N   0  0  0  0  0  0  0  0  0  0  0  0
  -24.3005  -25.9349   22.8214 N   0  0  0  0  0  0  0  0  0  0  0  0
  -29.6664  -15.6879   20.8915 N   0  0  0  0  0  0  0  0  0  0  0  0
  -25.0538  -15.3272   19.9109 N   0  0  0  0  0  0  0  0  0  0  0  0
  -22.0723  -12.6941   22.0496 N   0  0  0  0  0  0  0  0  0  0  0  0
  -21.2302  -27.3203   22.6694 N   0  0  0  0  0  0  0  0  0  0  0  0
  -27.2379  -27.0782   24.0554 N   0  0  0  0  0  0  0  0  0  0  0  0
  -29.0271  -17.9611   20.7598 N   0  0  0  0  0  0  0  0  0  0  0  0
  -29.4729  -24.5545   25.3605 N   0  3  0  0  0  0  0  0  0  0  0  0
  -22.3005  -14.5415   20.7102 O   0  0  0  0  0  0  0  0  0  0  0  0
  -22.1585  -26.0722   20.9366 O   0  0  0  0  0  0  0  0  0  0  0  0
  -24.4475  -27.5857   24.4614 O   0  0  0  0  0  0  0  0  0  0  0  0
  -28.3689  -25.4048   22.9162 O   0  0  0  0  0  0  0  0  0  0  0  0
  -31.1453  -17.3185   20.1621 O   0  0  0  0  0  0  0  0  0  0  0  0
  -23.2543   -8.1859   25.1016 O   0  0  0  0  0  0  0  0  0  0  0  0
  -24.8372  -21.2783   18.8113 O   0  0  0  0  0  0  0  0  0  1  0  0
  -18.8978   -5.3258   23.3005 F   0  0  0  0  0  0  0  0  0  0  0  0
  -20.8191   -9.4253   24.6818 F   0  0  0  0  0  0  0  0  0  0  0  0
  -28.3135  -17.5701   16.3099 Cl  0  0  0  0  0  0  0  0  0  0  0  0
  1  2  1  0  0  0  0
  1  5  2  0  0  0  0
  2  6  2  0  0  0  0
  3  8  2  0  0  0  0
  3 16  1  0  0  0  0
  4  9  1  0  0  0  0
  4 16  2  0  0  0  0
  5 18  1  0  0  0  0
  6 20  1  0  0  0  0
  7 10  2  0  0  0  0
  7 19  1  0  0  0  0
  8 24  1  0  0  0  0
  9 24  2  0  0  0  0
 10 25  1  0  0  0  0
 11 12  2  0  0  0  0
 11 26  1  0  0  0  0
 12 27  1  0  0  0  0
 13 21  1  0  0  0  0
 13 25  2  0  0  0  0
 14 22  1  0  0  0  0
 14 30  2  0  0  0  0
 15 27  2  0  0  0  0
 15 28  1  0  0  0  0
 16 29  1  0  0  0  0
 17 29  1  0  0  0  0
 17 32  2  0  0  0  0
 17 33  1  0  0  0  0
 18 20  2  0  0  0  0
 18 38  1  0  0  0  0
 19 21  2  0  0  0  0
 19 39  1  0  0  0  0
 20 47  1  0  0  0  0
 21 40  1  0  0  0  0
 22 23  2  0  0  0  0
 22 57  1  0  0  0  0
 23 31  1  0  0  0  0
 23 56  1  0  0  0  0
 24 79  1  0  0  0  0
 25 80  1  0  0  0  0
 26 28  2  0  0  0  0
 26 79  1  0  0  0  0
 27 81  1  0  0  0  0
 28 82  1  0  0  0  0
 29 63  2  0  0  0  0
 30 50  1  0  0  0  0
 30 64  1  0  0  0  0
 31 64  2  0  0  0  0
 31 83  1  0  0  0  0
 32 65  1  0  0  0  0
 32 68  1  0  0  0  0
 33 69  1  0  0  0  0
 33 74  2  0  0  0  0
 34 48  1  0  0  0  0
 34 70  1  0  0  0  0
 34 75  2  0  0  0  0
 35 60  1  0  0  0  0
 35 66  1  0  0  0  0
 35 76  2  0  0  0  0
 36 61  1  0  0  0  0
 36 71  1  0  0  0  0
 36 77  2  0  0  0  0
 37 67  1  0  0  0  0
 37 72  1  0  0  0  0
 37 78  2  0  0  0  0
 38 41  1  0  0  0  0
 39 48  1  0  0  0  0
 40 66  1  0  0  0  0
 41 43  1  0  0  0  0
 42 44  1  0  0  0  0
 42 45  1  0  0  0  0
 43 47  1  0  0  0  0
 44 49  1  0  0  0  0
 45 67  1  0  0  0  0
 46 49  1  0  0  0  0
 46 67  1  0  0  0  0
 47 70  1  0  0  0  0
 48 66  1  0  0  0  0
 49 65  1  0  0  0  0
 51 61  1  0  0  0  0
 52 62  1  0  0  0  0
 53 62  1  0  0  0  0
 54 62  1  0  0  0  0
 55 73  1  0  0  0  0
 56 58  1  0  0  0  0
 57 80  1  0  0  0  0
 58 59  1  0  0  0  0
 59 72  1  0  0  0  0
 60 62  1  0  0  0  0
 60 71  1  0  0  0  0
 61 73  1  0  0  0  0
 63 65  1  0  0  0  0
M  CHG  1  73   1
M  ISO  4  37 100  57 101  72 100  80 101
M  END
> <Batch ID>
0033

> <Smiles>
CNC(C)C(=O)NC(C(=O)N1Cc2cc([101O:1][101CH2:1]c3cc(C)nc(Cl)c3CCC[100NH:0][100C:0](=O)N3CCCC(n4nc(-c5ccc(Oc6ccc(F)cc6F)cc5)c(C(N)=O)c4N)C3)ccc2CC1C(=O)NC1CCCc2ccccc21)C(C)(C)C

> <Shape>
0.216

> <Color>
0.103

> <Negative vol penalty>
0.000

$$$$

  -OEChem-04052316483D

 86 95  0     1  0  0  0  0  0999 V2000
  -27.4929  -33.1495   25.2685 C   0  0  0  0  0  0  0  0  0  0  0  0
  -28.3542  -32.1249   25.6477 C   0  0  0  0  0  0  0  0  0  0  0  0
  -23.2047   -9.8449   19.9535 C   0  0  0  0  0  0  0  0  0  0  0  0
  -23.9134   -9.9291   22.2617 C   0  0  0  0  0  0  0  0  0  0  0  0
  -26.5255  -32.9195   24.2911 C   0  0  0  0  0  0  0  0  0  0  0  0
  -28.2479  -30.8694   25.0505 C   0  0  0  0  0  0  0  0  0  0  0  0
  -32.2596  -25.2842   23.0434 C   0  0  0  0  0  0  0  0  0  0  0  0
  -22.5153   -8.6594   20.2083 C   0  0  0  0  0  0  0  0  0  0  0  0
  -23.2240   -8.7435   22.5165 C   0  0  0  0  0  0  0  0  0  0  0  0
  -32.3282  -23.8994   23.1897 C   0  0  0  0  0  0  0  0  0  0  0  0
  -20.0284   -7.7912   23.0659 C   0  0  0  0  0  0  0  0  0  0  0  0
  -19.2493   -7.7319   24.2213 C   0  0  0  0  0  0  0  0  0  0  0  0
  -32.2169  -17.4833   21.9277 C   0  0  0  0  0  0  0  0  0  0  0  0
  -30.6710  -23.6403   21.4560 C   0  0  0  0  0  0  0  0  0  0  0  0
  -20.5717   -5.8732   25.0176 C   0  0  0  0  0  0  0  0  0  0  0  0
  -23.9038  -10.4797   20.9802 C   0  0  0  0  0  0  0  0  0  0  0  0
  -24.1189  -13.0168   20.8226 C   0  0  0  0  0  0  0  0  0  0  0  0
  -26.4136  -31.6632   23.6748 C   0  0  0  0  0  0  0  0  0  0  0  0
  -31.3868  -25.8588   22.1083 C   0  0  0  0  0  0  0  0  0  0  0  0
  -27.2772  -30.6219   24.0650 C   0  0  0  0  0  0  0  0  0  0  0  0
  -32.0870  -18.8281   21.5993 C   0  0  0  0  0  0  0  0  0  0  0  0
  -30.5951  -25.0325   21.2980 C   0  0  0  0  0  0  0  0  0  0  0  0
  -31.2155  -16.8515   22.6567 C   0  0  0  0  0  0  0  0  0  0  0  0
  -22.5250   -8.1087   21.4898 C   0  0  0  0  0  0  0  0  0  0  0  0
  -31.5317  -23.0773   22.3980 C   0  0  0  0  0  0  0  0  0  0  0  0
  -21.0791   -6.8914   22.8862 C   0  0  0  0  0  0  0  0  0  0  0  0
  -19.5210   -6.7729   25.1972 C   0  0  0  0  0  0  0  0  0  0  0  0
  -21.3508   -5.9325   23.8621 C   0  0  0  0  0  0  0  0  0  0  0  0
  -24.6166  -11.7041   20.7174 C   0  0  0  0  0  0  0  0  0  0  0  0
  -30.9455  -19.4912   22.0201 C   0  0  0  0  0  0  0  0  0  0  0  0
  -30.1131  -17.6031   23.0304 C   0  0  0  0  0  0  0  0  0  0  0  0
  -25.1791  -13.8152   20.4688 C   0  0  0  0  0  0  0  0  0  0  0  0
  -22.8150  -13.4736   21.2058 C   0  0  0  0  0  0  0  0  0  0  0  0
  -28.8889  -27.8171   22.2794 C   0  0  0  0  0  0  0  0  0  0  0  0
  -29.0961  -27.7339   19.0432 C   0  0  0  0  0  0  0  0  0  0  0  0
  -30.1251  -26.0685   16.2478 C   0  0  0  0  0  0  0  0  0  0  0  0
  -30.9417  -14.0697   20.9600 C   0  0  0  0  0  0  0  0  0  0  0  0
  -25.3214  -31.4486   22.6571 C   0  0  0  0  0  0  0  0  0  0  0  0
  -31.3442  -27.3533   21.9440 C   0  0  0  0  0  0  0  0  0  0  0  0
  -29.6565  -25.5989   20.2652 C   0  0  0  0  0  0  0  0  0  0  0  0
  -25.5197  -30.1974   21.8055 C   0  0  0  0  0  0  0  0  0  0  0  0
  -35.7566  -19.6810   19.3631 C   0  0  0  0  0  0  0  0  0  0  0  0
  -34.4319  -19.6454   18.6069 C   0  0  0  0  0  0  0  0  0  0  0  0
  -35.5935  -20.2822   20.7558 C   0  0  0  0  0  0  0  0  0  0  0  0
  -29.3558  -13.1311   17.9136 C   0  0  0  0  0  0  0  0  0  0  0  0
  -33.3487  -18.9175   19.4009 C   0  0  0  0  0  0  0  0  0  0  0  0
  -34.5159  -19.5575   21.5604 C   0  0  0  0  0  0  0  0  0  0  0  0
  -25.8882  -29.0063   22.6843 C   0  0  0  0  0  0  0  0  0  0  0  0
  -27.9258  -12.7894   18.3359 C   0  0  0  0  0  0  0  0  0  0  0  0
  -30.3729  -12.7072   18.9709 C   0  0  0  0  0  0  0  0  0  0  0  0
  -28.6761  -12.8785   20.7500 C   0  0  0  0  0  0  0  0  0  0  0  0
  -33.1739  -19.5216   20.8063 C   0  0  0  0  0  0  0  0  0  0  0  0
  -27.2093  -29.2534   23.4226 C   0  0  1  0  0  0  0  0  0  0  0  0
  -30.0438  -27.8489   21.3188 C   0  0  1  0  0  0  0  0  0  0  0  0
  -27.6098  -13.3374   19.7406 C   0  0  2  0  0  0  0  0  0  0  0  0
  -30.1195  -26.2315   13.7437 C   0  0  0  0  0  0  0  0  0  0  0  0
  -26.1515  -26.9353   19.0002 C   0  0  0  0  0  0  0  0  0  0  0  0
  -26.4573  -26.2012   16.6262 C   0  0  0  0  0  0  0  0  0  0  0  0
  -26.8089  -28.5919   17.2458 C   0  0  0  0  0  0  0  0  0  0  0  0
  -33.0821  -26.0886   16.1267 C   0  0  0  0  0  0  0  0  0  0  0  0
  -31.3593  -15.4098   23.0067 C   0  0  0  0  0  0  0  0  0  0  0  0
  -30.7521  -20.9432   21.6954 C   0  0  0  0  0  0  0  0  0  1  0  0
  -28.5120  -26.8638   17.9566 C   0  0  1  0  0  0  0  0  0  0  0  0
  -30.8874  -26.5350   15.0208 C   0  0  2  0  0  0  0  0  0  0  0  0
  -26.9986  -27.1371   17.7279 C   0  0  0  0  0  0  0  0  0  0  0  0
  -25.8934  -11.6664   20.3272 N   0  0  0  0  0  0  0  0  0  0  0  0
  -29.9516  -18.9112   22.7298 N   0  0  0  0  0  0  0  0  0  0  0  0
  -26.2071  -12.9653   20.1841 N   0  0  0  0  0  0  0  0  0  0  0  0
  -29.6461  -27.0664   20.1467 N   0  0  0  0  0  0  0  0  0  0  0  0
  -30.0165  -13.2612   20.2794 N   0  0  0  0  0  0  0  0  0  0  0  0
  -25.3229  -15.1543   20.3766 N   0  0  0  0  0  0  0  0  0  0  0  0
  -21.8437  -12.5194   21.5380 N   0  0  0  0  0  0  0  0  0  0  0  0
  -28.3315  -29.0564   22.5303 N   0  0  0  0  0  0  0  0  0  0  0  0
  -29.3422  -27.0735   16.7754 N   0  0  0  0  0  0  0  0  0  0  0  0
  -30.5218  -14.5591   22.1909 N   0  0  0  0  0  0  0  0  0  0  0  0
  -32.2122  -25.8565   14.9451 N   0  3  0  0  0  0  0  0  0  0  0  0
  -22.5152  -14.6912   21.2364 O   0  0  0  0  0  0  0  0  0  0  0  0
  -28.5290  -26.7472   22.7564 O   0  0  0  0  0  0  0  0  0  0  0  0
  -29.0718  -28.9605   18.9143 O   0  0  0  0  0  0  0  0  0  0  0  0
  -30.2122  -24.9256   16.6916 O   0  0  0  0  0  0  0  0  0  0  0  0
  -32.0572  -14.3401   20.5022 O   0  0  0  0  0  0  0  0  0  0  0  0
  -21.8522   -6.9521   21.7389 O   0  0  0  0  0  0  0  0  0  0  0  0
  -31.5961  -21.7254   22.5392 O   0  0  0  0  0  0  0  0  0  1  0  0
  -18.7737   -6.7171   26.3075 F   0  0  0  0  0  0  0  0  0  0  0  0
  -22.3596   -5.0662   23.6957 F   0  0  0  0  0  0  0  0  0  0  0  0
  -28.8103  -16.9361   23.9339 Cl  0  0  0  0  0  0  0  0  0  0  0  0
  1  2  1  0  0  0  0
  1  5  2  0  0  0  0
  2  6  2  0  0  0  0
  3  8  2  0  0  0  0
  3 16  1  0  0  0  0
  4  9  1  0  0  0  0
  4 16  2  0  0  0  0
  5 18  1  0  0  0  0
  6 20  1  0  0  0  0
  7 10  2  0  0  0  0
  7 19  1  0  0  0  0
  8 24  1  0  0  0  0
  9 24  2  0  0  0  0
 10 25  1  0  0  0  0
 11 12  2  0  0  0  0
 11 26  1  0  0  0  0
 12 27  1  0  0  0  0
 13 21  1  0  0  0  0
 13 23  2  0  0  0  0
 14 22  1  0  0  0  0
 14 25  2  0  0  0  0
 15 27  2  0  0  0  0
 15 28  1  0  0  0  0
 16 29  1  0  0  0  0
 17 29  1  0  0  0  0
 17 32  2  0  0  0  0
 17 33  1  0  0  0  0
 18 20  2  0  0  0  0
 18 38  1  0  0  0  0
 19 22  2  0  0  0  0
 19 39  1  0  0  0  0
 20 53  1  0  0  0  0
 21 30  2  0  0  0  0
 21 52  1  0  0  0  0
 22 40  1  0  0  0  0
 23 31  1  0  0  0  0
 23 61  1  0  0  0  0
 24 82  1  0  0  0  0
 25 83  1  0  0  0  0
 26 28  2  0  0  0  0
 26 82  1  0  0  0  0
 27 84  1  0  0  0  0
 28 85  1  0  0  0  0
 29 66  2  0  0  0  0
 30 62  1  0  0  0  0
 30 67  1  0  0  0  0
 31 67  2  0  0  0  0
 31 86  1  0  0  0  0
 32 68  1  0  0  0  0
 32 71  1  0  0  0  0
 33 72  1  0  0  0  0
 33 77  2  0  0  0  0
 34 54  1  0  0  0  0
 34 73  1  0  0  0  0
 34 78  2  0  0  0  0
 35 63  1  0  0  0  0
 35 69  1  0  0  0  0
 35 79  2  0  0  0  0
 36 64  1  0  0  0  0
 36 74  1  0  0  0  0
 36 80  2  0  0  0  0
 37 70  1  0  0  0  0
 37 75  1  0  0  0  0
 37 81  2  0  0  0  0
 38 41  1  0  0  0  0
 39 54  1  0  0  0  0
 40 69  1  0  0  0  0
 41 48  1  0  0  0  0
 42 43  1  0  0  0  0
 42 44  1  0  0  0  0
 43 46  1  0  0  0  0
 44 47  1  0  0  0  0
 45 49  1  0  0  0  0
 45 50  1  0  0  0  0
 46 52  1  0  0  0  0
 47 52  1  0  0  0  0
 48 53  1  0  0  0  0
 49 55  1  0  0  0  0
 50 70  1  0  0  0  0
 51 55  1  0  0  0  0
 51 70  1  0  0  0  0
 53 73  1  0  0  0  0
 54 69  1  0  0  0  0
 55 68  1  0  0  0  0
 56 64  1  0  0  0  0
 57 65  1  0  0  0  0
 58 65  1  0  0  0  0
 59 65  1  0  0  0  0
 60 76  1  0  0  0  0
 61 75  1  0  0  0  0
 62 83  1  0  0  0  0
 63 65  1  0  0  0  0
 63 74  1  0  0  0  0
 64 76  1  0  0  0  0
 66 68  1  0  0  0  0
M  CHG  1  76   1
M  ISO  4  37 100  62 101  75 100  83 101
M  END
> <Batch ID>
0033

> <Smiles>
CNC(C)C(=O)NC(C(=O)N1Cc2cc([101O:1][101CH2:1]c3nc(Cl)c(C[100NH:0][100C:0](=O)N4CCCC(n5nc(-c6ccc(Oc7ccc(F)cc7F)cc6)c(C(N)=O)c5N)C4)cc3C3CCCCC3)ccc2CC1C(=O)NC1CCCc2ccccc21)C(C)(C)C

> <Shape>
0.295

> <Color>
0.185

> <Negative vol penalty>
0.000

$$$$

  -OEChem-04052316483D

 86 94  0     1  0  0  0  0  0999 V2000
  -17.0983  -30.0122   24.4817 C   0  0  0  0  0  0  0  0  0  0  0  0
  -17.7315  -28.7935   24.7032 C   0  0  0  0  0  0  0  0  0  0  0  0
  -23.4407   -9.7388   20.2278 C   0  0  0  0  0  0  0  0  0  0  0  0
  -23.9202  -10.1744   22.5553 C   0  0  0  0  0  0  0  0  0  0  0  0
  -17.3669  -30.7352   23.3203 C   0  0  0  0  0  0  0  0  0  0  0  0
  -18.6330  -28.2964   23.7626 C   0  0  0  0  0  0  0  0  0  0  0  0
  -23.7017  -25.0461   24.8806 C   0  0  0  0  0  0  0  0  0  0  0  0
  -22.7959   -8.5538   20.5824 C   0  0  0  0  0  0  0  0  0  0  0  0
  -23.2754   -8.9895   22.9100 C   0  0  0  0  0  0  0  0  0  0  0  0
  -23.9668  -23.6780   24.8392 C   0  0  0  0  0  0  0  0  0  0  0  0
  -20.0987   -7.9061   23.3045 C   0  0  0  0  0  0  0  0  0  0  0  0
  -19.2173   -7.9479   24.3847 C   0  0  0  0  0  0  0  0  0  0  0  0
  -24.8344  -23.9199   22.6014 C   0  0  0  0  0  0  0  0  0  0  0  0
  -26.1677  -19.2695   24.3219 C   0  0  0  0  0  0  0  0  0  0  0  0
  -20.5570   -6.3035   25.5416 C   0  0  0  0  0  0  0  0  0  0  0  0
  -24.0029  -10.5491   21.2143 C   0  0  0  0  0  0  0  0  0  0  0  0
  -24.0933  -13.0517   20.7282 C   0  0  0  0  0  0  0  0  0  0  0  0
  -18.2795  -30.2514   22.3696 C   0  0  0  0  0  0  0  0  0  0  0  0
  -23.9914  -25.8609   23.7767 C   0  0  0  0  0  0  0  0  0  0  0  0
  -18.9131  -29.0130   22.5867 C   0  0  0  0  0  0  0  0  0  0  0  0
  -24.5744  -25.2985   22.6322 C   0  0  0  0  0  0  0  0  0  0  0  0
  -22.7132   -8.1792   21.9235 C   0  0  0  0  0  0  0  0  0  0  0  0
  -24.5306  -23.1142   23.6984 C   0  0  0  0  0  0  0  0  0  0  0  0
  -21.2093   -7.0629   23.3428 C   0  0  0  0  0  0  0  0  0  0  0  0
  -26.4905  -17.9334   24.1122 C   0  0  0  0  0  0  0  0  0  0  0  0
  -19.4464   -7.1467   25.5033 C   0  0  0  0  0  0  0  0  0  0  0  0
  -21.4385   -6.2617   24.4613 C   0  0  0  0  0  0  0  0  0  0  0  0
  -25.4937  -16.9658   24.1695 C   0  0  0  0  0  0  0  0  0  0  0  0
  -24.6696  -11.7729   20.8486 C   0  0  0  0  0  0  0  0  0  0  0  0
  -24.8437  -19.5835   24.5833 C   0  0  0  0  0  0  0  0  0  0  0  0
  -24.1999  -17.3829   24.4379 C   0  0  0  0  0  0  0  0  0  0  0  0
  -25.1372  -13.8656   20.3617 C   0  0  0  0  0  0  0  0  0  0  0  0
  -22.7358  -13.4667   20.9297 C   0  0  0  0  0  0  0  0  0  0  0  0
  -22.2702  -27.6758   21.8152 C   0  0  0  0  0  0  0  0  0  0  0  0
  -25.1849  -28.5266   20.6739 C   0  0  0  0  0  0  0  0  0  0  0  0
  -28.4810  -27.7392   20.2702 C   0  0  0  0  0  0  0  0  0  0  0  0
  -31.0633  -13.4922   21.1312 C   0  0  0  0  0  0  0  0  0  0  0  0
  -18.5020  -31.0458   21.1070 C   0  0  0  0  0  0  0  0  0  0  0  0
  -23.7240  -27.3394   23.8472 C   0  0  0  0  0  0  0  0  0  0  0  0
  -24.9229  -26.1333   21.4280 C   0  0  0  0  0  0  0  0  0  0  0  0
  -19.7527  -30.6287   20.3374 C   0  0  0  0  0  0  0  0  0  0  0  0
  -29.3195  -13.7748   18.0399 C   0  0  0  0  0  0  0  0  0  0  0  0
  -19.8250  -29.1097   20.2192 C   0  0  0  0  0  0  0  0  0  0  0  0
  -27.8781  -13.4092   18.3983 C   0  0  0  0  0  0  0  0  0  0  0  0
  -30.3263  -12.9425   18.8310 C   0  0  0  0  0  0  0  0  0  0  0  0
  -28.7001  -12.6077   20.6523 C   0  0  0  0  0  0  0  0  0  0  0  0
  -19.9160  -28.4524   21.6017 C   0  0  1  0  0  0  0  0  0  0  0  0
  -23.5845  -27.9876   22.4732 C   0  0  1  0  0  0  0  0  0  0  0  0
  -27.6488  -13.4597   19.9209 C   0  0  2  0  0  0  0  0  0  0  0  0
  -23.0754  -16.4013   24.5150 C   0  0  0  0  0  0  0  0  0  0  0  0
  -30.6065  -28.6147   19.2636 C   0  0  0  0  0  0  0  0  0  0  0  0
  -24.1823  -27.7601   17.8960 C   0  0  0  0  0  0  0  0  0  0  0  0
  -26.5621  -27.7404   17.1187 C   0  0  0  0  0  0  0  0  0  0  0  0
  -25.5478  -29.8539   17.9712 C   0  0  0  0  0  0  0  0  0  0  0  0
  -29.8352  -27.8073   22.9008 C   0  0  0  0  0  0  0  0  0  0  0  0
  -24.4589  -21.0152   24.8142 C   0  0  0  0  0  0  0  0  0  1  0  0
  -30.1855  -15.9642   24.2013 C   0  0  0  0  0  0  0  0  0  0  0  0
  -31.5672  -15.5173   23.7145 C   0  0  0  0  0  0  0  0  0  0  0  0
  -30.1334  -17.4769   24.4074 C   0  0  0  0  0  0  0  0  0  0  0  0
  -31.6495  -14.0117   23.4861 C   0  0  0  0  0  0  0  0  0  0  0  0
  -28.7508  -17.9357   24.8518 C   0  0  0  0  0  0  0  0  0  0  0  0
  -26.1070  -28.0026   19.5996 C   0  0  1  0  0  0  0  0  0  0  0  0
  -29.7458  -28.5421   20.5153 C   0  0  2  0  0  0  0  0  0  0  0  0
  -25.5916  -28.3229   18.1682 C   0  0  0  0  0  0  0  0  0  0  0  0
  -25.9780  -11.7697   20.5802 N   0  0  0  0  0  0  0  0  0  0  0  0
  -23.8479  -18.6713   24.6469 N   0  0  0  0  0  0  0  0  0  0  0  0
  -26.2325  -13.0563   20.2874 N   0  0  0  0  0  0  0  0  0  0  0  0
  -24.6367  -27.5728   21.5431 N   0  0  0  0  0  0  0  0  0  0  0  0
  -30.0545  -13.0346   20.2675 N   0  0  0  0  0  0  0  0  0  0  0  0
  -25.2158  -15.1874   20.0988 N   0  0  0  0  0  0  0  0  0  0  0  0
  -21.7907  -12.5019   21.3042 N   0  0  0  0  0  0  0  0  0  0  0  0
  -21.2597  -28.5651   22.1274 N   0  0  0  0  0  0  0  0  0  0  0  0
  -27.4282  -28.5466   19.8947 N   0  0  0  0  0  0  0  0  0  0  0  0
  -30.7207  -13.5551   22.4763 N   0  0  0  0  0  0  0  0  0  0  0  0
  -30.5512  -27.9202   21.6041 N   0  3  0  0  0  0  0  0  0  0  0  0
  -22.3683  -14.6549   20.7661 O   0  0  0  0  0  0  0  0  0  0  0  0
  -22.1799  -26.7013   21.0776 O   0  0  0  0  0  0  0  0  0  0  0  0
  -24.9650  -29.7384   20.7439 O   0  0  0  0  0  0  0  0  0  0  0  0
  -28.4327  -26.5175   20.3954 O   0  0  0  0  0  0  0  0  0  0  0  0
  -32.1844  -13.8254   20.7323 O   0  0  0  0  0  0  0  0  0  0  0  0
  -22.0839   -7.0231   22.2699 O   0  0  0  0  0  0  0  0  0  0  0  0
  -24.7898  -21.7790   23.6551 O   0  0  0  0  0  0  0  0  0  1  0  0
  -27.7875  -17.6047   23.8538 O   0  0  0  0  0  0  0  0  0  0  0  0
  -18.6008   -7.1881   26.5412 F   0  0  0  0  0  0  0  0  0  0  0  0
  -22.5043   -5.4506   24.5044 F   0  0  0  0  0  0  0  0  0  0  0  0
  -25.8699  -15.3023   23.9127 Cl  0  0  0  0  0  0  0  0  0  0  0  0
  1  2  1  0  0  0  0
  1  5  2  0  0  0  0
  2  6  2  0  0  0  0
  3  8  2  0  0  0  0
  3 16  1  0  0  0  0
  4  9  1  0  0  0  0
  4 16  2  0  0  0  0
  5 18  1  0  0  0  0
  6 20  1  0  0  0  0
  7 10  2  0  0  0  0
  7 19  1  0  0  0  0
  8 22  1  0  0  0  0
  9 22  2  0  0  0  0
 10 23  1  0  0  0  0
 11 12  2  0  0  0  0
 11 24  1  0  0  0  0
 12 26  1  0  0  0  0
 13 21  1  0  0  0  0
 13 23  2  0  0  0  0
 14 25  2  0  0  0  0
 14 30  1  0  0  0  0
 15 26  2  0  0  0  0
 15 27  1  0  0  0  0
 16 29  1  0  0  0  0
 17 29  1  0  0  0  0
 17 32  2  0  0  0  0
 17 33  1  0  0  0  0
 18 20  2  0  0  0  0
 18 38  1  0  0  0  0
 19 21  2  0  0  0  0
 19 39  1  0  0  0  0
 20 47  1  0  0  0  0
 21 40  1  0  0  0  0
 22 81  1  0  0  0  0
 23 82  1  0  0  0  0
 24 27  2  0  0  0  0
 24 81  1  0  0  0  0
 25 28  1  0  0  0  0
 25 83  1  0  0  0  0
 26 84  1  0  0  0  0
 27 85  1  0  0  0  0
 28 31  2  0  0  0  0
 28 86  1  0  0  0  0
 29 65  2  0  0  0  0
 30 56  1  0  0  0  0
 30 66  2  0  0  0  0
 31 50  1  0  0  0  0
 31 66  1  0  0  0  0
 32 67  1  0  0  0  0
 32 70  1  0  0  0  0
 33 71  1  0  0  0  0
 33 76  2  0  0  0  0
 34 48  1  0  0  0  0
 34 72  1  0  0  0  0
 34 77  2  0  0  0  0
 35 62  1  0  0  0  0
 35 68  1  0  0  0  0
 35 78  2  0  0  0  0
 36 63  1  0  0  0  0
 36 73  1  0  0  0  0
 36 79  2  0  0  0  0
 37 69  1  0  0  0  0
 37 74  1  0  0  0  0
 37 80  2  0  0  0  0
 38 41  1  0  0  0  0
 39 48  1  0  0  0  0
 40 68  1  0  0  0  0
 41 43  1  0  0  0  0
 42 44  1  0  0  0  0
 42 45  1  0  0  0  0
 43 47  1  0  0  0  0
 44 49  1  0  0  0  0
 45 69  1  0  0  0  0
 46 49  1  0  0  0  0
 46 69  1  0  0  0  0
 47 72  1  0  0  0  0
 48 68  1  0  0  0  0
 49 67  1  0  0  0  0
 51 63  1  0  0  0  0
 52 64  1  0  0  0  0
 53 64  1  0  0  0  0
 54 64  1  0  0  0  0
 55 75  1  0  0  0  0
 56 82  1  0  0  0  0
 57 58  1  0  0  0  0
 57 59  1  0  0  0  0
 58 60  1  0  0  0  0
 59 61  1  0  0  0  0
 60 74  1  0  0  0  0
 61 83  1  0  0  0  0
 62 64  1  0  0  0  0
 62 73  1  0  0  0  0
 63 75  1  0  0  0  0
 65 67  1  0  0  0  0
M  CHG  1  75   1
M  ISO  4  37 100  56 101  74 100  82 101
M  END
> <Batch ID>
0033

> <Smiles>
CNC(C)C(=O)NC(C(=O)N1Cc2cc([101O:1][101CH2:1]c3cc(OCCCCC[100NH:0][100C:0](=O)N4CCCC(n5nc(-c6ccc(Oc7ccc(F)cc7F)cc6)c(C(N)=O)c5N)C4)c(Cl)c(C)n3)ccc2CC1C(=O)NC1CCCc2ccccc21)C(C)(C)C

> <Shape>
0.252

> <Color>
0.212

> <Negative vol penalty>
0.000

$$$$

  -OEChem-04052316483D

 81 89  0     1  0  0  0  0  0999 V2000
  -23.2327  -23.8911   20.6460 C   0  0  0  0  0  0  0  0  0  0  0  0
  -24.3779  -23.1108   20.7689 C   0  0  0  0  0  0  0  0  0  0  0  0
  -22.9377  -27.7446   19.1377 C   0  0  0  0  0  0  0  0  0  0  0  0
  -23.0371  -27.6719   21.5505 C   0  0  0  0  0  0  0  0  0  0  0  0
  -22.0072  -23.4047   21.0995 C   0  0  0  0  0  0  0  0  0  0  0  0
  -24.2984  -21.8441   21.3464 C   0  0  0  0  0  0  0  0  0  0  0  0
  -26.8771  -18.3538   18.7361 C   0  0  0  0  0  0  0  0  0  0  0  0
  -21.5753  -27.4496   19.1848 C   0  0  0  0  0  0  0  0  0  0  0  0
  -21.6746  -27.3770   21.5977 C   0  0  0  0  0  0  0  0  0  0  0  0
  -28.2617  -18.3325   18.8972 C   0  0  0  0  0  0  0  0  0  0  0  0
  -18.7537  -29.0542   21.3222 C   0  0  0  0  0  0  0  0  0  0  0  0
  -17.9742  -29.7456   22.2496 C   0  0  0  0  0  0  0  0  0  0  0  0
  -28.0481  -16.4883   20.4374 C   0  0  0  0  0  0  0  0  0  0  0  0
  -17.3659  -27.6551   23.2969 C   0  0  0  0  0  0  0  0  0  0  0  0
  -23.6687  -27.8557   20.3205 C   0  0  0  0  0  0  0  0  0  0  0  0
  -25.6713  -29.4356   20.2866 C   0  0  0  0  0  0  0  0  0  0  0  0
  -21.9110  -22.1275   21.6741 C   0  0  0  0  0  0  0  0  0  0  0  0
  -26.0653  -17.4481   19.4340 C   0  0  0  0  0  0  0  0  0  0  0  0
  -23.0708  -21.3408   21.8092 C   0  0  0  0  0  0  0  0  0  0  0  0
  -26.6536  -16.4984   20.2815 C   0  0  0  0  0  0  0  0  0  0  0  0
  -20.9437  -27.2658   20.4149 C   0  0  0  0  0  0  0  0  0  0  0  0
  -28.8473  -17.4016   19.7502 C   0  0  0  0  0  0  0  0  0  0  0  0
  -18.8392  -27.6632   21.3822 C   0  0  0  0  0  0  0  0  0  0  0  0
  -17.2804  -29.0461   23.2369 C   0  0  0  0  0  0  0  0  0  0  0  0
  -18.1454  -26.9637   22.3696 C   0  0  0  0  0  0  0  0  0  0  0  0
  -25.0763  -28.1598   20.2724 C   0  0  0  0  0  0  0  0  0  0  0  0
  -27.0205  -29.1858   20.2243 C   0  0  0  0  0  0  0  0  0  0  0  0
  -25.0592  -30.7305   20.3503 C   0  0  0  0  0  0  0  0  0  0  0  0
  -23.7535  -17.7155   21.5991 C   0  0  0  0  0  0  0  0  0  0  0  0
  -23.5066  -14.5108   21.1613 C   0  0  0  0  0  0  0  0  0  0  0  0
  -24.9952  -11.5954   20.1964 C   0  0  0  0  0  0  0  0  0  0  0  0
  -30.2394  -24.5268   21.8938 C   0  0  0  0  0  0  0  0  0  0  0  0
  -20.5729  -21.6638   22.1927 C   0  0  0  0  0  0  0  0  0  0  0  0
  -24.5753  -17.4666   19.2288 C   0  0  0  0  0  0  0  0  0  0  0  0
  -25.8281  -15.4912   21.0380 C   0  0  0  0  0  0  0  0  0  0  0  0
  -20.5076  -20.1608   22.4516 C   0  0  0  0  0  0  0  0  0  0  0  0
  -30.1621  -25.9727   18.5771 C   0  0  0  0  0  0  0  0  0  0  0  0
  -21.7431  -19.6967   23.2164 C   0  0  0  0  0  0  0  0  0  0  0  0
  -33.1760  -19.8700   21.3646 C   0  0  0  0  0  0  0  0  0  0  0  0
  -33.0228  -21.3845   21.4642 C   0  0  0  0  0  0  0  0  0  0  0  0
  -28.8930  -26.8241   18.6460 C   0  0  0  0  0  0  0  0  0  0  0  0
  -31.1527  -19.5700   22.8364 C   0  0  0  0  0  0  0  0  0  0  0  0
  -29.9915  -24.6634   19.3419 C   0  0  0  0  0  0  0  0  0  0  0  0
  -28.3173  -25.6807   20.8371 C   0  0  0  0  0  0  0  0  0  0  0  0
  -23.0207  -19.9516   22.4075 C   0  0  1  0  0  0  0  0  0  0  0  0
  -23.8052  -16.8337   20.3836 C   0  0  1  0  0  0  0  0  0  0  0  0
  -31.8292  -19.1592   21.5231 C   0  0  2  0  0  0  0  0  0  0  0  0
  -32.3467  -21.8118   22.7775 C   0  0  2  0  0  0  0  0  0  0  0  0
  -30.9849  -21.0961   22.9493 C   0  0  2  0  0  0  0  0  0  0  0  0
  -28.4336  -27.0283   20.1018 C   0  0  2  0  0  0  0  0  0  0  0  0
  -30.3088  -21.4338   24.2813 C   0  0  0  0  0  0  0  0  0  0  0  0
  -24.5539   -9.1341   19.9853 C   0  0  0  0  0  0  0  0  0  0  0  0
  -23.7987  -14.2017   24.1828 C   0  0  0  0  0  0  0  0  0  0  0  0
  -24.3025  -11.7769   23.8159 C   0  0  0  0  0  0  0  0  0  0  0  0
  -22.0872  -12.7046   23.1416 C   0  0  0  0  0  0  0  0  0  0  0  0
  -25.4496  -11.6469   17.2724 C   0  0  0  0  0  0  0  0  0  0  0  0
  -32.0080  -17.6530   21.4602 C   0  0  0  0  0  0  0  0  0  0  0  0
  -32.2164  -23.3374   22.8069 C   0  0  0  0  0  0  0  0  0  0  0  0
  -30.6961  -16.9389   21.1727 C   0  0  0  0  0  0  0  0  0  1  0  0
  -24.1411  -13.2939   21.7902 C   0  0  1  0  0  0  0  0  0  0  0  0
  -24.5263  -10.4805   19.2789 C   0  0  2  0  0  0  0  0  0  0  0  0
  -23.5981  -13.0144   23.2200 C   0  0  0  0  0  0  0  0  0  0  0  0
  -25.9738  -27.1729   20.2062 N   0  0  0  0  0  0  0  0  0  0  0  0
  -27.1466  -27.8286   20.1781 N   0  0  0  0  0  0  0  0  0  0  0  0
  -24.3751  -15.5535   20.8088 N   0  0  0  0  0  0  0  0  0  0  0  0
  -29.5715  -24.9286   20.7251 N   0  0  0  0  0  0  0  0  0  0  0  0
  -28.0994  -29.9970   20.2051 N   0  0  0  0  0  0  0  0  0  0  0  0
  -23.6610  -30.8065   20.4094 N   0  0  0  0  0  0  0  0  0  0  0  0
  -23.1734  -18.9494   21.3747 N   0  0  0  0  0  0  0  0  0  0  0  0
  -23.9403  -12.1968   20.8497 N   0  0  0  0  0  0  0  0  0  0  0  0
  -31.4157  -23.8129   21.7007 N   0  0  0  0  0  0  0  0  0  0  0  0
  -25.4012  -10.3979   18.0753 N   0  3  0  0  0  0  0  0  0  0  0  0
  -25.7316  -31.7894   20.3382 O   0  0  0  0  0  0  0  0  0  0  0  0
  -24.2049  -17.3060   22.6623 O   0  0  0  0  0  0  0  0  0  0  0  0
  -22.2862  -14.5324   20.9828 O   0  0  0  0  0  0  0  0  0  0  0  0
  -26.1791  -11.8996   20.3239 O   0  0  0  0  0  0  0  0  0  0  0  0
  -29.8210  -24.7895   23.0266 O   0  0  0  0  0  0  0  0  0  0  0  0
  -19.6141  -26.9782   20.4613 O   0  0  0  0  0  0  0  0  0  0  0  0
  -30.1985  -17.3790   19.9098 O   0  0  0  0  0  0  0  0  0  1  0  0
  -16.5331  -29.7103   24.1283 F   0  0  0  0  0  0  0  0  0  0  0  0
  -18.2247  -25.6274   22.4329 F   0  0  0  0  0  0  0  0  0  0  0  0
  1  2  1  0  0  0  0
  1  5  2  0  0  0  0
  2  6  2  0  0  0  0
  3  8  2  0  0  0  0
  3 15  1  0  0  0  0
  4  9  1  0  0  0  0
  4 15  2  0  0  0  0
  5 17  1  0  0  0  0
  6 19  1  0  0  0  0
  7 10  2  0  0  0  0
  7 18  1  0  0  0  0
  8 21  1  0  0  0  0
  9 21  2  0  0  0  0
 10 22  1  0  0  0  0
 11 12  2  0  0  0  0
 11 23  1  0  0  0  0
 12 24  1  0  0  0  0
 13 20  1  0  0  0  0
 13 22  2  0  0  0  0
 14 24  2  0  0  0  0
 14 25  1  0  0  0  0
 15 26  1  0  0  0  0
 16 26  1  0  0  0  0
 16 27  2  0  0  0  0
 16 28  1  0  0  0  0
 17 19  2  0  0  0  0
 17 33  1  0  0  0  0
 18 20  2  0  0  0  0
 18 34  1  0  0  0  0
 19 45  1  0  0  0  0
 20 35  1  0  0  0  0
 21 78  1  0  0  0  0
 22 79  1  0  0  0  0
 23 25  2  0  0  0  0
 23 78  1  0  0  0  0
 24 80  1  0  0  0  0
 25 81  1  0  0  0  0
 26 63  2  0  0  0  0
 27 64  1  0  0  0  0
 27 67  1  0  0  0  0
 28 68  1  0  0  0  0
 28 73  2  0  0  0  0
 29 46  1  0  0  0  0
 29 69  1  0  0  0  0
 29 74  2  0  0  0  0
 30 60  1  0  0  0  0
 30 65  1  0  0  0  0
 30 75  2  0  0  0  0
 31 61  1  0  0  0  0
 31 70  1  0  0  0  0
 31 76  2  0  0  0  0
 32 66  1  0  0  0  0
 32 71  1  0  0  0  0
 32 77  2  0  0  0  0
 33 36  1  0  0  0  0
 34 46  1  0  0  0  0
 35 65  1  0  0  0  0
 36 38  1  0  0  0  0
 37 41  1  0  0  0  0
 37 43  1  0  0  0  0
 38 45  1  0  0  0  0
 39 40  1  0  0  0  0
 39 47  1  0  0  0  0
 40 48  1  0  0  0  0
 41 50  1  0  0  0  0
 42 47  1  0  0  0  0
 42 49  1  0  0  0  0
 43 66  1  0  0  0  0
 44 50  1  0  0  0  0
 44 66  1  0  0  0  0
 45 69  1  0  0  0  0
 46 65  1  0  0  0  0
 47 57  1  0  0  0  0
 48 49  1  0  0  0  0
 48 58  1  0  0  0  0
 49 51  1  0  0  0  0
 50 64  1  0  0  0  0
 52 61  1  0  0  0  0
 53 62  1  0  0  0  0
 54 62  1  0  0  0  0
 55 62  1  0  0  0  0
 56 72  1  0  0  0  0
 57 59  1  0  0  0  0
 58 71  1  0  0  0  0
 59 79  1  0  0  0  0
 60 62  1  0  0  0  0
 60 70  1  0  0  0  0
 61 72  1  0  0  0  0
 63 64  1  0  0  0  0
M  CHG  1  72   1
M  ISO  4  32 100  59 101  71 100  79 101
M  END
> <Batch ID>
0033

> <Smiles>
CNC(C)C(=O)NC(C(=O)N1Cc2cc([101O:1][101CH2:1]CC3CCC(C[100NH:0][100C:0](=O)N4CCCC(n5nc(-c6ccc(Oc7ccc(F)cc7F)cc6)c(C(N)=O)c5N)C4)C(C)C3)ccc2CC1C(=O)NC1CCCc2ccccc21)C(C)(C)C

> <Shape>
0.217

> <Color>
0.075

> <Negative vol penalty>
0.000

$$$$

  -OEChem-04052316483D

 97105  0     1  0  0  0  0  0999 V2000
  -28.9717  -24.7401   16.6456 C   0  0  0  0  0  0  0  0  0  0  0  0
  -27.7069  -24.9156   17.1978 C   0  0  0  0  0  0  0  0  0  0  0  0
  -26.8019  -17.6577   19.3856 C   0  0  0  0  0  0  0  0  0  0  0  0
  -27.4966  -16.7464   21.5126 C   0  0  0  0  0  0  0  0  0  0  0  0
  -30.0985  -25.1963   17.3283 C   0  0  0  0  0  0  0  0  0  0  0  0
  -27.5683  -25.5465   18.4336 C   0  0  0  0  0  0  0  0  0  0  0  0
  -23.8211  -28.9527   18.4668 C   0  0  0  0  0  0  0  0  0  0  0  0
  -28.1129  -18.0592   19.1294 C   0  0  0  0  0  0  0  0  0  0  0  0
  -28.8077  -17.1479   21.2564 C   0  0  0  0  0  0  0  0  0  0  0  0
  -22.5193  -28.4660   18.5773 C   0  0  0  0  0  0  0  0  0  0  0  0
  -30.6080  -20.0068   21.3853 C   0  0  0  0  0  0  0  0  0  0  0  0
  -31.3068  -20.6343   22.4165 C   0  0  0  0  0  0  0  0  0  0  0  0
  -22.5264  -28.9987   20.9301 C   0  0  0  0  0  0  0  0  0  0  0  0
  -22.0700  -24.9399   21.2201 C   0  0  0  0  0  0  0  0  0  0  0  0
  -21.6685  -22.3647   20.2251 C   0  0  0  0  0  0  0  0  0  0  0  0
  -32.9695  -18.8824   22.3556 C   0  0  0  0  0  0  0  0  0  0  0  0
  -26.4937  -17.0013   20.5772 C   0  0  0  0  0  0  0  0  0  0  0  0
  -24.5467  -15.3545   20.5086 C   0  0  0  0  0  0  0  0  0  0  0  0
  -29.9729  -25.8416   18.5686 C   0  0  0  0  0  0  0  0  0  0  0  0
  -24.4904  -29.4568   19.5913 C   0  0  0  0  0  0  0  0  0  0  0  0
  -28.6946  -26.0104   19.1342 C   0  0  0  0  0  0  0  0  0  0  0  0
  -23.8357  -29.4935   20.8307 C   0  0  0  0  0  0  0  0  0  0  0  0
  -23.1511  -24.0697   21.0809 C   0  0  0  0  0  0  0  0  0  0  0  0
  -20.5874  -23.2350   20.3643 C   0  0  0  0  0  0  0  0  0  0  0  0
  -20.7881  -24.5226   20.8618 C   0  0  0  0  0  0  0  0  0  0  0  0
  -22.9504  -22.7821   20.5834 C   0  0  0  0  0  0  0  0  0  0  0  0
  -29.1158  -17.8043   20.0647 C   0  0  0  0  0  0  0  0  0  0  0  0
  -21.8727  -28.4863   19.8097 C   0  0  0  0  0  0  0  0  0  0  0  0
  -31.0898  -18.8170   20.8392 C   0  0  0  0  0  0  0  0  0  0  0  0
  -32.4876  -20.0721   22.9016 C   0  0  0  0  0  0  0  0  0  0  0  0
  -32.2706  -18.2549   21.3244 C   0  0  0  0  0  0  0  0  0  0  0  0
  -25.1396  -16.5869   20.8427 C   0  0  0  0  0  0  0  0  0  0  0  0
  -23.2584  -15.4559   20.9738 C   0  0  0  0  0  0  0  0  0  0  0  0
  -25.1103  -14.2195   19.8378 C   0  0  0  0  0  0  0  0  0  0  0  0
  -27.1216  -28.6525   21.1831 C   0  0  0  0  0  0  0  0  0  0  0  0
  -26.5020  -31.3874   22.8136 C   0  0  0  0  0  0  0  0  0  0  0  0
  -24.2080  -33.7078   23.8138 C   0  0  0  0  0  0  0  0  0  0  0  0
  -20.2635  -17.7149   25.3830 C   0  0  0  0  0  0  0  0  0  0  0  0
  -31.2237  -26.2753   19.2912 C   0  0  0  0  0  0  0  0  0  0  0  0
  -25.8849  -30.0026   19.4499 C   0  0  0  0  0  0  0  0  0  0  0  0
  -24.5030  -30.0430   22.0640 C   0  0  0  0  0  0  0  0  0  0  0  0
  -30.9613  -27.2680   20.4209 C   0  0  0  0  0  0  0  0  0  0  0  0
  -20.2647  -19.2099   22.1517 C   0  0  0  0  0  0  0  0  0  0  0  0
  -29.7933  -26.7994   21.2828 C   0  0  0  0  0  0  0  0  0  0  0  0
  -21.4668  -18.5713   21.4537 C   0  0  0  0  0  0  0  0  0  0  0  0
  -20.5353  -19.4494   23.6354 C   0  0  0  0  0  0  0  0  0  0  0  0
  -22.1878  -17.6217   23.6846 C   0  0  0  0  0  0  0  0  0  0  0  0
  -28.5015  -26.7121   20.4611 C   0  0  1  0  0  0  0  0  0  0  0  0
  -26.6563  -30.0190   20.7659 C   0  0  1  0  0  0  0  0  0  0  0  0
  -21.9425  -17.3095   22.1984 C   0  0  2  0  0  0  0  0  0  0  0  0
  -24.5145  -24.5388   21.4704 C   0  0  0  0  0  0  0  0  0  0  0  0
  -19.2240  -22.7659   19.9750 C   0  0  0  0  0  0  0  0  0  0  0  0
  -23.9933  -35.8082   25.1701 C   0  0  0  0  0  0  0  0  0  0  0  0
  -26.6451  -29.7423   25.3794 C   0  0  0  0  0  0  0  0  0  0  0  0
  -25.5106  -31.6298   26.5704 C   0  0  0  0  0  0  0  0  0  0  0  0
  -27.7431  -31.9851   25.5156 C   0  0  0  0  0  0  0  0  0  0  0  0
  -23.3047  -35.2688   21.4673 C   0  0  0  0  0  0  0  0  0  0  0  0
  -19.6458  -25.4716   21.0204 C   0  0  0  0  0  0  0  0  0  0  0  0
  -24.0979  -21.8287   20.4244 C   0  0  0  0  0  0  0  0  0  0  0  0
  -19.1615  -26.1002   19.7052 C   0  0  0  0  0  0  0  0  0  0  0  0
  -25.1164  -18.3445   28.9863 C   0  0  0  0  0  0  0  0  0  0  0  0
  -24.6773  -16.9039   28.7169 C   0  0  0  0  0  0  0  0  0  0  0  0
  -26.0198  -18.9231   27.8922 C   0  0  0  0  0  0  0  0  0  0  0  0
  -23.7656  -16.3328   29.8084 C   0  0  0  0  0  0  0  0  0  0  0  0
  -25.3991  -19.0307   26.4951 C   0  0  0  0  0  0  0  0  0  0  0  0
  -22.4267  -17.0519   30.0076 C   0  0  0  0  0  0  0  0  0  0  0  0
  -26.3242  -19.5469   25.3888 C   0  0  0  0  0  0  0  0  0  0  0  0
  -21.5234  -17.1378   28.7740 C   0  0  0  0  0  0  0  0  0  0  0  0
  -25.6272  -19.7149   24.0376 C   0  0  0  0  0  0  0  0  0  0  0  0
  -21.0497  -15.7731   28.2662 C   0  0  0  0  0  0  0  0  0  0  0  0
  -26.5409  -20.3038   22.9555 C   0  0  0  0  0  0  0  0  0  0  0  0
  -20.1156  -15.8965   27.0654 C   0  0  0  0  0  0  0  0  0  0  0  0
  -25.8930  -20.5474   21.5970 C   0  0  0  0  0  0  0  0  0  0  0  0
  -20.2189  -26.9657   19.0297 C   0  0  0  0  0  0  0  0  0  1  0  0
  -25.7018  -31.7406   24.0441 C   0  0  1  0  0  0  0  0  0  0  0  0
  -24.2324  -35.2254   23.7859 C   0  0  2  0  0  0  0  0  0  0  0  0
  -26.3880  -31.2622   25.3547 C   0  0  0  0  0  0  0  0  0  0  0  0
  -24.2970  -17.4107   21.4715 N   0  0  0  0  0  0  0  0  0  0  0  0
  -23.1615  -16.6947   21.5361 N   0  0  0  0  0  0  0  0  0  0  0  0
  -25.8689  -30.5592   21.8760 N   0  0  0  0  0  0  0  0  0  0  0  0
  -20.9812  -18.2136   24.2834 N   0  0  0  0  0  0  0  0  0  0  0  0
  -22.2103  -14.6054   20.9526 N   0  0  0  0  0  0  0  0  0  0  0  0
  -26.4487  -14.2829   19.4269 N   0  0  0  0  0  0  0  0  0  0  0  0
  -27.9405  -28.0308   20.2598 N   0  0  0  0  0  0  0  0  0  0  0  0
  -25.4707  -33.1797   23.9815 N   0  0  0  0  0  0  0  0  0  0  0  0
  -20.7498  -16.5357   25.9341 N   0  0  0  0  0  0  0  0  0  0  0  0
  -23.1779  -35.7436   22.8692 N   0  3  0  0  0  0  0  0  0  0  0  0
  -24.7948  -21.5351   21.7075 N   0  3  0  0  0  0  0  0  0  0  0  0
  -24.4418  -13.1863   19.5949 O   0  0  0  0  0  0  0  0  0  0  0  0
  -26.7653  -28.1966   22.2633 O   0  0  0  0  0  0  0  0  0  0  0  0
  -27.6440  -31.8358   22.6856 O   0  0  0  0  0  0  0  0  0  0  0  0
  -23.1720  -33.0561   23.7019 O   0  0  0  0  0  0  0  0  0  0  0  0
  -19.2603  -18.2760   25.8366 O   0  0  0  0  0  0  0  0  0  0  0  0
  -30.3952  -18.1957   19.8150 O   0  0  0  0  0  0  0  0  0  0  0  0
  -20.5933  -28.0080   19.9213 O   0  0  0  0  0  0  0  0  0  1  0  0
  -33.1595  -20.6756   23.8909 F   0  0  0  0  0  0  0  0  0  0  0  0
  -32.7391  -17.1127   20.8030 F   0  0  0  0  0  0  0  0  0  0  0  0
  1  2  1  0  0  0  0
  1  5  2  0  0  0  0
  2  6  2  0  0  0  0
  3  8  2  0  0  0  0
  3 17  1  0  0  0  0
  4  9  1  0  0  0  0
  4 17  2  0  0  0  0
  5 19  1  0  0  0  0
  6 21  1  0  0  0  0
  7 10  2  0  0  0  0
  7 20  1  0  0  0  0
  8 27  1  0  0  0  0
  9 27  2  0  0  0  0
 10 28  1  0  0  0  0
 11 12  2  0  0  0  0
 11 29  1  0  0  0  0
 12 30  1  0  0  0  0
 13 22  1  0  0  0  0
 13 28  2  0  0  0  0
 14 23  2  0  0  0  0
 14 25  1  0  0  0  0
 15 24  1  0  0  0  0
 15 26  2  0  0  0  0
 16 30  2  0  0  0  0
 16 31  1  0  0  0  0
 17 32  1  0  0  0  0
 18 32  1  0  0  0  0
 18 33  2  0  0  0  0
 18 34  1  0  0  0  0
 19 21  2  0  0  0  0
 19 39  1  0  0  0  0
 20 22  2  0  0  0  0
 20 40  1  0  0  0  0
 21 48  1  0  0  0  0
 22 41  1  0  0  0  0
 23 26  1  0  0  0  0
 23 51  1  0  0  0  0
 24 25  2  0  0  0  0
 24 52  1  0  0  0  0
 25 58  1  0  0  0  0
 26 59  1  0  0  0  0
 27 94  1  0  0  0  0
 28 95  1  0  0  0  0
 29 31  2  0  0  0  0
 29 94  1  0  0  0  0
 30 96  1  0  0  0  0
 31 97  1  0  0  0  0
 32 78  2  0  0  0  0
 33 79  1  0  0  0  0
 33 82  1  0  0  0  0
 34 83  1  0  0  0  0
 34 89  2  0  0  0  0
 35 49  1  0  0  0  0
 35 84  1  0  0  0  0
 35 90  2  0  0  0  0
 36 75  1  0  0  0  0
 36 80  1  0  0  0  0
 36 91  2  0  0  0  0
 37 76  1  0  0  0  0
 37 85  1  0  0  0  0
 37 92  2  0  0  0  0
 38 81  1  0  0  0  0
 38 86  1  0  0  0  0
 38 93  2  0  0  0  0
 39 42  1  0  0  0  0
 40 49  1  0  0  0  0
 41 80  1  0  0  0  0
 42 44  1  0  0  0  0
 43 45  1  0  0  0  0
 43 46  1  0  0  0  0
 44 48  1  0  0  0  0
 45 50  1  0  0  0  0
 46 81  1  0  0  0  0
 47 50  1  0  0  0  0
 47 81  1  0  0  0  0
 48 84  1  0  0  0  0
 49 80  1  0  0  0  0
 50 79  1  0  0  0  0
 53 76  1  0  0  0  0
 54 77  1  0  0  0  0
 55 77  1  0  0  0  0
 56 77  1  0  0  0  0
 57 87  1  0  0  0  0
 58 60  1  0  0  0  0
 59 88  1  0  0  0  0
 60 74  1  0  0  0  0
 61 62  1  0  0  0  0
 61 63  1  0  0  0  0
 62 64  1  0  0  0  0
 63 65  1  0  0  0  0
 64 66  1  0  0  0  0
 65 67  1  0  0  0  0
 66 68  1  0  0  0  0
 67 69  1  0  0  0  0
 68 70  1  0  0  0  0
 69 71  1  0  0  0  0
 70 72  1  0  0  0  0
 71 73  1  0  0  0  0
 72 86  1  0  0  0  0
 73 88  1  0  0  0  0
 74 95  1  0  0  0  0
 75 77  1  0  0  0  0
 75 85  1  0  0  0  0
 76 87  1  0  0  0  0
 78 79  1  0  0  0  0
M  CHG  2  87   1  88   1
M  ISO  4  38 100  74 101  86 100  95 101
M  END
> <Batch ID>
0033

> <Smiles>
CNC(C)C(=O)NC(C(=O)N1Cc2cc([101O:1][101CH2:1]CCc3cc(C)c(CNCCCCCCCCCCCCC[100NH:0][100C:0](=O)N4CCCC(n5nc(-c6ccc(Oc7ccc(F)cc7F)cc6)c(C(N)=O)c5N)C4)cc3C)ccc2CC1C(=O)NC1CCCc2ccccc21)C(C)(C)C

> <Shape>
0.232

> <Color>
0.082

> <Negative vol penalty>
0.000

$$$$

  -OEChem-04052316483D

 86 94  0     1  0  0  0  0  0999 V2000
  -18.1237  -25.0484   20.9370 C   0  0  0  0  0  0  0  0  0  0  0  0
  -19.4593  -25.0712   20.5485 C   0  0  0  0  0  0  0  0  0  0  0  0
  -24.6630  -14.2363   22.1930 C   0  0  0  0  0  0  0  0  0  0  0  0
  -25.7897  -14.7256   20.1126 C   0  0  0  0  0  0  0  0  0  0  0  0
  -17.6404  -26.0094   21.8241 C   0  0  0  0  0  0  0  0  0  0  0  0
  -20.3123  -26.0557   21.0461 C   0  0  0  0  0  0  0  0  0  0  0  0
  -24.7827  -24.1887   22.5208 C   0  0  0  0  0  0  0  0  0  0  0  0
  -24.8492  -12.8716   21.9729 C   0  0  0  0  0  0  0  0  0  0  0  0
  -25.9760  -13.3609   19.8925 C   0  0  0  0  0  0  0  0  0  0  0  0
  -25.7119  -23.8983   21.5228 C   0  0  0  0  0  0  0  0  0  0  0  0
  -24.7111   -9.2428   21.7821 C   0  0  0  0  0  0  0  0  0  0  0  0
  -23.6281   -8.3938   22.0102 C   0  0  0  0  0  0  0  0  0  0  0  0
  -26.8460  -25.9772   21.9821 C   0  0  0  0  0  0  0  0  0  0  0  0
  -22.3463   -9.5805   20.3412 C   0  0  0  0  0  0  0  0  0  0  0  0
  -31.6263  -24.3950   18.2160 C   0  0  0  0  0  0  0  0  0  0  0  0
  -25.1332  -15.1633   21.2629 C   0  0  0  0  0  0  0  0  0  0  0  0
  -25.8080  -17.4518   22.1656 C   0  0  0  0  0  0  0  0  0  0  0  0
  -18.4902  -27.0004   22.3403 C   0  0  0  0  0  0  0  0  0  0  0  0
  -24.8720  -25.3827   23.2508 C   0  0  0  0  0  0  0  0  0  0  0  0
  -19.8397  -27.0316   21.9399 C   0  0  0  0  0  0  0  0  0  0  0  0
  -25.9182  -26.2793   22.9906 C   0  0  0  0  0  0  0  0  0  0  0  0
  -29.0240  -24.7775   17.6758 C   0  0  0  0  0  0  0  0  0  0  0  0
  -25.5058  -12.4339   20.8227 C   0  0  0  0  0  0  0  0  0  0  0  0
  -26.7421  -24.7939   21.2513 C   0  0  0  0  0  0  0  0  0  0  0  0
  -24.6116  -10.2607   20.8336 C   0  0  0  0  0  0  0  0  0  0  0  0
  -22.4457   -8.5626   21.2897 C   0  0  0  0  0  0  0  0  0  0  0  0
  -23.4292  -10.4295   20.1131 C   0  0  0  0  0  0  0  0  0  0  0  0
  -24.9406  -16.5732   21.4894 C   0  0  0  0  0  0  0  0  0  0  0  0
  -29.9176  -24.3436   16.7178 C   0  0  0  0  0  0  0  0  0  0  0  0
  -29.5551  -25.0018   18.9295 C   0  0  0  0  0  0  0  0  0  0  0  0
  -25.1759  -18.6698   22.1088 C   0  0  0  0  0  0  0  0  0  0  0  0
  -27.0723  -17.1904   22.7894 C   0  0  0  0  0  0  0  0  0  0  0  0
  -23.0006  -27.9235   23.6328 C   0  0  0  0  0  0  0  0  0  0  0  0
  -25.2433  -28.7604   25.8220 C   0  0  0  0  0  0  0  0  0  0  0  0
  -28.4600  -28.4801   26.9267 C   0  0  0  0  0  0  0  0  0  0  0  0
  -21.1582  -21.0062   18.3337 C   0  0  0  0  0  0  0  0  0  0  0  0
  -17.9111  -28.0463   23.2598 C   0  0  0  0  0  0  0  0  0  0  0  0
  -23.8774  -25.6688   24.3422 C   0  0  0  0  0  0  0  0  0  0  0  0
  -26.0702  -27.5654   23.7596 C   0  0  0  0  0  0  0  0  0  0  0  0
  -18.9684  -28.8307   24.0326 C   0  0  0  0  0  0  0  0  0  0  0  0
  -20.8123  -20.6156   21.8557 C   0  0  0  0  0  0  0  0  0  0  0  0
  -20.0904  -29.2759   23.1001 C   0  0  0  0  0  0  0  0  0  0  0  0
  -21.9093  -19.6145   22.2222 C   0  0  0  0  0  0  0  0  0  0  0  0
  -20.1873  -20.2965   20.4994 C   0  0  0  0  0  0  0  0  0  0  0  0
  -22.2467  -19.1652   19.7558 C   0  0  0  0  0  0  0  0  0  0  0  0
  -20.8019  -28.0687   22.4772 C   0  0  1  0  0  0  0  0  0  0  0  0
  -23.7640  -27.1537   24.6731 C   0  0  1  0  0  0  0  0  0  0  0  0
  -22.9452  -19.4785   21.0901 C   0  0  2  0  0  0  0  0  0  0  0  0
  -30.5384  -24.3637   14.2887 C   0  0  0  0  0  0  0  0  0  0  0  0
  -30.0071  -29.3126   28.7186 C   0  0  0  0  0  0  0  0  0  0  0  0
  -25.4842  -31.4326   24.3690 C   0  0  0  0  0  0  0  0  0  0  0  0
  -27.6436  -31.8154   25.5767 C   0  0  0  0  0  0  0  0  0  0  0  0
  -25.5185  -31.5952   26.8643 C   0  0  0  0  0  0  0  0  0  0  0  0
  -28.9022  -25.7484   27.9761 C   0  0  0  0  0  0  0  0  0  0  0  0
  -27.5824  -24.9895   17.3765 C   0  0  0  0  0  0  0  0  0  0  0  0
  -29.4576  -24.0677   15.3241 C   0  0  0  0  0  0  0  0  0  0  0  0
  -28.6794  -25.4754   20.0521 C   0  0  0  0  0  0  0  0  0  1  0  0
  -26.7526  -23.6946   17.2763 C   0  0  0  0  0  0  0  0  0  0  0  0
  -25.2898  -23.9558   16.9034 C   0  0  0  0  0  0  0  0  0  0  0  0
  -24.5049  -22.6467   16.7877 C   0  0  0  0  0  0  0  0  0  0  0  0
  -23.0525  -22.9055   16.3764 C   0  0  0  0  0  0  0  0  0  0  0  0
  -22.2568  -21.6173   16.1939 C   0  0  0  0  0  0  0  0  0  0  0  0
  -26.5321  -29.5456   25.7856 C   0  0  1  0  0  0  0  0  0  0  0  0
  -29.0313  -28.2205   28.3090 C   0  0  2  0  0  0  0  0  0  0  0  0
  -26.2909  -31.0740   25.6329 C   0  0  0  0  0  0  0  0  0  0  0  0
  -31.2304  -24.1412   16.9542 N   0  0  0  0  0  0  0  0  0  0  0  0
  -30.8564  -24.8199   19.2360 N   0  0  0  0  0  0  0  0  0  0  0  0
  -23.8411  -17.1813   21.0363 N   0  0  0  0  0  0  0  0  0  0  0  0
  -24.0133  -18.4550   21.4287 N   0  0  0  0  0  0  0  0  0  0  0  0
  -25.0691  -27.8030   24.8126 N   0  0  0  0  0  0  0  0  0  0  0  0
  -21.2228  -20.1823   19.4695 N   0  0  0  0  0  0  0  0  0  0  0  0
  -25.5065  -19.8929   22.5747 N   0  0  0  0  0  0  0  0  0  0  0  0
  -27.5763  -15.8830   22.7557 N   0  0  0  0  0  0  0  0  0  0  0  0
  -21.7109  -27.4703   23.4312 N   0  0  0  0  0  0  0  0  0  0  0  0
  -27.2703  -29.1744   26.9880 N   0  0  0  0  0  0  0  0  0  0  0  0
  -22.1823  -20.8382   17.4097 N   0  0  0  0  0  0  0  0  0  0  0  0
  -29.7491  -26.9147   28.3360 N   0  3  0  0  0  0  0  0  0  0  0  0
  -27.7276  -18.0861   23.3740 O   0  0  0  0  0  0  0  0  0  0  0  0
  -23.5412  -28.8604   23.0567 O   0  0  0  0  0  0  0  0  0  0  0  0
  -24.4245  -28.9832   26.7173 O   0  0  0  0  0  0  0  0  0  0  0  0
  -29.0156  -28.1077   25.8956 O   0  0  0  0  0  0  0  0  0  0  0  0
  -20.2577  -21.8341   18.1588 O   0  0  0  0  0  0  0  0  0  0  0  0
  -25.6879  -11.1023   20.6077 O   0  0  0  0  0  0  0  0  0  0  0  0
  -27.6500  -24.5132   20.2773 O   0  0  0  0  0  0  0  0  0  1  0  0
  -21.4064   -7.7463   21.5078 F   0  0  0  0  0  0  0  0  0  0  0  0
  -23.3281  -11.4049   19.1997 F   0  0  0  0  0  0  0  0  0  0  0  0
  1  2  1  0  0  0  0
  1  5  2  0  0  0  0
  2  6  2  0  0  0  0
  3  8  2  0  0  0  0
  3 16  1  0  0  0  0
  4  9  1  0  0  0  0
  4 16  2  0  0  0  0
  5 18  1  0  0  0  0
  6 20  1  0  0  0  0
  7 10  2  0  0  0  0
  7 19  1  0  0  0  0
  8 23  1  0  0  0  0
  9 23  2  0  0  0  0
 10 24  1  0  0  0  0
 11 12  2  0  0  0  0
 11 25  1  0  0  0  0
 12 26  1  0  0  0  0
 13 21  1  0  0  0  0
 13 24  2  0  0  0  0
 14 26  2  0  0  0  0
 14 27  1  0  0  0  0
 15 66  2  0  0  0  0
 15 67  1  0  0  0  0
 16 28  1  0  0  0  0
 17 28  1  0  0  0  0
 17 31  2  0  0  0  0
 17 32  1  0  0  0  0
 18 20  2  0  0  0  0
 18 37  1  0  0  0  0
 19 21  2  0  0  0  0
 19 38  1  0  0  0  0
 20 46  1  0  0  0  0
 21 39  1  0  0  0  0
 22 29  2  0  0  0  0
 22 30  1  0  0  0  0
 22 55  1  0  0  0  0
 23 83  1  0  0  0  0
 24 84  1  0  0  0  0
 25 27  2  0  0  0  0
 25 83  1  0  0  0  0
 26 85  1  0  0  0  0
 27 86  1  0  0  0  0
 28 68  2  0  0  0  0
 29 56  1  0  0  0  0
 29 66  1  0  0  0  0
 30 57  1  0  0  0  0
 30 67  2  0  0  0  0
 31 69  1  0  0  0  0
 31 72  1  0  0  0  0
 32 73  1  0  0  0  0
 32 78  2  0  0  0  0
 33 47  1  0  0  0  0
 33 74  1  0  0  0  0
 33 79  2  0  0  0  0
 34 63  1  0  0  0  0
 34 70  1  0  0  0  0
 34 80  2  0  0  0  0
 35 64  1  0  0  0  0
 35 75  1  0  0  0  0
 35 81  2  0  0  0  0
 36 71  1  0  0  0  0
 36 76  1  0  0  0  0
 36 82  2  0  0  0  0
 37 40  1  0  0  0  0
 38 47  1  0  0  0  0
 39 70  1  0  0  0  0
 40 42  1  0  0  0  0
 41 43  1  0  0  0  0
 41 44  1  0  0  0  0
 42 46  1  0  0  0  0
 43 48  1  0  0  0  0
 44 71  1  0  0  0  0
 45 48  1  0  0  0  0
 45 71  1  0  0  0  0
 46 74  1  0  0  0  0
 47 70  1  0  0  0  0
 48 69  1  0  0  0  0
 49 56  1  0  0  0  0
 50 64  1  0  0  0  0
 51 65  1  0  0  0  0
 52 65  1  0  0  0  0
 53 65  1  0  0  0  0
 54 77  1  0  0  0  0
 55 58  1  0  0  0  0
 57 84  1  0  0  0  0
 58 59  1  0  0  0  0
 59 60  1  0  0  0  0
 60 61  1  0  0  0  0
 61 62  1  0  0  0  0
 62 76  1  0  0  0  0
 63 65  1  0  0  0  0
 63 75  1  0  0  0  0
 64 77  1  0  0  0  0
 68 69  1  0  0  0  0
M  CHG  1  77   1
M  ISO  4  36 100  57 101  76 100  84 101
M  END
> <Batch ID>
0033

> <Smiles>
CCc1ncnc([101CH2:1][101O:1]c2ccc3c(c2)CN(C(=O)C(NC(=O)C(C)NC)C(C)(C)C)C(C(=O)NC2CCCc4ccccc42)C3)c1CCCCCC[100NH:0][100C:0](=O)N1CCCC(n2nc(-c3ccc(Oc4ccc(F)cc4F)cc3)c(C(N)=O)c2N)C1

> <Shape>
0.201

> <Color>
0.096

> <Negative vol penalty>
0.000

$$$$

  -OEChem-04052316483D

 90 98  0     1  0  0  0  0  0999 V2000
  -29.2651  -22.2244   12.0485 C   0  0  0  0  0  0  0  0  0  0  0  0
  -28.1956  -22.6325   12.8391 C   0  0  0  0  0  0  0  0  0  0  0  0
  -22.9745   -9.8907   19.9891 C   0  0  0  0  0  0  0  0  0  0  0  0
  -23.7026   -9.9360   22.2923 C   0  0  0  0  0  0  0  0  0  0  0  0
  -30.5274  -22.0589   12.6171 C   0  0  0  0  0  0  0  0  0  0  0  0
  -28.3874  -22.8742   14.1989 C   0  0  0  0  0  0  0  0  0  0  0  0
  -26.1545  -27.1479   15.7465 C   0  0  0  0  0  0  0  0  0  0  0  0
  -22.1989   -8.7627   20.2564 C   0  0  0  0  0  0  0  0  0  0  0  0
  -22.9269   -8.8080   22.5597 C   0  0  0  0  0  0  0  0  0  0  0  0
  -24.7767  -27.1067   15.9556 C   0  0  0  0  0  0  0  0  0  0  0  0
  -23.1430   -5.4671   22.0881 C   0  0  0  0  0  0  0  0  0  0  0  0
  -23.7229   -4.4452   22.8397 C   0  0  0  0  0  0  0  0  0  0  0  0
  -25.1496  -26.8791   18.3280 C   0  0  0  0  0  0  0  0  0  0  0  0
  -23.2584  -23.2925   17.6243 C   0  0  0  0  0  0  0  0  0  0  0  0
  -23.2225  -21.2660   16.3095 C   0  0  0  0  0  0  0  0  0  0  0  0
  -22.0029   -4.7026   24.5168 C   0  0  0  0  0  0  0  0  0  0  0  0
  -23.7264  -10.4774   21.0070 C   0  0  0  0  0  0  0  0  0  0  0  0
  -24.1324  -12.9897   20.8301 C   0  0  0  0  0  0  0  0  0  0  0  0
  -30.7369  -22.3080   13.9826 C   0  0  0  0  0  0  0  0  0  0  0  0
  -27.0419  -27.0437   16.8273 C   0  0  0  0  0  0  0  0  0  0  0  0
  -29.6534  -22.7105   14.7865 C   0  0  0  0  0  0  0  0  0  0  0  0
  -26.5382  -26.9217   18.1302 C   0  0  0  0  0  0  0  0  0  0  0  0
  -23.9251  -22.1988   17.0722 C   0  0  0  0  0  0  0  0  0  0  0  0
  -21.8888  -23.4533   17.4138 C   0  0  0  0  0  0  0  0  0  0  0  0
  -21.1862  -22.5205   16.6511 C   0  0  0  0  0  0  0  0  0  0  0  0
  -22.1751   -8.2213   21.5417 C   0  0  0  0  0  0  0  0  0  0  0  0
  -24.2741  -26.9694   17.2461 C   0  0  0  0  0  0  0  0  0  0  0  0
  -21.9931   -6.1068   22.5508 C   0  0  0  0  0  0  0  0  0  0  0  0
  -23.1529   -4.0629   24.0541 C   0  0  0  0  0  0  0  0  0  0  0  0
  -21.4231   -5.7246   23.7651 C   0  0  0  0  0  0  0  0  0  0  0  0
  -21.8529  -21.4268   16.0989 C   0  0  0  0  0  0  0  0  0  0  0  0
  -24.5283  -11.6423   20.7313 C   0  0  0  0  0  0  0  0  0  0  0  0
  -25.2477  -13.7030   20.4644 C   0  0  0  0  0  0  0  0  0  0  0  0
  -22.8694  -13.5466   21.2179 C   0  0  0  0  0  0  0  0  0  0  0  0
  -29.3070  -24.9830   17.6794 C   0  0  0  0  0  0  0  0  0  0  0  0
  -29.8490  -27.1501   20.0314 C   0  0  0  0  0  0  0  0  0  0  0  0
  -28.6395  -29.6845   21.9707 C   0  0  0  0  0  0  0  0  0  0  0  0
  -30.7519  -14.5920   20.7069 C   0  0  0  0  0  0  0  0  0  0  0  0
  -32.1089  -22.0696   14.5618 C   0  0  0  0  0  0  0  0  0  0  0  0
  -28.5250  -27.1167   16.5877 C   0  0  0  0  0  0  0  0  0  0  0  0
  -27.4482  -26.8264   19.3265 C   0  0  0  0  0  0  0  0  0  0  0  0
  -32.3102  -22.7080   15.9338 C   0  0  0  0  0  0  0  0  0  0  0  0
  -29.5886  -12.1775   18.3630 C   0  0  0  0  0  0  0  0  0  0  0  0
  -31.1180  -22.4147   16.8391 C   0  0  0  0  0  0  0  0  0  0  0  0
  -28.1385  -11.9299   18.7822 C   0  0  0  0  0  0  0  0  0  0  0  0
  -30.4943  -12.4056   19.5713 C   0  0  0  0  0  0  0  0  0  0  0  0
  -28.5923  -13.2171   20.9120 C   0  0  0  0  0  0  0  0  0  0  0  0
  -29.8271  -23.0064   16.2604 C   0  0  1  0  0  0  0  0  0  0  0  0
  -29.3433  -26.4848   17.7096 C   0  0  1  0  0  0  0  0  0  0  0  0
  -27.6304  -13.0372   19.7250 C   0  0  2  0  0  0  0  0  0  0  0  0
  -19.7166  -22.7075   16.4354 C   0  0  0  0  0  0  0  0  0  0  0  0
  -29.3056  -31.2319   23.8306 C   0  0  0  0  0  0  0  0  0  0  0  0
  -29.5691  -24.8629   22.0315 C   0  0  0  0  0  0  0  0  0  0  0  0
  -29.2918  -26.5713   23.8405 C   0  0  0  0  0  0  0  0  0  0  0  0
  -31.4165  -26.4709   22.5374 C   0  0  0  0  0  0  0  0  0  0  0  0
  -28.1990  -32.0808   20.2906 C   0  0  0  0  0  0  0  0  0  0  0  0
  -21.1940  -24.6443   18.0241 C   0  0  0  0  0  0  0  0  0  0  0  0
  -25.3897  -22.0281   17.2968 C   0  0  0  0  0  0  0  0  0  0  0  0
  -20.8815  -25.7561   17.0202 C   0  0  0  0  0  0  0  0  0  0  0  0
  -29.1290  -18.2520   20.7549 C   0  0  0  0  0  0  0  0  0  0  0  0
  -28.8609  -19.3559   19.7272 C   0  0  0  0  0  0  0  0  0  0  0  0
  -30.6144  -17.9046   20.8992 C   0  0  0  0  0  0  0  0  0  0  0  0
  -27.3734  -19.6529   19.5275 C   0  0  0  0  0  0  0  0  0  0  0  0
  -30.8540  -16.7704   21.8916 C   0  0  0  0  0  0  0  0  0  0  0  0
  -27.1720  -20.7374   18.4783 C   0  0  0  0  0  0  0  0  0  0  0  0
  -22.1279  -26.3829   16.4061 C   0  0  0  0  0  0  0  0  0  1  0  0
  -29.3251  -27.3621   21.4313 C   0  0  1  0  0  0  0  0  0  0  0  0
  -29.2137  -31.0445   22.3242 C   0  0  2  0  0  0  0  0  0  0  0  0
  -29.8833  -26.3166   22.4376 C   0  0  0  0  0  0  0  0  0  0  0  0
  -25.7961  -11.5053   20.3338 N   0  0  0  0  0  0  0  0  0  0  0  0
  -26.2064  -12.7756   20.1795 N   0  0  0  0  0  0  0  0  0  0  0  0
  -28.8907  -26.8962   19.0400 N   0  0  0  0  0  0  0  0  0  0  0  0
  -29.9572  -13.4689   20.4238 N   0  0  0  0  0  0  0  0  0  0  0  0
  -25.4921  -15.0267   20.3619 N   0  0  0  0  0  0  0  0  0  0  0  0
  -21.8307  -12.6711   21.5627 N   0  0  0  0  0  0  0  0  0  0  0  0
  -29.7728  -24.4325   16.5006 N   0  0  0  0  0  0  0  0  0  0  0  0
  -29.6310  -28.7462   21.7764 N   0  0  0  0  0  0  0  0  0  0  0  0
  -30.1644  -15.5558   21.5172 N   0  0  0  0  0  0  0  0  0  0  0  0
  -28.3571  -32.1292   21.7670 N   0  3  0  0  0  0  0  0  0  0  0  0
  -25.7159  -20.9615   18.2832 N   0  3  0  0  0  0  0  0  0  0  0  0
  -22.6630  -14.7837   21.2417 O   0  0  0  0  0  0  0  0  0  0  0  0
  -28.8889  -24.3690   18.6540 O   0  0  0  0  0  0  0  0  0  0  0  0
  -31.0633  -27.2148   19.8240 O   0  0  0  0  0  0  0  0  0  0  0  0
  -27.4319  -29.4745   21.8800 O   0  0  0  0  0  0  0  0  0  0  0  0
  -31.8980  -14.7283   20.2656 O   0  0  0  0  0  0  0  0  0  0  0  0
  -21.4181   -7.1207   21.8030 O   0  0  0  0  0  0  0  0  0  0  0  0
  -22.9297  -26.9284   17.4529 O   0  0  0  0  0  0  0  0  0  1  0  0
  -23.7090   -3.0805   24.7750 F   0  0  0  0  0  0  0  0  0  0  0  0
  -20.3177   -6.3347   24.2142 F   0  0  0  0  0  0  0  0  0  0  0  0
  -21.0192  -20.2515   15.1477 Cl  0  0  0  0  0  0  0  0  0  0  0  0
  1  2  1  0  0  0  0
  1  5  2  0  0  0  0
  2  6  2  0  0  0  0
  3  8  2  0  0  0  0
  3 17  1  0  0  0  0
  4  9  1  0  0  0  0
  4 17  2  0  0  0  0
  5 19  1  0  0  0  0
  6 21  1  0  0  0  0
  7 10  2  0  0  0  0
  7 20  1  0  0  0  0
  8 26  1  0  0  0  0
  9 26  2  0  0  0  0
 10 27  1  0  0  0  0
 11 12  2  0  0  0  0
 11 28  1  0  0  0  0
 12 29  1  0  0  0  0
 13 22  1  0  0  0  0
 13 27  2  0  0  0  0
 14 23  2  0  0  0  0
 14 24  1  0  0  0  0
 15 23  1  0  0  0  0
 15 31  2  0  0  0  0
 16 29  2  0  0  0  0
 16 30  1  0  0  0  0
 17 32  1  0  0  0  0
 18 32  1  0  0  0  0
 18 33  2  0  0  0  0
 18 34  1  0  0  0  0
 19 21  2  0  0  0  0
 19 39  1  0  0  0  0
 20 22  2  0  0  0  0
 20 40  1  0  0  0  0
 21 48  1  0  0  0  0
 22 41  1  0  0  0  0
 23 58  1  0  0  0  0
 24 25  2  0  0  0  0
 24 57  1  0  0  0  0
 25 31  1  0  0  0  0
 25 51  1  0  0  0  0
 26 86  1  0  0  0  0
 27 87  1  0  0  0  0
 28 30  2  0  0  0  0
 28 86  1  0  0  0  0
 29 88  1  0  0  0  0
 30 89  1  0  0  0  0
 31 90  1  0  0  0  0
 32 70  2  0  0  0  0
 33 71  1  0  0  0  0
 33 74  1  0  0  0  0
 34 75  1  0  0  0  0
 34 81  2  0  0  0  0
 35 49  1  0  0  0  0
 35 76  1  0  0  0  0
 35 82  2  0  0  0  0
 36 67  1  0  0  0  0
 36 72  1  0  0  0  0
 36 83  2  0  0  0  0
 37 68  1  0  0  0  0
 37 77  1  0  0  0  0
 37 84  2  0  0  0  0
 38 73  1  0  0  0  0
 38 78  1  0  0  0  0
 38 85  2  0  0  0  0
 39 42  1  0  0  0  0
 40 49  1  0  0  0  0
 41 72  1  0  0  0  0
 42 44  1  0  0  0  0
 43 45  1  0  0  0  0
 43 46  1  0  0  0  0
 44 48  1  0  0  0  0
 45 50  1  0  0  0  0
 46 73  1  0  0  0  0
 47 50  1  0  0  0  0
 47 73  1  0  0  0  0
 48 76  1  0  0  0  0
 49 72  1  0  0  0  0
 50 71  1  0  0  0  0
 52 68  1  0  0  0  0
 53 69  1  0  0  0  0
 54 69  1  0  0  0  0
 55 69  1  0  0  0  0
 56 79  1  0  0  0  0
 57 59  1  0  0  0  0
 58 80  1  0  0  0  0
 59 66  1  0  0  0  0
 60 61  1  0  0  0  0
 60 62  1  0  0  0  0
 61 63  1  0  0  0  0
 62 64  1  0  0  0  0
 63 65  1  0  0  0  0
 64 78  1  0  0  0  0
 65 80  1  0  0  0  0
 66 87  1  0  0  0  0
 67 69  1  0  0  0  0
 67 77  1  0  0  0  0
 68 79  1  0  0  0  0
 70 71  1  0  0  0  0
M  CHG  2  79   1  80   1
M  ISO  4  38 100  66 101  78 100  87 101
M  END
> <Batch ID>
0033

> <Smiles>
CNC(C)C(=O)NC(C(=O)N1Cc2cc([101O:1][101CH2:1]CCc3cc(CNCCCCCC[100NH:0][100C:0](=O)N4CCCC(n5nc(-c6ccc(Oc7ccc(F)cc7F)cc6)c(C(N)=O)c5N)C4)cc(Cl)c3C)ccc2CC1C(=O)NC1CCCc2ccccc21)C(C)(C)C

> <Shape>
0.276

> <Color>
0.197

> <Negative vol penalty>
0.000

$$$$

  -OEChem-04052316483D

 87 96  0     1  0  0  0  0  0999 V2000
  -27.8104  -30.3938   23.0064 C   0  0  0  0  0  0  0  0  0  0  0  0
  -27.7982  -29.0027   23.0159 C   0  0  0  0  0  0  0  0  0  0  0  0
  -20.8048  -22.7474   22.8762 C   0  0  0  0  0  0  0  0  0  0  0  0
  -23.1303  -23.0541   22.2972 C   0  0  0  0  0  0  0  0  0  0  0  0
  -26.8031  -31.0941   22.3439 C   0  0  0  0  0  0  0  0  0  0  0  0
  -26.7780  -28.3110   22.3637 C   0  0  0  0  0  0  0  0  0  0  0  0
  -28.5411  -24.3815   19.5455 C   0  0  0  0  0  0  0  0  0  0  0  0
  -20.7126  -24.0960   23.2202 C   0  0  0  0  0  0  0  0  0  0  0  0
  -23.0380  -24.4028   22.6412 C   0  0  0  0  0  0  0  0  0  0  0  0
  -28.8933  -23.2021   20.2003 C   0  0  0  0  0  0  0  0  0  0  0  0
  -19.7688  -27.5385   23.9083 C   0  0  0  0  0  0  0  0  0  0  0  0
  -18.6550  -28.2477   23.4588 C   0  0  0  0  0  0  0  0  0  0  0  0
  -26.7506  -22.2527   19.6299 C   0  0  0  0  0  0  0  0  0  0  0  0
  -19.2723  -27.7681   21.1727 C   0  0  0  0  0  0  0  0  0  0  0  0
  -22.0137  -22.2264   22.4148 C   0  0  0  0  0  0  0  0  0  0  0  0
  -21.3708  -20.1547   21.0724 C   0  0  0  0  0  0  0  0  0  0  0  0
  -25.7754  -30.4106   21.6751 C   0  0  0  0  0  0  0  0  0  0  0  0
  -27.2848  -24.5098   18.9356 C   0  0  0  0  0  0  0  0  0  0  0  0
  -25.7553  -29.0028   21.6928 C   0  0  0  0  0  0  0  0  0  0  0  0
  -26.3868  -23.4329   18.9639 C   0  0  0  0  0  0  0  0  0  0  0  0
  -29.2117  -16.1503   20.3522 C   0  0  0  0  0  0  0  0  0  0  0  0
  -21.8291  -24.9237   23.1026 C   0  0  0  0  0  0  0  0  0  0  0  0
  -27.9971  -22.1384   20.2446 C   0  0  0  0  0  0  0  0  0  0  0  0
  -20.6345  -26.9442   22.9900 C   0  0  0  0  0  0  0  0  0  0  0  0
  -18.4067  -28.3625   22.0911 C   0  0  0  0  0  0  0  0  0  0  0  0
  -20.3861  -27.0590   21.6223 C   0  0  0  0  0  0  0  0  0  0  0  0
  -22.1098  -20.8333   22.0599 C   0  0  0  0  0  0  0  0  0  0  0  0
  -30.3719  -15.8773   19.6031 C   0  0  0  0  0  0  0  0  0  0  0  0
  -29.1750  -15.1590   21.3021 C   0  0  0  0  0  0  0  0  0  0  0  0
  -21.8308  -18.8617   21.1272 C   0  0  0  0  0  0  0  0  0  0  0  0
  -20.3590  -20.6489   20.1849 C   0  0  0  0  0  0  0  0  0  0  0  0
  -26.0624  -15.3498   21.3239 C   0  0  0  0  0  0  0  0  0  0  0  0
  -24.7353  -26.4183   19.2571 C   0  0  0  0  0  0  0  0  0  0  0  0
  -23.7639  -24.7024   16.5802 C   0  0  0  0  0  0  0  0  0  0  0  0
  -21.1914  -26.5111   16.4546 C   0  0  0  0  0  0  0  0  0  0  0  0
  -24.6823  -31.2113   21.0128 C   0  0  0  0  0  0  0  0  0  0  0  0
  -26.9361  -25.7800   18.2080 C   0  0  0  0  0  0  0  0  0  0  0  0
  -25.0286  -23.5193   18.3217 C   0  0  0  0  0  0  0  0  0  0  0  0
  -23.8437  -30.3997   20.0287 C   0  0  0  0  0  0  0  0  0  0  0  0
  -24.9404  -12.2218   21.2898 C   0  0  0  0  0  0  0  0  0  0  0  0
  -25.9908  -12.5133   20.2195 C   0  0  0  0  0  0  0  0  0  0  0  0
  -25.5368  -12.2039   22.6879 C   0  0  0  0  0  0  0  0  0  0  0  0
  -24.7807  -16.5465   24.5102 C   0  0  0  0  0  0  0  0  0  0  0  0
  -23.4440  -29.0624   20.6440 C   0  0  0  0  0  0  0  0  0  0  0  0
  -23.9307  -17.7375   24.0698 C   0  0  0  0  0  0  0  0  0  0  0  0
  -27.2270  -13.2504   20.7451 C   0  0  0  0  0  0  0  0  0  0  0  0
  -26.1836  -13.5428   23.0566 C   0  0  0  0  0  0  0  0  0  0  0  0
  -26.0264  -16.3941   23.6412 C   0  0  0  0  0  0  0  0  0  0  0  0
  -24.8830  -17.4852   21.7369 C   0  0  0  0  0  0  0  0  0  0  0  0
  -24.6793  -28.2166   20.9758 C   0  0  1  0  0  0  0  0  0  0  0  0
  -25.4349  -25.9739   18.0039 C   0  0  1  0  0  0  0  0  0  0  0  0
  -23.6010  -17.6554   22.5690 C   0  0  2  0  0  0  0  0  0  0  0  0
  -26.9149  -14.2346   21.8834 C   0  0  0  0  0  0  0  0  0  0  0  0
  -30.9011  -16.6278   18.4508 C   0  0  0  0  0  0  0  0  0  0  0  0
  -19.3696  -25.0388   15.5542 C   0  0  0  0  0  0  0  0  0  0  0  0
  -25.9159  -25.9748   14.8321 C   0  0  0  0  0  0  0  0  0  0  0  0
  -24.1310  -27.3811   13.7811 C   0  0  0  0  0  0  0  0  0  0  0  0
  -24.0466  -24.8971   13.5676 C   0  0  0  0  0  0  0  0  0  0  0  0
  -30.6752  -13.2084   21.8122 C   0  0  0  0  0  0  0  0  0  0  0  0
  -19.9451  -28.7561   14.9829 C   0  0  0  0  0  0  0  0  0  0  0  0
  -28.2278  -17.2763   20.1579 C   0  0  0  0  0  0  0  0  0  0  0  0
  -28.2130  -14.8838   22.3860 C   0  0  0  0  0  0  0  0  0  0  0  0
  -28.7315  -18.6289   20.6659 C   0  0  0  0  0  0  0  0  0  0  0  0
  -27.7665  -19.7757   20.3881 C   0  0  0  0  0  0  0  0  0  1  0  0
  -23.5209  -25.9681   15.7966 C   0  0  1  0  0  0  0  0  0  0  0  0
  -19.7645  -26.4559   15.9396 C   0  0  2  0  0  0  0  0  0  0  0  0
  -24.4077  -26.0558   14.5225 C   0  0  0  0  0  0  0  0  0  0  0  0
  -22.9736  -20.0372   22.6956 N   0  0  0  0  0  0  0  0  0  0  0  0
  -31.0252  -14.7972   20.0398 N   0  0  0  0  0  0  0  0  0  0  0  0
  -30.2730  -14.3829   21.0735 N   0  0  0  0  0  0  0  0  0  0  0  0
  -22.7802  -18.8450   22.1063 N   0  0  0  0  0  0  0  0  0  0  0  0
  -25.6720  -16.3474   22.2176 N   0  0  0  0  0  0  0  0  0  0  0  0
  -24.7699  -24.7444   17.5540 N   0  0  0  0  0  0  0  0  0  0  0  0
  -21.5118  -17.7487   20.4330 N   0  0  0  0  0  0  0  0  0  0  0  0
  -20.7523  -21.1514   18.9370 N   0  0  0  0  0  0  0  0  0  0  0  0
  -25.2117  -27.6071   19.7759 N   0  0  0  0  0  0  0  0  0  0  0  0
  -22.0872  -26.0149   15.5312 N   0  0  0  0  0  0  0  0  0  0  0  0
  -19.6121  -27.3286   14.7412 N   0  3  0  0  0  0  0  0  0  0  0  0
  -19.1439  -20.6602   20.4960 O   0  0  0  0  0  0  0  0  0  0  0  0
  -25.7530  -15.3299   20.1298 O   0  0  0  0  0  0  0  0  0  0  0  0
  -23.8292  -25.7342   19.7182 O   0  0  0  0  0  0  0  0  0  0  0  0
  -23.0871  -23.7006   16.3324 O   0  0  0  0  0  0  0  0  0  0  0  0
  -21.4828  -26.9539   17.5635 O   0  0  0  0  0  0  0  0  0  0  0  0
  -21.7394  -26.2398   23.4379 O   0  0  0  0  0  0  0  0  0  0  0  0
  -28.3386  -20.9859   20.8826 O   0  0  0  0  0  0  0  0  0  1  0  0
  -17.3362  -29.0422   21.6596 F   0  0  0  0  0  0  0  0  0  0  0  0
  -21.2135  -26.4892   20.7353 F   0  0  0  0  0  0  0  0  0  0  0  0
  1  2  1  0  0  0  0
  1  5  2  0  0  0  0
  2  6  2  0  0  0  0
  3  8  2  0  0  0  0
  3 15  1  0  0  0  0
  4  9  1  0  0  0  0
  4 15  2  0  0  0  0
  5 17  1  0  0  0  0
  6 19  1  0  0  0  0
  7 10  2  0  0  0  0
  7 18  1  0  0  0  0
  8 22  1  0  0  0  0
  9 22  2  0  0  0  0
 10 23  1  0  0  0  0
 11 12  2  0  0  0  0
 11 24  1  0  0  0  0
 12 25  1  0  0  0  0
 13 20  1  0  0  0  0
 13 23  2  0  0  0  0
 14 25  2  0  0  0  0
 14 26  1  0  0  0  0
 15 27  1  0  0  0  0
 16 27  1  0  0  0  0
 16 30  2  0  0  0  0
 16 31  1  0  0  0  0
 17 19  2  0  0  0  0
 17 36  1  0  0  0  0
 18 20  2  0  0  0  0
 18 37  1  0  0  0  0
 19 50  1  0  0  0  0
 20 38  1  0  0  0  0
 21 28  1  0  0  0  0
 21 29  2  0  0  0  0
 21 61  1  0  0  0  0
 22 84  1  0  0  0  0
 23 85  1  0  0  0  0
 24 26  2  0  0  0  0
 24 84  1  0  0  0  0
 25 86  1  0  0  0  0
 26 87  1  0  0  0  0
 27 68  2  0  0  0  0
 28 54  1  0  0  0  0
 28 69  2  0  0  0  0
 29 62  1  0  0  0  0
 29 70  1  0  0  0  0
 30 71  1  0  0  0  0
 30 74  1  0  0  0  0
 31 75  1  0  0  0  0
 31 79  2  0  0  0  0
 32 53  1  0  0  0  0
 32 72  1  0  0  0  0
 32 80  2  0  0  0  0
 33 51  1  0  0  0  0
 33 76  1  0  0  0  0
 33 81  2  0  0  0  0
 34 65  1  0  0  0  0
 34 73  1  0  0  0  0
 34 82  2  0  0  0  0
 35 66  1  0  0  0  0
 35 77  1  0  0  0  0
 35 83  2  0  0  0  0
 36 39  1  0  0  0  0
 37 51  1  0  0  0  0
 38 73  1  0  0  0  0
 39 44  1  0  0  0  0
 40 41  1  0  0  0  0
 40 42  1  0  0  0  0
 41 46  1  0  0  0  0
 42 47  1  0  0  0  0
 43 45  1  0  0  0  0
 43 48  1  0  0  0  0
 44 50  1  0  0  0  0
 45 52  1  0  0  0  0
 46 53  1  0  0  0  0
 47 53  1  0  0  0  0
 48 72  1  0  0  0  0
 49 52  1  0  0  0  0
 49 72  1  0  0  0  0
 50 76  1  0  0  0  0
 51 73  1  0  0  0  0
 52 71  1  0  0  0  0
 53 62  1  0  0  0  0
 55 66  1  0  0  0  0
 56 67  1  0  0  0  0
 57 67  1  0  0  0  0
 58 67  1  0  0  0  0
 59 70  1  0  0  0  0
 60 78  1  0  0  0  0
 61 63  1  0  0  0  0
 63 64  1  0  0  0  0
 64 85  1  0  0  0  0
 65 67  1  0  0  0  0
 65 77  1  0  0  0  0
 66 78  1  0  0  0  0
 68 71  1  0  0  0  0
 69 70  1  0  0  0  0
M  CHG  1  78   1
M  ISO  4  32 100  53 100  64 101  85 101
M  END
> <Batch ID>
0033

> <Smiles>
CNC(C)C(=O)NC(C(=O)N1Cc2cc([101O:1][101CH2:1]CCc3c(C)nn(C)c3C[100C:0]3([100C:0](=O)N4CCCC(n5nc(-c6ccc(Oc7ccc(F)cc7F)cc6)c(C(N)=O)c5N)C4)CCCCC3)ccc2CC1C(=O)NC1CCCc2ccccc21)C(C)(C)C

> <Shape>
0.193

> <Color>
0.067

> <Negative vol penalty>
0.000

$$$$

  -OEChem-04052316483D

 84 93  0     1  0  0  0  0  0999 V2000
  -19.8985  -28.4012   22.8592 C   0  0  0  0  0  0  0  0  0  0  0  0
  -20.7354  -27.3094   23.0665 C   0  0  0  0  0  0  0  0  0  0  0  0
  -30.5272  -25.7320   19.9954 C   0  0  0  0  0  0  0  0  0  0  0  0
  -28.8042  -25.7676   18.3022 C   0  0  0  0  0  0  0  0  0  0  0  0
  -18.6459  -28.2169   22.2753 C   0  0  0  0  0  0  0  0  0  0  0  0
  -20.3197  -26.0325   22.6909 C   0  0  0  0  0  0  0  0  0  0  0  0
  -23.8281  -21.5125   20.5075 C   0  0  0  0  0  0  0  0  0  0  0  0
  -30.0453  -26.9350   20.5111 C   0  0  0  0  0  0  0  0  0  0  0  0
  -28.3222  -26.9706   18.8179 C   0  0  0  0  0  0  0  0  0  0  0  0
  -24.4045  -20.3966   21.1127 C   0  0  0  0  0  0  0  0  0  0  0  0
  -26.4126  -27.9768   21.4182 C   0  0  0  0  0  0  0  0  0  0  0  0
  -25.0330  -28.1049   21.5788 C   0  0  0  0  0  0  0  0  0  0  0  0
  -22.5372  -19.0494   20.3933 C   0  0  0  0  0  0  0  0  0  0  0  0
  -24.7399  -13.7962   21.2019 C   0  0  0  0  0  0  0  0  0  0  0  0
  -25.0330  -29.9934   20.0719 C   0  0  0  0  0  0  0  0  0  0  0  0
  -26.5751  -12.1872   20.0374 C   0  0  0  0  0  0  0  0  0  0  0  0
  -29.9067  -25.1483   18.8909 C   0  0  0  0  0  0  0  0  0  0  0  0
  -31.6909  -23.6563   17.8428 C   0  0  0  0  0  0  0  0  0  0  0  0
  -18.2186  -26.9384   21.8835 C   0  0  0  0  0  0  0  0  0  0  0  0
  -22.5945  -21.4074   19.8488 C   0  0  0  0  0  0  0  0  0  0  0  0
  -19.0597  -25.8308   22.1023 C   0  0  0  0  0  0  0  0  0  0  0  0
  -21.9485  -20.1649   19.7783 C   0  0  0  0  0  0  0  0  0  0  0  0
  -25.7687  -14.4005   20.4539 C   0  0  0  0  0  0  0  0  0  0  0  0
  -26.7323  -13.5684   19.8620 C   0  0  0  0  0  0  0  0  0  0  0  0
  -28.9428  -27.5543   19.9224 C   0  0  0  0  0  0  0  0  0  0  0  0
  -23.7577  -19.1655   21.0582 C   0  0  0  0  0  0  0  0  0  0  0  0
  -27.1025  -28.8571   20.5846 C   0  0  0  0  0  0  0  0  0  0  0  0
  -24.3432  -29.1132   20.9056 C   0  0  0  0  0  0  0  0  0  0  0  0
  -26.4126  -29.8653   19.9114 C   0  0  0  0  0  0  0  0  0  0  0  0
  -30.4045  -23.9058   18.3573 C   0  0  0  0  0  0  0  0  0  0  0  0
  -24.6972  -12.4172   21.3190 C   0  0  0  0  0  0  0  0  0  0  0  0
  -31.6604  -22.3353   17.4678 C   0  0  0  0  0  0  0  0  0  0  0  0
  -32.8130  -24.5395   17.7152 C   0  0  0  0  0  0  0  0  0  0  0  0
  -19.7194  -22.7017   20.2512 C   0  0  0  0  0  0  0  0  0  0  0  0
  -19.0675  -21.1648   17.4700 C   0  0  0  0  0  0  0  0  0  0  0  0
  -19.8168  -18.6223   15.3203 C   0  0  0  0  0  0  0  0  0  0  0  0
  -28.6577  -17.7289   19.2630 C   0  0  0  0  0  0  0  0  0  0  0  0
  -16.8369  -26.7822   21.2994 C   0  0  0  0  0  0  0  0  0  0  0  0
  -21.9990  -22.6147   19.1780 C   0  0  0  0  0  0  0  0  0  0  0  0
  -27.8880  -14.0363   19.0171 C   0  0  0  0  0  0  0  0  0  0  0  0
  -20.6324  -19.9947   19.0660 C   0  0  0  0  0  0  0  0  0  0  0  0
  -16.6239  -25.4489   20.5872 C   0  0  0  0  0  0  0  0  0  0  0  0
  -28.6655  -18.9312   15.9590 C   0  0  0  0  0  0  0  0  0  0  0  0
  -17.1468  -24.2980   21.4410 C   0  0  0  0  0  0  0  0  0  0  0  0
  -29.2415  -20.3341   16.1481 C   0  0  0  0  0  0  0  0  0  0  0  0
  -28.5879  -15.2924   19.5183 C   0  0  0  0  0  0  0  0  0  0  0  0
  -27.6863  -18.5588   17.0735 C   0  0  0  0  0  0  0  0  0  0  0  0
  -26.4335  -16.5302   19.1222 C   0  0  0  0  0  0  0  0  0  0  0  0
  -28.8189  -20.1165   18.6263 C   0  0  0  0  0  0  0  0  0  0  0  0
  -25.7349  -15.9170   20.3495 C   0  0  2  0  0  0  0  0  0  0  0  0
  -18.6545  -24.4335   21.6857 C   0  0  1  0  0  0  0  0  0  0  0  0
  -20.4908  -22.5035   18.9771 C   0  0  1  0  0  0  0  0  0  0  0  0
  -29.8501  -20.4964   17.5523 C   0  0  2  0  0  0  0  0  0  0  0  0
  -23.6054  -11.7800   22.1111 C   0  0  0  0  0  0  0  0  0  0  0  0
  -19.0849  -17.5979   13.1495 C   0  0  0  0  0  0  0  0  0  0  0  0
  -16.6796  -19.8910   18.8789 C   0  0  0  0  0  0  0  0  0  0  0  0
  -16.5709  -18.2111   17.0257 C   0  0  0  0  0  0  0  0  0  0  0  0
  -16.2325  -20.6330   16.5329 C   0  0  0  0  0  0  0  0  0  0  0  0
  -22.4393  -19.1493   14.0538 C   0  0  0  0  0  0  0  0  0  0  0  0
  -26.1814  -16.5821   21.6591 C   0  0  0  0  0  0  0  0  0  0  0  0
  -25.7408  -18.0302   21.7171 C   0  0  0  0  0  0  0  0  0  1  0  0
  -18.5494  -19.7957   17.1011 C   0  0  1  0  0  0  0  0  0  0  0  0
  -20.0142  -18.6009   13.8152 C   0  0  2  0  0  0  0  0  0  0  0  0
  -17.0319  -19.6360   17.3998 C   0  0  0  0  0  0  0  0  0  0  0  0
  -25.5923  -11.5927   20.7490 N   0  0  0  0  0  0  0  0  0  0  0  0
  -29.6143  -22.8298   18.3145 N   0  0  0  0  0  0  0  0  0  0  0  0
  -30.4063  -21.8913   17.7685 N   0  0  0  0  0  0  0  0  0  0  0  0
  -20.0874  -21.2061   18.4311 N   0  0  0  0  0  0  0  0  0  0  0  0
  -27.9025  -16.5420   19.1936 N   0  0  0  0  0  0  0  0  0  0  0  0
  -28.2955  -18.7687   18.3942 N   0  0  0  0  0  0  0  0  0  0  0  0
  -32.5842  -21.5219   16.9134 N   0  0  0  0  0  0  0  0  0  0  0  0
  -32.9503  -25.2790   16.5325 N   0  0  0  0  0  0  0  0  0  0  0  0
  -19.3960  -24.0192   20.5139 N   0  0  0  0  0  0  0  0  0  0  0  0
  -18.9083  -19.5865   15.7026 N   0  0  0  0  0  0  0  0  0  0  0  0
  -21.4193  -18.2327   13.4823 N   0  3  0  0  0  0  0  0  0  0  0  0
  -33.6776  -24.6569   18.6165 O   0  0  0  0  0  0  0  0  0  0  0  0
  -19.4371  -21.7310   20.9438 O   0  0  0  0  0  0  0  0  0  0  0  0
  -18.5900  -22.1604   16.9201 O   0  0  0  0  0  0  0  0  0  0  0  0
  -20.4066  -17.8575   16.0803 O   0  0  0  0  0  0  0  0  0  0  0  0
  -29.6023  -17.8452   20.0543 O   0  0  0  0  0  0  0  0  0  0  0  0
  -28.4721  -28.7281   20.4256 O   0  0  0  0  0  0  0  0  0  0  0  0
  -24.3219  -18.0668   21.6531 O   0  0  0  0  0  0  0  0  0  1  0  0
  -23.0181  -29.2351   21.0587 F   0  0  0  0  0  0  0  0  0  0  0  0
  -27.0697  -30.7132   19.1082 F   0  0  0  0  0  0  0  0  0  0  0  0
  1  2  1  0  0  0  0
  1  5  2  0  0  0  0
  2  6  2  0  0  0  0
  3  8  2  0  0  0  0
  3 17  1  0  0  0  0
  4  9  1  0  0  0  0
  4 17  2  0  0  0  0
  5 19  1  0  0  0  0
  6 21  1  0  0  0  0
  7 10  2  0  0  0  0
  7 20  1  0  0  0  0
  8 25  1  0  0  0  0
  9 25  2  0  0  0  0
 10 26  1  0  0  0  0
 11 12  2  0  0  0  0
 11 27  1  0  0  0  0
 12 28  1  0  0  0  0
 13 22  1  0  0  0  0
 13 26  2  0  0  0  0
 14 23  1  0  0  0  0
 14 31  2  0  0  0  0
 15 28  2  0  0  0  0
 15 29  1  0  0  0  0
 16 24  1  0  0  0  0
 16 65  2  0  0  0  0
 17 30  1  0  0  0  0
 18 30  1  0  0  0  0
 18 32  2  0  0  0  0
 18 33  1  0  0  0  0
 19 21  2  0  0  0  0
 19 38  1  0  0  0  0
 20 22  2  0  0  0  0
 20 39  1  0  0  0  0
 21 51  1  0  0  0  0
 22 41  1  0  0  0  0
 23 24  2  0  0  0  0
 23 50  1  0  0  0  0
 24 40  1  0  0  0  0
 25 81  1  0  0  0  0
 26 82  1  0  0  0  0
 27 29  2  0  0  0  0
 27 81  1  0  0  0  0
 28 83  1  0  0  0  0
 29 84  1  0  0  0  0
 30 66  2  0  0  0  0
 31 54  1  0  0  0  0
 31 65  1  0  0  0  0
 32 67  1  0  0  0  0
 32 71  1  0  0  0  0
 33 72  1  0  0  0  0
 33 76  2  0  0  0  0
 34 52  1  0  0  0  0
 34 73  1  0  0  0  0
 34 77  2  0  0  0  0
 35 62  1  0  0  0  0
 35 68  1  0  0  0  0
 35 78  2  0  0  0  0
 36 63  1  0  0  0  0
 36 74  1  0  0  0  0
 36 79  2  0  0  0  0
 37 69  1  0  0  0  0
 37 70  1  0  0  0  0
 37 80  2  0  0  0  0
 38 42  1  0  0  0  0
 39 52  1  0  0  0  0
 40 46  1  0  0  0  0
 41 68  1  0  0  0  0
 42 44  1  0  0  0  0
 43 45  1  0  0  0  0
 43 47  1  0  0  0  0
 44 51  1  0  0  0  0
 45 53  1  0  0  0  0
 46 69  1  0  0  0  0
 47 70  1  0  0  0  0
 48 50  1  0  0  0  0
 48 69  1  0  0  0  0
 49 53  1  0  0  0  0
 49 70  1  0  0  0  0
 50 60  1  0  0  0  0
 51 73  1  0  0  0  0
 52 68  1  0  0  0  0
 53 67  1  0  0  0  0
 55 63  1  0  0  0  0
 56 64  1  0  0  0  0
 57 64  1  0  0  0  0
 58 64  1  0  0  0  0
 59 75  1  0  0  0  0
 60 61  1  0  0  0  0
 61 82  1  0  0  0  0
 62 64  1  0  0  0  0
 62 74  1  0  0  0  0
 63 75  1  0  0  0  0
 66 67  1  0  0  0  0
M  CHG  1  75   1
M  ISO  4  37 100  61 101  69 100  82 101
M  END
> <Batch ID>
0033

> <Smiles>
CNC(C)C(=O)NC(C(=O)N1Cc2cc([101O:1][101CH2:1]CC3C[100N:0]([100C:0](=O)N4CCCC(n5nc(-c6ccc(Oc7ccc(F)cc7F)cc6)c(C(N)=O)c5N)C4)CCc4cnc(C)cc43)ccc2CC1C(=O)NC1CCCc2ccccc21)C(C)(C)C

> <Shape>
0.209

> <Color>
0.075

> <Negative vol penalty>
0.000

$$$$

  -OEChem-04052316483D

 84 93  0     1  0  0  0  0  0999 V2000
  -20.7267  -30.3729   22.1016 C   0  0  0  0  0  0  0  0  0  0  0  0
  -20.6863  -29.0595   21.6447 C   0  0  0  0  0  0  0  0  0  0  0  0
  -22.9815  -10.0395   19.9562 C   0  0  0  0  0  0  0  0  0  0  0  0
  -23.7485   -9.9707   22.2462 C   0  0  0  0  0  0  0  0  0  0  0  0
  -21.9233  -31.0874   22.0609 C   0  0  0  0  0  0  0  0  0  0  0  0
  -21.8422  -28.4602   21.1457 C   0  0  0  0  0  0  0  0  0  0  0  0
  -25.1001  -22.0934   20.7386 C   0  0  0  0  0  0  0  0  0  0  0  0
  -22.1734   -8.9277   20.1935 C   0  0  0  0  0  0  0  0  0  0  0  0
  -22.9404   -8.8589   22.4835 C   0  0  0  0  0  0  0  0  0  0  0  0
  -25.6724  -21.2343   19.8014 C   0  0  0  0  0  0  0  0  0  0  0  0
  -19.1893   -8.2816   21.6462 C   0  0  0  0  0  0  0  0  0  0  0  0
  -17.8802   -8.3174   21.1660 C   0  0  0  0  0  0  0  0  0  0  0  0
  -27.7007  -22.5392   19.8530 C   0  0  0  0  0  0  0  0  0  0  0  0
  -31.7509  -18.6053   20.2215 C   0  0  0  0  0  0  0  0  0  0  0  0
  -29.6222  -17.5626   19.8148 C   0  0  0  0  0  0  0  0  0  0  0  0
  -18.3226   -6.3640   19.8147 C   0  0  0  0  0  0  0  0  0  0  0  0
  -23.7691  -10.5611   20.9826 C   0  0  0  0  0  0  0  0  0  0  0  0
  -24.2552  -13.0638   20.8959 C   0  0  0  0  0  0  0  0  0  0  0  0
  -23.0967  -30.4934   21.5701 C   0  0  0  0  0  0  0  0  0  0  0  0
  -25.8211  -23.1899   21.2326 C   0  0  0  0  0  0  0  0  0  0  0  0
  -23.0553  -29.1679   21.0971 C   0  0  0  0  0  0  0  0  0  0  0  0
  -27.1362  -23.4092   20.7982 C   0  0  0  0  0  0  0  0  0  0  0  0
  -30.7915  -17.6580   20.5610 C   0  0  0  0  0  0  0  0  0  0  0  0
  -22.1528   -8.3374   21.4571 C   0  0  0  0  0  0  0  0  0  0  0  0
  -26.9719  -21.4588   19.3563 C   0  0  0  0  0  0  0  0  0  0  0  0
  -20.0651   -7.2871   21.2107 C   0  0  0  0  0  0  0  0  0  0  0  0
  -17.4469   -7.3586   20.2502 C   0  0  0  0  0  0  0  0  0  0  0  0
  -19.6317   -6.3283   20.2950 C   0  0  0  0  0  0  0  0  0  0  0  0
  -24.6045  -11.7093   20.7380 C   0  0  0  0  0  0  0  0  0  0  0  0
  -31.4953  -19.4269   19.1355 C   0  0  0  0  0  0  0  0  0  0  0  0
  -29.4617  -18.4310   18.7471 C   0  0  0  0  0  0  0  0  0  0  0  0
  -25.3874  -13.7543   20.5383 C   0  0  0  0  0  0  0  0  0  0  0  0
  -23.0180  -13.6459   21.3273 C   0  0  0  0  0  0  0  0  0  0  0  0
  -25.4381  -26.3445   21.1567 C   0  0  0  0  0  0  0  0  0  0  0  0
  -28.0154  -26.3136   23.1263 C   0  0  0  0  0  0  0  0  0  0  0  0
  -30.8010  -24.6780   24.2270 C   0  0  0  0  0  0  0  0  0  0  0  0
  -30.8595  -14.4875   20.6525 C   0  0  0  0  0  0  0  0  0  0  0  0
  -24.3556  -31.3211   21.5019 C   0  0  0  0  0  0  0  0  0  0  0  0
  -25.1990  -24.0918   22.2632 C   0  0  0  0  0  0  0  0  0  0  0  0
  -27.9598  -24.5604   21.3128 C   0  0  0  0  0  0  0  0  0  0  0  0
  -25.6211  -30.4901   21.3060 C   0  0  0  0  0  0  0  0  0  0  0  0
  -30.0752  -16.0467   23.8310 C   0  0  0  0  0  0  0  0  0  0  0  0
  -29.6358  -12.2133   18.2946 C   0  0  0  0  0  0  0  0  0  0  0  0
  -30.4460  -17.2972   23.0438 C   0  0  0  0  0  0  0  0  0  0  0  0
  -25.4148  -29.4550   20.2047 C   0  0  0  0  0  0  0  0  0  0  0  0
  -28.1934  -11.9663   18.7320 C   0  0  0  0  0  0  0  0  0  0  0  0
  -30.5586  -12.3186   19.5023 C   0  0  0  0  0  0  0  0  0  0  0  0
  -29.5578  -15.1093   22.7511 C   0  0  0  0  0  0  0  0  0  0  0  0
  -28.7112  -13.1628   20.9190 C   0  0  0  0  0  0  0  0  0  0  0  0
  -31.0192  -16.7347   21.7364 C   0  0  1  0  0  0  0  0  0  0  0  0
  -24.2938  -28.4750   20.5716 C   0  0  1  0  0  0  0  0  0  0  0  0
  -25.8418  -25.4744   22.3133 C   0  0  1  0  0  0  0  0  0  0  0  0
  -27.7344  -13.0410   19.7315 C   0  0  2  0  0  0  0  0  0  0  0  0
  -32.5033  -20.4540   18.7410 C   0  0  0  0  0  0  0  0  0  0  0  0
  -32.7291  -24.9201   25.8149 C   0  0  0  0  0  0  0  0  0  0  0  0
  -29.3547  -28.2633   21.1989 C   0  0  0  0  0  0  0  0  0  0  0  0
  -31.5440  -27.7289   22.2895 C   0  0  0  0  0  0  0  0  0  0  0  0
  -29.7131  -28.7778   23.6199 C   0  0  0  0  0  0  0  0  0  0  0  0
  -29.9891  -22.2808   25.7611 C   0  0  0  0  0  0  0  0  0  0  0  0
  -28.2181  -18.3577   17.9256 C   0  0  0  0  0  0  0  0  0  0  0  0
  -27.1007  -19.2630   18.4520 C   0  0  0  0  0  0  0  0  0  1  0  0
  -29.5116  -26.3540   22.9297 C   0  0  1  0  0  0  0  0  0  0  0  0
  -31.3149  -24.3934   25.6268 C   0  0  2  0  0  0  0  0  0  0  0  0
  -30.0149  -27.7603   22.4982 C   0  0  0  0  0  0  0  0  0  0  0  0
  -25.8603  -11.5467   20.3130 N   0  0  0  0  0  0  0  0  0  0  0  0
  -30.3714  -19.3639   18.3868 N   0  0  0  0  0  0  0  0  0  0  0  0
  -26.3100  -12.8082   20.2008 N   0  0  0  0  0  0  0  0  0  0  0  0
  -27.3050  -25.4177   22.3147 N   0  0  0  0  0  0  0  0  0  0  0  0
  -30.0915  -13.3345   20.4463 N   0  0  0  0  0  0  0  0  0  0  0  0
  -30.3837  -15.4169   21.5820 N   0  0  0  0  0  0  0  0  0  0  0  0
  -25.6739  -15.0724   20.4827 N   0  0  0  0  0  0  0  0  0  0  0  0
  -21.9566  -12.7918   21.6563 N   0  0  0  0  0  0  0  0  0  0  0  0
  -24.7701  -27.4965   21.5256 N   0  0  0  0  0  0  0  0  0  0  0  0
  -30.0998  -25.8639   24.1716 N   0  0  0  0  0  0  0  0  0  0  0  0
  -31.3212  -22.9262   25.8880 N   0  3  0  0  0  0  0  0  0  0  0  0
  -22.8531  -14.8871   21.4026 O   0  0  0  0  0  0  0  0  0  0  0  0
  -25.7136  -25.9971   20.0143 O   0  0  0  0  0  0  0  0  0  0  0  0
  -27.4968  -27.0446   23.9738 O   0  0  0  0  0  0  0  0  0  0  0  0
  -31.0048  -23.9255   23.2769 O   0  0  0  0  0  0  0  0  0  0  0  0
  -31.9274  -14.6686   20.0536 O   0  0  0  0  0  0  0  0  0  0  0  0
  -21.3642   -7.2525   21.6890 O   0  0  0  0  0  0  0  0  0  0  0  0
  -27.5366  -20.6163   18.4347 O   0  0  0  0  0  0  0  0  0  1  0  0
  -16.1893   -7.3921   19.7903 F   0  0  0  0  0  0  0  0  0  0  0  0
  -20.4681   -5.3698   19.8738 F   0  0  0  0  0  0  0  0  0  0  0  0
  1  2  1  0  0  0  0
  1  5  2  0  0  0  0
  2  6  2  0  0  0  0
  3  8  2  0  0  0  0
  3 17  1  0  0  0  0
  4  9  1  0  0  0  0
  4 17  2  0  0  0  0
  5 19  1  0  0  0  0
  6 21  1  0  0  0  0
  7 10  2  0  0  0  0
  7 20  1  0  0  0  0
  8 24  1  0  0  0  0
  9 24  2  0  0  0  0
 10 25  1  0  0  0  0
 11 12  2  0  0  0  0
 11 26  1  0  0  0  0
 12 27  1  0  0  0  0
 13 22  1  0  0  0  0
 13 25  2  0  0  0  0
 14 23  1  0  0  0  0
 14 30  2  0  0  0  0
 15 23  2  0  0  0  0
 15 31  1  0  0  0  0
 16 27  2  0  0  0  0
 16 28  1  0  0  0  0
 17 29  1  0  0  0  0
 18 29  1  0  0  0  0
 18 32  2  0  0  0  0
 18 33  1  0  0  0  0
 19 21  2  0  0  0  0
 19 38  1  0  0  0  0
 20 22  2  0  0  0  0
 20 39  1  0  0  0  0
 21 51  1  0  0  0  0
 22 40  1  0  0  0  0
 23 50  1  0  0  0  0
 24 81  1  0  0  0  0
 25 82  1  0  0  0  0
 26 28  2  0  0  0  0
 26 81  1  0  0  0  0
 27 83  1  0  0  0  0
 28 84  1  0  0  0  0
 29 65  2  0  0  0  0
 30 54  1  0  0  0  0
 30 66  1  0  0  0  0
 31 60  1  0  0  0  0
 31 66  2  0  0  0  0
 32 67  1  0  0  0  0
 32 71  1  0  0  0  0
 33 72  1  0  0  0  0
 33 76  2  0  0  0  0
 34 52  1  0  0  0  0
 34 73  1  0  0  0  0
 34 77  2  0  0  0  0
 35 62  1  0  0  0  0
 35 68  1  0  0  0  0
 35 78  2  0  0  0  0
 36 63  1  0  0  0  0
 36 74  1  0  0  0  0
 36 79  2  0  0  0  0
 37 69  1  0  0  0  0
 37 70  1  0  0  0  0
 37 80  2  0  0  0  0
 38 41  1  0  0  0  0
 39 52  1  0  0  0  0
 40 68  1  0  0  0  0
 41 45  1  0  0  0  0
 42 44  1  0  0  0  0
 42 48  1  0  0  0  0
 43 46  1  0  0  0  0
 43 47  1  0  0  0  0
 44 50  1  0  0  0  0
 45 51  1  0  0  0  0
 46 53  1  0  0  0  0
 47 69  1  0  0  0  0
 48 70  1  0  0  0  0
 49 53  1  0  0  0  0
 49 69  1  0  0  0  0
 50 70  1  0  0  0  0
 51 73  1  0  0  0  0
 52 68  1  0  0  0  0
 53 67  1  0  0  0  0
 55 63  1  0  0  0  0
 56 64  1  0  0  0  0
 57 64  1  0  0  0  0
 58 64  1  0  0  0  0
 59 75  1  0  0  0  0
 60 61  1  0  0  0  0
 61 82  1  0  0  0  0
 62 64  1  0  0  0  0
 62 74  1  0  0  0  0
 63 75  1  0  0  0  0
 65 67  1  0  0  0  0
M  CHG  1  75   1
M  ISO  4  37 100  61 101  70 100  82 101
M  END
> <Batch ID>
0033

> <Smiles>
CNC(C)C(=O)NC(C(=O)N1Cc2cc([101O:1][101CH2:1]Cc3cc(C4CCC[100N:0]4[100C:0](=O)N4CCCC(n5nc(-c6ccc(Oc7ccc(F)cc7F)cc6)c(C(N)=O)c5N)C4)cc(C)n3)ccc2CC1C(=O)NC1CCCc2ccccc21)C(C)(C)C

> <Shape>
0.273

> <Color>
0.208

> <Negative vol penalty>
0.000

$$$$

  -OEChem-04052316483D

 89 97  0     1  0  0  0  0  0999 V2000
  -19.9103  -13.2730   16.3696 C   0  0  0  0  0  0  0  0  0  0  0  0
  -20.5666  -14.4903   16.5217 C   0  0  0  0  0  0  0  0  0  0  0  0
  -20.6787  -26.5569   22.9028 C   0  0  0  0  0  0  0  0  0  0  0  0
  -20.1721  -28.8666   22.4073 C   0  0  0  0  0  0  0  0  0  0  0  0
  -20.2444  -12.1952   17.1885 C   0  0  0  0  0  0  0  0  0  0  0  0
  -21.5566  -14.6306   17.4936 C   0  0  0  0  0  0  0  0  0  0  0  0
  -26.6323  -18.0362   17.1132 C   0  0  0  0  0  0  0  0  0  0  0  0
  -19.3529  -26.3474   23.2821 C   0  0  0  0  0  0  0  0  0  0  0  0
  -18.8462  -28.6572   22.7866 C   0  0  0  0  0  0  0  0  0  0  0  0
  -26.9479  -19.3063   17.5939 C   0  0  0  0  0  0  0  0  0  0  0  0
  -16.3773  -25.8368   21.7595 C   0  0  0  0  0  0  0  0  0  0  0  0
  -15.7435  -24.6856   21.2920 C   0  0  0  0  0  0  0  0  0  0  0  0
  -27.9808  -18.3092   19.5326 C   0  0  0  0  0  0  0  0  0  0  0  0
  -28.0627  -22.7856   21.8777 C   0  0  0  0  0  0  0  0  0  0  0  0
  -29.8222  -22.9277   20.2283 C   0  0  0  0  0  0  0  0  0  0  0  0
  -15.3826  -23.9600   23.5681 C   0  0  0  0  0  0  0  0  0  0  0  0
  -21.0883  -27.8165   22.4654 C   0  0  0  0  0  0  0  0  0  0  0  0
  -23.0092  -27.8790   20.7879 C   0  0  0  0  0  0  0  0  0  0  0  0
  -21.2457  -12.3196   18.1644 C   0  0  0  0  0  0  0  0  0  0  0  0
  -26.9795  -16.8916   17.8451 C   0  0  0  0  0  0  0  0  0  0  0  0
  -21.9035  -13.5538   18.3272 C   0  0  0  0  0  0  0  0  0  0  0  0
  -27.6707  -17.0257   19.0577 C   0  0  0  0  0  0  0  0  0  0  0  0
  -28.8393  -22.1876   20.8854 C   0  0  0  0  0  0  0  0  0  0  0  0
  -28.2689  -24.1239   22.2130 C   0  0  0  0  0  0  0  0  0  0  0  0
  -30.0284  -24.2659   20.5635 C   0  0  0  0  0  0  0  0  0  0  0  0
  -18.4366  -27.3975   23.2240 C   0  0  0  0  0  0  0  0  0  0  0  0
  -27.6197  -19.4431   18.8052 C   0  0  0  0  0  0  0  0  0  0  0  0
  -16.5139  -26.0496   23.1313 C   0  0  0  0  0  0  0  0  0  0  0  0
  -15.2461  -23.7472   22.1963 C   0  0  0  0  0  0  0  0  0  0  0  0
  -16.0165  -25.1113   24.0356 C   0  0  0  0  0  0  0  0  0  0  0  0
  -29.2518  -24.8640   21.5559 C   0  0  0  0  0  0  0  0  0  0  0  0
  -22.4579  -28.0337   22.0740 C   0  0  0  0  0  0  0  0  0  0  0  0
  -24.3350  -28.2036   20.9414 C   0  0  0  0  0  0  0  0  0  0  0  0
  -22.3793  -27.4778   19.5641 C   0  0  0  0  0  0  0  0  0  0  0  0
  -25.3560  -14.5265   19.2141 C   0  0  0  0  0  0  0  0  0  0  0  0
  -28.3201  -13.3192   19.7421 C   0  0  0  0  0  0  0  0  0  0  0  0
  -31.6634  -13.9012   20.1031 C   0  0  0  0  0  0  0  0  0  0  0  0
  -28.3280  -31.5151   22.9992 C   0  0  0  0  0  0  0  0  0  0  0  0
  -21.5393  -11.1404   19.0577 C   0  0  0  0  0  0  0  0  0  0  0  0
  -26.6555  -15.5278   17.2998 C   0  0  0  0  0  0  0  0  0  0  0  0
  -28.0838  -15.8277   19.8717 C   0  0  0  0  0  0  0  0  0  0  0  0
  -22.8608  -11.2619   19.8121 C   0  0  0  0  0  0  0  0  0  0  0  0
  -27.0799  -28.9459   25.1248 C   0  0  0  0  0  0  0  0  0  0  0  0
  -22.9957  -12.6487   20.4328 C   0  0  0  0  0  0  0  0  0  0  0  0
  -25.8090  -28.4716   24.4178 C   0  0  0  0  0  0  0  0  0  0  0  0
  -27.2795  -30.4526   24.9761 C   0  0  0  0  0  0  0  0  0  0  0  0
  -25.9841  -30.4721   22.8796 C   0  0  0  0  0  0  0  0  0  0  0  0
  -23.0002  -13.7381   19.3535 C   0  0  1  0  0  0  0  0  0  0  0  0
  -26.6023  -14.4502   18.3784 C   0  0  1  0  0  0  0  0  0  0  0  0
  -25.7694  -28.9507   22.9542 C   0  0  2  0  0  0  0  0  0  0  0  0
  -27.4131  -24.7232   23.2823 C   0  0  0  0  0  0  0  0  0  0  0  0
  -33.8297  -12.7215   20.5646 C   0  0  0  0  0  0  0  0  0  0  0  0
  -27.5680  -13.0969   22.6908 C   0  0  0  0  0  0  0  0  0  0  0  0
  -30.0011  -12.8354   23.2198 C   0  0  0  0  0  0  0  0  0  0  0  0
  -28.8486  -11.1464   21.7909 C   0  0  0  0  0  0  0  0  0  0  0  0
  -32.8021  -14.7274   17.4993 C   0  0  0  0  0  0  0  0  0  0  0  0
  -31.0927  -25.0203   19.8330 C   0  0  0  0  0  0  0  0  0  0  0  0
  -28.6175  -20.7481   20.5248 C   0  0  0  0  0  0  0  0  0  1  0  0
  -30.5866  -29.6142   18.7209 C   0  0  0  0  0  0  0  0  0  0  0  0
  -29.5741  -30.6030   19.3027 C   0  0  0  0  0  0  0  0  0  0  0  0
  -29.9265  -28.6686   17.7145 C   0  0  0  0  0  0  0  0  0  0  0  0
  -30.2429  -31.5679   20.2863 C   0  0  0  0  0  0  0  0  0  0  0  0
  -30.9502  -27.7072   17.1040 C   0  0  0  0  0  0  0  0  0  0  0  0
  -29.2501  -32.5299   20.9306 C   0  0  0  0  0  0  0  0  0  0  0  0
  -31.5891  -26.7736   18.1248 C   0  0  0  0  0  0  0  0  0  0  0  0
  -29.3422  -13.4391   20.8466 C   0  0  1  0  0  0  0  0  0  0  0  0
  -32.8758  -13.2225   19.4914 C   0  0  2  0  0  0  0  0  0  0  0  0
  -28.9306  -12.6523   22.1229 C   0  0  0  0  0  0  0  0  0  0  0  0
  -23.3597  -28.4259   22.9778 N   0  0  0  0  0  0  0  0  0  0  0  0
  -24.4911  -28.5203   22.2587 N   0  0  0  0  0  0  0  0  0  0  0  0
  -27.7388  -14.5159   19.2995 N   0  0  0  0  0  0  0  0  0  0  0  0
  -27.2329  -30.8412   23.5644 N   0  0  0  0  0  0  0  0  0  0  0  0
  -25.3707  -28.2460   20.0766 N   0  0  0  0  0  0  0  0  0  0  0  0
  -21.0097  -27.1808   19.5836 N   0  0  0  0  0  0  0  0  0  0  0  0
  -24.2933  -13.8035   18.7068 N   0  0  0  0  0  0  0  0  0  0  0  0
  -30.6159  -13.0205   20.2713 N   0  0  0  0  0  0  0  0  0  0  0  0
  -28.2046  -31.8413   21.6541 N   0  0  0  0  0  0  0  0  0  0  0  0
  -33.6140  -14.1740   18.6135 N   0  3  0  0  0  0  0  0  0  0  0  0
  -30.5518  -25.9705   18.8243 N   0  3  0  0  0  0  0  0  0  0  0  0
  -23.0156  -27.3696   18.4885 O   0  0  0  0  0  0  0  0  0  0  0  0
  -25.3588  -15.1909   20.2438 O   0  0  0  0  0  0  0  0  0  0  0  0
  -28.0528  -12.2056   19.2838 O   0  0  0  0  0  0  0  0  0  0  0  0
  -31.6486  -15.0924   20.4051 O   0  0  0  0  0  0  0  0  0  0  0  0
  -29.3430  -31.7999   23.6439 O   0  0  0  0  0  0  0  0  0  0  0  0
  -17.1427  -27.1934   23.5938 O   0  0  0  0  0  0  0  0  0  0  0  0
  -27.9284  -20.6816   19.2770 O   0  0  0  0  0  0  0  0  0  1  0  0
  -14.6361  -22.6425   21.7473 F   0  0  0  0  0  0  0  0  0  0  0  0
  -16.1437  -25.3108   25.3546 F   0  0  0  0  0  0  0  0  0  0  0  0
  -29.5077  -26.5255   21.9719 Cl  0  0  0  0  0  0  0  0  0  0  0  0
  1  2  1  0  0  0  0
  1  5  2  0  0  0  0
  2  6  2  0  0  0  0
  3  8  2  0  0  0  0
  3 17  1  0  0  0  0
  4  9  1  0  0  0  0
  4 17  2  0  0  0  0
  5 19  1  0  0  0  0
  6 21  1  0  0  0  0
  7 10  2  0  0  0  0
  7 20  1  0  0  0  0
  8 26  1  0  0  0  0
  9 26  2  0  0  0  0
 10 27  1  0  0  0  0
 11 12  2  0  0  0  0
 11 28  1  0  0  0  0
 12 29  1  0  0  0  0
 13 22  1  0  0  0  0
 13 27  2  0  0  0  0
 14 23  1  0  0  0  0
 14 24  2  0  0  0  0
 15 23  2  0  0  0  0
 15 25  1  0  0  0  0
 16 29  2  0  0  0  0
 16 30  1  0  0  0  0
 17 32  1  0  0  0  0
 18 32  1  0  0  0  0
 18 33  2  0  0  0  0
 18 34  1  0  0  0  0
 19 21  2  0  0  0  0
 19 39  1  0  0  0  0
 20 22  2  0  0  0  0
 20 40  1  0  0  0  0
 21 48  1  0  0  0  0
 22 41  1  0  0  0  0
 23 58  1  0  0  0  0
 24 31  1  0  0  0  0
 24 51  1  0  0  0  0
 25 31  2  0  0  0  0
 25 57  1  0  0  0  0
 26 85  1  0  0  0  0
 27 86  1  0  0  0  0
 28 30  2  0  0  0  0
 28 85  1  0  0  0  0
 29 87  1  0  0  0  0
 30 88  1  0  0  0  0
 31 89  1  0  0  0  0
 32 69  2  0  0  0  0
 33 70  1  0  0  0  0
 33 73  1  0  0  0  0
 34 74  1  0  0  0  0
 34 80  2  0  0  0  0
 35 49  1  0  0  0  0
 35 75  1  0  0  0  0
 35 81  2  0  0  0  0
 36 66  1  0  0  0  0
 36 71  1  0  0  0  0
 36 82  2  0  0  0  0
 37 67  1  0  0  0  0
 37 76  1  0  0  0  0
 37 83  2  0  0  0  0
 38 72  1  0  0  0  0
 38 77  1  0  0  0  0
 38 84  2  0  0  0  0
 39 42  1  0  0  0  0
 40 49  1  0  0  0  0
 41 71  1  0  0  0  0
 42 44  1  0  0  0  0
 43 45  1  0  0  0  0
 43 46  1  0  0  0  0
 44 48  1  0  0  0  0
 45 50  1  0  0  0  0
 46 72  1  0  0  0  0
 47 50  1  0  0  0  0
 47 72  1  0  0  0  0
 48 75  1  0  0  0  0
 49 71  1  0  0  0  0
 50 70  1  0  0  0  0
 52 67  1  0  0  0  0
 53 68  1  0  0  0  0
 54 68  1  0  0  0  0
 55 68  1  0  0  0  0
 56 78  1  0  0  0  0
 57 79  1  0  0  0  0
 58 86  1  0  0  0  0
 59 60  1  0  0  0  0
 59 61  1  0  0  0  0
 60 62  1  0  0  0  0
 61 63  1  0  0  0  0
 62 64  1  0  0  0  0
 63 65  1  0  0  0  0
 64 77  1  0  0  0  0
 65 79  1  0  0  0  0
 66 68  1  0  0  0  0
 66 76  1  0  0  0  0
 67 78  1  0  0  0  0
 69 70  1  0  0  0  0
M  CHG  2  78   1  79   1
M  ISO  4  38 100  58 101  77 100  86 101
M  END
> <Batch ID>
0033

> <Smiles>
CNC(C)C(=O)NC(C(=O)N1Cc2cc([101O:1][101CH2:1]c3cc(C)c(Cl)c(CNCCCCCCC[100NH:0][100C:0](=O)N4CCCC(n5nc(-c6ccc(Oc7ccc(F)cc7F)cc6)c(C(N)=O)c5N)C4)c3)ccc2CC1C(=O)NC1CCCc2ccccc21)C(C)(C)C

> <Shape>
0.242

> <Color>
0.062

> <Negative vol penalty>
0.000

$$$$

  -OEChem-04052316483D

 85 93  0     1  0  0  0  0  0999 V2000
  -20.0679  -20.7492   13.5404 C   0  0  0  0  0  0  0  0  0  0  0  0
  -20.6880  -19.8524   14.4044 C   0  0  0  0  0  0  0  0  0  0  0  0
  -27.4907  -23.4665   20.6312 C   0  0  0  0  0  0  0  0  0  0  0  0
  -28.8494  -23.4424   18.6336 C   0  0  0  0  0  0  0  0  0  0  0  0
  -20.0100  -22.1034   13.8671 C   0  0  0  0  0  0  0  0  0  0  0  0
  -21.2516  -20.3094   15.5952 C   0  0  0  0  0  0  0  0  0  0  0  0
  -20.1094  -17.3536   19.5453 C   0  0  0  0  0  0  0  0  0  0  0  0
  -27.5813  -24.8576   20.6760 C   0  0  0  0  0  0  0  0  0  0  0  0
  -28.9399  -24.8336   18.6784 C   0  0  0  0  0  0  0  0  0  0  0  0
  -20.8202  -16.1613   19.6750 C   0  0  0  0  0  0  0  0  0  0  0  0
  -26.1466  -27.4984   19.1266 C   0  0  0  0  0  0  0  0  0  0  0  0
  -24.9772  -28.2164   19.3770 C   0  0  0  0  0  0  0  0  0  0  0  0
  -22.2388  -17.1941   21.3303 C   0  0  0  0  0  0  0  0  0  0  0  0
  -25.6003  -11.4826   19.3414 C   0  0  0  0  0  0  0  0  0  0  0  0
  -26.3125  -12.6217   21.3494 C   0  0  0  0  0  0  0  0  0  0  0  0
  -25.9820  -29.1609   21.3608 C   0  0  0  0  0  0  0  0  0  0  0  0
  -28.1249  -22.7588   19.6100 C   0  0  0  0  0  0  0  0  0  0  0  0
  -27.0524  -20.5538   18.9061 C   0  0  0  0  0  0  0  0  0  0  0  0
  -20.5647  -22.5758   15.0670 C   0  0  0  0  0  0  0  0  0  0  0  0
  -20.4654  -18.4803   20.3005 C   0  0  0  0  0  0  0  0  0  0  0  0
  -21.2023  -21.6714   15.9376 C   0  0  0  0  0  0  0  0  0  0  0  0
  -21.5293  -18.3988   21.2103 C   0  0  0  0  0  0  0  0  0  0  0  0
  -26.6228  -11.9501   20.1670 C   0  0  0  0  0  0  0  0  0  0  0  0
  -24.2674  -11.6868   19.6983 C   0  0  0  0  0  0  0  0  0  0  0  0
  -23.9570  -12.3584   20.8808 C   0  0  0  0  0  0  0  0  0  0  0  0
  -28.3058  -25.5412   19.6996 C   0  0  0  0  0  0  0  0  0  0  0  0
  -21.8870  -16.0822   20.5654 C   0  0  0  0  0  0  0  0  0  0  0  0
  -27.2336  -27.6116   19.9933 C   0  0  0  0  0  0  0  0  0  0  0  0
  -24.8949  -29.0476   20.4941 C   0  0  0  0  0  0  0  0  0  0  0  0
  -27.1513  -28.4428   21.1104 C   0  0  0  0  0  0  0  0  0  0  0  0
  -24.9795  -12.8259   21.7064 C   0  0  0  0  0  0  0  0  0  0  0  0
  -28.0322  -21.3217   19.5635 C   0  0  0  0  0  0  0  0  0  0  0  0
  -27.4074  -19.2520   19.1623 C   0  0  0  0  0  0  0  0  0  0  0  0
  -25.9224  -20.9793   18.1330 C   0  0  0  0  0  0  0  0  0  0  0  0
  -21.4860  -21.4109   19.6124 C   0  0  0  0  0  0  0  0  0  0  0  0
  -21.1613  -21.8535   22.8094 C   0  0  0  0  0  0  0  0  0  0  0  0
  -21.0454  -20.4731   25.9284 C   0  0  0  0  0  0  0  0  0  0  0  0
  -31.2744  -15.2453   19.5348 C   0  0  0  0  0  0  0  0  0  0  0  0
  -20.5192  -24.0556   15.3547 C   0  0  0  0  0  0  0  0  0  0  0  0
  -19.6717  -19.7511   20.1686 C   0  0  0  0  0  0  0  0  0  0  0  0
  -21.9388  -19.5737   22.0590 C   0  0  0  0  0  0  0  0  0  0  0  0
  -20.8109  -24.4020   16.8125 C   0  0  0  0  0  0  0  0  0  0  0  0
  -30.8128  -17.3398   22.3768 C   0  0  0  0  0  0  0  0  0  0  0  0
  -22.0359  -23.6397   17.3075 C   0  0  0  0  0  0  0  0  0  0  0  0
  -29.9732  -18.5015   21.8426 C   0  0  0  0  0  0  0  0  0  0  0  0
  -31.8222  -16.8498   21.3410 C   0  0  0  0  0  0  0  0  0  0  0  0
  -30.4043  -17.6615   19.4958 C   0  0  0  0  0  0  0  0  0  0  0  0
  -21.8034  -22.1250   17.2502 C   0  0  1  0  0  0  0  0  0  0  0  0
  -20.4466  -20.9883   20.6117 C   0  0  1  0  0  0  0  0  0  0  0  0
  -29.3338  -18.1533   20.4849 C   0  0  2  0  0  0  0  0  0  0  0  0
  -23.1930  -11.1765   18.7943 C   0  0  0  0  0  0  0  0  0  0  0  0
  -20.8078  -21.0917   28.3488 C   0  0  0  0  0  0  0  0  0  0  0  0
  -24.0527  -22.8278   22.8417 C   0  0  0  0  0  0  0  0  0  0  0  0
  -24.0552  -22.5207   25.3264 C   0  0  0  0  0  0  0  0  0  0  0  0
  -22.4892  -24.1530   24.2748 C   0  0  0  0  0  0  0  0  0  0  0  0
  -18.5604  -18.8904   26.2088 C   0  0  0  0  0  0  0  0  0  0  0  0
  -28.0478  -11.7305   19.7852 C   0  0  0  0  0  0  0  0  0  0  0  0
  -22.5096  -12.5715   21.2519 C   0  0  0  0  0  0  0  0  0  0  0  0
  -28.6060  -12.8820   18.9344 C   0  0  0  0  0  0  0  0  0  0  0  0
  -30.0576  -12.6269   18.5178 C   0  0  0  0  0  0  0  0  0  0  0  0
  -30.6282  -13.7522   17.6608 C   0  0  0  0  0  0  0  0  0  0  0  0
  -21.8690  -13.7064   20.4602 C   0  0  0  0  0  0  0  0  0  1  0  0
  -22.0592  -21.6757   24.0100 C   0  0  1  0  0  0  0  0  0  0  0  0
  -20.0789  -20.6709   27.0822 C   0  0  2  0  0  0  0  0  0  0  0  0
  -23.1578  -22.7726   24.0960 C   0  0  0  0  0  0  0  0  0  0  0  0
  -28.9413  -20.5703   20.1903 N   0  0  0  0  0  0  0  0  0  0  0  0
  -28.5342  -19.3167   19.9280 N   0  0  0  0  0  0  0  0  0  0  0  0
  -21.1358  -20.7960   21.8893 N   0  0  0  0  0  0  0  0  0  0  0  0
  -31.1514  -16.5352   20.0772 N   0  0  0  0  0  0  0  0  0  0  0  0
  -26.8625  -18.0697   18.8051 N   0  0  0  0  0  0  0  0  0  0  0  0
  -25.7044  -22.3541   17.9691 N   0  0  0  0  0  0  0  0  0  0  0  0
  -20.9782  -21.6980   18.3597 N   0  0  0  0  0  0  0  0  0  0  0  0
  -21.1797  -21.6185   25.1725 N   0  0  0  0  0  0  0  0  0  0  0  0
  -30.6020  -15.0294   18.3381 N   0  0  0  0  0  0  0  0  0  0  0  0
  -19.3412  -19.4067   27.3624 N   0  3  0  0  0  0  0  0  0  0  0  0
  -25.1201  -20.1647   17.6169 O   0  0  0  0  0  0  0  0  0  0  0  0
  -22.6615  -21.4735   19.9531 O   0  0  0  0  0  0  0  0  0  0  0  0
  -20.5013  -22.8895   22.6960 O   0  0  0  0  0  0  0  0  0  0  0  0
  -21.6262  -19.4101   25.7207 O   0  0  0  0  0  0  0  0  0  0  0  0
  -31.9300  -14.3508   20.0796 O   0  0  0  0  0  0  0  0  0  0  0  0
  -28.3941  -26.8987   19.7429 O   0  0  0  0  0  0  0  0  0  0  0  0
  -22.5829  -14.9198   20.6934 O   0  0  0  0  0  0  0  0  0  1  0  0
  -23.7725  -29.7382   20.7336 F   0  0  0  0  0  0  0  0  0  0  0  0
  -28.1928  -28.5565   21.9460 F   0  0  0  0  0  0  0  0  0  0  0  0
  -24.6366  -13.6600   23.1787 Cl  0  0  0  0  0  0  0  0  0  0  0  0
  1  2  1  0  0  0  0
  1  5  2  0  0  0  0
  2  6  2  0  0  0  0
  3  8  2  0  0  0  0
  3 17  1  0  0  0  0
  4  9  1  0  0  0  0
  4 17  2  0  0  0  0
  5 19  1  0  0  0  0
  6 21  1  0  0  0  0
  7 10  2  0  0  0  0
  7 20  1  0  0  0  0
  8 26  1  0  0  0  0
  9 26  2  0  0  0  0
 10 27  1  0  0  0  0
 11 12  2  0  0  0  0
 11 28  1  0  0  0  0
 12 29  1  0  0  0  0
 13 22  1  0  0  0  0
 13 27  2  0  0  0  0
 14 23  1  0  0  0  0
 14 24  2  0  0  0  0
 15 23  2  0  0  0  0
 15 31  1  0  0  0  0
 16 29  2  0  0  0  0
 16 30  1  0  0  0  0
 17 32  1  0  0  0  0
 18 32  1  0  0  0  0
 18 33  2  0  0  0  0
 18 34  1  0  0  0  0
 19 21  2  0  0  0  0
 19 39  1  0  0  0  0
 20 22  2  0  0  0  0
 20 40  1  0  0  0  0
 21 48  1  0  0  0  0
 22 41  1  0  0  0  0
 23 57  1  0  0  0  0
 24 25  1  0  0  0  0
 24 51  1  0  0  0  0
 25 31  2  0  0  0  0
 25 58  1  0  0  0  0
 26 81  1  0  0  0  0
 27 82  1  0  0  0  0
 28 30  2  0  0  0  0
 28 81  1  0  0  0  0
 29 83  1  0  0  0  0
 30 84  1  0  0  0  0
 31 85  1  0  0  0  0
 32 66  2  0  0  0  0
 33 67  1  0  0  0  0
 33 70  1  0  0  0  0
 34 71  1  0  0  0  0
 34 76  2  0  0  0  0
 35 49  1  0  0  0  0
 35 72  1  0  0  0  0
 35 77  2  0  0  0  0
 36 63  1  0  0  0  0
 36 68  1  0  0  0  0
 36 78  2  0  0  0  0
 37 64  1  0  0  0  0
 37 73  1  0  0  0  0
 37 79  2  0  0  0  0
 38 69  1  0  0  0  0
 38 74  1  0  0  0  0
 38 80  2  0  0  0  0
 39 42  1  0  0  0  0
 40 49  1  0  0  0  0
 41 68  1  0  0  0  0
 42 44  1  0  0  0  0
 43 45  1  0  0  0  0
 43 46  1  0  0  0  0
 44 48  1  0  0  0  0
 45 50  1  0  0  0  0
 46 69  1  0  0  0  0
 47 50  1  0  0  0  0
 47 69  1  0  0  0  0
 48 72  1  0  0  0  0
 49 68  1  0  0  0  0
 50 67  1  0  0  0  0
 52 64  1  0  0  0  0
 53 65  1  0  0  0  0
 54 65  1  0  0  0  0
 55 65  1  0  0  0  0
 56 75  1  0  0  0  0
 57 59  1  0  0  0  0
 58 62  1  0  0  0  0
 59 60  1  0  0  0  0
 60 61  1  0  0  0  0
 61 74  1  0  0  0  0
 62 82  1  0  0  0  0
 63 65  1  0  0  0  0
 63 73  1  0  0  0  0
 64 75  1  0  0  0  0
 66 67  1  0  0  0  0
M  CHG  1  75   1
M  ISO  4  38 100  62 101  74 100  82 101
M  END
> <Batch ID>
0033

> <Smiles>
CNC(C)C(=O)NC(C(=O)N1Cc2cc([101O:1][101CH2:1]Cc3c(C)cc(CCCC[100NH:0][100C:0](=O)N4CCCC(n5nc(-c6ccc(Oc7ccc(F)cc7F)cc6)c(C(N)=O)c5N)C4)cc3Cl)ccc2CC1C(=O)NC1CCCc2ccccc21)C(C)(C)C

> <Shape>
0.189

> <Color>
0.106

> <Negative vol penalty>
0.000

$$$$

  -OEChem-04052316483D

 89 97  0     1  0  0  0  0  0999 V2000
  -33.4223  -25.0310   18.3100 C   0  0  0  0  0  0  0  0  0  0  0  0
  -32.3460  -24.5243   19.0313 C   0  0  0  0  0  0  0  0  0  0  0  0
  -29.6012  -16.4492   18.5619 C   0  0  0  0  0  0  0  0  0  0  0  0
  -28.9265  -16.4033   20.8814 C   0  0  0  0  0  0  0  0  0  0  0  0
  -33.8883  -26.3195   18.5682 C   0  0  0  0  0  0  0  0  0  0  0  0
  -31.7357  -25.3055   20.0120 C   0  0  0  0  0  0  0  0  0  0  0  0
  -26.6805  -25.1285   19.7695 C   0  0  0  0  0  0  0  0  0  0  0  0
  -29.5748  -17.8436   18.5818 C   0  0  0  0  0  0  0  0  0  0  0  0
  -28.9002  -17.7978   20.9013 C   0  0  0  0  0  0  0  0  0  0  0  0
  -26.0572  -23.9968   20.2933 C   0  0  0  0  0  0  0  0  0  0  0  0
  -29.3361  -21.4116   17.9215 C   0  0  0  0  0  0  0  0  0  0  0  0
  -28.7307  -22.0657   16.8485 C   0  0  0  0  0  0  0  0  0  0  0  0
  -25.5485  -25.2180   22.3105 C   0  0  0  0  0  0  0  0  0  0  0  0
  -26.6459  -20.9500   17.3447 C   0  0  0  0  0  0  0  0  0  0  0  0
  -21.3791  -20.8199   22.8369 C   0  0  0  0  0  0  0  0  0  0  0  0
  -29.2770  -15.7290   19.7117 C   0  0  0  0  0  0  0  0  0  0  0  0
  -30.3964  -13.4541   19.9932 C   0  0  0  0  0  0  0  0  0  0  0  0
  -33.2772  -27.1204   19.5458 C   0  0  0  0  0  0  0  0  0  0  0  0
  -26.7523  -26.3122   20.5179 C   0  0  0  0  0  0  0  0  0  0  0  0
  -32.1948  -26.6054   20.2844 C   0  0  0  0  0  0  0  0  0  0  0  0
  -26.1711  -26.3641   21.7929 C   0  0  0  0  0  0  0  0  0  0  0  0
  -22.4583  -18.7283   22.4948 C   0  0  0  0  0  0  0  0  0  0  0  0
  -23.6390  -19.2958   22.9610 C   0  0  0  0  0  0  0  0  0  0  0  0
  -29.2243  -18.5179   19.7515 C   0  0  0  0  0  0  0  0  0  0  0  0
  -25.4936  -24.0405   21.5651 C   0  0  0  0  0  0  0  0  0  0  0  0
  -28.5964  -20.5266   18.7060 C   0  0  0  0  0  0  0  0  0  0  0  0
  -27.3856  -21.8349   16.5601 C   0  0  0  0  0  0  0  0  0  0  0  0
  -27.2514  -20.2959   18.4176 C   0  0  0  0  0  0  0  0  0  0  0  0
  -21.3024  -19.4982   22.4284 C   0  0  0  0  0  0  0  0  0  0  0  0
  -29.3035  -14.2885   19.6916 C   0  0  0  0  0  0  0  0  0  0  0  0
  -23.6112  -20.6267   23.3454 C   0  0  0  0  0  0  0  0  0  0  0  0
  -29.9114  -12.1798   19.8278 C   0  0  0  0  0  0  0  0  0  0  0  0
  -31.7308  -13.8000   20.3877 C   0  0  0  0  0  0  0  0  0  0  0  0
  -29.1156  -28.0813   21.6963 C   0  0  0  0  0  0  0  0  0  0  0  0
  -26.6944  -30.0876   22.4929 C   0  0  0  0  0  0  0  0  0  0  0  0
  -23.3766  -30.4948   23.1810 C   0  0  0  0  0  0  0  0  0  0  0  0
  -24.4052   -9.8444   20.1071 C   0  0  0  0  0  0  0  0  0  0  0  0
  -33.8462  -28.4896   19.8221 C   0  0  0  0  0  0  0  0  0  0  0  0
  -27.4047  -27.5324   19.9279 C   0  0  0  0  0  0  0  0  0  0  0  0
  -26.2034  -27.6166   22.6288 C   0  0  0  0  0  0  0  0  0  0  0  0
  -32.9057  -29.3907   20.6182 C   0  0  0  0  0  0  0  0  0  0  0  0
  -26.6517   -9.7064   17.3484 C   0  0  0  0  0  0  0  0  0  0  0  0
  -32.3195  -28.6341   21.8058 C   0  0  0  0  0  0  0  0  0  0  0  0
  -27.6847  -10.7898   17.6633 C   0  0  0  0  0  0  0  0  0  0  0  0
  -25.2499  -10.1164   17.7944 C   0  0  0  0  0  0  0  0  0  0  0  0
  -26.1775  -11.6089   19.5224 C   0  0  0  0  0  0  0  0  0  0  0  0
  -31.4906  -27.4313   21.3390 C   0  0  1  0  0  0  0  0  0  0  0  0
  -27.8713  -28.5299   20.9836 C   0  0  1  0  0  0  0  0  0  0  0  0
  -27.6156  -11.2176   19.1416 C   0  0  2  0  0  0  0  0  0  0  0  0
  -24.8967  -18.4972   23.0447 C   0  0  0  0  0  0  0  0  0  0  0  0
  -21.7007  -32.2442   23.8351 C   0  0  0  0  0  0  0  0  0  0  0  0
  -27.7569  -30.0327   25.3527 C   0  0  0  0  0  0  0  0  0  0  0  0
  -25.5667  -30.9800   26.1105 C   0  0  0  0  0  0  0  0  0  0  0  0
  -27.0179  -32.2857   24.5574 C   0  0  0  0  0  0  0  0  0  0  0  0
  -21.8038  -30.0781   20.7089 C   0  0  0  0  0  0  0  0  0  0  0  0
  -22.4453  -17.2826   22.0661 C   0  0  0  0  0  0  0  0  0  0  0  0
  -24.8486  -21.2911   23.8544 C   0  0  0  0  0  0  0  0  0  0  0  0
  -21.7964  -16.3398   23.0858 C   0  0  0  0  0  0  0  0  0  0  0  0
  -21.8059  -14.8742   22.6375 C   0  0  0  0  0  0  0  0  0  0  0  0
  -21.1771  -13.9676   23.6987 C   0  0  0  0  0  0  0  0  0  0  0  0
  -21.0956  -12.4986   23.2732 C   0  0  0  0  0  0  0  0  0  0  0  0
  -22.4652  -11.8550   23.0401 C   0  0  0  0  0  0  0  0  0  0  0  0
  -22.3231  -10.3804   22.6478 C   0  0  0  0  0  0  0  0  0  0  0  0
  -23.6688   -9.6831   22.4716 C   0  0  0  0  0  0  0  0  0  0  0  0
  -24.9164  -22.7778   23.4960 C   0  0  0  0  0  0  0  0  0  1  0  0
  -25.7920  -30.2509   23.6921 C   0  0  1  0  0  0  0  0  0  0  0  0
  -22.3609  -31.5061   22.6810 C   0  0  2  0  0  0  0  0  0  0  0  0
  -26.5343  -30.8630   24.9134 C   0  0  0  0  0  0  0  0  0  0  0  0
  -22.5077  -21.4061   23.2953 N   0  0  0  0  0  0  0  0  0  0  0  0
  -28.2069  -13.6020   19.3596 N   0  0  0  0  0  0  0  0  0  0  0  0
  -28.6083  -12.3228   19.4515 N   0  0  0  0  0  0  0  0  0  0  0  0
  -26.8582  -28.7814   22.0105 N   0  0  0  0  0  0  0  0  0  0  0  0
  -25.2530  -10.5090   19.2057 N   0  0  0  0  0  0  0  0  0  0  0  0
  -30.4768  -10.9620   19.9689 N   0  0  0  0  0  0  0  0  0  0  0  0
  -32.0609  -15.1566   20.5098 N   0  0  0  0  0  0  0  0  0  0  0  0
  -30.1952  -27.8650   20.8613 N   0  0  0  0  0  0  0  0  0  0  0  0
  -24.6459  -31.0307   23.2372 N   0  0  0  0  0  0  0  0  0  0  0  0
  -24.4750  -10.2739   21.4267 N   0  0  0  0  0  0  0  0  0  0  0  0
  -21.2979  -30.8246   21.8895 N   0  3  0  0  0  0  0  0  0  0  0  0
  -32.6090  -12.9321   20.6090 O   0  0  0  0  0  0  0  0  0  0  0  0
  -29.0980  -27.9431   22.9138 O   0  0  0  0  0  0  0  0  0  0  0  0
  -27.2285  -31.0833   21.9980 O   0  0  0  0  0  0  0  0  0  0  0  0
  -23.0738  -29.3455   23.4942 O   0  0  0  0  0  0  0  0  0  0  0  0
  -23.6464   -8.9320   19.7625 O   0  0  0  0  0  0  0  0  0  0  0  0
  -29.1987  -19.8786   19.7714 O   0  0  0  0  0  0  0  0  0  0  0  0
  -24.8809  -22.9294   22.0827 O   0  0  0  0  0  0  0  0  0  1  0  0
  -26.8040  -22.4643   15.5307 F   0  0  0  0  0  0  0  0  0  0  0  0
  -26.5354  -19.4477   19.1685 F   0  0  0  0  0  0  0  0  0  0  0  0
  -19.8052  -18.8673   21.8634 Cl  0  0  0  0  0  0  0  0  0  0  0  0
  1  2  1  0  0  0  0
  1  5  2  0  0  0  0
  2  6  2  0  0  0  0
  3  8  2  0  0  0  0
  3 16  1  0  0  0  0
  4  9  1  0  0  0  0
  4 16  2  0  0  0  0
  5 18  1  0  0  0  0
  6 20  1  0  0  0  0
  7 10  2  0  0  0  0
  7 19  1  0  0  0  0
  8 24  1  0  0  0  0
  9 24  2  0  0  0  0
 10 25  1  0  0  0  0
 11 12  2  0  0  0  0
 11 26  1  0  0  0  0
 12 27  1  0  0  0  0
 13 21  1  0  0  0  0
 13 25  2  0  0  0  0
 14 27  2  0  0  0  0
 14 28  1  0  0  0  0
 15 29  1  0  0  0  0
 15 69  2  0  0  0  0
 16 30  1  0  0  0  0
 17 30  1  0  0  0  0
 17 32  2  0  0  0  0
 17 33  1  0  0  0  0
 18 20  2  0  0  0  0
 18 38  1  0  0  0  0
 19 21  2  0  0  0  0
 19 39  1  0  0  0  0
 20 47  1  0  0  0  0
 21 40  1  0  0  0  0
 22 23  1  0  0  0  0
 22 29  2  0  0  0  0
 22 56  1  0  0  0  0
 23 31  2  0  0  0  0
 23 50  1  0  0  0  0
 24 85  1  0  0  0  0
 25 86  1  0  0  0  0
 26 28  2  0  0  0  0
 26 85  1  0  0  0  0
 27 87  1  0  0  0  0
 28 88  1  0  0  0  0
 29 89  1  0  0  0  0
 30 70  2  0  0  0  0
 31 57  1  0  0  0  0
 31 69  1  0  0  0  0
 32 71  1  0  0  0  0
 32 74  1  0  0  0  0
 33 75  1  0  0  0  0
 33 80  2  0  0  0  0
 34 48  1  0  0  0  0
 34 76  1  0  0  0  0
 34 81  2  0  0  0  0
 35 66  1  0  0  0  0
 35 72  1  0  0  0  0
 35 82  2  0  0  0  0
 36 67  1  0  0  0  0
 36 77  1  0  0  0  0
 36 83  2  0  0  0  0
 37 73  1  0  0  0  0
 37 78  1  0  0  0  0
 37 84  2  0  0  0  0
 38 41  1  0  0  0  0
 39 48  1  0  0  0  0
 40 72  1  0  0  0  0
 41 43  1  0  0  0  0
 42 44  1  0  0  0  0
 42 45  1  0  0  0  0
 43 47  1  0  0  0  0
 44 49  1  0  0  0  0
 45 73  1  0  0  0  0
 46 49  1  0  0  0  0
 46 73  1  0  0  0  0
 47 76  1  0  0  0  0
 48 72  1  0  0  0  0
 49 71  1  0  0  0  0
 51 67  1  0  0  0  0
 52 68  1  0  0  0  0
 53 68  1  0  0  0  0
 54 68  1  0  0  0  0
 55 79  1  0  0  0  0
 56 58  1  0  0  0  0
 57 65  1  0  0  0  0
 58 59  1  0  0  0  0
 59 60  1  0  0  0  0
 60 61  1  0  0  0  0
 61 62  1  0  0  0  0
 62 63  1  0  0  0  0
 63 64  1  0  0  0  0
 64 78  1  0  0  0  0
 65 86  1  0  0  0  0
 66 68  1  0  0  0  0
 66 77  1  0  0  0  0
 67 79  1  0  0  0  0
 70 71  1  0  0  0  0
M  CHG  1  79   1
M  ISO  4  37 100  65 101  78 100  86 101
M  END
> <Batch ID>
0033

> <Smiles>
CNC(C)C(=O)NC(C(=O)N1Cc2cc([101O:1][101CH2:1]Cc3ncc(Cl)c(CCCCCCCC[100NH:0][100C:0](=O)N4CCCC(n5nc(-c6ccc(Oc7ccc(F)cc7F)cc6)c(C(N)=O)c5N)C4)c3C)ccc2CC1C(=O)NC1CCCc2ccccc21)C(C)(C)C

> <Shape>
0.233

> <Color>
0.061

> <Negative vol penalty>
0.000

$$$$

  -OEChem-04052316483D

 93101  0     1  0  0  0  0  0999 V2000
  -30.1512  -38.9625   11.6799 C   0  0  0  0  0  0  0  0  0  0  0  0
  -29.2403  -37.9192   11.8115 C   0  0  0  0  0  0  0  0  0  0  0  0
  -23.0037   -9.8933   19.9788 C   0  0  0  0  0  0  0  0  0  0  0  0
  -23.7338   -9.9405   22.2813 C   0  0  0  0  0  0  0  0  0  0  0  0
  -31.3883  -38.8910   12.3191 C   0  0  0  0  0  0  0  0  0  0  0  0
  -29.5665  -36.8033   12.5815 C   0  0  0  0  0  0  0  0  0  0  0  0
  -25.7536  -33.4537   16.0090 C   0  0  0  0  0  0  0  0  0  0  0  0
  -22.2400   -8.7567   20.2442 C   0  0  0  0  0  0  0  0  0  0  0  0
  -22.9700   -8.8039   22.5468 C   0  0  0  0  0  0  0  0  0  0  0  0
  -25.1008  -32.2440   15.7765 C   0  0  0  0  0  0  0  0  0  0  0  0
  -23.2199   -5.4665   22.0669 C   0  0  0  0  0  0  0  0  0  0  0  0
  -23.8110   -4.4488   22.8155 C   0  0  0  0  0  0  0  0  0  0  0  0
  -26.8703  -31.0750   16.9261 C   0  0  0  0  0  0  0  0  0  0  0  0
  -23.2627  -26.3544   14.1461 C   0  0  0  0  0  0  0  0  0  0  0  0
  -22.0903   -4.6846   24.4950 C   0  0  0  0  0  0  0  0  0  0  0  0
  -23.7507  -10.4852   20.9973 C   0  0  0  0  0  0  0  0  0  0  0  0
  -24.1307  -13.0019   20.8261 C   0  0  0  0  0  0  0  0  0  0  0  0
  -31.7259  -37.7781   13.1051 C   0  0  0  0  0  0  0  0  0  0  0  0
  -26.9772  -33.4821   16.6935 C   0  0  0  0  0  0  0  0  0  0  0  0
  -30.8097  -36.7163   13.2307 C   0  0  0  0  0  0  0  0  0  0  0  0
  -27.5353  -32.2867   17.1683 C   0  0  0  0  0  0  0  0  0  0  0  0
  -23.7851  -27.6423   14.2642 C   0  0  0  0  0  0  0  0  0  0  0  0
  -22.1826  -25.9644   14.9380 C   0  0  0  0  0  0  0  0  0  0  0  0
  -23.2276  -28.5403   15.1744 C   0  0  0  0  0  0  0  0  0  0  0  0
  -22.1476  -28.1503   15.9665 C   0  0  0  0  0  0  0  0  0  0  0  0
  -22.2231   -8.2120   21.5283 C   0  0  0  0  0  0  0  0  0  0  0  0
  -25.6605  -31.0541   16.2325 C   0  0  0  0  0  0  0  0  0  0  0  0
  -22.0640   -6.0934   22.5324 C   0  0  0  0  0  0  0  0  0  0  0  0
  -23.2463   -4.0578   24.0295 C   0  0  0  0  0  0  0  0  0  0  0  0
  -21.4992   -5.7024   23.7464 C   0  0  0  0  0  0  0  0  0  0  0  0
  -21.6251  -26.8624   15.8483 C   0  0  0  0  0  0  0  0  0  0  0  0
  -24.5403  -11.6589   20.7236 C   0  0  0  0  0  0  0  0  0  0  0  0
  -25.2382  -13.7275   20.4609 C   0  0  0  0  0  0  0  0  0  0  0  0
  -22.8625  -13.5450   21.2166 C   0  0  0  0  0  0  0  0  0  0  0  0
  -29.9351  -34.3886   15.9637 C   0  0  0  0  0  0  0  0  0  0  0  0
  -30.4800  -33.7757   19.1022 C   0  0  0  0  0  0  0  0  0  0  0  0
  -29.5569  -32.1036   21.9304 C   0  0  0  0  0  0  0  0  0  0  0  0
  -30.7333  -14.6723   20.6995 C   0  0  0  0  0  0  0  0  0  0  0  0
  -33.0937  -37.7246   13.7384 C   0  0  0  0  0  0  0  0  0  0  0  0
  -27.6555  -34.7980   16.9596 C   0  0  0  0  0  0  0  0  0  0  0  0
  -28.8368  -32.2651   17.9261 C   0  0  0  0  0  0  0  0  0  0  0  0
  -33.2139  -36.6758   14.8410 C   0  0  0  0  0  0  0  0  0  0  0  0
  -29.5922  -12.2516   18.3511 C   0  0  0  0  0  0  0  0  0  0  0  0
  -32.6118  -35.3505   14.3850 C   0  0  0  0  0  0  0  0  0  0  0  0
  -28.1452  -11.9881   18.7713 C   0  0  0  0  0  0  0  0  0  0  0  0
  -30.4968  -12.4861   19.5589 C   0  0  0  0  0  0  0  0  0  0  0  0
  -28.5881  -13.2749   20.9036 C   0  0  0  0  0  0  0  0  0  0  0  0
  -31.1170  -35.5004   14.0775 C   0  0  1  0  0  0  0  0  0  0  0  0
  -29.1525  -34.6571   17.2179 C   0  0  1  0  0  0  0  0  0  0  0  0
  -27.6268  -13.0880   19.7173 C   0  0  2  0  0  0  0  0  0  0  0  0
  -24.9417  -28.0346   13.4047 C   0  0  0  0  0  0  0  0  0  0  0  0
  -21.5622  -29.1292   16.9370 C   0  0  0  0  0  0  0  0  0  0  0  0
  -30.2169  -31.7762   24.3293 C   0  0  0  0  0  0  0  0  0  0  0  0
  -32.7729  -31.9654   18.2217 C   0  0  0  0  0  0  0  0  0  0  0  0
  -32.7656  -30.9584   20.5139 C   0  0  0  0  0  0  0  0  0  0  0  0
  -33.2717  -33.3833   20.2205 C   0  0  0  0  0  0  0  0  0  0  0  0
  -26.9781  -33.1778   22.9074 C   0  0  0  0  0  0  0  0  0  0  0  0
  -21.6517  -24.5625   14.7758 C   0  0  0  0  0  0  0  0  0  0  0  0
  -23.7908  -29.9211   15.2963 C   0  0  0  0  0  0  0  0  0  1  0  0
  -22.1332  -23.5869   15.8577 C   0  0  0  0  0  0  0  0  0  0  0  0
  -28.8531  -19.4164   19.7149 C   0  0  0  0  0  0  0  0  0  0  0  0
  -27.3643  -19.7255   19.5407 C   0  0  0  0  0  0  0  0  0  0  0  0
  -29.0754  -18.3182   20.7569 C   0  0  0  0  0  0  0  0  0  0  0  0
  -27.1427  -20.7965   18.4704 C   0  0  0  0  0  0  0  0  0  0  0  0
  -30.5627  -17.9826   20.9011 C   0  0  0  0  0  0  0  0  0  0  0  0
  -25.6640  -21.0937   18.2070 C   0  0  0  0  0  0  0  0  0  0  0  0
  -30.8143  -16.8487   21.8894 C   0  0  0  0  0  0  0  0  0  0  0  0
  -23.6468  -23.4398   15.9800 C   0  0  0  0  0  0  0  0  0  0  0  0
  -25.4509  -22.1804   17.1624 C   0  0  0  0  0  0  0  0  0  0  0  0
  -30.9019  -32.5638   19.8972 C   0  0  1  0  0  0  0  0  0  0  0  0
  -29.3593  -32.5747   23.3599 C   0  0  2  0  0  0  0  0  0  0  0  0
  -32.4045  -32.2176   19.6974 C   0  0  0  0  0  0  0  0  0  0  0  0
  -25.8089  -11.5358   20.3244 N   0  0  0  0  0  0  0  0  0  0  0  0
  -26.2060  -12.8107   20.1727 N   0  0  0  0  0  0  0  0  0  0  0  0
  -29.4649  -33.5767   18.1557 N   0  0  0  0  0  0  0  0  0  0  0  0
  -29.9498  -13.5418   20.4146 N   0  0  0  0  0  0  0  0  0  0  0  0
  -25.4689  -15.0539   20.3613 N   0  0  0  0  0  0  0  0  0  0  0  0
  -21.8332  -12.6580   21.5604 N   0  0  0  0  0  0  0  0  0  0  0  0
  -30.3492  -35.5299   15.3038 N   0  0  0  0  0  0  0  0  0  0  0  0
  -30.5300  -32.8342   21.2818 N   0  0  0  0  0  0  0  0  0  0  0  0
  -30.1368  -15.6281   21.5128 N   0  0  0  0  0  0  0  0  0  0  0  0
  -27.9321  -32.4251   23.7620 N   0  3  0  0  0  0  0  0  0  0  0  0
  -23.9956  -22.4324   17.0184 N   0  3  0  0  0  0  0  0  0  0  0  0
  -22.6434  -14.7798   21.2436 O   0  0  0  0  0  0  0  0  0  0  0  0
  -30.1489  -33.2317   15.6209 O   0  0  0  0  0  0  0  0  0  0  0  0
  -31.0258  -34.8607   19.3181 O   0  0  0  0  0  0  0  0  0  0  0  0
  -28.9151  -31.1776   21.4395 O   0  0  0  0  0  0  0  0  0  0  0  0
  -31.8775  -14.8214   20.2573 O   0  0  0  0  0  0  0  0  0  0  0  0
  -21.4778   -7.1031   21.7877 O   0  0  0  0  0  0  0  0  0  0  0  0
  -25.0210  -29.8631   16.0047 O   0  0  0  0  0  0  0  0  0  1  0  0
  -23.8132   -3.0794   24.7475 F   0  0  0  0  0  0  0  0  0  0  0  0
  -20.3881   -6.3001   24.1982 F   0  0  0  0  0  0  0  0  0  0  0  0
  -20.2845  -26.3742   16.8309 Cl  0  0  0  0  0  0  0  0  0  0  0  0
  1  2  1  0  0  0  0
  1  5  2  0  0  0  0
  2  6  2  0  0  0  0
  3  8  2  0  0  0  0
  3 16  1  0  0  0  0
  4  9  1  0  0  0  0
  4 16  2  0  0  0  0
  5 18  1  0  0  0  0
  6 20  1  0  0  0  0
  7 10  2  0  0  0  0
  7 19  1  0  0  0  0
  8 26  1  0  0  0  0
  9 26  2  0  0  0  0
 10 27  1  0  0  0  0
 11 12  2  0  0  0  0
 11 28  1  0  0  0  0
 12 29  1  0  0  0  0
 13 21  1  0  0  0  0
 13 27  2  0  0  0  0
 14 22  2  0  0  0  0
 14 23  1  0  0  0  0
 15 29  2  0  0  0  0
 15 30  1  0  0  0  0
 16 32  1  0  0  0  0
 17 32  1  0  0  0  0
 17 33  2  0  0  0  0
 17 34  1  0  0  0  0
 18 20  2  0  0  0  0
 18 39  1  0  0  0  0
 19 21  2  0  0  0  0
 19 40  1  0  0  0  0
 20 48  1  0  0  0  0
 21 41  1  0  0  0  0
 22 24  1  0  0  0  0
 22 51  1  0  0  0  0
 23 31  2  0  0  0  0
 23 58  1  0  0  0  0
 24 25  2  0  0  0  0
 24 59  1  0  0  0  0
 25 31  1  0  0  0  0
 25 52  1  0  0  0  0
 26 89  1  0  0  0  0
 27 90  1  0  0  0  0
 28 30  2  0  0  0  0
 28 89  1  0  0  0  0
 29 91  1  0  0  0  0
 30 92  1  0  0  0  0
 31 93  1  0  0  0  0
 32 73  2  0  0  0  0
 33 74  1  0  0  0  0
 33 77  1  0  0  0  0
 34 78  1  0  0  0  0
 34 84  2  0  0  0  0
 35 49  1  0  0  0  0
 35 79  1  0  0  0  0
 35 85  2  0  0  0  0
 36 70  1  0  0  0  0
 36 75  1  0  0  0  0
 36 86  2  0  0  0  0
 37 71  1  0  0  0  0
 37 80  1  0  0  0  0
 37 87  2  0  0  0  0
 38 76  1  0  0  0  0
 38 81  1  0  0  0  0
 38 88  2  0  0  0  0
 39 42  1  0  0  0  0
 40 49  1  0  0  0  0
 41 75  1  0  0  0  0
 42 44  1  0  0  0  0
 43 45  1  0  0  0  0
 43 46  1  0  0  0  0
 44 48  1  0  0  0  0
 45 50  1  0  0  0  0
 46 76  1  0  0  0  0
 47 50  1  0  0  0  0
 47 76  1  0  0  0  0
 48 79  1  0  0  0  0
 49 75  1  0  0  0  0
 50 74  1  0  0  0  0
 53 71  1  0  0  0  0
 54 72  1  0  0  0  0
 55 72  1  0  0  0  0
 56 72  1  0  0  0  0
 57 82  1  0  0  0  0
 58 60  1  0  0  0  0
 59 90  1  0  0  0  0
 60 68  1  0  0  0  0
 61 62  1  0  0  0  0
 61 63  1  0  0  0  0
 62 64  1  0  0  0  0
 63 65  1  0  0  0  0
 64 66  1  0  0  0  0
 65 67  1  0  0  0  0
 66 69  1  0  0  0  0
 67 81  1  0  0  0  0
 68 83  1  0  0  0  0
 69 83  1  0  0  0  0
 70 72  1  0  0  0  0
 70 80  1  0  0  0  0
 71 82  1  0  0  0  0
 73 74  1  0  0  0  0
M  CHG  2  82   1  83   1
M  ISO  4  38 100  59 101  81 100  90 101
M  END
> <Batch ID>
0033

> <Smiles>
CNC(C)C(=O)NC(C(=O)N1Cc2cc([101O:1][101CH2:1]c3c(C)cc(CCCNCCCCCCCC[100NH:0][100C:0](=O)N4CCCC(n5nc(-c6ccc(Oc7ccc(F)cc7F)cc6)c(C(N)=O)c5N)C4)c(Cl)c3C)ccc2CC1C(=O)NC1CCCc2ccccc21)C(C)(C)C

> <Shape>
0.196

> <Color>
0.189

> <Negative vol penalty>
0.000

$$$$

  -OEChem-04052316483D

 86 94  0     1  0  0  0  0  0999 V2000
  -28.8411  -22.3518   35.2614 C   0  0  0  0  0  0  0  0  0  0  0  0
  -28.5312  -22.4639   33.9098 C   0  0  0  0  0  0  0  0  0  0  0  0
  -23.0724   -9.8701   19.9429 C   0  0  0  0  0  0  0  0  0  0  0  0
  -23.8351   -9.8782   22.2354 C   0  0  0  0  0  0  0  0  0  0  0  0
  -28.9911  -21.0916   35.8388 C   0  0  0  0  0  0  0  0  0  0  0  0
  -28.3722  -21.3159   33.1345 C   0  0  0  0  0  0  0  0  0  0  0  0
  -24.4778  -20.5313   28.4736 C   0  0  0  0  0  0  0  0  0  0  0  0
  -22.3290   -8.7170   20.1943 C   0  0  0  0  0  0  0  0  0  0  0  0
  -23.0916   -8.7251   22.4868 C   0  0  0  0  0  0  0  0  0  0  0  0
  -24.6419  -20.6077   27.0912 C   0  0  0  0  0  0  0  0  0  0  0  0
  -19.9442   -5.9765   20.3269 C   0  0  0  0  0  0  0  0  0  0  0  0
  -18.6379   -5.9281   19.8402 C   0  0  0  0  0  0  0  0  0  0  0  0
  -24.9463  -18.2164   27.0013 C   0  0  0  0  0  0  0  0  0  0  0  0
  -28.7305  -18.2152   22.2364 C   0  0  0  0  0  0  0  0  0  0  0  0
  -18.0742   -7.8716   21.1603 C   0  0  0  0  0  0  0  0  0  0  0  0
  -23.8256  -10.4507   20.9635 C   0  0  0  0  0  0  0  0  0  0  0  0
  -24.1670  -12.9758   20.8419 C   0  0  0  0  0  0  0  0  0  0  0  0
  -28.8243  -19.9274   35.0724 C   0  0  0  0  0  0  0  0  0  0  0  0
  -24.5578  -19.2962   29.1327 C   0  0  0  0  0  0  0  0  0  0  0  0
  -28.5214  -20.0389   33.7019 C   0  0  0  0  0  0  0  0  0  0  0  0
  -24.7804  -18.1267   28.3918 C   0  0  0  0  0  0  0  0  0  0  0  0
  -29.9431  -17.7636   22.7455 C   0  0  0  0  0  0  0  0  0  0  0  0
  -30.3294  -18.1266   24.0309 C   0  0  0  0  0  0  0  0  0  0  0  0
  -22.3385   -8.1445   21.4662 C   0  0  0  0  0  0  0  0  0  0  0  0
  -24.8791  -19.4505   26.3552 C   0  0  0  0  0  0  0  0  0  0  0  0
  -20.3155   -6.9723   21.2303 C   0  0  0  0  0  0  0  0  0  0  0  0
  -17.7029   -6.8757   20.2569 C   0  0  0  0  0  0  0  0  0  0  0  0
  -19.3805   -7.9199   21.6470 C   0  0  0  0  0  0  0  0  0  0  0  0
  -24.5942  -11.6415   20.7042 C   0  0  0  0  0  0  0  0  0  0  0  0
  -27.9468  -19.0210   23.0465 C   0  0  0  0  0  0  0  0  0  0  0  0
  -29.4742  -18.9366   24.7606 C   0  0  0  0  0  0  0  0  0  0  0  0
  -25.2586  -13.7252   20.4769 C   0  0  0  0  0  0  0  0  0  0  0  0
  -22.8970  -13.4917   21.2622 C   0  0  0  0  0  0  0  0  0  0  0  0
  -26.4616  -18.0601   31.3578 C   0  0  0  0  0  0  0  0  0  0  0  0
  -24.3671  -15.5870   31.2215 C   0  0  0  0  0  0  0  0  0  0  0  0
  -22.0324  -13.8632   29.4258 C   0  0  0  0  0  0  0  0  0  0  0  0
  -30.7425  -14.7448   20.6581 C   0  0  0  0  0  0  0  0  0  0  0  0
  -29.0429  -18.5879   35.7300 C   0  0  0  0  0  0  0  0  0  0  0  0
  -24.3520  -19.2274   30.6211 C   0  0  0  0  0  0  0  0  0  0  0  0
  -24.8550  -16.7736   29.0492 C   0  0  0  0  0  0  0  0  0  0  0  0
  -28.4889  -17.4159   34.9239 C   0  0  0  0  0  0  0  0  0  0  0  0
  -29.6022  -12.3592   18.2738 C   0  0  0  0  0  0  0  0  0  0  0  0
  -28.8909  -17.5390   33.4576 C   0  0  0  0  0  0  0  0  0  0  0  0
  -28.1653  -12.0655   18.7086 C   0  0  0  0  0  0  0  0  0  0  0  0
  -30.5208  -12.5806   19.4734 C   0  0  0  0  0  0  0  0  0  0  0  0
  -28.6207  -13.3121   20.8621 C   0  0  0  0  0  0  0  0  0  0  0  0
  -28.3166  -18.8166   32.8335 C   0  0  1  0  0  0  0  0  0  0  0  0
  -24.9649  -17.9810   31.2521 C   0  0  1  0  0  0  0  0  0  0  0  0
  -27.6451  -13.1369   19.6857 C   0  0  2  0  0  0  0  0  0  0  0  0
  -31.5598  -16.2005   25.0616 C   0  0  0  0  0  0  0  0  0  0  0  0
  -28.9970  -20.3670   28.3146 C   0  0  0  0  0  0  0  0  0  0  0  0
  -20.5221  -11.8640   29.5648 C   0  0  0  0  0  0  0  0  0  0  0  0
  -26.7587  -13.7507   30.7545 C   0  0  0  0  0  0  0  0  0  0  0  0
  -25.1635  -11.9883   29.9686 C   0  0  0  0  0  0  0  0  0  0  0  0
  -25.0288  -12.8350   32.3112 C   0  0  0  0  0  0  0  0  0  0  0  0
  -19.6062  -15.5295   29.1163 C   0  0  0  0  0  0  0  0  0  0  0  0
  -31.6234  -17.6553   24.6042 C   0  0  0  0  0  0  0  0  0  0  0  0
  -30.8097  -16.8959   21.8939 C   0  0  0  0  0  0  0  0  0  0  0  0
  -26.6248  -19.5283   22.5283 C   0  0  0  0  0  0  0  0  0  0  0  0
  -29.8339  -19.3586   26.1477 C   0  0  0  0  0  0  0  0  0  0  0  0
  -28.6377  -19.9690   26.8918 C   0  0  0  0  0  0  0  0  0  0  0  0
  -25.4475  -18.5983   22.8294 C   0  0  0  0  0  0  0  0  0  0  0  0
  -25.2802  -18.2973   24.3143 C   0  0  0  0  0  0  0  0  0  1  0  0
  -24.2633  -14.3173   30.4115 C   0  0  1  0  0  0  0  0  0  0  0  0
  -20.6473  -13.3623   29.7931 C   0  0  2  0  0  0  0  0  0  0  0  0
  -25.3041  -13.2484   30.8490 C   0  0  0  0  0  0  0  0  0  0  0  0
  -25.8586  -11.5456   20.2844 N   0  0  0  0  0  0  0  0  0  0  0  0
  -28.2886  -19.3947   24.2999 N   0  0  0  0  0  0  0  0  0  0  0  0
  -26.2352  -12.8291   20.1551 N   0  0  0  0  0  0  0  0  0  0  0  0
  -24.6535  -16.7591   30.5075 N   0  0  0  0  0  0  0  0  0  0  0  0
  -29.9712  -13.6095   20.3596 N   0  0  0  0  0  0  0  0  0  0  0  0
  -25.4688  -15.0567   20.4031 N   0  0  0  0  0  0  0  0  0  0  0  0
  -21.8856  -12.5826   21.6011 N   0  0  0  0  0  0  0  0  0  0  0  0
  -26.9130  -18.6425   32.5269 N   0  0  0  0  0  0  0  0  0  0  0  0
  -22.8759  -13.8785   30.5165 N   0  0  0  0  0  0  0  0  0  0  0  0
  -30.1443  -15.6740   21.5005 N   0  0  0  0  0  0  0  0  0  0  0  0
  -19.6125  -14.0511   28.9710 N   0  3  0  0  0  0  0  0  0  0  0  0
  -22.6607  -14.7223   21.3192 O   0  0  0  0  0  0  0  0  0  0  0  0
  -27.1556  -17.6238   30.4470 O   0  0  0  0  0  0  0  0  0  0  0  0
  -24.1931  -15.5416   32.4419 O   0  0  0  0  0  0  0  0  0  0  0  0
  -22.3369  -14.2031   28.2846 O   0  0  0  0  0  0  0  0  0  0  0  0
  -31.8779  -14.9202   20.2030 O   0  0  0  0  0  0  0  0  0  0  0  0
  -21.6130   -7.0194   21.7120 O   0  0  0  0  0  0  0  0  0  0  0  0
  -25.0402  -19.5223   25.0059 O   0  0  0  0  0  0  0  0  0  1  0  0
  -16.4489   -6.8301   19.7882 F   0  0  0  0  0  0  0  0  0  0  0  0
  -19.7317   -8.8796   22.5138 F   0  0  0  0  0  0  0  0  0  0  0  0
  1  2  1  0  0  0  0
  1  5  2  0  0  0  0
  2  6  2  0  0  0  0
  3  8  2  0  0  0  0
  3 16  1  0  0  0  0
  4  9  1  0  0  0  0
  4 16  2  0  0  0  0
  5 18  1  0  0  0  0
  6 20  1  0  0  0  0
  7 10  2  0  0  0  0
  7 19  1  0  0  0  0
  8 24  1  0  0  0  0
  9 24  2  0  0  0  0
 10 25  1  0  0  0  0
 11 12  2  0  0  0  0
 11 26  1  0  0  0  0
 12 27  1  0  0  0  0
 13 21  1  0  0  0  0
 13 25  2  0  0  0  0
 14 22  2  0  0  0  0
 14 30  1  0  0  0  0
 15 27  2  0  0  0  0
 15 28  1  0  0  0  0
 16 29  1  0  0  0  0
 17 29  1  0  0  0  0
 17 32  2  0  0  0  0
 17 33  1  0  0  0  0
 18 20  2  0  0  0  0
 18 38  1  0  0  0  0
 19 21  2  0  0  0  0
 19 39  1  0  0  0  0
 20 47  1  0  0  0  0
 21 40  1  0  0  0  0
 22 23  1  0  0  0  0
 22 58  1  0  0  0  0
 23 31  2  0  0  0  0
 23 57  1  0  0  0  0
 24 83  1  0  0  0  0
 25 84  1  0  0  0  0
 26 28  2  0  0  0  0
 26 83  1  0  0  0  0
 27 85  1  0  0  0  0
 28 86  1  0  0  0  0
 29 67  2  0  0  0  0
 30 59  1  0  0  0  0
 30 68  2  0  0  0  0
 31 60  1  0  0  0  0
 31 68  1  0  0  0  0
 32 69  1  0  0  0  0
 32 72  1  0  0  0  0
 33 73  1  0  0  0  0
 33 78  2  0  0  0  0
 34 48  1  0  0  0  0
 34 74  1  0  0  0  0
 34 79  2  0  0  0  0
 35 64  1  0  0  0  0
 35 70  1  0  0  0  0
 35 80  2  0  0  0  0
 36 65  1  0  0  0  0
 36 75  1  0  0  0  0
 36 81  2  0  0  0  0
 37 71  1  0  0  0  0
 37 76  1  0  0  0  0
 37 82  2  0  0  0  0
 38 41  1  0  0  0  0
 39 48  1  0  0  0  0
 40 70  1  0  0  0  0
 41 43  1  0  0  0  0
 42 44  1  0  0  0  0
 42 45  1  0  0  0  0
 43 47  1  0  0  0  0
 44 49  1  0  0  0  0
 45 71  1  0  0  0  0
 46 49  1  0  0  0  0
 46 71  1  0  0  0  0
 47 74  1  0  0  0  0
 48 70  1  0  0  0  0
 49 69  1  0  0  0  0
 50 57  1  0  0  0  0
 51 61  1  0  0  0  0
 52 65  1  0  0  0  0
 53 66  1  0  0  0  0
 54 66  1  0  0  0  0
 55 66  1  0  0  0  0
 56 77  1  0  0  0  0
 58 76  1  0  0  0  0
 59 62  1  0  0  0  0
 60 61  1  0  0  0  0
 62 63  1  0  0  0  0
 63 84  1  0  0  0  0
 64 66  1  0  0  0  0
 64 75  1  0  0  0  0
 65 77  1  0  0  0  0
 67 69  1  0  0  0  0
M  CHG  1  77   1
M  ISO  4  37 100  63 101  76 100  84 101
M  END
> <Batch ID>
0033

> <Smiles>
CCCc1nc(CC[101CH2:1][101O:1]c2ccc3c(c2)CN(C(=O)C(NC(=O)C(C)NC)C(C)(C)C)C(C(=O)NC2CCCc4ccccc42)C3)cc(C[100NH:0][100C:0](=O)N2CCCC(n3nc(-c4ccc(Oc5ccc(F)cc5F)cc4)c(C(N)=O)c3N)C2)c1CC

> <Shape>
0.147

> <Color>
0.187

> <Negative vol penalty>
0.000

$$$$

  -OEChem-04052316483D

 83 91  0     1  0  0  0  0  0999 V2000
  -21.0651  -30.9750   22.1559 C   0  0  0  0  0  0  0  0  0  0  0  0
  -20.8631  -30.0210   21.1637 C   0  0  0  0  0  0  0  0  0  0  0  0
  -28.4910  -12.5173   19.9285 C   0  0  0  0  0  0  0  0  0  0  0  0
  -28.1814  -14.7764   20.7268 C   0  0  0  0  0  0  0  0  0  0  0  0
  -22.3570  -31.4066   22.4537 C   0  0  0  0  0  0  0  0  0  0  0  0
  -21.9529  -29.4987   20.4680 C   0  0  0  0  0  0  0  0  0  0  0  0
  -22.5785  -23.7830   18.3597 C   0  0  0  0  0  0  0  0  0  0  0  0
  -29.8619  -12.7465   19.8114 C   0  0  0  0  0  0  0  0  0  0  0  0
  -29.5523  -15.0056   20.6098 C   0  0  0  0  0  0  0  0  0  0  0  0
  -22.3834  -23.2218   17.0984 C   0  0  0  0  0  0  0  0  0  0  0  0
  -32.9209  -16.3011   20.1801 C   0  0  0  0  0  0  0  0  0  0  0  0
  -33.3302  -17.4993   19.5951 C   0  0  0  0  0  0  0  0  0  0  0  0
  -24.7394  -23.4560   16.6364 C   0  0  0  0  0  0  0  0  0  0  0  0
  -32.1708  -16.9024   17.5613 C   0  0  0  0  0  0  0  0  0  0  0  0
  -20.2707  -19.0306   13.3013 C   0  0  0  0  0  0  0  0  0  0  0  0
  -20.3785  -19.2082   15.5310 C   0  0  0  0  0  0  0  0  0  0  0  0
  -27.6507  -13.5323   20.3861 C   0  0  0  0  0  0  0  0  0  0  0  0
  -25.5474  -12.8044   21.6328 C   0  0  0  0  0  0  0  0  0  0  0  0
  -23.4640  -30.8823   21.7679 C   0  0  0  0  0  0  0  0  0  0  0  0
  -23.8558  -24.1956   18.7653 C   0  0  0  0  0  0  0  0  0  0  0  0
  -23.2607  -29.9247   20.7559 C   0  0  0  0  0  0  0  0  0  0  0  0
  -24.9485  -24.0198   17.9043 C   0  0  0  0  0  0  0  0  0  0  0  0
  -19.6968  -17.8967   13.8324 C   0  0  0  0  0  0  0  0  0  0  0  0
  -19.7651  -18.0090   15.2431 C   0  0  0  0  0  0  0  0  0  0  0  0
  -30.3926  -13.9906   20.1521 C   0  0  0  0  0  0  0  0  0  0  0  0
  -23.4634  -23.0610   16.2354 C   0  0  0  0  0  0  0  0  0  0  0  0
  -32.1365  -15.4034   19.4557 C   0  0  0  0  0  0  0  0  0  0  0  0
  -32.9552  -17.8000   18.2857 C   0  0  0  0  0  0  0  0  0  0  0  0
  -31.7615  -15.7041   18.1463 C   0  0  0  0  0  0  0  0  0  0  0  0
  -26.2345  -13.2963   20.5067 C   0  0  0  0  0  0  0  0  0  0  0  0
  -24.2316  -12.7633   21.2412 C   0  0  0  0  0  0  0  0  0  0  0  0
  -26.0535  -12.4192   22.9178 C   0  0  0  0  0  0  0  0  0  0  0  0
  -25.1577  -26.9746   19.5936 C   0  0  0  0  0  0  0  0  0  0  0  0
  -27.7243  -25.1191   20.2948 C   0  0  0  0  0  0  0  0  0  0  0  0
  -29.4264  -22.2087   19.7662 C   0  0  0  0  0  0  0  0  0  0  0  0
  -21.2309  -15.8535   17.2037 C   0  0  0  0  0  0  0  0  0  0  0  0
  -24.8375  -31.4144   22.0922 C   0  0  0  0  0  0  0  0  0  0  0  0
  -24.0541  -24.7745   20.1393 C   0  0  0  0  0  0  0  0  0  0  0  0
  -26.3434  -24.4277   18.2998 C   0  0  0  0  0  0  0  0  0  0  0  0
  -25.9704  -30.5364   21.5670 C   0  0  0  0  0  0  0  0  0  0  0  0
  -21.4976  -12.2471   17.3468 C   0  0  0  0  0  0  0  0  0  0  0  0
  -25.7089  -30.1373   20.1182 C   0  0  0  0  0  0  0  0  0  0  0  0
  -22.6887  -12.0674   18.2899 C   0  0  0  0  0  0  0  0  0  0  0  0
  -21.6957  -13.4500   16.4292 C   0  0  0  0  0  0  0  0  0  0  0  0
  -23.1489  -14.5546   18.0850 C   0  0  0  0  0  0  0  0  0  0  0  0
  -24.4195  -29.3163   19.9962 C   0  0  1  0  0  0  0  0  0  0  0  0
  -25.3110  -25.6321   20.2507 C   0  0  1  0  0  0  0  0  0  0  0  0
  -22.9993  -13.3680   19.0543 C   0  0  2  0  0  0  0  0  0  0  0  0
  -19.1185  -16.7773   13.0628 C   0  0  0  0  0  0  0  0  0  0  0  0
  -31.5109  -20.9928   20.4545 C   0  0  0  0  0  0  0  0  0  0  0  0
  -23.8155  -20.2842   14.3352 C   0  0  0  0  0  0  0  0  0  0  0  0
  -29.3824  -26.9557   18.5094 C   0  0  0  0  0  0  0  0  0  0  0  0
  -31.1623  -25.1954   18.4701 C   0  0  0  0  0  0  0  0  0  0  0  0
  -30.5134  -26.2626   20.6295 C   0  0  0  0  0  0  0  0  0  0  0  0
  -21.5840  -21.6272   12.7272 C   0  0  0  0  0  0  0  0  0  0  0  0
  -20.4536  -22.2698   14.8303 C   0  0  0  0  0  0  0  0  0  0  0  0
  -27.8776  -19.9492   20.8865 C   0  0  0  0  0  0  0  0  0  0  0  0
  -19.2737  -17.0291   16.2318 C   0  0  0  0  0  0  0  0  0  0  0  0
  -28.9293  -24.6277   19.5296 C   0  0  1  0  0  0  0  0  0  0  0  0
  -30.0308  -21.2056   20.7320 C   0  0  2  0  0  0  0  0  0  0  0  0
  -22.7495  -21.1886   14.9546 C   0  0  2  0  0  0  0  0  0  1  0  0
  -29.9703  -25.7543   19.2762 C   0  0  0  0  0  0  0  0  0  0  0  0
  -21.3756  -21.1908   14.2004 C   0  0  0  0  0  0  0  0  0  0  0  0
  -25.4222  -13.5494   19.4771 N   0  0  0  0  0  0  0  0  0  0  0  0
  -20.6812  -19.8208   14.3431 N   0  0  0  0  0  0  0  0  0  0  0  0
  -24.2112  -13.2151   19.9545 N   0  0  0  0  0  0  0  0  0  0  0  0
  -26.4850  -24.9947   19.6510 N   0  0  0  0  0  0  0  0  0  0  0  0
  -21.9691  -14.6584   17.2197 N   0  0  0  0  0  0  0  0  0  0  0  0
  -23.1015  -12.3851   21.8755 N   0  0  0  0  0  0  0  0  0  0  0  0
  -27.4313  -12.5243   23.1522 N   0  0  0  0  0  0  0  0  0  0  0  0
  -24.6461  -27.9527   20.4248 N   0  0  0  0  0  0  0  0  0  0  0  0
  -29.4513  -23.4890   20.2775 N   0  0  0  0  0  0  0  0  0  0  0  0
  -20.1328  -15.8722   16.3524 N   0  0  0  0  0  0  0  0  0  0  0  0
  -29.3372  -19.8917   20.6157 N   0  3  0  0  0  0  0  0  0  0  0  0
  -25.3081  -11.9788   23.8255 O   0  0  0  0  0  0  0  0  0  0  0  0
  -25.4810  -27.1131   18.4197 O   0  0  0  0  0  0  0  0  0  0  0  0
  -27.8762  -25.5892   21.4251 O   0  0  0  0  0  0  0  0  0  0  0  0
  -28.9804  -21.8891   18.6664 O   0  0  0  0  0  0  0  0  0  0  0  0
  -21.5253  -16.8304   17.9008 O   0  0  0  0  0  0  0  0  0  0  0  0
  -31.7303  -14.2146   20.0382 O   0  0  0  0  0  0  0  0  0  0  0  0
  -23.2757  -22.5141   15.0035 O   0  0  0  0  0  0  0  0  0  1  0  0
  -33.3471  -18.9514   17.7246 F   0  0  0  0  0  0  0  0  0  0  0  0
  -31.0070  -14.8463   17.4458 F   0  0  0  0  0  0  0  0  0  0  0  0
  1  2  1  0  0  0  0
  1  5  2  0  0  0  0
  2  6  2  0  0  0  0
  3  8  2  0  0  0  0
  3 17  1  0  0  0  0
  4  9  1  0  0  0  0
  4 17  2  0  0  0  0
  5 19  1  0  0  0  0
  6 21  1  0  0  0  0
  7 10  2  0  0  0  0
  7 20  1  0  0  0  0
  8 25  1  0  0  0  0
  9 25  2  0  0  0  0
 10 26  1  0  0  0  0
 11 12  2  0  0  0  0
 11 27  1  0  0  0  0
 12 28  1  0  0  0  0
 13 22  1  0  0  0  0
 13 26  2  0  0  0  0
 14 28  2  0  0  0  0
 14 29  1  0  0  0  0
 15 23  2  0  0  0  0
 15 65  1  0  0  0  0
 16 24  2  0  0  0  0
 16 65  1  0  0  0  0
 17 30  1  0  0  0  0
 18 30  1  0  0  0  0
 18 31  2  0  0  0  0
 18 32  1  0  0  0  0
 19 21  2  0  0  0  0
 19 37  1  0  0  0  0
 20 22  2  0  0  0  0
 20 38  1  0  0  0  0
 21 46  1  0  0  0  0
 22 39  1  0  0  0  0
 23 24  1  0  0  0  0
 23 49  1  0  0  0  0
 24 58  1  0  0  0  0
 25 80  1  0  0  0  0
 26 81  1  0  0  0  0
 27 29  2  0  0  0  0
 27 80  1  0  0  0  0
 28 82  1  0  0  0  0
 29 83  1  0  0  0  0
 30 64  2  0  0  0  0
 31 66  1  0  0  0  0
 31 69  1  0  0  0  0
 32 70  1  0  0  0  0
 32 75  2  0  0  0  0
 33 47  1  0  0  0  0
 33 71  1  0  0  0  0
 33 76  2  0  0  0  0
 34 59  1  0  0  0  0
 34 67  1  0  0  0  0
 34 77  2  0  0  0  0
 35 60  1  0  0  0  0
 35 72  1  0  0  0  0
 35 78  2  0  0  0  0
 36 68  1  0  0  0  0
 36 73  1  0  0  0  0
 36 79  2  0  0  0  0
 37 40  1  0  0  0  0
 38 47  1  0  0  0  0
 39 67  1  0  0  0  0
 40 42  1  0  0  0  0
 41 43  1  0  0  0  0
 41 44  1  0  0  0  0
 42 46  1  0  0  0  0
 43 48  1  0  0  0  0
 44 68  1  0  0  0  0
 45 48  1  0  0  0  0
 45 68  1  0  0  0  0
 46 71  1  0  0  0  0
 47 67  1  0  0  0  0
 48 66  1  0  0  0  0
 50 60  1  0  0  0  0
 51 61  1  0  0  0  0
 52 62  1  0  0  0  0
 53 62  1  0  0  0  0
 54 62  1  0  0  0  0
 55 63  1  0  0  0  0
 56 63  1  0  0  0  0
 57 74  1  0  0  0  0
 58 73  1  0  0  0  0
 59 62  1  0  0  0  0
 59 72  1  0  0  0  0
 60 74  1  0  0  0  0
 61 63  1  0  0  0  0
 61 81  1  0  0  0  0
 63 65  1  0  0  0  0
 64 66  1  0  0  0  0
M  CHG  1  74   1
M  ISO  4  36 100  61 101  73 100  81 101
M  END
> <Batch ID>
0033

> <Smiles>
CNC(C)C(=O)NC(C(=O)N1Cc2cc([101O:1][101CH:1](C)C(C)(C)n3cc(C)c(C[100NH:0][100C:0](=O)N4CCCC(n5nc(-c6ccc(Oc7ccc(F)cc7F)cc6)c(C(N)=O)c5N)C4)c3)ccc2CC1C(=O)NC1CCCc2ccccc21)C(C)(C)C

> <Shape>
0.201

> <Color>
0.066

> <Negative vol penalty>
0.000

$$$$

  -OEChem-04052316483D

 82 90  0     1  0  0  0  0  0999 V2000
  -25.1057  -21.8433   14.0849 C   0  0  0  0  0  0  0  0  0  0  0  0
  -24.5316  -22.8402   14.8672 C   0  0  0  0  0  0  0  0  0  0  0  0
  -27.2204  -14.7669   20.0091 C   0  0  0  0  0  0  0  0  0  0  0  0
  -26.4290  -14.5432   22.2808 C   0  0  0  0  0  0  0  0  0  0  0  0
  -26.1877  -21.1121   14.5732 C   0  0  0  0  0  0  0  0  0  0  0  0
  -25.0386  -23.1058   16.1388 C   0  0  0  0  0  0  0  0  0  0  0  0
  -25.3597  -28.5580   18.9094 C   0  0  0  0  0  0  0  0  0  0  0  0
  -26.8564  -13.4452   19.7521 C   0  0  0  0  0  0  0  0  0  0  0  0
  -26.0650  -13.2214   22.0238 C   0  0  0  0  0  0  0  0  0  0  0  0
  -24.5468  -29.1776   19.8575 C   0  0  0  0  0  0  0  0  0  0  0  0
  -23.5256  -11.5893   20.5045 C   0  0  0  0  0  0  0  0  0  0  0  0
  -22.2767  -11.1632   20.9562 C   0  0  0  0  0  0  0  0  0  0  0  0
  -26.0121  -28.4039   21.6106 C   0  0  0  0  0  0  0  0  0  0  0  0
  -20.6163  -25.6047   22.1149 C   0  0  0  0  0  0  0  0  0  0  0  0
  -23.3442   -9.4742   22.3145 C   0  0  0  0  0  0  0  0  0  0  0  0
  -22.6789  -26.4049   22.5337 C   0  0  0  0  0  0  0  0  0  0  0  0
  -27.0067  -15.3160   21.2735 C   0  0  0  0  0  0  0  0  0  0  0  0
  -28.6713  -17.2412   21.4476 C   0  0  0  0  0  0  0  0  0  0  0  0
  -26.7144  -21.3753   15.8475 C   0  0  0  0  0  0  0  0  0  0  0  0
  -26.5009  -27.8462   19.3063 C   0  0  0  0  0  0  0  0  0  0  0  0
  -26.1279  -22.3765   16.6451 C   0  0  0  0  0  0  0  0  0  0  0  0
  -26.8392  -27.7783   20.6654 C   0  0  0  0  0  0  0  0  0  0  0  0
  -21.9998  -25.3867   21.9017 C   0  0  0  0  0  0  0  0  0  0  0  0
  -26.2787  -12.6724   20.7594 C   0  0  0  0  0  0  0  0  0  0  0  0
  -24.8713  -29.0982   21.2086 C   0  0  0  0  0  0  0  0  0  0  0  0
  -24.6839  -10.9579   20.9577 C   0  0  0  0  0  0  0  0  0  0  0  0
  -22.1859  -10.1056   21.8612 C   0  0  0  0  0  0  0  0  0  0  0  0
  -24.5932   -9.9004   21.8627 C   0  0  0  0  0  0  0  0  0  0  0  0
  -27.3830  -16.6811   21.5397 C   0  0  0  0  0  0  0  0  0  0  0  0
  -20.4920  -26.7496   22.8706 C   0  0  0  0  0  0  0  0  0  0  0  0
  -28.4992  -18.5578   21.7992 C   0  0  0  0  0  0  0  0  0  0  0  0
  -29.9125  -16.6265   21.0772 C   0  0  0  0  0  0  0  0  0  0  0  0
  -27.4482  -24.8203   19.0817 C   0  0  0  0  0  0  0  0  0  0  0  0
  -30.2073  -26.0006   20.3131 C   0  0  0  0  0  0  0  0  0  0  0  0
  -31.7610  -28.4377   22.1279 C   0  0  0  0  0  0  0  0  0  0  0  0
  -23.8127  -22.1340   21.4799 C   0  0  0  0  0  0  0  0  0  0  0  0
  -27.8550  -20.5267   16.3511 C   0  0  0  0  0  0  0  0  0  0  0  0
  -27.3821  -27.2060   18.2690 C   0  0  0  0  0  0  0  0  0  0  0  0
  -28.0647  -27.0435   21.1417 C   0  0  0  0  0  0  0  0  0  0  0  0
  -28.5710  -21.1237   17.5598 C   0  0  0  0  0  0  0  0  0  0  0  0
  -25.7110  -21.3871   24.4692 C   0  0  0  0  0  0  0  0  0  0  0  0
  -27.5596  -21.6059   18.5950 C   0  0  0  0  0  0  0  0  0  0  0  0
  -26.4809  -20.1380   24.0363 C   0  0  0  0  0  0  0  0  0  0  0  0
  -24.2994  -21.3946   23.8901 C   0  0  0  0  0  0  0  0  0  0  0  0
  -25.0101  -20.0206   21.9717 C   0  0  0  0  0  0  0  0  0  0  0  0
  -26.6654  -22.7108   18.0196 C   0  0  1  0  0  0  0  0  0  0  0  0
  -28.2376  -26.0735   18.8284 C   0  0  1  0  0  0  0  0  0  0  0  0
  -26.4528  -19.9647   22.5062 C   0  0  2  0  0  0  0  0  0  0  0  0
  -18.8510  -26.9250   24.7582 C   0  0  0  0  0  0  0  0  0  0  0  0
  -33.6529  -29.7274   23.1549 C   0  0  0  0  0  0  0  0  0  0  0  0
  -30.0059  -23.8650   22.4831 C   0  0  0  0  0  0  0  0  0  0  0  0
  -31.6904  -25.1554   23.8118 C   0  0  0  0  0  0  0  0  0  0  0  0
  -32.3115  -24.2233   21.5829 C   0  0  0  0  0  0  0  0  0  0  0  0
  -32.0854  -30.1124   19.7095 C   0  0  0  0  0  0  0  0  0  0  0  0
  -22.6033  -24.2744   21.1433 C   0  0  0  0  0  0  0  0  0  0  0  0
  -19.2788  -27.4255   23.3751 C   0  0  0  0  0  0  0  0  0  0  0  0
  -21.8970  -29.7676   23.1312 C   0  0  0  0  0  0  0  0  0  0  0  0
  -22.0872  -28.4654   23.9122 C   0  0  0  0  0  0  0  0  0  0  0  0
  -22.6899  -29.8129   21.8302 C   0  0  0  0  0  0  0  0  0  1  0  0
  -30.7533  -26.2106   21.7048 C   0  0  1  0  0  0  0  0  0  0  0  0
  -33.0167  -29.2475   21.8597 C   0  0  2  0  0  0  0  0  0  0  0  0
  -31.1660  -24.8759   22.3871 C   0  0  0  0  0  0  0  0  0  0  0  0
  -26.4607  -17.5691   21.9202 N   0  0  0  0  0  0  0  0  0  0  0  0
  -21.7522  -27.2276   23.1190 N   0  0  0  0  0  0  0  0  0  0  0  0
  -27.1702  -18.7005   22.0704 N   0  0  0  0  0  0  0  0  0  0  0  0
  -28.8910  -26.4288   20.0898 N   0  0  0  0  0  0  0  0  0  0  0  0
  -24.3438  -21.2447   22.4287 N   0  0  0  0  0  0  0  0  0  0  0  0
  -29.3566  -19.5956   21.8999 N   0  0  0  0  0  0  0  0  0  0  0  0
  -30.7003  -16.0523   22.0841 N   0  0  0  0  0  0  0  0  0  0  0  0
  -27.3744  -23.9722   17.9933 N   0  0  0  0  0  0  0  0  0  0  0  0
  -31.8390  -27.1765   21.5759 N   0  0  0  0  0  0  0  0  0  0  0  0
  -23.1920  -23.2653   21.9954 N   0  0  0  0  0  0  0  0  0  0  0  0
  -32.6959  -30.4389   21.0239 N   0  3  0  0  0  0  0  0  0  0  0  0
  -30.3189  -16.6020   19.8907 O   0  0  0  0  0  0  0  0  0  0  0  0
  -26.9446  -24.6358   20.1836 O   0  0  0  0  0  0  0  0  0  0  0  0
  -30.9249  -25.4825   19.4538 O   0  0  0  0  0  0  0  0  0  0  0  0
  -30.8080  -28.8784   22.7667 O   0  0  0  0  0  0  0  0  0  0  0  0
  -23.8905  -21.9373   20.2624 O   0  0  0  0  0  0  0  0  0  0  0  0
  -25.9232  -11.3827   20.5090 O   0  0  0  0  0  0  0  0  0  0  0  0
  -24.0792  -29.7016   22.1362 O   0  0  0  0  0  0  0  0  0  1  0  0
  -20.9866   -9.6975   22.2960 F   0  0  0  0  0  0  0  0  0  0  0  0
  -25.7025   -9.2906   22.3027 F   0  0  0  0  0  0  0  0  0  0  0  0
  1  2  1  0  0  0  0
  1  5  2  0  0  0  0
  2  6  2  0  0  0  0
  3  8  2  0  0  0  0
  3 17  1  0  0  0  0
  4  9  1  0  0  0  0
  4 17  2  0  0  0  0
  5 19  1  0  0  0  0
  6 21  1  0  0  0  0
  7 10  2  0  0  0  0
  7 20  1  0  0  0  0
  8 24  1  0  0  0  0
  9 24  2  0  0  0  0
 10 25  1  0  0  0  0
 11 12  2  0  0  0  0
 11 26  1  0  0  0  0
 12 27  1  0  0  0  0
 13 22  1  0  0  0  0
 13 25  2  0  0  0  0
 14 23  1  0  0  0  0
 14 30  2  0  0  0  0
 15 27  2  0  0  0  0
 15 28  1  0  0  0  0
 16 23  2  0  0  0  0
 16 64  1  0  0  0  0
 17 29  1  0  0  0  0
 18 29  1  0  0  0  0
 18 31  2  0  0  0  0
 18 32  1  0  0  0  0
 19 21  2  0  0  0  0
 19 37  1  0  0  0  0
 20 22  2  0  0  0  0
 20 38  1  0  0  0  0
 21 46  1  0  0  0  0
 22 39  1  0  0  0  0
 23 55  1  0  0  0  0
 24 79  1  0  0  0  0
 25 80  1  0  0  0  0
 26 28  2  0  0  0  0
 26 79  1  0  0  0  0
 27 81  1  0  0  0  0
 28 82  1  0  0  0  0
 29 63  2  0  0  0  0
 30 56  1  0  0  0  0
 30 64  1  0  0  0  0
 31 65  1  0  0  0  0
 31 68  1  0  0  0  0
 32 69  1  0  0  0  0
 32 74  2  0  0  0  0
 33 47  1  0  0  0  0
 33 70  1  0  0  0  0
 33 75  2  0  0  0  0
 34 60  1  0  0  0  0
 34 66  1  0  0  0  0
 34 76  2  0  0  0  0
 35 61  1  0  0  0  0
 35 71  1  0  0  0  0
 35 77  2  0  0  0  0
 36 67  1  0  0  0  0
 36 72  1  0  0  0  0
 36 78  2  0  0  0  0
 37 40  1  0  0  0  0
 38 47  1  0  0  0  0
 39 66  1  0  0  0  0
 40 42  1  0  0  0  0
 41 43  1  0  0  0  0
 41 44  1  0  0  0  0
 42 46  1  0  0  0  0
 43 48  1  0  0  0  0
 44 67  1  0  0  0  0
 45 48  1  0  0  0  0
 45 67  1  0  0  0  0
 46 70  1  0  0  0  0
 47 66  1  0  0  0  0
 48 65  1  0  0  0  0
 49 56  1  0  0  0  0
 50 61  1  0  0  0  0
 51 62  1  0  0  0  0
 52 62  1  0  0  0  0
 53 62  1  0  0  0  0
 54 73  1  0  0  0  0
 55 72  1  0  0  0  0
 57 58  1  0  0  0  0
 57 59  1  0  0  0  0
 58 64  1  0  0  0  0
 59 80  1  0  0  0  0
 60 62  1  0  0  0  0
 60 71  1  0  0  0  0
 61 73  1  0  0  0  0
 63 65  1  0  0  0  0
M  CHG  1  73   1
M  ISO  4  36 100  59 101  72 100  80 101
M  END
> <Batch ID>
0033

> <Smiles>
CCc1cc(C[100NH:0][100C:0](=O)N2CCCC(n3nc(-c4ccc(Oc5ccc(F)cc5F)cc4)c(C(N)=O)c3N)C2)cn1CC[101CH2:1][101O:1]c1ccc2c(c1)CN(C(=O)C(NC(=O)C(C)NC)C(C)(C)C)C(C(=O)NC1CCCc3ccccc31)C2

> <Shape>
0.203

> <Color>
0.064

> <Negative vol penalty>
0.000

$$$$

  -OEChem-04052316483D

 84 92  0     1  0  0  0  0  0999 V2000
  -21.2458  -31.6478   22.3866 C   0  0  0  0  0  0  0  0  0  0  0  0
  -20.9454  -30.5715   21.5579 C   0  0  0  0  0  0  0  0  0  0  0  0
  -25.5383  -14.3146   18.8222 C   0  0  0  0  0  0  0  0  0  0  0  0
  -24.6200  -14.4161   21.0546 C   0  0  0  0  0  0  0  0  0  0  0  0
  -22.5448  -32.1525   22.4285 C   0  0  0  0  0  0  0  0  0  0  0  0
  -21.9436  -30.0000   20.7697 C   0  0  0  0  0  0  0  0  0  0  0  0
  -22.5286  -24.0874   19.2848 C   0  0  0  0  0  0  0  0  0  0  0  0
  -25.7497  -12.9440   18.9715 C   0  0  0  0  0  0  0  0  0  0  0  0
  -24.8314  -13.0455   21.2039 C   0  0  0  0  0  0  0  0  0  0  0  0
  -22.1756  -23.3673   18.1444 C   0  0  0  0  0  0  0  0  0  0  0  0
  -23.3324  -10.1757   20.2354 C   0  0  0  0  0  0  0  0  0  0  0  0
  -22.3005   -9.4190   20.7904 C   0  0  0  0  0  0  0  0  0  0  0  0
  -24.4220  -23.6139   17.3005 C   0  0  0  0  0  0  0  0  0  0  0  0
  -21.4419  -17.7465   14.2943 C   0  0  0  0  0  0  0  0  0  0  0  0
  -23.7613   -8.7502   22.5948 C   0  0  0  0  0  0  0  0  0  0  0  0
  -22.6915  -15.6787   15.5627 C   0  0  0  0  0  0  0  0  0  0  0  0
  -24.9735  -15.0507   19.8638 C   0  0  0  0  0  0  0  0  0  0  0  0
  -25.7266  -17.4541   19.4585 C   0  0  0  0  0  0  0  0  0  0  0  0
  -23.5616  -31.5808   21.6476 C   0  0  0  0  0  0  0  0  0  0  0  0
  -23.8303  -24.5863   19.4369 C   0  0  0  0  0  0  0  0  0  0  0  0
  -23.2572  -30.4984   20.8002 C   0  0  0  0  0  0  0  0  0  0  0  0
  -24.7897  -24.3378   18.4450 C   0  0  0  0  0  0  0  0  0  0  0  0
  -20.7004  -16.8980   15.1090 C   0  0  0  0  0  0  0  0  0  0  0  0
  -25.3962  -12.3094   20.1623 C   0  0  0  0  0  0  0  0  0  0  0  0
  -23.1215  -23.1329   17.1507 C   0  0  0  0  0  0  0  0  0  0  0  0
  -24.5789  -10.2196   20.8600 C   0  0  0  0  0  0  0  0  0  0  0  0
  -22.5149   -8.7063   21.9701 C   0  0  0  0  0  0  0  0  0  0  0  0
  -24.7933   -9.5069   22.0398 C   0  0  0  0  0  0  0  0  0  0  0  0
  -21.3296  -15.8420   15.7589 C   0  0  0  0  0  0  0  0  0  0  0  0
  -24.7553  -16.4667   19.7104 C   0  0  0  0  0  0  0  0  0  0  0  0
  -22.7987  -17.4981   14.1639 C   0  0  0  0  0  0  0  0  0  0  0  0
  -25.0158  -18.6278   19.3996 C   0  0  0  0  0  0  0  0  0  0  0  0
  -27.1446  -17.3220   19.2925 C   0  0  0  0  0  0  0  0  0  0  0  0
  -25.1026  -27.4856   19.7185 C   0  0  0  0  0  0  0  0  0  0  0  0
  -19.2558  -19.7709   18.1235 C   0  0  0  0  0  0  0  0  0  0  0  0
  -27.8334  -25.8117   20.2317 C   0  0  0  0  0  0  0  0  0  0  0  0
  -29.5788  -22.9115   19.7970 C   0  0  0  0  0  0  0  0  0  0  0  0
  -24.9402  -32.1910   21.6910 C   0  0  0  0  0  0  0  0  0  0  0  0
  -24.2025  -25.3382   20.6853 C   0  0  0  0  0  0  0  0  0  0  0  0
  -26.2062  -24.8344   18.5696 C   0  0  0  0  0  0  0  0  0  0  0  0
  -26.0241  -31.2893   21.1058 C   0  0  0  0  0  0  0  0  0  0  0  0
  -21.0549  -20.7041   21.0786 C   0  0  0  0  0  0  0  0  0  0  0  0
  -25.5695  -30.7045   19.7723 C   0  0  0  0  0  0  0  0  0  0  0  0
  -22.2816  -19.7931   21.0548 C   0  0  0  0  0  0  0  0  0  0  0  0
  -19.8239  -19.9978   20.5194 C   0  0  0  0  0  0  0  0  0  0  0  0
  -21.2406  -18.5298   19.1195 C   0  0  0  0  0  0  0  0  0  0  0  0
  -24.3183  -29.8356   19.9488 C   0  0  1  0  0  0  0  0  0  0  0  0
  -25.4181  -26.2410   20.4991 C   0  0  1  0  0  0  0  0  0  0  0  0
  -22.5134  -19.2148   19.6475 C   0  0  2  0  0  0  0  0  0  0  0  0
  -31.4488  -21.2581   20.0559 C   0  0  0  0  0  0  0  0  0  0  0  0
  -29.1142  -27.4606   18.0068 C   0  0  0  0  0  0  0  0  0  0  0  0
  -30.9529  -25.7645   17.9034 C   0  0  0  0  0  0  0  0  0  0  0  0
  -30.5814  -27.0728   19.9946 C   0  0  0  0  0  0  0  0  0  0  0  0
  -28.3698  -21.7505   22.2362 C   0  0  0  0  0  0  0  0  0  0  0  0
  -19.2355  -17.1500   15.2593 C   0  0  0  0  0  0  0  0  0  0  0  0
  -23.6347  -18.3982   13.2894 C   0  0  0  0  0  0  0  0  0  0  0  0
  -19.5976  -19.1642   16.7859 C   0  0  0  0  0  0  0  0  0  0  0  0
  -18.8985  -17.8211   16.6010 C   0  0  0  0  0  0  0  0  0  0  0  0
  -24.2351  -19.5979   14.0306 C   0  0  0  0  0  0  0  0  0  0  0  0
  -23.1799  -20.4680   14.7150 C   0  0  0  0  0  0  0  0  0  0  0  0
  -23.8091  -21.6699   15.4064 C   0  0  0  0  0  0  0  0  0  1  0  0
  -28.9335  -25.2655   19.3540 C   0  0  1  0  0  0  0  0  0  0  0  0
  -30.3692  -22.0559   20.7706 C   0  0  2  0  0  0  0  0  0  0  0  0
  -29.8684  -26.3830   18.8111 C   0  0  0  0  0  0  0  0  0  0  0  0
  -23.4449  -16.4824   14.7791 N   0  0  0  0  0  0  0  0  0  0  0  0
  -23.5215  -16.9694   19.8052 N   0  0  0  0  0  0  0  0  0  0  0  0
  -23.7127  -18.2855   19.6119 N   0  0  0  0  0  0  0  0  0  0  0  0
  -26.5196  -25.5700   19.8059 N   0  0  0  0  0  0  0  0  0  0  0  0
  -20.0917  -19.4432   19.1912 N   0  0  0  0  0  0  0  0  0  0  0  0
  -25.3845  -19.9090   19.1875 N   0  0  0  0  0  0  0  0  0  0  0  0
  -27.9618  -17.4159   20.4272 N   0  0  0  0  0  0  0  0  0  0  0  0
  -24.6732  -28.5438   20.4964 N   0  0  0  0  0  0  0  0  0  0  0  0
  -29.6166  -24.2458   20.1426 N   0  0  0  0  0  0  0  0  0  0  0  0
  -29.4658  -21.1007   21.4722 N   0  3  0  0  0  0  0  0  0  0  0  0
  -27.6726  -17.1430   18.1688 O   0  0  0  0  0  0  0  0  0  0  0  0
  -25.2402  -27.4862   18.5008 O   0  0  0  0  0  0  0  0  0  0  0  0
  -18.2766  -20.5160   18.2141 O   0  0  0  0  0  0  0  0  0  0  0  0
  -28.1288  -26.4238   21.2611 O   0  0  0  0  0  0  0  0  0  0  0  0
  -28.9902  -22.4434   18.8250 O   0  0  0  0  0  0  0  0  0  0  0  0
  -25.6022  -10.9719   20.3082 O   0  0  0  0  0  0  0  0  0  0  0  0
  -22.7793  -22.4310   16.0362 O   0  0  0  0  0  0  0  0  0  1  0  0
  -21.5234   -7.9809   22.5038 F   0  0  0  0  0  0  0  0  0  0  0  0
  -25.9883   -9.5462   22.6450 F   0  0  0  0  0  0  0  0  0  0  0  0
  -20.4758  -14.7523   16.7791 Cl  0  0  0  0  0  0  0  0  0  0  0  0
  1  2  1  0  0  0  0
  1  5  2  0  0  0  0
  2  6  2  0  0  0  0
  3  8  2  0  0  0  0
  3 17  1  0  0  0  0
  4  9  1  0  0  0  0
  4 17  2  0  0  0  0
  5 19  1  0  0  0  0
  6 21  1  0  0  0  0
  7 10  2  0  0  0  0
  7 20  1  0  0  0  0
  8 24  1  0  0  0  0
  9 24  2  0  0  0  0
 10 25  1  0  0  0  0
 11 12  2  0  0  0  0
 11 26  1  0  0  0  0
 12 27  1  0  0  0  0
 13 22  1  0  0  0  0
 13 25  2  0  0  0  0
 14 23  2  0  0  0  0
 14 31  1  0  0  0  0
 15 27  2  0  0  0  0
 15 28  1  0  0  0  0
 16 29  2  0  0  0  0
 16 65  1  0  0  0  0
 17 30  1  0  0  0  0
 18 30  1  0  0  0  0
 18 32  2  0  0  0  0
 18 33  1  0  0  0  0
 19 21  2  0  0  0  0
 19 38  1  0  0  0  0
 20 22  2  0  0  0  0
 20 39  1  0  0  0  0
 21 47  1  0  0  0  0
 22 40  1  0  0  0  0
 23 29  1  0  0  0  0
 23 55  1  0  0  0  0
 24 80  1  0  0  0  0
 25 81  1  0  0  0  0
 26 28  2  0  0  0  0
 26 80  1  0  0  0  0
 27 82  1  0  0  0  0
 28 83  1  0  0  0  0
 29 84  1  0  0  0  0
 30 66  2  0  0  0  0
 31 56  1  0  0  0  0
 31 65  2  0  0  0  0
 32 67  1  0  0  0  0
 32 70  1  0  0  0  0
 33 71  1  0  0  0  0
 33 75  2  0  0  0  0
 34 48  1  0  0  0  0
 34 72  1  0  0  0  0
 34 76  2  0  0  0  0
 35 57  1  0  0  0  0
 35 69  1  0  0  0  0
 35 77  2  0  0  0  0
 36 62  1  0  0  0  0
 36 68  1  0  0  0  0
 36 78  2  0  0  0  0
 37 63  1  0  0  0  0
 37 73  1  0  0  0  0
 37 79  2  0  0  0  0
 38 41  1  0  0  0  0
 39 48  1  0  0  0  0
 40 68  1  0  0  0  0
 41 43  1  0  0  0  0
 42 44  1  0  0  0  0
 42 45  1  0  0  0  0
 43 47  1  0  0  0  0
 44 49  1  0  0  0  0
 45 69  1  0  0  0  0
 46 49  1  0  0  0  0
 46 69  1  0  0  0  0
 47 72  1  0  0  0  0
 48 68  1  0  0  0  0
 49 67  1  0  0  0  0
 50 63  1  0  0  0  0
 51 64  1  0  0  0  0
 52 64  1  0  0  0  0
 53 64  1  0  0  0  0
 54 74  1  0  0  0  0
 55 58  1  0  0  0  0
 56 59  1  0  0  0  0
 57 58  1  0  0  0  0
 59 60  1  0  0  0  0
 60 61  1  0  0  0  0
 61 81  1  0  0  0  0
 62 64  1  0  0  0  0
 62 73  1  0  0  0  0
 63 74  1  0  0  0  0
 66 67  1  0  0  0  0
M  CHG  1  74   1
M  ISO  4  35 100  57 100  61 101  81 101
M  END
> <Batch ID>
0033

> <Smiles>
CNC(C)C(=O)NC(C(=O)N1Cc2cc([101O:1][101CH2:1]CCCc3cc(CC[100CH2:0][100C:0](=O)N4CCCC(n5nc(-c6ccc(Oc7ccc(F)cc7F)cc6)c(C(N)=O)c5N)C4)c(Cl)cn3)ccc2CC1C(=O)NC1CCCc2ccccc21)C(C)(C)C

> <Shape>
0.199

> <Color>
0.056

> <Negative vol penalty>
0.000

$$$$

  -OEChem-04052316483D

 86 94  0     1  0  0  0  0  0999 V2000
  -19.1388  -27.9567   23.7044 C   0  0  0  0  0  0  0  0  0  0  0  0
  -20.1641  -27.0381   23.5035 C   0  0  0  0  0  0  0  0  0  0  0  0
  -23.1230   -9.9494   19.8627 C   0  0  0  0  0  0  0  0  0  0  0  0
  -23.9396   -9.7732   22.1297 C   0  0  0  0  0  0  0  0  0  0  0  0
  -18.5850  -28.6305   22.6167 C   0  0  0  0  0  0  0  0  0  0  0  0
  -20.6356  -26.7921   22.2145 C   0  0  0  0  0  0  0  0  0  0  0  0
  -26.3966  -25.5029   20.5852 C   0  0  0  0  0  0  0  0  0  0  0  0
  -22.4055   -8.7649   20.0291 C   0  0  0  0  0  0  0  0  0  0  0  0
  -23.2220   -8.5886   22.2961 C   0  0  0  0  0  0  0  0  0  0  0  0
  -27.0466  -24.3008   20.3093 C   0  0  0  0  0  0  0  0  0  0  0  0
  -20.0241   -7.6798   22.9024 C   0  0  0  0  0  0  0  0  0  0  0  0
  -19.2973   -7.5245   24.0827 C   0  0  0  0  0  0  0  0  0  0  0  0
  -26.6472  -24.6325   17.9535 C   0  0  0  0  0  0  0  0  0  0  0  0
  -28.3972  -17.9417   18.5224 C   0  0  0  0  0  0  0  0  0  0  0  0
  -28.9852  -20.1474   16.9187 C   0  0  0  0  0  0  0  0  0  0  0  0
  -20.5897   -5.5550   24.6193 C   0  0  0  0  0  0  0  0  0  0  0  0
  -23.8901  -10.4535   20.9130 C   0  0  0  0  0  0  0  0  0  0  0  0
  -24.1855  -12.9857   21.0044 C   0  0  0  0  0  0  0  0  0  0  0  0
  -19.0565  -28.3997   21.3147 C   0  0  0  0  0  0  0  0  0  0  0  0
  -25.8565  -26.2747   19.5465 C   0  0  0  0  0  0  0  0  0  0  0  0
  -20.0867  -27.4625   21.1081 C   0  0  0  0  0  0  0  0  0  0  0  0
  -25.9930  -25.8453   18.2187 C   0  0  0  0  0  0  0  0  0  0  0  0
  -28.9619  -19.0847   19.0883 C   0  0  0  0  0  0  0  0  0  0  0  0
  -28.4205  -19.0044   16.3528 C   0  0  0  0  0  0  0  0  0  0  0  0
  -28.1266  -17.9015   17.1546 C   0  0  0  0  0  0  0  0  0  0  0  0
  -29.2559  -20.1875   18.2865 C   0  0  0  0  0  0  0  0  0  0  0  0
  -22.4550   -8.0845   21.2457 C   0  0  0  0  0  0  0  0  0  0  0  0
  -27.1695  -23.8640   18.9935 C   0  0  0  0  0  0  0  0  0  0  0  0
  -21.0336   -6.7727   22.5804 C   0  0  0  0  0  0  0  0  0  0  0  0
  -19.5802   -6.4621   24.9412 C   0  0  0  0  0  0  0  0  0  0  0  0
  -21.3165   -5.7104   23.4389 C   0  0  0  0  0  0  0  0  0  0  0  0
  -24.6320  -11.6768   20.7416 C   0  0  0  0  0  0  0  0  0  0  0  0
  -25.2552  -13.7846   20.6821 C   0  0  0  0  0  0  0  0  0  0  0  0
  -22.9172  -13.4389   21.4960 C   0  0  0  0  0  0  0  0  0  0  0  0
  -22.9349  -27.2520   18.7637 C   0  0  0  0  0  0  0  0  0  0  0  0
  -24.5270  -28.9225   16.4840 C   0  0  0  0  0  0  0  0  0  0  0  0
  -27.3136  -29.2389   14.5394 C   0  0  0  0  0  0  0  0  0  0  0  0
  -29.9082  -13.1064   16.9750 C   0  0  0  0  0  0  0  0  0  0  0  0
  -18.3945  -29.1172   20.1651 C   0  0  0  0  0  0  0  0  0  0  0  0
  -25.1817  -27.5822   19.8586 C   0  0  0  0  0  0  0  0  0  0  0  0
  -25.4485  -26.6471   17.0659 C   0  0  0  0  0  0  0  0  0  0  0  0
  -19.2061  -29.0757   18.8728 C   0  0  0  0  0  0  0  0  0  0  0  0
  -30.0339  -13.7356   20.4625 C   0  0  0  0  0  0  0  0  0  0  0  0
  -19.7117  -27.6617   18.6051 C   0  0  0  0  0  0  0  0  0  0  0  0
  -28.6270  -13.4054   20.9606 C   0  0  0  0  0  0  0  0  0  0  0  0
  -30.4763  -12.7752   19.3612 C   0  0  0  0  0  0  0  0  0  0  0  0
  -28.1512  -12.3460   18.7102 C   0  0  0  0  0  0  0  0  0  0  0  0
  -20.6420  -27.1866   19.7277 C   0  0  1  0  0  0  0  0  0  0  0  0
  -24.2183  -28.0334   18.7651 C   0  0  1  0  0  0  0  0  0  0  0  0
  -27.6318  -13.3127   19.7900 C   0  0  1  0  0  0  0  0  0  0  0  0
  -29.2422  -19.1048   20.5551 C   0  0  0  0  0  0  0  0  0  0  0  0
  -28.1403  -18.9842   14.8860 C   0  0  0  0  0  0  0  0  0  0  0  0
  -28.3100  -30.6826   12.7449 C   0  0  0  0  0  0  0  0  0  0  0  0
  -22.6705  -27.6437   14.4277 C   0  0  0  0  0  0  0  0  0  0  0  0
  -24.2772  -28.3485   12.6417 C   0  0  0  0  0  0  0  0  0  0  0  0
  -23.1394  -30.0700   14.0434 C   0  0  0  0  0  0  0  0  0  0  0  0
  -29.6217  -29.9652   16.2436 C   0  0  0  0  0  0  0  0  0  0  0  0
  -28.4141  -11.7442   15.4633 C   0  0  0  0  0  0  0  0  0  0  0  0
  -29.8303  -13.5002   14.4858 C   0  0  0  0  0  0  0  0  0  0  0  0
  -27.5167  -16.6547   16.5652 C   0  0  0  0  0  0  0  0  0  0  0  0
  -29.8601  -21.4223   18.8703 C   0  0  0  0  0  0  0  0  0  0  0  0
  -28.5093  -15.4965   16.3998 C   0  0  0  0  0  0  0  0  0  0  0  0
  -27.9173  -14.1987   15.8588 C   0  0  0  0  0  0  0  0  0  0  0  0
  -28.8412  -22.2901   19.6136 C   0  0  0  0  0  0  0  0  0  1  0  0
  -24.9625  -28.6470   15.0650 C   0  0  1  0  0  0  0  0  0  0  0  0
  -28.2036  -30.4319   14.2411 C   0  0  2  0  0  0  0  0  0  0  0  0
  -23.7711  -28.6610   14.0661 C   0  0  0  0  0  0  0  0  0  0  0  0
  -25.8875  -11.6417   20.2872 N   0  0  0  0  0  0  0  0  0  0  0  0
  -26.2390  -12.9386   20.2619 N   0  0  0  0  0  0  0  0  0  0  0  0
  -24.7915  -27.9154   17.4229 N   0  0  0  0  0  0  0  0  0  0  0  0
  -29.4928  -12.7436   18.2718 N   0  0  0  0  0  0  0  0  0  0  0  0
  -25.4408  -15.1212   20.7199 N   0  0  0  0  0  0  0  0  0  0  0  0
  -21.9297  -12.4847   21.7767 N   0  0  0  0  0  0  0  0  0  0  0  0
  -21.9541  -27.7796   19.5816 N   0  0  0  0  0  0  0  0  0  0  0  0
  -26.0072  -29.6194   14.7626 N   0  0  0  0  0  0  0  0  0  0  0  0
  -29.5748  -30.2023   14.7778 N   0  3  0  0  0  0  0  0  0  0  0  0
  -28.9921  -13.1262   15.7356 N   0  3  0  0  0  0  0  0  0  0  0  0
  -22.6613  -14.6552   21.6653 O   0  0  0  0  0  0  0  0  0  0  0  0
  -22.8409  -26.2458   18.0705 O   0  0  0  0  0  0  0  0  0  0  0  0
  -23.9788  -29.9949   16.7509 O   0  0  0  0  0  0  0  0  0  0  0  0
  -27.7344  -28.0845   14.5677 O   0  0  0  0  0  0  0  0  0  0  0  0
  -31.0731  -13.4451   16.7510 O   0  0  0  0  0  0  0  0  0  0  0  0
  -21.7548   -6.9288   21.4085 O   0  0  0  0  0  0  0  0  0  0  0  0
  -27.8074  -22.6824   18.7196 O   0  0  0  0  0  0  0  0  0  1  0  0
  -18.8832   -6.3140   26.0754 F   0  0  0  0  0  0  0  0  0  0  0  0
  -22.2860   -4.8364   23.1355 F   0  0  0  0  0  0  0  0  0  0  0  0
  1  2  1  0  0  0  0
  1  5  2  0  0  0  0
  2  6  2  0  0  0  0
  3  8  2  0  0  0  0
  3 17  1  0  0  0  0
  4  9  1  0  0  0  0
  4 17  2  0  0  0  0
  5 19  1  0  0  0  0
  6 21  1  0  0  0  0
  7 10  2  0  0  0  0
  7 20  1  0  0  0  0
  8 27  1  0  0  0  0
  9 27  2  0  0  0  0
 10 28  1  0  0  0  0
 11 12  2  0  0  0  0
 11 29  1  0  0  0  0
 12 30  1  0  0  0  0
 13 22  1  0  0  0  0
 13 28  2  0  0  0  0
 14 23  1  0  0  0  0
 14 25  2  0  0  0  0
 15 24  2  0  0  0  0
 15 26  1  0  0  0  0
 16 30  2  0  0  0  0
 16 31  1  0  0  0  0
 17 32  1  0  0  0  0
 18 32  1  0  0  0  0
 18 33  2  0  0  0  0
 18 34  1  0  0  0  0
 19 21  2  0  0  0  0
 19 39  1  0  0  0  0
 20 22  2  0  0  0  0
 20 40  1  0  0  0  0
 21 48  1  0  0  0  0
 22 41  1  0  0  0  0
 23 26  2  0  0  0  0
 23 51  1  0  0  0  0
 24 25  1  0  0  0  0
 24 52  1  0  0  0  0
 25 60  1  0  0  0  0
 26 61  1  0  0  0  0
 27 83  1  0  0  0  0
 28 84  1  0  0  0  0
 29 31  2  0  0  0  0
 29 83  1  0  0  0  0
 30 85  1  0  0  0  0
 31 86  1  0  0  0  0
 32 68  2  0  0  0  0
 33 69  1  0  0  0  0
 33 72  1  0  0  0  0
 34 73  1  0  0  0  0
 34 78  2  0  0  0  0
 35 49  1  0  0  0  0
 35 74  1  0  0  0  0
 35 79  2  0  0  0  0
 36 65  1  0  0  0  0
 36 70  1  0  0  0  0
 36 80  2  0  0  0  0
 37 66  1  0  0  0  0
 37 75  1  0  0  0  0
 37 81  2  0  0  0  0
 38 71  1  0  0  0  0
 38 77  1  0  0  0  0
 38 82  2  0  0  0  0
 39 42  1  0  0  0  0
 40 49  1  0  0  0  0
 41 70  1  0  0  0  0
 42 44  1  0  0  0  0
 43 45  1  0  0  0  0
 43 46  1  0  0  0  0
 44 48  1  0  0  0  0
 45 50  1  0  0  0  0
 46 71  1  0  0  0  0
 47 50  1  0  0  0  0
 47 71  1  0  0  0  0
 48 74  1  0  0  0  0
 49 70  1  0  0  0  0
 50 69  1  0  0  0  0
 53 66  1  0  0  0  0
 54 67  1  0  0  0  0
 55 67  1  0  0  0  0
 56 67  1  0  0  0  0
 57 76  1  0  0  0  0
 58 77  1  0  0  0  0
 59 77  1  0  0  0  0
 60 62  1  0  0  0  0
 61 64  1  0  0  0  0
 62 63  1  0  0  0  0
 63 77  1  0  0  0  0
 64 84  1  0  0  0  0
 65 67  1  0  0  0  0
 65 75  1  0  0  0  0
 66 76  1  0  0  0  0
 68 69  1  0  0  0  0
M  CHG  2  76   1  77   1
M  ISO  4  38 100  64 101  77 100  84 101
M  END
> <Batch ID>
0033

> <Smiles>
CNC(C)C(=O)NC(C(=O)N1Cc2cc([101O:1][101CH2:1]Cc3cc(C)c(CCC[100N+:0](C)(C)[100C:0](=O)N4CCCC(n5nc(-c6ccc(Oc7ccc(F)cc7F)cc6)c(C(N)=O)c5N)C4)cc3C)ccc2CC1C(=O)NC1CCCc2ccccc21)C(C)(C)C

> <Shape>
0.253

> <Color>
0.203

> <Negative vol penalty>
0.000

$$$$

  -OEChem-04052316483D

 88 98  0     1  0  0  0  0  0999 V2000
  -30.8115  -25.6232   13.4225 C   0  0  0  0  0  0  0  0  0  0  0  0
  -30.3140  -24.7692   14.4016 C   0  0  0  0  0  0  0  0  0  0  0  0
  -23.2750  -12.7239   22.8039 C   0  0  0  0  0  0  0  0  0  0  0  0
  -22.3240  -12.9046   20.5903 C   0  0  0  0  0  0  0  0  0  0  0  0
  -31.0746  -26.9572   13.7309 C   0  0  0  0  0  0  0  0  0  0  0  0
  -30.0805  -25.2485   15.6901 C   0  0  0  0  0  0  0  0  0  0  0  0
  -25.6000  -23.5377   19.4985 C   0  0  0  0  0  0  0  0  0  0  0  0
  -21.9929  -12.6539   23.3490 C   0  0  0  0  0  0  0  0  0  0  0  0
  -21.0420  -12.8346   21.1353 C   0  0  0  0  0  0  0  0  0  0  0  0
  -25.5685  -22.6445   20.5685 C   0  0  0  0  0  0  0  0  0  0  0  0
  -19.5646  -10.3294   23.7134 C   0  0  0  0  0  0  0  0  0  0  0  0
  -19.3266   -9.3604   24.6880 C   0  0  0  0  0  0  0  0  0  0  0  0
  -25.9230  -24.4750   22.0992 C   0  0  0  0  0  0  0  0  0  0  0  0
  -18.7378  -11.0924   26.2662 C   0  0  0  0  0  0  0  0  0  0  0  0
  -30.1915  -20.3557   23.5894 C   0  0  0  0  0  0  0  0  0  0  0  0
  -23.4405  -12.8493   21.4245 C   0  0  0  0  0  0  0  0  0  0  0  0
  -25.5650  -11.8477   20.4292 C   0  0  0  0  0  0  0  0  0  0  0  0
  -30.8350  -27.4555   15.0213 C   0  0  0  0  0  0  0  0  0  0  0  0
  -25.8045  -24.9071   19.7203 C   0  0  0  0  0  0  0  0  0  0  0  0
  -30.3419  -26.5901   16.0164 C   0  0  0  0  0  0  0  0  0  0  0  0
  -25.9541  -25.3838   21.0305 C   0  0  0  0  0  0  0  0  0  0  0  0
  -20.8764  -12.7093   22.5147 C   0  0  0  0  0  0  0  0  0  0  0  0
  -25.7329  -23.1126   21.8689 C   0  0  0  0  0  0  0  0  0  0  0  0
  -19.3893  -11.6800   24.0151 C   0  0  0  0  0  0  0  0  0  0  0  0
  -18.9132   -9.7419   25.9644 C   0  0  0  0  0  0  0  0  0  0  0  0
  -18.9759  -12.0615   25.2915 C   0  0  0  0  0  0  0  0  0  0  0  0
  -24.7646  -12.9222   20.8610 C   0  0  0  0  0  0  0  0  0  0  0  0
  -29.0907  -21.2327   23.6192 C   0  0  0  0  0  0  0  0  0  0  0  0
  -30.9998  -20.8528   22.5964 C   0  0  0  0  0  0  0  0  0  0  0  0
  -26.7205  -12.4390   19.9801 C   0  0  0  0  0  0  0  0  0  0  0  0
  -25.2888  -10.4408   20.4335 C   0  0  0  0  0  0  0  0  0  0  0  0
  -28.0319  -27.0092   18.8696 C   0  0  0  0  0  0  0  0  0  0  0  0
  -26.0073  -29.1294   20.2582 C   0  0  0  0  0  0  0  0  0  0  0  0
  -23.4942  -29.6963   22.4965 C   0  0  0  0  0  0  0  0  0  0  0  0
  -30.7853  -15.9219   20.4062 C   0  0  0  0  0  0  0  0  0  0  0  0
  -31.1795  -28.8931   15.3198 C   0  0  0  0  0  0  0  0  0  0  0  0
  -25.8092  -25.8611   18.5574 C   0  0  0  0  0  0  0  0  0  0  0  0
  -26.1563  -26.8472   21.3236 C   0  0  0  0  0  0  0  0  0  0  0  0
  -30.5513  -29.4148   16.6096 C   0  0  0  0  0  0  0  0  0  0  0  0
  -33.2804  -18.2534   18.9695 C   0  0  0  0  0  0  0  0  0  0  0  0
  -27.8244  -17.2897   19.1049 C   0  0  0  0  0  0  0  0  0  0  0  0
  -30.7424  -28.4097   17.7410 C   0  0  0  0  0  0  0  0  0  0  0  0
  -33.4174  -19.3038   20.0689 C   0  0  0  0  0  0  0  0  0  0  0  0
  -26.8172  -16.1821   19.4124 C   0  0  0  0  0  0  0  0  0  0  0  0
  -29.9360  -23.6237   20.1883 C   0  0  0  0  0  0  0  0  0  0  0  0
  -30.6294  -22.4404   19.5892 C   0  0  0  0  0  0  0  0  0  0  0  0
  -32.8778  -16.8949   19.5329 C   0  0  0  0  0  0  0  0  0  0  0  0
  -28.8108  -17.5024   20.2544 C   0  0  0  0  0  0  0  0  0  0  0  0
  -31.7803  -17.9892   21.4610 C   0  0  0  0  0  0  0  0  0  0  0  0
  -28.5011  -15.1618   20.9909 C   0  0  0  0  0  0  0  0  0  0  0  0
  -30.0522  -27.0787   17.4191 C   0  0  1  0  0  0  0  0  0  0  0  0
  -26.5377  -27.1672   18.8590 C   0  0  1  0  0  0  0  0  0  0  0  0
  -32.1456  -19.3774   20.9243 C   0  0  1  0  0  0  0  0  0  0  0  0
  -30.8686  -22.7932   21.0386 C   0  0  0  0  0  0  0  0  0  0  0  0
  -27.5329  -14.8851   19.8302 C   0  0  1  0  0  0  0  0  0  0  0  0
  -22.0731  -31.5378   23.4381 C   0  0  0  0  0  0  0  0  0  0  0  0
  -28.3604  -30.0742   21.9553 C   0  0  0  0  0  0  0  0  0  0  0  0
  -26.7205  -31.1898   23.4832 C   0  0  0  0  0  0  0  0  0  0  0  0
  -26.8890  -31.9065   21.0998 C   0  0  0  0  0  0  0  0  0  0  0  0
  -21.0037  -28.4334   21.5157 C   0  0  0  0  0  0  0  0  0  0  0  0
  -27.9150  -21.1661   24.5030 C   0  0  0  0  0  0  0  0  0  0  0  0
  -32.3236  -20.3690   22.0719 C   0  0  0  0  0  0  0  0  0  0  0  0
  -26.7333  -20.3364   23.9538 C   0  0  0  0  0  0  0  0  0  0  0  0
  -26.1525  -20.9122   22.6675 C   0  0  0  0  0  0  0  0  0  1  0  0
  -25.8269  -29.6797   21.6524 C   0  0  1  0  0  0  0  0  0  0  0  0
  -22.1877  -30.4592   22.3722 C   0  0  2  0  0  0  0  0  0  0  0  0
  -26.9473  -30.6847   22.0423 C   0  0  0  0  0  0  0  0  0  0  0  0
  -25.3611  -14.1065   20.7008 N   0  0  0  0  0  0  0  0  0  0  0  0
  -29.1876  -22.2127   22.7169 N   0  0  0  0  0  0  0  0  0  0  0  0
  -30.3591  -21.9546   22.1109 N   0  0  0  0  0  0  0  0  0  0  0  0
  -26.5488  -13.7796   20.1635 N   0  0  0  0  0  0  0  0  0  0  0  0
  -26.1596  -27.7396   20.1527 N   0  0  0  0  0  0  0  0  0  0  0  0
  -31.6899  -16.9966   20.3801 N   0  0  0  0  0  0  0  0  0  0  0  0
  -29.4380  -16.2325   20.6440 N   0  0  0  0  0  0  0  0  0  0  0  0
  -27.8566  -11.9379   19.4504 N   0  0  0  0  0  0  0  0  0  0  0  0
  -24.0528  -10.0041   20.9296 N   0  0  0  0  0  0  0  0  0  0  0  0
  -28.6250  -27.1846   17.6339 N   0  0  0  0  0  0  0  0  0  0  0  0
  -24.4801  -30.2385   21.6995 N   0  0  0  0  0  0  0  0  0  0  0  0
  -21.0303  -29.5314   22.5162 N   0  3  0  0  0  0  0  0  0  0  0  0
  -26.1200   -9.5947   20.0251 O   0  0  0  0  0  0  0  0  0  0  0  0
  -28.6044  -26.7490   19.9214 O   0  0  0  0  0  0  0  0  0  0  0  0
  -26.0057  -29.9033   19.2977 O   0  0  0  0  0  0  0  0  0  0  0  0
  -23.6279  -28.7194   23.2303 O   0  0  0  0  0  0  0  0  0  0  0  0
  -31.1596  -14.7565   20.2247 O   0  0  0  0  0  0  0  0  0  0  0  0
  -19.6253  -12.6408   23.0462 O   0  0  0  0  0  0  0  0  0  0  0  0
  -25.7030  -22.2367   22.9224 O   0  0  0  0  0  0  0  0  0  1  0  0
  -18.6831   -8.8112   26.8998 F   0  0  0  0  0  0  0  0  0  0  0  0
  -18.8046  -13.3573   25.5870 F   0  0  0  0  0  0  0  0  0  0  0  0
  1  2  1  0  0  0  0
  1  5  2  0  0  0  0
  2  6  2  0  0  0  0
  3  8  2  0  0  0  0
  3 16  1  0  0  0  0
  4  9  1  0  0  0  0
  4 16  2  0  0  0  0
  5 18  1  0  0  0  0
  6 20  1  0  0  0  0
  7 10  2  0  0  0  0
  7 19  1  0  0  0  0
  8 22  1  0  0  0  0
  9 22  2  0  0  0  0
 10 23  1  0  0  0  0
 11 12  2  0  0  0  0
 11 24  1  0  0  0  0
 12 25  1  0  0  0  0
 13 21  1  0  0  0  0
 13 23  2  0  0  0  0
 14 25  2  0  0  0  0
 14 26  1  0  0  0  0
 15 28  1  0  0  0  0
 15 29  2  0  0  0  0
 16 27  1  0  0  0  0
 17 27  1  0  0  0  0
 17 30  2  0  0  0  0
 17 31  1  0  0  0  0
 18 20  2  0  0  0  0
 18 36  1  0  0  0  0
 19 21  2  0  0  0  0
 19 37  1  0  0  0  0
 20 51  1  0  0  0  0
 21 38  1  0  0  0  0
 22 85  1  0  0  0  0
 23 86  1  0  0  0  0
 24 26  2  0  0  0  0
 24 85  1  0  0  0  0
 25 87  1  0  0  0  0
 26 88  1  0  0  0  0
 27 68  2  0  0  0  0
 28 61  1  0  0  0  0
 28 69  2  0  0  0  0
 29 62  1  0  0  0  0
 29 70  1  0  0  0  0
 30 71  1  0  0  0  0
 30 75  1  0  0  0  0
 31 76  1  0  0  0  0
 31 80  2  0  0  0  0
 32 52  1  0  0  0  0
 32 77  1  0  0  0  0
 32 81  2  0  0  0  0
 33 65  1  0  0  0  0
 33 72  1  0  0  0  0
 33 82  2  0  0  0  0
 34 66  1  0  0  0  0
 34 78  1  0  0  0  0
 34 83  2  0  0  0  0
 35 73  1  0  0  0  0
 35 74  1  0  0  0  0
 35 84  2  0  0  0  0
 36 39  1  0  0  0  0
 37 52  1  0  0  0  0
 38 72  1  0  0  0  0
 39 42  1  0  0  0  0
 40 43  1  0  0  0  0
 40 47  1  0  0  0  0
 41 44  1  0  0  0  0
 41 48  1  0  0  0  0
 42 51  1  0  0  0  0
 43 53  1  0  0  0  0
 44 55  1  0  0  0  0
 45 46  1  0  0  0  0
 45 54  1  0  0  0  0
 46 54  1  0  0  0  0
 47 73  1  0  0  0  0
 48 74  1  0  0  0  0
 49 53  1  0  0  0  0
 49 73  1  0  0  0  0
 50 55  1  0  0  0  0
 50 74  1  0  0  0  0
 51 77  1  0  0  0  0
 52 72  1  0  0  0  0
 53 62  1  0  0  0  0
 54 70  1  0  0  0  0
 55 71  1  0  0  0  0
 56 66  1  0  0  0  0
 57 67  1  0  0  0  0
 58 67  1  0  0  0  0
 59 67  1  0  0  0  0
 60 79  1  0  0  0  0
 61 63  1  0  0  0  0
 63 64  1  0  0  0  0
 64 86  1  0  0  0  0
 65 67  1  0  0  0  0
 65 78  1  0  0  0  0
 66 79  1  0  0  0  0
 68 71  1  0  0  0  0
 69 70  1  0  0  0  0
M  CHG  1  79   1
M  ISO  4  35 100  64 101  73 100  86 101
M  END
> <Batch ID>
0033

> <Smiles>
CNC(C)C(=O)NC(C(=O)N1Cc2cc([101O:1][101CH2:1]CCc3cc(CC4CCC[100N:0]([100C:0](=O)N5CCCC(n6nc(-c7ccc(Oc8ccc(F)cc8F)cc7)c(C(N)=O)c6N)C5)C4)n(C4CC4)n3)ccc2CC1C(=O)NC1CCCc2ccccc21)C(C)(C)C

> <Shape>
0.214

> <Color>
0.085

> <Negative vol penalty>
0.000

$$$$

  -OEChem-04052316483D

 85 93  0     1  0  0  0  0  0999 V2000
  -26.7129  -37.8746   22.9281 C   0  0  0  0  0  0  0  0  0  0  0  0
  -27.4621  -36.7898   22.4839 C   0  0  0  0  0  0  0  0  0  0  0  0
  -23.7518   -9.9507   22.0571 C   0  0  0  0  0  0  0  0  0  0  0  0
  -24.3461  -11.3249   23.9533 C   0  0  0  0  0  0  0  0  0  0  0  0
  -25.5326  -37.6610   23.6389 C   0  0  0  0  0  0  0  0  0  0  0  0
  -27.0319  -35.4906   22.7511 C   0  0  0  0  0  0  0  0  0  0  0  0
  -27.0590  -28.9083   19.9247 C   0  0  0  0  0  0  0  0  0  0  0  0
  -23.2173   -8.9929   22.9188 C   0  0  0  0  0  0  0  0  0  0  0  0
  -23.8115  -10.3672   24.8150 C   0  0  0  0  0  0  0  0  0  0  0  0
  -27.4010  -27.5970   20.2521 C   0  0  0  0  0  0  0  0  0  0  0  0
  -24.3680   -6.5223   24.9179 C   0  0  0  0  0  0  0  0  0  0  0  0
  -24.6837   -5.1854   24.6756 C   0  0  0  0  0  0  0  0  0  0  0  0
  -25.3050  -27.3483   21.4200 C   0  0  0  0  0  0  0  0  0  0  0  0
  -28.5861  -23.3305   22.6166 C   0  0  0  0  0  0  0  0  0  0  0  0
  -28.1390  -22.5997   20.3576 C   0  0  0  0  0  0  0  0  0  0  0  0
  -22.3374   -4.6822   24.3953 C   0  0  0  0  0  0  0  0  0  0  0  0
  -24.3163  -11.1167   22.5744 C   0  0  0  0  0  0  0  0  0  0  0  0
  -24.1965  -13.1982   21.1044 C   0  0  0  0  0  0  0  0  0  0  0  0
  -25.0827  -36.3585   23.9066 C   0  0  0  0  0  0  0  0  0  0  0  0
  -25.8401  -29.4539   20.3525 C   0  0  0  0  0  0  0  0  0  0  0  0
  -25.8452  -35.2593   23.4673 C   0  0  0  0  0  0  0  0  0  0  0  0
  -24.9487  -28.6660   21.0946 C   0  0  0  0  0  0  0  0  0  0  0  0
  -28.2852  -23.6289   21.2877 C   0  0  0  0  0  0  0  0  0  0  0  0
  -28.7409  -22.0028   23.0155 C   0  0  0  0  0  0  0  0  0  0  0  0
  -28.5947  -20.9736   22.0854 C   0  0  0  0  0  0  0  0  0  0  0  0
  -23.2470   -9.2011   24.2977 C   0  0  0  0  0  0  0  0  0  0  0  0
  -26.5252  -26.8177   21.0023 C   0  0  0  0  0  0  0  0  0  0  0  0
  -23.0370   -6.9391   24.8989 C   0  0  0  0  0  0  0  0  0  0  0  0
  -23.6684   -4.2654   24.4143 C   0  0  0  0  0  0  0  0  0  0  0  0
  -22.0217   -6.0191   24.6376 C   0  0  0  0  0  0  0  0  0  0  0  0
  -28.2938  -21.2721   20.7565 C   0  0  0  0  0  0  0  0  0  0  0  0
  -24.8692  -12.1062   21.6848 C   0  0  0  0  0  0  0  0  0  0  0  0
  -25.1541  -13.8288   20.3483 C   0  0  0  0  0  0  0  0  0  0  0  0
  -22.8284  -13.6060   21.2370 C   0  0  0  0  0  0  0  0  0  0  0  0
  -25.0039  -31.8828   22.2248 C   0  0  0  0  0  0  0  0  0  0  0  0
  -22.0147  -31.1160   21.2252 C   0  0  0  0  0  0  0  0  0  0  0  0
  -19.8950  -28.7508   19.9765 C   0  0  0  0  0  0  0  0  0  0  0  0
  -31.1287  -14.0373   20.6822 C   0  0  0  0  0  0  0  0  0  0  0  0
  -23.8253  -36.1775   24.7195 C   0  0  0  0  0  0  0  0  0  0  0  0
  -25.4743  -30.8614   19.9683 C   0  0  0  0  0  0  0  0  0  0  0  0
  -23.6191  -29.1980   21.5609 C   0  0  0  0  0  0  0  0  0  0  0  0
  -23.2439  -34.7685   24.6366 C   0  0  0  0  0  0  0  0  0  0  0  0
  -29.1760  -12.9528   17.9096 C   0  0  0  0  0  0  0  0  0  0  0  0
  -24.3420  -33.7261   24.8221 C   0  0  0  0  0  0  0  0  0  0  0  0
  -27.7901  -12.7114   18.5103 C   0  0  0  0  0  0  0  0  0  0  0  0
  -30.2880  -12.5604   18.8799 C   0  0  0  0  0  0  0  0  0  0  0  0
  -28.8091  -12.9426   20.8140 C   0  0  0  0  0  0  0  0  0  0  0  0
  -25.3986  -33.8350   23.7160 C   0  0  1  0  0  0  0  0  0  0  0  0
  -24.4325  -31.4819   20.8941 C   0  0  1  0  0  0  0  0  0  0  0  0
  -27.6551  -13.3758   19.8937 C   0  0  2  0  0  0  0  0  0  0  0  0
  -29.0644  -21.7128   24.4449 C   0  0  0  0  0  0  0  0  0  0  0  0
  -17.5027  -28.4098   19.2996 C   0  0  0  0  0  0  0  0  0  0  0  0
  -21.2088  -30.9548   24.1637 C   0  0  0  0  0  0  0  0  0  0  0  0
  -19.1504  -29.7158   23.4591 C   0  0  0  0  0  0  0  0  0  0  0  0
  -19.5241  -32.0555   22.6788 C   0  0  0  0  0  0  0  0  0  0  0  0
  -20.6524  -28.1312   17.1834 C   0  0  0  0  0  0  0  0  0  0  0  0
  -28.7646  -19.5542   22.5298 C   0  0  0  0  0  0  0  0  0  0  0  0
  -28.1179  -25.0573   20.8597 C   0  0  0  0  0  0  0  0  0  1  0  0
  -30.1260  -18.9804   22.1165 C   0  0  0  0  0  0  0  0  0  0  0  0
  -30.2735  -17.5181   22.5421 C   0  0  0  0  0  0  0  0  0  0  0  0
  -31.6498  -16.9650   22.1608 C   0  0  0  0  0  0  0  0  0  0  0  0
  -31.8249  -15.5034   22.5598 C   0  0  0  0  0  0  0  0  0  0  0  0
  -20.9291  -30.1879   21.7142 C   0  0  1  0  0  0  0  0  0  0  0  0
  -18.8979  -28.7949   18.8327 C   0  0  2  0  0  0  0  0  0  0  0  0
  -20.2289  -30.7188   22.9969 C   0  0  0  0  0  0  0  0  0  0  0  0
  -26.1548  -12.0437   21.3279 N   0  0  0  0  0  0  0  0  0  0  0  0
  -26.2975  -13.1043   20.5150 N   0  0  0  0  0  0  0  0  0  0  0  0
  -23.3097  -30.5820   21.1653 N   0  0  0  0  0  0  0  0  0  0  0  0
  -30.1023  -13.2255   20.1719 N   0  0  0  0  0  0  0  0  0  0  0  0
  -25.1211  -14.9269   19.5637 N   0  0  0  0  0  0  0  0  0  0  0  0
  -21.9804  -12.8451   22.0533 N   0  0  0  0  0  0  0  0  0  0  0  0
  -24.9124  -33.2355   22.4919 N   0  0  0  0  0  0  0  0  0  0  0  0
  -20.0295  -29.9810   20.5845 N   0  0  0  0  0  0  0  0  0  0  0  0
  -30.8687  -14.6355   21.9092 N   0  0  0  0  0  0  0  0  0  0  0  0
  -19.3079  -27.8546   17.7516 N   0  3  0  0  0  0  0  0  0  0  0  0
  -22.3673  -14.6059   20.6360 O   0  0  0  0  0  0  0  0  0  0  0  0
  -25.4904  -31.0279   22.9557 O   0  0  0  0  0  0  0  0  0  0  0  0
  -21.7232  -32.2700   20.9014 O   0  0  0  0  0  0  0  0  0  0  0  0
  -20.4918  -27.7265   20.3008 O   0  0  0  0  0  0  0  0  0  0  0  0
  -32.1955  -14.2201   20.0859 O   0  0  0  0  0  0  0  0  0  0  0  0
  -22.7253   -8.2669   25.1388 O   0  0  0  0  0  0  0  0  0  0  0  0
  -26.8569  -25.5376   21.3238 O   0  0  0  0  0  0  0  0  0  1  0  0
  -23.9718   -2.9819   24.1801 F   0  0  0  0  0  0  0  0  0  0  0  0
  -20.7412   -6.4138   24.6168 F   0  0  0  0  0  0  0  0  0  0  0  0
  -28.1032  -20.0267   19.5758 Cl  0  0  0  0  0  0  0  0  0  0  0  0
  1  2  1  0  0  0  0
  1  5  2  0  0  0  0
  2  6  2  0  0  0  0
  3  8  2  0  0  0  0
  3 17  1  0  0  0  0
  4  9  1  0  0  0  0
  4 17  2  0  0  0  0
  5 19  1  0  0  0  0
  6 21  1  0  0  0  0
  7 10  2  0  0  0  0
  7 20  1  0  0  0  0
  8 26  1  0  0  0  0
  9 26  2  0  0  0  0
 10 27  1  0  0  0  0
 11 12  2  0  0  0  0
 11 28  1  0  0  0  0
 12 29  1  0  0  0  0
 13 22  1  0  0  0  0
 13 27  2  0  0  0  0
 14 23  1  0  0  0  0
 14 24  2  0  0  0  0
 15 23  2  0  0  0  0
 15 31  1  0  0  0  0
 16 29  2  0  0  0  0
 16 30  1  0  0  0  0
 17 32  1  0  0  0  0
 18 32  1  0  0  0  0
 18 33  2  0  0  0  0
 18 34  1  0  0  0  0
 19 21  2  0  0  0  0
 19 39  1  0  0  0  0
 20 22  2  0  0  0  0
 20 40  1  0  0  0  0
 21 48  1  0  0  0  0
 22 41  1  0  0  0  0
 23 58  1  0  0  0  0
 24 25  1  0  0  0  0
 24 51  1  0  0  0  0
 25 31  2  0  0  0  0
 25 57  1  0  0  0  0
 26 81  1  0  0  0  0
 27 82  1  0  0  0  0
 28 30  2  0  0  0  0
 28 81  1  0  0  0  0
 29 83  1  0  0  0  0
 30 84  1  0  0  0  0
 31 85  1  0  0  0  0
 32 66  2  0  0  0  0
 33 67  1  0  0  0  0
 33 70  1  0  0  0  0
 34 71  1  0  0  0  0
 34 76  2  0  0  0  0
 35 49  1  0  0  0  0
 35 72  1  0  0  0  0
 35 77  2  0  0  0  0
 36 63  1  0  0  0  0
 36 68  1  0  0  0  0
 36 78  2  0  0  0  0
 37 64  1  0  0  0  0
 37 73  1  0  0  0  0
 37 79  2  0  0  0  0
 38 69  1  0  0  0  0
 38 74  1  0  0  0  0
 38 80  2  0  0  0  0
 39 42  1  0  0  0  0
 40 49  1  0  0  0  0
 41 68  1  0  0  0  0
 42 44  1  0  0  0  0
 43 45  1  0  0  0  0
 43 46  1  0  0  0  0
 44 48  1  0  0  0  0
 45 50  1  0  0  0  0
 46 69  1  0  0  0  0
 47 50  1  0  0  0  0
 47 69  1  0  0  0  0
 48 72  1  0  0  0  0
 49 68  1  0  0  0  0
 50 67  1  0  0  0  0
 52 64  1  0  0  0  0
 53 65  1  0  0  0  0
 54 65  1  0  0  0  0
 55 65  1  0  0  0  0
 56 75  1  0  0  0  0
 57 59  1  0  0  0  0
 58 82  1  0  0  0  0
 59 60  1  0  0  0  0
 60 61  1  0  0  0  0
 61 62  1  0  0  0  0
 62 74  1  0  0  0  0
 63 65  1  0  0  0  0
 63 73  1  0  0  0  0
 64 75  1  0  0  0  0
 66 67  1  0  0  0  0
M  CHG  1  75   1
M  ISO  4  38 100  58 101  74 100  82 101
M  END
> <Batch ID>
0033

> <Smiles>
CNC(C)C(=O)NC(C(=O)N1Cc2cc([101O:1][101CH2:1]c3cc(C)c(CCCCC[100NH:0][100C:0](=O)N4CCCC(n5nc(-c6ccc(Oc7ccc(F)cc7F)cc6)c(C(N)=O)c5N)C4)c(Cl)c3)ccc2CC1C(=O)NC1CCCc2ccccc21)C(C)(C)C

> <Shape>
0.333

> <Color>
0.157

> <Negative vol penalty>
0.000

$$$$

  -OEChem-04052316483D

 87 95  0     1  0  0  0  0  0999 V2000
  -25.9998  -21.5253    8.2088 C   0  0  0  0  0  0  0  0  0  0  0  0
  -26.2592  -21.1226    9.5149 C   0  0  0  0  0  0  0  0  0  0  0  0
  -23.0721   -9.8732   19.9391 C   0  0  0  0  0  0  0  0  0  0  0  0
  -23.8392   -9.8718   22.2301 C   0  0  0  0  0  0  0  0  0  0  0  0
  -26.1014  -22.8720    7.8625 C   0  0  0  0  0  0  0  0  0  0  0  0
  -26.6215  -22.0664   10.4753 C   0  0  0  0  0  0  0  0  0  0  0  0
  -24.1742  -21.4136   14.8605 C   0  0  0  0  0  0  0  0  0  0  0  0
  -22.3290   -8.7192   20.1871 C   0  0  0  0  0  0  0  0  0  0  0  0
  -23.0959   -8.7178   22.4782 C   0  0  0  0  0  0  0  0  0  0  0  0
  -24.6295  -20.3967   15.6986 C   0  0  0  0  0  0  0  0  0  0  0  0
  -19.8696   -7.9180   23.0878 C   0  0  0  0  0  0  0  0  0  0  0  0
  -19.1163   -7.8739   24.2609 C   0  0  0  0  0  0  0  0  0  0  0  0
  -25.8110  -22.0279   17.0262 C   0  0  0  0  0  0  0  0  0  0  0  0
  -30.3652  -19.7669   17.8788 C   0  0  0  0  0  0  0  0  0  0  0  0
  -20.3598   -5.9337   24.9864 C   0  0  0  0  0  0  0  0  0  0  0  0
  -23.8273  -10.4495   20.9605 C   0  0  0  0  0  0  0  0  0  0  0  0
  -24.1690  -12.9751   20.8486 C   0  0  0  0  0  0  0  0  0  0  0  0
  -26.4557  -23.8341    8.8214 C   0  0  0  0  0  0  0  0  0  0  0  0
  -24.5434  -22.7463   15.0931 C   0  0  0  0  0  0  0  0  0  0  0  0
  -26.7292  -23.4271   10.1413 C   0  0  0  0  0  0  0  0  0  0  0  0
  -25.3569  -23.0602   16.1911 C   0  0  0  0  0  0  0  0  0  0  0  0
  -29.1936  -19.2690   18.5006 C   0  0  0  0  0  0  0  0  0  0  0  0
  -22.3408   -8.1415   21.4567 C   0  0  0  0  0  0  0  0  0  0  0  0
  -25.4504  -20.7034   16.7799 C   0  0  0  0  0  0  0  0  0  0  0  0
  -20.8680   -6.9699   22.8640 C   0  0  0  0  0  0  0  0  0  0  0  0
  -19.3614   -6.8817   25.2102 C   0  0  0  0  0  0  0  0  0  0  0  0
  -21.1131   -5.9778   23.8133 C   0  0  0  0  0  0  0  0  0  0  0  0
  -24.5957  -11.6413   20.7048 C   0  0  0  0  0  0  0  0  0  0  0  0
  -30.3903  -19.2727   16.5933 C   0  0  0  0  0  0  0  0  0  0  0  0
  -28.5384  -18.4857   17.5762 C   0  0  0  0  0  0  0  0  0  0  0  0
  -25.2600  -13.7258   20.4847 C   0  0  0  0  0  0  0  0  0  0  0  0
  -22.8998  -13.4894   21.2734 C   0  0  0  0  0  0  0  0  0  0  0  0
  -26.1662  -24.9412   13.4644 C   0  0  0  0  0  0  0  0  0  0  0  0
  -25.2391  -26.8721   15.9006 C   0  0  0  0  0  0  0  0  0  0  0  0
  -24.2231  -27.1566   19.1461 C   0  0  0  0  0  0  0  0  0  0  0  0
  -30.7444  -14.7437   20.6597 C   0  0  0  0  0  0  0  0  0  0  0  0
  -26.5988  -25.2718    8.3888 C   0  0  0  0  0  0  0  0  0  0  0  0
  -24.0220  -23.8349   14.1955 C   0  0  0  0  0  0  0  0  0  0  0  0
  -25.7653  -24.4775   16.4960 C   0  0  0  0  0  0  0  0  0  0  0  0
  -26.6233  -26.2587    9.5532 C   0  0  0  0  0  0  0  0  0  0  0  0
  -29.5992  -12.3680   18.2678 C   0  0  0  0  0  0  0  0  0  0  0  0
  -27.5667  -25.7697   10.6476 C   0  0  0  0  0  0  0  0  0  0  0  0
  -28.1631  -12.0728   18.7042 C   0  0  0  0  0  0  0  0  0  0  0  0
  -30.5201  -12.5844   19.4667 C   0  0  0  0  0  0  0  0  0  0  0  0
  -28.6227  -13.3106   20.8618 C   0  0  0  0  0  0  0  0  0  0  0  0
  -27.1008  -24.4243   11.2172 C   0  0  1  0  0  0  0  0  0  0  0  0
  -24.8798  -25.0960   14.2254 C   0  0  1  0  0  0  0  0  0  0  0  0
  -27.6449  -13.1403   19.6866 C   0  0  2  0  0  0  0  0  0  0  0  0
  -23.5769  -28.8667   20.8652 C   0  0  0  0  0  0  0  0  0  0  0  0
  -32.5546  -20.4081   15.9834 C   0  0  0  0  0  0  0  0  0  0  0  0
  -30.7424  -20.1451   14.2563 C   0  0  0  0  0  0  0  0  0  0  0  0
  -32.0871  -18.1826   14.9784 C   0  0  0  0  0  0  0  0  0  0  0  0
  -28.1771  -27.6083   16.2691 C   0  0  0  0  0  0  0  0  0  0  0  0
  -27.5923  -28.5260   18.5239 C   0  0  0  0  0  0  0  0  0  0  0  0
  -26.5872  -29.5280   16.4724 C   0  0  0  0  0  0  0  0  0  0  0  0
  -28.9290  -17.7914   15.2034 C   0  0  0  0  0  0  0  0  0  0  0  0
  -21.5062  -26.0172   19.4270 C   0  0  0  0  0  0  0  0  0  0  0  0
  -28.7612  -19.5446   19.8852 C   0  0  0  0  0  0  0  0  0  0  0  0
  -27.2474  -17.7130   17.6968 C   0  0  0  0  0  0  0  0  0  0  0  0
  -29.0370  -18.3666   20.8419 C   0  0  0  0  0  0  0  0  0  0  0  0
  -30.5306  -18.0452   20.9499 C   0  0  0  0  0  0  0  0  0  0  0  0
  -30.8143  -16.8898   21.9043 C   0  0  0  0  0  0  0  0  0  0  0  0
  -26.0813  -18.4227   17.0173 C   0  0  0  0  0  0  0  0  0  1  0  0
  -25.8141  -27.2481   17.2448 C   0  0  1  0  0  0  0  0  0  0  0  0
  -23.0780  -27.9261   19.7793 C   0  0  2  0  0  0  0  0  0  0  0  0
  -31.3836  -19.4788   15.5193 C   0  0  0  0  0  0  0  0  0  0  0  0
  -27.0367  -28.2006   17.1209 C   0  0  0  0  0  0  0  0  0  0  0  0
  -25.8592  -11.5469   20.2822 N   0  0  0  0  0  0  0  0  0  0  0  0
  -29.2751  -18.4950   16.4206 N   0  0  0  0  0  0  0  0  0  0  0  0
  -26.2358  -12.8309   20.1574 N   0  0  0  0  0  0  0  0  0  0  0  0
  -25.2351  -25.5058   15.5856 N   0  0  0  0  0  0  0  0  0  0  0  0
  -29.9724  -13.6097   20.3581 N   0  0  0  0  0  0  0  0  0  0  0  0
  -25.4703  -15.0575   20.4159 N   0  0  0  0  0  0  0  0  0  0  0  0
  -21.8889  -12.5791   21.6105 N   0  0  0  0  0  0  0  0  0  0  0  0
  -25.9960  -24.6180   12.1317 N   0  0  0  0  0  0  0  0  0  0  0  0
  -24.7078  -27.7941   18.0236 N   0  0  0  0  0  0  0  0  0  0  0  0
  -30.1480  -15.6695   21.5070 N   0  0  0  0  0  0  0  0  0  0  0  0
  -22.0954  -26.9851   20.3876 N   0  3  0  0  0  0  0  0  0  0  0  0
  -22.6639  -14.7198   21.3360 O   0  0  0  0  0  0  0  0  0  0  0  0
  -27.2339  -25.1045   14.0431 O   0  0  0  0  0  0  0  0  0  0  0  0
  -24.8029  -27.7572   15.1604 O   0  0  0  0  0  0  0  0  0  0  0  0
  -24.6478  -26.0980   19.6037 O   0  0  0  0  0  0  0  0  0  0  0  0
  -31.8790  -14.9208   20.2032 O   0  0  0  0  0  0  0  0  0  0  0  0
  -21.6156   -7.0156   21.6992 O   0  0  0  0  0  0  0  0  0  0  0  0
  -25.8968  -19.7126   17.5990 O   0  0  0  0  0  0  0  0  0  1  0  0
  -18.6390   -6.8404   26.3374 F   0  0  0  0  0  0  0  0  0  0  0  0
  -22.0717   -5.0650   23.6044 F   0  0  0  0  0  0  0  0  0  0  0  0
  1  2  1  0  0  0  0
  1  5  2  0  0  0  0
  2  6  2  0  0  0  0
  3  8  2  0  0  0  0
  3 16  1  0  0  0  0
  4  9  1  0  0  0  0
  4 16  2  0  0  0  0
  5 18  1  0  0  0  0
  6 20  1  0  0  0  0
  7 10  2  0  0  0  0
  7 19  1  0  0  0  0
  8 23  1  0  0  0  0
  9 23  2  0  0  0  0
 10 24  1  0  0  0  0
 11 12  2  0  0  0  0
 11 25  1  0  0  0  0
 12 26  1  0  0  0  0
 13 21  1  0  0  0  0
 13 24  2  0  0  0  0
 14 22  1  0  0  0  0
 14 29  2  0  0  0  0
 15 26  2  0  0  0  0
 15 27  1  0  0  0  0
 16 28  1  0  0  0  0
 17 28  1  0  0  0  0
 17 31  2  0  0  0  0
 17 32  1  0  0  0  0
 18 20  2  0  0  0  0
 18 37  1  0  0  0  0
 19 21  2  0  0  0  0
 19 38  1  0  0  0  0
 20 46  1  0  0  0  0
 21 39  1  0  0  0  0
 22 30  2  0  0  0  0
 22 58  1  0  0  0  0
 23 84  1  0  0  0  0
 24 85  1  0  0  0  0
 25 27  2  0  0  0  0
 25 84  1  0  0  0  0
 26 86  1  0  0  0  0
 27 87  1  0  0  0  0
 28 68  2  0  0  0  0
 29 66  1  0  0  0  0
 29 69  1  0  0  0  0
 30 59  1  0  0  0  0
 30 69  1  0  0  0  0
 31 70  1  0  0  0  0
 31 73  1  0  0  0  0
 32 74  1  0  0  0  0
 32 79  2  0  0  0  0
 33 47  1  0  0  0  0
 33 75  1  0  0  0  0
 33 80  2  0  0  0  0
 34 64  1  0  0  0  0
 34 71  1  0  0  0  0
 34 81  2  0  0  0  0
 35 65  1  0  0  0  0
 35 76  1  0  0  0  0
 35 82  2  0  0  0  0
 36 72  1  0  0  0  0
 36 77  1  0  0  0  0
 36 83  2  0  0  0  0
 37 40  1  0  0  0  0
 38 47  1  0  0  0  0
 39 71  1  0  0  0  0
 40 42  1  0  0  0  0
 41 43  1  0  0  0  0
 41 44  1  0  0  0  0
 42 46  1  0  0  0  0
 43 48  1  0  0  0  0
 44 72  1  0  0  0  0
 45 48  1  0  0  0  0
 45 72  1  0  0  0  0
 46 75  1  0  0  0  0
 47 71  1  0  0  0  0
 48 70  1  0  0  0  0
 49 65  1  0  0  0  0
 50 66  1  0  0  0  0
 51 66  1  0  0  0  0
 52 66  1  0  0  0  0
 53 67  1  0  0  0  0
 54 67  1  0  0  0  0
 55 67  1  0  0  0  0
 56 69  1  0  0  0  0
 57 78  1  0  0  0  0
 58 60  1  0  0  0  0
 59 63  1  0  0  0  0
 60 61  1  0  0  0  0
 61 62  1  0  0  0  0
 62 77  1  0  0  0  0
 63 85  1  0  0  0  0
 64 67  1  0  0  0  0
 64 76  1  0  0  0  0
 65 78  1  0  0  0  0
 68 70  1  0  0  0  0
M  CHG  1  78   1
M  ISO  4  36 100  63 101  77 100  85 101
M  END
> <Batch ID>
0033

> <Smiles>
CNC(C)C(=O)NC(C(=O)N1Cc2cc([101O:1][101CH2:1]Cc3c(CCCC[100NH:0][100C:0](=O)N4CCCC(n5nc(-c6ccc(Oc7ccc(F)cc7F)cc6)c(C(N)=O)c5N)C4)cc(C(C)(C)C)n3C)ccc2CC1C(=O)NC1CCCc2ccccc21)C(C)(C)C

> <Shape>
0.215

> <Color>
0.196

> <Negative vol penalty>
0.000

$$$$

  -OEChem-04052316483D

 84 92  0     1  0  0  0  0  0999 V2000
  -15.7248  -24.5268   30.1023 C   0  0  0  0  0  0  0  0  0  0  0  0
  -16.9369  -23.8536   29.9882 C   0  0  0  0  0  0  0  0  0  0  0  0
  -23.0756   -9.9190   21.4473 C   0  0  0  0  0  0  0  0  0  0  0  0
  -23.8501  -10.7708   23.5713 C   0  0  0  0  0  0  0  0  0  0  0  0
  -15.1285  -25.0831   28.9715 C   0  0  0  0  0  0  0  0  0  0  0  0
  -17.5528  -23.7352   28.7428 C   0  0  0  0  0  0  0  0  0  0  0  0
  -24.0458  -23.4341   25.7318 C   0  0  0  0  0  0  0  0  0  0  0  0
  -22.3455   -8.9320   22.1092 C   0  0  0  0  0  0  0  0  0  0  0  0
  -23.1199   -9.7838   24.2334 C   0  0  0  0  0  0  0  0  0  0  0  0
  -24.7910  -22.6469   24.8550 C   0  0  0  0  0  0  0  0  0  0  0  0
  -22.9542   -5.9548   23.5891 C   0  0  0  0  0  0  0  0  0  0  0  0
  -23.0258   -4.6536   23.0919 C   0  0  0  0  0  0  0  0  0  0  0  0
  -23.7078  -23.7163   22.9836 C   0  0  0  0  0  0  0  0  0  0  0  0
  -20.6374   -4.6615   22.7273 C   0  0  0  0  0  0  0  0  0  0  0  0
  -23.8280  -10.8384   22.1783 C   0  0  0  0  0  0  0  0  0  0  0  0
  -24.1427  -13.1467   21.1389 C   0  0  0  0  0  0  0  0  0  0  0  0
  -15.7422  -24.9799   27.7132 C   0  0  0  0  0  0  0  0  0  0  0  0
  -23.1166  -24.3622   25.2404 C   0  0  0  0  0  0  0  0  0  0  0  0
  -16.9635  -24.2895   27.5938 C   0  0  0  0  0  0  0  0  0  0  0  0
  -22.9539  -24.5159   23.8562 C   0  0  0  0  0  0  0  0  0  0  0  0
  -27.7474  -21.0661   21.1729 C   0  0  0  0  0  0  0  0  0  0  0  0
  -28.4062  -20.3770   20.1608 C   0  0  0  0  0  0  0  0  0  0  0  0
  -26.9829  -20.3660   22.0995 C   0  0  0  0  0  0  0  0  0  0  0  0
  -22.3675   -8.8644   23.5023 C   0  0  0  0  0  0  0  0  0  0  0  0
  -24.6200  -22.7858   23.4808 C   0  0  0  0  0  0  0  0  0  0  0  0
  -21.7242   -6.6094   23.6555 C   0  0  0  0  0  0  0  0  0  0  0  0
  -21.8674   -4.0069   22.6609 C   0  0  0  0  0  0  0  0  0  0  0  0
  -20.5659   -5.9628   23.2245 C   0  0  0  0  0  0  0  0  0  0  0  0
  -24.5830  -11.8578   21.4950 C   0  0  0  0  0  0  0  0  0  0  0  0
  -28.2696  -18.9988   20.1194 C   0  0  0  0  0  0  0  0  0  0  0  0
  -26.9099  -18.9883   21.9712 C   0  0  0  0  0  0  0  0  0  0  0  0
  -25.2247  -13.7191   20.5159 C   0  0  0  0  0  0  0  0  0  0  0  0
  -22.8696  -13.7707   21.3524 C   0  0  0  0  0  0  0  0  0  0  0  0
  -19.9698  -24.7338   25.4920 C   0  0  0  0  0  0  0  0  0  0  0  0
  -20.5616  -27.4997   23.9039 C   0  0  0  0  0  0  0  0  0  0  0  0
  -22.6080  -29.2614   21.8170 C   0  0  0  0  0  0  0  0  0  0  0  0
  -30.6986  -14.7767   20.2645 C   0  0  0  0  0  0  0  0  0  0  0  0
  -15.0361  -25.5564   26.5116 C   0  0  0  0  0  0  0  0  0  0  0  0
  -22.3398  -25.2227   26.1988 C   0  0  0  0  0  0  0  0  0  0  0  0
  -21.9839  -25.5122   23.2775 C   0  0  0  0  0  0  0  0  0  0  0  0
  -15.9391  -25.7111   25.2906 C   0  0  0  0  0  0  0  0  0  0  0  0
  -29.5706  -11.6756   18.9275 C   0  0  0  0  0  0  0  0  0  0  0  0
  -16.7576  -24.4433   25.0680 C   0  0  0  0  0  0  0  0  0  0  0  0
  -28.1391  -11.5502   19.4519 C   0  0  0  0  0  0  0  0  0  0  0  0
  -30.4931  -12.3275   19.9551 C   0  0  0  0  0  0  0  0  0  0  0  0
  -28.5927  -13.5015   20.9964 C   0  0  0  0  0  0  0  0  0  0  0  0
  -17.6748  -24.1615   26.2642 C   0  0  1  0  0  0  0  0  0  0  0  0
  -21.0501  -25.7727   25.5975 C   0  0  1  0  0  0  0  0  0  0  0  0
  -27.6129  -12.9007   19.9740 C   0  0  2  0  0  0  0  0  0  0  0  0
  -27.8614  -22.5546   21.2635 C   0  0  0  0  0  0  0  0  0  0  0  0
  -29.2341  -21.0995   19.1515 C   0  0  0  0  0  0  0  0  0  0  0  0
  -22.8088  -31.4835   20.6684 C   0  0  0  0  0  0  0  0  0  0  0  0
  -18.4588  -26.6351   21.8690 C   0  0  0  0  0  0  0  0  0  0  0  0
  -19.3661  -28.3634   20.3012 C   0  0  0  0  0  0  0  0  0  0  0  0
  -18.3804  -29.0577   22.4850 C   0  0  0  0  0  0  0  0  0  0  0  0
  -25.1358  -29.8899   23.2221 C   0  0  0  0  0  0  0  0  0  0  0  0
  -26.2642  -21.0908   23.1993 C   0  0  0  0  0  0  0  0  0  1  0  0
  -28.9538  -18.2042   19.0554 C   0  0  0  0  0  0  0  0  0  0  0  0
  -30.4512  -17.9516   19.3145 C   0  0  0  0  0  0  0  0  0  0  0  0
  -30.7499  -17.2312   20.6276 C   0  0  0  0  0  0  0  0  0  0  0  0
  -20.6302  -27.9048   22.4513 C   0  0  1  0  0  0  0  0  0  0  0  0
  -23.1631  -30.6716   21.9045 C   0  0  2  0  0  0  0  0  0  0  0  0
  -19.2258  -27.9700   21.7872 C   0  0  0  0  0  0  0  0  0  0  0  0
  -25.8461  -11.6248   21.1285 N   0  0  0  0  0  0  0  0  0  0  0  0
  -27.5358  -18.2841   21.0017 N   0  0  0  0  0  0  0  0  0  0  0  0
  -26.2087  -12.7750   20.5355 N   0  0  0  0  0  0  0  0  0  0  0  0
  -21.2431  -26.3259   24.2556 N   0  0  0  0  0  0  0  0  0  0  0  0
  -29.9375  -13.6049   20.4085 N   0  0  0  0  0  0  0  0  0  0  0  0
  -25.4207  -14.9329   19.9585 N   0  0  0  0  0  0  0  0  0  0  0  0
  -21.8694  -13.0407   22.0089 N   0  0  0  0  0  0  0  0  0  0  0  0
  -18.8355  -25.0250   26.2255 N   0  0  0  0  0  0  0  0  0  0  0  0
  -21.3684  -29.1626   22.4127 N   0  0  0  0  0  0  0  0  0  0  0  0
  -30.0952  -15.9449   20.7139 N   0  0  0  0  0  0  0  0  0  0  0  0
  -24.6473  -30.6370   22.0346 N   0  3  0  0  0  0  0  0  0  0  0  0
  -22.6209  -14.9351   20.9576 O   0  0  0  0  0  0  0  0  0  0  0  0
  -20.1512  -23.7421   24.7953 O   0  0  0  0  0  0  0  0  0  0  0  0
  -19.9326  -28.2028   24.6987 O   0  0  0  0  0  0  0  0  0  0  0  0
  -23.2119  -28.3406   21.2712 O   0  0  0  0  0  0  0  0  0  0  0  0
  -31.8297  -14.7823   19.7670 O   0  0  0  0  0  0  0  0  0  0  0  0
  -21.6549   -7.9016   24.1486 O   0  0  0  0  0  0  0  0  0  0  0  0
  -25.3456  -22.0182   22.6228 O   0  0  0  0  0  0  0  0  0  1  0  0
  -21.9365   -2.7579   22.1821 F   0  0  0  0  0  0  0  0  0  0  0  0
  -19.3816   -6.5870   23.2847 F   0  0  0  0  0  0  0  0  0  0  0  0
  -25.9979  -18.0089   23.0525 Cl  0  0  0  0  0  0  0  0  0  0  0  0
  1  2  1  0  0  0  0
  1  5  2  0  0  0  0
  2  6  2  0  0  0  0
  3  8  2  0  0  0  0
  3 15  1  0  0  0  0
  4  9  1  0  0  0  0
  4 15  2  0  0  0  0
  5 17  1  0  0  0  0
  6 19  1  0  0  0  0
  7 10  2  0  0  0  0
  7 18  1  0  0  0  0
  8 24  1  0  0  0  0
  9 24  2  0  0  0  0
 10 25  1  0  0  0  0
 11 12  2  0  0  0  0
 11 26  1  0  0  0  0
 12 27  1  0  0  0  0
 13 20  1  0  0  0  0
 13 25  2  0  0  0  0
 14 27  2  0  0  0  0
 14 28  1  0  0  0  0
 15 29  1  0  0  0  0
 16 29  1  0  0  0  0
 16 32  2  0  0  0  0
 16 33  1  0  0  0  0
 17 19  2  0  0  0  0
 17 38  1  0  0  0  0
 18 20  2  0  0  0  0
 18 39  1  0  0  0  0
 19 47  1  0  0  0  0
 20 40  1  0  0  0  0
 21 22  1  0  0  0  0
 21 23  2  0  0  0  0
 21 50  1  0  0  0  0
 22 30  2  0  0  0  0
 22 51  1  0  0  0  0
 23 31  1  0  0  0  0
 23 57  1  0  0  0  0
 24 80  1  0  0  0  0
 25 81  1  0  0  0  0
 26 28  2  0  0  0  0
 26 80  1  0  0  0  0
 27 82  1  0  0  0  0
 28 83  1  0  0  0  0
 29 64  2  0  0  0  0
 30 58  1  0  0  0  0
 30 65  1  0  0  0  0
 31 65  2  0  0  0  0
 31 84  1  0  0  0  0
 32 66  1  0  0  0  0
 32 69  1  0  0  0  0
 33 70  1  0  0  0  0
 33 75  2  0  0  0  0
 34 48  1  0  0  0  0
 34 71  1  0  0  0  0
 34 76  2  0  0  0  0
 35 61  1  0  0  0  0
 35 67  1  0  0  0  0
 35 77  2  0  0  0  0
 36 62  1  0  0  0  0
 36 72  1  0  0  0  0
 36 78  2  0  0  0  0
 37 68  1  0  0  0  0
 37 73  1  0  0  0  0
 37 79  2  0  0  0  0
 38 41  1  0  0  0  0
 39 48  1  0  0  0  0
 40 67  1  0  0  0  0
 41 43  1  0  0  0  0
 42 44  1  0  0  0  0
 42 45  1  0  0  0  0
 43 47  1  0  0  0  0
 44 49  1  0  0  0  0
 45 68  1  0  0  0  0
 46 49  1  0  0  0  0
 46 68  1  0  0  0  0
 47 71  1  0  0  0  0
 48 67  1  0  0  0  0
 49 66  1  0  0  0  0
 52 62  1  0  0  0  0
 53 63  1  0  0  0  0
 54 63  1  0  0  0  0
 55 63  1  0  0  0  0
 56 74  1  0  0  0  0
 57 81  1  0  0  0  0
 58 59  1  0  0  0  0
 59 60  1  0  0  0  0
 60 73  1  0  0  0  0
 61 63  1  0  0  0  0
 61 72  1  0  0  0  0
 62 74  1  0  0  0  0
 64 66  1  0  0  0  0
M  CHG  1  74   1
M  ISO  4  37 100  57 101  73 100  81 101
M  END
> <Batch ID>
0033

> <Smiles>
CNC(C)C(=O)NC(C(=O)N1Cc2cc([101O:1][101CH2:1]c3c(Cl)nc(CCC[100NH:0][100C:0](=O)N4CCCC(n5nc(-c6ccc(Oc7ccc(F)cc7F)cc6)c(C(N)=O)c5N)C4)c(C)c3C)ccc2CC1C(=O)NC1CCCc2ccccc21)C(C)(C)C

> <Shape>
0.276

> <Color>
0.180

> <Negative vol penalty>
0.000

$$$$

  -OEChem-04052316483D

 85 93  0     1  0  0  0  0  0999 V2000
  -18.2584  -27.9851   22.8928 C   0  0  0  0  0  0  0  0  0  0  0  0
  -19.4664  -28.3336   23.4884 C   0  0  0  0  0  0  0  0  0  0  0  0
  -26.7539  -13.4428   21.3010 C   0  0  0  0  0  0  0  0  0  0  0  0
  -26.2536  -14.0193   19.0088 C   0  0  0  0  0  0  0  0  0  0  0  0
  -18.2288  -27.0070   21.8996 C   0  0  0  0  0  0  0  0  0  0  0  0
  -20.6454  -27.7033   23.0918 C   0  0  0  0  0  0  0  0  0  0  0  0
  -27.6497  -28.9660   22.2779 C   0  0  0  0  0  0  0  0  0  0  0  0
  -26.0186  -12.2653   21.1654 C   0  0  0  0  0  0  0  0  0  0  0  0
  -25.5183  -12.8417   18.8731 C   0  0  0  0  0  0  0  0  0  0  0  0
  -28.8883  -28.4428   22.6463 C   0  0  0  0  0  0  0  0  0  0  0  0
  -23.9731   -9.2810   21.5308 C   0  0  0  0  0  0  0  0  0  0  0  0
  -23.0927   -8.9424   22.5584 C   0  0  0  0  0  0  0  0  0  0  0  0
  -28.7275  -26.8240   20.8650 C   0  0  0  0  0  0  0  0  0  0  0  0
  -31.9666  -23.8345   24.4399 C   0  0  0  0  0  0  0  0  0  0  0  0
  -32.6483  -24.4356   22.2015 C   0  0  0  0  0  0  0  0  0  0  0  0
  -21.8844  -11.0040   22.2026 C   0  0  0  0  0  0  0  0  0  0  0  0
  -26.8714  -14.3198   20.2227 C   0  0  0  0  0  0  0  0  0  0  0  0
  -29.0031  -15.7162   20.1076 C   0  0  0  0  0  0  0  0  0  0  0  0
  -19.4093  -26.3713   21.4839 C   0  0  0  0  0  0  0  0  0  0  0  0
  -26.9344  -28.4142   21.2054 C   0  0  0  0  0  0  0  0  0  0  0  0
  -20.6313  -26.7148   22.0931 C   0  0  0  0  0  0  0  0  0  0  0  0
  -27.4811  -27.3437   20.4834 C   0  0  0  0  0  0  0  0  0  0  0  0
  -32.3180  -24.8077   23.5046 C   0  0  0  0  0  0  0  0  0  0  0  0
  -31.9455  -22.4891   24.0723 C   0  0  0  0  0  0  0  0  0  0  0  0
  -32.6272  -23.0902   21.8337 C   0  0  0  0  0  0  0  0  0  0  0  0
  -25.4009  -11.9647   19.9515 C   0  0  0  0  0  0  0  0  0  0  0  0
  -29.4261  -27.3698   21.9416 C   0  0  0  0  0  0  0  0  0  0  0  0
  -23.8091  -10.4812   20.8391 C   0  0  0  0  0  0  0  0  0  0  0  0
  -22.0484   -9.8038   22.8943 C   0  0  0  0  0  0  0  0  0  0  0  0
  -22.7648  -11.3427   21.1750 C   0  0  0  0  0  0  0  0  0  0  0  0
  -32.2758  -22.1169   22.7692 C   0  0  0  0  0  0  0  0  0  0  0  0
  -27.6303  -15.5366   20.3623 C   0  0  0  0  0  0  0  0  0  0  0  0
  -29.2342  -17.0405   20.3894 C   0  0  0  0  0  0  0  0  0  0  0  0
  -29.9819  -14.7706   19.6566 C   0  0  0  0  0  0  0  0  0  0  0  0
  -24.1150  -26.9804   20.8905 C   0  0  0  0  0  0  0  0  0  0  0  0
  -24.8353  -27.1188   17.7307 C   0  0  0  0  0  0  0  0  0  0  0  0
  -27.2339  -27.3341   15.3127 C   0  0  0  0  0  0  0  0  0  0  0  0
  -27.7709  -22.4154   20.0511 C   0  0  0  0  0  0  0  0  0  0  0  0
  -19.3207  -25.2864   20.4399 C   0  0  0  0  0  0  0  0  0  0  0  0
  -25.6117  -29.0073   20.8038 C   0  0  0  0  0  0  0  0  0  0  0  0
  -26.7625  -26.7284   19.3115 C   0  0  0  0  0  0  0  0  0  0  0  0
  -20.6670  -24.9329   19.8132 C   0  0  0  0  0  0  0  0  0  0  0  0
  -26.3043  -20.4839   22.6577 C   0  0  0  0  0  0  0  0  0  0  0  0
  -21.7314  -24.7667   20.8931 C   0  0  0  0  0  0  0  0  0  0  0  0
  -26.6263  -19.0400   22.2686 C   0  0  0  0  0  0  0  0  0  0  0  0
  -26.0136  -21.3472   21.4321 C   0  0  0  0  0  0  0  0  0  0  0  0
  -27.3826  -19.8770   20.0045 C   0  0  0  0  0  0  0  0  0  0  0  0
  -21.9349  -26.0714   21.6726 C   0  0  1  0  0  0  0  0  0  0  0  0
  -24.7349  -28.0361   20.0194 C   0  0  1  0  0  0  0  0  0  0  0  0
  -27.7376  -18.9809   21.2033 C   0  0  2  0  0  0  0  0  0  0  0  0
  -31.5631  -21.4807   25.1077 C   0  0  0  0  0  0  0  0  0  0  0  0
  -27.5191  -27.3872   12.8200 C   0  0  0  0  0  0  0  0  0  0  0  0
  -24.3259  -24.1127   17.6109 C   0  0  0  0  0  0  0  0  0  0  0  0
  -25.5189  -24.0688   15.4102 C   0  0  0  0  0  0  0  0  0  0  0  0
  -23.4259  -25.4016   15.6659 C   0  0  0  0  0  0  0  0  0  0  0  0
  -28.4713  -30.0213   15.3950 C   0  0  0  0  0  0  0  0  0  0  0  0
  -32.3407  -26.2635   23.9024 C   0  0  0  0  0  0  0  0  0  0  0  0
  -32.9886  -22.7376   20.4265 C   0  0  0  0  0  0  0  0  0  0  0  0
  -31.7517  -22.4190   19.5746 C   0  0  0  0  0  0  0  0  0  0  0  0
  -30.8105  -23.6232   19.4750 C   0  0  0  0  0  0  0  0  0  0  0  0
  -29.5791  -23.3360   18.6220 C   0  0  0  0  0  0  0  0  0  0  0  0
  -30.9967  -26.9473   23.6768 C   0  0  0  0  0  0  0  0  0  1  0  0
  -25.5555  -26.2166   16.7579 C   0  0  1  0  0  0  0  0  0  0  0  0
  -27.3482  -28.2169   14.0830 C   0  0  2  0  0  0  0  0  0  0  0  0
  -24.7194  -24.9601   16.3845 C   0  0  0  0  0  0  0  0  0  0  0  0
  -27.0314  -16.6571   20.7743 N   0  0  0  0  0  0  0  0  0  0  0  0
  -28.0326  -17.5535   20.7808 N   0  0  0  0  0  0  0  0  0  0  0  0
  -25.4696  -27.3394   18.9615 N   0  0  0  0  0  0  0  0  0  0  0  0
  -27.1064  -21.2480   20.4616 N   0  0  0  0  0  0  0  0  0  0  0  0
  -30.3460  -17.8045   20.3381 N   0  0  0  0  0  0  0  0  0  0  0  0
  -29.5747  -13.4515   19.4146 N   0  0  0  0  0  0  0  0  0  0  0  0
  -22.7334  -27.0009   20.9027 N   0  0  0  0  0  0  0  0  0  0  0  0
  -25.9193  -27.0524   15.6188 N   0  0  0  0  0  0  0  0  0  0  0  0
  -28.7985  -22.2318   19.1339 N   0  0  0  0  0  0  0  0  0  0  0  0
  -28.5196  -29.1297   14.2077 N   0  3  0  0  0  0  0  0  0  0  0  0
  -31.1855  -15.0820   19.4895 O   0  0  0  0  0  0  0  0  0  0  0  0
  -24.8367  -26.2037   21.5050 O   0  0  0  0  0  0  0  0  0  0  0  0
  -23.7533  -27.6153   17.4077 O   0  0  0  0  0  0  0  0  0  0  0  0
  -28.2131  -26.9315   15.9369 O   0  0  0  0  0  0  0  0  0  0  0  0
  -27.4742  -23.5376   20.4748 O   0  0  0  0  0  0  0  0  0  0  0  0
  -24.6835  -10.8156   19.8187 O   0  0  0  0  0  0  0  0  0  0  0  0
  -30.6347  -26.8567   22.2994 O   0  0  0  0  0  0  0  0  0  1  0  0
  -21.2021   -9.4778   23.8800 F   0  0  0  0  0  0  0  0  0  0  0  0
  -22.6015  -12.4965   20.5134 F   0  0  0  0  0  0  0  0  0  0  0  0
  -32.2498  -20.4466   22.3127 Cl  0  0  0  0  0  0  0  0  0  0  0  0
  1  2  1  0  0  0  0
  1  5  2  0  0  0  0
  2  6  2  0  0  0  0
  3  8  2  0  0  0  0
  3 17  1  0  0  0  0
  4  9  1  0  0  0  0
  4 17  2  0  0  0  0
  5 19  1  0  0  0  0
  6 21  1  0  0  0  0
  7 10  2  0  0  0  0
  7 20  1  0  0  0  0
  8 26  1  0  0  0  0
  9 26  2  0  0  0  0
 10 27  1  0  0  0  0
 11 12  2  0  0  0  0
 11 28  1  0  0  0  0
 12 29  1  0  0  0  0
 13 22  1  0  0  0  0
 13 27  2  0  0  0  0
 14 23  1  0  0  0  0
 14 24  2  0  0  0  0
 15 23  2  0  0  0  0
 15 25  1  0  0  0  0
 16 29  2  0  0  0  0
 16 30  1  0  0  0  0
 17 32  1  0  0  0  0
 18 32  1  0  0  0  0
 18 33  2  0  0  0  0
 18 34  1  0  0  0  0
 19 21  2  0  0  0  0
 19 39  1  0  0  0  0
 20 22  2  0  0  0  0
 20 40  1  0  0  0  0
 21 48  1  0  0  0  0
 22 41  1  0  0  0  0
 23 57  1  0  0  0  0
 24 31  1  0  0  0  0
 24 51  1  0  0  0  0
 25 31  2  0  0  0  0
 25 58  1  0  0  0  0
 26 81  1  0  0  0  0
 27 82  1  0  0  0  0
 28 30  2  0  0  0  0
 28 81  1  0  0  0  0
 29 83  1  0  0  0  0
 30 84  1  0  0  0  0
 31 85  1  0  0  0  0
 32 66  2  0  0  0  0
 33 67  1  0  0  0  0
 33 70  1  0  0  0  0
 34 71  1  0  0  0  0
 34 76  2  0  0  0  0
 35 49  1  0  0  0  0
 35 72  1  0  0  0  0
 35 77  2  0  0  0  0
 36 63  1  0  0  0  0
 36 68  1  0  0  0  0
 36 78  2  0  0  0  0
 37 64  1  0  0  0  0
 37 73  1  0  0  0  0
 37 79  2  0  0  0  0
 38 69  1  0  0  0  0
 38 74  1  0  0  0  0
 38 80  2  0  0  0  0
 39 42  1  0  0  0  0
 40 49  1  0  0  0  0
 41 68  1  0  0  0  0
 42 44  1  0  0  0  0
 43 45  1  0  0  0  0
 43 46  1  0  0  0  0
 44 48  1  0  0  0  0
 45 50  1  0  0  0  0
 46 69  1  0  0  0  0
 47 50  1  0  0  0  0
 47 69  1  0  0  0  0
 48 72  1  0  0  0  0
 49 68  1  0  0  0  0
 50 67  1  0  0  0  0
 52 64  1  0  0  0  0
 53 65  1  0  0  0  0
 54 65  1  0  0  0  0
 55 65  1  0  0  0  0
 56 75  1  0  0  0  0
 57 62  1  0  0  0  0
 58 59  1  0  0  0  0
 59 60  1  0  0  0  0
 60 61  1  0  0  0  0
 61 74  1  0  0  0  0
 62 82  1  0  0  0  0
 63 65  1  0  0  0  0
 63 73  1  0  0  0  0
 64 75  1  0  0  0  0
 66 67  1  0  0  0  0
M  CHG  1  75   1
M  ISO  4  38 100  62 101  74 100  82 101
M  END
> <Batch ID>
0033

> <Smiles>
CNC(C)C(=O)NC(C(=O)N1Cc2cc([101O:1][101CH2:1]Cc3cc(C)c(Cl)c(CCCC[100NH:0][100C:0](=O)N4CCCC(n5nc(-c6ccc(Oc7ccc(F)cc7F)cc6)c(C(N)=O)c5N)C4)c3)ccc2CC1C(=O)NC1CCCc2ccccc21)C(C)(C)C

> <Shape>
0.230

> <Color>
0.071

> <Negative vol penalty>
0.000

$$$$

  -OEChem-04052316483D

 86 94  0     1  0  0  0  0  0999 V2000
  -18.1126  -24.9406   20.9608 C   0  0  0  0  0  0  0  0  0  0  0  0
  -19.4407  -24.9464   20.5465 C   0  0  0  0  0  0  0  0  0  0  0  0
  -24.6157  -14.0620   22.1752 C   0  0  0  0  0  0  0  0  0  0  0  0
  -25.6864  -14.5295   20.0604 C   0  0  0  0  0  0  0  0  0  0  0  0
  -17.6570  -25.9124   21.8507 C   0  0  0  0  0  0  0  0  0  0  0  0
  -20.3136  -25.9247   21.0211 C   0  0  0  0  0  0  0  0  0  0  0  0
  -24.7915  -24.0188   22.4217 C   0  0  0  0  0  0  0  0  0  0  0  0
  -24.7825  -12.6944   21.9573 C   0  0  0  0  0  0  0  0  0  0  0  0
  -25.8533  -13.1619   19.8426 C   0  0  0  0  0  0  0  0  0  0  0  0
  -25.6980  -23.7119   21.4079 C   0  0  0  0  0  0  0  0  0  0  0  0
  -24.6043   -9.0662   21.7907 C   0  0  0  0  0  0  0  0  0  0  0  0
  -23.5204   -8.2290   22.0546 C   0  0  0  0  0  0  0  0  0  0  0  0
  -26.8630  -25.7814   21.8315 C   0  0  0  0  0  0  0  0  0  0  0  0
  -29.7576  -24.0701   16.4317 C   0  0  0  0  0  0  0  0  0  0  0  0
  -30.8616  -24.5338   18.9514 C   0  0  0  0  0  0  0  0  0  0  0  0
  -22.2021   -9.4192   20.4168 C   0  0  0  0  0  0  0  0  0  0  0  0
  -25.0676  -14.9796   21.2267 C   0  0  0  0  0  0  0  0  0  0  0  0
  -25.7901  -17.2661   22.0969 C   0  0  0  0  0  0  0  0  0  0  0  0
  -18.5271  -26.8974   22.3439 C   0  0  0  0  0  0  0  0  0  0  0  0
  -24.9076  -25.2164   23.1419 C   0  0  0  0  0  0  0  0  0  0  0  0
  -19.8689  -26.9114   21.9174 C   0  0  0  0  0  0  0  0  0  0  0  0
  -25.9582  -26.0999   22.8556 C   0  0  0  0  0  0  0  0  0  0  0  0
  -31.1171  -23.8470   16.6492 C   0  0  0  0  0  0  0  0  0  0  0  0
  -31.6692  -24.0788   17.9090 C   0  0  0  0  0  0  0  0  0  0  0  0
  -28.9500  -24.5252   17.4740 C   0  0  0  0  0  0  0  0  0  0  0  0
  -29.5020  -24.7570   18.7338 C   0  0  0  0  0  0  0  0  0  0  0  0
  -25.4013  -12.2443   20.7911 C   0  0  0  0  0  0  0  0  0  0  0  0
  -26.7323  -24.5946   21.1107 C   0  0  0  0  0  0  0  0  0  0  0  0
  -24.4871  -10.0800   20.8398 C   0  0  0  0  0  0  0  0  0  0  0  0
  -22.3193   -8.4054   21.3677 C   0  0  0  0  0  0  0  0  0  0  0  0
  -23.2861  -10.2565   20.1528 C   0  0  0  0  0  0  0  0  0  0  0  0
  -24.8951  -16.3924   21.4509 C   0  0  0  0  0  0  0  0  0  0  0  0
  -25.1681  -18.4899   22.0516 C   0  0  0  0  0  0  0  0  0  0  0  0
  -27.0693  -16.9957   22.6853 C   0  0  0  0  0  0  0  0  0  0  0  0
  -23.0714  -27.7798   23.5430 C   0  0  0  0  0  0  0  0  0  0  0  0
  -25.3647  -28.6063   25.6830 C   0  0  0  0  0  0  0  0  0  0  0  0
  -28.5991  -28.2982   26.7275 C   0  0  0  0  0  0  0  0  0  0  0  0
  -21.0654  -20.8451   18.3812 C   0  0  0  0  0  0  0  0  0  0  0  0
  -17.9772  -27.9554   23.2674 C   0  0  0  0  0  0  0  0  0  0  0  0
  -23.9375  -25.5203   24.2504 C   0  0  0  0  0  0  0  0  0  0  0  0
  -26.1388  -27.3892   23.6130 C   0  0  0  0  0  0  0  0  0  0  0  0
  -19.0576  -28.7331   24.0145 C   0  0  0  0  0  0  0  0  0  0  0  0
  -20.8178  -20.4764   21.9138 C   0  0  0  0  0  0  0  0  0  0  0  0
  -20.1660  -29.1602   23.0576 C   0  0  0  0  0  0  0  0  0  0  0  0
  -21.9154  -19.4668   22.2541 C   0  0  0  0  0  0  0  0  0  0  0  0
  -20.1508  -20.1563   20.5779 C   0  0  0  0  0  0  0  0  0  0  0  0
  -22.1770  -19.0012   19.7815 C   0  0  0  0  0  0  0  0  0  0  0  0
  -20.8524  -27.9414   22.4292 C   0  0  1  0  0  0  0  0  0  0  0  0
  -23.8464  -27.0084   24.5736 C   0  0  1  0  0  0  0  0  0  0  0  0
  -22.9168  -19.3147   21.0933 C   0  0  2  0  0  0  0  0  0  0  0  0
  -31.9619  -23.3590   15.5184 C   0  0  0  0  0  0  0  0  0  0  0  0
  -33.1220  -23.8464   18.1656 C   0  0  0  0  0  0  0  0  0  0  0  0
  -30.1893  -29.1254   28.4837 C   0  0  0  0  0  0  0  0  0  0  0  0
  -25.6061  -31.2664   24.2080 C   0  0  0  0  0  0  0  0  0  0  0  0
  -27.7925  -31.6334   25.3713 C   0  0  0  0  0  0  0  0  0  0  0  0
  -25.6905  -31.4445   26.7012 C   0  0  0  0  0  0  0  0  0  0  0  0
  -29.0322  -25.5686   27.7862 C   0  0  0  0  0  0  0  0  0  0  0  0
  -27.4972  -24.7578   17.2173 C   0  0  0  0  0  0  0  0  0  0  0  0
  -28.6533  -25.2473   19.8699 C   0  0  0  0  0  0  0  0  0  1  0  0
  -26.6522  -23.4737   17.1479 C   0  0  0  0  0  0  0  0  0  0  0  0
  -25.1818  -23.7471   16.8159 C   0  0  0  0  0  0  0  0  0  0  0  0
  -24.3815  -22.4451   16.7302 C   0  0  0  0  0  0  0  0  0  0  0  0
  -22.9203  -22.7157   16.3596 C   0  0  0  0  0  0  0  0  0  0  0  0
  -22.1074  -21.4344   16.2072 C   0  0  0  0  0  0  0  0  0  0  0  0
  -26.6610  -29.3772   25.6167 C   0  0  1  0  0  0  0  0  0  0  0  0
  -29.1942  -28.0412   28.1002 C   0  0  2  0  0  0  0  0  0  0  0  0
  -26.4333  -30.9071   25.4585 C   0  0  0  0  0  0  0  0  0  0  0  0
  -23.7888  -17.0087   21.0264 N   0  0  0  0  0  0  0  0  0  0  0  0
  -23.9844  -18.2828   21.4066 N   0  0  0  0  0  0  0  0  0  0  0  0
  -25.1608  -27.6444   24.6836 N   0  0  0  0  0  0  0  0  0  0  0  0
  -21.1550  -20.0266   19.5192 N   0  0  0  0  0  0  0  0  0  0  0  0
  -25.5238  -19.7122   22.5010 N   0  0  0  0  0  0  0  0  0  0  0  0
  -27.5596  -15.6834   22.6443 N   0  0  0  0  0  0  0  0  0  0  0  0
  -21.7732  -27.3393   23.3693 N   0  0  0  0  0  0  0  0  0  0  0  0
  -27.4183  -29.0057   26.8070 N   0  0  0  0  0  0  0  0  0  0  0  0
  -22.0607  -20.6624   17.4290 N   0  0  0  0  0  0  0  0  0  0  0  0
  -29.8983  -26.7279   28.1219 N   0  3  0  0  0  0  0  0  0  0  0  0
  -27.7497  -17.8881   23.2458 O   0  0  0  0  0  0  0  0  0  0  0  0
  -23.6107  -28.7070   22.9505 O   0  0  0  0  0  0  0  0  0  0  0  0
  -24.5658  -28.8437   26.5925 O   0  0  0  0  0  0  0  0  0  0  0  0
  -29.1306  -27.9132   25.6883 O   0  0  0  0  0  0  0  0  0  0  0  0
  -20.1682  -21.6808   18.2278 O   0  0  0  0  0  0  0  0  0  0  0  0
  -25.5644  -10.9099   20.5783 O   0  0  0  0  0  0  0  0  0  0  0  0
  -27.6181  -24.2978   20.1212 O   0  0  0  0  0  0  0  0  0  1  0  0
  -21.2790   -7.6004   21.6202 F   0  0  0  0  0  0  0  0  0  0  0  0
  -23.1679  -11.2280   19.2374 F   0  0  0  0  0  0  0  0  0  0  0  0
  1  2  1  0  0  0  0
  1  5  2  0  0  0  0
  2  6  2  0  0  0  0
  3  8  2  0  0  0  0
  3 17  1  0  0  0  0
  4  9  1  0  0  0  0
  4 17  2  0  0  0  0
  5 19  1  0  0  0  0
  6 21  1  0  0  0  0
  7 10  2  0  0  0  0
  7 20  1  0  0  0  0
  8 27  1  0  0  0  0
  9 27  2  0  0  0  0
 10 28  1  0  0  0  0
 11 12  2  0  0  0  0
 11 29  1  0  0  0  0
 12 30  1  0  0  0  0
 13 22  1  0  0  0  0
 13 28  2  0  0  0  0
 14 23  2  0  0  0  0
 14 25  1  0  0  0  0
 15 24  2  0  0  0  0
 15 26  1  0  0  0  0
 16 30  2  0  0  0  0
 16 31  1  0  0  0  0
 17 32  1  0  0  0  0
 18 32  1  0  0  0  0
 18 33  2  0  0  0  0
 18 34  1  0  0  0  0
 19 21  2  0  0  0  0
 19 39  1  0  0  0  0
 20 22  2  0  0  0  0
 20 40  1  0  0  0  0
 21 48  1  0  0  0  0
 22 41  1  0  0  0  0
 23 24  1  0  0  0  0
 23 51  1  0  0  0  0
 24 52  1  0  0  0  0
 25 26  2  0  0  0  0
 25 58  1  0  0  0  0
 26 59  1  0  0  0  0
 27 83  1  0  0  0  0
 28 84  1  0  0  0  0
 29 31  2  0  0  0  0
 29 83  1  0  0  0  0
 30 85  1  0  0  0  0
 31 86  1  0  0  0  0
 32 68  2  0  0  0  0
 33 69  1  0  0  0  0
 33 72  1  0  0  0  0
 34 73  1  0  0  0  0
 34 78  2  0  0  0  0
 35 49  1  0  0  0  0
 35 74  1  0  0  0  0
 35 79  2  0  0  0  0
 36 65  1  0  0  0  0
 36 70  1  0  0  0  0
 36 80  2  0  0  0  0
 37 66  1  0  0  0  0
 37 75  1  0  0  0  0
 37 81  2  0  0  0  0
 38 71  1  0  0  0  0
 38 76  1  0  0  0  0
 38 82  2  0  0  0  0
 39 42  1  0  0  0  0
 40 49  1  0  0  0  0
 41 70  1  0  0  0  0
 42 44  1  0  0  0  0
 43 45  1  0  0  0  0
 43 46  1  0  0  0  0
 44 48  1  0  0  0  0
 45 50  1  0  0  0  0
 46 71  1  0  0  0  0
 47 50  1  0  0  0  0
 47 71  1  0  0  0  0
 48 74  1  0  0  0  0
 49 70  1  0  0  0  0
 50 69  1  0  0  0  0
 53 66  1  0  0  0  0
 54 67  1  0  0  0  0
 55 67  1  0  0  0  0
 56 67  1  0  0  0  0
 57 77  1  0  0  0  0
 58 60  1  0  0  0  0
 59 84  1  0  0  0  0
 60 61  1  0  0  0  0
 61 62  1  0  0  0  0
 62 63  1  0  0  0  0
 63 64  1  0  0  0  0
 64 76  1  0  0  0  0
 65 67  1  0  0  0  0
 65 75  1  0  0  0  0
 66 77  1  0  0  0  0
 68 69  1  0  0  0  0
M  CHG  1  77   1
M  ISO  4  38 100  59 101  76 100  84 101
M  END
> <Batch ID>
0033

> <Smiles>
CNC(C)C(=O)NC(C(=O)N1Cc2cc([101O:1][101CH2:1]c3cc(C)c(C)cc3CCCCCC[100NH:0][100C:0](=O)N3CCCC(n4nc(-c5ccc(Oc6ccc(F)cc6F)cc5)c(C(N)=O)c4N)C3)ccc2CC1C(=O)NC1CCCc2ccccc21)C(C)(C)C

> <Shape>
0.198

> <Color>
0.088

> <Negative vol penalty>
0.000

$$$$

  -OEChem-04052316483D

 84 92  0     1  0  0  0  0  0999 V2000
  -31.9223  -25.1281   19.6871 C   0  0  0  0  0  0  0  0  0  0  0  0
  -31.0800  -24.7220   20.7172 C   0  0  0  0  0  0  0  0  0  0  0  0
  -27.8739  -16.6686   18.8592 C   0  0  0  0  0  0  0  0  0  0  0  0
  -28.5057  -16.5456   21.1879 C   0  0  0  0  0  0  0  0  0  0  0  0
  -31.8625  -26.4386   19.2150 C   0  0  0  0  0  0  0  0  0  0  0  0
  -30.1781  -25.6266   21.2765 C   0  0  0  0  0  0  0  0  0  0  0  0
  -25.5694  -23.6288   21.9195 C   0  0  0  0  0  0  0  0  0  0  0  0
  -28.7310  -17.7550   18.6840 C   0  0  0  0  0  0  0  0  0  0  0  0
  -29.3629  -17.6319   21.0127 C   0  0  0  0  0  0  0  0  0  0  0  0
  -25.3888  -22.7835   23.0134 C   0  0  0  0  0  0  0  0  0  0  0  0
  -30.4835  -20.7887   17.7098 C   0  0  0  0  0  0  0  0  0  0  0  0
  -30.0056  -21.8845   16.9912 C   0  0  0  0  0  0  0  0  0  0  0  0
  -24.3695  -24.5951   24.2374 C   0  0  0  0  0  0  0  0  0  0  0  0
  -25.5292  -20.5614   27.5130 C   0  0  0  0  0  0  0  0  0  0  0  0
  -23.6988  -19.4407   26.4036 C   0  0  0  0  0  0  0  0  0  0  0  0
  -28.2330  -22.1714   18.6076 C   0  0  0  0  0  0  0  0  0  0  0  0
  -27.7612  -16.0639   20.1112 C   0  0  0  0  0  0  0  0  0  0  0  0
  -27.1878  -13.5783   20.1363 C   0  0  0  0  0  0  0  0  0  0  0  0
  -30.9527  -27.3571   19.7622 C   0  0  0  0  0  0  0  0  0  0  0  0
  -25.1605  -24.9688   21.9803 C   0  0  0  0  0  0  0  0  0  0  0  0
  -30.1070  -26.9510   20.8121 C   0  0  0  0  0  0  0  0  0  0  0  0
  -24.5436  -25.4547   23.1420 C   0  0  0  0  0  0  0  0  0  0  0  0
  -24.7571  -20.3489   26.3710 C   0  0  0  0  0  0  0  0  0  0  0  0
  -25.2432  -19.8657   28.6877 C   0  0  0  0  0  0  0  0  0  0  0  0
  -23.4127  -18.7450   27.5783 C   0  0  0  0  0  0  0  0  0  0  0  0
  -29.4756  -18.2366   19.7607 C   0  0  0  0  0  0  0  0  0  0  0  0
  -24.7914  -23.2674   24.1736 C   0  0  0  0  0  0  0  0  0  0  0  0
  -29.8361  -20.3842   18.8773 C   0  0  0  0  0  0  0  0  0  0  0  0
  -28.8804  -22.5759   17.4401 C   0  0  0  0  0  0  0  0  0  0  0  0
  -28.7109  -21.0755   19.3262 C   0  0  0  0  0  0  0  0  0  0  0  0
  -24.1849  -18.9575   28.7203 C   0  0  0  0  0  0  0  0  0  0  0  0
  -26.8755  -14.9421   20.2929 C   0  0  0  0  0  0  0  0  0  0  0  0
  -26.0149  -12.9226   20.4208 C   0  0  0  0  0  0  0  0  0  0  0  0
  -28.4273  -12.9596   19.7668 C   0  0  0  0  0  0  0  0  0  0  0  0
  -26.6380  -27.7761   21.7808 C   0  0  0  0  0  0  0  0  0  0  0  0
  -23.6098  -28.9360   21.8627 C   0  0  0  0  0  0  0  0  0  0  0  0
  -20.3511  -28.4673   22.7615 C   0  0  0  0  0  0  0  0  0  0  0  0
  -21.2295  -14.3708   23.7154 C   0  0  0  0  0  0  0  0  0  0  0  0
  -30.9575  -28.7760   19.2510 C   0  0  0  0  0  0  0  0  0  0  0  0
  -25.3382  -25.8606   20.7822 C   0  0  0  0  0  0  0  0  0  0  0  0
  -24.0686  -26.8798   23.2508 C   0  0  0  0  0  0  0  0  0  0  0  0
  -29.7134  -29.5689   19.6431 C   0  0  0  0  0  0  0  0  0  0  0  0
  -21.2682  -13.5013   20.2630 C   0  0  0  0  0  0  0  0  0  0  0  0
  -29.3969  -29.3688   21.1218 C   0  0  0  0  0  0  0  0  0  0  0  0
  -22.7378  -13.6489   19.8650 C   0  0  0  0  0  0  0  0  0  0  0  0
  -20.8481  -14.5645   21.2754 C   0  0  0  0  0  0  0  0  0  0  0  0
  -23.1661  -14.7904   22.0814 C   0  0  0  0  0  0  0  0  0  0  0  0
  -29.0981  -27.8961   21.4276 C   0  0  1  0  0  0  0  0  0  0  0  0
  -25.3505  -27.3440   21.1381 C   0  0  1  0  0  0  0  0  0  0  0  0
  -23.6513  -13.7059   21.1042 C   0  0  2  0  0  0  0  0  0  0  0  0
  -26.0973  -20.1251   29.8870 C   0  0  0  0  0  0  0  0  0  0  0  0
  -18.1159  -29.6077   22.7320 C   0  0  0  0  0  0  0  0  0  0  0  0
  -24.4830  -30.7023   24.1925 C   0  0  0  0  0  0  0  0  0  0  0  0
  -22.0652  -31.0835   24.7188 C   0  0  0  0  0  0  0  0  0  0  0  0
  -22.9958  -31.8306   22.5282 C   0  0  0  0  0  0  0  0  0  0  0  0
  -19.1625  -26.3483   21.0714 C   0  0  0  0  0  0  0  0  0  0  0  0
  -22.2695  -17.7816   27.5671 C   0  0  0  0  0  0  0  0  0  0  0  0
  -25.0647  -21.0973   25.1074 C   0  0  0  0  0  0  0  0  0  1  0  0
  -22.6315  -16.4632   26.8684 C   0  0  0  0  0  0  0  0  0  0  0  0
  -21.4415  -15.4997   26.8315 C   0  0  0  0  0  0  0  0  0  0  0  0
  -21.7721  -14.1863   26.1301 C   0  0  0  0  0  0  0  0  0  0  0  0
  -22.6571  -29.3615   22.9537 C   0  0  1  0  0  0  0  0  0  0  0  0
  -19.0561  -28.6667   21.9949 C   0  0  2  0  0  0  0  0  0  0  0  0
  -23.0609  -30.7181   23.5973 C   0  0  0  0  0  0  0  0  0  0  0  0
  -25.6038  -15.1422   20.6491 N   0  0  0  0  0  0  0  0  0  0  0  0
  -25.1067  -13.8956   20.7185 N   0  0  0  0  0  0  0  0  0  0  0  0
  -24.2703  -27.7143   22.0548 N   0  0  0  0  0  0  0  0  0  0  0  0
  -21.7538  -14.5653   22.4268 N   0  0  0  0  0  0  0  0  0  0  0  0
  -25.6822  -11.6145   20.4427 N   0  0  0  0  0  0  0  0  0  0  0  0
  -29.5333  -13.7809   19.5093 N   0  0  0  0  0  0  0  0  0  0  0  0
  -27.7579  -27.5535   21.0024 N   0  0  0  0  0  0  0  0  0  0  0  0
  -21.3254  -29.3556   22.3580 N   0  0  0  0  0  0  0  0  0  0  0  0
  -22.1572  -14.3794   24.7498 N   0  0  0  0  0  0  0  0  0  0  0  0
  -18.3611  -27.3623   21.8040 N   0  3  0  0  0  0  0  0  0  0  0  0
  -28.5459  -11.7161   19.6520 O   0  0  0  0  0  0  0  0  0  0  0  0
  -26.6170  -28.2758   22.8995 O   0  0  0  0  0  0  0  0  0  0  0  0
  -23.7570  -29.6576   20.8731 O   0  0  0  0  0  0  0  0  0  0  0  0
  -20.4838  -27.6117   23.6338 O   0  0  0  0  0  0  0  0  0  0  0  0
  -20.0247  -14.1966   23.9276 O   0  0  0  0  0  0  0  0  0  0  0  0
  -30.3123  -19.2965   19.5900 O   0  0  0  0  0  0  0  0  0  0  0  0
  -24.6146  -22.4446   25.2430 O   0  0  0  0  0  0  0  0  0  1  0  0
  -28.4225  -23.6291   16.7508 F   0  0  0  0  0  0  0  0  0  0  0  0
  -28.0854  -20.6924   20.4477 F   0  0  0  0  0  0  0  0  0  0  0  0
  -23.8299  -18.0936   30.1787 Cl  0  0  0  0  0  0  0  0  0  0  0  0
  1  2  1  0  0  0  0
  1  5  2  0  0  0  0
  2  6  2  0  0  0  0
  3  8  2  0  0  0  0
  3 17  1  0  0  0  0
  4  9  1  0  0  0  0
  4 17  2  0  0  0  0
  5 19  1  0  0  0  0
  6 21  1  0  0  0  0
  7 10  2  0  0  0  0
  7 20  1  0  0  0  0
  8 26  1  0  0  0  0
  9 26  2  0  0  0  0
 10 27  1  0  0  0  0
 11 12  2  0  0  0  0
 11 28  1  0  0  0  0
 12 29  1  0  0  0  0
 13 22  1  0  0  0  0
 13 27  2  0  0  0  0
 14 23  1  0  0  0  0
 14 24  2  0  0  0  0
 15 23  2  0  0  0  0
 15 25  1  0  0  0  0
 16 29  2  0  0  0  0
 16 30  1  0  0  0  0
 17 32  1  0  0  0  0
 18 32  1  0  0  0  0
 18 33  2  0  0  0  0
 18 34  1  0  0  0  0
 19 21  2  0  0  0  0
 19 39  1  0  0  0  0
 20 22  2  0  0  0  0
 20 40  1  0  0  0  0
 21 48  1  0  0  0  0
 22 41  1  0  0  0  0
 23 58  1  0  0  0  0
 24 31  1  0  0  0  0
 24 51  1  0  0  0  0
 25 31  2  0  0  0  0
 25 57  1  0  0  0  0
 26 80  1  0  0  0  0
 27 81  1  0  0  0  0
 28 30  2  0  0  0  0
 28 80  1  0  0  0  0
 29 82  1  0  0  0  0
 30 83  1  0  0  0  0
 31 84  1  0  0  0  0
 32 65  2  0  0  0  0
 33 66  1  0  0  0  0
 33 69  1  0  0  0  0
 34 70  1  0  0  0  0
 34 75  2  0  0  0  0
 35 49  1  0  0  0  0
 35 71  1  0  0  0  0
 35 76  2  0  0  0  0
 36 62  1  0  0  0  0
 36 67  1  0  0  0  0
 36 77  2  0  0  0  0
 37 63  1  0  0  0  0
 37 72  1  0  0  0  0
 37 78  2  0  0  0  0
 38 68  1  0  0  0  0
 38 73  1  0  0  0  0
 38 79  2  0  0  0  0
 39 42  1  0  0  0  0
 40 49  1  0  0  0  0
 41 67  1  0  0  0  0
 42 44  1  0  0  0  0
 43 45  1  0  0  0  0
 43 46  1  0  0  0  0
 44 48  1  0  0  0  0
 45 50  1  0  0  0  0
 46 68  1  0  0  0  0
 47 50  1  0  0  0  0
 47 68  1  0  0  0  0
 48 71  1  0  0  0  0
 49 67  1  0  0  0  0
 50 66  1  0  0  0  0
 52 63  1  0  0  0  0
 53 64  1  0  0  0  0
 54 64  1  0  0  0  0
 55 64  1  0  0  0  0
 56 74  1  0  0  0  0
 57 59  1  0  0  0  0
 58 81  1  0  0  0  0
 59 60  1  0  0  0  0
 60 61  1  0  0  0  0
 61 73  1  0  0  0  0
 62 64  1  0  0  0  0
 62 72  1  0  0  0  0
 63 74  1  0  0  0  0
 65 66  1  0  0  0  0
M  CHG  1  74   1
M  ISO  4  38 100  58 101  73 100  81 101
M  END
> <Batch ID>
0033

> <Smiles>
CNC(C)C(=O)NC(C(=O)N1Cc2cc([101O:1][101CH2:1]c3cc(C)c(Cl)c(CCCC[100NH:0][100C:0](=O)N4CCCC(n5nc(-c6ccc(Oc7ccc(F)cc7F)cc6)c(C(N)=O)c5N)C4)c3)ccc2CC1C(=O)NC1CCCc2ccccc21)C(C)(C)C

> <Shape>
0.245

> <Color>
0.060

> <Negative vol penalty>
0.000

$$$$

  -OEChem-04052316483D

 84 92  0     1  0  0  0  0  0999 V2000
  -31.8325  -33.6314   24.9735 C   0  0  0  0  0  0  0  0  0  0  0  0
  -31.5971  -32.5317   24.1545 C   0  0  0  0  0  0  0  0  0  0  0  0
  -23.4106   -9.5784   19.8358 C   0  0  0  0  0  0  0  0  0  0  0  0
  -24.2684   -9.5238   22.0937 C   0  0  0  0  0  0  0  0  0  0  0  0
  -30.8608  -34.0403   25.8859 C   0  0  0  0  0  0  0  0  0  0  0  0
  -30.3902  -31.8396   24.2482 C   0  0  0  0  0  0  0  0  0  0  0  0
  -27.3225  -29.1531   19.6790 C   0  0  0  0  0  0  0  0  0  0  0  0
  -22.8504   -8.3141   20.0180 C   0  0  0  0  0  0  0  0  0  0  0  0
  -23.7082   -8.2594   22.2759 C   0  0  0  0  0  0  0  0  0  0  0  0
  -27.2540  -27.8296   19.2459 C   0  0  0  0  0  0  0  0  0  0  0  0
  -20.6578   -6.9586   22.9265 C   0  0  0  0  0  0  0  0  0  0  0  0
  -19.9699   -6.7216   24.1166 C   0  0  0  0  0  0  0  0  0  0  0  0
  -25.2412  -27.5172   20.5382 C   0  0  0  0  0  0  0  0  0  0  0  0
  -25.6009  -22.5282   20.0366 C   0  0  0  0  0  0  0  0  0  0  0  0
  -21.5069   -4.9352   24.6492 C   0  0  0  0  0  0  0  0  0  0  0  0
  -24.9977  -21.9420   17.4408 C   0  0  0  0  0  0  0  0  0  0  0  0
  -24.1196  -10.1833   20.8736 C   0  0  0  0  0  0  0  0  0  0  0  0
  -24.0936  -12.7331   20.9461 C   0  0  0  0  0  0  0  0  0  0  0  0
  -29.6375  -33.3587   25.9841 C   0  0  0  0  0  0  0  0  0  0  0  0
  -26.3552  -29.6662   20.5551 C   0  0  0  0  0  0  0  0  0  0  0  0
  -29.4017  -32.2390   25.1637 C   0  0  0  0  0  0  0  0  0  0  0  0
  -25.2982  -28.8482   20.9790 C   0  0  0  0  0  0  0  0  0  0  0  0
  -25.1702  -23.5439   19.1903 C   0  0  0  0  0  0  0  0  0  0  0  0
  -22.9992   -7.6546   21.2381 C   0  0  0  0  0  0  0  0  0  0  0  0
  -26.2149  -27.0106   19.6778 C   0  0  0  0  0  0  0  0  0  0  0  0
  -21.7702   -6.1839   22.5978 C   0  0  0  0  0  0  0  0  0  0  0  0
  -20.3945   -5.7100   24.9780 C   0  0  0  0  0  0  0  0  0  0  0  0
  -22.1947   -5.1722   23.4591 C   0  0  0  0  0  0  0  0  0  0  0  0
  -24.8608  -23.2535   17.8662 C   0  0  0  0  0  0  0  0  0  0  0  0
  -24.6990  -11.4891   20.6858 C   0  0  0  0  0  0  0  0  0  0  0  0
  -25.7044  -21.2491   19.5141 C   0  0  0  0  0  0  0  0  0  0  0  0
  -25.0501  -13.6583   20.6060 C   0  0  0  0  0  0  0  0  0  0  0  0
  -22.7838  -13.0262   21.4503 C   0  0  0  0  0  0  0  0  0  0  0  0
  -26.4043  -30.8592   23.5010 C   0  0  0  0  0  0  0  0  0  0  0  0
  -23.2821  -31.4834   22.8813 C   0  0  0  0  0  0  0  0  0  0  0  0
  -20.4759  -30.7271   21.0924 C   0  0  0  0  0  0  0  0  0  0  0  0
  -30.3364  -15.4456   20.6807 C   0  0  0  0  0  0  0  0  0  0  0  0
  -28.6365  -33.8091   27.0185 C   0  0  0  0  0  0  0  0  0  0  0  0
  -26.4283  -31.1037   20.9919 C   0  0  0  0  0  0  0  0  0  0  0  0
  -24.2233  -29.3567   21.9034 C   0  0  0  0  0  0  0  0  0  0  0  0
  -27.2342  -33.2496   26.7932 C   0  0  0  0  0  0  0  0  0  0  0  0
  -29.4382  -13.1068   18.1510 C   0  0  0  0  0  0  0  0  0  0  0  0
  -27.2970  -31.7543   26.4983 C   0  0  0  0  0  0  0  0  0  0  0  0
  -28.0788  -12.5759   18.6096 C   0  0  0  0  0  0  0  0  0  0  0  0
  -30.3699  -13.3678   19.3324 C   0  0  0  0  0  0  0  0  0  0  0  0
  -28.4508  -13.7091   20.8404 C   0  0  0  0  0  0  0  0  0  0  0  0
  -28.0951  -31.4775   25.2185 C   0  0  1  0  0  0  0  0  0  0  0  0
  -25.6756  -31.3724   22.2913 C   0  0  1  0  0  0  0  0  0  0  0  0
  -27.4572  -13.4837   19.6879 C   0  0  2  0  0  0  0  0  0  0  0  0
  -18.0677  -31.3839   20.8343 C   0  0  0  0  0  0  0  0  0  0  0  0
  -22.6030  -29.9969   25.4580 C   0  0  0  0  0  0  0  0  0  0  0  0
  -20.2309  -29.8562   24.6694 C   0  0  0  0  0  0  0  0  0  0  0  0
  -21.2779  -32.0834   25.0771 C   0  0  0  0  0  0  0  0  0  0  0  0
  -20.8726  -31.5127   18.2667 C   0  0  0  0  0  0  0  0  0  0  0  0
  -25.0545  -24.9356   19.7390 C   0  0  0  0  0  0  0  0  0  1  0  0
  -26.1625  -20.1339   20.3938 C   0  0  0  0  0  0  0  0  0  0  0  0
  -27.6882  -19.9603   20.3642 C   0  0  0  0  0  0  0  0  0  0  0  0
  -28.1429  -18.7898   21.2384 C   0  0  0  0  0  0  0  0  0  0  0  0
  -29.6681  -18.6516   21.2318 C   0  0  0  0  0  0  0  0  0  0  0  0
  -30.1543  -17.4842   22.0844 C   0  0  0  0  0  0  0  0  0  0  0  0
  -21.9853  -30.7316   23.0611 C   0  0  1  0  0  0  0  0  0  0  0  0
  -19.4902  -31.6070   20.3449 C   0  0  2  0  0  0  0  0  0  0  0  0
  -21.5454  -30.6566   24.5505 C   0  0  0  0  0  0  0  0  0  0  0  0
  -25.4130  -20.9287   18.2335 N   0  0  0  0  0  0  0  0  0  0  0  0
  -25.9436  -11.6095   20.2164 N   0  0  0  0  0  0  0  0  0  0  0  0
  -26.1281  -12.9402   20.1789 N   0  0  0  0  0  0  0  0  0  0  0  0
  -24.3422  -30.7674   22.3076 N   0  0  0  0  0  0  0  0  0  0  0  0
  -29.7211  -14.2362   20.3177 N   0  0  0  0  0  0  0  0  0  0  0  0
  -25.0657  -15.0079   20.6334 N   0  0  0  0  0  0  0  0  0  0  0  0
  -21.9281  -11.9571   21.7488 N   0  0  0  0  0  0  0  0  0  0  0  0
  -27.2917  -31.7653   24.0497 N   0  0  0  0  0  0  0  0  0  0  0  0
  -21.0147  -31.3761   22.1831 N   0  0  0  0  0  0  0  0  0  0  0  0
  -29.6517  -16.2119   21.6159 N   0  0  0  0  0  0  0  0  0  0  0  0
  -19.5366  -31.3123   18.8848 N   0  3  0  0  0  0  0  0  0  0  0  0
  -22.3783  -14.2017   21.6154 O   0  0  0  0  0  0  0  0  0  0  0  0
  -26.1772  -29.7256   23.9074 O   0  0  0  0  0  0  0  0  0  0  0  0
  -23.3496  -32.6647   23.2303 O   0  0  0  0  0  0  0  0  0  0  0  0
  -20.7386  -29.5776   20.7457 O   0  0  0  0  0  0  0  0  0  0  0  0
  -31.4135  -15.8176   20.2026 O   0  0  0  0  0  0  0  0  0  0  0  0
  -22.4526   -6.4209   21.4163 O   0  0  0  0  0  0  0  0  0  0  0  0
  -26.1461  -25.7183   19.2571 O   0  0  0  0  0  0  0  0  0  1  0  0
  -19.7347   -5.4835   26.1215 F   0  0  0  0  0  0  0  0  0  0  0  0
  -23.2634   -4.4254   23.1493 F   0  0  0  0  0  0  0  0  0  0  0  0
  -24.3249  -24.4589   16.7629 Cl  0  0  0  0  0  0  0  0  0  0  0  0
  1  2  1  0  0  0  0
  1  5  2  0  0  0  0
  2  6  2  0  0  0  0
  3  8  2  0  0  0  0
  3 17  1  0  0  0  0
  4  9  1  0  0  0  0
  4 17  2  0  0  0  0
  5 19  1  0  0  0  0
  6 21  1  0  0  0  0
  7 10  2  0  0  0  0
  7 20  1  0  0  0  0
  8 24  1  0  0  0  0
  9 24  2  0  0  0  0
 10 25  1  0  0  0  0
 11 12  2  0  0  0  0
 11 26  1  0  0  0  0
 12 27  1  0  0  0  0
 13 22  1  0  0  0  0
 13 25  2  0  0  0  0
 14 23  1  0  0  0  0
 14 31  2  0  0  0  0
 15 27  2  0  0  0  0
 15 28  1  0  0  0  0
 16 29  1  0  0  0  0
 16 64  2  0  0  0  0
 17 30  1  0  0  0  0
 18 30  1  0  0  0  0
 18 32  2  0  0  0  0
 18 33  1  0  0  0  0
 19 21  2  0  0  0  0
 19 38  1  0  0  0  0
 20 22  2  0  0  0  0
 20 39  1  0  0  0  0
 21 47  1  0  0  0  0
 22 40  1  0  0  0  0
 23 29  2  0  0  0  0
 23 55  1  0  0  0  0
 24 80  1  0  0  0  0
 25 81  1  0  0  0  0
 26 28  2  0  0  0  0
 26 80  1  0  0  0  0
 27 82  1  0  0  0  0
 28 83  1  0  0  0  0
 29 84  1  0  0  0  0
 30 65  2  0  0  0  0
 31 56  1  0  0  0  0
 31 64  1  0  0  0  0
 32 66  1  0  0  0  0
 32 69  1  0  0  0  0
 33 70  1  0  0  0  0
 33 75  2  0  0  0  0
 34 48  1  0  0  0  0
 34 71  1  0  0  0  0
 34 76  2  0  0  0  0
 35 61  1  0  0  0  0
 35 67  1  0  0  0  0
 35 77  2  0  0  0  0
 36 62  1  0  0  0  0
 36 72  1  0  0  0  0
 36 78  2  0  0  0  0
 37 68  1  0  0  0  0
 37 73  1  0  0  0  0
 37 79  2  0  0  0  0
 38 41  1  0  0  0  0
 39 48  1  0  0  0  0
 40 67  1  0  0  0  0
 41 43  1  0  0  0  0
 42 44  1  0  0  0  0
 42 45  1  0  0  0  0
 43 47  1  0  0  0  0
 44 49  1  0  0  0  0
 45 68  1  0  0  0  0
 46 49  1  0  0  0  0
 46 68  1  0  0  0  0
 47 71  1  0  0  0  0
 48 67  1  0  0  0  0
 49 66  1  0  0  0  0
 50 62  1  0  0  0  0
 51 63  1  0  0  0  0
 52 63  1  0  0  0  0
 53 63  1  0  0  0  0
 54 74  1  0  0  0  0
 55 81  1  0  0  0  0
 56 57  1  0  0  0  0
 57 58  1  0  0  0  0
 58 59  1  0  0  0  0
 59 60  1  0  0  0  0
 60 73  1  0  0  0  0
 61 63  1  0  0  0  0
 61 72  1  0  0  0  0
 62 74  1  0  0  0  0
 65 66  1  0  0  0  0
M  CHG  1  74   1
M  ISO  4  37 100  55 101  73 100  81 101
M  END
> <Batch ID>
0033

> <Smiles>
CNC(C)C(=O)NC(C(=O)N1Cc2cc([101O:1][101CH2:1]c3cc(CCCCC[100NH:0][100C:0](=O)N4CCCC(n5nc(-c6ccc(Oc7ccc(F)cc7F)cc6)c(C(N)=O)c5N)C4)ncc3Cl)ccc2CC1C(=O)NC1CCCc2ccccc21)C(C)(C)C

> <Shape>
0.326

> <Color>
0.185

> <Negative vol penalty>
0.000

$$$$

  -OEChem-04052316483D

 92100  0     1  0  0  0  0  0999 V2000
  -30.8771  -25.1362   22.7727 C   0  0  0  0  0  0  0  0  0  0  0  0
  -30.1062  -26.2646   23.0284 C   0  0  0  0  0  0  0  0  0  0  0  0
  -23.1495   -9.8473   21.1754 C   0  0  0  0  0  0  0  0  0  0  0  0
  -23.9210  -10.5750   23.3462 C   0  0  0  0  0  0  0  0  0  0  0  0
  -30.6638  -23.9704   23.5051 C   0  0  0  0  0  0  0  0  0  0  0  0
  -29.1299  -26.2312   24.0248 C   0  0  0  0  0  0  0  0  0  0  0  0
  -26.8953  -30.4783   25.1073 C   0  0  0  0  0  0  0  0  0  0  0  0
  -22.4495   -8.8005   21.7751 C   0  0  0  0  0  0  0  0  0  0  0  0
  -23.2210   -9.5281   23.9459 C   0  0  0  0  0  0  0  0  0  0  0  0
  -25.9745  -31.0845   24.2539 C   0  0  0  0  0  0  0  0  0  0  0  0
  -20.7510   -5.7221   22.7037 C   0  0  0  0  0  0  0  0  0  0  0  0
  -20.8467   -4.4583   22.1213 C   0  0  0  0  0  0  0  0  0  0  0  0
  -24.1728  -30.3171   25.6625 C   0  0  0  0  0  0  0  0  0  0  0  0
  -20.6232  -27.9595   22.0773 C   0  0  0  0  0  0  0  0  0  0  0  0
  -20.9138  -30.3312   22.4343 C   0  0  0  0  0  0  0  0  0  0  0  0
  -23.2380   -4.4807   22.4656 C   0  0  0  0  0  0  0  0  0  0  0  0
  -23.8853  -10.7346   21.9609 C   0  0  0  0  0  0  0  0  0  0  0  0
  -24.1343  -13.1141   21.0758 C   0  0  0  0  0  0  0  0  0  0  0  0
  -29.6757  -23.9197   24.5022 C   0  0  0  0  0  0  0  0  0  0  0  0
  -26.4604  -29.7766   26.2408 C   0  0  0  0  0  0  0  0  0  0  0  0
  -28.9157  -25.0713   24.7912 C   0  0  0  0  0  0  0  0  0  0  0  0
  -25.0903  -29.7052   26.5302 C   0  0  0  0  0  0  0  0  0  0  0  0
  -21.7774  -27.9359   21.2944 C   0  0  0  0  0  0  0  0  0  0  0  0
  -22.0680  -30.3076   21.6514 C   0  0  0  0  0  0  0  0  0  0  0  0
  -22.4852   -8.6409   23.1603 C   0  0  0  0  0  0  0  0  0  0  0  0
  -24.6129  -31.0015   24.5298 C   0  0  0  0  0  0  0  0  0  0  0  0
  -21.8988   -6.3653   23.1671 C   0  0  0  0  0  0  0  0  0  0  0  0
  -22.0902   -3.8376   22.0022 C   0  0  0  0  0  0  0  0  0  0  0  0
  -23.1423   -5.7446   23.0480 C   0  0  0  0  0  0  0  0  0  0  0  0
  -20.1913  -29.1571   22.6472 C   0  0  0  0  0  0  0  0  0  0  0  0
  -22.4998  -29.1099   21.0815 C   0  0  0  0  0  0  0  0  0  0  0  0
  -24.6091  -11.8159   21.3420 C   0  0  0  0  0  0  0  0  0  0  0  0
  -25.1964  -13.7537   20.4848 C   0  0  0  0  0  0  0  0  0  0  0  0
  -22.8481  -13.6904   21.3392 C   0  0  0  0  0  0  0  0  0  0  0  0
  -26.6649  -26.7620   27.2280 C   0  0  0  0  0  0  0  0  0  0  0  0
  -30.6642  -14.9295   20.3788 C   0  0  0  0  0  0  0  0  0  0  0  0
  -25.3280  -27.9648   29.9277 C   0  0  0  0  0  0  0  0  0  0  0  0
  -23.4460  -30.4086   31.3881 C   0  0  0  0  0  0  0  0  0  0  0  0
  -29.4924  -22.6344   25.2700 C   0  0  0  0  0  0  0  0  0  0  0  0
  -27.4679  -29.1510   27.1660 C   0  0  0  0  0  0  0  0  0  0  0  0
  -24.5731  -28.9809   27.7452 C   0  0  0  0  0  0  0  0  0  0  0  0
  -28.1498  -22.5579   25.9895 C   0  0  0  0  0  0  0  0  0  0  0  0
  -29.5703  -11.9479   18.7195 C   0  0  0  0  0  0  0  0  0  0  0  0
  -27.9115  -23.8344   26.7822 C   0  0  0  0  0  0  0  0  0  0  0  0
  -28.1546  -11.7378   19.2550 C   0  0  0  0  0  0  0  0  0  0  0  0
  -30.4893  -12.5353   19.7860 C   0  0  0  0  0  0  0  0  0  0  0  0
  -28.5680  -13.5967   20.9279 C   0  0  0  0  0  0  0  0  0  0  0  0
  -27.8274  -25.0490   25.8492 C   0  0  1  0  0  0  0  0  0  0  0  0
  -26.8832  -28.0247   28.0127 C   0  0  1  0  0  0  0  0  0  0  0  0
  -27.5995  -13.0333   19.8730 C   0  0  2  0  0  0  0  0  0  0  0  0
  -22.4919  -31.1010   33.6034 C   0  0  0  0  0  0  0  0  0  0  0  0
  -23.1771  -25.8160   29.6702 C   0  0  0  0  0  0  0  0  0  0  0  0
  -21.7816  -27.1171   31.2913 C   0  0  0  0  0  0  0  0  0  0  0  0
  -23.9908  -26.2032   32.0031 C   0  0  0  0  0  0  0  0  0  0  0  0
  -24.9602  -32.9515   31.3765 C   0  0  0  0  0  0  0  0  0  0  0  0
  -22.2071  -26.6185   20.6990 C   0  0  0  0  0  0  0  0  0  0  0  0
  -22.8110  -31.5895   21.4511 C   0  0  0  0  0  0  0  0  0  0  0  0
  -30.0054  -16.1418   20.9874 C   0  0  0  0  0  0  0  0  0  0  0  0
  -23.3780  -26.0065   21.4725 C   0  0  0  0  0  0  0  0  0  0  0  0
  -30.9303  -17.3544   20.9382 C   0  0  0  0  0  0  0  0  0  0  0  0
  -23.8962  -24.7027   20.8584 C   0  0  0  0  0  0  0  0  0  0  0  0
  -30.3711  -18.6251   21.5892 C   0  0  0  0  0  0  0  0  0  0  0  0
  -25.1137  -24.1289   21.5885 C   0  0  0  0  0  0  0  0  0  0  0  0
  -29.1166  -19.1637   20.8980 C   0  0  0  0  0  0  0  0  0  0  0  0
  -25.6048  -22.8436   20.9167 C   0  0  0  0  0  0  0  0  0  0  0  0
  -28.6166  -20.4417   21.5759 C   0  0  0  0  0  0  0  0  0  0  0  0
  -26.8662  -22.2626   21.5623 C   0  0  0  0  0  0  0  0  0  0  0  0
  -27.3429  -20.9645   20.9072 C   0  0  0  0  0  0  0  0  0  0  0  0
  -24.0665  -31.6905   22.3201 C   0  0  0  0  0  0  0  0  0  1  0  0
  -23.9163  -28.1733   30.4203 C   0  0  1  0  0  0  0  0  0  0  0  0
  -23.6644  -31.2330   32.6439 C   0  0  2  0  0  0  0  0  0  0  0  0
  -23.2258  -26.8395   30.8222 C   0  0  0  0  0  0  0  0  0  0  0  0
  -25.8743  -11.6395   20.9520 N   0  0  0  0  0  0  0  0  0  0  0  0
  -26.2035  -12.8354   20.4346 N   0  0  0  0  0  0  0  0  0  0  0  0
  -25.5971  -28.3803   28.6159 N   0  0  0  0  0  0  0  0  0  0  0  0
  -29.9162  -13.7520   20.3642 N   0  0  0  0  0  0  0  0  0  0  0  0
  -25.3578  -15.0065   20.0084 N   0  0  0  0  0  0  0  0  0  0  0  0
  -21.8718  -12.8935   21.9525 N   0  0  0  0  0  0  0  0  0  0  0  0
  -27.8114  -26.2561   26.6459 N   0  0  0  0  0  0  0  0  0  0  0  0
  -24.0008  -29.1513   31.4996 N   0  0  0  0  0  0  0  0  0  0  0  0
  -23.8275  -32.6730   32.2965 N   0  3  0  0  0  0  0  0  0  0  0  0
  -22.5675  -14.8719   21.0247 O   0  0  0  0  0  0  0  0  0  0  0  0
  -25.5398  -26.2815   27.1573 O   0  0  0  0  0  0  0  0  0  0  0  0
  -31.8082  -15.0287   19.9278 O   0  0  0  0  0  0  0  0  0  0  0  0
  -26.1630  -27.4588   30.6816 O   0  0  0  0  0  0  0  0  0  0  0  0
  -22.8403  -30.8360   30.4077 O   0  0  0  0  0  0  0  0  0  0  0  0
  -21.8020   -7.6196   23.7458 O   0  0  0  0  0  0  0  0  0  0  0  0
  -23.7056  -31.5958   23.6922 O   0  0  0  0  0  0  0  0  0  1  0  0
  -22.1818   -2.6234   21.4442 F   0  0  0  0  0  0  0  0  0  0  0  0
  -24.2483   -6.3570   23.4924 F   0  0  0  0  0  0  0  0  0  0  0  0
  -18.7669  -29.1868   23.6127 Cl  0  0  0  0  0  0  0  0  0  0  0  0
  -23.9318  -29.0809   20.1082 Cl  0  0  0  0  0  0  0  0  0  0  0  0
  1  2  1  0  0  0  0
  1  5  2  0  0  0  0
  2  6  2  0  0  0  0
  3  8  2  0  0  0  0
  3 17  1  0  0  0  0
  4  9  1  0  0  0  0
  4 17  2  0  0  0  0
  5 19  1  0  0  0  0
  6 21  1  0  0  0  0
  7 10  2  0  0  0  0
  7 20  1  0  0  0  0
  8 25  1  0  0  0  0
  9 25  2  0  0  0  0
 10 26  1  0  0  0  0
 11 12  2  0  0  0  0
 11 27  1  0  0  0  0
 12 28  1  0  0  0  0
 13 22  1  0  0  0  0
 13 26  2  0  0  0  0
 14 23  2  0  0  0  0
 14 30  1  0  0  0  0
 15 24  1  0  0  0  0
 15 30  2  0  0  0  0
 16 28  2  0  0  0  0
 16 29  1  0  0  0  0
 17 32  1  0  0  0  0
 18 32  1  0  0  0  0
 18 33  2  0  0  0  0
 18 34  1  0  0  0  0
 19 21  2  0  0  0  0
 19 39  1  0  0  0  0
 20 22  2  0  0  0  0
 20 40  1  0  0  0  0
 21 48  1  0  0  0  0
 22 41  1  0  0  0  0
 23 31  1  0  0  0  0
 23 56  1  0  0  0  0
 24 31  2  0  0  0  0
 24 57  1  0  0  0  0
 25 87  1  0  0  0  0
 26 88  1  0  0  0  0
 27 29  2  0  0  0  0
 27 87  1  0  0  0  0
 28 89  1  0  0  0  0
 29 90  1  0  0  0  0
 30 91  1  0  0  0  0
 31 92  1  0  0  0  0
 32 73  2  0  0  0  0
 33 74  1  0  0  0  0
 33 77  1  0  0  0  0
 34 78  1  0  0  0  0
 34 82  2  0  0  0  0
 35 49  1  0  0  0  0
 35 79  1  0  0  0  0
 35 83  2  0  0  0  0
 36 58  1  0  0  0  0
 36 76  1  0  0  0  0
 36 84  2  0  0  0  0
 37 70  1  0  0  0  0
 37 75  1  0  0  0  0
 37 85  2  0  0  0  0
 38 71  1  0  0  0  0
 38 80  1  0  0  0  0
 38 86  2  0  0  0  0
 39 42  1  0  0  0  0
 40 49  1  0  0  0  0
 41 75  1  0  0  0  0
 42 44  1  0  0  0  0
 43 45  1  0  0  0  0
 43 46  1  0  0  0  0
 44 48  1  0  0  0  0
 45 50  1  0  0  0  0
 46 76  1  0  0  0  0
 47 50  1  0  0  0  0
 47 76  1  0  0  0  0
 48 79  1  0  0  0  0
 49 75  1  0  0  0  0
 50 74  1  0  0  0  0
 51 71  1  0  0  0  0
 52 72  1  0  0  0  0
 53 72  1  0  0  0  0
 54 72  1  0  0  0  0
 55 81  1  0  0  0  0
 56 59  1  0  0  0  0
 57 69  1  0  0  0  0
 58 60  1  0  0  0  0
 59 61  1  0  0  0  0
 60 62  1  0  0  0  0
 61 63  1  0  0  0  0
 62 64  1  0  0  0  0
 63 65  1  0  0  0  0
 64 66  1  0  0  0  0
 65 67  1  0  0  0  0
 66 68  1  0  0  0  0
 67 68  1  0  0  0  0
 69 88  1  0  0  0  0
 70 72  1  0  0  0  0
 70 80  1  0  0  0  0
 71 81  1  0  0  0  0
 73 74  1  0  0  0  0
M  CHG  1  81   1
M  ISO  4  36 100  58 100  69 101  88 101
M  END
> <Batch ID>
0033

> <Smiles>
CNC(C)C(=O)NC(C(=O)N1Cc2cc([101O:1][101CH2:1]Cc3cc(Cl)cc(CCCCCCCCCCC[100CH2:0][100C:0](=O)N4CCCC(n5nc(-c6ccc(Oc7ccc(F)cc7F)cc6)c(C(N)=O)c5N)C4)c3Cl)ccc2CC1C(=O)NC1CCCc2ccccc21)C(C)(C)C

> <Shape>
0.267

> <Color>
0.182

> <Negative vol penalty>
0.000

$$$$

  -OEChem-04052316483D

 91100  0     1  0  0  0  0  0999 V2000
  -16.4398  -32.8676   24.0511 C   0  0  0  0  0  0  0  0  0  0  0  0
  -17.3070  -33.0226   22.9744 C   0  0  0  0  0  0  0  0  0  0  0  0
  -22.6696  -10.1873   20.1489 C   0  0  0  0  0  0  0  0  0  0  0  0
  -24.3801   -9.3053   21.6094 C   0  0  0  0  0  0  0  0  0  0  0  0
  -16.9505  -32.7020   25.3379 C   0  0  0  0  0  0  0  0  0  0  0  0
  -18.6856  -33.0131   23.1840 C   0  0  0  0  0  0  0  0  0  0  0  0
  -22.9032  -28.1872   19.8955 C   0  0  0  0  0  0  0  0  0  0  0  0
  -21.9514   -8.9980   20.2717 C   0  0  0  0  0  0  0  0  0  0  0  0
  -23.6619   -8.1159   21.7323 C   0  0  0  0  0  0  0  0  0  0  0  0
  -23.8018  -27.4321   19.1414 C   0  0  0  0  0  0  0  0  0  0  0  0
  -20.9811   -6.9936   23.4569 C   0  0  0  0  0  0  0  0  0  0  0  0
  -20.8437   -6.4503   24.7342 C   0  0  0  0  0  0  0  0  0  0  0  0
  -25.6517  -28.3796   20.3775 C   0  0  0  0  0  0  0  0  0  0  0  0
  -29.2832  -18.5547   21.7207 C   0  0  0  0  0  0  0  0  0  0  0  0
  -31.4370  -18.4899   20.6281 C   0  0  0  0  0  0  0  0  0  0  0  0
  -21.9654   -4.4404   23.9997 C   0  0  0  0  0  0  0  0  0  0  0  0
  -23.8840  -10.3410   20.8177 C   0  0  0  0  0  0  0  0  0  0  0  0
  -24.1982  -12.8623   21.0459 C   0  0  0  0  0  0  0  0  0  0  0  0
  -18.3361  -32.6807   25.5620 C   0  0  0  0  0  0  0  0  0  0  0  0
  -23.3750  -29.0308   20.9050 C   0  0  0  0  0  0  0  0  0  0  0  0
  -19.2153  -32.8483   24.4751 C   0  0  0  0  0  0  0  0  0  0  0  0
  -24.7556  -29.1290   21.1444 C   0  0  0  0  0  0  0  0  0  0  0  0
  -30.5199  -17.9403   21.5239 C   0  0  0  0  0  0  0  0  0  0  0  0
  -28.9635  -19.7186   21.0215 C   0  0  0  0  0  0  0  0  0  0  0  0
  -31.1173  -19.6539   19.9290 C   0  0  0  0  0  0  0  0  0  0  0  0
  -29.8806  -20.2682   20.1257 C   0  0  0  0  0  0  0  0  0  0  0  0
  -22.4475   -7.9622   21.0634 C   0  0  0  0  0  0  0  0  0  0  0  0
  -25.1726  -27.5283   19.3818 C   0  0  0  0  0  0  0  0  0  0  0  0
  -21.6105   -6.2604   22.4510 C   0  0  0  0  0  0  0  0  0  0  0  0
  -21.3359   -5.1736   25.0056 C   0  0  0  0  0  0  0  0  0  0  0  0
  -22.1027   -4.9838   22.7224 C   0  0  0  0  0  0  0  0  0  0  0  0
  -24.6267  -11.5692   20.6908 C   0  0  0  0  0  0  0  0  0  0  0  0
  -25.2604  -13.6744   20.7316 C   0  0  0  0  0  0  0  0  0  0  0  0
  -22.9515  -13.2910   21.6096 C   0  0  0  0  0  0  0  0  0  0  0  0
  -22.5389  -31.4755   23.6253 C   0  0  0  0  0  0  0  0  0  0  0  0
  -24.7938  -29.6908   24.6934 C   0  0  0  0  0  0  0  0  0  0  0  0
  -26.9778  -27.2485   25.6431 C   0  0  0  0  0  0  0  0  0  0  0  0
  -30.7373  -14.7461   20.7421 C   0  0  0  0  0  0  0  0  0  0  0  0
  -18.8405  -32.5462   26.9770 C   0  0  0  0  0  0  0  0  0  0  0  0
  -22.4479  -29.9090   21.7007 C   0  0  0  0  0  0  0  0  0  0  0  0
  -25.2200  -30.0756   22.2173 C   0  0  0  0  0  0  0  0  0  0  0  0
  -20.3180  -32.1724   27.0639 C   0  0  0  0  0  0  0  0  0  0  0  0
  -29.4754  -12.7132   18.1055 C   0  0  0  0  0  0  0  0  0  0  0  0
  -21.1439  -33.0358   26.1156 C   0  0  0  0  0  0  0  0  0  0  0  0
  -27.4872  -23.4233   19.5023 C   0  0  0  0  0  0  0  0  0  0  0  0
  -29.2715  -25.1963   19.7655 C   0  0  0  0  0  0  0  0  0  0  0  0
  -28.0692  -12.3362   18.5752 C   0  0  0  0  0  0  0  0  0  0  0  0
  -26.5609  -24.4553   18.8661 C   0  0  0  0  0  0  0  0  0  0  0  0
  -28.3399  -26.2235   19.1292 C   0  0  0  0  0  0  0  0  0  0  0  0
  -30.4620  -12.7732   19.2695 C   0  0  0  0  0  0  0  0  0  0  0  0
  -28.6424  -13.2646   20.8574 C   0  0  0  0  0  0  0  0  0  0  0  0
  -20.7171  -32.8186   24.6588 C   0  0  1  0  0  0  0  0  0  0  0  0
  -22.8976  -30.0945   23.1610 C   0  0  1  0  0  0  0  0  0  0  0  0
  -28.9644  -23.7742   19.2758 C   0  0  0  0  0  0  0  0  0  0  0  0
  -27.5999  -13.2460   19.7264 C   0  0  2  0  0  0  0  0  0  0  0  0
  -26.8715  -25.8683   19.3528 C   0  0  0  0  0  0  0  0  0  1  0  0
  -26.5061  -19.6125   20.5350 C   0  0  0  0  0  0  0  0  0  0  0  0
  -31.7686  -19.9175   17.5221 C   0  0  0  0  0  0  0  0  0  0  0  0
  -28.3821  -26.5089   27.5869 C   0  0  0  0  0  0  0  0  0  0  0  0
  -31.3401  -23.0667   19.7245 C   0  0  0  0  0  0  0  0  0  0  0  0
  -26.8051  -31.8992   24.0756 C   0  0  0  0  0  0  0  0  0  0  0  0
  -28.5286  -30.5812   25.3250 C   0  0  0  0  0  0  0  0  0  0  0  0
  -26.4993  -31.4173   26.5105 C   0  0  0  0  0  0  0  0  0  0  0  0
  -25.5384  -24.6709   25.8516 C   0  0  0  0  0  0  0  0  0  0  0  0
  -27.6304  -20.3530   21.2523 C   0  0  0  0  0  0  0  0  0  0  0  0
  -32.1195  -20.2194   18.9756 C   0  0  0  0  0  0  0  0  0  0  0  0
  -30.8614  -16.6961   22.2722 C   0  0  0  0  0  0  0  0  0  0  0  0
  -26.2784  -29.5015   24.8756 C   0  0  1  0  0  0  0  0  0  0  0  0
  -27.0387  -26.3790   26.8860 C   0  0  2  0  0  0  0  0  0  0  0  0
  -29.8720  -22.7582   19.9667 C   0  0  2  0  0  0  0  0  0  0  0  0
  -27.0140  -30.8383   25.1747 C   0  0  0  0  0  0  0  0  0  0  0  0
  -25.8645  -11.5558   20.1892 N   0  0  0  0  0  0  0  0  0  0  0  0
  -26.2229  -12.8505   20.2267 N   0  0  0  0  0  0  0  0  0  0  0  0
  -24.3459  -29.9671   23.3958 N   0  0  0  0  0  0  0  0  0  0  0  0
  -29.9583  -13.6536   20.3265 N   0  0  0  0  0  0  0  0  0  0  0  0
  -25.4555  -15.0057   20.8405 N   0  0  0  0  0  0  0  0  0  0  0  0
  -22.8279  -13.3313   23.0051 N   0  0  0  0  0  0  0  0  0  0  0  0
  -29.5674  -21.4071   19.4412 N   0  0  0  0  0  0  0  0  0  0  0  0
  -21.2652  -31.5791   24.1511 N   0  0  0  0  0  0  0  0  0  0  0  0
  -26.4364  -28.4876   25.9127 N   0  0  0  0  0  0  0  0  0  0  0  0
  -30.1832  -15.5334   21.7440 N   0  0  0  0  0  0  0  0  0  0  0  0
  -26.8322  -24.9474   26.5274 N   0  3  0  0  0  0  0  0  0  0  0  0
  -21.9707  -13.6127   20.8968 O   0  0  0  0  0  0  0  0  0  0  0  0
  -23.3572  -32.3811   23.5166 O   0  0  0  0  0  0  0  0  0  0  0  0
  -24.0496  -29.6024   25.6740 O   0  0  0  0  0  0  0  0  0  0  0  0
  -27.3745  -26.8678   24.5439 O   0  0  0  0  0  0  0  0  0  0  0  0
  -31.8422  -15.0041   20.2525 O   0  0  0  0  0  0  0  0  0  0  0  0
  -21.7468   -6.8016   21.1836 O   0  0  0  0  0  0  0  0  0  0  0  0
  -26.0440  -26.7849   18.6450 O   0  0  0  0  0  0  0  0  0  1  0  0
  -21.2053   -4.6526   26.2326 F   0  0  0  0  0  0  0  0  0  0  0  0
  -22.7094   -4.2750   21.7604 F   0  0  0  0  0  0  0  0  0  0  0  0
  1  2  1  0  0  0  0
  1  5  2  0  0  0  0
  2  6  2  0  0  0  0
  3  8  2  0  0  0  0
  3 17  1  0  0  0  0
  4  9  1  0  0  0  0
  4 17  2  0  0  0  0
  5 19  1  0  0  0  0
  6 21  1  0  0  0  0
  7 10  2  0  0  0  0
  7 20  1  0  0  0  0
  8 27  1  0  0  0  0
  9 27  2  0  0  0  0
 10 28  1  0  0  0  0
 11 12  2  0  0  0  0
 11 29  1  0  0  0  0
 12 30  1  0  0  0  0
 13 22  1  0  0  0  0
 13 28  2  0  0  0  0
 14 23  2  0  0  0  0
 14 24  1  0  0  0  0
 15 23  1  0  0  0  0
 15 25  2  0  0  0  0
 16 30  2  0  0  0  0
 16 31  1  0  0  0  0
 17 32  1  0  0  0  0
 18 32  1  0  0  0  0
 18 33  2  0  0  0  0
 18 34  1  0  0  0  0
 19 21  2  0  0  0  0
 19 39  1  0  0  0  0
 20 22  2  0  0  0  0
 20 40  1  0  0  0  0
 21 52  1  0  0  0  0
 22 41  1  0  0  0  0
 23 67  1  0  0  0  0
 24 26  2  0  0  0  0
 24 65  1  0  0  0  0
 25 26  1  0  0  0  0
 25 66  1  0  0  0  0
 26 78  1  0  0  0  0
 27 88  1  0  0  0  0
 28 89  1  0  0  0  0
 29 31  2  0  0  0  0
 29 88  1  0  0  0  0
 30 90  1  0  0  0  0
 31 91  1  0  0  0  0
 32 72  2  0  0  0  0
 33 73  1  0  0  0  0
 33 76  1  0  0  0  0
 34 77  1  0  0  0  0
 34 83  2  0  0  0  0
 35 53  1  0  0  0  0
 35 79  1  0  0  0  0
 35 84  2  0  0  0  0
 36 68  1  0  0  0  0
 36 74  1  0  0  0  0
 36 85  2  0  0  0  0
 37 69  1  0  0  0  0
 37 80  1  0  0  0  0
 37 86  2  0  0  0  0
 38 75  1  0  0  0  0
 38 81  1  0  0  0  0
 38 87  2  0  0  0  0
 39 42  1  0  0  0  0
 40 53  1  0  0  0  0
 41 74  1  0  0  0  0
 42 44  1  0  0  0  0
 43 47  1  0  0  0  0
 43 50  1  0  0  0  0
 44 52  1  0  0  0  0
 45 48  1  0  0  0  0
 45 54  1  0  0  0  0
 46 49  1  0  0  0  0
 46 54  1  0  0  0  0
 47 55  1  0  0  0  0
 48 56  1  0  0  0  0
 49 56  1  0  0  0  0
 50 75  1  0  0  0  0
 51 55  1  0  0  0  0
 51 75  1  0  0  0  0
 52 79  1  0  0  0  0
 53 74  1  0  0  0  0
 54 70  1  0  0  0  0
 55 73  1  0  0  0  0
 56 89  1  0  0  0  0
 57 65  1  0  0  0  0
 58 66  1  0  0  0  0
 59 69  1  0  0  0  0
 60 70  1  0  0  0  0
 61 71  1  0  0  0  0
 62 71  1  0  0  0  0
 63 71  1  0  0  0  0
 64 82  1  0  0  0  0
 67 81  1  0  0  0  0
 68 71  1  0  0  0  0
 68 80  1  0  0  0  0
 69 82  1  0  0  0  0
 70 78  1  0  0  0  0
 72 73  1  0  0  0  0
M  CHG  1  82   1
M  ISO  4  38 100  56 101  81 100  89 101
M  END
> <Batch ID>
0033

> <Smiles>
CCc1cc(C[100NH:0][100C:0](=O)N2CCCC(n3nc(-c4ccc(Oc5ccc(F)cc5F)cc4)c(C(N)=O)c3N)C2)cc(CC)c1NC(C)C1CC[101CH:1]([101O:1]c2ccc3c(c2)CN(C(=O)C(NC(=O)C(C)NC)C(C)(C)C)C(C(=O)NC2CCCc4ccccc42)C3)CC1

> <Shape>
0.377

> <Color>
0.207

> <Negative vol penalty>
0.000

$$$$

  -OEChem-04052316483D

 89 97  0     1  0  0  0  0  0999 V2000
  -17.1379  -13.9701   22.4552 C   0  0  0  0  0  0  0  0  0  0  0  0
  -18.1242  -14.9510   22.4338 C   0  0  0  0  0  0  0  0  0  0  0  0
  -25.8371  -30.5753   20.3538 C   0  0  0  0  0  0  0  0  0  0  0  0
  -24.8817  -28.8716   21.7756 C   0  0  0  0  0  0  0  0  0  0  0  0
  -17.4773  -12.6479   22.7388 C   0  0  0  0  0  0  0  0  0  0  0  0
  -19.4505  -14.6104   22.6971 C   0  0  0  0  0  0  0  0  0  0  0  0
  -22.6877  -16.7440   19.4394 C   0  0  0  0  0  0  0  0  0  0  0  0
  -24.5920  -31.1972   20.2623 C   0  0  0  0  0  0  0  0  0  0  0  0
  -23.6365  -29.4935   21.6841 C   0  0  0  0  0  0  0  0  0  0  0  0
  -23.0005  -18.0877   19.6405 C   0  0  0  0  0  0  0  0  0  0  0  0
  -20.2847  -30.8332   22.1188 C   0  0  0  0  0  0  0  0  0  0  0  0
  -19.5481  -30.9873   23.2932 C   0  0  0  0  0  0  0  0  0  0  0  0
  -25.0690  -17.4415   20.7001 C   0  0  0  0  0  0  0  0  0  0  0  0
  -21.3355  -32.3079   24.2410 C   0  0  0  0  0  0  0  0  0  0  0  0
  -25.0608  -24.1359   19.5670 C   0  0  0  0  0  0  0  0  0  0  0  0
  -25.9820  -29.4124   21.1104 C   0  0  0  0  0  0  0  0  0  0  0  0
  -28.2695  -29.0082   22.1647 C   0  0  0  0  0  0  0  0  0  0  0  0
  -18.8099  -12.2892   22.9962 C   0  0  0  0  0  0  0  0  0  0  0  0
  -23.5597  -15.7370   19.8776 C   0  0  0  0  0  0  0  0  0  0  0  0
  -19.8079  -13.2823   22.9857 C   0  0  0  0  0  0  0  0  0  0  0  0
  -24.7662  -16.0858   20.5010 C   0  0  0  0  0  0  0  0  0  0  0  0
  -24.0798  -22.0898   20.2797 C   0  0  0  0  0  0  0  0  0  0  0  0
  -24.0494  -22.5913   21.5763 C   0  0  0  0  0  0  0  0  0  0  0  0
  -23.4917  -30.6564   20.9275 C   0  0  0  0  0  0  0  0  0  0  0  0
  -24.1899  -18.4366   20.2735 C   0  0  0  0  0  0  0  0  0  0  0  0
  -21.5468  -31.4164   22.0055 C   0  0  0  0  0  0  0  0  0  0  0  0
  -20.0735  -31.7246   24.3543 C   0  0  0  0  0  0  0  0  0  0  0  0
  -22.0722  -32.1537   23.0666 C   0  0  0  0  0  0  0  0  0  0  0  0
  -24.5936  -22.8705   19.2502 C   0  0  0  0  0  0  0  0  0  0  0  0
  -27.2678  -28.7692   21.2048 C   0  0  0  0  0  0  0  0  0  0  0  0
  -24.5412  -23.8691   21.7889 C   0  0  0  0  0  0  0  0  0  0  0  0
  -29.2858  -28.1505   21.8213 C   0  0  0  0  0  0  0  0  0  0  0  0
  -28.2803  -29.9237   23.2681 C   0  0  0  0  0  0  0  0  0  0  0  0
  -23.3575  -13.3452   21.9614 C   0  0  0  0  0  0  0  0  0  0  0  0
  -26.2816  -12.5853   20.7806 C   0  0  0  0  0  0  0  0  0  0  0  0
  -29.1331  -13.6201   19.2169 C   0  0  0  0  0  0  0  0  0  0  0  0
  -29.4090  -22.9637   18.8326 C   0  0  0  0  0  0  0  0  0  0  0  0
  -19.1213  -10.8552   23.3444 C   0  0  0  0  0  0  0  0  0  0  0  0
  -23.2203  -14.2928   19.6292 C   0  0  0  0  0  0  0  0  0  0  0  0
  -25.7459  -15.0432   20.9721 C   0  0  0  0  0  0  0  0  0  0  0  0
  -20.6055  -10.5125   23.2435 C   0  0  0  0  0  0  0  0  0  0  0  0
  -31.1987  -25.9366   18.0357 C   0  0  0  0  0  0  0  0  0  0  0  0
  -21.4488  -11.5868   23.9228 C   0  0  0  0  0  0  0  0  0  0  0  0
  -30.4846  -27.0213   18.8442 C   0  0  0  0  0  0  0  0  0  0  0  0
  -30.2197  -24.8916   17.5051 C   0  0  0  0  0  0  0  0  0  0  0  0
  -28.6405  -25.3617   19.3378 C   0  0  0  0  0  0  0  0  0  0  0  0
  -21.2614  -12.9479   23.2418 C   0  0  1  0  0  0  0  0  0  0  0  0
  -23.9405  -13.3383   20.5766 C   0  0  1  0  0  0  0  0  0  0  0  0
  -29.5934  -26.4079   19.9409 C   0  0  2  0  0  0  0  0  0  0  0  0
  -23.5047  -21.7793   22.7034 C   0  0  0  0  0  0  0  0  0  0  0  0
  -31.3601  -12.7796   18.4226 C   0  0  0  0  0  0  0  0  0  0  0  0
  -27.3042  -12.5852   23.6554 C   0  0  0  0  0  0  0  0  0  0  0  0
  -29.6368  -12.6911   22.7520 C   0  0  0  0  0  0  0  0  0  0  0  0
  -28.1883  -10.7274   22.2336 C   0  0  0  0  0  0  0  0  0  0  0  0
  -28.5170  -14.3013   16.4035 C   0  0  0  0  0  0  0  0  0  0  0  0
  -23.5585  -20.7139   20.0071 C   0  0  0  0  0  0  0  0  0  1  0  0
  -24.5349  -24.4673   23.1738 C   0  0  0  0  0  0  0  0  0  0  0  0
  -25.6280  -23.9302   24.1065 C   0  0  0  0  0  0  0  0  0  0  0  0
  -27.0687  -24.2060   23.6587 C   0  0  0  0  0  0  0  0  0  0  0  0
  -28.1222  -23.5772   24.5737 C   0  0  0  0  0  0  0  0  0  0  0  0
  -28.0193  -22.0499   24.6582 C   0  0  0  0  0  0  0  0  0  0  0  0
  -28.1181  -21.3015   23.3245 C   0  0  0  0  0  0  0  0  0  0  0  0
  -29.4725  -21.4725   22.6330 C   0  0  0  0  0  0  0  0  0  0  0  0
  -29.5684  -20.7345   21.2923 C   0  0  0  0  0  0  0  0  0  0  0  0
  -28.5198  -21.1385   20.2598 C   0  0  0  0  0  0  0  0  0  0  0  0
  -27.7039  -12.9504   21.1309 C   0  0  1  0  0  0  0  0  0  0  0  0
  -29.9090  -13.0388   18.0488 C   0  0  2  0  0  0  0  0  0  0  0  0
  -28.1892  -12.2584   22.4360 C   0  0  0  0  0  0  0  0  0  0  0  0
  -25.0478  -24.6571   20.8143 N   0  0  0  0  0  0  0  0  0  0  0  0
  -27.6163  -27.8331   20.3181 N   0  0  0  0  0  0  0  0  0  0  0  0
  -28.8483  -27.4764   20.7193 N   0  0  0  0  0  0  0  0  0  0  0  0
  -25.3660  -13.6448   20.7119 N   0  0  0  0  0  0  0  0  0  0  0  0
  -29.4060  -24.3481   18.5953 N   0  0  0  0  0  0  0  0  0  0  0  0
  -30.5021  -27.9149   22.3574 N   0  0  0  0  0  0  0  0  0  0  0  0
  -27.1539  -30.7311   23.4774 N   0  0  0  0  0  0  0  0  0  0  0  0
  -22.0190  -13.0053   22.0100 N   0  0  0  0  0  0  0  0  0  0  0  0
  -28.5074  -12.6371   19.9542 N   0  0  0  0  0  0  0  0  0  0  0  0
  -28.6155  -22.5327   19.8887 N   0  0  0  0  0  0  0  0  0  0  0  0
  -29.8823  -13.9768   16.8911 N   0  3  0  0  0  0  0  0  0  0  0  0
  -29.2662  -30.0345   24.0356 O   0  0  0  0  0  0  0  0  0  0  0  0
  -24.0697  -13.6359   22.9154 O   0  0  0  0  0  0  0  0  0  0  0  0
  -25.9951  -11.4043   20.5685 O   0  0  0  0  0  0  0  0  0  0  0  0
  -29.0896  -14.8253   19.4539 O   0  0  0  0  0  0  0  0  0  0  0  0
  -30.0740  -22.1710   18.1569 O   0  0  0  0  0  0  0  0  0  0  0  0
  -22.2765  -31.2631   20.8386 O   0  0  0  0  0  0  0  0  0  0  0  0
  -24.4996  -19.7571   20.4731 O   0  0  0  0  0  0  0  0  0  1  0  0
  -19.3653  -31.8738   25.4815 F   0  0  0  0  0  0  0  0  0  0  0  0
  -23.2836  -32.7173   22.9632 F   0  0  0  0  0  0  0  0  0  0  0  0
  -24.6644  -22.3197   17.6223 Cl  0  0  0  0  0  0  0  0  0  0  0  0
  1  2  1  0  0  0  0
  1  5  2  0  0  0  0
  2  6  2  0  0  0  0
  3  8  2  0  0  0  0
  3 16  1  0  0  0  0
  4  9  1  0  0  0  0
  4 16  2  0  0  0  0
  5 18  1  0  0  0  0
  6 20  1  0  0  0  0
  7 10  2  0  0  0  0
  7 19  1  0  0  0  0
  8 24  1  0  0  0  0
  9 24  2  0  0  0  0
 10 25  1  0  0  0  0
 11 12  2  0  0  0  0
 11 26  1  0  0  0  0
 12 27  1  0  0  0  0
 13 21  1  0  0  0  0
 13 25  2  0  0  0  0
 14 27  2  0  0  0  0
 14 28  1  0  0  0  0
 15 29  2  0  0  0  0
 15 69  1  0  0  0  0
 16 30  1  0  0  0  0
 17 30  1  0  0  0  0
 17 32  2  0  0  0  0
 17 33  1  0  0  0  0
 18 20  2  0  0  0  0
 18 38  1  0  0  0  0
 19 21  2  0  0  0  0
 19 39  1  0  0  0  0
 20 47  1  0  0  0  0
 21 40  1  0  0  0  0
 22 23  2  0  0  0  0
 22 29  1  0  0  0  0
 22 56  1  0  0  0  0
 23 31  1  0  0  0  0
 23 50  1  0  0  0  0
 24 85  1  0  0  0  0
 25 86  1  0  0  0  0
 26 28  2  0  0  0  0
 26 85  1  0  0  0  0
 27 87  1  0  0  0  0
 28 88  1  0  0  0  0
 29 89  1  0  0  0  0
 30 70  2  0  0  0  0
 31 57  1  0  0  0  0
 31 69  2  0  0  0  0
 32 71  1  0  0  0  0
 32 74  1  0  0  0  0
 33 75  1  0  0  0  0
 33 80  2  0  0  0  0
 34 48  1  0  0  0  0
 34 76  1  0  0  0  0
 34 81  2  0  0  0  0
 35 66  1  0  0  0  0
 35 72  1  0  0  0  0
 35 82  2  0  0  0  0
 36 67  1  0  0  0  0
 36 77  1  0  0  0  0
 36 83  2  0  0  0  0
 37 73  1  0  0  0  0
 37 78  1  0  0  0  0
 37 84  2  0  0  0  0
 38 41  1  0  0  0  0
 39 48  1  0  0  0  0
 40 72  1  0  0  0  0
 41 43  1  0  0  0  0
 42 44  1  0  0  0  0
 42 45  1  0  0  0  0
 43 47  1  0  0  0  0
 44 49  1  0  0  0  0
 45 73  1  0  0  0  0
 46 49  1  0  0  0  0
 46 73  1  0  0  0  0
 47 76  1  0  0  0  0
 48 72  1  0  0  0  0
 49 71  1  0  0  0  0
 51 67  1  0  0  0  0
 52 68  1  0  0  0  0
 53 68  1  0  0  0  0
 54 68  1  0  0  0  0
 55 79  1  0  0  0  0
 56 86  1  0  0  0  0
 57 58  1  0  0  0  0
 58 59  1  0  0  0  0
 59 60  1  0  0  0  0
 60 61  1  0  0  0  0
 61 62  1  0  0  0  0
 62 63  1  0  0  0  0
 63 64  1  0  0  0  0
 64 65  1  0  0  0  0
 65 78  1  0  0  0  0
 66 68  1  0  0  0  0
 66 77  1  0  0  0  0
 67 79  1  0  0  0  0
 70 71  1  0  0  0  0
M  CHG  1  79   1
M  ISO  4  37 100  56 101  78 100  86 101
M  END
> <Batch ID>
0033

> <Smiles>
CNC(C)C(=O)NC(C(=O)N1Cc2cc([101O:1][101CH2:1]c3c(Cl)cnc(CCCCCCCCC[100NH:0][100C:0](=O)N4CCCC(n5nc(-c6ccc(Oc7ccc(F)cc7F)cc6)c(C(N)=O)c5N)C4)c3C)ccc2CC1C(=O)NC1CCCc2ccccc21)C(C)(C)C

> <Shape>
0.242

> <Color>
0.060

> <Negative vol penalty>
0.000

$$$$
