
  -OEChem-04052316503D

 83 92  0     1  0  0  0  0  0999 V2000
  -26.9193  -11.1442   23.4946 C   0  0  0  0  0  0  0  0  0  0  0  0
  -27.5774  -12.3658   23.3950 C   0  0  0  0  0  0  0  0  0  0  0  0
  -21.3988  -29.2202   20.1580 C   0  0  0  0  0  0  0  0  0  0  0  0
  -22.4280  -27.6020   21.6275 C   0  0  0  0  0  0  0  0  0  0  0  0
  -25.9737  -10.7829   22.5358 C   0  0  0  0  0  0  0  0  0  0  0  0
  -27.2911  -13.2264   22.3359 C   0  0  0  0  0  0  0  0  0  0  0  0
  -27.2216  -19.3485   22.4822 C   0  0  0  0  0  0  0  0  0  0  0  0
  -20.2413  -28.4433   20.1131 C   0  0  0  0  0  0  0  0  0  0  0  0
  -21.2704  -26.8251   21.5826 C   0  0  0  0  0  0  0  0  0  0  0  0
  -28.1606  -20.3066   22.1024 C   0  0  0  0  0  0  0  0  0  0  0  0
  -16.8841  -27.0651   19.9007 C   0  0  0  0  0  0  0  0  0  0  0  0
  -15.6592  -27.7177   20.0398 C   0  0  0  0  0  0  0  0  0  0  0  0
  -32.0683  -25.2244   18.5284 C   0  0  0  0  0  0  0  0  0  0  0  0
  -27.0629  -20.5264   19.9656 C   0  0  0  0  0  0  0  0  0  0  0  0
  -29.9399  -24.6240   19.5437 C   0  0  0  0  0  0  0  0  0  0  0  0
  -16.3295  -28.5108   22.2213 C   0  0  0  0  0  0  0  0  0  0  0  0
  -22.4922  -28.7996   20.9152 C   0  0  0  0  0  0  0  0  0  0  0  0
  -23.9902  -30.6259   21.8787 C   0  0  0  0  0  0  0  0  0  0  0  0
  -25.6687  -11.6437   21.4697 C   0  0  0  0  0  0  0  0  0  0  0  0
  -26.2010  -18.9636   21.6010 C   0  0  0  0  0  0  0  0  0  0  0  0
  -26.3415  -12.8757   21.3612 C   0  0  0  0  0  0  0  0  0  0  0  0
  -32.0900  -23.9798   17.9199 C   0  0  0  0  0  0  0  0  0  0  0  0
  -26.1108  -19.5651   20.3376 C   0  0  0  0  0  0  0  0  0  0  0  0
  -31.0473  -23.0639   18.1159 C   0  0  0  0  0  0  0  0  0  0  0  0
  -30.9802  -25.5451   19.3428 C   0  0  0  0  0  0  0  0  0  0  0  0
  -29.9711  -23.3693   18.9315 C   0  0  0  0  0  0  0  0  0  0  0  0
  -20.1770  -27.2457   20.8254 C   0  0  0  0  0  0  0  0  0  0  0  0
  -28.0830  -20.8936   20.8428 C   0  0  0  0  0  0  0  0  0  0  0  0
  -17.8317  -27.1352   20.9220 C   0  0  0  0  0  0  0  0  0  0  0  0
  -15.3819  -28.4406   21.2000 C   0  0  0  0  0  0  0  0  0  0  0  0
  -17.5544  -27.8581   22.0822 C   0  0  0  0  0  0  0  0  0  0  0  0
  -23.6884  -29.6014   20.9615 C   0  0  0  0  0  0  0  0  0  0  0  0
  -25.2330  -31.0710   21.4997 C   0  0  0  0  0  0  0  0  0  0  0  0
  -23.2162  -31.1301   22.9752 C   0  0  0  0  0  0  0  0  0  0  0  0
  -25.3642  -16.2411   20.1898 C   0  0  0  0  0  0  0  0  0  0  0  0
  -22.8156  -17.9888   19.2038 C   0  0  0  0  0  0  0  0  0  0  0  0
  -21.4994  -21.0633   18.5242 C   0  0  0  0  0  0  0  0  0  0  0  0
  -29.7576  -28.4985   18.5396 C   0  0  0  0  0  0  0  0  0  0  0  0
  -24.6736  -11.1891   20.4316 C   0  0  0  0  0  0  0  0  0  0  0  0
  -25.1801  -17.9482   22.0359 C   0  0  0  0  0  0  0  0  0  0  0  0
  -31.3150  -21.7852   17.3852 C   0  0  0  0  0  0  0  0  0  0  0  0
  -25.0223  -19.2016   19.3621 C   0  0  0  0  0  0  0  0  0  0  0  0
  -24.1559  -12.3207   19.5474 C   0  0  0  0  0  0  0  0  0  0  0  0
  -32.3797  -22.2429   16.3741 C   0  0  0  0  0  0  0  0  0  0  0  0
  -28.0471  -31.4927   17.6533 C   0  0  0  0  0  0  0  0  0  0  0  0
  -25.3115  -13.1903   19.0621 C   0  0  0  0  0  0  0  0  0  0  0  0
  -26.7633  -31.4400   18.4834 C   0  0  0  0  0  0  0  0  0  0  0  0
  -28.4633  -30.1056   17.1690 C   0  0  0  0  0  0  0  0  0  0  0  0
  -27.3010  -29.0367   19.0611 C   0  0  0  0  0  0  0  0  0  0  0  0
  -26.0403  -13.8471   20.2405 C   0  0  1  0  0  0  0  0  0  0  0  0
  -33.1496  -23.4014   17.0331 C   0  0  2  0  0  0  0  0  0  0  0  0
  -24.4876  -17.2578   20.8649 C   0  0  1  0  0  0  0  0  0  0  0  0
  -26.8719  -30.4045   19.6189 C   0  0  2  0  0  0  0  0  0  0  0  0
  -19.4044  -22.1705   17.6980 C   0  0  0  0  0  0  0  0  0  0  0  0
  -23.4908  -17.1342   16.3536 C   0  0  0  0  0  0  0  0  0  0  0  0
  -22.0113  -18.9761   15.5251 C   0  0  0  0  0  0  0  0  0  0  0  0
  -21.0491  -17.1262   16.8943 C   0  0  0  0  0  0  0  0  0  0  0  0
  -21.1574  -22.5645   21.0518 C   0  0  0  0  0  0  0  0  0  0  0  0
  -30.9252  -26.8779   20.0125 C   0  0  0  0  0  0  0  0  0  0  0  0
  -28.8594  -22.3889   19.1643 C   0  0  0  0  0  0  0  0  0  1  0  0
  -22.5146  -18.8595   18.0078 C   0  0  1  0  0  0  0  0  0  0  0  0
  -20.1814  -21.7046   18.9194 C   0  0  2  0  0  0  0  0  0  0  0  0
  -22.2882  -18.0296   16.7126 C   0  0  0  0  0  0  0  0  0  0  0  0
  -24.6612  -29.4072   20.0670 N   0  0  0  0  0  0  0  0  0  0  0  0
  -25.5863  -30.3157   20.4203 N   0  0  0  0  0  0  0  0  0  0  0  0
  -24.0516  -18.1990   19.8314 N   0  0  0  0  0  0  0  0  0  0  0  0
  -28.5494  -29.1717   18.2943 N   0  0  0  0  0  0  0  0  0  0  0  0
  -26.0472  -32.0309   21.9876 N   0  0  0  0  0  0  0  0  0  0  0  0
  -21.9607  -30.5594   23.2250 N   0  0  0  0  0  0  0  0  0  0  0  0
  -25.2826  -14.9753   20.7381 N   0  0  0  0  0  0  0  0  0  0  0  0
  -21.3814  -19.6964   18.3870 N   0  0  0  0  0  0  0  0  0  0  0  0
  -29.7554  -27.6366   19.6295 N   0  0  0  0  0  0  0  0  0  0  0  0
  -20.4220  -22.8821   19.8007 N   0  3  0  0  0  0  0  0  0  0  0  0
  -23.6188  -32.0701   23.7017 O   0  0  0  0  0  0  0  0  0  0  0  0
  -26.0617  -16.5796   19.2409 O   0  0  0  0  0  0  0  0  0  0  0  0
  -21.9816  -17.1579   19.5721 O   0  0  0  0  0  0  0  0  0  0  0  0
  -22.5296  -21.7108   18.3507 O   0  0  0  0  0  0  0  0  0  0  0  0
  -30.7652  -28.6581   17.8424 O   0  0  0  0  0  0  0  0  0  0  0  0
  -19.0476  -26.4874   20.7821 O   0  0  0  0  0  0  0  0  0  0  0  0
  -28.9986  -21.8285   20.4693 O   0  0  0  0  0  0  0  0  0  1  0  0
  -14.2062  -29.0685   21.3328 F   0  0  0  0  0  0  0  0  0  0  0  0
  -18.4612  -27.9302   23.0662 F   0  0  0  0  0  0  0  0  0  0  0  0
  -34.5079  -22.8042   18.0094 Cl  0  0  0  0  0  0  0  0  0  0  0  0
  1  2  1  0  0  0  0
  1  5  2  0  0  0  0
  2  6  2  0  0  0  0
  3  8  2  0  0  0  0
  3 17  1  0  0  0  0
  4  9  1  0  0  0  0
  4 17  2  0  0  0  0
  5 19  1  0  0  0  0
  6 21  1  0  0  0  0
  7 10  2  0  0  0  0
  7 20  1  0  0  0  0
  8 27  1  0  0  0  0
  9 27  2  0  0  0  0
 10 28  1  0  0  0  0
 11 12  2  0  0  0  0
 11 29  1  0  0  0  0
 12 30  1  0  0  0  0
 13 22  2  0  0  0  0
 13 25  1  0  0  0  0
 14 23  1  0  0  0  0
 14 28  2  0  0  0  0
 15 25  2  0  0  0  0
 15 26  1  0  0  0  0
 16 30  2  0  0  0  0
 16 31  1  0  0  0  0
 17 32  1  0  0  0  0
 18 32  1  0  0  0  0
 18 33  2  0  0  0  0
 18 34  1  0  0  0  0
 19 21  2  0  0  0  0
 19 39  1  0  0  0  0
 20 23  2  0  0  0  0
 20 40  1  0  0  0  0
 21 50  1  0  0  0  0
 22 24  1  0  0  0  0
 22 51  1  0  0  0  0
 23 42  1  0  0  0  0
 24 26  2  0  0  0  0
 24 41  1  0  0  0  0
 25 59  1  0  0  0  0
 26 60  1  0  0  0  0
 27 79  1  0  0  0  0
 28 80  1  0  0  0  0
 29 31  2  0  0  0  0
 29 79  1  0  0  0  0
 30 81  1  0  0  0  0
 31 82  1  0  0  0  0
 32 64  2  0  0  0  0
 33 65  1  0  0  0  0
 33 68  1  0  0  0  0
 34 69  1  0  0  0  0
 34 74  2  0  0  0  0
 35 52  1  0  0  0  0
 35 70  1  0  0  0  0
 35 75  2  0  0  0  0
 36 61  1  0  0  0  0
 36 66  1  0  0  0  0
 36 76  2  0  0  0  0
 37 62  1  0  0  0  0
 37 71  1  0  0  0  0
 37 77  2  0  0  0  0
 38 67  1  0  0  0  0
 38 72  1  0  0  0  0
 38 78  2  0  0  0  0
 39 43  1  0  0  0  0
 40 52  1  0  0  0  0
 41 44  1  0  0  0  0
 42 66  1  0  0  0  0
 43 46  1  0  0  0  0
 44 51  1  0  0  0  0
 45 47  1  0  0  0  0
 45 48  1  0  0  0  0
 46 50  1  0  0  0  0
 47 53  1  0  0  0  0
 48 67  1  0  0  0  0
 49 53  1  0  0  0  0
 49 67  1  0  0  0  0
 50 70  1  0  0  0  0
 51 83  1  0  0  0  0
 52 66  1  0  0  0  0
 53 65  1  0  0  0  0
 54 62  1  0  0  0  0
 55 63  1  0  0  0  0
 56 63  1  0  0  0  0
 57 63  1  0  0  0  0
 58 73  1  0  0  0  0
 59 72  1  0  0  0  0
 60 80  1  0  0  0  0
 61 63  1  0  0  0  0
 61 71  1  0  0  0  0
 62 73  1  0  0  0  0
 64 65  1  0  0  0  0
M  CHG  1  73   1
M  ISO  4  38 100  60 101  72 100  80 101
M  END
> <Batch ID>
0034

> <Smiles>
CNC(C)C(=O)NC(C(=O)N1Cc2cc([101O:1][101CH2:1]c3cc(C[100NH:0][100C:0](=O)N4CCCC(n5nc(-c6ccc(Oc7ccc(F)cc7F)cc6)c(C(N)=O)c5N)C4)cc4c3CCC4Cl)ccc2CC1C(=O)NC1CCCc2ccccc21)C(C)(C)C

> <Shape>
0.211

> <Color>
0.077

> <Negative vol penalty>
0.000

$$$$

  -OEChem-04052316503D

 83 91  0     1  0  0  0  0  0999 V2000
  -16.4910  -22.5002   27.2964 C   0  0  0  0  0  0  0  0  0  0  0  0
  -17.7832  -22.4777   26.7814 C   0  0  0  0  0  0  0  0  0  0  0  0
  -23.2888   -9.7995   19.9125 C   0  0  0  0  0  0  0  0  0  0  0  0
  -23.7390   -9.9397   22.2821 C   0  0  0  0  0  0  0  0  0  0  0  0
  -16.1426  -21.6435   28.3398 C   0  0  0  0  0  0  0  0  0  0  0  0
  -18.7281  -21.5992   27.3103 C   0  0  0  0  0  0  0  0  0  0  0  0
  -24.4027  -17.6778   25.3770 C   0  0  0  0  0  0  0  0  0  0  0  0
  -22.5624   -8.6270   20.1199 C   0  0  0  0  0  0  0  0  0  0  0  0
  -23.0125   -8.7672   22.4894 C   0  0  0  0  0  0  0  0  0  0  0  0
  -25.7299  -17.4521   25.7394 C   0  0  0  0  0  0  0  0  0  0  0  0
  -20.9732   -6.0068   23.6892 C   0  0  0  0  0  0  0  0  0  0  0  0
  -20.0714   -5.9813   24.7530 C   0  0  0  0  0  0  0  0  0  0  0  0
  -24.9928  -15.9623   27.4877 C   0  0  0  0  0  0  0  0  0  0  0  0
  -30.2588  -12.8653   25.8153 C   0  0  0  0  0  0  0  0  0  0  0  0
  -31.1040  -15.0603   25.2634 C   0  0  0  0  0  0  0  0  0  0  0  0
  -18.8620   -7.8285   23.7720 C   0  0  0  0  0  0  0  0  0  0  0  0
  -23.8771  -10.4559   20.9936 C   0  0  0  0  0  0  0  0  0  0  0  0
  -24.1365  -12.9860   20.7955 C   0  0  0  0  0  0  0  0  0  0  0  0
  -17.0810  -20.7472   28.8752 C   0  0  0  0  0  0  0  0  0  0  0  0
  -23.3583  -17.0549   26.0753 C   0  0  0  0  0  0  0  0  0  0  0  0
  -18.3923  -20.7306   28.3627 C   0  0  0  0  0  0  0  0  0  0  0  0
  -23.6533  -16.1798   27.1305 C   0  0  0  0  0  0  0  0  0  0  0  0
  -30.9962  -13.6997   24.9753 C   0  0  0  0  0  0  0  0  0  0  0  0
  -29.6291  -13.3913   26.9433 C   0  0  0  0  0  0  0  0  0  0  0  0
  -29.7369  -14.7518   27.2314 C   0  0  0  0  0  0  0  0  0  0  0  0
  -22.4243   -8.1108   21.4083 C   0  0  0  0  0  0  0  0  0  0  0  0
  -26.0250  -16.5965   26.7968 C   0  0  0  0  0  0  0  0  0  0  0  0
  -20.8196   -6.9432   22.6669 C   0  0  0  0  0  0  0  0  0  0  0  0
  -19.0158   -6.8921   24.7944 C   0  0  0  0  0  0  0  0  0  0  0  0
  -19.7640   -7.8540   22.7082 C   0  0  0  0  0  0  0  0  0  0  0  0
  -30.4743  -15.5863   26.3915 C   0  0  0  0  0  0  0  0  0  0  0  0
  -24.6281  -11.6669   20.7800 C   0  0  0  0  0  0  0  0  0  0  0  0
  -25.2380  -13.7659   20.5410 C   0  0  0  0  0  0  0  0  0  0  0  0
  -22.8034  -13.4635   21.0201 C   0  0  0  0  0  0  0  0  0  0  0  0
  -20.9027  -18.0748   27.8169 C   0  0  0  0  0  0  0  0  0  0  0  0
  -20.1061  -14.9304   27.8266 C   0  0  0  0  0  0  0  0  0  0  0  0
  -21.1176  -11.6844   27.5307 C   0  0  0  0  0  0  0  0  0  0  0  0
  -31.1088  -12.9230   21.3619 C   0  0  0  0  0  0  0  0  0  0  0  0
  -16.6712  -19.8736   30.0343 C   0  0  0  0  0  0  0  0  0  0  0  0
  -21.9331  -17.2880   25.6547 C   0  0  0  0  0  0  0  0  0  0  0  0
  -22.5694  -15.4707   27.8992 C   0  0  0  0  0  0  0  0  0  0  0  0
  -17.6261  -18.7098   30.2873 C   0  0  0  0  0  0  0  0  0  0  0  0
  -29.4607  -13.6629   18.2939 C   0  0  0  0  0  0  0  0  0  0  0  0
  -19.0732  -19.1918   30.2638 C   0  0  0  0  0  0  0  0  0  0  0  0
  -27.9909  -13.3543   18.5845 C   0  0  0  0  0  0  0  0  0  0  0  0
  -30.3938  -12.6834   19.0023 C   0  0  0  0  0  0  0  0  0  0  0  0
  -28.7067  -12.2537   20.7467 C   0  0  0  0  0  0  0  0  0  0  0  0
  -19.4384  -19.7744   28.8932 C   0  0  1  0  0  0  0  0  0  0  0  0
  -20.9278  -17.0014   26.7658 C   0  0  1  0  0  0  0  0  0  0  0  0
  -27.7289  -13.2489   20.0990 C   0  0  2  0  0  0  0  0  0  0  0  0
  -29.6930  -11.3285   28.3671 C   0  0  0  0  0  0  0  0  0  0  0  0
  -20.9159   -9.1887   27.3636 C   0  0  0  0  0  0  0  0  0  0  0  0
  -19.9801  -15.1002   30.8705 C   0  0  0  0  0  0  0  0  0  0  0  0
  -20.0547  -12.5988   30.9436 C   0  0  0  0  0  0  0  0  0  0  0  0
  -18.1493  -13.7558   29.8240 C   0  0  0  0  0  0  0  0  0  0  0  0
  -20.7943  -11.7912   24.5908 C   0  0  0  0  0  0  0  0  0  0  0  0
  -28.8448  -12.4744   27.8243 C   0  0  0  0  0  0  0  0  0  0  0  0
  -29.0488  -15.3050   28.4557 C   0  0  0  0  0  0  0  0  0  0  0  0
  -31.6701  -13.1363   23.7699 C   0  0  0  0  0  0  0  0  0  0  0  0
  -27.5495  -15.4865   28.2459 C   0  0  0  0  0  0  0  0  0  1  0  0
  -20.4209  -13.7505   28.7141 C   0  0  1  0  0  0  0  0  0  0  0  0
  -20.5563  -10.5235   26.7297 C   0  0  2  0  0  0  0  0  0  0  0  0
  -19.6718  -13.8160   30.0750 C   0  0  0  0  0  0  0  0  0  0  0  0
  -25.9398  -11.6084   20.5347 N   0  0  0  0  0  0  0  0  0  0  0  0
  -26.2817  -12.9004   20.3938 N   0  0  0  0  0  0  0  0  0  0  0  0
  -21.1914  -15.7360   27.4541 N   0  0  0  0  0  0  0  0  0  0  0  0
  -30.0941  -12.6317   20.4353 N   0  0  0  0  0  0  0  0  0  0  0  0
  -25.4059  -15.1009   20.4308 N   0  0  0  0  0  0  0  0  0  0  0  0
  -21.7908  -12.5265   21.2671 N   0  0  0  0  0  0  0  0  0  0  0  0
  -19.6828  -18.7120   27.9413 N   0  0  0  0  0  0  0  0  0  0  0  0
  -20.1269  -12.5578   27.9271 N   0  0  0  0  0  0  0  0  0  0  0  0
  -30.7388  -12.8572   22.6996 N   0  0  0  0  0  0  0  0  0  0  0  0
  -21.0949  -10.5443   25.3403 N   0  3  0  0  0  0  0  0  0  0  0  0
  -22.5154  -14.6839   20.9859 O   0  0  0  0  0  0  0  0  0  0  0  0
  -21.9147  -18.3068   28.4679 O   0  0  0  0  0  0  0  0  0  0  0  0
  -18.9412  -15.1258   27.4709 O   0  0  0  0  0  0  0  0  0  0  0  0
  -22.3147  -11.8027   27.7829 O   0  0  0  0  0  0  0  0  0  0  0  0
  -32.2579  -13.2249   21.0221 O   0  0  0  0  0  0  0  0  0  0  0  0
  -21.7153   -6.9667   21.6111 O   0  0  0  0  0  0  0  0  0  0  0  0
  -27.3195  -16.3750   27.1531 O   0  0  0  0  0  0  0  0  0  1  0  0
  -18.1489   -6.8665   25.8152 F   0  0  0  0  0  0  0  0  0  0  0  0
  -19.6105   -8.7552   21.7284 F   0  0  0  0  0  0  0  0  0  0  0  0
  -30.6330  -17.2750   26.7146 Cl  0  0  0  0  0  0  0  0  0  0  0  0
  1  2  1  0  0  0  0
  1  5  2  0  0  0  0
  2  6  2  0  0  0  0
  3  8  2  0  0  0  0
  3 17  1  0  0  0  0
  4  9  1  0  0  0  0
  4 17  2  0  0  0  0
  5 19  1  0  0  0  0
  6 21  1  0  0  0  0
  7 10  2  0  0  0  0
  7 20  1  0  0  0  0
  8 26  1  0  0  0  0
  9 26  2  0  0  0  0
 10 27  1  0  0  0  0
 11 12  2  0  0  0  0
 11 28  1  0  0  0  0
 12 29  1  0  0  0  0
 13 22  1  0  0  0  0
 13 27  2  0  0  0  0
 14 23  2  0  0  0  0
 14 24  1  0  0  0  0
 15 23  1  0  0  0  0
 15 31  2  0  0  0  0
 16 29  2  0  0  0  0
 16 30  1  0  0  0  0
 17 32  1  0  0  0  0
 18 32  1  0  0  0  0
 18 33  2  0  0  0  0
 18 34  1  0  0  0  0
 19 21  2  0  0  0  0
 19 39  1  0  0  0  0
 20 22  2  0  0  0  0
 20 40  1  0  0  0  0
 21 48  1  0  0  0  0
 22 41  1  0  0  0  0
 23 59  1  0  0  0  0
 24 25  2  0  0  0  0
 24 57  1  0  0  0  0
 25 31  1  0  0  0  0
 25 58  1  0  0  0  0
 26 79  1  0  0  0  0
 27 80  1  0  0  0  0
 28 30  2  0  0  0  0
 28 79  1  0  0  0  0
 29 81  1  0  0  0  0
 30 82  1  0  0  0  0
 31 83  1  0  0  0  0
 32 64  2  0  0  0  0
 33 65  1  0  0  0  0
 33 68  1  0  0  0  0
 34 69  1  0  0  0  0
 34 74  2  0  0  0  0
 35 49  1  0  0  0  0
 35 70  1  0  0  0  0
 35 75  2  0  0  0  0
 36 61  1  0  0  0  0
 36 66  1  0  0  0  0
 36 76  2  0  0  0  0
 37 62  1  0  0  0  0
 37 71  1  0  0  0  0
 37 77  2  0  0  0  0
 38 67  1  0  0  0  0
 38 72  1  0  0  0  0
 38 78  2  0  0  0  0
 39 42  1  0  0  0  0
 40 49  1  0  0  0  0
 41 66  1  0  0  0  0
 42 44  1  0  0  0  0
 43 45  1  0  0  0  0
 43 46  1  0  0  0  0
 44 48  1  0  0  0  0
 45 50  1  0  0  0  0
 46 67  1  0  0  0  0
 47 50  1  0  0  0  0
 47 67  1  0  0  0  0
 48 70  1  0  0  0  0
 49 66  1  0  0  0  0
 50 65  1  0  0  0  0
 51 57  1  0  0  0  0
 52 62  1  0  0  0  0
 53 63  1  0  0  0  0
 54 63  1  0  0  0  0
 55 63  1  0  0  0  0
 56 73  1  0  0  0  0
 58 60  1  0  0  0  0
 59 72  1  0  0  0  0
 60 80  1  0  0  0  0
 61 63  1  0  0  0  0
 61 71  1  0  0  0  0
 62 73  1  0  0  0  0
 64 65  1  0  0  0  0
M  CHG  1  73   1
M  ISO  4  38 100  60 101  72 100  80 101
M  END
> <Batch ID>
0034

> <Smiles>
CCc1cc(C[100NH:0][100C:0](=O)N2CCCC(n3nc(-c4ccc(Oc5ccc(F)cc5F)cc4)c(C(N)=O)c3N)C2)cc(Cl)c1C[101CH2:1][101O:1]c1ccc2c(c1)CN(C(=O)C(NC(=O)C(C)NC)C(C)(C)C)C(C(=O)NC1CCCc3ccccc31)C2

> <Shape>
0.129

> <Color>
0.178

> <Negative vol penalty>
0.000

$$$$

  -OEChem-04052316503D

 82 90  0     1  0  0  0  0  0999 V2000
  -24.8586  -20.0765   24.0357 C   0  0  0  0  0  0  0  0  0  0  0  0
  -25.6562  -20.9549   23.3093 C   0  0  0  0  0  0  0  0  0  0  0  0
  -27.4831  -11.0371   20.7362 C   0  0  0  0  0  0  0  0  0  0  0  0
  -27.3319  -11.4159   18.3549 C   0  0  0  0  0  0  0  0  0  0  0  0
  -23.5021  -20.3486   24.2083 C   0  0  0  0  0  0  0  0  0  0  0  0
  -25.0975  -22.1056   22.7542 C   0  0  0  0  0  0  0  0  0  0  0  0
  -27.9667  -26.2117   23.4973 C   0  0  0  0  0  0  0  0  0  0  0  0
  -26.4369  -10.1180   20.6565 C   0  0  0  0  0  0  0  0  0  0  0  0
  -26.2857  -10.4967   18.2751 C   0  0  0  0  0  0  0  0  0  0  0  0
  -29.0825  -26.3659   22.6758 C   0  0  0  0  0  0  0  0  0  0  0  0
  -23.0654  -10.1957   20.4298 C   0  0  0  0  0  0  0  0  0  0  0  0
  -22.0589  -10.2756   21.3921 C   0  0  0  0  0  0  0  0  0  0  0  0
  -27.8527  -27.9271   21.3086 C   0  0  0  0  0  0  0  0  0  0  0  0
  -22.5575   -8.0203   22.1009 C   0  0  0  0  0  0  0  0  0  0  0  0
  -28.4271  -24.9759   18.6789 C   0  0  0  0  0  0  0  0  0  0  0  0
  -27.9305  -11.6861   19.5854 C   0  0  0  0  0  0  0  0  0  0  0  0
  -30.3873  -12.3713   19.5375 C   0  0  0  0  0  0  0  0  0  0  0  0
  -22.9285  -21.5081   23.6632 C   0  0  0  0  0  0  0  0  0  0  0  0
  -26.7800  -26.9069   23.2238 C   0  0  0  0  0  0  0  0  0  0  0  0
  -23.7317  -22.3928   22.9185 C   0  0  0  0  0  0  0  0  0  0  0  0
  -26.7240  -27.7819   22.1296 C   0  0  0  0  0  0  0  0  0  0  0  0
  -28.9782  -22.8762   18.0812 C   0  0  0  0  0  0  0  0  0  0  0  0
  -25.8383   -9.8477   19.4259 C   0  0  0  0  0  0  0  0  0  0  0  0
  -29.0248  -27.2215   21.5796 C   0  0  0  0  0  0  0  0  0  0  0  0
  -23.8180   -9.0281   20.3030 C   0  0  0  0  0  0  0  0  0  0  0  0
  -21.8049   -9.1879   22.2276 C   0  0  0  0  0  0  0  0  0  0  0  0
  -23.5641   -7.9405   21.1385 C   0  0  0  0  0  0  0  0  0  0  0  0
  -27.9431  -23.6884   18.6064 C   0  0  0  0  0  0  0  0  0  0  0  0
  -29.0108  -12.6361   19.6672 C   0  0  0  0  0  0  0  0  0  0  0  0
  -30.0635  -23.6921   17.8490 C   0  0  0  0  0  0  0  0  0  0  0  0
  -30.9888  -13.5962   19.6933 C   0  0  0  0  0  0  0  0  0  0  0  0
  -31.0620  -11.1292   19.2976 C   0  0  0  0  0  0  0  0  0  0  0  0
  -23.8021  -26.0633   22.4997 C   0  0  0  0  0  0  0  0  0  0  0  0
  -28.9381  -19.0888   18.7438 C   0  0  0  0  0  0  0  0  0  0  0  0
  -23.2495  -29.2486   22.7658 C   0  0  0  0  0  0  0  0  0  0  0  0
  -24.4950  -32.4241   22.6584 C   0  0  0  0  0  0  0  0  0  0  0  0
  -21.4477  -21.7357   23.8362 C   0  0  0  0  0  0  0  0  0  0  0  0
  -25.5937  -26.7500   24.1351 C   0  0  0  0  0  0  0  0  0  0  0  0
  -25.4803  -28.5667   21.8046 C   0  0  0  0  0  0  0  0  0  0  0  0
  -21.0119  -23.1671   23.5333 C   0  0  0  0  0  0  0  0  0  0  0  0
  -30.3886  -17.8265   21.8308 C   0  0  0  0  0  0  0  0  0  0  0  0
  -21.6370  -23.6506   22.2286 C   0  0  0  0  0  0  0  0  0  0  0  0
  -30.2952  -16.3162   21.6172 C   0  0  0  0  0  0  0  0  0  0  0  0
  -29.1966  -18.5551   21.2157 C   0  0  0  0  0  0  0  0  0  0  0  0
  -28.8993  -16.7498   19.5492 C   0  0  0  0  0  0  0  0  0  0  0  0
  -23.1676  -23.6640   22.3219 C   0  0  1  0  0  0  0  0  0  0  0  0
  -24.2727  -27.1146   23.4646 C   0  0  1  0  0  0  0  0  0  0  0  0
  -30.0984  -15.9806   20.1285 C   0  0  2  0  0  0  0  0  0  0  0  0
  -31.4013  -23.3693   17.3089 C   0  0  0  0  0  0  0  0  0  0  0  0
  -23.7939  -34.8236   22.8778 C   0  0  0  0  0  0  0  0  0  0  0  0
  -22.0159  -29.1407   19.9771 C   0  0  0  0  0  0  0  0  0  0  0  0
  -22.2111  -31.6344   19.8703 C   0  0  0  0  0  0  0  0  0  0  0  0
  -20.7761  -30.5709   21.6117 C   0  0  0  0  0  0  0  0  0  0  0  0
  -26.2831  -32.8554   24.9770 C   0  0  0  0  0  0  0  0  0  0  0  0
  -28.9169  -21.4215   17.8252 C   0  0  0  0  0  0  0  0  0  0  0  0
  -29.0297  -20.5533   19.0913 C   0  0  0  0  0  0  0  0  0  0  0  0
  -31.6248  -26.2807   19.2676 C   0  0  0  0  0  0  0  0  0  0  0  0
  -30.6041  -26.1826   18.1317 C   0  0  0  0  0  0  0  0  0  0  0  0
  -30.9907  -26.2554   20.6534 C   0  0  0  0  0  0  0  0  0  1  0  0
  -23.2915  -30.4237   21.8191 C   0  0  1  0  0  0  0  0  0  0  0  0
  -24.3350  -33.6014   23.6033 C   0  0  2  0  0  0  0  0  0  0  0  0
  -22.0966  -30.4263   20.8243 C   0  0  0  0  0  0  0  0  0  0  0  0
  -28.7528  -13.9277   19.8886 N   0  0  0  0  0  0  0  0  0  0  0  0
  -29.7171  -24.9662   18.2162 N   0  0  0  0  0  0  0  0  0  0  0  0
  -29.9754  -14.4855   19.8992 N   0  0  0  0  0  0  0  0  0  0  0  0
  -24.3448  -28.3744   22.7218 N   0  0  0  0  0  0  0  0  0  0  0  0
  -29.0265  -18.1874   19.8049 N   0  0  0  0  0  0  0  0  0  0  0  0
  -32.2803  -13.9886   19.6730 N   0  0  0  0  0  0  0  0  0  0  0  0
  -30.2921   -9.9659   19.1622 N   0  0  0  0  0  0  0  0  0  0  0  0
  -23.6183  -24.8181   23.0699 N   0  0  0  0  0  0  0  0  0  0  0  0
  -23.3768  -31.6174   22.6536 N   0  0  0  0  0  0  0  0  0  0  0  0
  -25.6473  -33.9590   24.2122 N   0  3  0  0  0  0  0  0  0  0  0  0
  -32.3117  -11.0505   19.2222 O   0  0  0  0  0  0  0  0  0  0  0  0
  -23.6179  -26.3603   21.3251 O   0  0  0  0  0  0  0  0  0  0  0  0
  -28.7951  -18.7579   17.5639 O   0  0  0  0  0  0  0  0  0  0  0  0
  -22.2839  -29.1153   23.5218 O   0  0  0  0  0  0  0  0  0  0  0  0
  -25.5090  -32.2407   21.9886 O   0  0  0  0  0  0  0  0  0  0  0  0
  -24.8176   -8.9507   19.3477 O   0  0  0  0  0  0  0  0  0  0  0  0
  -30.1123  -27.3734   20.7757 O   0  0  0  0  0  0  0  0  0  1  0  0
  -20.8392   -9.2653   23.1527 F   0  0  0  0  0  0  0  0  0  0  0  0
  -24.2846   -6.8166   21.0222 F   0  0  0  0  0  0  0  0  0  0  0  0
  -26.3934  -23.1600   19.0592 Cl  0  0  0  0  0  0  0  0  0  0  0  0
  1  2  1  0  0  0  0
  1  5  2  0  0  0  0
  2  6  2  0  0  0  0
  3  8  2  0  0  0  0
  3 16  1  0  0  0  0
  4  9  1  0  0  0  0
  4 16  2  0  0  0  0
  5 18  1  0  0  0  0
  6 20  1  0  0  0  0
  7 10  2  0  0  0  0
  7 19  1  0  0  0  0
  8 23  1  0  0  0  0
  9 23  2  0  0  0  0
 10 24  1  0  0  0  0
 11 12  2  0  0  0  0
 11 25  1  0  0  0  0
 12 26  1  0  0  0  0
 13 21  1  0  0  0  0
 13 24  2  0  0  0  0
 14 26  2  0  0  0  0
 14 27  1  0  0  0  0
 15 28  2  0  0  0  0
 15 64  1  0  0  0  0
 16 29  1  0  0  0  0
 17 29  1  0  0  0  0
 17 31  2  0  0  0  0
 17 32  1  0  0  0  0
 18 20  2  0  0  0  0
 18 37  1  0  0  0  0
 19 21  2  0  0  0  0
 19 38  1  0  0  0  0
 20 46  1  0  0  0  0
 21 39  1  0  0  0  0
 22 28  1  0  0  0  0
 22 30  2  0  0  0  0
 22 55  1  0  0  0  0
 23 78  1  0  0  0  0
 24 79  1  0  0  0  0
 25 27  2  0  0  0  0
 25 78  1  0  0  0  0
 26 80  1  0  0  0  0
 27 81  1  0  0  0  0
 28 82  1  0  0  0  0
 29 63  2  0  0  0  0
 30 49  1  0  0  0  0
 30 64  1  0  0  0  0
 31 65  1  0  0  0  0
 31 68  1  0  0  0  0
 32 69  1  0  0  0  0
 32 73  2  0  0  0  0
 33 47  1  0  0  0  0
 33 70  1  0  0  0  0
 33 74  2  0  0  0  0
 34 56  1  0  0  0  0
 34 67  1  0  0  0  0
 34 75  2  0  0  0  0
 35 60  1  0  0  0  0
 35 66  1  0  0  0  0
 35 76  2  0  0  0  0
 36 61  1  0  0  0  0
 36 71  1  0  0  0  0
 36 77  2  0  0  0  0
 37 40  1  0  0  0  0
 38 47  1  0  0  0  0
 39 66  1  0  0  0  0
 40 42  1  0  0  0  0
 41 43  1  0  0  0  0
 41 44  1  0  0  0  0
 42 46  1  0  0  0  0
 43 48  1  0  0  0  0
 44 67  1  0  0  0  0
 45 48  1  0  0  0  0
 45 67  1  0  0  0  0
 46 70  1  0  0  0  0
 47 66  1  0  0  0  0
 48 65  1  0  0  0  0
 50 61  1  0  0  0  0
 51 62  1  0  0  0  0
 52 62  1  0  0  0  0
 53 62  1  0  0  0  0
 54 72  1  0  0  0  0
 55 56  1  0  0  0  0
 57 58  1  0  0  0  0
 57 59  1  0  0  0  0
 58 64  1  0  0  0  0
 59 79  1  0  0  0  0
 60 62  1  0  0  0  0
 60 71  1  0  0  0  0
 61 72  1  0  0  0  0
 63 65  1  0  0  0  0
M  CHG  1  72   1
M  ISO  4  34 100  56 100  59 101  79 101
M  END
> <Batch ID>
0034

> <Smiles>
CNC(C)C(=O)NC(C(=O)N1Cc2cc([101O:1][101CH2:1]CCn3cc(Cl)c(C[100CH2:0][100C:0](=O)N4CCCC(n5nc(-c6ccc(Oc7ccc(F)cc7F)cc6)c(C(N)=O)c5N)C4)c3C)ccc2CC1C(=O)NC1CCCc2ccccc21)C(C)(C)C

> <Shape>
0.273

> <Color>
0.058

> <Negative vol penalty>
0.000

$$$$

  -OEChem-04052316503D

 84 92  0     1  0  0  0  0  0999 V2000
  -22.8027  -23.4428   20.8006 C   0  0  0  0  0  0  0  0  0  0  0  0
  -23.9083  -22.8789   20.1720 C   0  0  0  0  0  0  0  0  0  0  0  0
  -26.1496  -27.8757   19.0574 C   0  0  0  0  0  0  0  0  0  0  0  0
  -25.8485  -27.0081   21.2921 C   0  0  0  0  0  0  0  0  0  0  0  0
  -22.2640  -22.8384   21.9357 C   0  0  0  0  0  0  0  0  0  0  0  0
  -24.4765  -21.7107   20.6789 C   0  0  0  0  0  0  0  0  0  0  0  0
  -27.8384  -15.7560   18.5444 C   0  0  0  0  0  0  0  0  0  0  0  0
  -25.0138  -28.6703   19.2128 C   0  0  0  0  0  0  0  0  0  0  0  0
  -24.7127  -27.8027   21.4475 C   0  0  0  0  0  0  0  0  0  0  0  0
  -28.9963  -15.0226   18.7996 C   0  0  0  0  0  0  0  0  0  0  0  0
  -21.4690  -27.7254   20.4970 C   0  0  0  0  0  0  0  0  0  0  0  0
  -20.3368  -27.1347   21.0581 C   0  0  0  0  0  0  0  0  0  0  0  0
  -27.9325  -14.0227   20.7199 C   0  0  0  0  0  0  0  0  0  0  0  0
  -32.1497  -18.0898   22.9634 C   0  0  0  0  0  0  0  0  0  0  0  0
  -20.3934  -28.7404   22.8625 C   0  0  0  0  0  0  0  0  0  0  0  0
  -26.5669  -27.0446   20.0970 C   0  0  0  0  0  0  0  0  0  0  0  0
  -29.0531  -26.6580   19.6763 C   0  0  0  0  0  0  0  0  0  0  0  0
  -22.8200  -21.6569   22.4510 C   0  0  0  0  0  0  0  0  0  0  0  0
  -26.7208  -15.6363   19.3828 C   0  0  0  0  0  0  0  0  0  0  0  0
  -23.9455  -21.0906   21.8227 C   0  0  0  0  0  0  0  0  0  0  0  0
  -26.7608  -14.7538   20.4717 C   0  0  0  0  0  0  0  0  0  0  0  0
  -30.9650  -17.3568   22.8950 C   0  0  0  0  0  0  0  0  0  0  0  0
  -32.2324  -15.3514   22.4374 C   0  0  0  0  0  0  0  0  0  0  0  0
  -33.4171  -16.0845   22.5058 C   0  0  0  0  0  0  0  0  0  0  0  0
  -24.2953  -28.6338   20.4079 C   0  0  0  0  0  0  0  0  0  0  0  0
  -29.0445  -14.1579   19.8891 C   0  0  0  0  0  0  0  0  0  0  0  0
  -22.0635  -28.8235   21.1187 C   0  0  0  0  0  0  0  0  0  0  0  0
  -19.7989  -27.6423   22.2408 C   0  0  0  0  0  0  0  0  0  0  0  0
  -21.5256  -29.3310   22.3014 C   0  0  0  0  0  0  0  0  0  0  0  0
  -31.0063  -15.9876   22.6320 C   0  0  0  0  0  0  0  0  0  0  0  0
  -33.3758  -17.4537   22.7688 C   0  0  0  0  0  0  0  0  0  0  0  0
  -27.7398  -26.2231   19.9369 C   0  0  0  0  0  0  0  0  0  0  0  0
  -29.7917  -25.5017   19.6139 C   0  0  0  0  0  0  0  0  0  0  0  0
  -29.5602  -27.9883   19.5060 C   0  0  0  0  0  0  0  0  0  0  0  0
  -25.0998  -17.6263   21.2580 C   0  0  0  0  0  0  0  0  0  0  0  0
  -23.1171  -15.0802   21.5879 C   0  0  0  0  0  0  0  0  0  0  0  0
  -22.7017  -11.6954   21.4558 C   0  0  0  0  0  0  0  0  0  0  0  0
  -28.9863  -20.1839   22.0486 C   0  0  0  0  0  0  0  0  0  0  0  0
  -22.2321  -21.0659   23.7080 C   0  0  0  0  0  0  0  0  0  0  0  0
  -25.4700  -16.4143   19.0785 C   0  0  0  0  0  0  0  0  0  0  0  0
  -25.5809  -14.5738   21.3904 C   0  0  0  0  0  0  0  0  0  0  0  0
  -22.6631  -19.6238   23.9624 C   0  0  0  0  0  0  0  0  0  0  0  0
  -29.3956  -20.8598   18.5169 C   0  0  0  0  0  0  0  0  0  0  0  0
  -24.1686  -19.4744   23.7679 C   0  0  0  0  0  0  0  0  0  0  0  0
  -29.1389  -22.3670   18.4639 C   0  0  0  0  0  0  0  0  0  0  0  0
  -28.4815  -20.1787   19.5311 C   0  0  0  0  0  0  0  0  0  0  0  0
  -28.3053  -22.2480   20.8578 C   0  0  0  0  0  0  0  0  0  0  0  0
  -24.5748  -19.8104   22.3279 C   0  0  1  0  0  0  0  0  0  0  0  0
  -24.5705  -16.5999   20.2966 C   0  0  1  0  0  0  0  0  0  0  0  0
  -29.2141  -22.9978   19.8669 C   0  0  2  0  0  0  0  0  0  0  0  0
  -34.7246  -15.3867   22.2945 C   0  0  0  0  0  0  0  0  0  0  0  0
  -20.9782   -9.9068   21.8132 C   0  0  0  0  0  0  0  0  0  0  0  0
  -23.4241  -15.3912   24.6077 C   0  0  0  0  0  0  0  0  0  0  0  0
  -22.4983  -13.0799   24.8698 C   0  0  0  0  0  0  0  0  0  0  0  0
  -21.1001  -14.8727   23.8433 C   0  0  0  0  0  0  0  0  0  0  0  0
  -22.8859  -10.7936   18.6430 C   0  0  0  0  0  0  0  0  0  0  0  0
  -32.2513  -13.8704   22.1545 C   0  0  0  0  0  0  0  0  0  0  0  0
  -29.6557  -18.0401   23.1036 C   0  0  0  0  0  0  0  0  0  0  0  0
  -32.5087  -13.5272   20.6857 C   0  0  0  0  0  0  0  0  0  0  0  0
  -31.4149  -14.0260   19.7485 C   0  0  0  0  0  0  0  0  0  1  0  0
  -23.0336  -13.9055   22.5325 C   0  0  1  0  0  0  0  0  0  0  0  0
  -21.6335  -10.8363   20.8036 C   0  0  2  0  0  0  0  0  0  0  0  0
  -22.5371  -14.3170   23.9473 C   0  0  0  0  0  0  0  0  0  0  0  0
  -27.6463  -24.8942   20.0332 N   0  0  0  0  0  0  0  0  0  0  0  0
  -28.9102  -24.4841   19.8321 N   0  0  0  0  0  0  0  0  0  0  0  0
  -24.3831  -15.3613   21.0548 N   0  0  0  0  0  0  0  0  0  0  0  0
  -28.6148  -20.8144   20.8495 N   0  0  0  0  0  0  0  0  0  0  0  0
  -31.1027  -25.2662   19.3942 N   0  0  0  0  0  0  0  0  0  0  0  0
  -30.0126  -28.6808   20.6374 N   0  0  0  0  0  0  0  0  0  0  0  0
  -24.2608  -18.7084   21.4439 N   0  0  0  0  0  0  0  0  0  0  0  0
  -22.1972  -12.9092   21.8720 N   0  0  0  0  0  0  0  0  0  0  0  0
  -29.2558  -18.8239   21.9561 N   0  0  0  0  0  0  0  0  0  0  0  0
  -22.2276  -10.0067   19.7174 N   0  3  0  0  0  0  0  0  0  0  0  0
  -29.5953  -28.5524   18.3861 O   0  0  0  0  0  0  0  0  0  0  0  0
  -26.1880  -17.4487   21.7926 O   0  0  0  0  0  0  0  0  0  0  0  0
  -22.0954  -15.7201   21.3269 O   0  0  0  0  0  0  0  0  0  0  0  0
  -23.8663  -11.3250   21.5864 O   0  0  0  0  0  0  0  0  0  0  0  0
  -29.0766  -20.7895   23.1220 O   0  0  0  0  0  0  0  0  0  0  0  0
  -23.1871  -29.4092   20.5600 O   0  0  0  0  0  0  0  0  0  0  0  0
  -30.1737  -13.4413   20.1408 O   0  0  0  0  0  0  0  0  0  1  0  0
  -18.7107  -27.0760   22.7787 F   0  0  0  0  0  0  0  0  0  0  0  0
  -22.0917  -30.3865   22.9026 F   0  0  0  0  0  0  0  0  0  0  0  0
  -29.8664  -15.2836   22.5664 F   0  0  0  0  0  0  0  0  0  0  0  0
  -34.8193  -18.3965   22.8616 Cl  0  0  0  0  0  0  0  0  0  0  0  0
  1  2  1  0  0  0  0
  1  5  2  0  0  0  0
  2  6  2  0  0  0  0
  3  8  2  0  0  0  0
  3 16  1  0  0  0  0
  4  9  1  0  0  0  0
  4 16  2  0  0  0  0
  5 18  1  0  0  0  0
  6 20  1  0  0  0  0
  7 10  2  0  0  0  0
  7 19  1  0  0  0  0
  8 25  1  0  0  0  0
  9 25  2  0  0  0  0
 10 26  1  0  0  0  0
 11 12  2  0  0  0  0
 11 27  1  0  0  0  0
 12 28  1  0  0  0  0
 13 21  1  0  0  0  0
 13 26  2  0  0  0  0
 14 22  2  0  0  0  0
 14 31  1  0  0  0  0
 15 28  2  0  0  0  0
 15 29  1  0  0  0  0
 16 32  1  0  0  0  0
 17 32  1  0  0  0  0
 17 33  2  0  0  0  0
 17 34  1  0  0  0  0
 18 20  2  0  0  0  0
 18 39  1  0  0  0  0
 19 21  2  0  0  0  0
 19 40  1  0  0  0  0
 20 48  1  0  0  0  0
 21 41  1  0  0  0  0
 22 30  1  0  0  0  0
 22 58  1  0  0  0  0
 23 24  1  0  0  0  0
 23 30  2  0  0  0  0
 23 57  1  0  0  0  0
 24 31  2  0  0  0  0
 24 51  1  0  0  0  0
 25 79  1  0  0  0  0
 26 80  1  0  0  0  0
 27 29  2  0  0  0  0
 27 79  1  0  0  0  0
 28 81  1  0  0  0  0
 29 82  1  0  0  0  0
 30 83  1  0  0  0  0
 31 84  1  0  0  0  0
 32 64  2  0  0  0  0
 33 65  1  0  0  0  0
 33 68  1  0  0  0  0
 34 69  1  0  0  0  0
 34 74  2  0  0  0  0
 35 49  1  0  0  0  0
 35 70  1  0  0  0  0
 35 75  2  0  0  0  0
 36 61  1  0  0  0  0
 36 66  1  0  0  0  0
 36 76  2  0  0  0  0
 37 62  1  0  0  0  0
 37 71  1  0  0  0  0
 37 77  2  0  0  0  0
 38 67  1  0  0  0  0
 38 72  1  0  0  0  0
 38 78  2  0  0  0  0
 39 42  1  0  0  0  0
 40 49  1  0  0  0  0
 41 66  1  0  0  0  0
 42 44  1  0  0  0  0
 43 45  1  0  0  0  0
 43 46  1  0  0  0  0
 44 48  1  0  0  0  0
 45 50  1  0  0  0  0
 46 67  1  0  0  0  0
 47 50  1  0  0  0  0
 47 67  1  0  0  0  0
 48 70  1  0  0  0  0
 49 66  1  0  0  0  0
 50 65  1  0  0  0  0
 52 62  1  0  0  0  0
 53 63  1  0  0  0  0
 54 63  1  0  0  0  0
 55 63  1  0  0  0  0
 56 73  1  0  0  0  0
 57 59  1  0  0  0  0
 58 72  1  0  0  0  0
 59 60  1  0  0  0  0
 60 80  1  0  0  0  0
 61 63  1  0  0  0  0
 61 71  1  0  0  0  0
 62 73  1  0  0  0  0
 64 65  1  0  0  0  0
M  CHG  1  73   1
M  ISO  4  38 100  60 101  72 100  80 101
M  END
> <Batch ID>
0034

> <Smiles>
CNC(C)C(=O)NC(C(=O)N1Cc2cc([101O:1][101CH2:1]CCc3c(C)c(Cl)cc(C[100NH:0][100C:0](=O)N4CCCC(n5nc(-c6ccc(Oc7ccc(F)cc7F)cc6)c(C(N)=O)c5N)C4)c3F)ccc2CC1C(=O)NC1CCCc2ccccc21)C(C)(C)C

> <Shape>
0.255

> <Color>
0.052

> <Negative vol penalty>
0.000

$$$$

  -OEChem-04052316503D

 82 90  0     1  0  0  0  0  0999 V2000
  -28.6487   -9.7017   16.7021 C   0  0  0  0  0  0  0  0  0  0  0  0
  -27.4840  -10.4596   16.6337 C   0  0  0  0  0  0  0  0  0  0  0  0
  -27.1104  -31.3509   21.7327 C   0  0  0  0  0  0  0  0  0  0  0  0
  -26.2658  -29.7868   23.3690 C   0  0  0  0  0  0  0  0  0  0  0  0
  -29.5755   -9.9401   17.7161 C   0  0  0  0  0  0  0  0  0  0  0  0
  -27.2450  -11.4555   17.5800 C   0  0  0  0  0  0  0  0  0  0  0  0
  -24.4107  -16.8055   16.6583 C   0  0  0  0  0  0  0  0  0  0  0  0
  -27.5083  -32.2087   22.7581 C   0  0  0  0  0  0  0  0  0  0  0  0
  -26.6639  -30.6446   24.3944 C   0  0  0  0  0  0  0  0  0  0  0  0
  -23.1034  -17.2276   16.8962 C   0  0  0  0  0  0  0  0  0  0  0  0
  -28.4225  -34.9740   24.9355 C   0  0  0  0  0  0  0  0  0  0  0  0
  -28.1352  -36.3317   24.7954 C   0  0  0  0  0  0  0  0  0  0  0  0
  -23.7971  -18.1662   19.0074 C   0  0  0  0  0  0  0  0  0  0  0  0
  -18.9970  -18.6174   20.4682 C   0  0  0  0  0  0  0  0  0  0  0  0
  -25.7764  -35.8211   24.6841 C   0  0  0  0  0  0  0  0  0  0  0  0
  -17.9254  -20.6487   18.9947 C   0  0  0  0  0  0  0  0  0  0  0  0
  -26.4890  -30.1400   22.0382 C   0  0  0  0  0  0  0  0  0  0  0  0
  -26.8355  -28.2255   20.3883 C   0  0  0  0  0  0  0  0  0  0  0  0
  -29.3524  -10.9459   18.6695 C   0  0  0  0  0  0  0  0  0  0  0  0
  -25.4205  -17.0514   17.5997 C   0  0  0  0  0  0  0  0  0  0  0  0
  -28.1692  -11.7066   18.6084 C   0  0  0  0  0  0  0  0  0  0  0  0
  -25.1169  -17.7484   18.7779 C   0  0  0  0  0  0  0  0  0  0  0  0
  -19.8181  -19.3507   19.6188 C   0  0  0  0  0  0  0  0  0  0  0  0
  -19.2799  -20.3874   18.8646 C   0  0  0  0  0  0  0  0  0  0  0  0
  -27.2851  -31.8556   24.0889 C   0  0  0  0  0  0  0  0  0  0  0  0
  -22.7958  -17.9056   18.0722 C   0  0  0  0  0  0  0  0  0  0  0  0
  -27.3868  -34.0398   24.9498 C   0  0  0  0  0  0  0  0  0  0  0  0
  -26.8122  -36.7553   24.6697 C   0  0  0  0  0  0  0  0  0  0  0  0
  -26.0637  -34.4634   24.8241 C   0  0  0  0  0  0  0  0  0  0  0  0
  -26.0772  -29.2537   20.9795 C   0  0  0  0  0  0  0  0  0  0  0  0
  -17.6553  -18.9581   20.5267 C   0  0  0  0  0  0  0  0  0  0  0  0
  -26.0008  -27.6842   19.4413 C   0  0  0  0  0  0  0  0  0  0  0  0
  -28.1747  -27.7978   20.6700 C   0  0  0  0  0  0  0  0  0  0  0  0
  -27.3382  -15.2276   19.3603 C   0  0  0  0  0  0  0  0  0  0  0  0
  -28.6671  -18.0759   20.1624 C   0  0  0  0  0  0  0  0  0  0  0  0
  -28.3091  -21.4559   20.4697 C   0  0  0  0  0  0  0  0  0  0  0  0
  -20.9813  -25.8128   17.8768 C   0  0  0  0  0  0  0  0  0  0  0  0
  -30.3608  -11.1350   19.7749 C   0  0  0  0  0  0  0  0  0  0  0  0
  -26.8311  -16.6131   17.3160 C   0  0  0  0  0  0  0  0  0  0  0  0
  -26.1688  -18.0552   19.8112 C   0  0  0  0  0  0  0  0  0  0  0  0
  -30.2094  -12.4601   20.5175 C   0  0  0  0  0  0  0  0  0  0  0  0
  -21.5637  -29.3175   17.6438 C   0  0  0  0  0  0  0  0  0  0  0  0
  -28.7462  -12.7119   20.8673 C   0  0  0  0  0  0  0  0  0  0  0  0
  -22.8483  -29.5290   18.4469 C   0  0  0  0  0  0  0  0  0  0  0  0
  -20.6791  -28.2402   18.2675 C   0  0  0  0  0  0  0  0  0  0  0  0
  -22.6348  -27.1599   19.3076 C   0  0  0  0  0  0  0  0  0  0  0  0
  -27.8859  -12.8125   19.6018 C   0  0  1  0  0  0  0  0  0  0  0  0
  -27.6759  -16.4649   18.5776 C   0  0  1  0  0  0  0  0  0  0  0  0
  -23.5854  -28.1977   18.6865 C   0  0  2  0  0  0  0  0  0  0  0  0
  -16.7443  -18.1924   21.4271 C   0  0  0  0  0  0  0  0  0  0  0  0
  -29.5568  -23.5118   21.1865 C   0  0  0  0  0  0  0  0  0  0  0  0
  -28.2617  -17.2999   23.0853 C   0  0  0  0  0  0  0  0  0  0  0  0
  -28.6207  -19.7003   23.6999 C   0  0  0  0  0  0  0  0  0  0  0  0
  -30.4478  -18.4109   22.5945 C   0  0  0  0  0  0  0  0  0  0  0  0
  -28.0906  -22.6678   17.7785 C   0  0  0  0  0  0  0  0  0  0  0  0
  -20.1136  -21.2039   17.9392 C   0  0  0  0  0  0  0  0  0  0  0  0
  -21.2762  -19.0072   19.5327 C   0  0  0  0  0  0  0  0  0  1  0  0
  -20.5307  -22.5795   18.4985 C   0  0  0  0  0  0  0  0  0  0  0  0
  -21.4263  -23.3912   17.5651 C   0  0  0  0  0  0  0  0  0  0  0  0
  -28.4256  -19.1017   21.2434 C   0  0  1  0  0  0  0  0  0  0  0  0
  -29.1906  -22.6072   20.0202 C   0  0  2  0  0  0  0  0  0  0  0  0
  -28.9185  -18.6209   22.6374 C   0  0  0  0  0  0  0  0  0  0  0  0
  -17.0963  -19.9583   19.8092 N   0  0  0  0  0  0  0  0  0  0  0  0
  -24.8547  -29.3613   20.4521 N   0  0  0  0  0  0  0  0  0  0  0  0
  -24.8386  -28.3937   19.5196 N   0  0  0  0  0  0  0  0  0  0  0  0
  -27.5319  -17.6004   19.4908 N   0  0  0  0  0  0  0  0  0  0  0  0
  -21.4377  -27.0030   18.4668 N   0  0  0  0  0  0  0  0  0  0  0  0
  -26.1549  -26.6754   18.5576 N   0  0  0  0  0  0  0  0  0  0  0  0
  -28.8911  -28.4628   21.6744 N   0  0  0  0  0  0  0  0  0  0  0  0
  -28.0529  -14.1081   18.9789 N   0  0  0  0  0  0  0  0  0  0  0  0
  -29.0510  -20.3362   20.7816 N   0  0  0  0  0  0  0  0  0  0  0  0
  -21.7624  -24.6876   18.1103 N   0  0  0  0  0  0  0  0  0  0  0  0
  -28.4884  -23.4265   18.9923 N   0  3  0  0  0  0  0  0  0  0  0  0
  -28.7257  -26.8646   20.0382 O   0  0  0  0  0  0  0  0  0  0  0  0
  -26.4930  -15.2847   20.2457 O   0  0  0  0  0  0  0  0  0  0  0  0
  -29.8211  -17.7152   19.9179 O   0  0  0  0  0  0  0  0  0  0  0  0
  -27.0852  -21.5424   20.5408 O   0  0  0  0  0  0  0  0  0  0  0  0
  -19.9567  -25.7581   17.1882 O   0  0  0  0  0  0  0  0  0  0  0  0
  -27.6736  -32.6923   25.0897 O   0  0  0  0  0  0  0  0  0  0  0  0
  -21.5205  -18.3181   18.3072 O   0  0  0  0  0  0  0  0  0  1  0  0
  -26.5364  -38.0593   24.5368 F   0  0  0  0  0  0  0  0  0  0  0  0
  -25.0644  -33.5707   24.8384 F   0  0  0  0  0  0  0  0  0  0  0  0
  1  2  1  0  0  0  0
  1  5  2  0  0  0  0
  2  6  2  0  0  0  0
  3  8  2  0  0  0  0
  3 17  1  0  0  0  0
  4  9  1  0  0  0  0
  4 17  2  0  0  0  0
  5 19  1  0  0  0  0
  6 21  1  0  0  0  0
  7 10  2  0  0  0  0
  7 20  1  0  0  0  0
  8 25  1  0  0  0  0
  9 25  2  0  0  0  0
 10 26  1  0  0  0  0
 11 12  2  0  0  0  0
 11 27  1  0  0  0  0
 12 28  1  0  0  0  0
 13 22  1  0  0  0  0
 13 26  2  0  0  0  0
 14 23  1  0  0  0  0
 14 31  2  0  0  0  0
 15 28  2  0  0  0  0
 15 29  1  0  0  0  0
 16 24  1  0  0  0  0
 16 63  2  0  0  0  0
 17 30  1  0  0  0  0
 18 30  1  0  0  0  0
 18 32  2  0  0  0  0
 18 33  1  0  0  0  0
 19 21  2  0  0  0  0
 19 38  1  0  0  0  0
 20 22  2  0  0  0  0
 20 39  1  0  0  0  0
 21 47  1  0  0  0  0
 22 40  1  0  0  0  0
 23 24  2  0  0  0  0
 23 57  1  0  0  0  0
 24 56  1  0  0  0  0
 25 79  1  0  0  0  0
 26 80  1  0  0  0  0
 27 29  2  0  0  0  0
 27 79  1  0  0  0  0
 28 81  1  0  0  0  0
 29 82  1  0  0  0  0
 30 64  2  0  0  0  0
 31 50  1  0  0  0  0
 31 63  1  0  0  0  0
 32 65  1  0  0  0  0
 32 68  1  0  0  0  0
 33 69  1  0  0  0  0
 33 74  2  0  0  0  0
 34 48  1  0  0  0  0
 34 70  1  0  0  0  0
 34 75  2  0  0  0  0
 35 60  1  0  0  0  0
 35 66  1  0  0  0  0
 35 76  2  0  0  0  0
 36 61  1  0  0  0  0
 36 71  1  0  0  0  0
 36 77  2  0  0  0  0
 37 67  1  0  0  0  0
 37 72  1  0  0  0  0
 37 78  2  0  0  0  0
 38 41  1  0  0  0  0
 39 48  1  0  0  0  0
 40 66  1  0  0  0  0
 41 43  1  0  0  0  0
 42 44  1  0  0  0  0
 42 45  1  0  0  0  0
 43 47  1  0  0  0  0
 44 49  1  0  0  0  0
 45 67  1  0  0  0  0
 46 49  1  0  0  0  0
 46 67  1  0  0  0  0
 47 70  1  0  0  0  0
 48 66  1  0  0  0  0
 49 65  1  0  0  0  0
 51 61  1  0  0  0  0
 52 62  1  0  0  0  0
 53 62  1  0  0  0  0
 54 62  1  0  0  0  0
 55 73  1  0  0  0  0
 56 58  1  0  0  0  0
 57 80  1  0  0  0  0
 58 59  1  0  0  0  0
 59 72  1  0  0  0  0
 60 62  1  0  0  0  0
 60 71  1  0  0  0  0
 61 73  1  0  0  0  0
 64 65  1  0  0  0  0
M  CHG  1  73   1
M  ISO  4  37 100  57 101  72 100  80 101
M  END
> <Batch ID>
0034

> <Smiles>
CNC(C)C(=O)NC(C(=O)N1Cc2cc([101O:1][101CH2:1]c3cc(C)ncc3CCC[100NH:0][100C:0](=O)N3CCCC(n4nc(-c5ccc(Oc6ccc(F)cc6F)cc5)c(C(N)=O)c4N)C3)ccc2CC1C(=O)NC1CCCc2ccccc21)C(C)(C)C

> <Shape>
0.248

> <Color>
0.063

> <Negative vol penalty>
0.000

$$$$

  -OEChem-04052316503D

 91100  0     1  0  0  0  0  0999 V2000
  -26.9461  -38.1313   23.1875 C   0  0  0  0  0  0  0  0  0  0  0  0
  -27.5487  -37.2056   22.3417 C   0  0  0  0  0  0  0  0  0  0  0  0
  -25.1576  -14.4782   24.4233 C   0  0  0  0  0  0  0  0  0  0  0  0
  -26.9647  -16.0258   24.8433 C   0  0  0  0  0  0  0  0  0  0  0  0
  -26.1974  -37.6927   24.2788 C   0  0  0  0  0  0  0  0  0  0  0  0
  -27.4038  -35.8406   22.5874 C   0  0  0  0  0  0  0  0  0  0  0  0
  -26.9229  -29.5705   19.1565 C   0  0  0  0  0  0  0  0  0  0  0  0
  -33.0558  -18.7967   19.4127 C   0  0  0  0  0  0  0  0  0  0  0  0
  -31.1188  -17.7453   18.4228 C   0  0  0  0  0  0  0  0  0  0  0  0
  -33.7698  -17.6058   19.2803 C   0  0  0  0  0  0  0  0  0  0  0  0
  -31.8329  -16.5544   18.2904 C   0  0  0  0  0  0  0  0  0  0  0  0
  -24.8188  -14.5067   25.7760 C   0  0  0  0  0  0  0  0  0  0  0  0
  -26.6259  -16.0544   26.1961 C   0  0  0  0  0  0  0  0  0  0  0  0
  -27.5019  -28.3023   19.1442 C   0  0  0  0  0  0  0  0  0  0  0  0
  -25.9323  -13.1232   28.6519 C   0  0  0  0  0  0  0  0  0  0  0  0
  -25.6622  -11.9061   29.2773 C   0  0  0  0  0  0  0  0  0  0  0  0
  -26.1198  -27.6597   21.0140 C   0  0  0  0  0  0  0  0  0  0  0  0
  -30.0763  -22.7170   20.8884 C   0  0  0  0  0  0  0  0  0  0  0  0
  -23.4335  -12.6732   29.8078 C   0  0  0  0  0  0  0  0  0  0  0  0
  -26.2307  -15.2378   23.9569 C   0  0  0  0  0  0  0  0  0  0  0  0
  -26.0954  -16.0522   21.5432 C   0  0  0  0  0  0  0  0  0  0  0  0
  -26.0353  -36.3216   24.5325 C   0  0  0  0  0  0  0  0  0  0  0  0
  -25.9441  -29.8969   20.1062 C   0  0  0  0  0  0  0  0  0  0  0  0
  -26.6533  -35.3833   23.6840 C   0  0  0  0  0  0  0  0  0  0  0  0
  -25.5281  -28.9319   21.0346 C   0  0  0  0  0  0  0  0  0  0  0  0
  -31.7302  -18.8665   18.9839 C   0  0  0  0  0  0  0  0  0  0  0  0
  -33.1584  -16.4847   18.7191 C   0  0  0  0  0  0  0  0  0  0  0  0
  -29.3544  -23.9023   21.0282 C   0  0  0  0  0  0  0  0  0  0  0  0
  -29.4100  -21.5228   20.6133 C   0  0  0  0  0  0  0  0  0  0  0  0
  -28.0217  -21.5139   20.4781 C   0  0  0  0  0  0  0  0  0  0  0  0
  -27.9661  -23.8934   20.8930 C   0  0  0  0  0  0  0  0  0  0  0  0
  -25.5529  -15.2948   26.6624 C   0  0  0  0  0  0  0  0  0  0  0  0
  -27.1025  -27.3476   20.0748 C   0  0  0  0  0  0  0  0  0  0  0  0
  -24.9530  -14.1154   28.6045 C   0  0  0  0  0  0  0  0  0  0  0  0
  -24.4128  -11.6810   29.8553 C   0  0  0  0  0  0  0  0  0  0  0  0
  -23.7036  -13.8904   29.1824 C   0  0  0  0  0  0  0  0  0  0  0  0
  -27.2998  -22.6992   20.6180 C   0  0  0  0  0  0  0  0  0  0  0  0
  -26.5815  -15.2083   22.5597 C   0  0  0  0  0  0  0  0  0  0  0  0
  -26.7311  -15.6201   20.4049 C   0  0  0  0  0  0  0  0  0  0  0  0
  -25.1534  -17.1303   21.6209 C   0  0  0  0  0  0  0  0  0  0  0  0
  -25.7203  -32.0255   22.4562 C   0  0  0  0  0  0  0  0  0  0  0  0
  -22.6817  -30.9075   22.6544 C   0  0  0  0  0  0  0  0  0  0  0  0
  -20.4880  -28.3599   22.0679 C   0  0  0  0  0  0  0  0  0  0  0  0
  -31.8933  -12.7365   19.4627 C   0  0  0  0  0  0  0  0  0  0  0  0
  -25.2561  -35.8961   25.7517 C   0  0  0  0  0  0  0  0  0  0  0  0
  -25.3101  -31.2608   20.0892 C   0  0  0  0  0  0  0  0  0  0  0  0
  -24.4666  -29.2257   22.0619 C   0  0  0  0  0  0  0  0  0  0  0  0
  -24.8400  -34.4276   25.7268 C   0  0  0  0  0  0  0  0  0  0  0  0
  -28.6438  -11.6974   18.4440 C   0  0  0  0  0  0  0  0  0  0  0  0
  -26.0156  -33.5466   25.3165 C   0  0  0  0  0  0  0  0  0  0  0  0
  -27.7029  -12.5555   19.2916 C   0  0  0  0  0  0  0  0  0  0  0  0
  -29.8941  -11.2936   19.2223 C   0  0  0  0  0  0  0  0  0  0  0  0
  -29.6943  -13.2734   20.6763 C   0  0  0  0  0  0  0  0  0  0  0  0
  -26.4986  -33.8940   23.9032 C   0  0  1  0  0  0  0  0  0  0  0  0
  -24.6911  -31.6486   21.4285 C   0  0  1  0  0  0  0  0  0  0  0  0
  -28.4454  -13.7520   19.9165 C   0  0  2  0  0  0  0  0  0  0  0  0
  -30.0942  -25.1663   21.3226 C   0  0  0  0  0  0  0  0  0  0  0  0
  -27.3272  -20.2205   20.1828 C   0  0  0  0  0  0  0  0  0  0  0  0
  -18.0796  -27.7246   22.3735 C   0  0  0  0  0  0  0  0  0  0  0  0
  -23.1933  -30.4043   25.6200 C   0  0  0  0  0  0  0  0  0  0  0  0
  -21.1667  -28.9346   25.6488 C   0  0  0  0  0  0  0  0  0  0  0  0
  -20.9408  -31.3568   25.0969 C   0  0  0  0  0  0  0  0  0  0  0  0
  -20.0726  -28.0748   19.1516 C   0  0  0  0  0  0  0  0  0  0  0  0
  -30.9568  -20.1547   19.1268 C   0  0  0  0  0  0  0  0  0  0  0  0
  -33.9231  -15.2122   18.5764 C   0  0  0  0  0  0  0  0  0  0  0  0
  -30.2087  -20.2687   20.4686 C   0  0  0  0  0  0  0  0  0  0  0  0
  -27.2099  -25.1801   21.0475 C   0  0  0  0  0  0  0  0  0  1  0  0
  -33.8047  -14.2848   19.7917 C   0  0  0  0  0  0  0  0  0  0  0  0
  -21.9991  -29.7954   23.4134 C   0  0  1  0  0  0  0  0  0  0  0  0
  -19.1064  -28.3450   21.4390 C   0  0  2  0  0  0  0  0  0  0  0  0
  -21.8464  -30.1175   24.9268 C   0  0  0  0  0  0  0  0  0  0  0  0
  -27.4583  -14.3081   22.1071 N   0  0  0  0  0  0  0  0  0  0  0  0
  -27.5281  -14.5838   20.7937 N   0  0  0  0  0  0  0  0  0  0  0  0
  -23.8812  -30.5755   22.0088 N   0  0  0  0  0  0  0  0  0  0  0  0
  -30.5522  -12.4740   19.7876 N   0  0  0  0  0  0  0  0  0  0  0  0
  -26.6805  -16.0292   19.1194 N   0  0  0  0  0  0  0  0  0  0  0  0
  -24.5957  -17.4417   22.8684 N   0  0  0  0  0  0  0  0  0  0  0  0
  -25.6109  -33.3255   22.9117 N   0  0  0  0  0  0  0  0  0  0  0  0
  -20.7371  -29.5462   22.7252 N   0  0  0  0  0  0  0  0  0  0  0  0
  -32.4386  -13.8787   20.0361 N   0  0  0  0  0  0  0  0  0  0  0  0
  -19.1227  -27.5610   20.1717 N   0  3  0  0  0  0  0  0  0  0  0  0
  -24.8038  -17.7871   20.6110 O   0  0  0  0  0  0  0  0  0  0  0  0
  -26.5513  -31.1976   22.8109 O   0  0  0  0  0  0  0  0  0  0  0  0
  -22.1658  -32.0277   22.6291 O   0  0  0  0  0  0  0  0  0  0  0  0
  -21.2667  -27.4125   21.9876 O   0  0  0  0  0  0  0  0  0  0  0  0
  -32.5540  -12.0099   18.7127 O   0  0  0  0  0  0  0  0  0  0  0  0
  -25.2224  -15.3230   27.9825 O   0  0  0  0  0  0  0  0  0  0  0  0
  -27.6665  -26.1092   20.0654 O   0  0  0  0  0  0  0  0  0  1  0  0
  -24.1531  -10.5116   30.4545 F   0  0  0  0  0  0  0  0  0  0  0  0
  -22.7584  -14.8394   29.1390 F   0  0  0  0  0  0  0  0  0  0  0  0
  -25.5749  -22.6882   20.4501 Cl  0  0  0  0  0  0  0  0  0  0  0  0
  1  2  1  0  0  0  0
  1  5  2  0  0  0  0
  2  6  2  0  0  0  0
  3 12  2  0  0  0  0
  3 20  1  0  0  0  0
  4 13  1  0  0  0  0
  4 20  2  0  0  0  0
  5 22  1  0  0  0  0
  6 24  1  0  0  0  0
  7 14  2  0  0  0  0
  7 23  1  0  0  0  0
  8 10  2  0  0  0  0
  8 26  1  0  0  0  0
  9 11  1  0  0  0  0
  9 26  2  0  0  0  0
 10 27  1  0  0  0  0
 11 27  2  0  0  0  0
 12 32  1  0  0  0  0
 13 32  2  0  0  0  0
 14 33  1  0  0  0  0
 15 16  2  0  0  0  0
 15 34  1  0  0  0  0
 16 35  1  0  0  0  0
 17 25  1  0  0  0  0
 17 33  2  0  0  0  0
 18 28  2  0  0  0  0
 18 29  1  0  0  0  0
 19 35  2  0  0  0  0
 19 36  1  0  0  0  0
 20 38  1  0  0  0  0
 21 38  1  0  0  0  0
 21 39  2  0  0  0  0
 21 40  1  0  0  0  0
 22 24  2  0  0  0  0
 22 45  1  0  0  0  0
 23 25  2  0  0  0  0
 23 46  1  0  0  0  0
 24 54  1  0  0  0  0
 25 47  1  0  0  0  0
 26 64  1  0  0  0  0
 27 65  1  0  0  0  0
 28 31  1  0  0  0  0
 28 57  1  0  0  0  0
 29 30  2  0  0  0  0
 29 66  1  0  0  0  0
 30 37  1  0  0  0  0
 30 58  1  0  0  0  0
 31 37  2  0  0  0  0
 31 67  1  0  0  0  0
 32 87  1  0  0  0  0
 33 88  1  0  0  0  0
 34 36  2  0  0  0  0
 34 87  1  0  0  0  0
 35 89  1  0  0  0  0
 36 90  1  0  0  0  0
 37 91  1  0  0  0  0
 38 72  2  0  0  0  0
 39 73  1  0  0  0  0
 39 76  1  0  0  0  0
 40 77  1  0  0  0  0
 40 82  2  0  0  0  0
 41 55  1  0  0  0  0
 41 78  1  0  0  0  0
 41 83  2  0  0  0  0
 42 69  1  0  0  0  0
 42 74  1  0  0  0  0
 42 84  2  0  0  0  0
 43 70  1  0  0  0  0
 43 79  1  0  0  0  0
 43 85  2  0  0  0  0
 44 75  1  0  0  0  0
 44 80  1  0  0  0  0
 44 86  2  0  0  0  0
 45 48  1  0  0  0  0
 46 55  1  0  0  0  0
 47 74  1  0  0  0  0
 48 50  1  0  0  0  0
 49 51  1  0  0  0  0
 49 52  1  0  0  0  0
 50 54  1  0  0  0  0
 51 56  1  0  0  0  0
 52 75  1  0  0  0  0
 53 56  1  0  0  0  0
 53 75  1  0  0  0  0
 54 78  1  0  0  0  0
 55 74  1  0  0  0  0
 56 73  1  0  0  0  0
 59 70  1  0  0  0  0
 60 71  1  0  0  0  0
 61 71  1  0  0  0  0
 62 71  1  0  0  0  0
 63 81  1  0  0  0  0
 64 66  1  0  0  0  0
 65 68  1  0  0  0  0
 67 88  1  0  0  0  0
 68 80  1  0  0  0  0
 69 71  1  0  0  0  0
 69 79  1  0  0  0  0
 70 81  1  0  0  0  0
 72 73  1  0  0  0  0
M  CHG  1  81   1
M  ISO  4  44 100  67 101  80 100  88 101
M  END
> <Batch ID>
0034

> <Smiles>
CNC(C)C(=O)NC(C(=O)N1Cc2cc([101O:1][101CH2:1]c3c(C)cc(CCc4ccc(CC[100NH:0][100C:0](=O)N5CCCC(n6nc(-c7ccc(Oc8ccc(F)cc8F)cc7)c(C(N)=O)c6N)C5)cc4)c(C)c3Cl)ccc2CC1C(=O)NC1CCCc2ccccc21)C(C)(C)C

> <Shape>
0.260

> <Color>
0.072

> <Negative vol penalty>
0.000

$$$$

  -OEChem-04052316503D

 87 95  0     1  0  0  0  0  0999 V2000
  -20.0194  -17.7373   20.0198 C   0  0  0  0  0  0  0  0  0  0  0  0
  -21.2282  -18.3718   20.2876 C   0  0  0  0  0  0  0  0  0  0  0  0
  -22.4150  -27.9256   22.1998 C   0  0  0  0  0  0  0  0  0  0  0  0
  -24.5268  -27.6319   23.3361 C   0  0  0  0  0  0  0  0  0  0  0  0
  -19.8746  -16.3759   20.2839 C   0  0  0  0  0  0  0  0  0  0  0  0
  -22.2925  -17.6456   20.8206 C   0  0  0  0  0  0  0  0  0  0  0  0
  -26.6892  -18.6772   18.5293 C   0  0  0  0  0  0  0  0  0  0  0  0
  -22.4670  -29.2955   22.4571 C   0  0  0  0  0  0  0  0  0  0  0  0
  -24.5788  -29.0019   23.5934 C   0  0  0  0  0  0  0  0  0  0  0  0
  -27.3297  -19.8633   18.8852 C   0  0  0  0  0  0  0  0  0  0  0  0
  -25.3679  -31.8229   21.9084 C   0  0  0  0  0  0  0  0  0  0  0  0
  -26.5790  -32.4775   21.6836 C   0  0  0  0  0  0  0  0  0  0  0  0
  -28.8026  -18.6244   20.3395 C   0  0  0  0  0  0  0  0  0  0  0  0
  -30.0149  -24.9673   21.6556 C   0  0  0  0  0  0  0  0  0  0  0  0
  -26.6584  -33.1288   24.0088 C   0  0  0  0  0  0  0  0  0  0  0  0
  -30.2956  -23.9184   19.1522 C   0  0  0  0  0  0  0  0  0  0  0  0
  -23.4449  -27.0938   22.6393 C   0  0  0  0  0  0  0  0  0  0  0  0
  -23.9032  -25.0044   21.2494 C   0  0  0  0  0  0  0  0  0  0  0  0
  -20.9408  -15.6306   20.8114 C   0  0  0  0  0  0  0  0  0  0  0  0
  -27.0942  -17.4551   19.0851 C   0  0  0  0  0  0  0  0  0  0  0  0
  -22.1614  -16.2733   21.0932 C   0  0  0  0  0  0  0  0  0  0  0  0
  -28.1673  -17.4239   19.9871 C   0  0  0  0  0  0  0  0  0  0  0  0
  -29.2222  -23.8905   21.2743 C   0  0  0  0  0  0  0  0  0  0  0  0
  -29.3590  -23.3502   20.0005 C   0  0  0  0  0  0  0  0  0  0  0  0
  -23.5489  -29.8337   23.1539 C   0  0  0  0  0  0  0  0  0  0  0  0
  -28.3847  -19.8374   19.7926 C   0  0  0  0  0  0  0  0  0  0  0  0
  -24.8021  -31.8214   23.1833 C   0  0  0  0  0  0  0  0  0  0  0  0
  -27.2243  -33.1304   22.7338 C   0  0  0  0  0  0  0  0  0  0  0  0
  -25.4473  -32.4743   24.2335 C   0  0  0  0  0  0  0  0  0  0  0  0
  -23.3914  -25.6785   22.3743 C   0  0  0  0  0  0  0  0  0  0  0  0
  -30.9223  -25.4630   20.7332 C   0  0  0  0  0  0  0  0  0  0  0  0
  -23.6001  -23.6836   21.4733 C   0  0  0  0  0  0  0  0  0  0  0  0
  -24.5913  -25.5255   20.1045 C   0  0  0  0  0  0  0  0  0  0  0  0
  -25.7065  -15.2489   20.9047 C   0  0  0  0  0  0  0  0  0  0  0  0
  -28.4656  -13.6299   20.3676 C   0  0  0  0  0  0  0  0  0  0  0  0
  -31.7801  -13.7408   19.5619 C   0  0  0  0  0  0  0  0  0  0  0  0
  -22.5955  -20.5186   26.4557 C   0  0  0  0  0  0  0  0  0  0  0  0
  -20.7217  -14.1716   21.1245 C   0  0  0  0  0  0  0  0  0  0  0  0
  -26.4103  -16.1811   18.6705 C   0  0  0  0  0  0  0  0  0  0  0  0
  -28.6536  -16.1354   20.5967 C   0  0  0  0  0  0  0  0  0  0  0  0
  -22.0173  -13.3934   21.3391 C   0  0  0  0  0  0  0  0  0  0  0  0
  -20.3965  -20.8994   23.6815 C   0  0  0  0  0  0  0  0  0  0  0  0
  -22.9563  -14.1641   22.2617 C   0  0  0  0  0  0  0  0  0  0  0  0
  -20.9609  -22.1066   22.9304 C   0  0  0  0  0  0  0  0  0  0  0  0
  -20.5340  -21.0610   25.1938 C   0  0  0  0  0  0  0  0  0  0  0  0
  -22.4643  -22.5671   24.9120 C   0  0  0  0  0  0  0  0  0  0  0  0
  -23.3470  -15.5142   21.6484 C   0  0  1  0  0  0  0  0  0  0  0  0
  -26.5705  -15.0578   19.6903 C   0  0  1  0  0  0  0  0  0  0  0  0
  -22.3989  -22.4256   23.3816 C   0  0  2  0  0  0  0  0  0  0  0  0
  -33.7791  -12.2590   19.2375 C   0  0  0  0  0  0  0  0  0  0  0  0
  -28.7343  -13.3341   23.3926 C   0  0  0  0  0  0  0  0  0  0  0  0
  -31.1374  -12.7212   23.0492 C   0  0  0  0  0  0  0  0  0  0  0  0
  -29.3367  -11.2881   22.0867 C   0  0  0  0  0  0  0  0  0  0  0  0
  -32.0752  -14.5624   16.7340 C   0  0  0  0  0  0  0  0  0  0  0  0
  -28.2244  -23.3268   22.2546 C   0  0  0  0  0  0  0  0  0  0  0  0
  -28.5358  -22.1974   19.5407 C   0  0  0  0  0  0  0  0  0  1  0  0
  -28.8543  -22.4579   23.3492 C   0  0  0  0  0  0  0  0  0  0  0  0
  -27.8223  -21.8837   24.3262 C   0  0  0  0  0  0  0  0  0  0  0  0
  -28.4924  -20.9994   25.3810 C   0  0  0  0  0  0  0  0  0  0  0  0
  -27.5159  -20.4547   26.4277 C   0  0  0  0  0  0  0  0  0  0  0  0
  -26.4432  -19.5341   25.8394 C   0  0  0  0  0  0  0  0  0  0  0  0
  -25.5161  -18.9959   26.9346 C   0  0  0  0  0  0  0  0  0  0  0  0
  -24.7344  -20.0988   27.6423 C   0  0  0  0  0  0  0  0  0  0  0  0
  -29.8076  -13.5472   21.0541 C   0  0  1  0  0  0  0  0  0  0  0  0
  -32.6011  -12.9451   18.5634 C   0  0  2  0  0  0  0  0  0  0  0  0
  -29.7438  -12.7474   22.3858 C   0  0  0  0  0  0  0  0  0  0  0  0
  -31.0836  -24.9646   19.4869 N   0  0  0  0  0  0  0  0  0  0  0  0
  -22.8073  -24.8541   23.2479 N   0  0  0  0  0  0  0  0  0  0  0  0
  -22.9501  -23.6483   22.6718 N   0  0  0  0  0  0  0  0  0  0  0  0
  -27.9487  -14.9173   20.1646 N   0  0  0  0  0  0  0  0  0  0  0  0
  -21.9216  -21.3604   25.5556 N   0  0  0  0  0  0  0  0  0  0  0  0
  -23.8286  -22.5606   20.7598 N   0  0  0  0  0  0  0  0  0  0  0  0
  -24.8204  -26.9064   20.0340 N   0  0  0  0  0  0  0  0  0  0  0  0
  -24.3555  -15.3321   20.6266 N   0  0  0  0  0  0  0  0  0  0  0  0
  -30.7357  -12.9984   20.0713 N   0  0  0  0  0  0  0  0  0  0  0  0
  -23.9094  -20.8704   26.7396 N   0  0  0  0  0  0  0  0  0  0  0  0
  -33.1275  -13.8408   17.4949 N   0  3  0  0  0  0  0  0  0  0  0  0
  -24.9765  -24.7904   19.1639 O   0  0  0  0  0  0  0  0  0  0  0  0
  -26.2269  -15.3143   22.0122 O   0  0  0  0  0  0  0  0  0  0  0  0
  -27.9003  -12.5908   20.0179 O   0  0  0  0  0  0  0  0  0  0  0  0
  -32.0414  -14.9034   19.8630 O   0  0  0  0  0  0  0  0  0  0  0  0
  -22.0673  -19.5240   26.9643 O   0  0  0  0  0  0  0  0  0  0  0  0
  -23.6001  -31.1704   23.4050 O   0  0  0  0  0  0  0  0  0  0  0  0
  -29.0154  -21.0014   20.1445 O   0  0  0  0  0  0  0  0  0  1  0  0
  -28.3880  -33.7576   22.5182 F   0  0  0  0  0  0  0  0  0  0  0  0
  -24.9092  -32.4752   25.4608 F   0  0  0  0  0  0  0  0  0  0  0  0
  -31.9417  -26.7891   21.1161 Cl  0  0  0  0  0  0  0  0  0  0  0  0
  1  2  1  0  0  0  0
  1  5  2  0  0  0  0
  2  6  2  0  0  0  0
  3  8  2  0  0  0  0
  3 17  1  0  0  0  0
  4  9  1  0  0  0  0
  4 17  2  0  0  0  0
  5 19  1  0  0  0  0
  6 21  1  0  0  0  0
  7 10  2  0  0  0  0
  7 20  1  0  0  0  0
  8 25  1  0  0  0  0
  9 25  2  0  0  0  0
 10 26  1  0  0  0  0
 11 12  2  0  0  0  0
 11 27  1  0  0  0  0
 12 28  1  0  0  0  0
 13 22  1  0  0  0  0
 13 26  2  0  0  0  0
 14 23  1  0  0  0  0
 14 31  2  0  0  0  0
 15 28  2  0  0  0  0
 15 29  1  0  0  0  0
 16 24  1  0  0  0  0
 16 67  2  0  0  0  0
 17 30  1  0  0  0  0
 18 30  1  0  0  0  0
 18 32  2  0  0  0  0
 18 33  1  0  0  0  0
 19 21  2  0  0  0  0
 19 38  1  0  0  0  0
 20 22  2  0  0  0  0
 20 39  1  0  0  0  0
 21 47  1  0  0  0  0
 22 40  1  0  0  0  0
 23 24  2  0  0  0  0
 23 55  1  0  0  0  0
 24 56  1  0  0  0  0
 25 83  1  0  0  0  0
 26 84  1  0  0  0  0
 27 29  2  0  0  0  0
 27 83  1  0  0  0  0
 28 85  1  0  0  0  0
 29 86  1  0  0  0  0
 30 68  2  0  0  0  0
 31 67  1  0  0  0  0
 31 87  1  0  0  0  0
 32 69  1  0  0  0  0
 32 72  1  0  0  0  0
 33 73  1  0  0  0  0
 33 78  2  0  0  0  0
 34 48  1  0  0  0  0
 34 74  1  0  0  0  0
 34 79  2  0  0  0  0
 35 64  1  0  0  0  0
 35 70  1  0  0  0  0
 35 80  2  0  0  0  0
 36 65  1  0  0  0  0
 36 75  1  0  0  0  0
 36 81  2  0  0  0  0
 37 71  1  0  0  0  0
 37 76  1  0  0  0  0
 37 82  2  0  0  0  0
 38 41  1  0  0  0  0
 39 48  1  0  0  0  0
 40 70  1  0  0  0  0
 41 43  1  0  0  0  0
 42 44  1  0  0  0  0
 42 45  1  0  0  0  0
 43 47  1  0  0  0  0
 44 49  1  0  0  0  0
 45 71  1  0  0  0  0
 46 49  1  0  0  0  0
 46 71  1  0  0  0  0
 47 74  1  0  0  0  0
 48 70  1  0  0  0  0
 49 69  1  0  0  0  0
 50 65  1  0  0  0  0
 51 66  1  0  0  0  0
 52 66  1  0  0  0  0
 53 66  1  0  0  0  0
 54 77  1  0  0  0  0
 55 57  1  0  0  0  0
 56 84  1  0  0  0  0
 57 58  1  0  0  0  0
 58 59  1  0  0  0  0
 59 60  1  0  0  0  0
 60 61  1  0  0  0  0
 61 62  1  0  0  0  0
 62 63  1  0  0  0  0
 63 76  1  0  0  0  0
 64 66  1  0  0  0  0
 64 75  1  0  0  0  0
 65 77  1  0  0  0  0
 68 69  1  0  0  0  0
M  CHG  1  77   1
M  ISO  4  37 100  56 101  76 100  84 101
M  END
> <Batch ID>
0034

> <Smiles>
CNC(C)C(=O)NC(C(=O)N1Cc2cc([101O:1][101CH2:1]c3cnc(Cl)cc3CCCCCCCC[100NH:0][100C:0](=O)N3CCCC(n4nc(-c5ccc(Oc6ccc(F)cc6F)cc5)c(C(N)=O)c4N)C3)ccc2CC1C(=O)NC1CCCc2ccccc21)C(C)(C)C

> <Shape>
0.205

> <Color>
0.057

> <Negative vol penalty>
0.000

$$$$

  -OEChem-04052316503D

 83 91  0     1  0  0  0  0  0999 V2000
  -25.0512  -16.4915   21.9182 C   0  0  0  0  0  0  0  0  0  0  0  0
  -25.7281  -17.6766   22.1878 C   0  0  0  0  0  0  0  0  0  0  0  0
  -26.3716  -13.0457   21.3854 C   0  0  0  0  0  0  0  0  0  0  0  0
  -26.2031  -13.5035   19.0192 C   0  0  0  0  0  0  0  0  0  0  0  0
  -23.9592  -16.4955   21.0513 C   0  0  0  0  0  0  0  0  0  0  0  0
  -25.3141  -18.8663   21.5898 C   0  0  0  0  0  0  0  0  0  0  0  0
  -25.4777  -24.4736   24.0469 C   0  0  0  0  0  0  0  0  0  0  0  0
  -25.1431  -12.3865   21.3454 C   0  0  0  0  0  0  0  0  0  0  0  0
  -24.9746  -12.8442   18.9791 C   0  0  0  0  0  0  0  0  0  0  0  0
  -26.3804  -25.5282   23.9180 C   0  0  0  0  0  0  0  0  0  0  0  0
  -23.9678   -9.3644   20.3870 C   0  0  0  0  0  0  0  0  0  0  0  0
  -23.8674   -8.1399   21.0474 C   0  0  0  0  0  0  0  0  0  0  0  0
  -24.9794  -26.5117   22.2182 C   0  0  0  0  0  0  0  0  0  0  0  0
  -30.6583  -26.4973   19.7899 C   0  0  0  0  0  0  0  0  0  0  0  0
  -22.1219   -9.0416   22.4537 C   0  0  0  0  0  0  0  0  0  0  0  0
  -26.9017  -13.6042   20.2223 C   0  0  0  0  0  0  0  0  0  0  0  0
  -29.4450  -13.7224   20.0632 C   0  0  0  0  0  0  0  0  0  0  0  0
  -23.5256  -17.6875   20.4498 C   0  0  0  0  0  0  0  0  0  0  0  0
  -24.3226  -24.4244   23.2534 C   0  0  0  0  0  0  0  0  0  0  0  0
  -24.2161  -18.8860   20.7129 C   0  0  0  0  0  0  0  0  0  0  0  0
  -24.0623  -25.4567   22.3408 C   0  0  0  0  0  0  0  0  0  0  0  0
  -30.9583  -25.2338   19.2930 C   0  0  0  0  0  0  0  0  0  0  0  0
  -29.9767  -24.2492   19.2744 C   0  0  0  0  0  0  0  0  0  0  0  0
  -24.4445  -12.2857   20.1423 C   0  0  0  0  0  0  0  0  0  0  0  0
  -26.1329  -26.5460   23.0015 C   0  0  0  0  0  0  0  0  0  0  0  0
  -23.1454  -10.4275   20.7600 C   0  0  0  0  0  0  0  0  0  0  0  0
  -22.9444   -7.9785   22.0807 C   0  0  0  0  0  0  0  0  0  0  0  0
  -22.2224  -10.2661   21.7932 C   0  0  0  0  0  0  0  0  0  0  0  0
  -28.1705  -14.2858   20.2631 C   0  0  0  0  0  0  0  0  0  0  0  0
  -29.3721  -26.7237   20.2526 C   0  0  0  0  0  0  0  0  0  0  0  0
  -28.7210  -24.5761   19.7605 C   0  0  0  0  0  0  0  0  0  0  0  0
  -30.3129  -14.7775   20.2046 C   0  0  0  0  0  0  0  0  0  0  0  0
  -29.8115  -12.3665   19.7752 C   0  0  0  0  0  0  0  0  0  0  0  0
  -23.1884  -22.4177   21.0647 C   0  0  0  0  0  0  0  0  0  0  0  0
  -20.5811  -24.3417   21.2156 C   0  0  0  0  0  0  0  0  0  0  0  0
  -19.2833  -27.4094   21.9584 C   0  0  0  0  0  0  0  0  0  0  0  0
  -29.6109  -20.5835   19.3972 C   0  0  0  0  0  0  0  0  0  0  0  0
  -22.3695  -17.6339   19.4828 C   0  0  0  0  0  0  0  0  0  0  0  0
  -23.3452  -23.2938   23.4235 C   0  0  0  0  0  0  0  0  0  0  0  0
  -22.8266  -25.4612   21.4798 C   0  0  0  0  0  0  0  0  0  0  0  0
  -21.7628  -19.0021   19.1823 C   0  0  0  0  0  0  0  0  0  0  0  0
  -30.7568  -18.9880   22.4367 C   0  0  0  0  0  0  0  0  0  0  0  0
  -22.8605  -20.0203   18.8905 C   0  0  0  0  0  0  0  0  0  0  0  0
  -30.3378  -17.5367   22.1949 C   0  0  0  0  0  0  0  0  0  0  0  0
  -29.7193  -19.9619   21.8861 C   0  0  0  0  0  0  0  0  0  0  0  0
  -28.9835  -18.3237   20.1983 C   0  0  0  0  0  0  0  0  0  0  0  0
  -23.7819  -20.2010   20.1029 C   0  0  1  0  0  0  0  0  0  0  0  0
  -22.4598  -23.0801   22.1996 C   0  0  1  0  0  0  0  0  0  0  0  0
  -30.0020  -17.2900   20.7122 C   0  0  2  0  0  0  0  0  0  0  0  0
  -32.3371  -24.9602   18.7900 C   0  0  0  0  0  0  0  0  0  0  0  0
  -27.6251  -23.5609   19.7650 C   0  0  0  0  0  0  0  0  0  0  0  0
  -17.1264  -28.6919   21.9437 C   0  0  0  0  0  0  0  0  0  0  0  0
  -20.7863  -24.6471   18.1866 C   0  0  0  0  0  0  0  0  0  0  0  0
  -19.2622  -26.6264   18.3529 C   0  0  0  0  0  0  0  0  0  0  0  0
  -18.4561  -24.3716   19.0518 C   0  0  0  0  0  0  0  0  0  0  0  0
  -19.3806  -27.8329   24.8859 C   0  0  0  0  0  0  0  0  0  0  0  0
  -30.2689  -22.8855   18.7451 C   0  0  0  0  0  0  0  0  0  0  0  0
  -29.0102  -28.0824   20.7973 C   0  0  0  0  0  0  0  0  0  0  0  0
  -29.2502  -28.2267   22.3017 C   0  0  0  0  0  0  0  0  0  0  0  0
  -28.3855  -27.2953   23.1432 C   0  0  0  0  0  0  0  0  0  1  0  0
  -20.1322  -25.5921   20.4986 C   0  0  1  0  0  0  0  0  0  0  0  0
  -18.0634  -27.8188   22.7638 C   0  0  2  0  0  0  0  0  0  0  0  0
  -19.6836  -25.3085   19.0372 C   0  0  0  0  0  0  0  0  0  0  0  0
  -28.2198  -15.5970   20.5128 N   0  0  0  0  0  0  0  0  0  0  0  0
  -28.3922  -25.7924   20.2507 N   0  0  0  0  0  0  0  0  0  0  0  0
  -29.5358  -15.8663   20.4707 N   0  0  0  0  0  0  0  0  0  0  0  0
  -21.9045  -24.3308   21.6784 N   0  0  0  0  0  0  0  0  0  0  0  0
  -29.4588  -19.6851   20.4663 N   0  0  0  0  0  0  0  0  0  0  0  0
  -31.6573  -14.8708   20.1262 N   0  0  0  0  0  0  0  0  0  0  0  0
  -28.7944  -11.4088   19.6631 N   0  0  0  0  0  0  0  0  0  0  0  0
  -23.1475  -21.0369   21.0996 N   0  0  0  0  0  0  0  0  0  0  0  0
  -19.0991  -26.1935   21.3348 N   0  0  0  0  0  0  0  0  0  0  0  0
  -30.0585  -21.8544   19.7368 N   0  0  0  0  0  0  0  0  0  0  0  0
  -18.4752  -28.5811   23.9763 N   0  3  0  0  0  0  0  0  0  0  0  0
  -31.0068  -12.0115   19.6381 O   0  0  0  0  0  0  0  0  0  0  0  0
  -23.7450  -23.1082   20.2191 O   0  0  0  0  0  0  0  0  0  0  0  0
  -19.7846  -23.4118   21.3659 O   0  0  0  0  0  0  0  0  0  0  0  0
  -20.2968  -28.1009   21.8865 O   0  0  0  0  0  0  0  0  0  0  0  0
  -29.3705  -20.2744   18.2251 O   0  0  0  0  0  0  0  0  0  0  0  0
  -23.2458  -11.6423   20.1028 O   0  0  0  0  0  0  0  0  0  0  0  0
  -27.0127  -27.5762   22.8732 O   0  0  0  0  0  0  0  0  0  1  0  0
  -22.8469   -6.8021   22.7138 F   0  0  0  0  0  0  0  0  0  0  0  0
  -21.4287  -11.2834   22.1552 F   0  0  0  0  0  0  0  0  0  0  0  0
  1  2  1  0  0  0  0
  1  5  2  0  0  0  0
  2  6  2  0  0  0  0
  3  8  2  0  0  0  0
  3 16  1  0  0  0  0
  4  9  1  0  0  0  0
  4 16  2  0  0  0  0
  5 18  1  0  0  0  0
  6 20  1  0  0  0  0
  7 10  2  0  0  0  0
  7 19  1  0  0  0  0
  8 24  1  0  0  0  0
  9 24  2  0  0  0  0
 10 25  1  0  0  0  0
 11 12  2  0  0  0  0
 11 26  1  0  0  0  0
 12 27  1  0  0  0  0
 13 21  1  0  0  0  0
 13 25  2  0  0  0  0
 14 22  2  0  0  0  0
 14 30  1  0  0  0  0
 15 27  2  0  0  0  0
 15 28  1  0  0  0  0
 16 29  1  0  0  0  0
 17 29  1  0  0  0  0
 17 32  2  0  0  0  0
 17 33  1  0  0  0  0
 18 20  2  0  0  0  0
 18 38  1  0  0  0  0
 19 21  2  0  0  0  0
 19 39  1  0  0  0  0
 20 47  1  0  0  0  0
 21 40  1  0  0  0  0
 22 23  1  0  0  0  0
 22 50  1  0  0  0  0
 23 31  2  0  0  0  0
 23 57  1  0  0  0  0
 24 80  1  0  0  0  0
 25 81  1  0  0  0  0
 26 28  2  0  0  0  0
 26 80  1  0  0  0  0
 27 82  1  0  0  0  0
 28 83  1  0  0  0  0
 29 64  2  0  0  0  0
 30 58  1  0  0  0  0
 30 65  2  0  0  0  0
 31 51  1  0  0  0  0
 31 65  1  0  0  0  0
 32 66  1  0  0  0  0
 32 69  1  0  0  0  0
 33 70  1  0  0  0  0
 33 75  2  0  0  0  0
 34 48  1  0  0  0  0
 34 71  1  0  0  0  0
 34 76  2  0  0  0  0
 35 61  1  0  0  0  0
 35 67  1  0  0  0  0
 35 77  2  0  0  0  0
 36 62  1  0  0  0  0
 36 72  1  0  0  0  0
 36 78  2  0  0  0  0
 37 68  1  0  0  0  0
 37 73  1  0  0  0  0
 37 79  2  0  0  0  0
 38 41  1  0  0  0  0
 39 48  1  0  0  0  0
 40 67  1  0  0  0  0
 41 43  1  0  0  0  0
 42 44  1  0  0  0  0
 42 45  1  0  0  0  0
 43 47  1  0  0  0  0
 44 49  1  0  0  0  0
 45 68  1  0  0  0  0
 46 49  1  0  0  0  0
 46 68  1  0  0  0  0
 47 71  1  0  0  0  0
 48 67  1  0  0  0  0
 49 66  1  0  0  0  0
 52 62  1  0  0  0  0
 53 63  1  0  0  0  0
 54 63  1  0  0  0  0
 55 63  1  0  0  0  0
 56 74  1  0  0  0  0
 57 73  1  0  0  0  0
 58 59  1  0  0  0  0
 59 60  1  0  0  0  0
 60 81  1  0  0  0  0
 61 63  1  0  0  0  0
 61 72  1  0  0  0  0
 62 74  1  0  0  0  0
 64 66  1  0  0  0  0
M  CHG  1  74   1
M  ISO  4  37 100  60 101  73 100  81 101
M  END
> <Batch ID>
0034

> <Smiles>
CNC(C)C(=O)NC(C(=O)N1Cc2cc([101O:1][101CH2:1]CCc3cc(C)c(C[100NH:0][100C:0](=O)N4CCCC(n5nc(-c6ccc(Oc7ccc(F)cc7F)cc6)c(C(N)=O)c5N)C4)c(C)n3)ccc2CC1C(=O)NC1CCCc2ccccc21)C(C)(C)C

> <Shape>
0.248

> <Color>
0.056

> <Negative vol penalty>
0.000

$$$$

  -OEChem-04052316503D

 83 91  0     1  0  0  0  0  0999 V2000
  -24.2567  -24.1932   18.1714 C   0  0  0  0  0  0  0  0  0  0  0  0
  -25.2913  -23.3724   18.6089 C   0  0  0  0  0  0  0  0  0  0  0  0
  -25.1496  -28.7519   20.6253 C   0  0  0  0  0  0  0  0  0  0  0  0
  -24.7610  -26.3989   21.0118 C   0  0  0  0  0  0  0  0  0  0  0  0
  -22.9450  -23.9281   18.5629 C   0  0  0  0  0  0  0  0  0  0  0  0
  -25.0149  -22.2866   19.4390 C   0  0  0  0  0  0  0  0  0  0  0  0
  -27.4578  -18.0842   18.0190 C   0  0  0  0  0  0  0  0  0  0  0  0
  -23.7749  -28.9608   20.5150 C   0  0  0  0  0  0  0  0  0  0  0  0
  -23.3863  -26.6078   20.9017 C   0  0  0  0  0  0  0  0  0  0  0  0
  -28.8076  -17.9881   18.3548 C   0  0  0  0  0  0  0  0  0  0  0  0
  -19.7551  -26.5833   21.0806 C   0  0  0  0  0  0  0  0  0  0  0  0
  -18.9284  -25.9782   22.0272 C   0  0  0  0  0  0  0  0  0  0  0  0
  -28.2353  -16.5788   20.2271 C   0  0  0  0  0  0  0  0  0  0  0  0
  -34.3691  -19.5937   21.5822 C   0  0  0  0  0  0  0  0  0  0  0  0
  -20.0562  -27.1903   23.7868 C   0  0  0  0  0  0  0  0  0  0  0  0
  -25.6427  -27.4709   20.8736 C   0  0  0  0  0  0  0  0  0  0  0  0
  -27.9398  -27.8386   21.9203 C   0  0  0  0  0  0  0  0  0  0  0  0
  -22.6512  -22.8329   19.3904 C   0  0  0  0  0  0  0  0  0  0  0  0
  -26.4841  -17.4361   18.7925 C   0  0  0  0  0  0  0  0  0  0  0  0
  -23.6982  -22.0074   19.8430 C   0  0  0  0  0  0  0  0  0  0  0  0
  -26.8741  -16.6661   19.8975 C   0  0  0  0  0  0  0  0  0  0  0  0
  -33.3251  -20.2230   19.5089 C   0  0  0  0  0  0  0  0  0  0  0  0
  -22.8932  -27.8888   20.6533 C   0  0  0  0  0  0  0  0  0  0  0  0
  -29.1962  -17.2377   19.4606 C   0  0  0  0  0  0  0  0  0  0  0  0
  -20.7324  -27.4919   21.4871 C   0  0  0  0  0  0  0  0  0  0  0  0
  -33.2542  -19.6028   20.7514 C   0  0  0  0  0  0  0  0  0  0  0  0
  -19.0789  -26.2817   23.3803 C   0  0  0  0  0  0  0  0  0  0  0  0
  -20.8829  -27.7953   22.8402 C   0  0  0  0  0  0  0  0  0  0  0  0
  -27.0626  -27.2543   20.9870 C   0  0  0  0  0  0  0  0  0  0  0  0
  -35.5218  -20.2137   21.1276 C   0  0  0  0  0  0  0  0  0  0  0  0
  -34.5244  -20.8150   19.1472 C   0  0  0  0  0  0  0  0  0  0  0  0
  -29.1702  -27.3120   21.6114 C   0  0  0  0  0  0  0  0  0  0  0  0
  -27.6669  -28.7736   22.9723 C   0  0  0  0  0  0  0  0  0  0  0  0
  -24.0015  -18.3902   20.5332 C   0  0  0  0  0  0  0  0  0  0  0  0
  -23.4553  -15.2032   20.7920 C   0  0  0  0  0  0  0  0  0  0  0  0
  -24.7111  -12.0313   20.6966 C   0  0  0  0  0  0  0  0  0  0  0  0
  -30.7420  -22.2494   19.0124 C   0  0  0  0  0  0  0  0  0  0  0  0
  -21.2239  -22.6141   19.8256 C   0  0  0  0  0  0  0  0  0  0  0  0
  -25.0346  -17.5278   18.4013 C   0  0  0  0  0  0  0  0  0  0  0  0
  -25.8695  -15.9345   20.7485 C   0  0  0  0  0  0  0  0  0  0  0  0
  -20.9691  -21.2238   20.4021 C   0  0  0  0  0  0  0  0  0  0  0  0
  -31.6808  -25.5717   17.9269 C   0  0  0  0  0  0  0  0  0  0  0  0
  -22.0602  -20.8520   21.4011 C   0  0  0  0  0  0  0  0  0  0  0  0
  -30.6740  -26.4361   18.6879 C   0  0  0  0  0  0  0  0  0  0  0  0
  -31.0443  -24.2679   17.4546 C   0  0  0  0  0  0  0  0  0  0  0  0
  -29.4126  -24.3211   19.3008 C   0  0  0  0  0  0  0  0  0  0  0  0
  -23.4354  -20.8055   20.7242 C   0  0  1  0  0  0  0  0  0  0  0  0
  -24.0839  -17.2474   19.5611 C   0  0  1  0  0  0  0  0  0  0  0  0
  -30.0013  -25.6437   19.8245 C   0  0  2  0  0  0  0  0  0  0  0  0
  -36.7374  -20.2233   21.9929 C   0  0  0  0  0  0  0  0  0  0  0  0
  -34.6597  -21.4970   17.8249 C   0  0  0  0  0  0  0  0  0  0  0  0
  -24.0297   -9.6334   20.9844 C   0  0  0  0  0  0  0  0  0  0  0  0
  -23.3948  -15.5862   23.8185 C   0  0  0  0  0  0  0  0  0  0  0  0
  -23.6679  -13.1099   24.0673 C   0  0  0  0  0  0  0  0  0  0  0  0
  -21.6491  -14.0321   22.9286 C   0  0  0  0  0  0  0  0  0  0  0  0
  -25.4714  -11.3606   17.9161 C   0  0  0  0  0  0  0  0  0  0  0  0
  -32.1431  -20.2434   18.5999 C   0  0  0  0  0  0  0  0  0  0  0  0
  -30.8252  -16.9709   21.1728 C   0  0  0  0  0  0  0  0  0  1  0  0
  -32.1716  -17.6071   21.4591 C   0  0  0  0  0  0  0  0  0  0  0  0
  -23.8847  -14.1193   21.7510 C   0  0  1  0  0  0  0  0  0  0  0  0
  -24.2224  -10.7750   19.9984 C   0  0  2  0  0  0  0  0  0  0  0  0
  -23.1682  -14.2271   23.1267 C   0  0  0  0  0  0  0  0  0  0  0  0
  -27.6831  -26.4205   20.1481 N   0  0  0  0  0  0  0  0  0  0  0  0
  -35.6286  -20.8263   19.9272 N   0  0  0  0  0  0  0  0  0  0  0  0
  -28.9633  -26.4771   20.5529 N   0  0  0  0  0  0  0  0  0  0  0  0
  -24.4639  -16.0600   20.3291 N   0  0  0  0  0  0  0  0  0  0  0  0
  -30.4385  -23.5533   18.5871 N   0  0  0  0  0  0  0  0  0  0  0  0
  -30.3981  -27.4864   22.1446 N   0  0  0  0  0  0  0  0  0  0  0  0
  -27.3351  -28.2754   24.2396 N   0  0  0  0  0  0  0  0  0  0  0  0
  -23.5855  -19.5806   19.9682 N   0  0  0  0  0  0  0  0  0  0  0  0
  -23.6654  -12.8529   21.0607 N   0  0  0  0  0  0  0  0  0  0  0  0
  -31.7195  -21.5883   18.2789 N   0  0  0  0  0  0  0  0  0  0  0  0
  -25.2041  -10.3421   18.9641 N   0  3  0  0  0  0  0  0  0  0  0  0
  -27.6997  -30.0142   22.7897 O   0  0  0  0  0  0  0  0  0  0  0  0
  -24.2923  -18.2051   21.7092 O   0  0  0  0  0  0  0  0  0  0  0  0
  -22.2698  -15.2820   20.4601 O   0  0  0  0  0  0  0  0  0  0  0  0
  -25.9013  -12.2591   20.9020 O   0  0  0  0  0  0  0  0  0  0  0  0
  -30.1865  -21.7152   19.9785 O   0  0  0  0  0  0  0  0  0  0  0  0
  -21.5517  -28.0924   20.5460 O   0  0  0  0  0  0  0  0  0  0  0  0
  -30.5129  -17.1427   19.7910 O   0  0  0  0  0  0  0  0  0  1  0  0
  -32.0987  -18.9982   21.1714 O   0  0  0  0  0  0  0  0  0  0  0  0
  -18.2840  -25.7017   24.2891 F   0  0  0  0  0  0  0  0  0  0  0  0
  -21.8192  -28.6683   23.2366 F   0  0  0  0  0  0  0  0  0  0  0  0
  1  2  1  0  0  0  0
  1  5  2  0  0  0  0
  2  6  2  0  0  0  0
  3  8  2  0  0  0  0
  3 16  1  0  0  0  0
  4  9  1  0  0  0  0
  4 16  2  0  0  0  0
  5 18  1  0  0  0  0
  6 20  1  0  0  0  0
  7 10  2  0  0  0  0
  7 19  1  0  0  0  0
  8 23  1  0  0  0  0
  9 23  2  0  0  0  0
 10 24  1  0  0  0  0
 11 12  2  0  0  0  0
 11 25  1  0  0  0  0
 12 27  1  0  0  0  0
 13 21  1  0  0  0  0
 13 24  2  0  0  0  0
 14 26  1  0  0  0  0
 14 30  2  0  0  0  0
 15 27  2  0  0  0  0
 15 28  1  0  0  0  0
 16 29  1  0  0  0  0
 17 29  1  0  0  0  0
 17 32  2  0  0  0  0
 17 33  1  0  0  0  0
 18 20  2  0  0  0  0
 18 38  1  0  0  0  0
 19 21  2  0  0  0  0
 19 39  1  0  0  0  0
 20 47  1  0  0  0  0
 21 40  1  0  0  0  0
 22 26  2  0  0  0  0
 22 31  1  0  0  0  0
 22 57  1  0  0  0  0
 23 79  1  0  0  0  0
 24 80  1  0  0  0  0
 25 28  2  0  0  0  0
 25 79  1  0  0  0  0
 26 81  1  0  0  0  0
 27 82  1  0  0  0  0
 28 83  1  0  0  0  0
 29 63  2  0  0  0  0
 30 50  1  0  0  0  0
 30 64  1  0  0  0  0
 31 51  1  0  0  0  0
 31 64  2  0  0  0  0
 32 65  1  0  0  0  0
 32 68  1  0  0  0  0
 33 69  1  0  0  0  0
 33 74  2  0  0  0  0
 34 48  1  0  0  0  0
 34 70  1  0  0  0  0
 34 75  2  0  0  0  0
 35 60  1  0  0  0  0
 35 66  1  0  0  0  0
 35 76  2  0  0  0  0
 36 61  1  0  0  0  0
 36 71  1  0  0  0  0
 36 77  2  0  0  0  0
 37 67  1  0  0  0  0
 37 72  1  0  0  0  0
 37 78  2  0  0  0  0
 38 41  1  0  0  0  0
 39 48  1  0  0  0  0
 40 66  1  0  0  0  0
 41 43  1  0  0  0  0
 42 44  1  0  0  0  0
 42 45  1  0  0  0  0
 43 47  1  0  0  0  0
 44 49  1  0  0  0  0
 45 67  1  0  0  0  0
 46 49  1  0  0  0  0
 46 67  1  0  0  0  0
 47 70  1  0  0  0  0
 48 66  1  0  0  0  0
 49 65  1  0  0  0  0
 52 61  1  0  0  0  0
 53 62  1  0  0  0  0
 54 62  1  0  0  0  0
 55 62  1  0  0  0  0
 56 73  1  0  0  0  0
 57 72  1  0  0  0  0
 58 59  1  0  0  0  0
 58 80  1  0  0  0  0
 59 81  1  0  0  0  0
 60 62  1  0  0  0  0
 60 71  1  0  0  0  0
 61 73  1  0  0  0  0
 63 65  1  0  0  0  0
M  CHG  1  73   1
M  ISO  4  37 100  58 101  72 100  80 101
M  END
> <Batch ID>
0034

> <Smiles>
CNC(C)C(=O)NC(C(=O)N1Cc2cc([101O:1][101CH2:1]COc3cc(C)nc(C)c3C[100NH:0][100C:0](=O)N3CCCC(n4nc(-c5ccc(Oc6ccc(F)cc6F)cc5)c(C(N)=O)c4N)C3)ccc2CC1C(=O)NC1CCCc2ccccc21)C(C)(C)C

> <Shape>
0.215

> <Color>
0.057

> <Negative vol penalty>
0.000

$$$$

  -OEChem-04052316503D

 84 92  0     1  0  0  0  0  0999 V2000
  -28.3785  -18.3946   18.3609 C   0  0  0  0  0  0  0  0  0  0  0  0
  -27.9120  -18.7962   19.6086 C   0  0  0  0  0  0  0  0  0  0  0  0
  -24.1735  -10.8164   23.8164 C   0  0  0  0  0  0  0  0  0  0  0  0
  -23.5941  -12.7165   25.1916 C   0  0  0  0  0  0  0  0  0  0  0  0
  -29.0023  -19.3165   17.5214 C   0  0  0  0  0  0  0  0  0  0  0  0
  -28.0700  -20.1198   20.0178 C   0  0  0  0  0  0  0  0  0  0  0  0
  -23.8764  -22.0131   22.1330 C   0  0  0  0  0  0  0  0  0  0  0  0
  -23.5402   -9.9668   24.7235 C   0  0  0  0  0  0  0  0  0  0  0  0
  -22.9608  -11.8669   26.0986 C   0  0  0  0  0  0  0  0  0  0  0  0
  -23.6062  -21.6456   23.4505 C   0  0  0  0  0  0  0  0  0  0  0  0
  -21.5034  -10.1630   28.9592 C   0  0  0  0  0  0  0  0  0  0  0  0
  -21.7475  -10.3666   30.3173 C   0  0  0  0  0  0  0  0  0  0  0  0
  -24.4980  -23.7526   24.2148 C   0  0  0  0  0  0  0  0  0  0  0  0
  -27.2879  -19.4773   27.7037 C   0  0  0  0  0  0  0  0  0  0  0  0
  -27.0114  -21.0392   25.8814 C   0  0  0  0  0  0  0  0  0  0  0  0
  -24.1032   -9.9733   29.9530 C   0  0  0  0  0  0  0  0  0  0  0  0
  -24.2005  -12.1913   24.0505 C   0  0  0  0  0  0  0  0  0  0  0  0
  -24.2786  -13.7025   21.9968 C   0  0  0  0  0  0  0  0  0  0  0  0
  -29.1594  -20.6544   17.9166 C   0  0  0  0  0  0  0  0  0  0  0  0
  -24.4705  -23.2506   21.8469 C   0  0  0  0  0  0  0  0  0  0  0  0
  -28.6977  -21.0602   19.1833 C   0  0  0  0  0  0  0  0  0  0  0  0
  -24.7725  -24.1345   22.8927 C   0  0  0  0  0  0  0  0  0  0  0  0
  -26.6202  -20.5601   27.1317 C   0  0  0  0  0  0  0  0  0  0  0  0
  -28.3468  -18.8735   27.0256 C   0  0  0  0  0  0  0  0  0  0  0  0
  -28.7379  -19.3525   25.7753 C   0  0  0  0  0  0  0  0  0  0  0  0
  -22.9338  -10.4920   25.8645 C   0  0  0  0  0  0  0  0  0  0  0  0
  -23.9196  -22.5142   24.4918 C   0  0  0  0  0  0  0  0  0  0  0  0
  -22.5593   -9.8645   28.0980 C   0  0  0  0  0  0  0  0  0  0  0  0
  -28.0703  -20.4353   25.2032 C   0  0  0  0  0  0  0  0  0  0  0  0
  -23.0473  -10.2718   30.8143 C   0  0  0  0  0  0  0  0  0  0  0  0
  -23.8592   -9.7696   28.5949 C   0  0  0  0  0  0  0  0  0  0  0  0
  -24.8551  -13.0693   23.1142 C   0  0  0  0  0  0  0  0  0  0  0  0
  -25.3085  -14.4207   21.4399 C   0  0  0  0  0  0  0  0  0  0  0  0
  -22.9326  -13.6466   21.5062 C   0  0  0  0  0  0  0  0  0  0  0  0
  -27.1952  -24.1714   20.4933 C   0  0  0  0  0  0  0  0  0  0  0  0
  -25.8904  -27.1265   20.7887 C   0  0  0  0  0  0  0  0  0  0  0  0
  -23.6840  -29.1714   22.4002 C   0  0  0  0  0  0  0  0  0  0  0  0
  -30.3733  -16.6947   23.6822 C   0  0  0  0  0  0  0  0  0  0  0  0
  -29.8824  -21.6037   16.9942 C   0  0  0  0  0  0  0  0  0  0  0  0
  -24.7311  -23.6433   20.4185 C   0  0  0  0  0  0  0  0  0  0  0  0
  -25.3926  -25.4831   22.6372 C   0  0  0  0  0  0  0  0  0  0  0  0
  -29.6755  -23.0738   17.3492 C   0  0  0  0  0  0  0  0  0  0  0  0
  -30.0707  -14.3962   20.9800 C   0  0  0  0  0  0  0  0  0  0  0  0
  -29.8599  -23.2923   18.8475 C   0  0  0  0  0  0  0  0  0  0  0  0
  -28.6477  -13.8527   21.1197 C   0  0  0  0  0  0  0  0  0  0  0  0
  -30.7178  -14.6404   22.3415 C   0  0  0  0  0  0  0  0  0  0  0  0
  -28.5114  -14.9489   23.3953 C   0  0  0  0  0  0  0  0  0  0  0  0
  -28.8283  -22.4929   19.6527 C   0  0  1  0  0  0  0  0  0  0  0  0
  -25.8100  -24.7131   20.2802 C   0  0  1  0  0  0  0  0  0  0  0  0
  -27.7974  -14.7396   22.0490 C   0  0  2  0  0  0  0  0  0  0  0  0
  -29.0463  -17.7163   27.6602 C   0  0  0  0  0  0  0  0  0  0  0  0
  -22.8695  -31.5446   22.4452 C   0  0  0  0  0  0  0  0  0  0  0  0
  -28.4432  -27.9727   22.2299 C   0  0  0  0  0  0  0  0  0  0  0  0
  -27.2195  -29.9907   23.0656 C   0  0  0  0  0  0  0  0  0  0  0  0
  -27.5487  -29.6599   20.6151 C   0  0  0  0  0  0  0  0  0  0  0  0
  -20.9197  -28.3577   21.7253 C   0  0  0  0  0  0  0  0  0  0  0  0
  -29.4272  -21.9430   23.9616 C   0  0  0  0  0  0  0  0  0  0  0  0
  -25.4765  -21.2134   27.8656 C   0  0  0  0  0  0  0  0  0  0  0  0
  -29.8719  -18.7083   25.0435 C   0  0  0  0  0  0  0  0  0  0  0  0
  -24.1107  -20.6013   27.5474 C   0  0  0  0  0  0  0  0  0  0  0  0
  -23.7005  -20.7654   26.0886 C   0  0  0  0  0  0  0  0  0  1  0  0
  -25.8990  -28.1974   21.8527 C   0  0  1  0  0  0  0  0  0  0  0  0
  -22.6510  -30.1519   21.8748 C   0  0  2  0  0  0  0  0  0  0  0  0
  -27.2677  -28.9290   21.9461 C   0  0  0  0  0  0  0  0  0  0  0  0
  -26.1507  -13.3596   23.2599 N   0  0  0  0  0  0  0  0  0  0  0  0
  -26.3969  -14.1830   22.2267 N   0  0  0  0  0  0  0  0  0  0  0  0
  -25.6340  -25.8186   21.2241 N   0  0  0  0  0  0  0  0  0  0  0  0
  -29.8618  -15.4895   23.1735 N   0  0  0  0  0  0  0  0  0  0  0  0
  -25.3802  -15.2259   20.3588 N   0  0  0  0  0  0  0  0  0  0  0  0
  -22.0012  -12.8607   22.1985 N   0  0  0  0  0  0  0  0  0  0  0  0
  -27.5416  -23.1548   19.6238 N   0  0  0  0  0  0  0  0  0  0  0  0
  -24.7713  -29.0748   21.5577 N   0  0  0  0  0  0  0  0  0  0  0  0
  -29.4939  -17.4424   24.4558 N   0  0  0  0  0  0  0  0  0  0  0  0
  -21.2779  -29.7038   22.2418 N   0  3  0  0  0  0  0  0  0  0  0  0
  -22.5705  -14.2619   20.4748 O   0  0  0  0  0  0  0  0  0  0  0  0
  -27.8982  -24.6419   21.3799 O   0  0  0  0  0  0  0  0  0  0  0  0
  -26.0964  -27.4398   19.6135 O   0  0  0  0  0  0  0  0  0  0  0  0
  -23.5424  -28.5558   23.4544 O   0  0  0  0  0  0  0  0  0  0  0  0
  -31.5263  -17.0787   23.4588 O   0  0  0  0  0  0  0  0  0  0  0  0
  -22.3155   -9.6633   26.7497 O   0  0  0  0  0  0  0  0  0  0  0  0
  -28.4376  -20.9162   23.9825 O   0  0  0  0  0  0  0  0  0  0  0  0
  -23.6575  -22.1577   25.7787 O   0  0  0  0  0  0  0  0  0  1  0  0
  -23.2817  -10.4689   32.1183 F   0  0  0  0  0  0  0  0  0  0  0  0
  -24.8778   -9.4843   27.7722 F   0  0  0  0  0  0  0  0  0  0  0  0
  1  2  1  0  0  0  0
  1  5  2  0  0  0  0
  2  6  2  0  0  0  0
  3  8  2  0  0  0  0
  3 17  1  0  0  0  0
  4  9  1  0  0  0  0
  4 17  2  0  0  0  0
  5 19  1  0  0  0  0
  6 21  1  0  0  0  0
  7 10  2  0  0  0  0
  7 20  1  0  0  0  0
  8 26  1  0  0  0  0
  9 26  2  0  0  0  0
 10 27  1  0  0  0  0
 11 12  2  0  0  0  0
 11 28  1  0  0  0  0
 12 30  1  0  0  0  0
 13 22  1  0  0  0  0
 13 27  2  0  0  0  0
 14 23  1  0  0  0  0
 14 24  2  0  0  0  0
 15 23  2  0  0  0  0
 15 29  1  0  0  0  0
 16 30  2  0  0  0  0
 16 31  1  0  0  0  0
 17 32  1  0  0  0  0
 18 32  1  0  0  0  0
 18 33  2  0  0  0  0
 18 34  1  0  0  0  0
 19 21  2  0  0  0  0
 19 39  1  0  0  0  0
 20 22  2  0  0  0  0
 20 40  1  0  0  0  0
 21 48  1  0  0  0  0
 22 41  1  0  0  0  0
 23 58  1  0  0  0  0
 24 25  1  0  0  0  0
 24 51  1  0  0  0  0
 25 29  2  0  0  0  0
 25 59  1  0  0  0  0
 26 80  1  0  0  0  0
 27 82  1  0  0  0  0
 28 31  2  0  0  0  0
 28 80  1  0  0  0  0
 29 81  1  0  0  0  0
 30 83  1  0  0  0  0
 31 84  1  0  0  0  0
 32 65  2  0  0  0  0
 33 66  1  0  0  0  0
 33 69  1  0  0  0  0
 34 70  1  0  0  0  0
 34 75  2  0  0  0  0
 35 49  1  0  0  0  0
 35 71  1  0  0  0  0
 35 76  2  0  0  0  0
 36 62  1  0  0  0  0
 36 67  1  0  0  0  0
 36 77  2  0  0  0  0
 37 63  1  0  0  0  0
 37 72  1  0  0  0  0
 37 78  2  0  0  0  0
 38 68  1  0  0  0  0
 38 73  1  0  0  0  0
 38 79  2  0  0  0  0
 39 42  1  0  0  0  0
 40 49  1  0  0  0  0
 41 67  1  0  0  0  0
 42 44  1  0  0  0  0
 43 45  1  0  0  0  0
 43 46  1  0  0  0  0
 44 48  1  0  0  0  0
 45 50  1  0  0  0  0
 46 68  1  0  0  0  0
 47 50  1  0  0  0  0
 47 68  1  0  0  0  0
 48 71  1  0  0  0  0
 49 67  1  0  0  0  0
 50 66  1  0  0  0  0
 52 63  1  0  0  0  0
 53 64  1  0  0  0  0
 54 64  1  0  0  0  0
 55 64  1  0  0  0  0
 56 74  1  0  0  0  0
 57 81  1  0  0  0  0
 58 60  1  0  0  0  0
 59 73  1  0  0  0  0
 60 61  1  0  0  0  0
 61 82  1  0  0  0  0
 62 64  1  0  0  0  0
 62 72  1  0  0  0  0
 63 74  1  0  0  0  0
 65 66  1  0  0  0  0
M  CHG  1  74   1
M  ISO  4  38 100  61 101  73 100  82 101
M  END
> <Batch ID>
0034

> <Smiles>
CNC(C)C(=O)NC(C(=O)N1Cc2cc([101O:1][101CH2:1]CCc3cc(C)c(C[100NH:0][100C:0](=O)N4CCCC(n5nc(-c6ccc(Oc7ccc(F)cc7F)cc6)c(C(N)=O)c5N)C4)c(OC)c3)ccc2CC1C(=O)NC1CCCc2ccccc21)C(C)(C)C

> <Shape>
0.161

> <Color>
0.112

> <Negative vol penalty>
0.000

$$$$

  -OEChem-04052316503D

 85 93  0     1  0  0  0  0  0999 V2000
  -22.7278   -8.4059   20.7771 C   0  0  0  0  0  0  0  0  0  0  0  0
  -22.2289   -9.5552   20.1725 C   0  0  0  0  0  0  0  0  0  0  0  0
  -28.9519  -25.4279   21.0094 C   0  0  0  0  0  0  0  0  0  0  0  0
  -26.8930  -24.1955   20.7286 C   0  0  0  0  0  0  0  0  0  0  0  0
  -23.7210   -8.5067   21.7504 C   0  0  0  0  0  0  0  0  0  0  0  0
  -22.7221  -10.8062   20.5417 C   0  0  0  0  0  0  0  0  0  0  0  0
  -24.0866  -17.2929   17.8257 C   0  0  0  0  0  0  0  0  0  0  0  0
  -29.5620  -24.2890   21.5350 C   0  0  0  0  0  0  0  0  0  0  0  0
  -27.5031  -23.0565   21.2541 C   0  0  0  0  0  0  0  0  0  0  0  0
  -23.8216  -18.6399   18.0689 C   0  0  0  0  0  0  0  0  0  0  0  0
  -30.9135  -21.4205   20.3609 C   0  0  0  0  0  0  0  0  0  0  0  0
  -32.1912  -21.0996   19.9025 C   0  0  0  0  0  0  0  0  0  0  0  0
  -25.5936  -18.6869   19.7051 C   0  0  0  0  0  0  0  0  0  0  0  0
  -18.7341  -27.6029   23.5808 C   0  0  0  0  0  0  0  0  0  0  0  0
  -19.7583  -26.8636   21.5214 C   0  0  0  0  0  0  0  0  0  0  0  0
  -33.0458  -21.2851   22.1547 C   0  0  0  0  0  0  0  0  0  0  0  0
  -27.6174  -25.3812   20.6063 C   0  0  0  0  0  0  0  0  0  0  0  0
  -26.9363  -26.9487   18.7125 C   0  0  0  0  0  0  0  0  0  0  0  0
  -24.2335   -9.7588   22.1248 C   0  0  0  0  0  0  0  0  0  0  0  0
  -25.1016  -16.6289   18.5295 C   0  0  0  0  0  0  0  0  0  0  0  0
  -23.7221  -10.9239   21.5219 C   0  0  0  0  0  0  0  0  0  0  0  0
  -25.8711  -17.3322   19.4672 C   0  0  0  0  0  0  0  0  0  0  0  0
  -19.4855  -27.8786   22.4385 C   0  0  0  0  0  0  0  0  0  0  0  0
  -18.2554  -26.3122   23.8061 C   0  0  0  0  0  0  0  0  0  0  0  0
  -19.2796  -25.5729   21.7466 C   0  0  0  0  0  0  0  0  0  0  0  0
  -18.5282  -25.2972   22.8890 C   0  0  0  0  0  0  0  0  0  0  0  0
  -28.8377  -23.1033   21.6573 C   0  0  0  0  0  0  0  0  0  0  0  0
  -24.5732  -19.3364   19.0108 C   0  0  0  0  0  0  0  0  0  0  0  0
  -30.7020  -21.6739   21.7162 C   0  0  0  0  0  0  0  0  0  0  0  0
  -33.2573  -21.0318   20.7994 C   0  0  0  0  0  0  0  0  0  0  0  0
  -31.7681  -21.6061   22.6131 C   0  0  0  0  0  0  0  0  0  0  0  0
  -26.9864  -26.5575   20.0638 C   0  0  0  0  0  0  0  0  0  0  0  0
  -26.2292  -28.1262   18.7219 C   0  0  0  0  0  0  0  0  0  0  0  0
  -27.4802  -26.3053   17.5524 C   0  0  0  0  0  0  0  0  0  0  0  0
  -25.1981  -14.1641   20.5343 C   0  0  0  0  0  0  0  0  0  0  0  0
  -28.4046  -14.5851   20.2820 C   0  0  0  0  0  0  0  0  0  0  0  0
  -31.0055  -16.6829   19.5885 C   0  0  0  0  0  0  0  0  0  0  0  0
  -22.1738  -30.4170   22.4845 C   0  0  0  0  0  0  0  0  0  0  0  0
  -25.2733   -9.8210   23.2155 C   0  0  0  0  0  0  0  0  0  0  0  0
  -25.3927  -15.1826   18.2363 C   0  0  0  0  0  0  0  0  0  0  0  0
  -26.9854  -16.6706   20.2348 C   0  0  0  0  0  0  0  0  0  0  0  0
  -26.0078  -11.1576   23.2814 C   0  0  0  0  0  0  0  0  0  0  0  0
  -25.2643  -31.8923   21.5105 C   0  0  0  0  0  0  0  0  0  0  0  0
  -25.0175  -12.3153   23.2047 C   0  0  0  0  0  0  0  0  0  0  0  0
  -26.0516  -30.7276   20.9074 C   0  0  0  0  0  0  0  0  0  0  0  0
  -24.4173  -31.4450   22.6998 C   0  0  0  0  0  0  0  0  0  0  0  0
  -24.3045  -29.1443   21.8236 C   0  0  0  0  0  0  0  0  0  0  0  0
  -24.2493  -12.2971   21.8777 C   0  0  1  0  0  0  0  0  0  0  0  0
  -26.1100  -14.4735   19.3809 C   0  0  1  0  0  0  0  0  0  0  0  0
  -25.1309  -29.5350   20.5863 C   0  0  2  0  0  0  0  0  0  0  0  0
  -17.4521  -26.0435   25.0366 C   0  0  0  0  0  0  0  0  0  0  0  0
  -18.0144  -23.9136   23.1305 C   0  0  0  0  0  0  0  0  0  0  0  0
  -33.5126  -16.7514   19.5045 C   0  0  0  0  0  0  0  0  0  0  0  0
  -28.5004  -14.7205   23.3287 C   0  0  0  0  0  0  0  0  0  0  0  0
  -30.7898  -15.7168   23.1428 C   0  0  0  0  0  0  0  0  0  0  0  0
  -30.3598  -13.4148   22.2834 C   0  0  0  0  0  0  0  0  0  0  0  0
  -31.0070  -17.3215   16.6986 C   0  0  0  0  0  0  0  0  0  0  0  0
  -19.5883  -24.4936   20.7396 C   0  0  0  0  0  0  0  0  0  0  0  0
  -19.9979  -29.2583   22.1980 C   0  0  0  0  0  0  0  0  0  0  0  0
  -21.0066  -23.9239   20.8573 C   0  0  0  0  0  0  0  0  0  0  0  0
  -21.2750  -22.7771   19.8778 C   0  0  0  0  0  0  0  0  0  0  0  0
  -22.7071  -22.2614   20.0087 C   0  0  0  0  0  0  0  0  0  0  0  0
  -22.9717  -21.0936   19.0691 C   0  0  0  0  0  0  0  0  0  1  0  0
  -29.4371  -15.4016   21.0211 C   0  0  1  0  0  0  0  0  0  0  0  0
  -32.2353  -16.5084   18.7158 C   0  0  2  0  0  0  0  0  0  0  0  0
  -29.7496  -14.8257   22.4311 C   0  0  0  0  0  0  0  0  0  0  0  0
  -26.3611  -27.4168   20.8729 N   0  0  0  0  0  0  0  0  0  0  0  0
  -25.9115  -28.3597   20.0275 N   0  0  0  0  0  0  0  0  0  0  0  0
  -27.2273  -15.2535   19.9172 N   0  0  0  0  0  0  0  0  0  0  0  0
  -23.5658  -30.3123   22.3284 N   0  0  0  0  0  0  0  0  0  0  0  0
  -25.8545  -28.9742   17.7406 N   0  0  0  0  0  0  0  0  0  0  0  0
  -28.1784  -25.1018   17.7214 N   0  0  0  0  0  0  0  0  0  0  0  0
  -25.0753  -12.8153   20.8084 N   0  0  0  0  0  0  0  0  0  0  0  0
  -30.5968  -15.4872   20.1402 N   0  0  0  0  0  0  0  0  0  0  0  0
  -21.4401  -29.3004   22.1027 N   0  0  0  0  0  0  0  0  0  0  0  0
  -32.1995  -17.4643   17.5730 N   0  3  0  0  0  0  0  0  0  0  0  0
  -27.3650  -26.7918   16.4019 O   0  0  0  0  0  0  0  0  0  0  0  0
  -24.6478  -15.0813   21.1324 O   0  0  0  0  0  0  0  0  0  0  0  0
  -28.6371  -13.4000   20.0311 O   0  0  0  0  0  0  0  0  0  0  0  0
  -30.4640  -17.7718   19.7662 O   0  0  0  0  0  0  0  0  0  0  0  0
  -21.6251  -31.4323   22.9260 O   0  0  0  0  0  0  0  0  0  0  0  0
  -29.4328  -21.9917   22.1699 O   0  0  0  0  0  0  0  0  0  0  0  0
  -24.3162  -20.6511   19.2505 O   0  0  0  0  0  0  0  0  0  1  0  0
  -34.4839  -20.7220   20.3593 F   0  0  0  0  0  0  0  0  0  0  0  0
  -31.5708  -21.8473   23.9165 F   0  0  0  0  0  0  0  0  0  0  0  0
  1  2  1  0  0  0  0
  1  5  2  0  0  0  0
  2  6  2  0  0  0  0
  3  8  2  0  0  0  0
  3 17  1  0  0  0  0
  4  9  1  0  0  0  0
  4 17  2  0  0  0  0
  5 19  1  0  0  0  0
  6 21  1  0  0  0  0
  7 10  2  0  0  0  0
  7 20  1  0  0  0  0
  8 27  1  0  0  0  0
  9 27  2  0  0  0  0
 10 28  1  0  0  0  0
 11 12  2  0  0  0  0
 11 29  1  0  0  0  0
 12 30  1  0  0  0  0
 13 22  1  0  0  0  0
 13 28  2  0  0  0  0
 14 23  1  0  0  0  0
 14 24  2  0  0  0  0
 15 23  2  0  0  0  0
 15 25  1  0  0  0  0
 16 30  2  0  0  0  0
 16 31  1  0  0  0  0
 17 32  1  0  0  0  0
 18 32  1  0  0  0  0
 18 33  2  0  0  0  0
 18 34  1  0  0  0  0
 19 21  2  0  0  0  0
 19 39  1  0  0  0  0
 20 22  2  0  0  0  0
 20 40  1  0  0  0  0
 21 48  1  0  0  0  0
 22 41  1  0  0  0  0
 23 59  1  0  0  0  0
 24 26  1  0  0  0  0
 24 51  1  0  0  0  0
 25 26  2  0  0  0  0
 25 58  1  0  0  0  0
 26 52  1  0  0  0  0
 27 82  1  0  0  0  0
 28 83  1  0  0  0  0
 29 31  2  0  0  0  0
 29 82  1  0  0  0  0
 30 84  1  0  0  0  0
 31 85  1  0  0  0  0
 32 67  2  0  0  0  0
 33 68  1  0  0  0  0
 33 71  1  0  0  0  0
 34 72  1  0  0  0  0
 34 77  2  0  0  0  0
 35 49  1  0  0  0  0
 35 73  1  0  0  0  0
 35 78  2  0  0  0  0
 36 64  1  0  0  0  0
 36 69  1  0  0  0  0
 36 79  2  0  0  0  0
 37 65  1  0  0  0  0
 37 74  1  0  0  0  0
 37 80  2  0  0  0  0
 38 70  1  0  0  0  0
 38 75  1  0  0  0  0
 38 81  2  0  0  0  0
 39 42  1  0  0  0  0
 40 49  1  0  0  0  0
 41 69  1  0  0  0  0
 42 44  1  0  0  0  0
 43 45  1  0  0  0  0
 43 46  1  0  0  0  0
 44 48  1  0  0  0  0
 45 50  1  0  0  0  0
 46 70  1  0  0  0  0
 47 50  1  0  0  0  0
 47 70  1  0  0  0  0
 48 73  1  0  0  0  0
 49 69  1  0  0  0  0
 50 68  1  0  0  0  0
 53 65  1  0  0  0  0
 54 66  1  0  0  0  0
 55 66  1  0  0  0  0
 56 66  1  0  0  0  0
 57 76  1  0  0  0  0
 58 60  1  0  0  0  0
 59 75  1  0  0  0  0
 60 61  1  0  0  0  0
 61 62  1  0  0  0  0
 62 63  1  0  0  0  0
 63 83  1  0  0  0  0
 64 66  1  0  0  0  0
 64 74  1  0  0  0  0
 65 76  1  0  0  0  0
 67 68  1  0  0  0  0
M  CHG  1  76   1
M  ISO  4  38 100  63 101  75 100  83 101
M  END
> <Batch ID>
0034

> <Smiles>
CNC(C)C(=O)NC(C(=O)N1Cc2cc([101O:1][101CH2:1]CCCCc3cc(C[100NH:0][100C:0](=O)N4CCCC(n5nc(-c6ccc(Oc7ccc(F)cc7F)cc6)c(C(N)=O)c5N)C4)cc(C)c3C)ccc2CC1C(=O)NC1CCCc2ccccc21)C(C)(C)C

> <Shape>
0.239

> <Color>
0.085

> <Negative vol penalty>
0.000

$$$$

  -OEChem-04052316503D

 84 92  0     1  0  0  0  0  0999 V2000
  -19.2643  -27.2724   22.4665 C   0  0  0  0  0  0  0  0  0  0  0  0
  -20.3375  -27.2758   23.3503 C   0  0  0  0  0  0  0  0  0  0  0  0
  -26.6046  -12.8092   21.7098 C   0  0  0  0  0  0  0  0  0  0  0  0
  -26.0602  -14.0517   19.7106 C   0  0  0  0  0  0  0  0  0  0  0  0
  -18.6902  -26.0638   22.0779 C   0  0  0  0  0  0  0  0  0  0  0  0
  -20.8447  -26.0703   23.8365 C   0  0  0  0  0  0  0  0  0  0  0  0
  -25.2919  -20.1878   21.6289 C   0  0  0  0  0  0  0  0  0  0  0  0
  -25.3312  -12.2400   21.7028 C   0  0  0  0  0  0  0  0  0  0  0  0
  -24.7868  -13.4824   19.7035 C   0  0  0  0  0  0  0  0  0  0  0  0
  -25.4359  -19.6289   20.3597 C   0  0  0  0  0  0  0  0  0  0  0  0
  -23.7191   -9.7626   20.0607 C   0  0  0  0  0  0  0  0  0  0  0  0
  -23.6214   -8.3898   20.2877 C   0  0  0  0  0  0  0  0  0  0  0  0
  -25.4942  -21.8409   19.3990 C   0  0  0  0  0  0  0  0  0  0  0  0
  -28.8827  -21.4284   14.9687 C   0  0  0  0  0  0  0  0  0  0  0  0
  -29.1002  -19.7329   17.1734 C   0  0  0  0  0  0  0  0  0  0  0  0
  -22.2503   -8.8090   22.2323 C   0  0  0  0  0  0  0  0  0  0  0  0
  -26.9691  -13.7151   20.7137 C   0  0  0  0  0  0  0  0  0  0  0  0
  -29.4423  -13.8049   20.0950 C   0  0  0  0  0  0  0  0  0  0  0  0
  -19.1832  -24.8440   22.5699 C   0  0  0  0  0  0  0  0  0  0  0  0
  -25.2370  -21.5795   21.7917 C   0  0  0  0  0  0  0  0  0  0  0  0
  -20.2942  -24.8389   23.4376 C   0  0  0  0  0  0  0  0  0  0  0  0
  -25.3521  -22.4149   20.6715 C   0  0  0  0  0  0  0  0  0  0  0  0
  -29.9525  -21.5678   15.8528 C   0  0  0  0  0  0  0  0  0  0  0  0
  -27.9216  -20.4413   15.1870 C   0  0  0  0  0  0  0  0  0  0  0  0
  -30.0613  -20.7200   16.9551 C   0  0  0  0  0  0  0  0  0  0  0  0
  -28.0304  -19.5935   16.2892 C   0  0  0  0  0  0  0  0  0  0  0  0
  -24.4223  -12.5766   20.6997 C   0  0  0  0  0  0  0  0  0  0  0  0
  -25.5341  -20.4554   19.2442 C   0  0  0  0  0  0  0  0  0  0  0  0
  -23.0825  -10.6586   20.9196 C   0  0  0  0  0  0  0  0  0  0  0  0
  -22.8870   -7.9130   21.3735 C   0  0  0  0  0  0  0  0  0  0  0  0
  -22.3480  -10.1818   22.0053 C   0  0  0  0  0  0  0  0  0  0  0  0
  -28.2842  -14.3039   20.7207 C   0  0  0  0  0  0  0  0  0  0  0  0
  -30.4187  -14.7221   20.3982 C   0  0  0  0  0  0  0  0  0  0  0  0
  -29.6197  -12.6184   19.3099 C   0  0  0  0  0  0  0  0  0  0  0  0
  -23.0693  -23.6248   22.8972 C   0  0  0  0  0  0  0  0  0  0  0  0
  -25.4626  -25.7767   22.4922 C   0  0  0  0  0  0  0  0  0  0  0  0
  -28.3588  -26.6228   20.8976 C   0  0  0  0  0  0  0  0  0  0  0  0
  -30.2512  -20.5357   21.8210 C   0  0  0  0  0  0  0  0  0  0  0  0
  -18.5291  -23.5648   22.1102 C   0  0  0  0  0  0  0  0  0  0  0  0
  -25.1082  -22.1673   23.1703 C   0  0  0  0  0  0  0  0  0  0  0  0
  -25.3191  -23.9157   20.7947 C   0  0  0  0  0  0  0  0  0  0  0  0
  -18.8433  -22.3779   23.0151 C   0  0  0  0  0  0  0  0  0  0  0  0
  -31.6602  -17.8984   23.7538 C   0  0  0  0  0  0  0  0  0  0  0  0
  -20.3422  -22.2953   23.2622 C   0  0  0  0  0  0  0  0  0  0  0  0
  -31.0592  -16.6331   23.1392 C   0  0  0  0  0  0  0  0  0  0  0  0
  -30.6595  -19.0519   23.7621 C   0  0  0  0  0  0  0  0  0  0  0  0
  -29.4564  -18.0935   21.8366 C   0  0  0  0  0  0  0  0  0  0  0  0
  -20.8430  -23.5415   24.0033 C   0  0  1  0  0  0  0  0  0  0  0  0
  -24.5473  -23.5860   23.1649 C   0  0  1  0  0  0  0  0  0  0  0  0
  -30.4461  -16.9188   21.7551 C   0  0  2  0  0  0  0  0  0  0  0  0
  -30.9696  -22.6314   15.5984 C   0  0  0  0  0  0  0  0  0  0  0  0
  -26.7845  -20.3115   14.2274 C   0  0  0  0  0  0  0  0  0  0  0  0
  -30.4189  -27.9515   20.3610 C   0  0  0  0  0  0  0  0  0  0  0  0
  -23.5169  -27.4401   20.8316 C   0  0  0  0  0  0  0  0  0  0  0  0
  -25.4771  -28.7214   19.9460 C   0  0  0  0  0  0  0  0  0  0  0  0
  -24.9597  -28.7657   22.3858 C   0  0  0  0  0  0  0  0  0  0  0  0
  -29.9626  -25.1696   22.9162 C   0  0  0  0  0  0  0  0  0  0  0  0
  -31.1982  -20.8500   17.9148 C   0  0  0  0  0  0  0  0  0  0  0  0
  -27.0023  -18.5187   16.5464 C   0  0  0  0  0  0  0  0  0  0  0  0
  -31.0390  -21.9902   18.9387 C   0  0  0  0  0  0  0  0  0  0  0  0
  -29.7799  -21.8933   19.7976 C   0  0  0  0  0  0  0  0  0  0  0  0
  -26.3483  -18.6579   17.9168 C   0  0  0  0  0  0  0  0  0  1  0  0
  -25.9220  -26.6644   21.3608 C   0  0  1  0  0  0  0  0  0  0  0  0
  -29.6806  -27.1524   21.4236 C   0  0  2  0  0  0  0  0  0  0  0  0
  -24.9676  -27.8696   21.1282 C   0  0  0  0  0  0  0  0  0  0  0  0
  -28.5029  -15.4491   21.3723 N   0  0  0  0  0  0  0  0  0  0  0  0
  -29.8098  -15.6773   21.1578 N   0  0  0  0  0  0  0  0  0  0  0  0
  -25.1854  -24.4423   22.1630 N   0  0  0  0  0  0  0  0  0  0  0  0
  -30.1166  -19.2721   22.4195 N   0  0  0  0  0  0  0  0  0  0  0  0
  -31.7301  -14.7966   20.0866 N   0  0  0  0  0  0  0  0  0  0  0  0
  -28.5118  -11.7870   19.0958 N   0  0  0  0  0  0  0  0  0  0  0  0
  -22.2889  -23.5238   24.0331 N   0  0  0  0  0  0  0  0  0  0  0  0
  -27.2967  -27.0419   21.6706 N   0  0  0  0  0  0  0  0  0  0  0  0
  -29.7144  -20.6573   20.5452 N   0  0  0  0  0  0  0  0  0  0  0  0
  -30.5548  -26.0256   21.8562 N   0  3  0  0  0  0  0  0  0  0  0  0
  -30.7315  -12.2961   18.8266 O   0  0  0  0  0  0  0  0  0  0  0  0
  -22.6668  -23.7394   21.7454 O   0  0  0  0  0  0  0  0  0  0  0  0
  -25.3605  -26.2480   23.6275 O   0  0  0  0  0  0  0  0  0  0  0  0
  -28.2763  -25.9118   19.8985 O   0  0  0  0  0  0  0  0  0  0  0  0
  -30.8131  -21.4838   22.3800 O   0  0  0  0  0  0  0  0  0  0  0  0
  -23.1797  -12.0212   20.6924 O   0  0  0  0  0  0  0  0  0  0  0  0
  -25.6741  -19.9125   18.0042 O   0  0  0  0  0  0  0  0  0  1  0  0
  -22.7920   -6.5947   21.5905 F   0  0  0  0  0  0  0  0  0  0  0  0
  -21.7332  -11.0376   22.8332 F   0  0  0  0  0  0  0  0  0  0  0  0
  1  2  1  0  0  0  0
  1  5  2  0  0  0  0
  2  6  2  0  0  0  0
  3  8  2  0  0  0  0
  3 17  1  0  0  0  0
  4  9  1  0  0  0  0
  4 17  2  0  0  0  0
  5 19  1  0  0  0  0
  6 21  1  0  0  0  0
  7 10  2  0  0  0  0
  7 20  1  0  0  0  0
  8 27  1  0  0  0  0
  9 27  2  0  0  0  0
 10 28  1  0  0  0  0
 11 12  2  0  0  0  0
 11 29  1  0  0  0  0
 12 30  1  0  0  0  0
 13 22  1  0  0  0  0
 13 28  2  0  0  0  0
 14 23  2  0  0  0  0
 14 24  1  0  0  0  0
 15 25  2  0  0  0  0
 15 26  1  0  0  0  0
 16 30  2  0  0  0  0
 16 31  1  0  0  0  0
 17 32  1  0  0  0  0
 18 32  1  0  0  0  0
 18 33  2  0  0  0  0
 18 34  1  0  0  0  0
 19 21  2  0  0  0  0
 19 39  1  0  0  0  0
 20 22  2  0  0  0  0
 20 40  1  0  0  0  0
 21 48  1  0  0  0  0
 22 41  1  0  0  0  0
 23 25  1  0  0  0  0
 23 51  1  0  0  0  0
 24 26  2  0  0  0  0
 24 52  1  0  0  0  0
 25 58  1  0  0  0  0
 26 59  1  0  0  0  0
 27 81  1  0  0  0  0
 28 82  1  0  0  0  0
 29 31  2  0  0  0  0
 29 81  1  0  0  0  0
 30 83  1  0  0  0  0
 31 84  1  0  0  0  0
 32 66  2  0  0  0  0
 33 67  1  0  0  0  0
 33 70  1  0  0  0  0
 34 71  1  0  0  0  0
 34 76  2  0  0  0  0
 35 49  1  0  0  0  0
 35 72  1  0  0  0  0
 35 77  2  0  0  0  0
 36 63  1  0  0  0  0
 36 68  1  0  0  0  0
 36 78  2  0  0  0  0
 37 64  1  0  0  0  0
 37 73  1  0  0  0  0
 37 79  2  0  0  0  0
 38 69  1  0  0  0  0
 38 74  1  0  0  0  0
 38 80  2  0  0  0  0
 39 42  1  0  0  0  0
 40 49  1  0  0  0  0
 41 68  1  0  0  0  0
 42 44  1  0  0  0  0
 43 45  1  0  0  0  0
 43 46  1  0  0  0  0
 44 48  1  0  0  0  0
 45 50  1  0  0  0  0
 46 69  1  0  0  0  0
 47 50  1  0  0  0  0
 47 69  1  0  0  0  0
 48 72  1  0  0  0  0
 49 68  1  0  0  0  0
 50 67  1  0  0  0  0
 53 64  1  0  0  0  0
 54 65  1  0  0  0  0
 55 65  1  0  0  0  0
 56 65  1  0  0  0  0
 57 75  1  0  0  0  0
 58 60  1  0  0  0  0
 59 62  1  0  0  0  0
 60 61  1  0  0  0  0
 61 74  1  0  0  0  0
 62 82  1  0  0  0  0
 63 65  1  0  0  0  0
 63 73  1  0  0  0  0
 64 75  1  0  0  0  0
 66 67  1  0  0  0  0
M  CHG  1  75   1
M  ISO  4  38 100  62 101  74 100  82 101
M  END
> <Batch ID>
0034

> <Smiles>
CNC(C)C(=O)NC(C(=O)N1Cc2cc([101O:1][101CH2:1]Cc3cc(CCC[100NH:0][100C:0](=O)N4CCCC(n5nc(-c6ccc(Oc7ccc(F)cc7F)cc6)c(C(N)=O)c5N)C4)c(C)cc3C)ccc2CC1C(=O)NC1CCCc2ccccc21)C(C)(C)C

> <Shape>
0.217

> <Color>
0.062

> <Negative vol penalty>
0.000

$$$$

  -OEChem-04052316502D

  0  0  0     0  0  0  0  0  0999 V2000
M  END
$$$$

  -OEChem-04052316503D

 83 91  0     1  0  0  0  0  0999 V2000
  -28.9918  -11.3481   19.9132 C   0  0  0  0  0  0  0  0  0  0  0  0
  -29.1650  -12.3484   20.8643 C   0  0  0  0  0  0  0  0  0  0  0  0
  -25.6133  -27.1524   20.6718 C   0  0  0  0  0  0  0  0  0  0  0  0
  -26.4675  -26.5377   22.8465 C   0  0  0  0  0  0  0  0  0  0  0  0
  -28.2225  -11.5940   18.7767 C   0  0  0  0  0  0  0  0  0  0  0  0
  -28.5698  -13.5957   20.6790 C   0  0  0  0  0  0  0  0  0  0  0  0
  -26.3502  -15.3335   24.8860 C   0  0  0  0  0  0  0  0  0  0  0  0
  -24.5584  -27.8338   21.2788 C   0  0  0  0  0  0  0  0  0  0  0  0
  -25.4126  -27.2191   23.4535 C   0  0  0  0  0  0  0  0  0  0  0  0
  -27.1794  -15.8825   25.8631 C   0  0  0  0  0  0  0  0  0  0  0  0
  -24.0671  -30.8081   22.8102 C   0  0  0  0  0  0  0  0  0  0  0  0
  -23.7502  -32.0767   22.3248 C   0  0  0  0  0  0  0  0  0  0  0  0
  -26.6116  -18.0967   25.0925 C   0  0  0  0  0  0  0  0  0  0  0  0
  -30.9258  -16.8349   25.3633 C   0  0  0  0  0  0  0  0  0  0  0  0
  -31.8039  -16.9934   23.1181 C   0  0  0  0  0  0  0  0  0  0  0  0
  -31.1848  -18.9973   24.3173 C   0  0  0  0  0  0  0  0  0  0  0  0
  -21.5249  -31.3114   21.7776 C   0  0  0  0  0  0  0  0  0  0  0  0
  -26.5679  -26.5043   21.4557 C   0  0  0  0  0  0  0  0  0  0  0  0
  -28.9183  -26.3204   20.4814 C   0  0  0  0  0  0  0  0  0  0  0  0
  -27.6096  -12.8418   18.5821 C   0  0  0  0  0  0  0  0  0  0  0  0
  -25.6528  -16.1632   23.9962 C   0  0  0  0  0  0  0  0  0  0  0  0
  -27.7926  -13.8590   19.5382 C   0  0  0  0  0  0  0  0  0  0  0  0
  -25.7722  -17.5559   24.1066 C   0  0  0  0  0  0  0  0  0  0  0  0
  -31.4248  -16.2198   24.2152 C   0  0  0  0  0  0  0  0  0  0  0  0
  -30.8057  -18.2237   25.4144 C   0  0  0  0  0  0  0  0  0  0  0  0
  -31.6838  -18.3822   23.1692 C   0  0  0  0  0  0  0  0  0  0  0  0
  -24.4580  -27.8672   22.6696 C   0  0  0  0  0  0  0  0  0  0  0  0
  -27.3125  -17.2642   25.9647 C   0  0  0  0  0  0  0  0  0  0  0  0
  -23.1130  -29.7910   22.7793 C   0  0  0  0  0  0  0  0  0  0  0  0
  -22.4791  -32.3284   21.8085 C   0  0  0  0  0  0  0  0  0  0  0  0
  -21.8419  -30.0427   22.2630 C   0  0  0  0  0  0  0  0  0  0  0  0
  -27.6575  -25.7997   20.8293 C   0  0  0  0  0  0  0  0  0  0  0  0
  -29.5852  -25.2589   19.9203 C   0  0  0  0  0  0  0  0  0  0  0  0
  -29.4400  -27.6452   20.6504 C   0  0  0  0  0  0  0  0  0  0  0  0
  -25.6503  -16.5717   20.8439 C   0  0  0  0  0  0  0  0  0  0  0  0
  -23.1615  -18.5481   21.4935 C   0  0  0  0  0  0  0  0  0  0  0  0
  -21.5543  -20.5363   23.7542 C   0  0  0  0  0  0  0  0  0  0  0  0
  -30.1421  -19.5248   20.4898 C   0  0  0  0  0  0  0  0  0  0  0  0
  -26.8261  -13.0760   17.3148 C   0  0  0  0  0  0  0  0  0  0  0  0
  -24.7415  -15.5561   22.9649 C   0  0  0  0  0  0  0  0  0  0  0  0
  -25.0292  -18.4907   23.1887 C   0  0  0  0  0  0  0  0  0  0  0  0
  -25.9208  -14.3035   17.3764 C   0  0  0  0  0  0  0  0  0  0  0  0
  -28.2154  -20.9739   17.8698 C   0  0  0  0  0  0  0  0  0  0  0  0
  -26.6777  -15.4968   17.9506 C   0  0  0  0  0  0  0  0  0  0  0  0
  -27.9923  -22.4145   18.3335 C   0  0  0  0  0  0  0  0  0  0  0  0
  -28.1887  -19.9937   19.0405 C   0  0  0  0  0  0  0  0  0  0  0  0
  -28.8870  -21.7625   20.6080 C   0  0  0  0  0  0  0  0  0  0  0  0
  -27.1426  -15.2170   19.3849 C   0  0  1  0  0  0  0  0  0  0  0  0
  -24.4791  -16.4814   21.7807 C   0  0  1  0  0  0  0  0  0  0  0  0
  -28.9612  -22.7943   19.4694 C   0  0  2  0  0  0  0  0  0  0  0  0
  -31.5533  -14.7348   24.1613 C   0  0  0  0  0  0  0  0  0  0  0  0
  -28.6892  -19.7694   29.0483 C   0  0  0  0  0  0  0  0  0  0  0  0
  -19.5674  -22.0520   23.9824 C   0  0  0  0  0  0  0  0  0  0  0  0
  -24.6406  -20.7171   19.9387 C   0  0  0  0  0  0  0  0  0  0  0  0
  -23.1194  -22.4075   20.9861 C   0  0  0  0  0  0  0  0  0  0  0  0
  -22.1774  -20.6261   19.5158 C   0  0  0  0  0  0  0  0  0  0  0  0
  -20.3639  -18.8480   25.8735 C   0  0  0  0  0  0  0  0  0  0  0  0
  -30.2658  -18.8904   26.6574 C   0  0  0  0  0  0  0  0  0  0  0  0
  -32.0892  -19.2091   21.9959 C   0  0  0  0  0  0  0  0  0  0  0  0
  -28.2711  -20.1074   27.6233 C   0  0  0  0  0  0  0  0  0  0  0  0
  -23.0182  -20.0149   21.8204 C   0  0  1  0  0  0  0  0  0  0  0  0
  -20.0918  -20.6342   24.1490 C   0  0  2  0  0  0  0  0  0  0  0  0
  -28.7398  -19.0524   26.6134 C   0  0  2  0  0  0  0  0  0  1  0  0
  -23.2545  -20.9240   20.5814 C   0  0  0  0  0  0  0  0  0  0  0  0
  -27.5286  -24.5079   20.5152 N   0  0  0  0  0  0  0  0  0  0  0  0
  -28.7171  -24.2080   19.9641 N   0  0  0  0  0  0  0  0  0  0  0  0
  -24.1554  -17.8488   22.1928 N   0  0  0  0  0  0  0  0  0  0  0  0
  -29.1306  -20.4101   20.0822 N   0  0  0  0  0  0  0  0  0  0  0  0
  -30.8237  -25.1313   19.3985 N   0  0  0  0  0  0  0  0  0  0  0  0
  -28.6213  -28.6148   21.2453 N   0  0  0  0  0  0  0  0  0  0  0  0
  -26.0389  -15.3577   20.3104 N   0  0  0  0  0  0  0  0  0  0  0  0
  -21.7034  -20.1700   22.4333 N   0  0  0  0  0  0  0  0  0  0  0  0
  -30.9960  -20.0007   21.4774 N   0  0  0  0  0  0  0  0  0  0  0  0
  -19.9112  -20.2305   25.5721 N   0  3  0  0  0  0  0  0  0  0  0  0
  -30.5920  -27.9640   20.2699 O   0  0  0  0  0  0  0  0  0  0  0  0
  -26.1626  -17.6623   20.6205 O   0  0  0  0  0  0  0  0  0  0  0  0
  -22.4141  -18.0398   20.6541 O   0  0  0  0  0  0  0  0  0  0  0  0
  -22.4727  -20.7657   24.5382 O   0  0  0  0  0  0  0  0  0  0  0  0
  -30.2778  -18.3961   20.0055 O   0  0  0  0  0  0  0  0  0  0  0  0
  -23.4289  -28.5323   23.2623 O   0  0  0  0  0  0  0  0  0  0  0  0
  -28.1217  -17.8026   26.9171 O   0  0  0  0  0  0  0  0  0  1  0  0
  -22.1744  -33.5472   21.3438 F   0  0  0  0  0  0  0  0  0  0  0  0
  -20.9207  -29.0700   22.2316 F   0  0  0  0  0  0  0  0  0  0  0  0
  1  2  1  0  0  0  0
  1  5  2  0  0  0  0
  2  6  2  0  0  0  0
  3  8  2  0  0  0  0
  3 18  1  0  0  0  0
  4  9  1  0  0  0  0
  4 18  2  0  0  0  0
  5 20  1  0  0  0  0
  6 22  1  0  0  0  0
  7 10  2  0  0  0  0
  7 21  1  0  0  0  0
  8 27  1  0  0  0  0
  9 27  2  0  0  0  0
 10 28  1  0  0  0  0
 11 12  2  0  0  0  0
 11 29  1  0  0  0  0
 12 30  1  0  0  0  0
 13 23  1  0  0  0  0
 13 28  2  0  0  0  0
 14 24  2  0  0  0  0
 14 25  1  0  0  0  0
 15 24  1  0  0  0  0
 15 26  2  0  0  0  0
 16 25  2  0  0  0  0
 16 26  1  0  0  0  0
 17 30  2  0  0  0  0
 17 31  1  0  0  0  0
 18 32  1  0  0  0  0
 19 32  1  0  0  0  0
 19 33  2  0  0  0  0
 19 34  1  0  0  0  0
 20 22  2  0  0  0  0
 20 39  1  0  0  0  0
 21 23  2  0  0  0  0
 21 40  1  0  0  0  0
 22 48  1  0  0  0  0
 23 41  1  0  0  0  0
 24 51  1  0  0  0  0
 25 58  1  0  0  0  0
 26 59  1  0  0  0  0
 27 80  1  0  0  0  0
 28 81  1  0  0  0  0
 29 31  2  0  0  0  0
 29 80  1  0  0  0  0
 30 82  1  0  0  0  0
 31 83  1  0  0  0  0
 32 65  2  0  0  0  0
 33 66  1  0  0  0  0
 33 69  1  0  0  0  0
 34 70  1  0  0  0  0
 34 75  2  0  0  0  0
 35 49  1  0  0  0  0
 35 71  1  0  0  0  0
 35 76  2  0  0  0  0
 36 61  1  0  0  0  0
 36 67  1  0  0  0  0
 36 77  2  0  0  0  0
 37 62  1  0  0  0  0
 37 72  1  0  0  0  0
 37 78  2  0  0  0  0
 38 68  1  0  0  0  0
 38 73  1  0  0  0  0
 38 79  2  0  0  0  0
 39 42  1  0  0  0  0
 40 49  1  0  0  0  0
 41 67  1  0  0  0  0
 42 44  1  0  0  0  0
 43 45  1  0  0  0  0
 43 46  1  0  0  0  0
 44 48  1  0  0  0  0
 45 50  1  0  0  0  0
 46 68  1  0  0  0  0
 47 50  1  0  0  0  0
 47 68  1  0  0  0  0
 48 71  1  0  0  0  0
 49 67  1  0  0  0  0
 50 66  1  0  0  0  0
 52 60  1  0  0  0  0
 53 62  1  0  0  0  0
 54 64  1  0  0  0  0
 55 64  1  0  0  0  0
 56 64  1  0  0  0  0
 57 74  1  0  0  0  0
 58 63  1  0  0  0  0
 59 73  1  0  0  0  0
 60 63  1  0  0  0  0
 61 64  1  0  0  0  0
 61 72  1  0  0  0  0
 62 74  1  0  0  0  0
 63 81  1  0  0  0  0
 65 66  1  0  0  0  0
M  CHG  1  74   1
M  ISO  4  38 100  63 101  73 100  81 101
M  END
> <Batch ID>
0034

> <Smiles>
CC[101CH:1](Cc1cc(C)cc(C[100NH:0][100C:0](=O)N2CCCC(n3nc(-c4ccc(Oc5ccc(F)cc5F)cc4)c(C(N)=O)c3N)C2)c1)[101O:1]c1ccc2c(c1)CN(C(=O)C(NC(=O)C(C)NC)C(C)(C)C)C(C(=O)NC1CCCc3ccccc31)C2

> <Shape>
0.174

> <Color>
0.074

> <Negative vol penalty>
0.000

$$$$

  -OEChem-04052316503D

 87 96  0     1  0  0  0  0  0999 V2000
  -22.7420   -7.3274   24.5341 C   0  0  0  0  0  0  0  0  0  0  0  0
  -24.0756   -7.7233   24.5244 C   0  0  0  0  0  0  0  0  0  0  0  0
  -23.8259  -29.9364   23.0003 C   0  0  0  0  0  0  0  0  0  0  0  0
  -23.4876  -31.4619   21.1576 C   0  0  0  0  0  0  0  0  0  0  0  0
  -21.8908   -7.7238   23.5034 C   0  0  0  0  0  0  0  0  0  0  0  0
  -24.5590   -8.5151   23.4833 C   0  0  0  0  0  0  0  0  0  0  0  0
  -27.4903  -14.9656   24.7834 C   0  0  0  0  0  0  0  0  0  0  0  0
  -22.4483  -29.7356   23.0870 C   0  0  0  0  0  0  0  0  0  0  0  0
  -22.1100  -31.2611   21.2443 C   0  0  0  0  0  0  0  0  0  0  0  0
  -28.2550  -16.1174   24.9696 C   0  0  0  0  0  0  0  0  0  0  0  0
  -20.0836  -27.9515   21.4567 C   0  0  0  0  0  0  0  0  0  0  0  0
  -19.6272  -26.6411   21.5987 C   0  0  0  0  0  0  0  0  0  0  0  0
  -28.4779  -16.3694   22.5748 C   0  0  0  0  0  0  0  0  0  0  0  0
  -18.5892  -27.2304   23.6993 C   0  0  0  0  0  0  0  0  0  0  0  0
  -24.3456  -30.7996   22.0356 C   0  0  0  0  0  0  0  0  0  0  0  0
  -26.6178  -31.5171   22.9464 C   0  0  0  0  0  0  0  0  0  0  0  0
  -22.3617   -8.5288   22.4542 C   0  0  0  0  0  0  0  0  0  0  0  0
  -27.2032  -14.5194   23.4904 C   0  0  0  0  0  0  0  0  0  0  0  0
  -23.7137   -8.9215   22.4369 C   0  0  0  0  0  0  0  0  0  0  0  0
  -27.7019  -15.2233   22.3820 C   0  0  0  0  0  0  0  0  0  0  0  0
  -28.5822  -22.8678   21.2992 C   0  0  0  0  0  0  0  0  0  0  0  0
  -21.5904  -30.3979   22.2090 C   0  0  0  0  0  0  0  0  0  0  0  0
  -28.7478  -16.8174   23.8680 C   0  0  0  0  0  0  0  0  0  0  0  0
  -19.7929  -28.9013   22.4360 C   0  0  0  0  0  0  0  0  0  0  0  0
  -18.8800  -26.2806   22.7200 C   0  0  0  0  0  0  0  0  0  0  0  0
  -19.0457  -28.5408   23.5573 C   0  0  0  0  0  0  0  0  0  0  0  0
  -25.7685  -31.0079   21.9459 C   0  0  0  0  0  0  0  0  0  0  0  0
  -28.1189  -24.1715   21.5588 C   0  0  0  0  0  0  0  0  0  0  0  0
  -28.8770  -22.8689   19.9577 C   0  0  0  0  0  0  0  0  0  0  0  0
  -27.8648  -31.5179   22.3706 C   0  0  0  0  0  0  0  0  0  0  0  0
  -26.3074  -31.9506   24.2774 C   0  0  0  0  0  0  0  0  0  0  0  0
  -25.4884  -11.9701   21.3372 C   0  0  0  0  0  0  0  0  0  0  0  0
  -25.0656  -14.6972   19.9976 C   0  0  0  0  0  0  0  0  0  0  0  0
  -24.4699  -17.9257   19.0708 C   0  0  0  0  0  0  0  0  0  0  0  0
  -30.3109  -28.3213   17.9378 C   0  0  0  0  0  0  0  0  0  0  0  0
  -21.4155   -8.8929   21.3376 C   0  0  0  0  0  0  0  0  0  0  0  0
  -26.4352  -13.2494   23.2434 C   0  0  0  0  0  0  0  0  0  0  0  0
  -27.3970  -14.6869   21.0100 C   0  0  0  0  0  0  0  0  0  0  0  0
  -21.9149  -10.0429   20.4668 C   0  0  0  0  0  0  0  0  0  0  0  0
  -30.0238  -31.8657   18.1151 C   0  0  0  0  0  0  0  0  0  0  0  0
  -30.1894  -21.2684   22.4262 C   0  0  0  0  0  0  0  0  0  0  0  0
  -27.8185  -20.5307   21.9029 C   0  0  0  0  0  0  0  0  0  0  0  0
  -23.3779   -9.8314   20.0906 C   0  0  0  0  0  0  0  0  0  0  0  0
  -28.9773  -32.0937   19.2073 C   0  0  0  0  0  0  0  0  0  0  0  0
  -30.3219  -20.1164   23.4189 C   0  0  0  0  0  0  0  0  0  0  0  0
  -27.9633  -19.3829   22.8988 C   0  0  0  0  0  0  0  0  0  0  0  0
  -29.7042  -30.6302   17.2764 C   0  0  0  0  0  0  0  0  0  0  0  0
  -28.4518  -29.6202   19.1432 C   0  0  0  0  0  0  0  0  0  0  0  0
  -28.7245  -21.7169   22.2784 C   0  0  0  0  0  0  0  0  0  0  0  0
  -24.2694   -9.8010   21.3379 C   0  0  1  0  0  0  0  0  0  0  0  0
  -25.5405  -13.3187   21.9928 C   0  0  1  0  0  0  0  0  0  0  0  0
  -28.7612  -30.8230   20.0509 C   0  0  2  0  0  0  0  0  0  0  0  0
  -29.4179  -18.9429   23.0456 C   0  0  0  0  0  0  0  0  0  1  0  0
  -27.6623  -24.7291   22.8441 C   0  0  0  0  0  0  0  0  0  0  0  0
  -29.4001  -21.8095   19.0745 C   0  0  0  0  0  0  0  0  0  0  0  0
  -23.3107  -19.2878   17.3106 C   0  0  0  0  0  0  0  0  0  0  0  0
  -27.3056  -14.0539   18.0298 C   0  0  0  0  0  0  0  0  0  0  0  0
  -26.6506  -16.0898   16.7282 C   0  0  0  0  0  0  0  0  0  0  0  0
  -25.0300  -14.2137   17.0048 C   0  0  0  0  0  0  0  0  0  0  0  0
  -22.6996  -19.2092   21.0652 C   0  0  0  0  0  0  0  0  0  0  0  0
  -30.1628  -25.0047   17.7893 C   0  0  0  0  0  0  0  0  0  0  0  0
  -28.7246  -24.6226   18.1641 C   0  0  0  0  0  0  0  0  0  0  0  0
  -30.8133  -26.0218   18.7246 C   0  0  0  0  0  0  0  0  0  0  0  0
  -25.5575  -15.6977   18.9826 C   0  0  1  0  0  0  0  0  0  0  0  0
  -23.1894  -18.6425   18.6824 C   0  0  2  0  0  0  0  0  0  0  0  0
  -26.1429  -15.0158   17.7138 C   0  0  0  0  0  0  0  0  0  0  0  0
  -26.4207  -30.7072   20.8197 N   0  0  0  0  0  0  0  0  0  0  0  0
  -28.1179  -24.9448   20.4698 N   0  0  0  0  0  0  0  0  0  0  0  0
  -28.5842  -24.1245   19.5128 N   0  0  0  0  0  0  0  0  0  0  0  0
  -27.6931  -31.0285   21.1091 N   0  0  0  0  0  0  0  0  0  0  0  0
  -25.9948  -14.2464   20.9431 N   0  0  0  0  0  0  0  0  0  0  0  0
  -29.5125  -29.4598   18.1363 N   0  0  0  0  0  0  0  0  0  0  0  0
  -29.0803  -31.8896   22.8252 N   0  0  0  0  0  0  0  0  0  0  0  0
  -24.9756  -31.8826   24.7087 N   0  0  0  0  0  0  0  0  0  0  0  0
  -24.4968  -11.1431   21.8294 N   0  0  0  0  0  0  0  0  0  0  0  0
  -24.4372  -16.5936   18.7164 N   0  0  0  0  0  0  0  0  0  0  0  0
  -30.0687  -27.2590   18.8000 N   0  0  0  0  0  0  0  0  0  0  0  0
  -22.8697  -19.7065   19.6756 N   0  3  0  0  0  0  0  0  0  0  0  0
  -27.1824  -32.4008   25.0553 O   0  0  0  0  0  0  0  0  0  0  0  0
  -26.2876  -11.6990   20.4486 O   0  0  0  0  0  0  0  0  0  0  0  0
  -23.8915  -14.3196   19.9523 O   0  0  0  0  0  0  0  0  0  0  0  0
  -25.4071  -18.4918   19.6291 O   0  0  0  0  0  0  0  0  0  0  0  0
  -31.1792  -28.2583   17.0609 O   0  0  0  0  0  0  0  0  0  0  0  0
  -20.2461  -30.2021   22.2932 O   0  0  0  0  0  0  0  0  0  0  0  0
  -29.4899  -17.9436   24.0568 O   0  0  0  0  0  0  0  0  0  1  0  0
  -18.4404  -25.0225   22.8555 F   0  0  0  0  0  0  0  0  0  0  0  0
  -18.7622  -29.4491   24.5009 F   0  0  0  0  0  0  0  0  0  0  0  0
  1  2  1  0  0  0  0
  1  5  2  0  0  0  0
  2  6  2  0  0  0  0
  3  8  2  0  0  0  0
  3 15  1  0  0  0  0
  4  9  1  0  0  0  0
  4 15  2  0  0  0  0
  5 17  1  0  0  0  0
  6 19  1  0  0  0  0
  7 10  2  0  0  0  0
  7 18  1  0  0  0  0
  8 22  1  0  0  0  0
  9 22  2  0  0  0  0
 10 23  1  0  0  0  0
 11 12  2  0  0  0  0
 11 24  1  0  0  0  0
 12 25  1  0  0  0  0
 13 20  1  0  0  0  0
 13 23  2  0  0  0  0
 14 25  2  0  0  0  0
 14 26  1  0  0  0  0
 15 27  1  0  0  0  0
 16 27  1  0  0  0  0
 16 30  2  0  0  0  0
 16 31  1  0  0  0  0
 17 19  2  0  0  0  0
 17 36  1  0  0  0  0
 18 20  2  0  0  0  0
 18 37  1  0  0  0  0
 19 50  1  0  0  0  0
 20 38  1  0  0  0  0
 21 28  1  0  0  0  0
 21 29  2  0  0  0  0
 21 49  1  0  0  0  0
 22 84  1  0  0  0  0
 23 85  1  0  0  0  0
 24 26  2  0  0  0  0
 24 84  1  0  0  0  0
 25 86  1  0  0  0  0
 26 87  1  0  0  0  0
 27 67  2  0  0  0  0
 28 54  1  0  0  0  0
 28 68  2  0  0  0  0
 29 55  1  0  0  0  0
 29 69  1  0  0  0  0
 30 70  1  0  0  0  0
 30 73  1  0  0  0  0
 31 74  1  0  0  0  0
 31 79  2  0  0  0  0
 32 51  1  0  0  0  0
 32 75  1  0  0  0  0
 32 80  2  0  0  0  0
 33 64  1  0  0  0  0
 33 71  1  0  0  0  0
 33 81  2  0  0  0  0
 34 65  1  0  0  0  0
 34 76  1  0  0  0  0
 34 82  2  0  0  0  0
 35 72  1  0  0  0  0
 35 77  1  0  0  0  0
 35 83  2  0  0  0  0
 36 39  1  0  0  0  0
 37 51  1  0  0  0  0
 38 71  1  0  0  0  0
 39 43  1  0  0  0  0
 40 44  1  0  0  0  0
 40 47  1  0  0  0  0
 41 45  1  0  0  0  0
 41 49  1  0  0  0  0
 42 46  1  0  0  0  0
 42 49  1  0  0  0  0
 43 50  1  0  0  0  0
 44 52  1  0  0  0  0
 45 53  1  0  0  0  0
 46 53  1  0  0  0  0
 47 72  1  0  0  0  0
 48 52  1  0  0  0  0
 48 72  1  0  0  0  0
 50 75  1  0  0  0  0
 51 71  1  0  0  0  0
 52 70  1  0  0  0  0
 53 85  1  0  0  0  0
 56 65  1  0  0  0  0
 57 66  1  0  0  0  0
 58 66  1  0  0  0  0
 59 66  1  0  0  0  0
 60 78  1  0  0  0  0
 61 62  1  0  0  0  0
 61 63  1  0  0  0  0
 62 69  1  0  0  0  0
 63 77  1  0  0  0  0
 64 66  1  0  0  0  0
 64 76  1  0  0  0  0
 65 78  1  0  0  0  0
 67 70  1  0  0  0  0
 68 69  1  0  0  0  0
M  CHG  1  78   1
M  ISO  4  35 100  53 101  77 100  85 101
M  END
> <Batch ID>
0034

> <Smiles>
CNC(C)C(=O)NC(C(=O)N1Cc2cc([101O:1][101CH:1]3CCC(c4c(C)nn(CCC[100NH:0][100C:0](=O)N5CCCC(n6nc(-c7ccc(Oc8ccc(F)cc8F)cc7)c(C(N)=O)c6N)C5)c4C)CC3)ccc2CC1C(=O)NC1CCCc2ccccc21)C(C)(C)C

> <Shape>
0.267

> <Color>
0.054

> <Negative vol penalty>
0.000

$$$$

  -OEChem-04052316503D

 86 94  0     1  0  0  0  0  0999 V2000
  -24.0530  -23.7888   20.9505 C   0  0  0  0  0  0  0  0  0  0  0  0
  -24.5841  -22.5064   21.0432 C   0  0  0  0  0  0  0  0  0  0  0  0
  -22.4285  -28.1270   19.6172 C   0  0  0  0  0  0  0  0  0  0  0  0
  -22.8304  -28.1797   21.9990 C   0  0  0  0  0  0  0  0  0  0  0  0
  -22.9660  -24.1510   21.7449 C   0  0  0  0  0  0  0  0  0  0  0  0
  -24.0292  -21.5856   21.9313 C   0  0  0  0  0  0  0  0  0  0  0  0
  -23.4203  -17.0073   19.8545 C   0  0  0  0  0  0  0  0  0  0  0  0
  -21.0646  -27.9522   19.8512 C   0  0  0  0  0  0  0  0  0  0  0  0
  -21.4664  -28.0050   22.2330 C   0  0  0  0  0  0  0  0  0  0  0  0
  -24.5539  -16.2037   19.7411 C   0  0  0  0  0  0  0  0  0  0  0  0
  -18.6732  -29.9071   22.2100 C   0  0  0  0  0  0  0  0  0  0  0  0
  -18.0750  -30.7126   23.1789 C   0  0  0  0  0  0  0  0  0  0  0  0
  -23.8836  -14.9899   21.7151 C   0  0  0  0  0  0  0  0  0  0  0  0
  -17.4457  -28.7427   24.4281 C   0  0  0  0  0  0  0  0  0  0  0  0
  -29.8064  -12.6278   20.0809 C   0  0  0  0  0  0  0  0  0  0  0  0
  -28.0627  -12.6073   18.6760 C   0  0  0  0  0  0  0  0  0  0  0  0
  -23.3114  -28.2407   20.6911 C   0  0  0  0  0  0  0  0  0  0  0  0
  -25.4096  -29.6399   20.3071 C   0  0  0  0  0  0  0  0  0  0  0  0
  -22.3913  -23.2312   22.6362 C   0  0  0  0  0  0  0  0  0  0  0  0
  -22.5139  -16.8150   20.9072 C   0  0  0  0  0  0  0  0  0  0  0  0
  -22.9343  -21.9363   22.7394 C   0  0  0  0  0  0  0  0  0  0  0  0
  -22.7379  -15.7907   21.8382 C   0  0  0  0  0  0  0  0  0  0  0  0
  -29.0099  -13.7058   20.3983 C   0  0  0  0  0  0  0  0  0  0  0  0
  -27.9068  -13.6929   19.5094 C   0  0  0  0  0  0  0  0  0  0  0  0
  -20.5835  -27.8912   21.1590 C   0  0  0  0  0  0  0  0  0  0  0  0
  -24.7873  -15.1967   20.6731 C   0  0  0  0  0  0  0  0  0  0  0  0
  -18.6576  -28.5193   22.3501 C   0  0  0  0  0  0  0  0  0  0  0  0
  -17.4613  -30.1305   24.2880 C   0  0  0  0  0  0  0  0  0  0  0  0
  -18.0439  -27.9372   23.4592 C   0  0  0  0  0  0  0  0  0  0  0  0
  -24.7206  -28.4206   20.4501 C   0  0  0  0  0  0  0  0  0  0  0  0
  -26.7162  -29.2731   20.0956 C   0  0  0  0  0  0  0  0  0  0  0  0
  -24.9131  -30.9838   20.3607 C   0  0  0  0  0  0  0  0  0  0  0  0
  -21.4928  -18.5875   23.3400 C   0  0  0  0  0  0  0  0  0  0  0  0
  -19.4683  -16.0949   23.7991 C   0  0  0  0  0  0  0  0  0  0  0  0
  -18.8073  -12.7778   23.3449 C   0  0  0  0  0  0  0  0  0  0  0  0
  -29.7515  -24.4562   21.6579 C   0  0  0  0  0  0  0  0  0  0  0  0
  -21.2472  -23.6835   23.5086 C   0  0  0  0  0  0  0  0  0  0  0  0
  -21.2819  -17.6729   21.0002 C   0  0  0  0  0  0  0  0  0  0  0  0
  -21.7851  -15.5301   22.9751 C   0  0  0  0  0  0  0  0  0  0  0  0
  -20.4805  -22.5316   24.1533 C   0  0  0  0  0  0  0  0  0  0  0  0
  -29.3621  -25.7178   18.2883 C   0  0  0  0  0  0  0  0  0  0  0  0
  -21.4477  -21.5167   24.7543 C   0  0  0  0  0  0  0  0  0  0  0  0
  -28.1823  -26.6767   18.4570 C   0  0  0  0  0  0  0  0  0  0  0  0
  -29.1900  -24.4721   19.1525 C   0  0  0  0  0  0  0  0  0  0  0  0
  -27.8052  -25.7095   20.7726 C   0  0  0  0  0  0  0  0  0  0  0  0
  -22.3443  -20.9016   23.6729 C   0  0  1  0  0  0  0  0  0  0  0  0
  -20.6934  -17.7228   22.4068 C   0  0  1  0  0  0  0  0  0  0  0  0
  -27.9304  -26.9995   19.9418 C   0  0  2  0  0  0  0  0  0  0  0  0
  -17.0918  -11.0217   23.8652 C   0  0  0  0  0  0  0  0  0  0  0  0
  -20.4656  -15.9778   26.6804 C   0  0  0  0  0  0  0  0  0  0  0  0
  -19.4690  -13.6880   26.8587 C   0  0  0  0  0  0  0  0  0  0  0  0
  -17.9998  -15.6547   26.4160 C   0  0  0  0  0  0  0  0  0  0  0  0
  -29.7430  -10.7766   18.4019 C   0  0  0  0  0  0  0  0  0  0  0  0
  -18.2943  -12.2637   20.4758 C   0  0  0  0  0  0  0  0  0  0  0  0
  -29.2678  -14.6867   21.4711 C   0  0  0  0  0  0  0  0  0  0  0  0
  -26.7725  -14.6744   19.4722 C   0  0  0  0  0  0  0  0  0  1  0  0
  -31.1656  -20.7204   21.9320 C   0  0  0  0  0  0  0  0  0  0  0  0
  -30.6645  -19.3875   22.4967 C   0  0  0  0  0  0  0  0  0  0  0  0
  -31.2768  -21.8241   22.9890 C   0  0  0  0  0  0  0  0  0  0  0  0
  -30.4820  -18.3054   21.4306 C   0  0  0  0  0  0  0  0  0  0  0  0
  -31.7311  -23.1551   22.3965 C   0  0  0  0  0  0  0  0  0  0  0  0
  -29.9589  -17.0164   22.0490 C   0  0  0  0  0  0  0  0  0  0  0  0
  -19.5202  -14.8058   24.5830 C   0  0  1  0  0  0  0  0  0  0  0  0
  -17.5646  -12.0561   22.8556 C   0  0  2  0  0  0  0  0  0  0  0  0
  -19.3828  -15.0375   26.1143 C   0  0  0  0  0  0  0  0  0  0  0  0
  -25.5230  -27.3587   20.3388 N   0  0  0  0  0  0  0  0  0  0  0  0
  -29.2207  -11.9671   19.0328 N   0  0  0  0  0  0  0  0  0  0  0  0
  -26.7298  -27.9095   20.1234 N   0  0  0  0  0  0  0  0  0  0  0  0
  -20.5982  -16.3997   23.0269 N   0  0  0  0  0  0  0  0  0  0  0  0
  -28.9726  -24.8482   20.5566 N   0  0  0  0  0  0  0  0  0  0  0  0
  -27.8434  -29.9871   19.8904 N   0  0  0  0  0  0  0  0  0  0  0  0
  -23.5441  -31.1818   20.5865 N   0  0  0  0  0  0  0  0  0  0  0  0
  -21.6174  -19.8993   22.9237 N   0  0  0  0  0  0  0  0  0  0  0  0
  -18.4919  -13.9409   24.0149 N   0  0  0  0  0  0  0  0  0  0  0  0
  -30.8345  -23.6352   21.3685 N   0  0  0  0  0  0  0  0  0  0  0  0
  -17.8426  -11.3618   21.5665 N   0  3  0  0  0  0  0  0  0  0  0  0
  -29.7535  -16.0115   20.9769 N   0  3  0  0  0  0  0  0  0  0  0  0
  -25.6584  -31.9793   20.1964 O   0  0  0  0  0  0  0  0  0  0  0  0
  -21.9605  -18.1011   24.3629 O   0  0  0  0  0  0  0  0  0  0  0  0
  -18.4594  -16.8018   23.8638 O   0  0  0  0  0  0  0  0  0  0  0  0
  -19.9439  -12.3504   23.1552 O   0  0  0  0  0  0  0  0  0  0  0  0
  -29.5034  -24.8159   22.8139 O   0  0  0  0  0  0  0  0  0  0  0  0
  -19.2526  -27.7210   21.3877 O   0  0  0  0  0  0  0  0  0  0  0  0
  -25.8933  -14.4113   20.5651 O   0  0  0  0  0  0  0  0  0  1  0  0
  -16.8882  -30.9042   25.2192 F   0  0  0  0  0  0  0  0  0  0  0  0
  -18.0268  -26.6046   23.5998 F   0  0  0  0  0  0  0  0  0  0  0  0
  1  2  1  0  0  0  0
  1  5  2  0  0  0  0
  2  6  2  0  0  0  0
  3  8  2  0  0  0  0
  3 17  1  0  0  0  0
  4  9  1  0  0  0  0
  4 17  2  0  0  0  0
  5 19  1  0  0  0  0
  6 21  1  0  0  0  0
  7 10  2  0  0  0  0
  7 20  1  0  0  0  0
  8 25  1  0  0  0  0
  9 25  2  0  0  0  0
 10 26  1  0  0  0  0
 11 12  2  0  0  0  0
 11 27  1  0  0  0  0
 12 28  1  0  0  0  0
 13 22  1  0  0  0  0
 13 26  2  0  0  0  0
 14 28  2  0  0  0  0
 14 29  1  0  0  0  0
 15 23  2  0  0  0  0
 15 67  1  0  0  0  0
 16 24  2  0  0  0  0
 16 67  1  0  0  0  0
 17 30  1  0  0  0  0
 18 30  1  0  0  0  0
 18 31  2  0  0  0  0
 18 32  1  0  0  0  0
 19 21  2  0  0  0  0
 19 37  1  0  0  0  0
 20 22  2  0  0  0  0
 20 38  1  0  0  0  0
 21 46  1  0  0  0  0
 22 39  1  0  0  0  0
 23 24  1  0  0  0  0
 23 55  1  0  0  0  0
 24 56  1  0  0  0  0
 25 83  1  0  0  0  0
 26 84  1  0  0  0  0
 27 29  2  0  0  0  0
 27 83  1  0  0  0  0
 28 85  1  0  0  0  0
 29 86  1  0  0  0  0
 30 66  2  0  0  0  0
 31 68  1  0  0  0  0
 31 71  1  0  0  0  0
 32 72  1  0  0  0  0
 32 78  2  0  0  0  0
 33 47  1  0  0  0  0
 33 73  1  0  0  0  0
 33 79  2  0  0  0  0
 34 63  1  0  0  0  0
 34 69  1  0  0  0  0
 34 80  2  0  0  0  0
 35 64  1  0  0  0  0
 35 74  1  0  0  0  0
 35 81  2  0  0  0  0
 36 70  1  0  0  0  0
 36 75  1  0  0  0  0
 36 82  2  0  0  0  0
 37 40  1  0  0  0  0
 38 47  1  0  0  0  0
 39 69  1  0  0  0  0
 40 42  1  0  0  0  0
 41 43  1  0  0  0  0
 41 44  1  0  0  0  0
 42 46  1  0  0  0  0
 43 48  1  0  0  0  0
 44 70  1  0  0  0  0
 45 48  1  0  0  0  0
 45 70  1  0  0  0  0
 46 73  1  0  0  0  0
 47 69  1  0  0  0  0
 48 68  1  0  0  0  0
 49 64  1  0  0  0  0
 50 65  1  0  0  0  0
 51 65  1  0  0  0  0
 52 65  1  0  0  0  0
 53 67  1  0  0  0  0
 54 76  1  0  0  0  0
 55 77  1  0  0  0  0
 56 84  1  0  0  0  0
 57 58  1  0  0  0  0
 57 59  1  0  0  0  0
 58 60  1  0  0  0  0
 59 61  1  0  0  0  0
 60 62  1  0  0  0  0
 61 75  1  0  0  0  0
 62 77  1  0  0  0  0
 63 65  1  0  0  0  0
 63 74  1  0  0  0  0
 64 76  1  0  0  0  0
 66 68  1  0  0  0  0
M  CHG  2  76   1  77   1
M  ISO  4  36 100  56 101  75 100  84 101
M  END
> <Batch ID>
0034

> <Smiles>
CNC(C)C(=O)NC(C(=O)N1Cc2cc([101O:1][101CH2:1]c3cn(C)cc3CNCCCCCC[100NH:0][100C:0](=O)N3CCCC(n4nc(-c5ccc(Oc6ccc(F)cc6F)cc5)c(C(N)=O)c4N)C3)ccc2CC1C(=O)NC1CCCc2ccccc21)C(C)(C)C

> <Shape>
0.210

> <Color>
0.059

> <Negative vol penalty>
0.000

$$$$

  -OEChem-04052316503D

 81 89  0     1  0  0  0  0  0999 V2000
  -17.5462  -25.9742   21.7887 C   0  0  0  0  0  0  0  0  0  0  0  0
  -18.8362  -25.4532   21.7855 C   0  0  0  0  0  0  0  0  0  0  0  0
  -23.4882   -9.5890   20.2662 C   0  0  0  0  0  0  0  0  0  0  0  0
  -23.8848  -10.1391   22.5851 C   0  0  0  0  0  0  0  0  0  0  0  0
  -17.3423  -27.3259   22.0627 C   0  0  0  0  0  0  0  0  0  0  0  0
  -19.9231  -26.2840   22.0552 C   0  0  0  0  0  0  0  0  0  0  0  0
  -23.2317  -24.1766   25.2578 C   0  0  0  0  0  0  0  0  0  0  0  0
  -22.8568   -8.4074   20.6545 C   0  0  0  0  0  0  0  0  0  0  0  0
  -23.2534   -8.9575   22.9734 C   0  0  0  0  0  0  0  0  0  0  0  0
  -24.1016  -23.2199   24.7364 C   0  0  0  0  0  0  0  0  0  0  0  0
  -20.0886   -7.8240   23.3193 C   0  0  0  0  0  0  0  0  0  0  0  0
  -19.1727   -7.8951   24.3689 C   0  0  0  0  0  0  0  0  0  0  0  0
  -25.8453  -24.8822   24.6114 C   0  0  0  0  0  0  0  0  0  0  0  0
  -28.2452  -19.6998   21.3690 C   0  0  0  0  0  0  0  0  0  0  0  0
  -27.4562  -19.5296   24.0394 C   0  0  0  0  0  0  0  0  0  0  0  0
  -20.5084   -6.3340   25.6401 C   0  0  0  0  0  0  0  0  0  0  0  0
  -24.0023  -10.4549   21.2315 C   0  0  0  0  0  0  0  0  0  0  0  0
  -24.0570  -12.9345   20.6349 C   0  0  0  0  0  0  0  0  0  0  0  0
  -18.4264  -28.1717   22.3454 C   0  0  0  0  0  0  0  0  0  0  0  0
  -23.6596  -25.4981   25.4500 C   0  0  0  0  0  0  0  0  0  0  0  0
  -19.7336  -27.6487   22.3319 C   0  0  0  0  0  0  0  0  0  0  0  0
  -24.9797  -25.8531   25.1378 C   0  0  0  0  0  0  0  0  0  0  0  0
  -27.2303  -20.5267   21.8504 C   0  0  0  0  0  0  0  0  0  0  0  0
  -28.4711  -18.7027   23.5580 C   0  0  0  0  0  0  0  0  0  0  0  0
  -28.8656  -18.7878   22.2228 C   0  0  0  0  0  0  0  0  0  0  0  0
  -26.8357  -20.4416   23.1856 C   0  0  0  0  0  0  0  0  0  0  0  0
  -22.7393   -8.0917   22.0081 C   0  0  0  0  0  0  0  0  0  0  0  0
  -25.4077  -23.5733   24.4104 C   0  0  0  0  0  0  0  0  0  0  0  0
  -21.2143   -7.0078   23.4300 C   0  0  0  0  0  0  0  0  0  0  0  0
  -19.3826   -7.1501   25.5293 C   0  0  0  0  0  0  0  0  0  0  0  0
  -21.4243   -6.2628   24.5904 C   0  0  0  0  0  0  0  0  0  0  0  0
  -24.6551  -11.6753   20.8311 C   0  0  0  0  0  0  0  0  0  0  0  0
  -25.0952  -13.7537   20.2638 C   0  0  0  0  0  0  0  0  0  0  0  0
  -22.6856  -13.3285   20.7755 C   0  0  0  0  0  0  0  0  0  0  0  0
  -22.7917  -28.3279   24.2913 C   0  0  0  0  0  0  0  0  0  0  0  0
  -24.9229  -29.4377   26.4705 C   0  0  0  0  0  0  0  0  0  0  0  0
  -27.6794  -28.8400   28.3918 C   0  0  0  0  0  0  0  0  0  0  0  0
  -30.3271  -15.5811   20.9218 C   0  0  0  0  0  0  0  0  0  0  0  0
  -18.1604  -29.6361   22.5891 C   0  0  0  0  0  0  0  0  0  0  0  0
  -22.7170  -26.5119   26.0384 C   0  0  0  0  0  0  0  0  0  0  0  0
  -25.4942  -27.2535   25.3443 C   0  0  0  0  0  0  0  0  0  0  0  0
  -19.3340  -30.3693   23.2336 C   0  0  0  0  0  0  0  0  0  0  0  0
  -29.8555  -12.6492   18.9575 C   0  0  0  0  0  0  0  0  0  0  0  0
  -20.6386  -30.0126   22.5283 C   0  0  0  0  0  0  0  0  0  0  0  0
  -28.4139  -12.2353   19.2585 C   0  0  0  0  0  0  0  0  0  0  0  0
  -30.5470  -13.2241   20.1918 C   0  0  0  0  0  0  0  0  0  0  0  0
  -28.3837  -13.9171   21.1477 C   0  0  0  0  0  0  0  0  0  0  0  0
  -20.9361  -28.5127   22.6441 C   0  0  1  0  0  0  0  0  0  0  0  0
  -23.1062  -27.9502   25.7112 C   0  0  1  0  0  0  0  0  0  0  0  0
  -27.6272  -13.3832   19.9193 C   0  0  2  0  0  0  0  0  0  0  0  0
  -26.5810  -21.4959   20.9178 C   0  0  0  0  0  0  0  0  0  0  0  0
  -29.1203  -17.7334   24.4906 C   0  0  0  0  0  0  0  0  0  0  0  0
  -29.2091  -29.9511   30.0417 C   0  0  0  0  0  0  0  0  0  0  0  0
  -26.2669  -30.9618   24.1943 C   0  0  0  0  0  0  0  0  0  0  0  0
  -28.2691  -31.2579   25.6679 C   0  0  0  0  0  0  0  0  0  0  0  0
  -26.0753  -32.2398   26.3354 C   0  0  0  0  0  0  0  0  0  0  0  0
  -26.9928  -26.8949   30.5141 C   0  0  0  0  0  0  0  0  0  0  0  0
  -29.9494  -17.9122   21.6848 C   0  0  0  0  0  0  0  0  0  0  0  0
  -25.7468  -21.3211   23.7260 C   0  0  0  0  0  0  0  0  0  1  0  0
  -26.4027  -29.7361   26.4627 C   0  0  1  0  0  0  0  0  0  0  0  0
  -27.9599  -29.1030   29.8603 C   0  0  2  0  0  0  0  0  0  0  0  0
  -26.7435  -31.0229   25.6592 C   0  0  0  0  0  0  0  0  0  0  0  0
  -25.9712  -11.6885   20.6034 N   0  0  0  0  0  0  0  0  0  0  0  0
  -26.2086  -12.9659   20.2602 N   0  0  0  0  0  0  0  0  0  0  0  0
  -24.5326  -28.2104   25.9163 N   0  0  0  0  0  0  0  0  0  0  0  0
  -29.7504  -14.3094   20.7695 N   0  0  0  0  0  0  0  0  0  0  0  0
  -25.1551  -15.0637   19.9436 N   0  0  0  0  0  0  0  0  0  0  0  0
  -21.7491  -12.3611   21.1644 N   0  0  0  0  0  0  0  0  0  0  0  0
  -21.4568  -28.2006   23.9578 N   0  0  0  0  0  0  0  0  0  0  0  0
  -26.8183  -29.7768   27.8605 N   0  0  0  0  0  0  0  0  0  0  0  0
  -29.5014  -16.5541   21.4715 N   0  0  0  0  0  0  0  0  0  0  0  0
  -28.1547  -27.8176   30.5888 N   0  3  0  0  0  0  0  0  0  0  0  0
  -22.2994  -14.4998   20.5467 O   0  0  0  0  0  0  0  0  0  0  0  0
  -23.6931  -28.7081   23.5534 O   0  0  0  0  0  0  0  0  0  0  0  0
  -24.1427  -30.2601   26.9570 O   0  0  0  0  0  0  0  0  0  0  0  0
  -28.1774  -27.8998   27.7765 O   0  0  0  0  0  0  0  0  0  0  0  0
  -31.4899  -15.8322   20.5875 O   0  0  0  0  0  0  0  0  0  0  0  0
  -22.1231   -6.9389   22.3873 O   0  0  0  0  0  0  0  0  0  0  0  0
  -26.2586  -22.6416   23.9007 O   0  0  0  0  0  0  0  0  0  1  0  0
  -18.5039   -7.2197   26.5378 F   0  0  0  0  0  0  0  0  0  0  0  0
  -22.5045   -5.4779   24.7031 F   0  0  0  0  0  0  0  0  0  0  0  0
  1  2  1  0  0  0  0
  1  5  2  0  0  0  0
  2  6  2  0  0  0  0
  3  8  2  0  0  0  0
  3 17  1  0  0  0  0
  4  9  1  0  0  0  0
  4 17  2  0  0  0  0
  5 19  1  0  0  0  0
  6 21  1  0  0  0  0
  7 10  2  0  0  0  0
  7 20  1  0  0  0  0
  8 27  1  0  0  0  0
  9 27  2  0  0  0  0
 10 28  1  0  0  0  0
 11 12  2  0  0  0  0
 11 29  1  0  0  0  0
 12 30  1  0  0  0  0
 13 22  1  0  0  0  0
 13 28  2  0  0  0  0
 14 23  1  0  0  0  0
 14 25  2  0  0  0  0
 15 24  2  0  0  0  0
 15 26  1  0  0  0  0
 16 30  2  0  0  0  0
 16 31  1  0  0  0  0
 17 32  1  0  0  0  0
 18 32  1  0  0  0  0
 18 33  2  0  0  0  0
 18 34  1  0  0  0  0
 19 21  2  0  0  0  0
 19 39  1  0  0  0  0
 20 22  2  0  0  0  0
 20 40  1  0  0  0  0
 21 48  1  0  0  0  0
 22 41  1  0  0  0  0
 23 26  2  0  0  0  0
 23 51  1  0  0  0  0
 24 25  1  0  0  0  0
 24 52  1  0  0  0  0
 25 58  1  0  0  0  0
 26 59  1  0  0  0  0
 27 78  1  0  0  0  0
 28 79  1  0  0  0  0
 29 31  2  0  0  0  0
 29 78  1  0  0  0  0
 30 80  1  0  0  0  0
 31 81  1  0  0  0  0
 32 63  2  0  0  0  0
 33 64  1  0  0  0  0
 33 67  1  0  0  0  0
 34 68  1  0  0  0  0
 34 73  2  0  0  0  0
 35 49  1  0  0  0  0
 35 69  1  0  0  0  0
 35 74  2  0  0  0  0
 36 60  1  0  0  0  0
 36 65  1  0  0  0  0
 36 75  2  0  0  0  0
 37 61  1  0  0  0  0
 37 70  1  0  0  0  0
 37 76  2  0  0  0  0
 38 66  1  0  0  0  0
 38 71  1  0  0  0  0
 38 77  2  0  0  0  0
 39 42  1  0  0  0  0
 40 49  1  0  0  0  0
 41 65  1  0  0  0  0
 42 44  1  0  0  0  0
 43 45  1  0  0  0  0
 43 46  1  0  0  0  0
 44 48  1  0  0  0  0
 45 50  1  0  0  0  0
 46 66  1  0  0  0  0
 47 50  1  0  0  0  0
 47 66  1  0  0  0  0
 48 69  1  0  0  0  0
 49 65  1  0  0  0  0
 50 64  1  0  0  0  0
 53 61  1  0  0  0  0
 54 62  1  0  0  0  0
 55 62  1  0  0  0  0
 56 62  1  0  0  0  0
 57 72  1  0  0  0  0
 58 71  1  0  0  0  0
 59 79  1  0  0  0  0
 60 62  1  0  0  0  0
 60 70  1  0  0  0  0
 61 72  1  0  0  0  0
 63 64  1  0  0  0  0
M  CHG  1  72   1
M  ISO  4  38 100  59 101  71 100  79 101
M  END
> <Batch ID>
0034

> <Smiles>
CNC(C)C(=O)NC(C(=O)N1Cc2cc([101O:1][101CH2:1]c3cc(C)c(C[100NH:0][100C:0](=O)N4CCCC(n5nc(-c6ccc(Oc7ccc(F)cc7F)cc6)c(C(N)=O)c5N)C4)cc3C)ccc2CC1C(=O)NC1CCCc2ccccc21)C(C)(C)C

> <Shape>
0.282

> <Color>
0.199

> <Negative vol penalty>
0.000

$$$$

  -OEChem-04052316503D

 87 95  0     1  0  0  0  0  0999 V2000
  -22.0378   -9.7622   30.0957 C   0  0  0  0  0  0  0  0  0  0  0  0
  -22.6709  -10.9999   30.0418 C   0  0  0  0  0  0  0  0  0  0  0  0
  -23.0013   -9.8938   19.9813 C   0  0  0  0  0  0  0  0  0  0  0  0
  -23.7315   -9.9435   22.2838 C   0  0  0  0  0  0  0  0  0  0  0  0
  -21.1801   -9.3739   29.0674 C   0  0  0  0  0  0  0  0  0  0  0  0
  -22.4473  -11.8495   28.9589 C   0  0  0  0  0  0  0  0  0  0  0  0
  -22.2127  -17.9682   29.0675 C   0  0  0  0  0  0  0  0  0  0  0  0
  -22.2367   -8.7582   20.2482 C   0  0  0  0  0  0  0  0  0  0  0  0
  -22.9669   -8.8078   22.5508 C   0  0  0  0  0  0  0  0  0  0  0  0
  -23.1543  -18.9487   28.7577 C   0  0  0  0  0  0  0  0  0  0  0  0
  -23.2142   -5.4696   22.0751 C   0  0  0  0  0  0  0  0  0  0  0  0
  -23.8046   -4.4525   22.8250 C   0  0  0  0  0  0  0  0  0  0  0  0
  -22.2232  -19.1336   26.5400 C   0  0  0  0  0  0  0  0  0  0  0  0
  -26.0045  -17.8439   25.8374 C   0  0  0  0  0  0  0  0  0  0  0  0
  -28.3151  -18.5294   25.6706 C   0  0  0  0  0  0  0  0  0  0  0  0
  -22.0841   -4.6917   24.5042 C   0  0  0  0  0  0  0  0  0  0  0  0
  -23.7487  -10.4865   20.9991 C   0  0  0  0  0  0  0  0  0  0  0  0
  -24.1306  -13.0027   20.8246 C   0  0  0  0  0  0  0  0  0  0  0  0
  -20.9384  -10.2232   27.9761 C   0  0  0  0  0  0  0  0  0  0  0  0
  -21.2746  -17.5547   28.1107 C   0  0  0  0  0  0  0  0  0  0  0  0
  -21.5865  -11.4716   27.9144 C   0  0  0  0  0  0  0  0  0  0  0  0
  -21.2691  -18.1496   26.8410 C   0  0  0  0  0  0  0  0  0  0  0  0
  -26.9585  -18.8524   25.7027 C   0  0  0  0  0  0  0  0  0  0  0  0
  -26.4070  -16.5122   25.9401 C   0  0  0  0  0  0  0  0  0  0  0  0
  -28.7176  -17.1978   25.7732 C   0  0  0  0  0  0  0  0  0  0  0  0
  -22.2195   -8.2152   21.5330 C   0  0  0  0  0  0  0  0  0  0  0  0
  -23.1615  -19.5294   27.4929 C   0  0  0  0  0  0  0  0  0  0  0  0
  -22.0588   -6.0980   22.5399 C   0  0  0  0  0  0  0  0  0  0  0  0
  -23.2396   -4.0635   24.0395 C   0  0  0  0  0  0  0  0  0  0  0  0
  -21.4937   -5.7090   23.7544 C   0  0  0  0  0  0  0  0  0  0  0  0
  -27.7635  -16.1892   25.9079 C   0  0  0  0  0  0  0  0  0  0  0  0
  -24.5392  -11.6593   20.7238 C   0  0  0  0  0  0  0  0  0  0  0  0
  -25.2387  -13.7270   20.4584 C   0  0  0  0  0  0  0  0  0  0  0  0
  -22.8629  -13.5472   21.2144 C   0  0  0  0  0  0  0  0  0  0  0  0
  -20.6202  -14.8072   26.6523 C   0  0  0  0  0  0  0  0  0  0  0  0
  -18.1140  -16.4863   25.4599 C   0  0  0  0  0  0  0  0  0  0  0  0
  -16.7786  -19.5241   24.6629 C   0  0  0  0  0  0  0  0  0  0  0  0
  -30.7345  -14.6680   20.6958 C   0  0  0  0  0  0  0  0  0  0  0  0
  -20.0398   -9.7401   26.8653 C   0  0  0  0  0  0  0  0  0  0  0  0
  -20.2485  -16.5150   28.4693 C   0  0  0  0  0  0  0  0  0  0  0  0
  -20.2703  -17.7553   25.7849 C   0  0  0  0  0  0  0  0  0  0  0  0
  -19.5652  -10.8553   25.9373 C   0  0  0  0  0  0  0  0  0  0  0  0
  -29.5916  -12.2452   18.3505 C   0  0  0  0  0  0  0  0  0  0  0  0
  -20.7331  -11.7524   25.5399 C   0  0  0  0  0  0  0  0  0  0  0  0
  -28.1443  -11.9833   18.7710 C   0  0  0  0  0  0  0  0  0  0  0  0
  -30.4963  -12.4805   19.5580 C   0  0  0  0  0  0  0  0  0  0  0  0
  -28.5882  -13.2725   20.9017 C   0  0  0  0  0  0  0  0  0  0  0  0
  -21.3502  -12.4314   26.7685 C   0  0  1  0  0  0  0  0  0  0  0  0
  -19.6680  -15.8034   27.2511 C   0  0  1  0  0  0  0  0  0  0  0  0
  -27.6268  -13.0848   19.7156 C   0  0  2  0  0  0  0  0  0  0  0  0
  -25.1041  -14.7112   24.7802 C   0  0  0  0  0  0  0  0  0  0  0  0
  -14.7280  -20.5749   23.6688 C   0  0  0  0  0  0  0  0  0  0  0  0
  -19.0329  -15.6400   22.6761 C   0  0  0  0  0  0  0  0  0  0  0  0
  -17.5773  -17.4409   21.7242 C   0  0  0  0  0  0  0  0  0  0  0  0
  -16.5571  -15.5716   23.0232 C   0  0  0  0  0  0  0  0  0  0  0  0
  -16.2011  -21.0242   27.1479 C   0  0  0  0  0  0  0  0  0  0  0  0
  -26.5235  -20.2918   25.5918 C   0  0  0  0  0  0  0  0  0  0  0  0
  -25.3498  -15.4648   26.0832 C   0  0  0  0  0  0  0  0  0  0  0  0
  -30.1818  -16.8983   25.7342 C   0  0  0  0  0  0  0  0  0  0  0  0
  -26.4089  -21.0064   26.9401 C   0  0  0  0  0  0  0  0  0  0  0  0
  -30.6235  -16.3500   24.3698 C   0  0  0  0  0  0  0  0  0  0  0  0
  -30.3742  -17.3624   23.2479 C   0  0  0  0  0  0  0  0  0  0  0  0
  -30.8172  -16.8459   21.8828 C   0  0  0  0  0  0  0  0  0  0  0  0
  -25.3414  -20.4105   27.8504 C   0  0  0  0  0  0  0  0  0  1  0  0
  -17.8864  -17.3452   24.2394 C   0  0  1  0  0  0  0  0  0  0  0  0
  -15.4179  -20.1329   24.9500 C   0  0  2  0  0  0  0  0  0  0  0  0
  -17.7836  -16.5057   22.9348 C   0  0  0  0  0  0  0  0  0  0  0  0
  -25.8077  -11.5347   20.3247 N   0  0  0  0  0  0  0  0  0  0  0  0
  -26.2058  -12.8091   20.1714 N   0  0  0  0  0  0  0  0  0  0  0  0
  -19.2911  -16.7299   26.1816 N   0  0  0  0  0  0  0  0  0  0  0  0
  -29.9501  -13.5378   20.4123 N   0  0  0  0  0  0  0  0  0  0  0  0
  -25.4703  -15.0531   20.3571 N   0  0  0  0  0  0  0  0  0  0  0  0
  -21.8329  -12.6615   21.5594 N   0  0  0  0  0  0  0  0  0  0  0  0
  -20.5275  -13.5415   27.1990 N   0  0  0  0  0  0  0  0  0  0  0  0
  -16.7062  -18.1542   24.5239 N   0  0  0  0  0  0  0  0  0  0  0  0
  -30.1387  -15.6253   21.5078 N   0  0  0  0  0  0  0  0  0  0  0  0
  -15.5587  -21.3190   25.8412 N   0  3  0  0  0  0  0  0  0  0  0  0
  -22.6447  -14.7822   21.2398 O   0  0  0  0  0  0  0  0  0  0  0  0
  -21.3816  -15.1603   25.7594 O   0  0  0  0  0  0  0  0  0  0  0  0
  -17.2748  -15.6356   25.7657 O   0  0  0  0  0  0  0  0  0  0  0  0
  -17.8027  -20.1970   24.5675 O   0  0  0  0  0  0  0  0  0  0  0  0
  -31.8787  -14.8157   20.2533 O   0  0  0  0  0  0  0  0  0  0  0  0
  -21.4733   -7.1071   21.7939 O   0  0  0  0  0  0  0  0  0  0  0  0
  -24.0799  -20.4861   27.1876 O   0  0  0  0  0  0  0  0  0  1  0  0
  -23.8058   -3.0856   24.7587 F   0  0  0  0  0  0  0  0  0  0  0  0
  -20.3831   -6.3080   24.2054 F   0  0  0  0  0  0  0  0  0  0  0  0
  -28.2632  -14.5360   26.0355 Cl  0  0  0  0  0  0  0  0  0  0  0  0
  1  2  1  0  0  0  0
  1  5  2  0  0  0  0
  2  6  2  0  0  0  0
  3  8  2  0  0  0  0
  3 17  1  0  0  0  0
  4  9  1  0  0  0  0
  4 17  2  0  0  0  0
  5 19  1  0  0  0  0
  6 21  1  0  0  0  0
  7 10  2  0  0  0  0
  7 20  1  0  0  0  0
  8 26  1  0  0  0  0
  9 26  2  0  0  0  0
 10 27  1  0  0  0  0
 11 12  2  0  0  0  0
 11 28  1  0  0  0  0
 12 29  1  0  0  0  0
 13 22  1  0  0  0  0
 13 27  2  0  0  0  0
 14 23  2  0  0  0  0
 14 24  1  0  0  0  0
 15 23  1  0  0  0  0
 15 25  2  0  0  0  0
 16 29  2  0  0  0  0
 16 30  1  0  0  0  0
 17 32  1  0  0  0  0
 18 32  1  0  0  0  0
 18 33  2  0  0  0  0
 18 34  1  0  0  0  0
 19 21  2  0  0  0  0
 19 39  1  0  0  0  0
 20 22  2  0  0  0  0
 20 40  1  0  0  0  0
 21 48  1  0  0  0  0
 22 41  1  0  0  0  0
 23 57  1  0  0  0  0
 24 31  2  0  0  0  0
 24 58  1  0  0  0  0
 25 31  1  0  0  0  0
 25 59  1  0  0  0  0
 26 83  1  0  0  0  0
 27 84  1  0  0  0  0
 28 30  2  0  0  0  0
 28 83  1  0  0  0  0
 29 85  1  0  0  0  0
 30 86  1  0  0  0  0
 31 87  1  0  0  0  0
 32 68  2  0  0  0  0
 33 69  1  0  0  0  0
 33 72  1  0  0  0  0
 34 73  1  0  0  0  0
 34 78  2  0  0  0  0
 35 49  1  0  0  0  0
 35 74  1  0  0  0  0
 35 79  2  0  0  0  0
 36 65  1  0  0  0  0
 36 70  1  0  0  0  0
 36 80  2  0  0  0  0
 37 66  1  0  0  0  0
 37 75  1  0  0  0  0
 37 81  2  0  0  0  0
 38 71  1  0  0  0  0
 38 76  1  0  0  0  0
 38 82  2  0  0  0  0
 39 42  1  0  0  0  0
 40 49  1  0  0  0  0
 41 70  1  0  0  0  0
 42 44  1  0  0  0  0
 43 45  1  0  0  0  0
 43 46  1  0  0  0  0
 44 48  1  0  0  0  0
 45 50  1  0  0  0  0
 46 71  1  0  0  0  0
 47 50  1  0  0  0  0
 47 71  1  0  0  0  0
 48 74  1  0  0  0  0
 49 70  1  0  0  0  0
 50 69  1  0  0  0  0
 51 58  1  0  0  0  0
 52 66  1  0  0  0  0
 53 67  1  0  0  0  0
 54 67  1  0  0  0  0
 55 67  1  0  0  0  0
 56 77  1  0  0  0  0
 57 60  1  0  0  0  0
 59 61  1  0  0  0  0
 60 64  1  0  0  0  0
 61 62  1  0  0  0  0
 62 63  1  0  0  0  0
 63 76  1  0  0  0  0
 64 84  1  0  0  0  0
 65 67  1  0  0  0  0
 65 75  1  0  0  0  0
 66 77  1  0  0  0  0
 68 69  1  0  0  0  0
M  CHG  1  77   1
M  ISO  4  38 100  64 101  76 100  84 101
M  END
> <Batch ID>
0034

> <Smiles>
CCc1cc(CC[101CH2:1][101O:1]c2ccc3c(c2)CN(C(=O)C(NC(=O)C(C)NC)C(C)(C)C)C(C(=O)NC2CCCc4ccccc42)C3)cc(CCCC[100NH:0][100C:0](=O)N2CCCC(n3nc(-c4ccc(Oc5ccc(F)cc5F)cc4)c(C(N)=O)c3N)C2)c1Cl

> <Shape>
0.166

> <Color>
0.202

> <Negative vol penalty>
0.000

$$$$

  -OEChem-04052316503D

 81 89  0     1  0  0  0  0  0999 V2000
  -27.0403  -32.9381   17.5844 C   0  0  0  0  0  0  0  0  0  0  0  0
  -27.5914  -31.7920   18.1486 C   0  0  0  0  0  0  0  0  0  0  0  0
  -23.0130   -9.8861   19.9728 C   0  0  0  0  0  0  0  0  0  0  0  0
  -23.7483   -9.9264   22.2739 C   0  0  0  0  0  0  0  0  0  0  0  0
  -26.1998  -32.8335   16.4769 C   0  0  0  0  0  0  0  0  0  0  0  0
  -27.3014  -30.5406   17.6062 C   0  0  0  0  0  0  0  0  0  0  0  0
  -31.0525  -25.7106   17.2801 C   0  0  0  0  0  0  0  0  0  0  0  0
  -22.2557   -8.7444   20.2347 C   0  0  0  0  0  0  0  0  0  0  0  0
  -22.9909   -8.7846   22.5358 C   0  0  0  0  0  0  0  0  0  0  0  0
  -31.1855  -24.5710   18.0723 C   0  0  0  0  0  0  0  0  0  0  0  0
  -23.2567   -5.4509   22.0397 C   0  0  0  0  0  0  0  0  0  0  0  0
  -23.8549   -4.4327   22.7821 C   0  0  0  0  0  0  0  0  0  0  0  0
  -29.7761  -23.3501   16.5419 C   0  0  0  0  0  0  0  0  0  0  0  0
  -29.1917  -19.6579   19.8999 C   0  0  0  0  0  0  0  0  0  0  0  0
  -31.6292  -18.3074   20.0308 C   0  0  0  0  0  0  0  0  0  0  0  0
  -22.1370   -4.6518   24.4667 C   0  0  0  0  0  0  0  0  0  0  0  0
  -23.7593  -10.4771   20.9924 C   0  0  0  0  0  0  0  0  0  0  0  0
  -24.1260  -12.9965   20.8321 C   0  0  0  0  0  0  0  0  0  0  0  0
  -25.9070  -31.5809   15.9148 C   0  0  0  0  0  0  0  0  0  0  0  0
  -30.2701  -25.6814   16.1167 C   0  0  0  0  0  0  0  0  0  0  0  0
  -26.4551  -30.4190   16.4911 C   0  0  0  0  0  0  0  0  0  0  0  0
  -29.6369  -24.4899   15.7353 C   0  0  0  0  0  0  0  0  0  0  0  0
  -30.2272  -20.0021   19.0311 C   0  0  0  0  0  0  0  0  0  0  0  0
  -30.5937  -17.9633   20.8997 C   0  0  0  0  0  0  0  0  0  0  0  0
  -22.2447   -8.1937   21.5162 C   0  0  0  0  0  0  0  0  0  0  0  0
  -30.5449  -23.3914   17.7048 C   0  0  0  0  0  0  0  0  0  0  0  0
  -22.0987   -6.0696   22.5108 C   0  0  0  0  0  0  0  0  0  0  0  0
  -23.2950   -4.0331   23.9956 C   0  0  0  0  0  0  0  0  0  0  0  0
  -29.3750  -18.6385   20.8343 C   0  0  0  0  0  0  0  0  0  0  0  0
  -21.5388   -5.6700   23.7243 C   0  0  0  0  0  0  0  0  0  0  0  0
  -31.4460  -19.3269   19.0965 C   0  0  0  0  0  0  0  0  0  0  0  0
  -24.5422  -11.6562   20.7223 C   0  0  0  0  0  0  0  0  0  0  0  0
  -25.2290  -13.7295   20.4677 C   0  0  0  0  0  0  0  0  0  0  0  0
  -22.8560  -13.5312   21.2281 C   0  0  0  0  0  0  0  0  0  0  0  0
  -27.6571  -27.2001   15.1321 C   0  0  0  0  0  0  0  0  0  0  0  0
  -28.2710  -25.6423   12.3538 C   0  0  0  0  0  0  0  0  0  0  0  0
  -29.7389  -22.9933   10.7808 C   0  0  0  0  0  0  0  0  0  0  0  0
  -30.7196  -14.7014   20.6980 C   0  0  0  0  0  0  0  0  0  0  0  0
  -24.9553  -31.5139   14.7467 C   0  0  0  0  0  0  0  0  0  0  0  0
  -30.1585  -26.9118   15.2588 C   0  0  0  0  0  0  0  0  0  0  0  0
  -28.8020  -24.4007   14.4849 C   0  0  0  0  0  0  0  0  0  0  0  0
  -24.9973  -30.1818   14.0024 C   0  0  0  0  0  0  0  0  0  0  0  0
  -29.5855  -12.2859   18.3409 C   0  0  0  0  0  0  0  0  0  0  0  0
  -24.9635  -29.0182   14.9882 C   0  0  0  0  0  0  0  0  0  0  0  0
  -28.1408  -12.0130   18.7632 C   0  0  0  0  0  0  0  0  0  0  0  0
  -30.4917  -12.5193   19.5477 C   0  0  0  0  0  0  0  0  0  0  0  0
  -28.5821  -13.2920   20.9005 C   0  0  0  0  0  0  0  0  0  0  0  0
  -26.1840  -29.0456   15.9161 C   0  0  1  0  0  0  0  0  0  0  0  0
  -28.9189  -26.9097   14.3696 C   0  0  1  0  0  0  0  0  0  0  0  0
  -27.6190  -13.1057   19.7155 C   0  0  2  0  0  0  0  0  0  0  0  0
  -30.0359  -21.9689    8.5093 C   0  0  0  0  0  0  0  0  0  0  0  0
  -25.4082  -24.5915   12.4561 C   0  0  0  0  0  0  0  0  0  0  0  0
  -26.0513  -22.8753   10.7504 C   0  0  0  0  0  0  0  0  0  0  0  0
  -26.1784  -25.3016   10.1851 C   0  0  0  0  0  0  0  0  0  0  0  0
  -32.6813  -23.2858   10.9059 C   0  0  0  0  0  0  0  0  0  0  0  0
  -30.7923  -16.8726   21.8978 C   0  0  0  0  0  0  0  0  0  0  0  0
  -29.9888  -21.1036   18.0405 C   0  0  0  0  0  0  0  0  0  1  0  0
  -27.8804  -24.3069   11.7681 C   0  0  1  0  0  0  0  0  0  0  0  0
  -30.6189  -22.9163    9.5462 C   0  0  2  0  0  0  0  0  0  0  0  0
  -26.3936  -24.2707   11.3146 C   0  0  0  0  0  0  0  0  0  0  0  0
  -25.8105  -11.5414   20.3196 N   0  0  0  0  0  0  0  0  0  0  0  0
  -26.2008  -12.8190   20.1730 N   0  0  0  0  0  0  0  0  0  0  0  0
  -28.7182  -25.6322   13.6826 N   0  0  0  0  0  0  0  0  0  0  0  0
  -29.9413  -13.5682   20.4095 N   0  0  0  0  0  0  0  0  0  0  0  0
  -25.4526  -15.0575   20.3738 N   0  0  0  0  0  0  0  0  0  0  0  0
  -21.8320  -12.6374   21.5701 N   0  0  0  0  0  0  0  0  0  0  0  0
  -27.3540  -28.5449   15.2271 N   0  0  0  0  0  0  0  0  0  0  0  0
  -28.8373  -24.0335   10.7013 N   0  0  0  0  0  0  0  0  0  0  0  0
  -30.1202  -15.6503   21.5171 N   0  0  0  0  0  0  0  0  0  0  0  0
  -31.9811  -22.4339    9.9104 N   0  3  0  0  0  0  0  0  0  0  0  0
  -22.6306  -14.7648   21.2613 O   0  0  0  0  0  0  0  0  0  0  0  0
  -27.0060  -26.2726   15.5984 O   0  0  0  0  0  0  0  0  0  0  0  0
  -28.1892  -26.6560   11.6557 O   0  0  0  0  0  0  0  0  0  0  0  0
  -29.8386  -22.2068   11.7200 O   0  0  0  0  0  0  0  0  0  0  0  0
  -31.8620  -14.8584   20.2538 O   0  0  0  0  0  0  0  0  0  0  0  0
  -21.5057   -7.0797   21.7722 O   0  0  0  0  0  0  0  0  0  0  0  0
  -30.6724  -22.2778   18.4765 O   0  0  0  0  0  0  0  0  0  1  0  0
  -23.8686   -3.0543   24.7076 F   0  0  0  0  0  0  0  0  0  0  0  0
  -28.3746  -18.3142   21.6653 F   0  0  0  0  0  0  0  0  0  0  0  0
  -20.4258   -6.2599   24.1814 F   0  0  0  0  0  0  0  0  0  0  0  0
  -32.7493  -19.7273   18.0381 Cl  0  0  0  0  0  0  0  0  0  0  0  0
  1  2  1  0  0  0  0
  1  5  2  0  0  0  0
  2  6  2  0  0  0  0
  3  8  2  0  0  0  0
  3 17  1  0  0  0  0
  4  9  1  0  0  0  0
  4 17  2  0  0  0  0
  5 19  1  0  0  0  0
  6 21  1  0  0  0  0
  7 10  2  0  0  0  0
  7 20  1  0  0  0  0
  8 25  1  0  0  0  0
  9 25  2  0  0  0  0
 10 26  1  0  0  0  0
 11 12  2  0  0  0  0
 11 27  1  0  0  0  0
 12 28  1  0  0  0  0
 13 22  1  0  0  0  0
 13 26  2  0  0  0  0
 14 23  1  0  0  0  0
 14 29  2  0  0  0  0
 15 24  2  0  0  0  0
 15 31  1  0  0  0  0
 16 28  2  0  0  0  0
 16 30  1  0  0  0  0
 17 32  1  0  0  0  0
 18 32  1  0  0  0  0
 18 33  2  0  0  0  0
 18 34  1  0  0  0  0
 19 21  2  0  0  0  0
 19 39  1  0  0  0  0
 20 22  2  0  0  0  0
 20 40  1  0  0  0  0
 21 48  1  0  0  0  0
 22 41  1  0  0  0  0
 23 31  2  0  0  0  0
 23 57  1  0  0  0  0
 24 29  1  0  0  0  0
 24 56  1  0  0  0  0
 25 76  1  0  0  0  0
 26 77  1  0  0  0  0
 27 30  2  0  0  0  0
 27 76  1  0  0  0  0
 28 78  1  0  0  0  0
 29 79  1  0  0  0  0
 30 80  1  0  0  0  0
 31 81  1  0  0  0  0
 32 61  2  0  0  0  0
 33 62  1  0  0  0  0
 33 65  1  0  0  0  0
 34 66  1  0  0  0  0
 34 71  2  0  0  0  0
 35 49  1  0  0  0  0
 35 67  1  0  0  0  0
 35 72  2  0  0  0  0
 36 58  1  0  0  0  0
 36 63  1  0  0  0  0
 36 73  2  0  0  0  0
 37 59  1  0  0  0  0
 37 68  1  0  0  0  0
 37 74  2  0  0  0  0
 38 64  1  0  0  0  0
 38 69  1  0  0  0  0
 38 75  2  0  0  0  0
 39 42  1  0  0  0  0
 40 49  1  0  0  0  0
 41 63  1  0  0  0  0
 42 44  1  0  0  0  0
 43 45  1  0  0  0  0
 43 46  1  0  0  0  0
 44 48  1  0  0  0  0
 45 50  1  0  0  0  0
 46 64  1  0  0  0  0
 47 50  1  0  0  0  0
 47 64  1  0  0  0  0
 48 67  1  0  0  0  0
 49 63  1  0  0  0  0
 50 62  1  0  0  0  0
 51 59  1  0  0  0  0
 52 60  1  0  0  0  0
 53 60  1  0  0  0  0
 54 60  1  0  0  0  0
 55 70  1  0  0  0  0
 56 69  1  0  0  0  0
 57 77  1  0  0  0  0
 58 60  1  0  0  0  0
 58 68  1  0  0  0  0
 59 70  1  0  0  0  0
 61 62  1  0  0  0  0
M  CHG  1  70   1
M  ISO  4  38 100  57 101  69 100  77 101
M  END
> <Batch ID>
0034

> <Smiles>
CNC(C)C(=O)NC(C(=O)N1Cc2cc([101O:1][101CH2:1]c3cc(F)c(C[100NH:0][100C:0](=O)N4CCCC(n5nc(-c6ccc(Oc7ccc(F)cc7F)cc6)c(C(N)=O)c5N)C4)cc3Cl)ccc2CC1C(=O)NC1CCCc2ccccc21)C(C)(C)C

> <Shape>
0.227

> <Color>
0.207

> <Negative vol penalty>
0.000

$$$$

  -OEChem-04052316503D

 84 92  0     1  0  0  0  0  0999 V2000
  -22.0910  -12.3064   18.7821 C   0  0  0  0  0  0  0  0  0  0  0  0
  -21.9979  -13.6931   18.8438 C   0  0  0  0  0  0  0  0  0  0  0  0
  -29.8829  -27.6180   23.2136 C   0  0  0  0  0  0  0  0  0  0  0  0
  -28.2718  -26.1683   24.2813 C   0  0  0  0  0  0  0  0  0  0  0  0
  -23.1454  -11.6507   19.4163 C   0  0  0  0  0  0  0  0  0  0  0  0
  -22.9587  -14.4249   19.5407 C   0  0  0  0  0  0  0  0  0  0  0  0
  -24.5248  -18.5058   16.9836 C   0  0  0  0  0  0  0  0  0  0  0  0
  -30.7647  -27.4207   24.2761 C   0  0  0  0  0  0  0  0  0  0  0  0
  -29.1536  -25.9710   25.3439 C   0  0  0  0  0  0  0  0  0  0  0  0
  -23.6857  -19.6192   16.9857 C   0  0  0  0  0  0  0  0  0  0  0  0
  -31.9090  -24.1211   25.9813 C   0  0  0  0  0  0  0  0  0  0  0  0
  -32.0805  -22.8170   26.4456 C   0  0  0  0  0  0  0  0  0  0  0  0
  -25.0434  -20.6317   18.7034 C   0  0  0  0  0  0  0  0  0  0  0  0
  -19.3352  -24.7291   22.9850 C   0  0  0  0  0  0  0  0  0  0  0  0
  -19.4225  -26.8780   24.0856 C   0  0  0  0  0  0  0  0  0  0  0  0
  -20.0598  -26.6834   21.7633 C   0  0  0  0  0  0  0  0  0  0  0  0
  -31.2956  -23.4910   28.6288 C   0  0  0  0  0  0  0  0  0  0  0  0
  -28.6364  -26.9918   23.2162 C   0  0  0  0  0  0  0  0  0  0  0  0
  -27.6296  -26.4326   20.9399 C   0  0  0  0  0  0  0  0  0  0  0  0
  -24.1250  -12.3756   20.1132 C   0  0  0  0  0  0  0  0  0  0  0  0
  -25.6251  -18.4422   17.8506 C   0  0  0  0  0  0  0  0  0  0  0  0
  -24.0265  -13.7782   20.1860 C   0  0  0  0  0  0  0  0  0  0  0  0
  -25.8964  -19.5175   18.7086 C   0  0  0  0  0  0  0  0  0  0  0  0
  -19.1519  -25.5102   24.1260 C   0  0  0  0  0  0  0  0  0  0  0  0
  -19.7892  -25.3157   21.8037 C   0  0  0  0  0  0  0  0  0  0  0  0
  -19.8765  -27.4646   22.9043 C   0  0  0  0  0  0  0  0  0  0  0  0
  -30.4001  -26.5972   25.3413 C   0  0  0  0  0  0  0  0  0  0  0  0
  -23.9432  -20.6812   17.8477 C   0  0  0  0  0  0  0  0  0  0  0  0
  -31.4308  -25.1102   26.8409 C   0  0  0  0  0  0  0  0  0  0  0  0
  -31.7738  -22.5020   27.7693 C   0  0  0  0  0  0  0  0  0  0  0  0
  -31.1241  -24.7951   28.1646 C   0  0  0  0  0  0  0  0  0  0  0  0
  -27.7248  -27.1957   22.1191 C   0  0  0  0  0  0  0  0  0  0  0  0
  -26.6189  -27.0286   20.2259 C   0  0  0  0  0  0  0  0  0  0  0  0
  -28.3870  -25.2874   20.5269 C   0  0  0  0  0  0  0  0  0  0  0  0
  -26.4955  -16.5268   20.2333 C   0  0  0  0  0  0  0  0  0  0  0  0
  -29.2255  -18.2754   20.1236 C   0  0  0  0  0  0  0  0  0  0  0  0
  -30.7599  -21.2007   19.2664 C   0  0  0  0  0  0  0  0  0  0  0  0
  -21.9096  -30.3603   21.8298 C   0  0  0  0  0  0  0  0  0  0  0  0
  -25.2201  -11.6193   20.8228 C   0  0  0  0  0  0  0  0  0  0  0  0
  -26.5360  -17.2457   17.8172 C   0  0  0  0  0  0  0  0  0  0  0  0
  -27.0764  -19.5071   19.6445 C   0  0  0  0  0  0  0  0  0  0  0  0
  -26.4037  -12.4956   21.2247 C   0  0  0  0  0  0  0  0  0  0  0  0
  -24.4992  -31.2659   19.5603 C   0  0  0  0  0  0  0  0  0  0  0  0
  -25.9160  -13.7829   21.8818 C   0  0  0  0  0  0  0  0  0  0  0  0
  -25.6110  -30.2566   19.8524 C   0  0  0  0  0  0  0  0  0  0  0  0
  -23.7583  -31.6730   20.8321 C   0  0  0  0  0  0  0  0  0  0  0  0
  -24.3417  -29.5399   21.9198 C   0  0  0  0  0  0  0  0  0  0  0  0
  -25.0629  -14.6088   20.9113 C   0  0  1  0  0  0  0  0  0  0  0  0
  -27.3314  -17.0642   19.1063 C   0  0  1  0  0  0  0  0  0  0  0  0
  -25.0810  -29.0567   20.6603 C   0  0  2  0  0  0  0  0  0  0  0  0
  -19.8108  -24.3856   26.2678 C   0  0  0  0  0  0  0  0  0  0  0  0
  -32.9901  -22.3491   19.3348 C   0  0  0  0  0  0  0  0  0  0  0  0
  -28.8605  -18.8011   23.1070 C   0  0  0  0  0  0  0  0  0  0  0  0
  -30.5160  -20.6689   22.9094 C   0  0  0  0  0  0  0  0  0  0  0  0
  -31.2155  -18.3267   22.4118 C   0  0  0  0  0  0  0  0  0  0  0  0
  -30.8645  -21.4260   16.3173 C   0  0  0  0  0  0  0  0  0  0  0  0
  -18.6661  -24.8825   25.3887 C   0  0  0  0  0  0  0  0  0  0  0  0
  -19.9871  -24.4718   20.5698 C   0  0  0  0  0  0  0  0  0  0  0  0
  -20.1658  -28.9272   22.8616 C   0  0  0  0  0  0  0  0  0  0  0  0
  -21.3933  -23.8745   20.4472 C   0  0  0  0  0  0  0  0  0  0  0  0
  -21.5983  -23.0863   19.1527 C   0  0  0  0  0  0  0  0  0  0  0  0
  -22.9914  -22.4755   19.0847 C   0  0  0  0  0  0  0  0  0  1  0  0
  -29.7105  -19.5430   20.7847 C   0  0  1  0  0  0  0  0  0  0  0  0
  -32.0494  -21.4794   18.5154 C   0  0  2  0  0  0  0  0  0  0  0  0
  -30.0522  -19.3346   22.2871 C   0  0  0  0  0  0  0  0  0  0  0  0
  -26.8449  -28.1999   22.1559 N   0  0  0  0  0  0  0  0  0  0  0  0
  -26.1872  -28.0720   20.9909 N   0  0  0  0  0  0  0  0  0  0  0  0
  -27.9340  -18.3122   19.5791 N   0  0  0  0  0  0  0  0  0  0  0  0
  -23.2801  -30.4894   21.5506 N   0  0  0  0  0  0  0  0  0  0  0  0
  -26.0663  -26.7567   19.0246 N   0  0  0  0  0  0  0  0  0  0  0  0
  -29.3882  -24.8051   21.3810 N   0  0  0  0  0  0  0  0  0  0  0  0
  -25.9066  -15.3060   19.9645 N   0  0  0  0  0  0  0  0  0  0  0  0
  -30.8281  -20.0219   19.9785 N   0  0  0  0  0  0  0  0  0  0  0  0
  -21.5401  -29.2056   22.5086 N   0  0  0  0  0  0  0  0  0  0  0  0
  -31.7604  -22.1795   17.2319 N   0  3  0  0  0  0  0  0  0  0  0  0
  -28.1931  -24.7190   19.4257 O   0  0  0  0  0  0  0  0  0  0  0  0
  -26.3937  -17.1713   21.2706 O   0  0  0  0  0  0  0  0  0  0  0  0
  -29.9680  -17.2911   20.0854 O   0  0  0  0  0  0  0  0  0  0  0  0
  -29.7905  -21.9553   19.2283 O   0  0  0  0  0  0  0  0  0  0  0  0
  -21.0761  -31.2086   21.4940 O   0  0  0  0  0  0  0  0  0  0  0  0
  -31.2604  -26.4043   26.3782 O   0  0  0  0  0  0  0  0  0  0  0  0
  -23.1254  -21.7688   17.8522 O   0  0  0  0  0  0  0  0  0  1  0  0
  -31.9370  -21.2492   28.2145 F   0  0  0  0  0  0  0  0  0  0  0  0
  -30.6633  -25.7408   28.9947 F   0  0  0  0  0  0  0  0  0  0  0  0
  1  2  1  0  0  0  0
  1  5  2  0  0  0  0
  2  6  2  0  0  0  0
  3  8  2  0  0  0  0
  3 18  1  0  0  0  0
  4  9  1  0  0  0  0
  4 18  2  0  0  0  0
  5 20  1  0  0  0  0
  6 22  1  0  0  0  0
  7 10  2  0  0  0  0
  7 21  1  0  0  0  0
  8 27  1  0  0  0  0
  9 27  2  0  0  0  0
 10 28  1  0  0  0  0
 11 12  2  0  0  0  0
 11 29  1  0  0  0  0
 12 30  1  0  0  0  0
 13 23  1  0  0  0  0
 13 28  2  0  0  0  0
 14 24  1  0  0  0  0
 14 25  2  0  0  0  0
 15 24  2  0  0  0  0
 15 26  1  0  0  0  0
 16 25  1  0  0  0  0
 16 26  2  0  0  0  0
 17 30  2  0  0  0  0
 17 31  1  0  0  0  0
 18 32  1  0  0  0  0
 19 32  1  0  0  0  0
 19 33  2  0  0  0  0
 19 34  1  0  0  0  0
 20 22  2  0  0  0  0
 20 39  1  0  0  0  0
 21 23  2  0  0  0  0
 21 40  1  0  0  0  0
 22 48  1  0  0  0  0
 23 41  1  0  0  0  0
 24 57  1  0  0  0  0
 25 58  1  0  0  0  0
 26 59  1  0  0  0  0
 27 81  1  0  0  0  0
 28 82  1  0  0  0  0
 29 31  2  0  0  0  0
 29 81  1  0  0  0  0
 30 83  1  0  0  0  0
 31 84  1  0  0  0  0
 32 66  2  0  0  0  0
 33 67  1  0  0  0  0
 33 70  1  0  0  0  0
 34 71  1  0  0  0  0
 34 76  2  0  0  0  0
 35 49  1  0  0  0  0
 35 72  1  0  0  0  0
 35 77  2  0  0  0  0
 36 63  1  0  0  0  0
 36 68  1  0  0  0  0
 36 78  2  0  0  0  0
 37 64  1  0  0  0  0
 37 73  1  0  0  0  0
 37 79  2  0  0  0  0
 38 69  1  0  0  0  0
 38 74  1  0  0  0  0
 38 80  2  0  0  0  0
 39 42  1  0  0  0  0
 40 49  1  0  0  0  0
 41 68  1  0  0  0  0
 42 44  1  0  0  0  0
 43 45  1  0  0  0  0
 43 46  1  0  0  0  0
 44 48  1  0  0  0  0
 45 50  1  0  0  0  0
 46 69  1  0  0  0  0
 47 50  1  0  0  0  0
 47 69  1  0  0  0  0
 48 72  1  0  0  0  0
 49 68  1  0  0  0  0
 50 67  1  0  0  0  0
 51 57  1  0  0  0  0
 52 64  1  0  0  0  0
 53 65  1  0  0  0  0
 54 65  1  0  0  0  0
 55 65  1  0  0  0  0
 56 75  1  0  0  0  0
 58 60  1  0  0  0  0
 59 74  1  0  0  0  0
 60 61  1  0  0  0  0
 61 62  1  0  0  0  0
 62 82  1  0  0  0  0
 63 65  1  0  0  0  0
 63 73  1  0  0  0  0
 64 75  1  0  0  0  0
 66 67  1  0  0  0  0
M  CHG  1  75   1
M  ISO  4  38 100  62 101  74 100  82 101
M  END
> <Batch ID>
0034

> <Smiles>
CCc1cc(CCC[101CH2:1][101O:1]c2ccc3c(c2)CN(C(=O)C(NC(=O)C(C)NC)C(C)(C)C)C(C(=O)NC2CCCc4ccccc42)C3)cc(C[100NH:0][100C:0](=O)N2CCCC(n3nc(-c4ccc(Oc5ccc(F)cc5F)cc4)c(C(N)=O)c3N)C2)c1

> <Shape>
0.190

> <Color>
0.083

> <Negative vol penalty>
0.000

$$$$

  -OEChem-04052316503D

 83 91  0     1  0  0  0  0  0999 V2000
  -29.1230  -19.0790   17.9655 C   0  0  0  0  0  0  0  0  0  0  0  0
  -28.5105  -20.1980   17.4105 C   0  0  0  0  0  0  0  0  0  0  0  0
  -24.5031  -14.4229   20.2853 C   0  0  0  0  0  0  0  0  0  0  0  0
  -24.6786  -14.6937   22.6797 C   0  0  0  0  0  0  0  0  0  0  0  0
  -29.0580  -18.8604   19.3410 C   0  0  0  0  0  0  0  0  0  0  0  0
  -27.8316  -21.0986   18.2306 C   0  0  0  0  0  0  0  0  0  0  0  0
  -26.3166  -28.0763   18.8066 C   0  0  0  0  0  0  0  0  0  0  0  0
  -25.5690  -13.5236   20.3089 C   0  0  0  0  0  0  0  0  0  0  0  0
  -25.7446  -13.7944   22.7032 C   0  0  0  0  0  0  0  0  0  0  0  0
  -25.2284  -28.9322   18.9706 C   0  0  0  0  0  0  0  0  0  0  0  0
  -28.4779  -11.4305   19.6915 C   0  0  0  0  0  0  0  0  0  0  0  0
  -29.4699  -11.5728   18.7213 C   0  0  0  0  0  0  0  0  0  0  0  0
  -25.2491  -28.4943   21.3427 C   0  0  0  0  0  0  0  0  0  0  0  0
  -19.5946  -27.5968   21.3956 C   0  0  0  0  0  0  0  0  0  0  0  0
  -29.9354  -13.8034   19.5244 C   0  0  0  0  0  0  0  0  0  0  0  0
  -20.2895  -27.8517   23.6559 C   0  0  0  0  0  0  0  0  0  0  0  0
  -24.0579  -15.0080   21.4707 C   0  0  0  0  0  0  0  0  0  0  0  0
  -21.5883  -15.6377   21.5815 C   0  0  0  0  0  0  0  0  0  0  0  0
  -28.3862  -19.7638   20.1795 C   0  0  0  0  0  0  0  0  0  0  0  0
  -26.8733  -27.4134   19.9098 C   0  0  0  0  0  0  0  0  0  0  0  0
  -27.7564  -20.8911   19.6184 C   0  0  0  0  0  0  0  0  0  0  0  0
  -26.3459  -27.6324   21.1904 C   0  0  0  0  0  0  0  0  0  0  0  0
  -20.0511  -28.4232   22.4164 C   0  0  0  0  0  0  0  0  0  0  0  0
  -19.3932  -26.2433   21.6421 C   0  0  0  0  0  0  0  0  0  0  0  0
  -26.1898  -13.2093   21.5178 C   0  0  0  0  0  0  0  0  0  0  0  0
  -24.6926  -29.1391   20.2384 C   0  0  0  0  0  0  0  0  0  0  0  0
  -28.2145  -12.4747   20.5781 C   0  0  0  0  0  0  0  0  0  0  0  0
  -30.1987  -12.7592   18.6378 C   0  0  0  0  0  0  0  0  0  0  0  0
  -28.9433  -13.6611   20.4946 C   0  0  0  0  0  0  0  0  0  0  0  0
  -22.9572  -15.9375   21.4470 C   0  0  0  0  0  0  0  0  0  0  0  0
  -19.6612  -25.7693   22.9162 C   0  0  0  0  0  0  0  0  0  0  0  0
  -20.9595  -16.8555   21.4907 C   0  0  0  0  0  0  0  0  0  0  0  0
  -20.9428  -14.3716   21.7715 C   0  0  0  0  0  0  0  0  0  0  0  0
  -27.2319  -24.3690   20.7507 C   0  0  0  0  0  0  0  0  0  0  0  0
  -28.9258  -25.6510   23.2021 C   0  0  0  0  0  0  0  0  0  0  0  0
  -29.5400  -28.3481   25.2009 C   0  0  0  0  0  0  0  0  0  0  0  0
  -20.5644  -22.1230   22.9202 C   0  0  0  0  0  0  0  0  0  0  0  0
  -28.3024  -19.4604   21.6545 C   0  0  0  0  0  0  0  0  0  0  0  0
  -28.0639  -26.5141   19.7199 C   0  0  0  0  0  0  0  0  0  0  0  0
  -26.9199  -26.9605   22.4100 C   0  0  0  0  0  0  0  0  0  0  0  0
  -27.8832  -20.6601   22.5003 C   0  0  0  0  0  0  0  0  0  0  0  0
  -22.7399  -21.3887   20.1228 C   0  0  0  0  0  0  0  0  0  0  0  0
  -26.6853  -21.3643   21.8711 C   0  0  0  0  0  0  0  0  0  0  0  0
  -22.8754  -19.8690   20.2336 C   0  0  0  0  0  0  0  0  0  0  0  0
  -22.7027  -22.0423   21.5010 C   0  0  0  0  0  0  0  0  0  0  0  0
  -21.7737  -19.9977   22.5160 C   0  0  0  0  0  0  0  0  0  0  0  0
  -27.0317  -21.9040   20.4781 C   0  0  1  0  0  0  0  0  0  0  0  0
  -28.2258  -25.4922   20.8411 C   0  0  1  0  0  0  0  0  0  0  0  0
  -21.7943  -19.2759   21.1564 C   0  0  2  0  0  0  0  0  0  0  0  0
  -18.9025  -25.3526   20.5534 C   0  0  0  0  0  0  0  0  0  0  0  0
  -18.9639  -30.6053   21.8279 C   0  0  0  0  0  0  0  0  0  0  0  0
  -30.9537  -29.0815   27.1402 C   0  0  0  0  0  0  0  0  0  0  0  0
  -27.1396  -24.0652   25.1007 C   0  0  0  0  0  0  0  0  0  0  0  0
  -27.9395  -25.5311   26.9661 C   0  0  0  0  0  0  0  0  0  0  0  0
  -29.5605  -24.0957   25.7272 C   0  0  0  0  0  0  0  0  0  0  0  0
  -30.8310  -30.4790   23.6035 C   0  0  0  0  0  0  0  0  0  0  0  0
  -19.4639  -24.3241   23.2385 C   0  0  0  0  0  0  0  0  0  0  0  0
  -21.3432  -30.1871   21.0985 C   0  0  0  0  0  0  0  0  0  0  0  0
  -22.7336  -29.6822   21.4726 C   0  0  0  0  0  0  0  0  0  1  0  0
  -20.2823  -29.9057   22.1800 C   0  0  2  0  0  0  0  0  0  0  0  0
  -28.5934  -26.1373   24.5921 C   0  0  1  0  0  0  0  0  0  0  0  0
  -30.8372  -29.0126   25.6255 C   0  0  2  0  0  0  0  0  0  0  0  0
  -28.2960  -24.9686   25.5735 C   0  0  0  0  0  0  0  0  0  0  0  0
  -20.1056  -26.5414   23.9331 N   0  0  0  0  0  0  0  0  0  0  0  0
  -23.1853  -17.2433   21.2831 N   0  0  0  0  0  0  0  0  0  0  0  0
  -21.9514  -17.7748   21.3139 N   0  0  0  0  0  0  0  0  0  0  0  0
  -28.0798  -26.0855   22.1719 N   0  0  0  0  0  0  0  0  0  0  0  0
  -21.6404  -21.4456   22.3229 N   0  0  0  0  0  0  0  0  0  0  0  0
  -19.6605  -17.2188   21.5455 N   0  0  0  0  0  0  0  0  0  0  0  0
  -21.7384  -13.2200   21.8427 N   0  0  0  0  0  0  0  0  0  0  0  0
  -27.8050  -23.1225   20.5861 N   0  0  0  0  0  0  0  0  0  0  0  0
  -29.7017  -26.9935   25.0009 N   0  0  0  0  0  0  0  0  0  0  0  0
  -20.5149  -23.4932   22.6944 N   0  0  0  0  0  0  0  0  0  0  0  0
  -30.9099  -30.3995   25.0849 N   0  3  0  0  0  0  0  0  0  0  0  0
  -19.6962  -14.2629   21.8587 O   0  0  0  0  0  0  0  0  0  0  0  0
  -26.0337  -24.6149   20.8262 O   0  0  0  0  0  0  0  0  0  0  0  0
  -29.9043  -24.9186   23.0355 O   0  0  0  0  0  0  0  0  0  0  0  0
  -28.4877  -28.9681   25.0641 O   0  0  0  0  0  0  0  0  0  0  0  0
  -19.7075  -21.5483   23.6003 O   0  0  0  0  0  0  0  0  0  0  0  0
  -27.2298  -12.3316   21.5412 O   0  0  0  0  0  0  0  0  0  0  0  0
  -23.6300  -29.9735   20.4012 O   0  0  0  0  0  0  0  0  0  1  0  0
  -31.1524  -12.8951   17.7071 F   0  0  0  0  0  0  0  0  0  0  0  0
  -28.6956  -14.6673   21.3443 F   0  0  0  0  0  0  0  0  0  0  0  0
  1  2  1  0  0  0  0
  1  5  2  0  0  0  0
  2  6  2  0  0  0  0
  3  8  2  0  0  0  0
  3 17  1  0  0  0  0
  4  9  1  0  0  0  0
  4 17  2  0  0  0  0
  5 19  1  0  0  0  0
  6 21  1  0  0  0  0
  7 10  2  0  0  0  0
  7 20  1  0  0  0  0
  8 25  1  0  0  0  0
  9 25  2  0  0  0  0
 10 26  1  0  0  0  0
 11 12  2  0  0  0  0
 11 27  1  0  0  0  0
 12 28  1  0  0  0  0
 13 22  1  0  0  0  0
 13 26  2  0  0  0  0
 14 23  2  0  0  0  0
 14 24  1  0  0  0  0
 15 28  2  0  0  0  0
 15 29  1  0  0  0  0
 16 23  1  0  0  0  0
 16 64  2  0  0  0  0
 17 30  1  0  0  0  0
 18 30  1  0  0  0  0
 18 32  2  0  0  0  0
 18 33  1  0  0  0  0
 19 21  2  0  0  0  0
 19 38  1  0  0  0  0
 20 22  2  0  0  0  0
 20 39  1  0  0  0  0
 21 47  1  0  0  0  0
 22 40  1  0  0  0  0
 23 60  1  0  0  0  0
 24 31  2  0  0  0  0
 24 50  1  0  0  0  0
 25 80  1  0  0  0  0
 26 81  1  0  0  0  0
 27 29  2  0  0  0  0
 27 80  1  0  0  0  0
 28 82  1  0  0  0  0
 29 83  1  0  0  0  0
 30 65  2  0  0  0  0
 31 57  1  0  0  0  0
 31 64  1  0  0  0  0
 32 66  1  0  0  0  0
 32 69  1  0  0  0  0
 33 70  1  0  0  0  0
 33 75  2  0  0  0  0
 34 48  1  0  0  0  0
 34 71  1  0  0  0  0
 34 76  2  0  0  0  0
 35 61  1  0  0  0  0
 35 67  1  0  0  0  0
 35 77  2  0  0  0  0
 36 62  1  0  0  0  0
 36 72  1  0  0  0  0
 36 78  2  0  0  0  0
 37 68  1  0  0  0  0
 37 73  1  0  0  0  0
 37 79  2  0  0  0  0
 38 41  1  0  0  0  0
 39 48  1  0  0  0  0
 40 67  1  0  0  0  0
 41 43  1  0  0  0  0
 42 44  1  0  0  0  0
 42 45  1  0  0  0  0
 43 47  1  0  0  0  0
 44 49  1  0  0  0  0
 45 68  1  0  0  0  0
 46 49  1  0  0  0  0
 46 68  1  0  0  0  0
 47 71  1  0  0  0  0
 48 67  1  0  0  0  0
 49 66  1  0  0  0  0
 51 60  1  0  0  0  0
 52 62  1  0  0  0  0
 53 63  1  0  0  0  0
 54 63  1  0  0  0  0
 55 63  1  0  0  0  0
 56 74  1  0  0  0  0
 57 73  1  0  0  0  0
 58 59  1  0  0  0  0
 58 60  1  0  0  0  0
 59 81  1  0  0  0  0
 61 63  1  0  0  0  0
 61 72  1  0  0  0  0
 62 74  1  0  0  0  0
 65 66  1  0  0  0  0
M  CHG  1  74   1
M  ISO  4  37 100  59 101  73 100  81 101
M  END
> <Batch ID>
0034

> <Smiles>
CNC(C)C(=O)NC(C(=O)N1Cc2cc([101O:1][101CH2:1]CC(C)c3cnc(C[100NH:0][100C:0](=O)N4CCCC(n5nc(-c6ccc(Oc7ccc(F)cc7F)cc6)c(C(N)=O)c5N)C4)c(C)c3)ccc2CC1C(=O)NC1CCCc2ccccc21)C(C)(C)C

> <Shape>
0.211

> <Color>
0.063

> <Negative vol penalty>
0.000

$$$$

  -OEChem-04052316503D

 86 94  0     1  0  0  0  0  0999 V2000
  -22.7264   -7.8605   21.0613 C   0  0  0  0  0  0  0  0  0  0  0  0
  -22.9560   -8.6472   19.9371 C   0  0  0  0  0  0  0  0  0  0  0  0
  -27.4169  -26.0626   20.1667 C   0  0  0  0  0  0  0  0  0  0  0  0
  -26.5462  -25.6637   17.9486 C   0  0  0  0  0  0  0  0  0  0  0  0
  -22.8914   -8.4023   22.3353 C   0  0  0  0  0  0  0  0  0  0  0  0
  -23.3496   -9.9765   20.0863 C   0  0  0  0  0  0  0  0  0  0  0  0
  -27.1594  -13.1169   16.4629 C   0  0  0  0  0  0  0  0  0  0  0  0
  -27.0462  -27.4038   20.0711 C   0  0  0  0  0  0  0  0  0  0  0  0
  -26.1754  -27.0050   17.8530 C   0  0  0  0  0  0  0  0  0  0  0  0
  -26.9353  -14.0204   15.4250 C   0  0  0  0  0  0  0  0  0  0  0  0
  -26.0033  -30.8527   20.5534 C   0  0  0  0  0  0  0  0  0  0  0  0
  -25.3663  -31.4294   21.6521 C   0  0  0  0  0  0  0  0  0  0  0  0
  -27.1887  -15.8528   16.9733 C   0  0  0  0  0  0  0  0  0  0  0  0
  -23.5813  -29.8119   21.4661 C   0  0  0  0  0  0  0  0  0  0  0  0
  -28.4306  -17.7580   11.3577 C   0  0  0  0  0  0  0  0  0  0  0  0
  -27.1669  -25.1925   19.1055 C   0  0  0  0  0  0  0  0  0  0  0  0
  -26.7731  -22.7431   19.6995 C   0  0  0  0  0  0  0  0  0  0  0  0
  -23.2965   -9.7362   22.5002 C   0  0  0  0  0  0  0  0  0  0  0  0
  -27.3894  -13.5751   17.7681 C   0  0  0  0  0  0  0  0  0  0  0  0
  -23.5188  -10.5371   21.3638 C   0  0  0  0  0  0  0  0  0  0  0  0
  -27.4179  -14.9531   18.0256 C   0  0  0  0  0  0  0  0  0  0  0  0
  -26.4255  -27.8751   18.9143 C   0  0  0  0  0  0  0  0  0  0  0  0
  -26.9471  -15.3884   15.6806 C   0  0  0  0  0  0  0  0  0  0  0  0
  -25.4293  -29.7557   19.9109 C   0  0  0  0  0  0  0  0  0  0  0  0
  -24.1553  -30.9090   22.1085 C   0  0  0  0  0  0  0  0  0  0  0  0
  -24.2183  -29.2353   20.3673 C   0  0  0  0  0  0  0  0  0  0  0  0
  -27.5501  -23.8070   19.2034 C   0  0  0  0  0  0  0  0  0  0  0  0
  -27.3521  -17.8220   12.2602 C   0  0  0  0  0  0  0  0  0  0  0  0
  -29.1898  -18.8644   11.6508 C   0  0  0  0  0  0  0  0  0  0  0  0
  -27.5833  -21.6406   19.5788 C   0  0  0  0  0  0  0  0  0  0  0  0
  -25.4382  -22.7507   20.2227 C   0  0  0  0  0  0  0  0  0  0  0  0
  -25.8992  -13.2453   20.5564 C   0  0  0  0  0  0  0  0  0  0  0  0
  -28.5026  -14.8132   21.6906 C   0  0  0  0  0  0  0  0  0  0  0  0
  -31.1100  -16.9261   21.0709 C   0  0  0  0  0  0  0  0  0  0  0  0
  -31.0124  -18.5575   16.6322 C   0  0  0  0  0  0  0  0  0  0  0  0
  -23.4157  -10.2912   23.8975 C   0  0  0  0  0  0  0  0  0  0  0  0
  -27.6559  -12.5883   18.8716 C   0  0  0  0  0  0  0  0  0  0  0  0
  -27.6803  -15.4968   19.4054 C   0  0  0  0  0  0  0  0  0  0  0  0
  -24.1978  -11.6002   23.9682 C   0  0  0  0  0  0  0  0  0  0  0  0
  -32.5106  -21.2764   18.4924 C   0  0  0  0  0  0  0  0  0  0  0  0
  -23.7287  -12.5618   22.8810 C   0  0  0  0  0  0  0  0  0  0  0  0
  -31.2775  -22.0922   18.8850 C   0  0  0  0  0  0  0  0  0  0  0  0
  -32.3636  -20.6922   17.0905 C   0  0  0  0  0  0  0  0  0  0  0  0
  -29.9069  -20.6774   17.2850 C   0  0  0  0  0  0  0  0  0  0  0  0
  -23.9708  -11.9762   21.4846 C   0  0  1  0  0  0  0  0  0  0  0  0
  -27.3693  -13.1525   20.2598 C   0  0  1  0  0  0  0  0  0  0  0  0
  -29.9841  -21.2763   18.7012 C   0  0  2  0  0  0  0  0  0  0  0  0
  -33.0452  -18.0521   22.2042 C   0  0  0  0  0  0  0  0  0  0  0  0
  -26.5855  -16.8086   22.9763 C   0  0  0  0  0  0  0  0  0  0  0  0
  -28.5170  -18.3761   23.2589 C   0  0  0  0  0  0  0  0  0  0  0  0
  -28.5320  -16.1616   24.4071 C   0  0  0  0  0  0  0  0  0  0  0  0
  -28.9539  -20.7167   13.3324 C   0  0  0  0  0  0  0  0  0  0  0  0
  -33.0737  -15.5731   19.3180 C   0  0  0  0  0  0  0  0  0  0  0  0
  -26.1996  -16.8555   12.3863 C   0  0  0  0  0  0  0  0  0  0  0  0
  -30.4459  -19.3613   11.0600 C   0  0  0  0  0  0  0  0  0  0  0  0
  -31.7358  -18.8300   11.7296 C   0  0  0  0  0  0  0  0  0  0  0  0
  -31.8740  -17.3084   11.6087 C   0  0  0  0  0  0  0  0  0  0  0  0
  -33.1756  -16.7683   12.2096 C   0  0  0  0  0  0  0  0  0  0  0  0
  -33.2930  -17.0067   13.7172 C   0  0  0  0  0  0  0  0  0  0  0  0
  -32.1633  -16.3040   14.4776 C   0  0  0  0  0  0  0  0  0  0  0  0
  -32.2577  -16.5108   15.9862 C   0  0  0  0  0  0  0  0  0  0  0  0
  -26.4927  -15.7289   13.3712 C   0  0  0  0  0  0  0  0  0  1  0  0
  -28.8694  -16.2620   21.9034 C   0  0  1  0  0  0  0  0  0  0  0  0
  -32.5850  -16.8345   21.4178 C   0  0  2  0  0  0  0  0  0  0  0  0
  -28.1191  -16.8921   23.1107 C   0  0  0  0  0  0  0  0  0  0  0  0
  -28.7611  -23.4157   18.7979 N   0  0  0  0  0  0  0  0  0  0  0  0
  -27.4169  -18.8849   13.0665 N   0  0  0  0  0  0  0  0  0  0  0  0
  -28.5452  -19.4989   12.6717 N   0  0  0  0  0  0  0  0  0  0  0  0
  -28.7511  -22.0936   19.0391 N   0  0  0  0  0  0  0  0  0  0  0  0
  -27.9290  -14.4919   20.4522 N   0  0  0  0  0  0  0  0  0  0  0  0
  -31.1223  -19.9121   16.9878 N   0  0  0  0  0  0  0  0  0  0  0  0
  -27.4037  -20.3377   19.8828 N   0  0  0  0  0  0  0  0  0  0  0  0
  -24.7481  -23.9694   20.2752 N   0  0  0  0  0  0  0  0  0  0  0  0
  -25.3654  -12.1016   21.1188 N   0  0  0  0  0  0  0  0  0  0  0  0
  -30.3234  -16.3027   22.0163 N   0  0  0  0  0  0  0  0  0  0  0  0
  -32.2096  -17.9069   16.3596 N   0  0  0  0  0  0  0  0  0  0  0  0
  -33.4042  -16.7397   20.1764 N   0  3  0  0  0  0  0  0  0  0  0  0
  -24.8800  -21.7104   20.6466 O   0  0  0  0  0  0  0  0  0  0  0  0
  -25.2943  -14.2787   20.2957 O   0  0  0  0  0  0  0  0  0  0  0  0
  -28.7236  -13.9954   22.5872 O   0  0  0  0  0  0  0  0  0  0  0  0
  -30.6967  -17.4970   20.0640 O   0  0  0  0  0  0  0  0  0  0  0  0
  -29.9275  -17.9693   16.5676 O   0  0  0  0  0  0  0  0  0  0  0  0
  -26.0634  -29.1838   18.8207 O   0  0  0  0  0  0  0  0  0  0  0  0
  -26.7280  -16.2724   14.6695 O   0  0  0  0  0  0  0  0  0  1  0  0
  -23.5444  -31.4620   23.1645 F   0  0  0  0  0  0  0  0  0  0  0  0
  -23.6626  -28.1808   19.7549 F   0  0  0  0  0  0  0  0  0  0  0  0
  1  2  1  0  0  0  0
  1  5  2  0  0  0  0
  2  6  2  0  0  0  0
  3  8  2  0  0  0  0
  3 16  1  0  0  0  0
  4  9  1  0  0  0  0
  4 16  2  0  0  0  0
  5 18  1  0  0  0  0
  6 20  1  0  0  0  0
  7 10  2  0  0  0  0
  7 19  1  0  0  0  0
  8 22  1  0  0  0  0
  9 22  2  0  0  0  0
 10 23  1  0  0  0  0
 11 12  2  0  0  0  0
 11 24  1  0  0  0  0
 12 25  1  0  0  0  0
 13 21  1  0  0  0  0
 13 23  2  0  0  0  0
 14 25  2  0  0  0  0
 14 26  1  0  0  0  0
 15 28  1  0  0  0  0
 15 29  2  0  0  0  0
 16 27  1  0  0  0  0
 17 27  1  0  0  0  0
 17 30  2  0  0  0  0
 17 31  1  0  0  0  0
 18 20  2  0  0  0  0
 18 36  1  0  0  0  0
 19 21  2  0  0  0  0
 19 37  1  0  0  0  0
 20 45  1  0  0  0  0
 21 38  1  0  0  0  0
 22 83  1  0  0  0  0
 23 84  1  0  0  0  0
 24 26  2  0  0  0  0
 24 83  1  0  0  0  0
 25 85  1  0  0  0  0
 26 86  1  0  0  0  0
 27 66  2  0  0  0  0
 28 54  1  0  0  0  0
 28 67  2  0  0  0  0
 29 55  1  0  0  0  0
 29 68  1  0  0  0  0
 30 69  1  0  0  0  0
 30 72  1  0  0  0  0
 31 73  1  0  0  0  0
 31 78  2  0  0  0  0
 32 46  1  0  0  0  0
 32 74  1  0  0  0  0
 32 79  2  0  0  0  0
 33 63  1  0  0  0  0
 33 70  1  0  0  0  0
 33 80  2  0  0  0  0
 34 64  1  0  0  0  0
 34 75  1  0  0  0  0
 34 81  2  0  0  0  0
 35 71  1  0  0  0  0
 35 76  1  0  0  0  0
 35 82  2  0  0  0  0
 36 39  1  0  0  0  0
 37 46  1  0  0  0  0
 38 70  1  0  0  0  0
 39 41  1  0  0  0  0
 40 42  1  0  0  0  0
 40 43  1  0  0  0  0
 41 45  1  0  0  0  0
 42 47  1  0  0  0  0
 43 71  1  0  0  0  0
 44 47  1  0  0  0  0
 44 71  1  0  0  0  0
 45 74  1  0  0  0  0
 46 70  1  0  0  0  0
 47 69  1  0  0  0  0
 48 64  1  0  0  0  0
 49 65  1  0  0  0  0
 50 65  1  0  0  0  0
 51 65  1  0  0  0  0
 52 68  1  0  0  0  0
 53 77  1  0  0  0  0
 54 62  1  0  0  0  0
 55 56  1  0  0  0  0
 56 57  1  0  0  0  0
 57 58  1  0  0  0  0
 58 59  1  0  0  0  0
 59 60  1  0  0  0  0
 60 61  1  0  0  0  0
 61 76  1  0  0  0  0
 62 84  1  0  0  0  0
 63 65  1  0  0  0  0
 63 75  1  0  0  0  0
 64 77  1  0  0  0  0
 66 69  1  0  0  0  0
 67 68  1  0  0  0  0
M  CHG  1  77   1
M  ISO  4  35 100  62 101  76 100  84 101
M  END
> <Batch ID>
0034

> <Smiles>
CNC(C)C(=O)NC(C(=O)N1Cc2cc([101O:1][101CH2:1]Cc3cc(CCCCCCC[100NH:0][100C:0](=O)N4CCCC(n5nc(-c6ccc(Oc7ccc(F)cc7F)cc6)c(C(N)=O)c5N)C4)n(C)n3)ccc2CC1C(=O)NC1CCCc2ccccc21)C(C)(C)C

> <Shape>
0.202

> <Color>
0.077

> <Negative vol penalty>
0.000

$$$$

  -OEChem-04052316503D

 82 90  0     1  0  0  0  0  0999 V2000
  -20.9208  -20.7452   22.4872 C   0  0  0  0  0  0  0  0  0  0  0  0
  -21.9814  -21.4085   21.8784 C   0  0  0  0  0  0  0  0  0  0  0  0
  -26.9170  -13.4534   21.7248 C   0  0  0  0  0  0  0  0  0  0  0  0
  -26.3473  -13.8860   19.4171 C   0  0  0  0  0  0  0  0  0  0  0  0
  -19.6942  -21.3896   22.6426 C   0  0  0  0  0  0  0  0  0  0  0  0
  -21.8156  -22.7162   21.4236 C   0  0  0  0  0  0  0  0  0  0  0  0
  -25.7043  -25.7128   22.6658 C   0  0  0  0  0  0  0  0  0  0  0  0
  -26.2020  -12.2568   21.6770 C   0  0  0  0  0  0  0  0  0  0  0  0
  -25.6322  -12.6893   19.3693 C   0  0  0  0  0  0  0  0  0  0  0  0
  -26.8641  -25.6012   21.9000 C   0  0  0  0  0  0  0  0  0  0  0  0
  -26.6705   -9.1202   20.5043 C   0  0  0  0  0  0  0  0  0  0  0  0
  -27.2660   -7.9867   21.0575 C   0  0  0  0  0  0  0  0  0  0  0  0
  -26.2255  -27.5677   20.6573 C   0  0  0  0  0  0  0  0  0  0  0  0
  -25.4253   -7.7764   22.6081 C   0  0  0  0  0  0  0  0  0  0  0  0
  -28.4312  -22.0253   17.8078 C   0  0  0  0  0  0  0  0  0  0  0  0
  -26.9896  -14.2681   20.5948 C   0  0  0  0  0  0  0  0  0  0  0  0
  -29.0897  -15.6942   20.3428 C   0  0  0  0  0  0  0  0  0  0  0  0
  -19.5162  -22.7092   22.1982 C   0  0  0  0  0  0  0  0  0  0  0  0
  -24.7896  -26.7481   22.4254 C   0  0  0  0  0  0  0  0  0  0  0  0
  -20.5850  -23.3783   21.5720 C   0  0  0  0  0  0  0  0  0  0  0  0
  -25.0562  -27.6917   21.4230 C   0  0  0  0  0  0  0  0  0  0  0  0
  -25.5596  -11.8747   20.4993 C   0  0  0  0  0  0  0  0  0  0  0  0
  -27.1234  -26.5271   20.8937 C   0  0  0  0  0  0  0  0  0  0  0  0
  -25.4524   -9.5819   21.0030 C   0  0  0  0  0  0  0  0  0  0  0  0
  -26.6435   -7.3147   22.1094 C   0  0  0  0  0  0  0  0  0  0  0  0
  -24.8298   -8.9099   22.0549 C   0  0  0  0  0  0  0  0  0  0  0  0
  -27.7276  -15.5047   20.6437 C   0  0  0  0  0  0  0  0  0  0  0  0
  -29.6373  -22.5347   18.2441 C   0  0  0  0  0  0  0  0  0  0  0  0
  -27.4939  -22.9605   17.4189 C   0  0  0  0  0  0  0  0  0  0  0  0
  -29.3016  -17.0367   20.5412 C   0  0  0  0  0  0  0  0  0  0  0  0
  -28.9222  -24.6638   17.8940 C   0  0  0  0  0  0  0  0  0  0  0  0
  -30.0753  -14.7419   19.9214 C   0  0  0  0  0  0  0  0  0  0  0  0
  -21.7442  -26.8865   21.5252 C   0  0  0  0  0  0  0  0  0  0  0  0
  -22.1262  -30.0576   22.0911 C   0  0  0  0  0  0  0  0  0  0  0  0
  -24.2451  -32.7211   22.3422 C   0  0  0  0  0  0  0  0  0  0  0  0
  -25.6797  -21.8022   20.3918 C   0  0  0  0  0  0  0  0  0  0  0  0
  -18.1578  -23.3478   22.3456 C   0  0  0  0  0  0  0  0  0  0  0  0
  -23.5564  -26.8702   23.2779 C   0  0  0  0  0  0  0  0  0  0  0  0
  -24.1161  -28.8335   21.1385 C   0  0  0  0  0  0  0  0  0  0  0  0
  -18.1759  -24.8645   22.1737 C   0  0  0  0  0  0  0  0  0  0  0  0
  -27.7066  -20.7384   23.1188 C   0  0  0  0  0  0  0  0  0  0  0  0
  -18.9917  -25.2528   20.9447 C   0  0  0  0  0  0  0  0  0  0  0  0
  -28.0647  -19.2935   22.7666 C   0  0  0  0  0  0  0  0  0  0  0  0
  -26.2848  -21.0891   22.6856 C   0  0  0  0  0  0  0  0  0  0  0  0
  -26.3443  -19.3769   20.9140 C   0  0  0  0  0  0  0  0  0  0  0  0
  -20.4516  -24.8059   21.0879 C   0  0  1  0  0  0  0  0  0  0  0  0
  -22.4412  -27.6647   22.6052 C   0  0  1  0  0  0  0  0  0  0  0  0
  -27.7881  -18.9935   21.2811 C   0  0  2  0  0  0  0  0  0  0  0  0
  -30.7137  -21.6002   18.6848 C   0  0  0  0  0  0  0  0  0  0  0  0
  -24.2597  -35.1924   22.7782 C   0  0  0  0  0  0  0  0  0  0  0  0
  -21.0844  -30.5595   19.2676 C   0  0  0  0  0  0  0  0  0  0  0  0
  -22.0019  -32.8842   19.4172 C   0  0  0  0  0  0  0  0  0  0  0  0
  -20.2179  -32.1452   20.9964 C   0  0  0  0  0  0  0  0  0  0  0  0
  -25.9387  -32.4039   24.7485 C   0  0  0  0  0  0  0  0  0  0  0  0
  -26.1598  -22.5046   16.9303 C   0  0  0  0  0  0  0  0  0  0  0  0
  -29.1989  -26.1469   17.9387 C   0  0  0  0  0  0  0  0  0  0  0  0
  -25.1135  -22.3667   18.0424 C   0  0  0  0  0  0  0  0  0  0  0  0
  -28.1915  -26.8989   18.8016 C   0  0  0  0  0  0  0  0  0  1  0  0
  -22.5648  -31.2451   21.2687 C   0  0  1  0  0  0  0  0  0  0  0  0
  -24.3776  -33.8071   23.3946 C   0  0  2  0  0  0  0  0  0  0  0  0
  -21.4842  -31.6860   20.2413 C   0  0  0  0  0  0  0  0  0  0  0  0
  -27.1173  -16.6362   21.0060 N   0  0  0  0  0  0  0  0  0  0  0  0
  -29.9178  -23.8532   18.3004 N   0  0  0  0  0  0  0  0  0  0  0  0
  -27.7065  -24.2925   17.4493 N   0  0  0  0  0  0  0  0  0  0  0  0
  -28.1005  -17.5496   20.9340 N   0  0  0  0  0  0  0  0  0  0  0  0
  -22.9208  -28.9064   21.9949 N   0  0  0  0  0  0  0  0  0  0  0  0
  -26.0885  -20.7822   21.2668 N   0  0  0  0  0  0  0  0  0  0  0  0
  -30.3964  -17.8166   20.4164 N   0  0  0  0  0  0  0  0  0  0  0  0
  -29.6882  -13.4038   19.7669 N   0  0  0  0  0  0  0  0  0  0  0  0
  -21.1725  -25.7066   21.9617 N   0  0  0  0  0  0  0  0  0  0  0  0
  -22.9431  -32.2838   22.2208 N   0  0  0  0  0  0  0  0  0  0  0  0
  -25.5232  -21.4278   19.0629 N   0  0  0  0  0  0  0  0  0  0  0  0
  -25.6982  -33.7077   24.0781 N   0  3  0  0  0  0  0  0  0  0  0  0
  -31.2678  -15.0651   19.7046 O   0  0  0  0  0  0  0  0  0  0  0  0
  -21.7251  -27.3248   20.3810 O   0  0  0  0  0  0  0  0  0  0  0  0
  -21.1200  -30.1504   22.7986 O   0  0  0  0  0  0  0  0  0  0  0  0
  -25.2003  -32.3052   21.6902 O   0  0  0  0  0  0  0  0  0  0  0  0
  -25.4748  -22.9618   20.7662 O   0  0  0  0  0  0  0  0  0  0  0  0
  -24.8620  -10.7069   20.4522 O   0  0  0  0  0  0  0  0  0  0  0  0
  -28.2543  -26.4201   20.1444 O   0  0  0  0  0  0  0  0  0  1  0  0
  -27.2147   -6.2253   22.6395 F   0  0  0  0  0  0  0  0  0  0  0  0
  -23.6589   -9.3480   22.5375 F   0  0  0  0  0  0  0  0  0  0  0  0
  1  2  1  0  0  0  0
  1  5  2  0  0  0  0
  2  6  2  0  0  0  0
  3  8  2  0  0  0  0
  3 16  1  0  0  0  0
  4  9  1  0  0  0  0
  4 16  2  0  0  0  0
  5 18  1  0  0  0  0
  6 20  1  0  0  0  0
  7 10  2  0  0  0  0
  7 19  1  0  0  0  0
  8 22  1  0  0  0  0
  9 22  2  0  0  0  0
 10 23  1  0  0  0  0
 11 12  2  0  0  0  0
 11 24  1  0  0  0  0
 12 25  1  0  0  0  0
 13 21  1  0  0  0  0
 13 23  2  0  0  0  0
 14 25  2  0  0  0  0
 14 26  1  0  0  0  0
 15 28  1  0  0  0  0
 15 29  2  0  0  0  0
 16 27  1  0  0  0  0
 17 27  1  0  0  0  0
 17 30  2  0  0  0  0
 17 32  1  0  0  0  0
 18 20  2  0  0  0  0
 18 37  1  0  0  0  0
 19 21  2  0  0  0  0
 19 38  1  0  0  0  0
 20 46  1  0  0  0  0
 21 39  1  0  0  0  0
 22 79  1  0  0  0  0
 23 80  1  0  0  0  0
 24 26  2  0  0  0  0
 24 79  1  0  0  0  0
 25 81  1  0  0  0  0
 26 82  1  0  0  0  0
 27 62  2  0  0  0  0
 28 49  1  0  0  0  0
 28 63  2  0  0  0  0
 29 55  1  0  0  0  0
 29 64  1  0  0  0  0
 30 65  1  0  0  0  0
 30 68  1  0  0  0  0
 31 56  1  0  0  0  0
 31 63  1  0  0  0  0
 31 64  2  0  0  0  0
 32 69  1  0  0  0  0
 32 74  2  0  0  0  0
 33 47  1  0  0  0  0
 33 70  1  0  0  0  0
 33 75  2  0  0  0  0
 34 59  1  0  0  0  0
 34 66  1  0  0  0  0
 34 76  2  0  0  0  0
 35 60  1  0  0  0  0
 35 71  1  0  0  0  0
 35 77  2  0  0  0  0
 36 67  1  0  0  0  0
 36 72  1  0  0  0  0
 36 78  2  0  0  0  0
 37 40  1  0  0  0  0
 38 47  1  0  0  0  0
 39 66  1  0  0  0  0
 40 42  1  0  0  0  0
 41 43  1  0  0  0  0
 41 44  1  0  0  0  0
 42 46  1  0  0  0  0
 43 48  1  0  0  0  0
 44 67  1  0  0  0  0
 45 48  1  0  0  0  0
 45 67  1  0  0  0  0
 46 70  1  0  0  0  0
 47 66  1  0  0  0  0
 48 65  1  0  0  0  0
 50 60  1  0  0  0  0
 51 61  1  0  0  0  0
 52 61  1  0  0  0  0
 53 61  1  0  0  0  0
 54 73  1  0  0  0  0
 55 57  1  0  0  0  0
 56 58  1  0  0  0  0
 57 72  1  0  0  0  0
 58 80  1  0  0  0  0
 59 61  1  0  0  0  0
 59 71  1  0  0  0  0
 60 73  1  0  0  0  0
 62 65  1  0  0  0  0
M  CHG  1  73   1
M  ISO  4  36 100  58 101  72 100  80 101
M  END
> <Batch ID>
0034

> <Smiles>
CNC(C)C(=O)NC(C(=O)N1Cc2cc([101O:1][101CH2:1]Cc3nc(C)cc(CC[100NH:0][100C:0](=O)N4CCCC(n5nc(-c6ccc(Oc7ccc(F)cc7F)cc6)c(C(N)=O)c5N)C4)n3)ccc2CC1C(=O)NC1CCCc2ccccc21)C(C)(C)C

> <Shape>
0.214

> <Color>
0.072

> <Negative vol penalty>
0.000

$$$$

  -OEChem-04052316503D

 82 90  0     1  0  0  0  0  0999 V2000
  -24.3502  -23.6697   20.3721 C   0  0  0  0  0  0  0  0  0  0  0  0
  -24.7993  -22.5688   19.6515 C   0  0  0  0  0  0  0  0  0  0  0  0
  -26.2723  -28.0239   18.8586 C   0  0  0  0  0  0  0  0  0  0  0  0
  -26.5238  -27.8684   21.2564 C   0  0  0  0  0  0  0  0  0  0  0  0
  -23.9842  -23.5213   21.7082 C   0  0  0  0  0  0  0  0  0  0  0  0
  -24.8714  -21.3169   20.2634 C   0  0  0  0  0  0  0  0  0  0  0  0
  -26.9724  -15.9968   18.1635 C   0  0  0  0  0  0  0  0  0  0  0  0
  -25.1618  -28.8506   19.0287 C   0  0  0  0  0  0  0  0  0  0  0  0
  -25.4133  -28.6951   21.4265 C   0  0  0  0  0  0  0  0  0  0  0  0
  -28.1777  -15.2960   18.1587 C   0  0  0  0  0  0  0  0  0  0  0  0
  -22.0472  -28.4008   21.3099 C   0  0  0  0  0  0  0  0  0  0  0  0
  -21.1007  -28.0266   22.2637 C   0  0  0  0  0  0  0  0  0  0  0  0
  -27.4490  -14.0415   20.0860 C   0  0  0  0  0  0  0  0  0  0  0  0
  -30.7154  -16.0536   21.4778 C   0  0  0  0  0  0  0  0  0  0  0  0
  -21.4795  -30.0960   23.4516 C   0  0  0  0  0  0  0  0  0  0  0  0
  -33.0929  -16.0675   21.5398 C   0  0  0  0  0  0  0  0  0  0  0  0
  -26.9533  -27.5328   19.9725 C   0  0  0  0  0  0  0  0  0  0  0  0
  -29.4461  -27.0749   19.6823 C   0  0  0  0  0  0  0  0  0  0  0  0
  -24.0640  -22.2691   22.3395 C   0  0  0  0  0  0  0  0  0  0  0  0
  -25.9992  -15.7323   19.1378 C   0  0  0  0  0  0  0  0  0  0  0  0
  -24.4838  -21.1420   21.6042 C   0  0  0  0  0  0  0  0  0  0  0  0
  -26.2312  -14.7385   20.0994 C   0  0  0  0  0  0  0  0  0  0  0  0
  -31.9166  -15.3780   21.2936 C   0  0  0  0  0  0  0  0  0  0  0  0
  -30.7271  -17.3794   21.8966 C   0  0  0  0  0  0  0  0  0  0  0  0
  -24.7323  -29.1862   20.3126 C   0  0  0  0  0  0  0  0  0  0  0  0
  -28.4173  -14.3203   19.1218 C   0  0  0  0  0  0  0  0  0  0  0  0
  -22.7099  -29.6226   21.4270 C   0  0  0  0  0  0  0  0  0  0  0  0
  -20.8168  -28.8741   23.3345 C   0  0  0  0  0  0  0  0  0  0  0  0
  -22.4261  -30.4702   22.4979 C   0  0  0  0  0  0  0  0  0  0  0  0
  -28.1002  -26.6783   19.7975 C   0  0  0  0  0  0  0  0  0  0  0  0
  -31.9566  -17.9793   22.1160 C   0  0  0  0  0  0  0  0  0  0  0  0
  -30.1392  -25.8984   19.5341 C   0  0  0  0  0  0  0  0  0  0  0  0
  -30.0185  -28.3892   19.7070 C   0  0  0  0  0  0  0  0  0  0  0  0
  -24.6209  -17.4244   21.4488 C   0  0  0  0  0  0  0  0  0  0  0  0
  -22.7908  -14.7655   21.7702 C   0  0  0  0  0  0  0  0  0  0  0  0
  -22.4648  -11.3997   21.3098 C   0  0  0  0  0  0  0  0  0  0  0  0
  -28.9367  -20.3810   21.2570 C   0  0  0  0  0  0  0  0  0  0  0  0
  -23.6479  -22.1636   23.7855 C   0  0  0  0  0  0  0  0  0  0  0  0
  -24.6933  -16.4783   19.1131 C   0  0  0  0  0  0  0  0  0  0  0  0
  -25.2105  -14.4025   21.1547 C   0  0  0  0  0  0  0  0  0  0  0  0
  -24.1760  -20.9048   24.4658 C   0  0  0  0  0  0  0  0  0  0  0  0
  -29.6361  -21.4400   17.8677 C   0  0  0  0  0  0  0  0  0  0  0  0
  -23.8763  -19.6852   23.6071 C   0  0  0  0  0  0  0  0  0  0  0  0
  -29.4460  -22.9540   17.9768 C   0  0  0  0  0  0  0  0  0  0  0  0
  -28.6216  -20.6921   18.7278 C   0  0  0  0  0  0  0  0  0  0  0  0
  -28.4317  -22.6003   20.2759 C   0  0  0  0  0  0  0  0  0  0  0  0
  -24.5995  -19.7766   22.2574 C   0  0  1  0  0  0  0  0  0  0  0  0
  -23.9838  -16.4857   20.4636 C   0  0  1  0  0  0  0  0  0  0  0  0
  -29.4421  -23.4138   19.4467 C   0  0  2  0  0  0  0  0  0  0  0  0
  -20.8715   -9.5022   21.7078 C   0  0  0  0  0  0  0  0  0  0  0  0
  -23.5428  -14.7575   24.7273 C   0  0  0  0  0  0  0  0  0  0  0  0
  -22.7392  -12.3897   24.8536 C   0  0  0  0  0  0  0  0  0  0  0  0
  -21.1467  -14.2153   24.2587 C   0  0  0  0  0  0  0  0  0  0  0  0
  -22.2477  -10.8221   18.4153 C   0  0  0  0  0  0  0  0  0  0  0  0
  -31.9381  -13.9397   20.8415 C   0  0  0  0  0  0  0  0  0  0  0  0
  -29.4369  -18.0991   22.0933 C   0  0  0  0  0  0  0  0  0  0  0  0
  -31.9800  -13.7725   19.3211 C   0  0  0  0  0  0  0  0  0  0  0  0
  -30.7418  -14.3182   18.6193 C   0  0  0  0  0  0  0  0  0  1  0  0
  -22.8879  -13.4917   22.5744 C   0  0  1  0  0  0  0  0  0  0  0  0
  -21.3370  -10.5673   20.7271 C   0  0  2  0  0  0  0  0  0  0  0  0
  -22.5994  -13.7210   24.0849 C   0  0  0  0  0  0  0  0  0  0  0  0
  -33.1441  -17.3554   21.9477 N   0  0  0  0  0  0  0  0  0  0  0  0
  -27.9453  -25.3535   19.7283 N   0  0  0  0  0  0  0  0  0  0  0  0
  -29.2028  -24.9073   19.5680 N   0  0  0  0  0  0  0  0  0  0  0  0
  -23.9519  -15.1638   21.0926 N   0  0  0  0  0  0  0  0  0  0  0  0
  -28.6819  -21.1637   20.1186 N   0  0  0  0  0  0  0  0  0  0  0  0
  -31.4521  -25.6253   19.3794 N   0  0  0  0  0  0  0  0  0  0  0  0
  -29.1629  -29.4877   19.8672 N   0  0  0  0  0  0  0  0  0  0  0  0
  -24.1281  -18.7144   21.3964 N   0  0  0  0  0  0  0  0  0  0  0  0
  -21.9921  -12.5350   21.9335 N   0  0  0  0  0  0  0  0  0  0  0  0
  -29.1563  -19.0292   21.0223 N   0  0  0  0  0  0  0  0  0  0  0  0
  -21.7847   -9.8914   19.4767 N   0  3  0  0  0  0  0  0  0  0  0  0
  -31.2504  -28.5847   19.5741 O   0  0  0  0  0  0  0  0  0  0  0  0
  -25.4938  -17.0088   22.2018 O   0  0  0  0  0  0  0  0  0  0  0  0
  -21.7220  -15.3806   21.7384 O   0  0  0  0  0  0  0  0  0  0  0  0
  -23.6466  -11.0735   21.2238 O   0  0  0  0  0  0  0  0  0  0  0  0
  -28.9713  -20.8531   22.3985 O   0  0  0  0  0  0  0  0  0  0  0  0
  -23.6488  -29.9931   20.4789 O   0  0  0  0  0  0  0  0  0  0  0  0
  -29.5932  -13.6353   19.1198 O   0  0  0  0  0  0  0  0  0  1  0  0
  -19.9067  -28.5153   24.2495 F   0  0  0  0  0  0  0  0  0  0  0  0
  -23.0587  -31.6457   22.6151 F   0  0  0  0  0  0  0  0  0  0  0  0
  -32.1016  -19.6124   22.6365 Cl  0  0  0  0  0  0  0  0  0  0  0  0
  1  2  1  0  0  0  0
  1  5  2  0  0  0  0
  2  6  2  0  0  0  0
  3  8  2  0  0  0  0
  3 17  1  0  0  0  0
  4  9  1  0  0  0  0
  4 17  2  0  0  0  0
  5 19  1  0  0  0  0
  6 21  1  0  0  0  0
  7 10  2  0  0  0  0
  7 20  1  0  0  0  0
  8 25  1  0  0  0  0
  9 25  2  0  0  0  0
 10 26  1  0  0  0  0
 11 12  2  0  0  0  0
 11 27  1  0  0  0  0
 12 28  1  0  0  0  0
 13 22  1  0  0  0  0
 13 26  2  0  0  0  0
 14 23  2  0  0  0  0
 14 24  1  0  0  0  0
 15 28  2  0  0  0  0
 15 29  1  0  0  0  0
 16 23  1  0  0  0  0
 16 62  2  0  0  0  0
 17 30  1  0  0  0  0
 18 30  1  0  0  0  0
 18 32  2  0  0  0  0
 18 33  1  0  0  0  0
 19 21  2  0  0  0  0
 19 38  1  0  0  0  0
 20 22  2  0  0  0  0
 20 39  1  0  0  0  0
 21 47  1  0  0  0  0
 22 40  1  0  0  0  0
 23 55  1  0  0  0  0
 24 31  2  0  0  0  0
 24 56  1  0  0  0  0
 25 78  1  0  0  0  0
 26 79  1  0  0  0  0
 27 29  2  0  0  0  0
 27 78  1  0  0  0  0
 28 80  1  0  0  0  0
 29 81  1  0  0  0  0
 30 63  2  0  0  0  0
 31 62  1  0  0  0  0
 31 82  1  0  0  0  0
 32 64  1  0  0  0  0
 32 67  1  0  0  0  0
 33 68  1  0  0  0  0
 33 73  2  0  0  0  0
 34 48  1  0  0  0  0
 34 69  1  0  0  0  0
 34 74  2  0  0  0  0
 35 59  1  0  0  0  0
 35 65  1  0  0  0  0
 35 75  2  0  0  0  0
 36 60  1  0  0  0  0
 36 70  1  0  0  0  0
 36 76  2  0  0  0  0
 37 66  1  0  0  0  0
 37 71  1  0  0  0  0
 37 77  2  0  0  0  0
 38 41  1  0  0  0  0
 39 48  1  0  0  0  0
 40 65  1  0  0  0  0
 41 43  1  0  0  0  0
 42 44  1  0  0  0  0
 42 45  1  0  0  0  0
 43 47  1  0  0  0  0
 44 49  1  0  0  0  0
 45 66  1  0  0  0  0
 46 49  1  0  0  0  0
 46 66  1  0  0  0  0
 47 69  1  0  0  0  0
 48 65  1  0  0  0  0
 49 64  1  0  0  0  0
 50 60  1  0  0  0  0
 51 61  1  0  0  0  0
 52 61  1  0  0  0  0
 53 61  1  0  0  0  0
 54 72  1  0  0  0  0
 55 57  1  0  0  0  0
 56 71  1  0  0  0  0
 57 58  1  0  0  0  0
 58 79  1  0  0  0  0
 59 61  1  0  0  0  0
 59 70  1  0  0  0  0
 60 72  1  0  0  0  0
 63 64  1  0  0  0  0
M  CHG  1  72   1
M  ISO  4  37 100  58 101  71 100  79 101
M  END
> <Batch ID>
0034

> <Smiles>
CNC(C)C(=O)NC(C(=O)N1Cc2cc([101O:1][101CH2:1]CCc3cnc(Cl)c(C[100NH:0][100C:0](=O)N4CCCC(n5nc(-c6ccc(Oc7ccc(F)cc7F)cc6)c(C(N)=O)c5N)C4)c3)ccc2CC1C(=O)NC1CCCc2ccccc21)C(C)(C)C

> <Shape>
0.272

> <Color>
0.051

> <Negative vol penalty>
0.000

$$$$

  -OEChem-04052316503D

 84 92  0     1  0  0  0  0  0999 V2000
  -19.9504  -26.2682   11.6476 C   0  0  0  0  0  0  0  0  0  0  0  0
  -20.6889  -26.4432   12.8135 C   0  0  0  0  0  0  0  0  0  0  0  0
  -29.0501  -17.5782   19.5855 C   0  0  0  0  0  0  0  0  0  0  0  0
  -30.8469  -17.9781   21.1504 C   0  0  0  0  0  0  0  0  0  0  0  0
  -18.9343  -25.3145   11.6039 C   0  0  0  0  0  0  0  0  0  0  0  0
  -20.4110  -25.6652   13.9369 C   0  0  0  0  0  0  0  0  0  0  0  0
  -24.6017  -23.8738   16.1446 C   0  0  0  0  0  0  0  0  0  0  0  0
  -29.5335  -16.2894   19.3598 C   0  0  0  0  0  0  0  0  0  0  0  0
  -31.3303  -16.6893   20.9246 C   0  0  0  0  0  0  0  0  0  0  0  0
  -25.3272  -24.7561   16.9440 C   0  0  0  0  0  0  0  0  0  0  0  0
  -30.0860  -12.7687   18.6429 C   0  0  0  0  0  0  0  0  0  0  0  0
  -29.1619  -11.7240   18.6209 C   0  0  0  0  0  0  0  0  0  0  0  0
  -24.3222  -23.7894   18.9124 C   0  0  0  0  0  0  0  0  0  0  0  0
  -28.5221  -12.2423   20.8923 C   0  0  0  0  0  0  0  0  0  0  0  0
  -24.1246  -28.6710   24.4067 C   0  0  0  0  0  0  0  0  0  0  0  0
  -29.7068  -18.4226   20.4808 C   0  0  0  0  0  0  0  0  0  0  0  0
  -28.2724  -20.1533   21.6869 C   0  0  0  0  0  0  0  0  0  0  0  0
  -18.6502  -24.5178   12.7243 C   0  0  0  0  0  0  0  0  0  0  0  0
  -23.7214  -22.9485   16.7234 C   0  0  0  0  0  0  0  0  0  0  0  0
  -19.3892  -24.7009   13.9086 C   0  0  0  0  0  0  0  0  0  0  0  0
  -23.5887  -22.8948   18.1183 C   0  0  0  0  0  0  0  0  0  0  0  0
  -25.4229  -28.1877   24.4345 C   0  0  0  0  0  0  0  0  0  0  0  0
  -25.9806  -27.7513   23.2380 C   0  0  0  0  0  0  0  0  0  0  0  0
  -25.2336  -27.8106   22.0667 C   0  0  0  0  0  0  0  0  0  0  0  0
  -30.6736  -15.8449   20.0293 C   0  0  0  0  0  0  0  0  0  0  0  0
  -25.1853  -24.7160   18.3279 C   0  0  0  0  0  0  0  0  0  0  0  0
  -30.2281  -13.5501   19.7896 C   0  0  0  0  0  0  0  0  0  0  0  0
  -28.3800  -11.4609   19.7456 C   0  0  0  0  0  0  0  0  0  0  0  0
  -29.4462  -13.2869   20.9142 C   0  0  0  0  0  0  0  0  0  0  0  0
  -29.2083  -19.7542   20.7140 C   0  0  0  0  0  0  0  0  0  0  0  0
  -23.9437  -28.3106   22.1450 C   0  0  0  0  0  0  0  0  0  0  0  0
  -28.1368  -21.5069   21.4981 C   0  0  0  0  0  0  0  0  0  0  0  0
  -27.5870  -19.3703   22.6733 C   0  0  0  0  0  0  0  0  0  0  0  0
  -20.5896  -22.4288   16.5638 C   0  0  0  0  0  0  0  0  0  0  0  0
  -21.3257  -19.8197   18.3450 C   0  0  0  0  0  0  0  0  0  0  0  0
  -23.4804  -18.3094   20.5183 C   0  0  0  0  0  0  0  0  0  0  0  0
  -30.3669  -26.5422   20.5940 C   0  0  0  0  0  0  0  0  0  0  0  0
  -17.5110  -23.5327   12.6444 C   0  0  0  0  0  0  0  0  0  0  0  0
  -22.9662  -21.9856   15.8488 C   0  0  0  0  0  0  0  0  0  0  0  0
  -22.6720  -21.9065   18.7902 C   0  0  0  0  0  0  0  0  0  0  0  0
  -17.5284  -22.4897   13.7589 C   0  0  0  0  0  0  0  0  0  0  0  0
  -29.7649  -24.4874   17.7494 C   0  0  0  0  0  0  0  0  0  0  0  0
  -17.7719  -23.1556   15.1095 C   0  0  0  0  0  0  0  0  0  0  0  0
  -29.4956  -23.1053   18.3470 C   0  0  0  0  0  0  0  0  0  0  0  0
  -30.8327  -25.2442   18.5362 C   0  0  0  0  0  0  0  0  0  0  0  0
  -30.3027  -23.9747   20.5811 C   0  0  0  0  0  0  0  0  0  0  0  0
  -19.1342  -23.8591   15.1400 C   0  0  1  0  0  0  0  0  0  0  0  0
  -21.7115  -21.4305   16.5157 C   0  0  1  0  0  0  0  0  0  0  0  0
  -29.1929  -23.1956   19.8548 C   0  0  2  0  0  0  0  0  0  0  0  0
  -26.1760  -28.1474   25.7192 C   0  0  0  0  0  0  0  0  0  0  0  0
  -23.0927  -28.3978   20.9204 C   0  0  0  0  0  0  0  0  0  0  0  0
  -24.4582  -16.4856   21.9378 C   0  0  0  0  0  0  0  0  0  0  0  0
  -19.2224  -20.7500   20.3500 C   0  0  0  0  0  0  0  0  0  0  0  0
  -20.2289  -19.1860   22.0260 C   0  0  0  0  0  0  0  0  0  0  0  0
  -19.2373  -18.2862   19.9214 C   0  0  0  0  0  0  0  0  0  0  0  0
  -25.1123  -17.2789   18.2747 C   0  0  0  0  0  0  0  0  0  0  0  0
  -27.3783  -27.2205   23.2134 C   0  0  0  0  0  0  0  0  0  0  0  0
  -25.8110  -27.3462   20.7517 C   0  0  0  0  0  0  0  0  0  0  0  0
  -28.4292  -28.2249   22.7053 C   0  0  0  0  0  0  0  0  0  0  0  0
  -29.8638  -27.7017   22.7298 C   0  0  0  0  0  0  0  0  0  0  0  0
  -25.2952  -25.9699   20.3457 C   0  0  0  0  0  0  0  0  0  1  0  0
  -21.4360  -19.5303   19.8225 C   0  0  1  0  0  0  0  0  0  0  0  0
  -24.0937  -16.9208   20.5270 C   0  0  2  0  0  0  0  0  0  0  0  0
  -20.0470  -19.4582   20.5175 C   0  0  0  0  0  0  0  0  0  0  0  0
  -23.3680  -28.7440   23.2888 N   0  0  0  0  0  0  0  0  0  0  0  0
  -29.6368  -20.7720   19.9626 N   0  0  0  0  0  0  0  0  0  0  0  0
  -28.9671  -21.8240   20.4635 N   0  0  0  0  0  0  0  0  0  0  0  0
  -21.9504  -20.9902   17.8917 N   0  0  0  0  0  0  0  0  0  0  0  0
  -30.4848  -25.2952   19.9583 N   0  0  0  0  0  0  0  0  0  0  0  0
  -27.3894  -22.4450   22.1176 N   0  0  0  0  0  0  0  0  0  0  0  0
  -27.8432  -17.9936   22.7298 N   0  0  0  0  0  0  0  0  0  0  0  0
  -20.1972  -22.8943   15.3233 N   0  0  0  0  0  0  0  0  0  0  0  0
  -22.2278  -18.3109   19.9417 N   0  0  0  0  0  0  0  0  0  0  0  0
  -30.0280  -26.5011   21.9409 N   0  0  0  0  0  0  0  0  0  0  0  0
  -25.3287  -16.8948   19.6933 N   0  3  0  0  0  0  0  0  0  0  0  0
  -26.7592  -19.8739   23.4700 O   0  0  0  0  0  0  0  0  0  0  0  0
  -20.1141  -22.7517   17.6460 O   0  0  0  0  0  0  0  0  0  0  0  0
  -20.7142  -19.0323   17.6186 O   0  0  0  0  0  0  0  0  0  0  0  0
  -24.0534  -19.2935   20.9804 O   0  0  0  0  0  0  0  0  0  0  0  0
  -30.5449  -27.6131   20.0036 O   0  0  0  0  0  0  0  0  0  0  0  0
  -31.1454  -14.5873   19.8095 O   0  0  0  0  0  0  0  0  0  0  0  0
  -25.8917  -25.5765   19.1105 O   0  0  0  0  0  0  0  0  0  1  0  0
  -27.4916  -10.4587   19.7239 F   0  0  0  0  0  0  0  0  0  0  0  0
  -29.5774  -14.0350   22.0183 F   0  0  0  0  0  0  0  0  0  0  0  0
  1  2  1  0  0  0  0
  1  5  2  0  0  0  0
  2  6  2  0  0  0  0
  3  8  2  0  0  0  0
  3 16  1  0  0  0  0
  4  9  1  0  0  0  0
  4 16  2  0  0  0  0
  5 18  1  0  0  0  0
  6 20  1  0  0  0  0
  7 10  2  0  0  0  0
  7 19  1  0  0  0  0
  8 25  1  0  0  0  0
  9 25  2  0  0  0  0
 10 26  1  0  0  0  0
 11 12  2  0  0  0  0
 11 27  1  0  0  0  0
 12 28  1  0  0  0  0
 13 21  1  0  0  0  0
 13 26  2  0  0  0  0
 14 28  2  0  0  0  0
 14 29  1  0  0  0  0
 15 22  2  0  0  0  0
 15 65  1  0  0  0  0
 16 30  1  0  0  0  0
 17 30  1  0  0  0  0
 17 32  2  0  0  0  0
 17 33  1  0  0  0  0
 18 20  2  0  0  0  0
 18 38  1  0  0  0  0
 19 21  2  0  0  0  0
 19 39  1  0  0  0  0
 20 47  1  0  0  0  0
 21 40  1  0  0  0  0
 22 23  1  0  0  0  0
 22 50  1  0  0  0  0
 23 24  2  0  0  0  0
 23 57  1  0  0  0  0
 24 31  1  0  0  0  0
 24 58  1  0  0  0  0
 25 81  1  0  0  0  0
 26 82  1  0  0  0  0
 27 29  2  0  0  0  0
 27 81  1  0  0  0  0
 28 83  1  0  0  0  0
 29 84  1  0  0  0  0
 30 66  2  0  0  0  0
 31 51  1  0  0  0  0
 31 65  2  0  0  0  0
 32 67  1  0  0  0  0
 32 70  1  0  0  0  0
 33 71  1  0  0  0  0
 33 76  2  0  0  0  0
 34 48  1  0  0  0  0
 34 72  1  0  0  0  0
 34 77  2  0  0  0  0
 35 62  1  0  0  0  0
 35 68  1  0  0  0  0
 35 78  2  0  0  0  0
 36 63  1  0  0  0  0
 36 73  1  0  0  0  0
 36 79  2  0  0  0  0
 37 69  1  0  0  0  0
 37 74  1  0  0  0  0
 37 80  2  0  0  0  0
 38 41  1  0  0  0  0
 39 48  1  0  0  0  0
 40 68  1  0  0  0  0
 41 43  1  0  0  0  0
 42 44  1  0  0  0  0
 42 45  1  0  0  0  0
 43 47  1  0  0  0  0
 44 49  1  0  0  0  0
 45 69  1  0  0  0  0
 46 49  1  0  0  0  0
 46 69  1  0  0  0  0
 47 72  1  0  0  0  0
 48 68  1  0  0  0  0
 49 67  1  0  0  0  0
 52 63  1  0  0  0  0
 53 64  1  0  0  0  0
 54 64  1  0  0  0  0
 55 64  1  0  0  0  0
 56 75  1  0  0  0  0
 57 59  1  0  0  0  0
 58 61  1  0  0  0  0
 59 60  1  0  0  0  0
 60 74  1  0  0  0  0
 61 82  1  0  0  0  0
 62 64  1  0  0  0  0
 62 73  1  0  0  0  0
 63 75  1  0  0  0  0
 66 67  1  0  0  0  0
M  CHG  1  75   1
M  ISO  4  37 100  61 101  74 100  82 101
M  END
> <Batch ID>
0034

> <Smiles>
CNC(C)C(=O)NC(C(=O)N1Cc2cc([101O:1][101CH2:1]Cc3c(C)ncc(C)c3CCC[100NH:0][100C:0](=O)N3CCCC(n4nc(-c5ccc(Oc6ccc(F)cc6F)cc5)c(C(N)=O)c4N)C3)ccc2CC1C(=O)NC1CCCc2ccccc21)C(C)(C)C

> <Shape>
0.179

> <Color>
0.064

> <Negative vol penalty>
0.000

$$$$

  -OEChem-04052316503D

 83 91  0     1  0  0  0  0  0999 V2000
  -26.0852  -18.3313   23.3739 C   0  0  0  0  0  0  0  0  0  0  0  0
  -26.1349  -19.5511   24.0392 C   0  0  0  0  0  0  0  0  0  0  0  0
  -26.8043  -15.1175   21.4256 C   0  0  0  0  0  0  0  0  0  0  0  0
  -26.7583  -15.6723   19.0746 C   0  0  0  0  0  0  0  0  0  0  0  0
  -25.3141  -18.2017   22.2207 C   0  0  0  0  0  0  0  0  0  0  0  0
  -25.4043  -20.6382   23.5584 C   0  0  0  0  0  0  0  0  0  0  0  0
  -25.1755  -26.4170   25.4769 C   0  0  0  0  0  0  0  0  0  0  0  0
  -25.6859  -14.3016   21.2550 C   0  0  0  0  0  0  0  0  0  0  0  0
  -25.6400  -14.8563   18.9040 C   0  0  0  0  0  0  0  0  0  0  0  0
  -25.8277  -27.6186   25.2036 C   0  0  0  0  0  0  0  0  0  0  0  0
  -23.0610  -11.7892   21.3673 C   0  0  0  0  0  0  0  0  0  0  0  0
  -23.0786  -10.5307   21.9685 C   0  0  0  0  0  0  0  0  0  0  0  0
  -24.0454  -28.2369   23.7001 C   0  0  0  0  0  0  0  0  0  0  0  0
  -29.8252  -27.8962   20.2246 C   0  0  0  0  0  0  0  0  0  0  0  0
  -27.1537  -28.1048   21.0008 C   0  0  0  0  0  0  0  0  0  0  0  0
  -25.0364   -9.9428   20.6806 C   0  0  0  0  0  0  0  0  0  0  0  0
  -27.3405  -15.8029   20.3355 C   0  0  0  0  0  0  0  0  0  0  0  0
  -29.8474  -16.2714   20.3961 C   0  0  0  0  0  0  0  0  0  0  0  0
  -24.5838  -19.2917   21.7192 C   0  0  0  0  0  0  0  0  0  0  0  0
  -23.9568  -26.1110   24.8544 C   0  0  0  0  0  0  0  0  0  0  0  0
  -24.6011  -20.5207   22.4096 C   0  0  0  0  0  0  0  0  0  0  0  0
  -23.3786  -27.0319   23.9691 C   0  0  0  0  0  0  0  0  0  0  0  0
  -29.3420  -29.0965   20.7456 C   0  0  0  0  0  0  0  0  0  0  0  0
  -28.9726  -26.8002   20.0916 C   0  0  0  0  0  0  0  0  0  0  0  0
  -28.0063  -29.2008   21.1337 C   0  0  0  0  0  0  0  0  0  0  0  0
  -25.1038  -14.1709   19.9942 C   0  0  0  0  0  0  0  0  0  0  0  0
  -25.2641  -28.5275   24.3129 C   0  0  0  0  0  0  0  0  0  0  0  0
  -24.0310  -12.1245   20.4226 C   0  0  0  0  0  0  0  0  0  0  0  0
  -24.0663   -9.6075   21.6252 C   0  0  0  0  0  0  0  0  0  0  0  0
  -27.6369  -26.9045   20.4797 C   0  0  0  0  0  0  0  0  0  0  0  0
  -25.0187  -11.2014   20.0793 C   0  0  0  0  0  0  0  0  0  0  0  0
  -28.4954  -16.6464   20.5112 C   0  0  0  0  0  0  0  0  0  0  0  0
  -30.5468  -17.4250   20.6538 C   0  0  0  0  0  0  0  0  0  0  0  0
  -30.4198  -14.9944   20.0841 C   0  0  0  0  0  0  0  0  0  0  0  0
  -22.9561  -23.8272   22.8830 C   0  0  0  0  0  0  0  0  0  0  0  0
  -20.0657  -25.2188   23.3640 C   0  0  0  0  0  0  0  0  0  0  0  0
  -18.3017  -28.0101   24.2266 C   0  0  0  0  0  0  0  0  0  0  0  0
  -29.1108  -23.1176   20.0315 C   0  0  0  0  0  0  0  0  0  0  0  0
  -23.7595  -19.0937   20.4715 C   0  0  0  0  0  0  0  0  0  0  0  0
  -23.2528  -24.8224   25.1803 C   0  0  0  0  0  0  0  0  0  0  0  0
  -22.0620  -26.7600   23.2902 C   0  0  0  0  0  0  0  0  0  0  0  0
  -23.3800  -20.4070   19.7951 C   0  0  0  0  0  0  0  0  0  0  0  0
  -30.2272  -21.5335   23.0879 C   0  0  0  0  0  0  0  0  0  0  0  0
  -22.7979  -21.3698   20.8190 C   0  0  0  0  0  0  0  0  0  0  0  0
  -30.0338  -20.0538   22.7518 C   0  0  0  0  0  0  0  0  0  0  0  0
  -29.1106  -22.3862   22.4928 C   0  0  0  0  0  0  0  0  0  0  0  0
  -28.7427  -20.7548   20.6826 C   0  0  0  0  0  0  0  0  0  0  0  0
  -23.8390  -21.7255   21.8880 C   0  0  1  0  0  0  0  0  0  0  0  0
  -22.2706  -24.3876   24.0969 C   0  0  1  0  0  0  0  0  0  0  0  0
  -29.8518  -19.8424   21.2371 C   0  0  2  0  0  0  0  0  0  0  0  0
  -30.2741  -30.2557   20.8794 C   0  0  0  0  0  0  0  0  0  0  0  0
  -15.9526  -28.8520   24.4918 C   0  0  0  0  0  0  0  0  0  0  0  0
  -19.7985  -25.4213   20.3312 C   0  0  0  0  0  0  0  0  0  0  0  0
  -17.9513  -27.0761   20.6743 C   0  0  0  0  0  0  0  0  0  0  0  0
  -17.7056  -24.7422   21.5199 C   0  0  0  0  0  0  0  0  0  0  0  0
  -18.7057  -28.5757   27.1033 C   0  0  0  0  0  0  0  0  0  0  0  0
  -27.4608  -30.4876   21.6993 C   0  0  0  0  0  0  0  0  0  0  0  0
  -29.4917  -25.5184   19.5331 C   0  0  0  0  0  0  0  0  0  0  0  0
  -27.8673  -30.7430   23.1523 C   0  0  0  0  0  0  0  0  0  0  0  0
  -27.3236  -29.7016   24.1234 C   0  0  0  0  0  0  0  0  0  1  0  0
  -19.2877  -26.3260   22.6948 C   0  0  1  0  0  0  0  0  0  0  0  0
  -17.1444  -28.2132   25.1877 C   0  0  2  0  0  0  0  0  0  0  0  0
  -18.7115  -25.8960   21.3162 C   0  0  0  0  0  0  0  0  0  0  0  0
  -28.3427  -17.9373   20.8183 N   0  0  0  0  0  0  0  0  0  0  0  0
  -29.6078  -18.3835   20.8984 N   0  0  0  0  0  0  0  0  0  0  0  0
  -21.4154  -25.4835   23.6366 N   0  0  0  0  0  0  0  0  0  0  0  0
  -29.0023  -22.1519   21.0459 N   0  0  0  0  0  0  0  0  0  0  0  0
  -31.8673  -17.7029   20.6928 N   0  0  0  0  0  0  0  0  0  0  0  0
  -29.5572  -13.9154   19.8471 N   0  0  0  0  0  0  0  0  0  0  0  0
  -23.1927  -22.4673   22.9480 N   0  0  0  0  0  0  0  0  0  0  0  0
  -18.2782  -26.7546   23.6569 N   0  0  0  0  0  0  0  0  0  0  0  0
  -29.3500  -24.4176   20.4600 N   0  0  0  0  0  0  0  0  0  0  0  0
  -17.5572  -29.0942   26.3166 N   0  3  0  0  0  0  0  0  0  0  0  0
  -31.6598  -14.8117   20.0335 O   0  0  0  0  0  0  0  0  0  0  0  0
  -23.2475  -24.5730   21.9554 O   0  0  0  0  0  0  0  0  0  0  0  0
  -19.4952  -24.1609   23.6412 O   0  0  0  0  0  0  0  0  0  0  0  0
  -19.1404  -28.8796   24.0007 O   0  0  0  0  0  0  0  0  0  0  0  0
  -29.0075  -22.8410   18.8315 O   0  0  0  0  0  0  0  0  0  0  0  0
  -24.0127  -13.3746   19.8272 O   0  0  0  0  0  0  0  0  0  0  0  0
  -25.8988  -29.7008   24.0439 O   0  0  0  0  0  0  0  0  0  1  0  0
  -24.0840   -8.3996   22.2037 F   0  0  0  0  0  0  0  0  0  0  0  0
  -26.8100  -25.8568   20.3556 F   0  0  0  0  0  0  0  0  0  0  0  0
  -25.9540  -11.5182   19.1734 F   0  0  0  0  0  0  0  0  0  0  0  0
  1  2  1  0  0  0  0
  1  5  2  0  0  0  0
  2  6  2  0  0  0  0
  3  8  2  0  0  0  0
  3 17  1  0  0  0  0
  4  9  1  0  0  0  0
  4 17  2  0  0  0  0
  5 19  1  0  0  0  0
  6 21  1  0  0  0  0
  7 10  2  0  0  0  0
  7 20  1  0  0  0  0
  8 26  1  0  0  0  0
  9 26  2  0  0  0  0
 10 27  1  0  0  0  0
 11 12  2  0  0  0  0
 11 28  1  0  0  0  0
 12 29  1  0  0  0  0
 13 22  1  0  0  0  0
 13 27  2  0  0  0  0
 14 23  1  0  0  0  0
 14 24  2  0  0  0  0
 15 25  1  0  0  0  0
 15 30  2  0  0  0  0
 16 29  2  0  0  0  0
 16 31  1  0  0  0  0
 17 32  1  0  0  0  0
 18 32  1  0  0  0  0
 18 33  2  0  0  0  0
 18 34  1  0  0  0  0
 19 21  2  0  0  0  0
 19 39  1  0  0  0  0
 20 22  2  0  0  0  0
 20 40  1  0  0  0  0
 21 48  1  0  0  0  0
 22 41  1  0  0  0  0
 23 25  2  0  0  0  0
 23 51  1  0  0  0  0
 24 30  1  0  0  0  0
 24 58  1  0  0  0  0
 25 57  1  0  0  0  0
 26 79  1  0  0  0  0
 27 80  1  0  0  0  0
 28 31  2  0  0  0  0
 28 79  1  0  0  0  0
 29 81  1  0  0  0  0
 30 82  1  0  0  0  0
 31 83  1  0  0  0  0
 32 64  2  0  0  0  0
 33 65  1  0  0  0  0
 33 68  1  0  0  0  0
 34 69  1  0  0  0  0
 34 74  2  0  0  0  0
 35 49  1  0  0  0  0
 35 70  1  0  0  0  0
 35 75  2  0  0  0  0
 36 61  1  0  0  0  0
 36 66  1  0  0  0  0
 36 76  2  0  0  0  0
 37 62  1  0  0  0  0
 37 71  1  0  0  0  0
 37 77  2  0  0  0  0
 38 67  1  0  0  0  0
 38 72  1  0  0  0  0
 38 78  2  0  0  0  0
 39 42  1  0  0  0  0
 40 49  1  0  0  0  0
 41 66  1  0  0  0  0
 42 44  1  0  0  0  0
 43 45  1  0  0  0  0
 43 46  1  0  0  0  0
 44 48  1  0  0  0  0
 45 50  1  0  0  0  0
 46 67  1  0  0  0  0
 47 50  1  0  0  0  0
 47 67  1  0  0  0  0
 48 70  1  0  0  0  0
 49 66  1  0  0  0  0
 50 65  1  0  0  0  0
 52 62  1  0  0  0  0
 53 63  1  0  0  0  0
 54 63  1  0  0  0  0
 55 63  1  0  0  0  0
 56 73  1  0  0  0  0
 57 59  1  0  0  0  0
 58 72  1  0  0  0  0
 59 60  1  0  0  0  0
 60 80  1  0  0  0  0
 61 63  1  0  0  0  0
 61 71  1  0  0  0  0
 62 73  1  0  0  0  0
 64 65  1  0  0  0  0
M  CHG  1  73   1
M  ISO  4  38 100  60 101  72 100  80 101
M  END
> <Batch ID>
0034

> <Smiles>
CNC(C)C(=O)NC(C(=O)N1Cc2cc([101O:1][101CH2:1]CCc3cc(F)c(C[100NH:0][100C:0](=O)N4CCCC(n5nc(-c6ccc(Oc7ccc(F)cc7F)cc6)c(C(N)=O)c5N)C4)cc3C)ccc2CC1C(=O)NC1CCCc2ccccc21)C(C)(C)C

> <Shape>
0.243

> <Color>
0.040

> <Negative vol penalty>
0.000

$$$$

  -OEChem-04052316503D

 88 96  0     1  0  0  0  0  0999 V2000
  -30.9317  -26.1335   31.8329 C   0  0  0  0  0  0  0  0  0  0  0  0
  -30.3892  -25.3999   30.7826 C   0  0  0  0  0  0  0  0  0  0  0  0
  -23.0720   -9.8705   19.9438 C   0  0  0  0  0  0  0  0  0  0  0  0
  -23.8343   -9.8788   22.2364 C   0  0  0  0  0  0  0  0  0  0  0  0
  -32.2993  -26.0659   32.0956 C   0  0  0  0  0  0  0  0  0  0  0  0
  -31.2143  -24.5992   29.9937 C   0  0  0  0  0  0  0  0  0  0  0  0
  -29.2220  -20.0268   29.1169 C   0  0  0  0  0  0  0  0  0  0  0  0
  -22.3284   -8.7176   20.1952 C   0  0  0  0  0  0  0  0  0  0  0  0
  -23.0906   -8.7258   22.4878 C   0  0  0  0  0  0  0  0  0  0  0  0
  -28.2245  -19.9424   28.1466 C   0  0  0  0  0  0  0  0  0  0  0  0
  -22.9009   -5.3992   20.4874 C   0  0  0  0  0  0  0  0  0  0  0  0
  -22.9667   -4.3691   19.5493 C   0  0  0  0  0  0  0  0  0  0  0  0
  -29.8477  -19.1318   26.5569 C   0  0  0  0  0  0  0  0  0  0  0  0
  -24.4270  -18.5288   25.1514 C   0  0  0  0  0  0  0  0  0  0  0  0
  -25.3236  -20.5038   24.0873 C   0  0  0  0  0  0  0  0  0  0  0  0
  -20.5818   -4.5348   19.2000 C   0  0  0  0  0  0  0  0  0  0  0  0
  -23.8251  -10.4511   20.9644 C   0  0  0  0  0  0  0  0  0  0  0  0
  -24.1668  -12.9762   20.8426 C   0  0  0  0  0  0  0  0  0  0  0  0
  -33.1400  -25.2565   31.3156 C   0  0  0  0  0  0  0  0  0  0  0  0
  -30.5443  -19.6742   28.8109 C   0  0  0  0  0  0  0  0  0  0  0  0
  -32.5947  -24.5218   30.2454 C   0  0  0  0  0  0  0  0  0  0  0  0
  -30.8597  -19.2102   27.5259 C   0  0  0  0  0  0  0  0  0  0  0  0
  -25.3125  -19.6065   25.1552 C   0  0  0  0  0  0  0  0  0  0  0  0
  -23.5526  -18.3483   24.0797 C   0  0  0  0  0  0  0  0  0  0  0  0
  -24.4492  -20.3234   23.0156 C   0  0  0  0  0  0  0  0  0  0  0  0
  -22.3376   -8.1452   21.4672 C   0  0  0  0  0  0  0  0  0  0  0  0
  -28.5378  -19.4976   26.8656 C   0  0  0  0  0  0  0  0  0  0  0  0
  -21.6755   -5.9971   20.7819 C   0  0  0  0  0  0  0  0  0  0  0  0
  -21.8072   -3.9369   18.9056 C   0  0  0  0  0  0  0  0  0  0  0  0
  -20.5160   -5.5649   20.1382 C   0  0  0  0  0  0  0  0  0  0  0  0
  -23.5637  -19.2456   23.0118 C   0  0  0  0  0  0  0  0  0  0  0  0
  -24.5939  -11.6418   20.7052 C   0  0  0  0  0  0  0  0  0  0  0  0
  -25.2586  -13.7254   20.4777 C   0  0  0  0  0  0  0  0  0  0  0  0
  -22.8968  -13.4923   21.2625 C   0  0  0  0  0  0  0  0  0  0  0  0
  -33.3236  -21.2158   28.7648 C   0  0  0  0  0  0  0  0  0  0  0  0
  -34.5099  -18.2585   28.1572 C   0  0  0  0  0  0  0  0  0  0  0  0
  -33.9670  -15.1085   26.9615 C   0  0  0  0  0  0  0  0  0  0  0  0
  -30.7426  -14.7444   20.6598 C   0  0  0  0  0  0  0  0  0  0  0  0
  -34.6196  -25.2524   31.6081 C   0  0  0  0  0  0  0  0  0  0  0  0
  -31.6036  -19.7455   29.8764 C   0  0  0  0  0  0  0  0  0  0  0  0
  -32.2600  -18.8003   27.1523 C   0  0  0  0  0  0  0  0  0  0  0  0
  -35.3655  -24.0890   30.9597 C   0  0  0  0  0  0  0  0  0  0  0  0
  -29.6025  -12.3586   18.2756 C   0  0  0  0  0  0  0  0  0  0  0  0
  -34.9498  -23.9356   29.5000 C   0  0  0  0  0  0  0  0  0  0  0  0
  -28.1655  -12.0651   18.7102 C   0  0  0  0  0  0  0  0  0  0  0  0
  -30.5208  -12.5800   19.4754 C   0  0  0  0  0  0  0  0  0  0  0  0
  -28.6206  -13.3120   20.8636 C   0  0  0  0  0  0  0  0  0  0  0  0
  -33.4533  -23.6226   29.3826 C   0  0  1  0  0  0  0  0  0  0  0  0
  -33.0159  -19.8494   29.3088 C   0  0  1  0  0  0  0  0  0  0  0  0
  -27.6452  -13.1367   19.6870 C   0  0  2  0  0  0  0  0  0  0  0  0
  -22.6213  -17.1794   24.1181 C   0  0  0  0  0  0  0  0  0  0  0  0
  -35.1371  -12.9253   26.5594 C   0  0  0  0  0  0  0  0  0  0  0  0
  -35.8888  -19.4510   25.7105 C   0  0  0  0  0  0  0  0  0  0  0  0
  -36.2278  -17.1232   24.8535 C   0  0  0  0  0  0  0  0  0  0  0  0
  -37.2809  -17.8246   27.0033 C   0  0  0  0  0  0  0  0  0  0  0  0
  -32.1484  -13.6632   28.7952 C   0  0  0  0  0  0  0  0  0  0  0  0
  -24.4966  -21.3181   21.8832 C   0  0  0  0  0  0  0  0  0  0  0  0
  -26.2473  -19.7994   26.3011 C   0  0  0  0  0  0  0  0  0  1  0  0
  -25.2084  -20.7966   20.6297 C   0  0  0  0  0  0  0  0  0  0  0  0
  -26.6647  -20.3961   20.8905 C   0  0  0  0  0  0  0  0  0  0  0  0
  -27.3244  -19.8533   19.6202 C   0  0  0  0  0  0  0  0  0  0  0  0
  -28.8039  -19.5029   19.8051 C   0  0  0  0  0  0  0  0  0  0  0  0
  -29.0423  -18.3826   20.8212 C   0  0  0  0  0  0  0  0  0  0  0  0
  -30.5343  -18.0542   20.9414 C   0  0  0  0  0  0  0  0  0  0  0  0
  -30.8098  -16.8957   21.8954 C   0  0  0  0  0  0  0  0  0  0  0  0
  -34.7821  -17.4510   26.9111 C   0  0  1  0  0  0  0  0  0  0  0  0
  -34.3022  -13.7426   27.5328 C   0  0  2  0  0  0  0  0  0  0  0  0
  -36.0188  -17.9719   26.1258 C   0  0  0  0  0  0  0  0  0  0  0  0
  -25.8583  -11.5457   20.2856 N   0  0  0  0  0  0  0  0  0  0  0  0
  -26.2351  -12.8292   20.1562 N   0  0  0  0  0  0  0  0  0  0  0  0
  -33.2620  -18.8938   28.2270 N   0  0  0  0  0  0  0  0  0  0  0  0
  -29.9712  -13.6091   20.3614 N   0  0  0  0  0  0  0  0  0  0  0  0
  -25.4690  -15.0569   20.4037 N   0  0  0  0  0  0  0  0  0  0  0  0
  -21.8852  -12.5834   21.6014 N   0  0  0  0  0  0  0  0  0  0  0  0
  -33.2019  -22.2317   29.6936 N   0  0  0  0  0  0  0  0  0  0  0  0
  -34.8892  -16.0609   27.3407 N   0  0  0  0  0  0  0  0  0  0  0  0
  -30.1444  -15.6737   21.5019 N   0  0  0  0  0  0  0  0  0  0  0  0
  -33.0537  -12.9856   27.8318 N   0  3  0  0  0  0  0  0  0  0  0  0
  -22.6607  -14.7230   21.3194 O   0  0  0  0  0  0  0  0  0  0  0  0
  -33.6490  -21.3392   27.5898 O   0  0  0  0  0  0  0  0  0  0  0  0
  -35.3700  -18.3173   29.0396 O   0  0  0  0  0  0  0  0  0  0  0  0
  -32.9874  -15.3096   26.2471 O   0  0  0  0  0  0  0  0  0  0  0  0
  -31.8781  -14.9196   20.2049 O   0  0  0  0  0  0  0  0  0  0  0  0
  -21.6119   -7.0203   21.7129 O   0  0  0  0  0  0  0  0  0  0  0  0
  -27.5594  -19.4142   25.9099 O   0  0  0  0  0  0  0  0  0  1  0  0
  -21.8708   -2.9487   18.0036 F   0  0  0  0  0  0  0  0  0  0  0  0
  -19.3361   -6.1363   20.4160 F   0  0  0  0  0  0  0  0  0  0  0  0
  -22.4782  -19.0215   21.6811 Cl  0  0  0  0  0  0  0  0  0  0  0  0
  1  2  1  0  0  0  0
  1  5  2  0  0  0  0
  2  6  2  0  0  0  0
  3  8  2  0  0  0  0
  3 17  1  0  0  0  0
  4  9  1  0  0  0  0
  4 17  2  0  0  0  0
  5 19  1  0  0  0  0
  6 21  1  0  0  0  0
  7 10  2  0  0  0  0
  7 20  1  0  0  0  0
  8 26  1  0  0  0  0
  9 26  2  0  0  0  0
 10 27  1  0  0  0  0
 11 12  2  0  0  0  0
 11 28  1  0  0  0  0
 12 29  1  0  0  0  0
 13 22  1  0  0  0  0
 13 27  2  0  0  0  0
 14 23  1  0  0  0  0
 14 24  2  0  0  0  0
 15 23  2  0  0  0  0
 15 25  1  0  0  0  0
 16 29  2  0  0  0  0
 16 30  1  0  0  0  0
 17 32  1  0  0  0  0
 18 32  1  0  0  0  0
 18 33  2  0  0  0  0
 18 34  1  0  0  0  0
 19 21  2  0  0  0  0
 19 39  1  0  0  0  0
 20 22  2  0  0  0  0
 20 40  1  0  0  0  0
 21 48  1  0  0  0  0
 22 41  1  0  0  0  0
 23 58  1  0  0  0  0
 24 31  1  0  0  0  0
 24 51  1  0  0  0  0
 25 31  2  0  0  0  0
 25 57  1  0  0  0  0
 26 84  1  0  0  0  0
 27 85  1  0  0  0  0
 28 30  2  0  0  0  0
 28 84  1  0  0  0  0
 29 86  1  0  0  0  0
 30 87  1  0  0  0  0
 31 88  1  0  0  0  0
 32 69  2  0  0  0  0
 33 70  1  0  0  0  0
 33 73  1  0  0  0  0
 34 74  1  0  0  0  0
 34 79  2  0  0  0  0
 35 49  1  0  0  0  0
 35 75  1  0  0  0  0
 35 80  2  0  0  0  0
 36 66  1  0  0  0  0
 36 71  1  0  0  0  0
 36 81  2  0  0  0  0
 37 67  1  0  0  0  0
 37 76  1  0  0  0  0
 37 82  2  0  0  0  0
 38 72  1  0  0  0  0
 38 77  1  0  0  0  0
 38 83  2  0  0  0  0
 39 42  1  0  0  0  0
 40 49  1  0  0  0  0
 41 71  1  0  0  0  0
 42 44  1  0  0  0  0
 43 45  1  0  0  0  0
 43 46  1  0  0  0  0
 44 48  1  0  0  0  0
 45 50  1  0  0  0  0
 46 72  1  0  0  0  0
 47 50  1  0  0  0  0
 47 72  1  0  0  0  0
 48 75  1  0  0  0  0
 49 71  1  0  0  0  0
 50 70  1  0  0  0  0
 52 67  1  0  0  0  0
 53 68  1  0  0  0  0
 54 68  1  0  0  0  0
 55 68  1  0  0  0  0
 56 78  1  0  0  0  0
 57 59  1  0  0  0  0
 58 85  1  0  0  0  0
 59 60  1  0  0  0  0
 60 61  1  0  0  0  0
 61 62  1  0  0  0  0
 62 63  1  0  0  0  0
 63 64  1  0  0  0  0
 64 65  1  0  0  0  0
 65 77  1  0  0  0  0
 66 68  1  0  0  0  0
 66 76  1  0  0  0  0
 67 78  1  0  0  0  0
 69 70  1  0  0  0  0
M  CHG  1  78   1
M  ISO  4  38 100  58 101  77 100  85 101
M  END
> <Batch ID>
0034

> <Smiles>
CNC(C)C(=O)NC(C(=O)N1Cc2cc([101O:1][101CH2:1]c3cc(C)c(Cl)c(CCCCCCCC[100NH:0][100C:0](=O)N4CCCC(n5nc(-c6ccc(Oc7ccc(F)cc7F)cc6)c(C(N)=O)c5N)C4)c3)ccc2CC1C(=O)NC1CCCc2ccccc21)C(C)(C)C

> <Shape>
0.166

> <Color>
0.200

> <Negative vol penalty>
0.000

$$$$

  -OEChem-04052316503D

 84 92  0     1  0  0  0  0  0999 V2000
  -19.4505  -29.7367   29.6239 C   0  0  0  0  0  0  0  0  0  0  0  0
  -20.4689  -28.9909   29.0390 C   0  0  0  0  0  0  0  0  0  0  0  0
  -23.0750   -9.8684   19.9422 C   0  0  0  0  0  0  0  0  0  0  0  0
  -23.8387   -9.8755   22.2343 C   0  0  0  0  0  0  0  0  0  0  0  0
  -18.3384  -29.0924   30.1643 C   0  0  0  0  0  0  0  0  0  0  0  0
  -20.3763  -27.6003   28.9952 C   0  0  0  0  0  0  0  0  0  0  0  0
  -22.4059  -23.9138   24.5459 C   0  0  0  0  0  0  0  0  0  0  0  0
  -22.3325   -8.7146   20.1931 C   0  0  0  0  0  0  0  0  0  0  0  0
  -23.0962   -8.7217   22.4853 C   0  0  0  0  0  0  0  0  0  0  0  0
  -23.5661  -23.1518   24.4154 C   0  0  0  0  0  0  0  0  0  0  0  0
  -21.1157   -5.9827   23.8246 C   0  0  0  0  0  0  0  0  0  0  0  0
  -20.3615   -5.9382   24.9971 C   0  0  0  0  0  0  0  0  0  0  0  0
  -22.3788  -21.2158   25.2286 C   0  0  0  0  0  0  0  0  0  0  0  0
  -27.5601  -17.7826   22.6808 C   0  0  0  0  0  0  0  0  0  0  0  0
  -27.8175  -20.3137   23.8254 C   0  0  0  0  0  0  0  0  0  0  0  0
  -19.1141   -7.8747   24.2680 C   0  0  0  0  0  0  0  0  0  0  0  0
  -23.8282  -10.4489   20.9628 C   0  0  0  0  0  0  0  0  0  0  0  0
  -24.1678  -12.9743   20.8428 C   0  0  0  0  0  0  0  0  0  0  0  0
  -18.2276  -27.6937   30.1185 C   0  0  0  0  0  0  0  0  0  0  0  0
  -21.2243  -23.3341   25.0298 C   0  0  0  0  0  0  0  0  0  0  0  0
  -19.2623  -26.9366   29.5367 C   0  0  0  0  0  0  0  0  0  0  0  0
  -21.2043  -21.9720   25.3618 C   0  0  0  0  0  0  0  0  0  0  0  0
  -26.9037  -18.0777   23.8757 C   0  0  0  0  0  0  0  0  0  0  0  0
  -28.3452  -18.7531   22.0583 C   0  0  0  0  0  0  0  0  0  0  0  0
  -27.0324  -19.3432   24.4480 C   0  0  0  0  0  0  0  0  0  0  0  0
  -22.3430   -8.1413   21.4647 C   0  0  0  0  0  0  0  0  0  0  0  0
  -23.5535  -21.8033   24.7595 C   0  0  0  0  0  0  0  0  0  0  0  0
  -20.8692   -6.9732   22.8738 C   0  0  0  0  0  0  0  0  0  0  0  0
  -19.3606   -6.8842   25.2188 C   0  0  0  0  0  0  0  0  0  0  0  0
  -19.8684   -7.9191   23.0956 C   0  0  0  0  0  0  0  0  0  0  0  0
  -28.4739  -20.0186   22.6306 C   0  0  0  0  0  0  0  0  0  0  0  0
  -24.5959  -11.6404   20.7040 C   0  0  0  0  0  0  0  0  0  0  0  0
  -25.2587  -13.7248   20.4778 C   0  0  0  0  0  0  0  0  0  0  0  0
  -22.8976  -13.4890   21.2639 C   0  0  0  0  0  0  0  0  0  0  0  0
  -19.3621  -23.8162   27.5603 C   0  0  0  0  0  0  0  0  0  0  0  0
  -17.4656  -21.6314   26.0933 C   0  0  0  0  0  0  0  0  0  0  0  0
  -17.2047  -19.0265   23.9039 C   0  0  0  0  0  0  0  0  0  0  0  0
  -30.7419  -14.7482   20.6572 C   0  0  0  0  0  0  0  0  0  0  0  0
  -17.0288  -27.0392   30.7581 C   0  0  0  0  0  0  0  0  0  0  0  0
  -19.9742  -24.1633   25.1394 C   0  0  0  0  0  0  0  0  0  0  0  0
  -19.9561  -21.2971   25.8669 C   0  0  0  0  0  0  0  0  0  0  0  0
  -16.8315  -25.5853   30.3367 C   0  0  0  0  0  0  0  0  0  0  0  0
  -29.6023  -12.3633   18.2718 C   0  0  0  0  0  0  0  0  0  0  0  0
  -18.1523  -24.8253   30.4064 C   0  0  0  0  0  0  0  0  0  0  0  0
  -28.1658  -12.0683   18.7071 C   0  0  0  0  0  0  0  0  0  0  0  0
  -30.5212  -12.5846   19.4712 C   0  0  0  0  0  0  0  0  0  0  0  0
  -28.6212  -13.3138   20.8611 C   0  0  0  0  0  0  0  0  0  0  0  0
  -19.1866  -25.4278   29.4479 C   0  0  1  0  0  0  0  0  0  0  0  0
  -18.9633  -23.5923   26.1291 C   0  0  1  0  0  0  0  0  0  0  0  0
  -27.6452  -13.1387   19.6851 C   0  0  2  0  0  0  0  0  0  0  0  0
  -26.0702  -17.0229   24.5262 C   0  0  0  0  0  0  0  0  0  0  0  0
  -15.5321  -17.4225   22.9411 C   0  0  0  0  0  0  0  0  0  0  0  0
  -17.4905  -20.0448   28.6994 C   0  0  0  0  0  0  0  0  0  0  0  0
  -16.6420  -18.0660   27.4217 C   0  0  0  0  0  0  0  0  0  0  0  0
  -15.2670  -20.1428   27.5590 C   0  0  0  0  0  0  0  0  0  0  0  0
  -17.6748  -20.0075   21.1516 C   0  0  0  0  0  0  0  0  0  0  0  0
  -29.0320  -18.3971   20.7794 C   0  0  0  0  0  0  0  0  0  0  0  0
  -26.3338  -19.6845   25.7418 C   0  0  0  0  0  0  0  0  0  0  0  0
  -30.5251  -18.0527   20.9352 C   0  0  0  0  0  0  0  0  0  0  0  0
  -30.8081  -16.8985   21.8945 C   0  0  0  0  0  0  0  0  0  0  0  0
  -24.8492  -19.9688   25.5416 C   0  0  0  0  0  0  0  0  0  1  0  0
  -17.3476  -20.1267   26.1228 C   0  0  1  0  0  0  0  0  0  0  0  0
  -16.2351  -18.7597   22.7667 C   0  0  2  0  0  0  0  0  0  0  0  0
  -16.7110  -19.6080   27.4431 C   0  0  0  0  0  0  0  0  0  0  0  0
  -25.8601  -11.5457   20.2836 N   0  0  0  0  0  0  0  0  0  0  0  0
  -26.2358  -12.8296   20.1549 N   0  0  0  0  0  0  0  0  0  0  0  0
  -18.7610  -22.1516   25.9625 N   0  0  0  0  0  0  0  0  0  0  0  0
  -29.9713  -13.6125   20.3583 N   0  0  0  0  0  0  0  0  0  0  0  0
  -25.4679  -15.0564   20.4048 N   0  0  0  0  0  0  0  0  0  0  0  0
  -21.8870  -12.5789   21.6027 N   0  0  0  0  0  0  0  0  0  0  0  0
  -18.9169  -25.0133   28.0878 N   0  0  0  0  0  0  0  0  0  0  0  0
  -16.6153  -19.7509   24.9183 N   0  0  0  0  0  0  0  0  0  0  0  0
  -30.1435  -15.6763   21.5005 N   0  0  0  0  0  0  0  0  0  0  0  0
  -16.9571  -18.7447   21.4631 N   0  3  0  0  0  0  0  0  0  0  0  0
  -22.6604  -14.7194   21.3220 O   0  0  0  0  0  0  0  0  0  0  0  0
  -20.0235  -22.9652   28.1434 O   0  0  0  0  0  0  0  0  0  0  0  0
  -16.4453  -22.3197   26.1757 O   0  0  0  0  0  0  0  0  0  0  0  0
  -18.3675  -18.6286   23.8950 O   0  0  0  0  0  0  0  0  0  0  0  0
  -31.8770  -14.9247   20.2017 O   0  0  0  0  0  0  0  0  0  0  0  0
  -21.6184   -7.0155   21.7100 O   0  0  0  0  0  0  0  0  0  0  0  0
  -24.6847  -21.0574   24.6337 O   0  0  0  0  0  0  0  0  0  1  0  0
  -18.6353   -6.8404   26.3440 F   0  0  0  0  0  0  0  0  0  0  0  0
  -19.6262   -8.8723   22.1853 F   0  0  0  0  0  0  0  0  0  0  0  0
  -29.4367  -21.2445   21.8893 Cl  0  0  0  0  0  0  0  0  0  0  0  0
  1  2  1  0  0  0  0
  1  5  2  0  0  0  0
  2  6  2  0  0  0  0
  3  8  2  0  0  0  0
  3 17  1  0  0  0  0
  4  9  1  0  0  0  0
  4 17  2  0  0  0  0
  5 19  1  0  0  0  0
  6 21  1  0  0  0  0
  7 10  2  0  0  0  0
  7 20  1  0  0  0  0
  8 26  1  0  0  0  0
  9 26  2  0  0  0  0
 10 27  1  0  0  0  0
 11 12  2  0  0  0  0
 11 28  1  0  0  0  0
 12 29  1  0  0  0  0
 13 22  1  0  0  0  0
 13 27  2  0  0  0  0
 14 23  1  0  0  0  0
 14 24  2  0  0  0  0
 15 25  1  0  0  0  0
 15 31  2  0  0  0  0
 16 29  2  0  0  0  0
 16 30  1  0  0  0  0
 17 32  1  0  0  0  0
 18 32  1  0  0  0  0
 18 33  2  0  0  0  0
 18 34  1  0  0  0  0
 19 21  2  0  0  0  0
 19 39  1  0  0  0  0
 20 22  2  0  0  0  0
 20 40  1  0  0  0  0
 21 48  1  0  0  0  0
 22 41  1  0  0  0  0
 23 25  2  0  0  0  0
 23 51  1  0  0  0  0
 24 31  1  0  0  0  0
 24 57  1  0  0  0  0
 25 58  1  0  0  0  0
 26 80  1  0  0  0  0
 27 81  1  0  0  0  0
 28 30  2  0  0  0  0
 28 80  1  0  0  0  0
 29 82  1  0  0  0  0
 30 83  1  0  0  0  0
 31 84  1  0  0  0  0
 32 65  2  0  0  0  0
 33 66  1  0  0  0  0
 33 69  1  0  0  0  0
 34 70  1  0  0  0  0
 34 75  2  0  0  0  0
 35 49  1  0  0  0  0
 35 71  1  0  0  0  0
 35 76  2  0  0  0  0
 36 62  1  0  0  0  0
 36 67  1  0  0  0  0
 36 77  2  0  0  0  0
 37 63  1  0  0  0  0
 37 72  1  0  0  0  0
 37 78  2  0  0  0  0
 38 68  1  0  0  0  0
 38 73  1  0  0  0  0
 38 79  2  0  0  0  0
 39 42  1  0  0  0  0
 40 49  1  0  0  0  0
 41 67  1  0  0  0  0
 42 44  1  0  0  0  0
 43 45  1  0  0  0  0
 43 46  1  0  0  0  0
 44 48  1  0  0  0  0
 45 50  1  0  0  0  0
 46 68  1  0  0  0  0
 47 50  1  0  0  0  0
 47 68  1  0  0  0  0
 48 71  1  0  0  0  0
 49 67  1  0  0  0  0
 50 66  1  0  0  0  0
 52 63  1  0  0  0  0
 53 64  1  0  0  0  0
 54 64  1  0  0  0  0
 55 64  1  0  0  0  0
 56 74  1  0  0  0  0
 57 59  1  0  0  0  0
 58 61  1  0  0  0  0
 59 60  1  0  0  0  0
 60 73  1  0  0  0  0
 61 81  1  0  0  0  0
 62 64  1  0  0  0  0
 62 72  1  0  0  0  0
 63 74  1  0  0  0  0
 65 66  1  0  0  0  0
M  CHG  1  74   1
M  ISO  4  38 100  61 101  73 100  81 101
M  END
> <Batch ID>
0034

> <Smiles>
CNC(C)C(=O)NC(C(=O)N1Cc2cc([101O:1][101CH2:1]Cc3cc(Cl)c(CCC[100NH:0][100C:0](=O)N4CCCC(n5nc(-c6ccc(Oc7ccc(F)cc7F)cc6)c(C(N)=O)c5N)C4)cc3C)ccc2CC1C(=O)NC1CCCc2ccccc21)C(C)(C)C

> <Shape>
0.174

> <Color>
0.200

> <Negative vol penalty>
0.000

$$$$

  -OEChem-04052316503D

 84 92  0     1  0  0  0  0  0999 V2000
  -30.5529  -34.3002   29.3046 C   0  0  0  0  0  0  0  0  0  0  0  0
  -30.6474  -32.9316   29.0738 C   0  0  0  0  0  0  0  0  0  0  0  0
  -23.0005   -9.8942   19.9858 C   0  0  0  0  0  0  0  0  0  0  0  0
  -23.7595   -9.9374   22.2791 C   0  0  0  0  0  0  0  0  0  0  0  0
  -30.1972  -35.1584   28.2650 C   0  0  0  0  0  0  0  0  0  0  0  0
  -30.3850  -32.4202   27.8034 C   0  0  0  0  0  0  0  0  0  0  0  0
  -33.1187  -27.6407   25.1221 C   0  0  0  0  0  0  0  0  0  0  0  0
  -22.2429   -8.7552   20.2580 C   0  0  0  0  0  0  0  0  0  0  0  0
  -23.0019   -8.7984   22.5513 C   0  0  0  0  0  0  0  0  0  0  0  0
  -32.7468  -26.3042   24.9828 C   0  0  0  0  0  0  0  0  0  0  0  0
  -23.2535   -5.4628   22.0598 C   0  0  0  0  0  0  0  0  0  0  0  0
  -23.8565   -4.4446   22.7982 C   0  0  0  0  0  0  0  0  0  0  0  0
  -31.8519  -26.7874   22.7954 C   0  0  0  0  0  0  0  0  0  0  0  0
  -30.9533  -17.8581   24.1730 C   0  0  0  0  0  0  0  0  0  0  0  0
  -29.1611  -19.7722   23.2207 C   0  0  0  0  0  0  0  0  0  0  0  0
  -22.1566   -4.6721   24.4999 C   0  0  0  0  0  0  0  0  0  0  0  0
  -23.7589  -10.4854   20.9964 C   0  0  0  0  0  0  0  0  0  0  0  0
  -24.1308  -13.0034   20.8268 C   0  0  0  0  0  0  0  0  0  0  0  0
  -29.9397  -34.6583   26.9788 C   0  0  0  0  0  0  0  0  0  0  0  0
  -32.8497  -28.5643   24.1018 C   0  0  0  0  0  0  0  0  0  0  0  0
  -30.0242  -33.2723   26.7459 C   0  0  0  0  0  0  0  0  0  0  0  0
  -32.2237  -28.1345   22.9231 C   0  0  0  0  0  0  0  0  0  0  0  0
  -30.4521  -18.8338   25.0345 C   0  0  0  0  0  0  0  0  0  0  0  0
  -30.5585  -17.8394   22.8353 C   0  0  0  0  0  0  0  0  0  0  0  0
  -29.5560  -19.7909   24.5584 C   0  0  0  0  0  0  0  0  0  0  0  0
  -22.2436   -8.2072   21.5407 C   0  0  0  0  0  0  0  0  0  0  0  0
  -32.1107  -25.8780   23.8206 C   0  0  0  0  0  0  0  0  0  0  0  0
  -22.1021   -6.0857   22.5414 C   0  0  0  0  0  0  0  0  0  0  0  0
  -23.3080   -4.0492   24.0182 C   0  0  0  0  0  0  0  0  0  0  0  0
  -21.5536   -5.6903   23.7614 C   0  0  0  0  0  0  0  0  0  0  0  0
  -29.6624  -18.7964   22.3591 C   0  0  0  0  0  0  0  0  0  0  0  0
  -24.5422  -11.6617   20.7157 C   0  0  0  0  0  0  0  0  0  0  0  0
  -25.2319  -13.7325   20.4495 C   0  0  0  0  0  0  0  0  0  0  0  0
  -22.8664  -13.5424   21.2346 C   0  0  0  0  0  0  0  0  0  0  0  0
  -31.1052  -31.2119   23.8756 C   0  0  0  0  0  0  0  0  0  0  0  0
  -30.7473  -14.6252   20.7195 C   0  0  0  0  0  0  0  0  0  0  0  0
  -32.4716  -31.3951   20.9393 C   0  0  0  0  0  0  0  0  0  0  0  0
  -33.9707  -29.7769   18.3352 C   0  0  0  0  0  0  0  0  0  0  0  0
  -29.5125  -35.6198   25.8982 C   0  0  0  0  0  0  0  0  0  0  0  0
  -33.2812  -29.9969   24.2564 C   0  0  0  0  0  0  0  0  0  0  0  0
  -31.9305  -29.0823   21.7899 C   0  0  0  0  0  0  0  0  0  0  0  0
  -29.6159  -35.0388   24.4903 C   0  0  0  0  0  0  0  0  0  0  0  0
  -29.5563  -12.2938   18.2728 C   0  0  0  0  0  0  0  0  0  0  0  0
  -29.0143  -33.6378   24.4454 C   0  0  0  0  0  0  0  0  0  0  0  0
  -28.1221  -12.0088   18.7168 C   0  0  0  0  0  0  0  0  0  0  0  0
  -30.4787  -12.5092   19.4686 C   0  0  0  0  0  0  0  0  0  0  0  0
  -28.5836  -13.2939   20.8523 C   0  0  0  0  0  0  0  0  0  0  0  0
  -29.7714  -32.6822   25.3755 C   0  0  1  0  0  0  0  0  0  0  0  0
  -32.4961  -30.9566   23.3676 C   0  0  1  0  0  0  0  0  0  0  0  0
  -27.6125  -13.1007   19.6742 C   0  0  2  0  0  0  0  0  0  0  0  0
  -30.8901  -18.8365   26.4624 C   0  0  0  0  0  0  0  0  0  0  0  0
  -34.9430  -30.1870   16.0585 C   0  0  0  0  0  0  0  0  0  0  0  0
  -29.6579  -31.6268   19.7821 C   0  0  0  0  0  0  0  0  0  0  0  0
  -30.6129  -31.0790   17.5335 C   0  0  0  0  0  0  0  0  0  0  0  0
  -31.3468  -33.1414   18.7295 C   0  0  0  0  0  0  0  0  0  0  0  0
  -36.6441  -28.8277   19.1785 C   0  0  0  0  0  0  0  0  0  0  0  0
  -31.1185  -16.7776   21.9448 C   0  0  0  0  0  0  0  0  0  0  0  0
  -29.0031  -20.8569   25.4705 C   0  0  0  0  0  0  0  0  0  0  0  0
  -30.1308  -15.6451   21.6434 C   0  0  0  0  0  0  0  0  0  0  0  0
  -29.9952  -21.9839   25.7782 C   0  0  0  0  0  0  0  0  0  0  0  0
  -30.4032  -22.7781   24.5365 C   0  0  0  0  0  0  0  0  0  0  0  0
  -31.4182  -23.8616   24.8744 C   0  0  0  0  0  0  0  0  0  1  0  0
  -32.1207  -30.8835   19.5630 C   0  0  1  0  0  0  0  0  0  0  0  0
  -35.2313  -30.0867   17.5483 C   0  0  2  0  0  0  0  0  0  0  0  0
  -30.9382  -31.6650   18.9240 C   0  0  0  0  0  0  0  0  0  0  0  0
  -25.8060  -11.5426   20.3002 N   0  0  0  0  0  0  0  0  0  0  0  0
  -26.1982  -12.8188   20.1468 N   0  0  0  0  0  0  0  0  0  0  0  0
  -32.3661  -30.4741   21.9912 N   0  0  0  0  0  0  0  0  0  0  0  0
  -29.9485  -13.5378   20.3653 N   0  0  0  0  0  0  0  0  0  0  0  0
  -25.4582  -15.0597   20.3504 N   0  0  0  0  0  0  0  0  0  0  0  0
  -21.8436  -12.6522   21.5891 N   0  0  0  0  0  0  0  0  0  0  0  0
  -31.0159  -32.2644   24.7664 N   0  0  0  0  0  0  0  0  0  0  0  0
  -33.3543  -30.9253   18.7852 N   0  0  0  0  0  0  0  0  0  0  0  0
  -36.2492  -29.0188   17.7592 N   0  3  0  0  0  0  0  0  0  0  0  0
  -22.6447  -14.7767   21.2675 O   0  0  0  0  0  0  0  0  0  0  0  0
  -30.1812  -30.5070   23.4868 O   0  0  0  0  0  0  0  0  0  0  0  0
  -31.9036  -14.7932   20.3230 O   0  0  0  0  0  0  0  0  0  0  0  0
  -32.8331  -32.5666   21.0750 O   0  0  0  0  0  0  0  0  0  0  0  0
  -33.5707  -28.6309   18.5281 O   0  0  0  0  0  0  0  0  0  0  0  0
  -21.5042   -7.0959   21.8067 O   0  0  0  0  0  0  0  0  0  0  0  0
  -31.7461  -24.5742   23.6824 O   0  0  0  0  0  0  0  0  0  1  0  0
  -23.8863   -3.0704   24.7265 F   0  0  0  0  0  0  0  0  0  0  0  0
  -20.4469   -6.2842   24.2287 F   0  0  0  0  0  0  0  0  0  0  0  0
  -29.1514  -18.8049   20.7105 Cl  0  0  0  0  0  0  0  0  0  0  0  0
  1  2  1  0  0  0  0
  1  5  2  0  0  0  0
  2  6  2  0  0  0  0
  3  8  2  0  0  0  0
  3 17  1  0  0  0  0
  4  9  1  0  0  0  0
  4 17  2  0  0  0  0
  5 19  1  0  0  0  0
  6 21  1  0  0  0  0
  7 10  2  0  0  0  0
  7 20  1  0  0  0  0
  8 26  1  0  0  0  0
  9 26  2  0  0  0  0
 10 27  1  0  0  0  0
 11 12  2  0  0  0  0
 11 28  1  0  0  0  0
 12 29  1  0  0  0  0
 13 22  1  0  0  0  0
 13 27  2  0  0  0  0
 14 23  1  0  0  0  0
 14 24  2  0  0  0  0
 15 25  1  0  0  0  0
 15 31  2  0  0  0  0
 16 29  2  0  0  0  0
 16 30  1  0  0  0  0
 17 32  1  0  0  0  0
 18 32  1  0  0  0  0
 18 33  2  0  0  0  0
 18 34  1  0  0  0  0
 19 21  2  0  0  0  0
 19 39  1  0  0  0  0
 20 22  2  0  0  0  0
 20 40  1  0  0  0  0
 21 48  1  0  0  0  0
 22 41  1  0  0  0  0
 23 25  2  0  0  0  0
 23 51  1  0  0  0  0
 24 31  1  0  0  0  0
 24 57  1  0  0  0  0
 25 58  1  0  0  0  0
 26 80  1  0  0  0  0
 27 81  1  0  0  0  0
 28 30  2  0  0  0  0
 28 80  1  0  0  0  0
 29 82  1  0  0  0  0
 30 83  1  0  0  0  0
 31 84  1  0  0  0  0
 32 66  2  0  0  0  0
 33 67  1  0  0  0  0
 33 70  1  0  0  0  0
 34 71  1  0  0  0  0
 34 75  2  0  0  0  0
 35 49  1  0  0  0  0
 35 72  1  0  0  0  0
 35 76  2  0  0  0  0
 36 59  1  0  0  0  0
 36 69  1  0  0  0  0
 36 77  2  0  0  0  0
 37 63  1  0  0  0  0
 37 68  1  0  0  0  0
 37 78  2  0  0  0  0
 38 64  1  0  0  0  0
 38 73  1  0  0  0  0
 38 79  2  0  0  0  0
 39 42  1  0  0  0  0
 40 49  1  0  0  0  0
 41 68  1  0  0  0  0
 42 44  1  0  0  0  0
 43 45  1  0  0  0  0
 43 46  1  0  0  0  0
 44 48  1  0  0  0  0
 45 50  1  0  0  0  0
 46 69  1  0  0  0  0
 47 50  1  0  0  0  0
 47 69  1  0  0  0  0
 48 72  1  0  0  0  0
 49 68  1  0  0  0  0
 50 67  1  0  0  0  0
 52 64  1  0  0  0  0
 53 65  1  0  0  0  0
 54 65  1  0  0  0  0
 55 65  1  0  0  0  0
 56 74  1  0  0  0  0
 57 59  1  0  0  0  0
 58 60  1  0  0  0  0
 60 61  1  0  0  0  0
 61 62  1  0  0  0  0
 62 81  1  0  0  0  0
 63 65  1  0  0  0  0
 63 73  1  0  0  0  0
 64 74  1  0  0  0  0
 66 67  1  0  0  0  0
M  CHG  1  74   1
M  ISO  4  36 100  59 100  62 101  81 101
M  END
> <Batch ID>
0034

> <Smiles>
CNC(C)C(=O)NC(C(=O)N1Cc2cc([101O:1][101CH2:1]CCCc3cc(Cl)c(C[100CH2:0][100C:0](=O)N4CCCC(n5nc(-c6ccc(Oc7ccc(F)cc7F)cc6)c(C(N)=O)c5N)C4)cc3C)ccc2CC1C(=O)NC1CCCc2ccccc21)C(C)(C)C

> <Shape>
0.186

> <Color>
0.209

> <Negative vol penalty>
0.000

$$$$

  -OEChem-04052316503D

 79 87  0     1  0  0  0  0  0999 V2000
  -20.5120  -31.2551   22.5819 C   0  0  0  0  0  0  0  0  0  0  0  0
  -21.7399  -30.6109   22.4695 C   0  0  0  0  0  0  0  0  0  0  0  0
  -26.8419  -18.2573   19.6541 C   0  0  0  0  0  0  0  0  0  0  0  0
  -26.6365  -17.4716   21.9295 C   0  0  0  0  0  0  0  0  0  0  0  0
  -19.3410  -30.5066   22.6933 C   0  0  0  0  0  0  0  0  0  0  0  0
  -21.7976  -29.2176   22.4696 C   0  0  0  0  0  0  0  0  0  0  0  0
  -24.8776  -27.4005   18.8840 C   0  0  0  0  0  0  0  0  0  0  0  0
  -26.0527  -17.1941   19.2156 C   0  0  0  0  0  0  0  0  0  0  0  0
  -25.8472  -16.4083   21.4910 C   0  0  0  0  0  0  0  0  0  0  0  0
  -26.2478  -27.4501   19.1367 C   0  0  0  0  0  0  0  0  0  0  0  0
  -26.3141  -13.4003   20.0196 C   0  0  0  0  0  0  0  0  0  0  0  0
  -26.5906  -12.1332   20.5331 C   0  0  0  0  0  0  0  0  0  0  0  0
  -31.2748  -27.3765   18.8560 C   0  0  0  0  0  0  0  0  0  0  0  0
  -26.2102  -25.1211   19.7643 C   0  0  0  0  0  0  0  0  0  0  0  0
  -24.3554  -12.0140   21.4424 C   0  0  0  0  0  0  0  0  0  0  0  0
  -32.6180  -27.2277   19.1617 C   0  0  0  0  0  0  0  0  0  0  0  0
  -32.1946  -27.2149   21.4197 C   0  0  0  0  0  0  0  0  0  0  0  0
  -27.1338  -18.3961   21.0110 C   0  0  0  0  0  0  0  0  0  0  0  0
  -29.2754  -19.7801   21.0879 C   0  0  0  0  0  0  0  0  0  0  0  0
  -19.3835  -29.1035   22.6851 C   0  0  0  0  0  0  0  0  0  0  0  0
  -24.1602  -26.2118   19.0804 C   0  0  0  0  0  0  0  0  0  0  0  0
  -20.6262  -28.4497   22.5824 C   0  0  0  0  0  0  0  0  0  0  0  0
  -24.8315  -25.0584   19.5109 C   0  0  0  0  0  0  0  0  0  0  0  0
  -30.3710  -27.4448   19.9104 C   0  0  0  0  0  0  0  0  0  0  0  0
  -30.8316  -27.3633   21.2198 C   0  0  0  0  0  0  0  0  0  0  0  0
  -25.5554  -16.2696   20.1341 C   0  0  0  0  0  0  0  0  0  0  0  0
  -26.9138  -26.3111   19.5796 C   0  0  0  0  0  0  0  0  0  0  0  0
  -25.0583  -13.9743   20.2177 C   0  0  0  0  0  0  0  0  0  0  0  0
  -25.6112  -11.4401   21.2445 C   0  0  0  0  0  0  0  0  0  0  0  0
  -24.0789  -13.2811   20.9290 C   0  0  0  0  0  0  0  0  0  0  0  0
  -27.9495  -19.4939   21.4645 C   0  0  0  0  0  0  0  0  0  0  0  0
  -29.5942  -20.9163   21.7905 C   0  0  0  0  0  0  0  0  0  0  0  0
  -30.1414  -19.0813   20.1837 C   0  0  0  0  0  0  0  0  0  0  0  0
  -21.7588  -25.3263   20.9654 C   0  0  0  0  0  0  0  0  0  0  0  0
  -21.9256  -22.5868   19.2363 C   0  0  0  0  0  0  0  0  0  0  0  0
  -23.7244  -19.9542   17.5479 C   0  0  0  0  0  0  0  0  0  0  0  0
  -28.2965  -26.0190   23.6410 C   0  0  0  0  0  0  0  0  0  0  0  0
  -18.0957  -28.3373   22.8557 C   0  0  0  0  0  0  0  0  0  0  0  0
  -22.6875  -26.1677   18.7778 C   0  0  0  0  0  0  0  0  0  0  0  0
  -24.1109  -23.7522   19.7179 C   0  0  0  0  0  0  0  0  0  0  0  0
  -18.2077  -26.8643   22.4708 C   0  0  0  0  0  0  0  0  0  0  0  0
  -27.1602  -23.2459   25.5634 C   0  0  0  0  0  0  0  0  0  0  0  0
  -19.4637  -26.2478   23.0785 C   0  0  0  0  0  0  0  0  0  0  0  0
  -27.3677  -22.0478   24.6353 C   0  0  0  0  0  0  0  0  0  0  0  0
  -26.7240  -24.4891   24.7912 C   0  0  0  0  0  0  0  0  0  0  0  0
  -27.8121  -23.6631   22.7400 C   0  0  0  0  0  0  0  0  0  0  0  0
  -20.7274  -26.9400   22.5538 C   0  0  1  0  0  0  0  0  0  0  0  0
  -21.9616  -25.0397   19.5044 C   0  0  1  0  0  0  0  0  0  0  0  0
  -28.3068  -22.4004   23.4660 C   0  0  2  0  0  0  0  0  0  0  0  0
  -22.8857  -17.9929   16.2261 C   0  0  0  0  0  0  0  0  0  0  0  0
  -22.1479  -21.0795   21.8798 C   0  0  0  0  0  0  0  0  0  0  0  0
  -22.9602  -19.0891   20.5965 C   0  0  0  0  0  0  0  0  0  0  0  0
  -20.6721  -19.9911   20.1793 C   0  0  0  0  0  0  0  0  0  0  0  0
  -25.3365  -20.7101   15.1838 C   0  0  0  0  0  0  0  0  0  0  0  0
  -29.9069  -27.4297   22.3857 C   0  0  0  0  0  0  0  0  0  0  0  0
  -28.9092  -27.6047   19.6127 C   0  0  0  0  0  0  0  0  0  1  0  0
  -22.6834  -21.2873   19.3627 C   0  0  1  0  0  0  0  0  0  0  0  0
  -23.4430  -19.4063   16.1604 C   0  0  2  0  0  0  0  0  0  0  0  0
  -22.1294  -20.3867   20.5026 C   0  0  0  0  0  0  0  0  0  0  0  0
  -33.1029  -27.1448   20.4209 N   0  0  0  0  0  0  0  0  0  0  0  0
  -27.4597  -20.3771   22.3386 N   0  0  0  0  0  0  0  0  0  0  0  0
  -28.4833  -21.2293   22.5172 N   0  0  0  0  0  0  0  0  0  0  0  0
  -22.6703  -23.7614   19.4145 N   0  0  0  0  0  0  0  0  0  0  0  0
  -27.6572  -24.7695   23.6974 N   0  0  0  0  0  0  0  0  0  0  0  0
  -30.7138  -21.6683   21.8515 N   0  0  0  0  0  0  0  0  0  0  0  0
  -30.1310  -19.4479   18.8310 N   0  0  0  0  0  0  0  0  0  0  0  0
  -21.0389  -26.4784   21.2180 N   0  0  0  0  0  0  0  0  0  0  0  0
  -22.6527  -20.6669   18.0426 N   0  0  0  0  0  0  0  0  0  0  0  0
  -29.1701  -26.2001   22.5757 N   0  0  0  0  0  0  0  0  0  0  0  0
  -24.6935  -19.3813   15.3500 N   0  3  0  0  0  0  0  0  0  0  0  0
  -30.8898  -18.1481   20.5612 O   0  0  0  0  0  0  0  0  0  0  0  0
  -22.2200  -24.5583   21.8015 O   0  0  0  0  0  0  0  0  0  0  0  0
  -20.7189  -22.5609   18.9816 O   0  0  0  0  0  0  0  0  0  0  0  0
  -24.7872  -19.7654   18.1357 O   0  0  0  0  0  0  0  0  0  0  0  0
  -28.1072  -26.9053   24.4810 O   0  0  0  0  0  0  0  0  0  0  0  0
  -24.7851  -15.2320   19.7066 O   0  0  0  0  0  0  0  0  0  0  0  0
  -28.2511  -26.3568   19.8276 O   0  0  0  0  0  0  0  0  0  1  0  0
  -25.8764  -10.2226   21.7361 F   0  0  0  0  0  0  0  0  0  0  0  0
  -22.8702  -13.8269   21.1215 F   0  0  0  0  0  0  0  0  0  0  0  0
  1  2  1  0  0  0  0
  1  5  2  0  0  0  0
  2  6  2  0  0  0  0
  3  8  2  0  0  0  0
  3 18  1  0  0  0  0
  4  9  1  0  0  0  0
  4 18  2  0  0  0  0
  5 20  1  0  0  0  0
  6 22  1  0  0  0  0
  7 10  2  0  0  0  0
  7 21  1  0  0  0  0
  8 26  1  0  0  0  0
  9 26  2  0  0  0  0
 10 27  1  0  0  0  0
 11 12  2  0  0  0  0
 11 28  1  0  0  0  0
 12 29  1  0  0  0  0
 13 16  2  0  0  0  0
 13 24  1  0  0  0  0
 14 23  1  0  0  0  0
 14 27  2  0  0  0  0
 15 29  2  0  0  0  0
 15 30  1  0  0  0  0
 16 60  1  0  0  0  0
 17 25  1  0  0  0  0
 17 60  2  0  0  0  0
 18 31  1  0  0  0  0
 19 31  1  0  0  0  0
 19 32  2  0  0  0  0
 19 33  1  0  0  0  0
 20 22  2  0  0  0  0
 20 38  1  0  0  0  0
 21 23  2  0  0  0  0
 21 39  1  0  0  0  0
 22 47  1  0  0  0  0
 23 40  1  0  0  0  0
 24 25  2  0  0  0  0
 24 56  1  0  0  0  0
 25 55  1  0  0  0  0
 26 76  1  0  0  0  0
 27 77  1  0  0  0  0
 28 30  2  0  0  0  0
 28 76  1  0  0  0  0
 29 78  1  0  0  0  0
 30 79  1  0  0  0  0
 31 61  2  0  0  0  0
 32 62  1  0  0  0  0
 32 65  1  0  0  0  0
 33 66  1  0  0  0  0
 33 71  2  0  0  0  0
 34 48  1  0  0  0  0
 34 67  1  0  0  0  0
 34 72  2  0  0  0  0
 35 57  1  0  0  0  0
 35 63  1  0  0  0  0
 35 73  2  0  0  0  0
 36 58  1  0  0  0  0
 36 68  1  0  0  0  0
 36 74  2  0  0  0  0
 37 64  1  0  0  0  0
 37 69  1  0  0  0  0
 37 75  2  0  0  0  0
 38 41  1  0  0  0  0
 39 48  1  0  0  0  0
 40 63  1  0  0  0  0
 41 43  1  0  0  0  0
 42 44  1  0  0  0  0
 42 45  1  0  0  0  0
 43 47  1  0  0  0  0
 44 49  1  0  0  0  0
 45 64  1  0  0  0  0
 46 49  1  0  0  0  0
 46 64  1  0  0  0  0
 47 67  1  0  0  0  0
 48 63  1  0  0  0  0
 49 62  1  0  0  0  0
 50 58  1  0  0  0  0
 51 59  1  0  0  0  0
 52 59  1  0  0  0  0
 53 59  1  0  0  0  0
 54 70  1  0  0  0  0
 55 69  1  0  0  0  0
 56 77  1  0  0  0  0
 57 59  1  0  0  0  0
 57 68  1  0  0  0  0
 58 70  1  0  0  0  0
 61 62  1  0  0  0  0
M  CHG  1  70   1
M  ISO  4  37 100  56 101  69 100  77 101
M  END
> <Batch ID>
0034

> <Smiles>
CNC(C)C(=O)NC(C(=O)N1Cc2cc([101O:1][101CH2:1]c3ccncc3C[100NH:0][100C:0](=O)N3CCCC(n4nc(-c5ccc(Oc6ccc(F)cc6F)cc5)c(C(N)=O)c4N)C3)ccc2CC1C(=O)NC1CCCc2ccccc21)C(C)(C)C

> <Shape>
0.196

> <Color>
0.071

> <Negative vol penalty>
0.000

$$$$

  -OEChem-04052316503D

 84 92  0     1  0  0  0  0  0999 V2000
  -27.6557  -23.5514   17.7301 C   0  0  0  0  0  0  0  0  0  0  0  0
  -26.4940  -23.8924   18.4154 C   0  0  0  0  0  0  0  0  0  0  0  0
  -26.1315  -14.4993   19.7943 C   0  0  0  0  0  0  0  0  0  0  0  0
  -24.8276  -14.3196   21.8203 C   0  0  0  0  0  0  0  0  0  0  0  0
  -28.8830  -24.0716   18.1388 C   0  0  0  0  0  0  0  0  0  0  0  0
  -26.5591  -24.7530   19.5107 C   0  0  0  0  0  0  0  0  0  0  0  0
  -22.9342  -28.2881   19.4219 C   0  0  0  0  0  0  0  0  0  0  0  0
  -26.1991  -13.1084   19.7144 C   0  0  0  0  0  0  0  0  0  0  0  0
  -24.8951  -12.9287   21.7404 C   0  0  0  0  0  0  0  0  0  0  0  0
  -21.6544  -27.8978   19.8139 C   0  0  0  0  0  0  0  0  0  0  0  0
  -24.4179   -9.3269   21.8730 C   0  0  0  0  0  0  0  0  0  0  0  0
  -23.2448   -8.6060   22.0960 C   0  0  0  0  0  0  0  0  0  0  0  0
  -22.0319  -28.8673   21.9903 C   0  0  0  0  0  0  0  0  0  0  0  0
  -21.5100  -24.9416   22.8225 C   0  0  0  0  0  0  0  0  0  0  0  0
  -22.1975   -9.7340   20.2338 C   0  0  0  0  0  0  0  0  0  0  0  0
  -20.7905  -22.3156   23.0010 C   0  0  0  0  0  0  0  0  0  0  0  0
  -25.4458  -15.1049   20.8473 C   0  0  0  0  0  0  0  0  0  0  0  0
  -24.3919  -17.3789   20.3717 C   0  0  0  0  0  0  0  0  0  0  0  0
  -28.9619  -24.9467   19.2337 C   0  0  0  0  0  0  0  0  0  0  0  0
  -23.7779  -28.9625   20.3163 C   0  0  0  0  0  0  0  0  0  0  0  0
  -27.7888  -25.2844   19.9353 C   0  0  0  0  0  0  0  0  0  0  0  0
  -23.3210  -29.2673   21.6064 C   0  0  0  0  0  0  0  0  0  0  0  0
  -22.4833  -23.9573   22.6917 C   0  0  0  0  0  0  0  0  0  0  0  0
  -25.5809  -12.3231   20.6875 C   0  0  0  0  0  0  0  0  0  0  0  0
  -21.2042  -28.1848   21.0992 C   0  0  0  0  0  0  0  0  0  0  0  0
  -24.4808  -10.2514   20.8304 C   0  0  0  0  0  0  0  0  0  0  0  0
  -22.1346   -8.8095   21.2765 C   0  0  0  0  0  0  0  0  0  0  0  0
  -23.3706  -10.4550   20.0108 C   0  0  0  0  0  0  0  0  0  0  0  0
  -22.1250  -22.6169   22.7814 C   0  0  0  0  0  0  0  0  0  0  0  0
  -25.3761  -16.5417   20.9306 C   0  0  0  0  0  0  0  0  0  0  0  0
  -20.2031  -24.5363   23.0400 C   0  0  0  0  0  0  0  0  0  0  0  0
  -24.7754  -18.6476   20.7321 C   0  0  0  0  0  0  0  0  0  0  0  0
  -23.2345  -17.0401   19.5963 C   0  0  0  0  0  0  0  0  0  0  0  0
  -26.6035  -28.3440   21.6343 C   0  0  0  0  0  0  0  0  0  0  0  0
  -26.2984  -31.3669   22.7706 C   0  0  0  0  0  0  0  0  0  0  0  0
  -24.2338  -33.9479   23.6205 C   0  0  0  0  0  0  0  0  0  0  0  0
  -26.6622  -22.2644   24.5406 C   0  0  0  0  0  0  0  0  0  0  0  0
  -30.3173  -25.4462   19.6675 C   0  0  0  0  0  0  0  0  0  0  0  0
  -25.1457  -29.4003   19.8694 C   0  0  0  0  0  0  0  0  0  0  0  0
  -24.1802  -30.0071   22.5978 C   0  0  0  0  0  0  0  0  0  0  0  0
  -30.2516  -26.6476   20.6069 C   0  0  0  0  0  0  0  0  0  0  0  0
  -29.0811  -20.3261   22.7888 C   0  0  0  0  0  0  0  0  0  0  0  0
  -29.2191  -26.4112   21.7046 C   0  0  0  0  0  0  0  0  0  0  0  0
  -28.2526  -19.2348   22.1087 C   0  0  0  0  0  0  0  0  0  0  0  0
  -28.5278  -20.6778   24.1680 C   0  0  0  0  0  0  0  0  0  0  0  0
  -26.2689  -19.9458   23.5082 C   0  0  0  0  0  0  0  0  0  0  0  0
  -27.8155  -26.2345   21.1129 C   0  0  1  0  0  0  0  0  0  0  0  0
  -26.1092  -29.6278   21.0301 C   0  0  1  0  0  0  0  0  0  0  0  0
  -26.7552  -19.5967   22.0911 C   0  0  2  0  0  0  0  0  0  0  0  0
  -24.2733  -36.2761   24.5561 C   0  0  0  0  0  0  0  0  0  0  0  0
  -26.7964  -30.2349   25.5600 C   0  0  0  0  0  0  0  0  0  0  0  0
  -25.8974  -32.3693   26.5108 C   0  0  0  0  0  0  0  0  0  0  0  0
  -27.9498  -32.4043   25.0933 C   0  0  0  0  0  0  0  0  0  0  0  0
  -23.0162  -35.0776   21.1709 C   0  0  0  0  0  0  0  0  0  0  0  0
  -23.9049  -24.3403   22.4567 C   0  0  0  0  0  0  0  0  0  0  0  0
  -19.1211  -25.5762   23.1860 C   0  0  0  0  0  0  0  0  0  0  0  0
  -24.6628  -24.7894   23.7220 C   0  0  0  0  0  0  0  0  0  0  0  0
  -18.4598  -25.9670   21.8625 C   0  0  0  0  0  0  0  0  0  0  0  0
  -24.6947  -23.7475   24.8381 C   0  0  0  0  0  0  0  0  0  0  0  0
  -19.4196  -26.6281   20.8801 C   0  0  0  0  0  0  0  0  0  1  0  0
  -25.7031  -31.9876   24.0113 C   0  0  1  0  0  0  0  0  0  0  0  0
  -24.2858  -35.4293   23.2930 C   0  0  2  0  0  0  0  0  0  0  0  0
  -26.5709  -31.7334   25.2760 C   0  0  0  0  0  0  0  0  0  0  0  0
  -19.8169  -23.2440   23.1331 N   0  0  0  0  0  0  0  0  0  0  0  0
  -26.3143  -17.2213   21.5953 N   0  0  0  0  0  0  0  0  0  0  0  0
  -25.9215  -18.4990   21.4564 N   0  0  0  0  0  0  0  0  0  0  0  0
  -25.5121  -30.4085   22.1156 N   0  0  0  0  0  0  0  0  0  0  0  0
  -27.1043  -21.0126   24.0815 N   0  0  0  0  0  0  0  0  0  0  0  0
  -24.2408  -19.8647   20.4968 N   0  0  0  0  0  0  0  0  0  0  0  0
  -22.9892  -15.6886   19.3176 N   0  0  0  0  0  0  0  0  0  0  0  0
  -27.2584  -27.5175   20.7413 N   0  0  0  0  0  0  0  0  0  0  0  0
  -25.4957  -33.3984   23.7026 N   0  0  0  0  0  0  0  0  0  0  0  0
  -25.2991  -22.5036   24.4162 N   0  0  0  0  0  0  0  0  0  0  0  0
  -23.1150  -35.8163   22.4561 N   0  3  0  0  0  0  0  0  0  0  0  0
  -22.4504  -17.9112   19.1494 O   0  0  0  0  0  0  0  0  0  0  0  0
  -26.4066  -28.1205   22.8230 O   0  0  0  0  0  0  0  0  0  0  0  0
  -27.4167  -31.7245   22.3925 O   0  0  0  0  0  0  0  0  0  0  0  0
  -23.1792  -33.3400   23.7904 O   0  0  0  0  0  0  0  0  0  0  0  0
  -27.4265  -23.1085   25.0205 O   0  0  0  0  0  0  0  0  0  0  0  0
  -25.6464  -10.9658   20.6097 O   0  0  0  0  0  0  0  0  0  0  0  0
  -19.9557  -27.8043   21.4846 O   0  0  0  0  0  0  0  0  0  1  0  0
  -21.0087   -8.1161   21.4898 F   0  0  0  0  0  0  0  0  0  0  0  0
  -23.4254  -11.3409   19.0068 F   0  0  0  0  0  0  0  0  0  0  0  0
  -23.0342  -21.6418   22.6611 F   0  0  0  0  0  0  0  0  0  0  0  0
  1  2  1  0  0  0  0
  1  5  2  0  0  0  0
  2  6  2  0  0  0  0
  3  8  2  0  0  0  0
  3 17  1  0  0  0  0
  4  9  1  0  0  0  0
  4 17  2  0  0  0  0
  5 19  1  0  0  0  0
  6 21  1  0  0  0  0
  7 10  2  0  0  0  0
  7 20  1  0  0  0  0
  8 24  1  0  0  0  0
  9 24  2  0  0  0  0
 10 25  1  0  0  0  0
 11 12  2  0  0  0  0
 11 26  1  0  0  0  0
 12 27  1  0  0  0  0
 13 22  1  0  0  0  0
 13 25  2  0  0  0  0
 14 23  2  0  0  0  0
 14 31  1  0  0  0  0
 15 27  2  0  0  0  0
 15 28  1  0  0  0  0
 16 29  2  0  0  0  0
 16 64  1  0  0  0  0
 17 30  1  0  0  0  0
 18 30  1  0  0  0  0
 18 32  2  0  0  0  0
 18 33  1  0  0  0  0
 19 21  2  0  0  0  0
 19 38  1  0  0  0  0
 20 22  2  0  0  0  0
 20 39  1  0  0  0  0
 21 47  1  0  0  0  0
 22 40  1  0  0  0  0
 23 29  1  0  0  0  0
 23 55  1  0  0  0  0
 24 80  1  0  0  0  0
 25 81  1  0  0  0  0
 26 28  2  0  0  0  0
 26 80  1  0  0  0  0
 27 82  1  0  0  0  0
 28 83  1  0  0  0  0
 29 84  1  0  0  0  0
 30 65  2  0  0  0  0
 31 56  1  0  0  0  0
 31 64  2  0  0  0  0
 32 66  1  0  0  0  0
 32 69  1  0  0  0  0
 33 70  1  0  0  0  0
 33 75  2  0  0  0  0
 34 48  1  0  0  0  0
 34 71  1  0  0  0  0
 34 76  2  0  0  0  0
 35 61  1  0  0  0  0
 35 67  1  0  0  0  0
 35 77  2  0  0  0  0
 36 62  1  0  0  0  0
 36 72  1  0  0  0  0
 36 78  2  0  0  0  0
 37 68  1  0  0  0  0
 37 73  1  0  0  0  0
 37 79  2  0  0  0  0
 38 41  1  0  0  0  0
 39 48  1  0  0  0  0
 40 67  1  0  0  0  0
 41 43  1  0  0  0  0
 42 44  1  0  0  0  0
 42 45  1  0  0  0  0
 43 47  1  0  0  0  0
 44 49  1  0  0  0  0
 45 68  1  0  0  0  0
 46 49  1  0  0  0  0
 46 68  1  0  0  0  0
 47 71  1  0  0  0  0
 48 67  1  0  0  0  0
 49 66  1  0  0  0  0
 50 62  1  0  0  0  0
 51 63  1  0  0  0  0
 52 63  1  0  0  0  0
 53 63  1  0  0  0  0
 54 74  1  0  0  0  0
 55 57  1  0  0  0  0
 56 58  1  0  0  0  0
 57 59  1  0  0  0  0
 58 60  1  0  0  0  0
 59 73  1  0  0  0  0
 60 81  1  0  0  0  0
 61 63  1  0  0  0  0
 61 72  1  0  0  0  0
 62 74  1  0  0  0  0
 65 66  1  0  0  0  0
M  CHG  1  74   1
M  ISO  4  37 100  60 101  73 100  81 101
M  END
> <Batch ID>
0034

> <Smiles>
CNC(C)C(=O)NC(C(=O)N1Cc2cc([101O:1][101CH2:1]CCc3cc(CCC[100NH:0][100C:0](=O)N4CCCC(n5nc(-c6ccc(Oc7ccc(F)cc7F)cc6)c(C(N)=O)c5N)C4)c(F)cn3)ccc2CC1C(=O)NC1CCCc2ccccc21)C(C)(C)C

> <Shape>
0.272

> <Color>
0.081

> <Negative vol penalty>
0.000

$$$$

  -OEChem-04052316503D

 85 93  0     1  0  0  0  0  0999 V2000
  -17.8433  -32.8149   22.6819 C   0  0  0  0  0  0  0  0  0  0  0  0
  -19.0078  -32.8702   21.9227 C   0  0  0  0  0  0  0  0  0  0  0  0
  -24.7472  -17.0390   21.0359 C   0  0  0  0  0  0  0  0  0  0  0  0
  -25.2981  -15.6587   19.1311 C   0  0  0  0  0  0  0  0  0  0  0  0
  -17.7563  -31.9346   23.7596 C   0  0  0  0  0  0  0  0  0  0  0  0
  -20.0864  -32.0460   22.2416 C   0  0  0  0  0  0  0  0  0  0  0  0
  -25.4807  -28.4715   19.1688 C   0  0  0  0  0  0  0  0  0  0  0  0
  -23.6183  -16.2559   21.2769 C   0  0  0  0  0  0  0  0  0  0  0  0
  -24.1693  -14.8755   19.3721 C   0  0  0  0  0  0  0  0  0  0  0  0
  -26.8638  -28.3221   19.2598 C   0  0  0  0  0  0  0  0  0  0  0  0
  -21.6298  -12.2945   19.7006 C   0  0  0  0  0  0  0  0  0  0  0  0
  -21.7758  -10.9087   19.6387 C   0  0  0  0  0  0  0  0  0  0  0  0
  -26.5708  -26.7839   21.0949 C   0  0  0  0  0  0  0  0  0  0  0  0
  -31.8211  -26.7650   14.4095 C   0  0  0  0  0  0  0  0  0  0  0  0
  -31.8709  -24.3325   15.7745 C   0  0  0  0  0  0  0  0  0  0  0  0
  -23.4113  -11.0017   21.4146 C   0  0  0  0  0  0  0  0  0  0  0  0
  -25.5870  -16.7404   19.9629 C   0  0  0  0  0  0  0  0  0  0  0  0
  -28.0486  -17.3552   20.2283 C   0  0  0  0  0  0  0  0  0  0  0  0
  -18.8308  -31.0922   24.0858 C   0  0  0  0  0  0  0  0  0  0  0  0
  -24.6312  -27.7855   20.0487 C   0  0  0  0  0  0  0  0  0  0  0  0
  -20.0142  -31.1545   23.3255 C   0  0  0  0  0  0  0  0  0  0  0  0
  -25.1772  -26.9244   21.0113 C   0  0  0  0  0  0  0  0  0  0  0  0
  -31.8469  -26.7482   15.8040 C   0  0  0  0  0  0  0  0  0  0  0  0
  -31.8202  -25.5655   13.6975 C   0  0  0  0  0  0  0  0  0  0  0  0
  -31.8718  -25.5320   16.4865 C   0  0  0  0  0  0  0  0  0  0  0  0
  -31.8451  -24.3493   14.3800 C   0  0  0  0  0  0  0  0  0  0  0  0
  -23.3294  -15.1741   20.4450 C   0  0  0  0  0  0  0  0  0  0  0  0
  -27.4093  -27.4804   20.2248 C   0  0  0  0  0  0  0  0  0  0  0  0
  -22.3747  -13.0339   20.6194 C   0  0  0  0  0  0  0  0  0  0  0  0
  -22.6665  -10.2623   20.4957 C   0  0  0  0  0  0  0  0  0  0  0  0
  -23.2654  -12.3875   21.4764 C   0  0  0  0  0  0  0  0  0  0  0  0
  -26.7529  -17.5493   19.7131 C   0  0  0  0  0  0  0  0  0  0  0  0
  -28.7874  -18.3834   19.6958 C   0  0  0  0  0  0  0  0  0  0  0  0
  -28.5403  -16.3365   21.1092 C   0  0  0  0  0  0  0  0  0  0  0  0
  -22.5134  -28.6524   22.2549 C   0  0  0  0  0  0  0  0  0  0  0  0
  -21.9129  -25.4668   22.3708 C   0  0  0  0  0  0  0  0  0  0  0  0
  -23.0276  -22.2868   21.8302 C   0  0  0  0  0  0  0  0  0  0  0  0
  -29.2794  -21.3184   14.8424 C   0  0  0  0  0  0  0  0  0  0  0  0
  -18.7073  -30.1909   25.2888 C   0  0  0  0  0  0  0  0  0  0  0  0
  -23.1402  -27.9368   19.9201 C   0  0  0  0  0  0  0  0  0  0  0  0
  -24.3078  -26.1497   21.9665 C   0  0  0  0  0  0  0  0  0  0  0  0
  -19.7575  -29.0837   25.3306 C   0  0  0  0  0  0  0  0  0  0  0  0
  -27.7163  -22.8015   17.7500 C   0  0  0  0  0  0  0  0  0  0  0  0
  -21.1420  -29.6496   25.0310 C   0  0  0  0  0  0  0  0  0  0  0  0
  -27.4345  -21.5662   18.6072 C   0  0  0  0  0  0  0  0  0  0  0  0
  -27.5047  -22.5060   16.2681 C   0  0  0  0  0  0  0  0  0  0  0  0
  -28.0164  -20.1189   16.6055 C   0  0  0  0  0  0  0  0  0  0  0  0
  -21.1965  -30.2587   23.6248 C   0  0  1  0  0  0  0  0  0  0  0  0
  -22.3914  -27.5870   21.2024 C   0  0  1  0  0  0  0  0  0  0  0  0
  -28.2344  -20.3465   18.1124 C   0  0  2  0  0  0  0  0  0  0  0  0
  -31.8481  -28.0449   16.5449 C   0  0  0  0  0  0  0  0  0  0  0  0
  -31.7914  -25.6083   12.2049 C   0  0  0  0  0  0  0  0  0  0  0  0
  -22.3252  -19.8882   22.0553 C   0  0  0  0  0  0  0  0  0  0  0  0
  -22.3798  -25.6152   25.3824 C   0  0  0  0  0  0  0  0  0  0  0  0
  -22.6083  -23.1221   25.3995 C   0  0  0  0  0  0  0  0  0  0  0  0
  -20.4575  -24.1709   24.6947 C   0  0  0  0  0  0  0  0  0  0  0  0
  -23.2820  -21.8181   18.9191 C   0  0  0  0  0  0  0  0  0  0  0  0
  -31.9006  -25.4888   17.9935 C   0  0  0  0  0  0  0  0  0  0  0  0
  -31.8438  -23.0525   13.6391 C   0  0  0  0  0  0  0  0  0  0  0  0
  -30.5472  -25.7890   18.6475 C   0  0  0  0  0  0  0  0  0  0  0  0
  -30.6135  -25.8166   20.1751 C   0  0  0  0  0  0  0  0  0  0  0  0
  -30.4618  -22.6490   13.1137 C   0  0  0  0  0  0  0  0  0  0  0  0
  -29.2449  -26.0777   20.7894 C   0  0  0  0  0  0  0  0  0  1  0  0
  -22.4624  -24.3033   23.1602 C   0  0  1  0  0  0  0  0  0  0  0  0
  -22.3858  -21.0987   21.1367 C   0  0  2  0  0  0  0  0  0  0  0  0
  -21.9937  -24.3188   24.6426 C   0  0  0  0  0  0  0  0  0  0  0  0
  -26.6701  -18.6170   18.9148 N   0  0  0  0  0  0  0  0  0  0  0  0
  -27.9230  -19.1030   18.9244 N   0  0  0  0  0  0  0  0  0  0  0  0
  -22.8563  -26.3361   21.8051 N   0  0  0  0  0  0  0  0  0  0  0  0
  -28.3080  -21.3460   15.8568 N   0  0  0  0  0  0  0  0  0  0  0  0
  -30.0856  -18.7331   19.8170 N   0  0  0  0  0  0  0  0  0  0  0  0
  -27.6467  -15.3563   21.5620 N   0  0  0  0  0  0  0  0  0  0  0  0
  -21.3081  -29.2167   22.6266 N   0  0  0  0  0  0  0  0  0  0  0  0
  -22.0868  -23.0990   22.4274 N   0  0  0  0  0  0  0  0  0  0  0  0
  -29.4904  -22.5198   14.1771 N   0  0  0  0  0  0  0  0  0  0  0  0
  -23.1626  -20.7272   19.9204 N   0  3  0  0  0  0  0  0  0  0  0  0
  -29.7329  -16.3061   21.4969 O   0  0  0  0  0  0  0  0  0  0  0  0
  -23.6191  -28.9401   22.6980 O   0  0  0  0  0  0  0  0  0  0  0  0
  -20.6916  -25.5954   22.2541 O   0  0  0  0  0  0  0  0  0  0  0  0
  -24.2423  -22.4736   21.8441 O   0  0  0  0  0  0  0  0  0  0  0  0
  -29.9159  -20.2991   14.5542 O   0  0  0  0  0  0  0  0  0  0  0  0
  -22.2281  -14.4096   20.6801 O   0  0  0  0  0  0  0  0  0  0  0  0
  -28.7590  -27.3333   20.3162 O   0  0  0  0  0  0  0  0  0  1  0  0
  -22.8054   -8.9313   20.4373 F   0  0  0  0  0  0  0  0  0  0  0  0
  -23.9828  -13.0924   22.3619 F   0  0  0  0  0  0  0  0  0  0  0  0
  1  2  1  0  0  0  0
  1  5  2  0  0  0  0
  2  6  2  0  0  0  0
  3  8  2  0  0  0  0
  3 17  1  0  0  0  0
  4  9  1  0  0  0  0
  4 17  2  0  0  0  0
  5 19  1  0  0  0  0
  6 21  1  0  0  0  0
  7 10  2  0  0  0  0
  7 20  1  0  0  0  0
  8 27  1  0  0  0  0
  9 27  2  0  0  0  0
 10 28  1  0  0  0  0
 11 12  2  0  0  0  0
 11 29  1  0  0  0  0
 12 30  1  0  0  0  0
 13 22  1  0  0  0  0
 13 28  2  0  0  0  0
 14 23  1  0  0  0  0
 14 24  2  0  0  0  0
 15 25  1  0  0  0  0
 15 26  2  0  0  0  0
 16 30  2  0  0  0  0
 16 31  1  0  0  0  0
 17 32  1  0  0  0  0
 18 32  1  0  0  0  0
 18 33  2  0  0  0  0
 18 34  1  0  0  0  0
 19 21  2  0  0  0  0
 19 39  1  0  0  0  0
 20 22  2  0  0  0  0
 20 40  1  0  0  0  0
 21 48  1  0  0  0  0
 22 41  1  0  0  0  0
 23 25  2  0  0  0  0
 23 51  1  0  0  0  0
 24 26  1  0  0  0  0
 24 52  1  0  0  0  0
 25 58  1  0  0  0  0
 26 59  1  0  0  0  0
 27 82  1  0  0  0  0
 28 83  1  0  0  0  0
 29 31  2  0  0  0  0
 29 82  1  0  0  0  0
 30 84  1  0  0  0  0
 31 85  1  0  0  0  0
 32 67  2  0  0  0  0
 33 68  1  0  0  0  0
 33 71  1  0  0  0  0
 34 72  1  0  0  0  0
 34 77  2  0  0  0  0
 35 49  1  0  0  0  0
 35 73  1  0  0  0  0
 35 78  2  0  0  0  0
 36 64  1  0  0  0  0
 36 69  1  0  0  0  0
 36 79  2  0  0  0  0
 37 65  1  0  0  0  0
 37 74  1  0  0  0  0
 37 80  2  0  0  0  0
 38 70  1  0  0  0  0
 38 75  1  0  0  0  0
 38 81  2  0  0  0  0
 39 42  1  0  0  0  0
 40 49  1  0  0  0  0
 41 69  1  0  0  0  0
 42 44  1  0  0  0  0
 43 45  1  0  0  0  0
 43 46  1  0  0  0  0
 44 48  1  0  0  0  0
 45 50  1  0  0  0  0
 46 70  1  0  0  0  0
 47 50  1  0  0  0  0
 47 70  1  0  0  0  0
 48 73  1  0  0  0  0
 49 69  1  0  0  0  0
 50 68  1  0  0  0  0
 53 65  1  0  0  0  0
 54 66  1  0  0  0  0
 55 66  1  0  0  0  0
 56 66  1  0  0  0  0
 57 76  1  0  0  0  0
 58 60  1  0  0  0  0
 59 62  1  0  0  0  0
 60 61  1  0  0  0  0
 61 63  1  0  0  0  0
 62 75  1  0  0  0  0
 63 83  1  0  0  0  0
 64 66  1  0  0  0  0
 64 74  1  0  0  0  0
 65 76  1  0  0  0  0
 67 68  1  0  0  0  0
M  CHG  1  76   1
M  ISO  4  38 100  63 101  75 100  83 101
M  END
> <Batch ID>
0034

> <Smiles>
CNC(C)C(=O)NC(C(=O)N1Cc2cc([101O:1][101CH2:1]CCCc3cc(CC[100NH:0][100C:0](=O)N4CCCC(n5nc(-c6ccc(Oc7ccc(F)cc7F)cc6)c(C(N)=O)c5N)C4)c(C)cc3C)ccc2CC1C(=O)NC1CCCc2ccccc21)C(C)(C)C

> <Shape>
0.190

> <Color>
0.083

> <Negative vol penalty>
0.000

$$$$

  -OEChem-04052316503D

 84 92  0     1  0  0  0  0  0999 V2000
  -20.4854  -24.7631   17.8857 C   0  0  0  0  0  0  0  0  0  0  0  0
  -21.3525  -23.6856   17.7354 C   0  0  0  0  0  0  0  0  0  0  0  0
  -27.4472  -23.4737   20.6820 C   0  0  0  0  0  0  0  0  0  0  0  0
  -28.7205  -23.3901   18.6305 C   0  0  0  0  0  0  0  0  0  0  0  0
  -20.0851  -25.1618   19.1603 C   0  0  0  0  0  0  0  0  0  0  0  0
  -21.8208  -23.0069   18.8599 C   0  0  0  0  0  0  0  0  0  0  0  0
  -23.0117  -17.0168   19.3137 C   0  0  0  0  0  0  0  0  0  0  0  0
  -24.8266  -10.9263   17.9959 C   0  0  0  0  0  0  0  0  0  0  0  0
  -24.5241  -10.8099   19.3526 C   0  0  0  0  0  0  0  0  0  0  0  0
  -27.5684  -24.8631   20.7006 C   0  0  0  0  0  0  0  0  0  0  0  0
  -28.8416  -24.7796   18.6490 C   0  0  0  0  0  0  0  0  0  0  0  0
  -24.1969  -16.2872   19.2317 C   0  0  0  0  0  0  0  0  0  0  0  0
  -26.1253  -27.5100   19.1696 C   0  0  0  0  0  0  0  0  0  0  0  0
  -24.9826  -28.2566   19.4566 C   0  0  0  0  0  0  0  0  0  0  0  0
  -24.3764  -16.3200   21.6371 C   0  0  0  0  0  0  0  0  0  0  0  0
  -26.0887  -29.2095   21.3817 C   0  0  0  0  0  0  0  0  0  0  0  0
  -28.0233  -22.7371   19.6469 C   0  0  0  0  0  0  0  0  0  0  0  0
  -26.8769  -20.5451   19.0237 C   0  0  0  0  0  0  0  0  0  0  0  0
  -20.5411  -24.4816   20.3005 C   0  0  0  0  0  0  0  0  0  0  0  0
  -22.5048  -17.4135   20.5595 C   0  0  0  0  0  0  0  0  0  0  0  0
  -21.4273  -23.3977   20.1511 C   0  0  0  0  0  0  0  0  0  0  0  0
  -23.1832  -17.0523   21.7323 C   0  0  0  0  0  0  0  0  0  0  0  0
  -25.8654  -11.7601   17.5820 C   0  0  0  0  0  0  0  0  0  0  0  0
  -25.2603  -11.5275   20.2953 C   0  0  0  0  0  0  0  0  0  0  0  0
  -26.6016  -12.4776   18.5247 C   0  0  0  0  0  0  0  0  0  0  0  0
  -26.2991  -12.3613   19.8814 C   0  0  0  0  0  0  0  0  0  0  0  0
  -28.2655  -25.5161   19.6841 C   0  0  0  0  0  0  0  0  0  0  0  0
  -24.8810  -15.9412   20.3933 C   0  0  0  0  0  0  0  0  0  0  0  0
  -27.2497  -27.6131   19.9886 C   0  0  0  0  0  0  0  0  0  0  0  0
  -24.9642  -29.1063   20.5627 C   0  0  0  0  0  0  0  0  0  0  0  0
  -27.2314  -28.4629   21.0946 C   0  0  0  0  0  0  0  0  0  0  0  0
  -27.8990  -21.3018   19.6275 C   0  0  0  0  0  0  0  0  0  0  0  0
  -27.2153  -19.2400   19.2859 C   0  0  0  0  0  0  0  0  0  0  0  0
  -25.7247  -20.9828   18.2913 C   0  0  0  0  0  0  0  0  0  0  0  0
  -21.9099  -20.2080   21.9526 C   0  0  0  0  0  0  0  0  0  0  0  0
  -20.6287  -18.3373   24.2723 C   0  0  0  0  0  0  0  0  0  0  0  0
  -20.5201  -15.2911   25.8071 C   0  0  0  0  0  0  0  0  0  0  0  0
  -31.0105  -15.1577   19.5624 C   0  0  0  0  0  0  0  0  0  0  0  0
  -20.1182  -24.9789   21.6601 C   0  0  0  0  0  0  0  0  0  0  0  0
  -21.2110  -18.1770   20.6324 C   0  0  0  0  0  0  0  0  0  0  0  0
  -22.6704  -17.4363   23.0954 C   0  0  0  0  0  0  0  0  0  0  0  0
  -20.3637  -23.9717   22.7806 C   0  0  0  0  0  0  0  0  0  0  0  0
  -30.7115  -17.3046   22.3870 C   0  0  0  0  0  0  0  0  0  0  0  0
  -21.7644  -23.3781   22.6674 C   0  0  0  0  0  0  0  0  0  0  0  0
  -29.8746  -18.4757   21.8693 C   0  0  0  0  0  0  0  0  0  0  0  0
  -31.6664  -16.7774   21.3182 C   0  0  0  0  0  0  0  0  0  0  0  0
  -30.1898  -17.5911   19.5205 C   0  0  0  0  0  0  0  0  0  0  0  0
  -21.9374  -22.6207   21.3453 C   0  0  1  0  0  0  0  0  0  0  0  0
  -21.0577  -18.9708   21.9262 C   0  0  1  0  0  0  0  0  0  0  0  0
  -29.1720  -18.1207   20.5451 C   0  0  2  0  0  0  0  0  0  0  0  0
  -26.1690  -11.8662   16.1232 C   0  0  0  0  0  0  0  0  0  0  0  0
  -24.9144  -11.3863   21.7418 C   0  0  0  0  0  0  0  0  0  0  0  0
  -19.4035  -14.0767   27.6981 C   0  0  0  0  0  0  0  0  0  0  0  0
  -22.4217  -19.7956   26.2644 C   0  0  0  0  0  0  0  0  0  0  0  0
  -21.9831  -17.9531   27.9017 C   0  0  0  0  0  0  0  0  0  0  0  0
  -20.0966  -19.3616   27.0769 C   0  0  0  0  0  0  0  0  0  0  0  0
  -19.3068  -13.3110   23.9725 C   0  0  0  0  0  0  0  0  0  0  0  0
  -27.7159  -13.3700   18.0781 C   0  0  0  0  0  0  0  0  0  0  0  0
  -27.0936  -13.1382   20.9029 C   0  0  0  0  0  0  0  0  0  0  0  0
  -29.1205  -12.7622   18.2458 C   0  0  0  0  0  0  0  0  0  0  0  0
  -30.2557  -13.6503   17.7410 C   0  0  0  0  0  0  0  0  0  0  0  0
  -26.3438  -14.3653   21.4097 C   0  0  0  0  0  0  0  0  0  1  0  0
  -21.1545  -17.6723   25.5214 C   0  0  1  0  0  0  0  0  0  0  0  0
  -19.3534  -14.4097   26.2151 C   0  0  2  0  0  0  0  0  0  0  0  0
  -21.4249  -18.6899   26.6655 C   0  0  0  0  0  0  0  0  0  0  0  0
  -28.8178  -20.5407   20.2281 N   0  0  0  0  0  0  0  0  0  0  0  0
  -28.3742  -19.2923   20.0031 N   0  0  0  0  0  0  0  0  0  0  0  0
  -21.4046  -18.1880   23.1141 N   0  0  0  0  0  0  0  0  0  0  0  0
  -30.9370  -16.4580   20.0885 N   0  0  0  0  0  0  0  0  0  0  0  0
  -26.6315  -18.0643   18.9706 N   0  0  0  0  0  0  0  0  0  0  0  0
  -25.5286  -22.3593   18.1144 N   0  0  0  0  0  0  0  0  0  0  0  0
  -21.2970  -21.3249   21.4176 N   0  0  0  0  0  0  0  0  0  0  0  0
  -20.1935  -16.6295   25.8641 N   0  0  0  0  0  0  0  0  0  0  0  0
  -30.2844  -14.9380   18.3982 N   0  0  0  0  0  0  0  0  0  0  0  0
  -19.3746  -13.1335   25.4459 N   0  3  0  0  0  0  0  0  0  0  0  0
  -24.8848  -20.1778   17.8221 O   0  0  0  0  0  0  0  0  0  0  0  0
  -23.0395  -20.1536   22.4247 O   0  0  0  0  0  0  0  0  0  0  0  0
  -19.5650  -18.9600   24.3207 O   0  0  0  0  0  0  0  0  0  0  0  0
  -21.6131  -14.8377   25.4750 O   0  0  0  0  0  0  0  0  0  0  0  0
  -31.6696  -14.2577   20.0939 O   0  0  0  0  0  0  0  0  0  0  0  0
  -28.3837  -26.8719   19.7018 O   0  0  0  0  0  0  0  0  0  0  0  0
  -26.0385  -15.2297   20.3160 O   0  0  0  0  0  0  0  0  0  1  0  0
  -23.8673  -29.8243   20.8373 F   0  0  0  0  0  0  0  0  0  0  0  0
  -28.3090  -28.5670   21.8844 F   0  0  0  0  0  0  0  0  0  0  0  0
  1  2  1  0  0  0  0
  1  5  2  0  0  0  0
  2  6  2  0  0  0  0
  3 10  2  0  0  0  0
  3 17  1  0  0  0  0
  4 11  1  0  0  0  0
  4 17  2  0  0  0  0
  5 19  1  0  0  0  0
  6 21  1  0  0  0  0
  7 12  2  0  0  0  0
  7 20  1  0  0  0  0
  8  9  1  0  0  0  0
  8 23  2  0  0  0  0
  9 24  2  0  0  0  0
 10 27  1  0  0  0  0
 11 27  2  0  0  0  0
 12 28  1  0  0  0  0
 13 14  2  0  0  0  0
 13 29  1  0  0  0  0
 14 30  1  0  0  0  0
 15 22  1  0  0  0  0
 15 28  2  0  0  0  0
 16 30  2  0  0  0  0
 16 31  1  0  0  0  0
 17 32  1  0  0  0  0
 18 32  1  0  0  0  0
 18 33  2  0  0  0  0
 18 34  1  0  0  0  0
 19 21  2  0  0  0  0
 19 39  1  0  0  0  0
 20 22  2  0  0  0  0
 20 40  1  0  0  0  0
 21 48  1  0  0  0  0
 22 41  1  0  0  0  0
 23 25  1  0  0  0  0
 23 51  1  0  0  0  0
 24 26  1  0  0  0  0
 24 52  1  0  0  0  0
 25 26  2  0  0  0  0
 25 58  1  0  0  0  0
 26 59  1  0  0  0  0
 27 81  1  0  0  0  0
 28 82  1  0  0  0  0
 29 31  2  0  0  0  0
 29 81  1  0  0  0  0
 30 83  1  0  0  0  0
 31 84  1  0  0  0  0
 32 66  2  0  0  0  0
 33 67  1  0  0  0  0
 33 70  1  0  0  0  0
 34 71  1  0  0  0  0
 34 76  2  0  0  0  0
 35 49  1  0  0  0  0
 35 72  1  0  0  0  0
 35 77  2  0  0  0  0
 36 63  1  0  0  0  0
 36 68  1  0  0  0  0
 36 78  2  0  0  0  0
 37 64  1  0  0  0  0
 37 73  1  0  0  0  0
 37 79  2  0  0  0  0
 38 69  1  0  0  0  0
 38 74  1  0  0  0  0
 38 80  2  0  0  0  0
 39 42  1  0  0  0  0
 40 49  1  0  0  0  0
 41 68  1  0  0  0  0
 42 44  1  0  0  0  0
 43 45  1  0  0  0  0
 43 46  1  0  0  0  0
 44 48  1  0  0  0  0
 45 50  1  0  0  0  0
 46 69  1  0  0  0  0
 47 50  1  0  0  0  0
 47 69  1  0  0  0  0
 48 72  1  0  0  0  0
 49 68  1  0  0  0  0
 50 67  1  0  0  0  0
 53 64  1  0  0  0  0
 54 65  1  0  0  0  0
 55 65  1  0  0  0  0
 56 65  1  0  0  0  0
 57 75  1  0  0  0  0
 58 60  1  0  0  0  0
 59 62  1  0  0  0  0
 60 61  1  0  0  0  0
 61 74  1  0  0  0  0
 62 82  1  0  0  0  0
 63 65  1  0  0  0  0
 63 73  1  0  0  0  0
 64 75  1  0  0  0  0
 66 67  1  0  0  0  0
M  CHG  1  75   1
M  ISO  4  38 100  62 101  74 100  82 101
M  END
> <Batch ID>
0034

> <Smiles>
CNC(C)C(=O)NC(C(=O)N1Cc2cc([101O:1][101CH2:1]Cc3c(C)ccc(C)c3CCC[100NH:0][100C:0](=O)N3CCCC(n4nc(-c5ccc(Oc6ccc(F)cc6F)cc5)c(C(N)=O)c4N)C3)ccc2CC1C(=O)NC1CCCc2ccccc21)C(C)(C)C

> <Shape>
0.192

> <Color>
0.081

> <Negative vol penalty>
0.000

$$$$

  -OEChem-04052316503D

 91 99  0     1  0  0  0  0  0999 V2000
  -28.1286  -33.6798   26.1876 C   0  0  0  0  0  0  0  0  0  0  0  0
  -28.2696  -32.4740   25.5081 C   0  0  0  0  0  0  0  0  0  0  0  0
  -26.3337  -14.5702   22.0470 C   0  0  0  0  0  0  0  0  0  0  0  0
  -25.7658  -14.9323   19.7268 C   0  0  0  0  0  0  0  0  0  0  0  0
  -26.8598  -34.1308   26.5490 C   0  0  0  0  0  0  0  0  0  0  0  0
  -27.1418  -31.7180   25.1905 C   0  0  0  0  0  0  0  0  0  0  0  0
  -27.2518  -29.9660   20.4404 C   0  0  0  0  0  0  0  0  0  0  0  0
  -26.3030  -13.1913   21.8393 C   0  0  0  0  0  0  0  0  0  0  0  0
  -25.7352  -13.5533   19.5191 C   0  0  0  0  0  0  0  0  0  0  0  0
  -28.0575  -28.8562   20.1896 C   0  0  0  0  0  0  0  0  0  0  0  0
  -23.9655  -10.7650   21.5679 C   0  0  0  0  0  0  0  0  0  0  0  0
  -23.3068   -9.9821   22.5159 C   0  0  0  0  0  0  0  0  0  0  0  0
  -26.1125  -27.4319   20.2771 C   0  0  0  0  0  0  0  0  0  0  0  0
  -30.0090  -24.7122   18.2725 C   0  0  0  0  0  0  0  0  0  0  0  0
  -31.3642  -24.9823   20.2542 C   0  0  0  0  0  0  0  0  0  0  0  0
  -25.3597   -8.7865   22.9549 C   0  0  0  0  0  0  0  0  0  0  0  0
  -26.0650  -15.4407   20.9907 C   0  0  0  0  0  0  0  0  0  0  0  0
  -27.2046  -17.7218   21.0668 C   0  0  0  0  0  0  0  0  0  0  0  0
  -25.7151  -33.3846   26.2272 C   0  0  0  0  0  0  0  0  0  0  0  0
  -25.8695  -29.8155   20.6226 C   0  0  0  0  0  0  0  0  0  0  0  0
  -25.8565  -32.1587   25.5491 C   0  0  0  0  0  0  0  0  0  0  0  0
  -25.2911  -28.5417   20.5276 C   0  0  0  0  0  0  0  0  0  0  0  0
  -30.3624  -25.4488   19.4030 C   0  0  0  0  0  0  0  0  0  0  0  0
  -30.6573  -23.5091   17.9931 C   0  0  0  0  0  0  0  0  0  0  0  0
  -31.6591  -23.0426   18.8443 C   0  0  0  0  0  0  0  0  0  0  0  0
  -26.0038  -12.6828   20.5754 C   0  0  0  0  0  0  0  0  0  0  0  0
  -27.4883  -27.5885   20.1108 C   0  0  0  0  0  0  0  0  0  0  0  0
  -25.3213  -10.5586   21.3133 C   0  0  0  0  0  0  0  0  0  0  0  0
  -24.0039   -8.9929   23.2094 C   0  0  0  0  0  0  0  0  0  0  0  0
  -32.0126  -23.7793   19.9749 C   0  0  0  0  0  0  0  0  0  0  0  0
  -26.0184   -9.5694   22.0068 C   0  0  0  0  0  0  0  0  0  0  0  0
  -26.0959  -16.8653   21.2047 C   0  0  0  0  0  0  0  0  0  0  0  0
  -26.7174  -18.9672   21.3795 C   0  0  0  0  0  0  0  0  0  0  0  0
  -28.5543  -17.4186   20.6896 C   0  0  0  0  0  0  0  0  0  0  0  0
  -23.8464  -30.3829   23.0077 C   0  0  0  0  0  0  0  0  0  0  0  0
  -21.6185  -29.5761   20.7924 C   0  0  0  0  0  0  0  0  0  0  0  0
  -20.8706  -27.9118   17.9084 C   0  0  0  0  0  0  0  0  0  0  0  0
  -21.2384  -21.3729   21.1694 C   0  0  0  0  0  0  0  0  0  0  0  0
  -24.3682  -33.8897   26.6803 C   0  0  0  0  0  0  0  0  0  0  0  0
  -25.0105  -31.0259   20.8659 C   0  0  0  0  0  0  0  0  0  0  0  0
  -23.8095  -28.3290   20.6954 C   0  0  0  0  0  0  0  0  0  0  0  0
  -23.1952  -33.2122   25.9763 C   0  0  0  0  0  0  0  0  0  0  0  0
  -23.3571  -21.1190   24.0195 C   0  0  0  0  0  0  0  0  0  0  0  0
  -23.3914  -31.6998   25.9473 C   0  0  0  0  0  0  0  0  0  0  0  0
  -24.3993  -20.0773   23.6089 C   0  0  0  0  0  0  0  0  0  0  0  0
  -21.9756  -20.7860   23.4604 C   0  0  0  0  0  0  0  0  0  0  0  0
  -22.9755  -19.5288   21.5913 C   0  0  0  0  0  0  0  0  0  0  0  0
  -24.6552  -31.3224   25.1650 C   0  0  1  0  0  0  0  0  0  0  0  0
  -23.6864  -30.6920   21.5460 C   0  0  1  0  0  0  0  0  0  0  0  0
  -24.3962  -19.8516   22.0850 C   0  0  2  0  0  0  0  0  0  0  0  0
  -33.7576  -21.9783   17.9783 C   0  0  0  0  0  0  0  0  0  0  0  0
  -18.9571  -27.4052   16.3659 C   0  0  0  0  0  0  0  0  0  0  0  0
  -20.5478  -27.5374   22.7942 C   0  0  0  0  0  0  0  0  0  0  0  0
  -19.3111  -26.4430   20.9124 C   0  0  0  0  0  0  0  0  0  0  0  0
  -18.7855  -28.7980   21.5453 C   0  0  0  0  0  0  0  0  0  0  0  0
  -22.2013  -29.2515   15.6295 C   0  0  0  0  0  0  0  0  0  0  0  0
  -30.2569  -22.7297   16.7656 C   0  0  0  0  0  0  0  0  0  0  0  0
  -32.3655  -21.7574   18.5624 C   0  0  0  0  0  0  0  0  0  0  0  0
  -29.6703  -26.7358   19.7015 C   0  0  0  0  0  0  0  0  0  1  0  0
  -29.3929  -21.4986   17.0652 C   0  0  0  0  0  0  0  0  0  0  0  0
  -28.0363  -21.7911   17.7170 C   0  0  0  0  0  0  0  0  0  0  0  0
  -27.0974  -22.6099   16.8283 C   0  0  0  0  0  0  0  0  0  0  0  0
  -25.7726  -22.8970   17.5404 C   0  0  0  0  0  0  0  0  0  0  0  0
  -24.8205  -23.6887   16.6413 C   0  0  0  0  0  0  0  0  0  0  0  0
  -23.4728  -23.9937   17.3016 C   0  0  0  0  0  0  0  0  0  0  0  0
  -22.7062  -22.7396   17.7273 C   0  0  0  0  0  0  0  0  0  0  0  0
  -21.3604  -23.1007   18.3581 C   0  0  0  0  0  0  0  0  0  0  0  0
  -20.6113  -21.8560   18.8173 C   0  0  0  0  0  0  0  0  0  0  0  0
  -20.9592  -28.2892   20.3587 C   0  0  1  0  0  0  0  0  0  0  0  0
  -20.1169  -28.3428   16.6631 C   0  0  2  0  0  0  0  0  0  0  0  0
  -19.9291  -27.7703   21.4014 C   0  0  0  0  0  0  0  0  0  0  0  0
  -24.9879  -17.5120   21.5763 N   0  0  0  0  0  0  0  0  0  0  0  0
  -25.3979  -18.7880   21.6746 N   0  0  0  0  0  0  0  0  0  0  0  0
  -23.0126  -29.5429   20.9379 N   0  0  0  0  0  0  0  0  0  0  0  0
  -22.0416  -20.5856   22.0107 N   0  0  0  0  0  0  0  0  0  0  0  0
  -27.2932  -20.1873   21.4283 N   0  0  0  0  0  0  0  0  0  0  0  0
  -28.8846  -16.0873   20.4018 N   0  0  0  0  0  0  0  0  0  0  0  0
  -24.4127  -31.4082   23.7409 N   0  0  0  0  0  0  0  0  0  0  0  0
  -20.3953  -28.5444   19.0376 N   0  0  0  0  0  0  0  0  0  0  0  0
  -21.3667  -21.1230   19.8086 N   0  0  0  0  0  0  0  0  0  0  0  0
  -21.0278  -28.3523   15.4836 N   0  3  0  0  0  0  0  0  0  0  0  0
  -29.4449  -18.2996   20.6261 O   0  0  0  0  0  0  0  0  0  0  0  0
  -23.4817  -29.2953   23.4387 O   0  0  0  0  0  0  0  0  0  0  0  0
  -20.9229  -30.5760   20.9877 O   0  0  0  0  0  0  0  0  0  0  0  0
  -21.7867  -27.0929   17.8825 O   0  0  0  0  0  0  0  0  0  0  0  0
  -20.4681  -22.2385   21.5989 O   0  0  0  0  0  0  0  0  0  0  0  0
  -25.9740  -11.3373   20.3723 O   0  0  0  0  0  0  0  0  0  0  0  0
  -28.2780  -26.4960   19.8651 O   0  0  0  0  0  0  0  0  0  1  0  0
  -23.3716   -8.2421   24.1209 F   0  0  0  0  0  0  0  0  0  0  0  0
  -32.9736  -23.3398   20.7995 F   0  0  0  0  0  0  0  0  0  0  0  0
  -27.3214   -9.3672   21.7674 F   0  0  0  0  0  0  0  0  0  0  0  0
  1  2  1  0  0  0  0
  1  5  2  0  0  0  0
  2  6  2  0  0  0  0
  3  8  2  0  0  0  0
  3 17  1  0  0  0  0
  4  9  1  0  0  0  0
  4 17  2  0  0  0  0
  5 19  1  0  0  0  0
  6 21  1  0  0  0  0
  7 10  2  0  0  0  0
  7 20  1  0  0  0  0
  8 26  1  0  0  0  0
  9 26  2  0  0  0  0
 10 27  1  0  0  0  0
 11 12  2  0  0  0  0
 11 28  1  0  0  0  0
 12 29  1  0  0  0  0
 13 22  1  0  0  0  0
 13 27  2  0  0  0  0
 14 23  2  0  0  0  0
 14 24  1  0  0  0  0
 15 23  1  0  0  0  0
 15 30  2  0  0  0  0
 16 29  2  0  0  0  0
 16 31  1  0  0  0  0
 17 32  1  0  0  0  0
 18 32  1  0  0  0  0
 18 33  2  0  0  0  0
 18 34  1  0  0  0  0
 19 21  2  0  0  0  0
 19 39  1  0  0  0  0
 20 22  2  0  0  0  0
 20 40  1  0  0  0  0
 21 48  1  0  0  0  0
 22 41  1  0  0  0  0
 23 59  1  0  0  0  0
 24 25  2  0  0  0  0
 24 57  1  0  0  0  0
 25 30  1  0  0  0  0
 25 58  1  0  0  0  0
 26 87  1  0  0  0  0
 27 88  1  0  0  0  0
 28 31  2  0  0  0  0
 28 87  1  0  0  0  0
 29 89  1  0  0  0  0
 30 90  1  0  0  0  0
 31 91  1  0  0  0  0
 32 72  2  0  0  0  0
 33 73  1  0  0  0  0
 33 76  1  0  0  0  0
 34 77  1  0  0  0  0
 34 82  2  0  0  0  0
 35 49  1  0  0  0  0
 35 78  1  0  0  0  0
 35 83  2  0  0  0  0
 36 69  1  0  0  0  0
 36 74  1  0  0  0  0
 36 84  2  0  0  0  0
 37 70  1  0  0  0  0
 37 79  1  0  0  0  0
 37 85  2  0  0  0  0
 38 75  1  0  0  0  0
 38 80  1  0  0  0  0
 38 86  2  0  0  0  0
 39 42  1  0  0  0  0
 40 49  1  0  0  0  0
 41 74  1  0  0  0  0
 42 44  1  0  0  0  0
 43 45  1  0  0  0  0
 43 46  1  0  0  0  0
 44 48  1  0  0  0  0
 45 50  1  0  0  0  0
 46 75  1  0  0  0  0
 47 50  1  0  0  0  0
 47 75  1  0  0  0  0
 48 78  1  0  0  0  0
 49 74  1  0  0  0  0
 50 73  1  0  0  0  0
 51 58  1  0  0  0  0
 52 70  1  0  0  0  0
 53 71  1  0  0  0  0
 54 71  1  0  0  0  0
 55 71  1  0  0  0  0
 56 81  1  0  0  0  0
 57 60  1  0  0  0  0
 59 88  1  0  0  0  0
 60 61  1  0  0  0  0
 61 62  1  0  0  0  0
 62 63  1  0  0  0  0
 63 64  1  0  0  0  0
 64 65  1  0  0  0  0
 65 66  1  0  0  0  0
 66 67  1  0  0  0  0
 67 68  1  0  0  0  0
 68 80  1  0  0  0  0
 69 71  1  0  0  0  0
 69 79  1  0  0  0  0
 70 81  1  0  0  0  0
 72 73  1  0  0  0  0
M  CHG  1  81   1
M  ISO  4  38 100  59 101  80 100  88 101
M  END
> <Batch ID>
0034

> <Smiles>
CCc1c(F)cc([101CH2:1][101O:1]c2ccc3c(c2)CN(C(=O)C(NC(=O)C(C)NC)C(C)(C)C)C(C(=O)NC2CCCc4ccccc42)C3)cc1CCCCCCCCCC[100NH:0][100C:0](=O)N1CCCC(n2nc(-c3ccc(Oc4ccc(F)cc4F)cc3)c(C(N)=O)c2N)C1

> <Shape>
0.258

> <Color>
0.080

> <Negative vol penalty>
0.000

$$$$

  -OEChem-04052316503D

 87 95  0     1  0  0  0  0  0999 V2000
  -24.5132  -16.5431   24.7552 C   0  0  0  0  0  0  0  0  0  0  0  0
  -24.1278  -17.7673   25.2920 C   0  0  0  0  0  0  0  0  0  0  0  0
  -26.4950  -12.5612   21.6478 C   0  0  0  0  0  0  0  0  0  0  0  0
  -26.0058  -13.6015   19.5228 C   0  0  0  0  0  0  0  0  0  0  0  0
  -24.8262  -16.4451   23.4000 C   0  0  0  0  0  0  0  0  0  0  0  0
  -24.0561  -18.8945   24.4742 C   0  0  0  0  0  0  0  0  0  0  0  0
  -20.3420  -24.9636   23.6453 C   0  0  0  0  0  0  0  0  0  0  0  0
  -25.2394  -11.9539   21.6395 C   0  0  0  0  0  0  0  0  0  0  0  0
  -24.7501  -12.9941   19.5145 C   0  0  0  0  0  0  0  0  0  0  0  0
  -20.5393  -26.3372   23.5108 C   0  0  0  0  0  0  0  0  0  0  0  0
  -23.7707   -9.2896   20.1640 C   0  0  0  0  0  0  0  0  0  0  0  0
  -23.7010   -7.9403   20.5107 C   0  0  0  0  0  0  0  0  0  0  0  0
  -21.0265  -26.0319   21.1681 C   0  0  0  0  0  0  0  0  0  0  0  0
  -26.9809  -28.6966   21.0932 C   0  0  0  0  0  0  0  0  0  0  0  0
  -24.9307  -28.8551   19.2078 C   0  0  0  0  0  0  0  0  0  0  0  0
  -22.2339   -8.4889   22.3502 C   0  0  0  0  0  0  0  0  0  0  0  0
  -26.8782  -13.3851   20.5894 C   0  0  0  0  0  0  0  0  0  0  0  0
  -29.3730  -13.4968   20.0688 C   0  0  0  0  0  0  0  0  0  0  0  0
  -24.7491  -17.5695   22.5632 C   0  0  0  0  0  0  0  0  0  0  0  0
  -20.4965  -24.1111   22.5427 C   0  0  0  0  0  0  0  0  0  0  0  0
  -24.3697  -18.8116   23.1069 C   0  0  0  0  0  0  0  0  0  0  0  0
  -20.8282  -24.6481   21.2906 C   0  0  0  0  0  0  0  0  0  0  0  0
  -25.8857  -29.5296   21.3221 C   0  0  0  0  0  0  0  0  0  0  0  0
  -26.0259  -28.0222   18.9789 C   0  0  0  0  0  0  0  0  0  0  0  0
  -27.0510  -27.9429   19.9215 C   0  0  0  0  0  0  0  0  0  0  0  0
  -24.8607  -29.6088   20.3794 C   0  0  0  0  0  0  0  0  0  0  0  0
  -24.3669  -12.1703   20.5729 C   0  0  0  0  0  0  0  0  0  0  0  0
  -20.8844  -26.8712   22.2728 C   0  0  0  0  0  0  0  0  0  0  0  0
  -23.0721  -10.2385   20.9104 C   0  0  0  0  0  0  0  0  0  0  0  0
  -22.9325   -7.5400   21.6038 C   0  0  0  0  0  0  0  0  0  0  0  0
  -22.3037   -9.8382   22.0035 C   0  0  0  0  0  0  0  0  0  0  0  0
  -28.1749  -14.0132   20.5976 C   0  0  0  0  0  0  0  0  0  0  0  0
  -30.3093  -14.4679   20.3276 C   0  0  0  0  0  0  0  0  0  0  0  0
  -29.6177  -12.2508   19.4030 C   0  0  0  0  0  0  0  0  0  0  0  0
  -22.4242  -21.6845   21.8361 C   0  0  0  0  0  0  0  0  0  0  0  0
  -20.5278  -21.4497   19.2149 C   0  0  0  0  0  0  0  0  0  0  0  0
  -18.3827  -22.9779   17.0446 C   0  0  0  0  0  0  0  0  0  0  0  0
  -29.8181  -20.3015   21.0910 C   0  0  0  0  0  0  0  0  0  0  0  0
  -25.1427  -17.4246   21.1145 C   0  0  0  0  0  0  0  0  0  0  0  0
  -20.2541  -22.6348   22.6983 C   0  0  0  0  0  0  0  0  0  0  0  0
  -20.9862  -23.7782   20.0713 C   0  0  0  0  0  0  0  0  0  0  0  0
  -24.6800  -18.5860   20.2385 C   0  0  0  0  0  0  0  0  0  0  0  0
  -31.3087  -17.9746   23.4279 C   0  0  0  0  0  0  0  0  0  0  0  0
  -24.9946  -19.9192   20.9095 C   0  0  0  0  0  0  0  0  0  0  0  0
  -30.7792  -16.6378   22.9056 C   0  0  0  0  0  0  0  0  0  0  0  0
  -30.2569  -19.0729   23.3025 C   0  0  0  0  0  0  0  0  0  0  0  0
  -29.1914  -17.9237   21.4004 C   0  0  0  0  0  0  0  0  0  0  0  0
  -24.2561  -20.0516   22.2469 C   0  0  1  0  0  0  0  0  0  0  0  0
  -20.9414  -21.7997   21.6224 C   0  0  1  0  0  0  0  0  0  0  0  0
  -30.2158  -16.7771   21.4789 C   0  0  2  0  0  0  0  0  0  0  0  0
  -25.8321  -30.3266   22.5840 C   0  0  0  0  0  0  0  0  0  0  0  0
  -26.0796  -27.2252   17.7169 C   0  0  0  0  0  0  0  0  0  0  0  0
  -17.0248  -22.5394   14.9804 C   0  0  0  0  0  0  0  0  0  0  0  0
  -23.0640  -21.5736   17.5231 C   0  0  0  0  0  0  0  0  0  0  0  0
  -21.6301  -22.0874   15.5362 C   0  0  0  0  0  0  0  0  0  0  0  0
  -21.3647  -19.9163   16.7357 C   0  0  0  0  0  0  0  0  0  0  0  0
  -15.8471  -23.5930   18.4414 C   0  0  0  0  0  0  0  0  0  0  0  0
  -28.2336  -27.0587   19.6978 C   0  0  0  0  0  0  0  0  0  0  0  0
  -23.6668  -30.5018   20.6053 C   0  0  0  0  0  0  0  0  0  0  0  0
  -28.1523  -25.7636   20.5185 C   0  0  0  0  0  0  0  0  0  0  0  0
  -22.6569  -29.9381   21.6072 C   0  0  0  0  0  0  0  0  0  0  0  0
  -29.3869  -24.8837   20.3116 C   0  0  0  0  0  0  0  0  0  0  0  0
  -29.2770  -23.5776   21.1038 C   0  0  0  0  0  0  0  0  0  0  0  0
  -30.4992  -22.6821   20.9297 C   0  0  0  0  0  0  0  0  0  0  0  0
  -22.0105  -28.6370   21.1460 C   0  0  0  0  0  0  0  0  0  1  0  0
  -20.5436  -22.0439   17.8272 C   0  0  1  0  0  0  0  0  0  0  0  0
  -17.0296  -22.5560   16.5010 C   0  0  2  0  0  0  0  0  0  0  0  0
  -21.6496  -21.4217   16.9288 C   0  0  0  0  0  0  0  0  0  0  0  0
  -28.3328  -15.2187   21.1508 N   0  0  0  0  0  0  0  0  0  0  0  0
  -29.6411  -15.4678   20.9711 N   0  0  0  0  0  0  0  0  0  0  0  0
  -20.7449  -22.3404   20.2758 N   0  0  0  0  0  0  0  0  0  0  0  0
  -29.7756  -19.1660   21.9169 N   0  0  0  0  0  0  0  0  0  0  0  0
  -31.6306  -14.5554   20.0655 N   0  0  0  0  0  0  0  0  0  0  0  0
  -28.5438  -11.3692   19.2194 N   0  0  0  0  0  0  0  0  0  0  0  0
  -22.8663  -20.3890   22.0255 N   0  0  0  0  0  0  0  0  0  0  0  0
  -19.1911  -21.8910   17.3022 N   0  0  0  0  0  0  0  0  0  0  0  0
  -30.3804  -21.4386   21.6581 N   0  0  0  0  0  0  0  0  0  0  0  0
  -15.9695  -23.4956   16.9641 N   0  3  0  0  0  0  0  0  0  0  0  0
  -30.7584  -11.9217   18.9978 O   0  0  0  0  0  0  0  0  0  0  0  0
  -23.1162  -22.6958   21.8283 O   0  0  0  0  0  0  0  0  0  0  0  0
  -20.3230  -20.2411   19.3530 O   0  0  0  0  0  0  0  0  0  0  0  0
  -18.6930  -24.1542   17.2195 O   0  0  0  0  0  0  0  0  0  0  0  0
  -29.3912  -20.3008   19.9313 O   0  0  0  0  0  0  0  0  0  0  0  0
  -23.1417  -11.5776   20.5644 O   0  0  0  0  0  0  0  0  0  0  0  0
  -21.0781  -28.2115   22.1389 O   0  0  0  0  0  0  0  0  0  1  0  0
  -22.8644   -6.2440   21.9357 F   0  0  0  0  0  0  0  0  0  0  0  0
  -21.6294  -10.7451   22.7237 F   0  0  0  0  0  0  0  0  0  0  0  0
  1  2  1  0  0  0  0
  1  5  2  0  0  0  0
  2  6  2  0  0  0  0
  3  8  2  0  0  0  0
  3 17  1  0  0  0  0
  4  9  1  0  0  0  0
  4 17  2  0  0  0  0
  5 19  1  0  0  0  0
  6 21  1  0  0  0  0
  7 10  2  0  0  0  0
  7 20  1  0  0  0  0
  8 27  1  0  0  0  0
  9 27  2  0  0  0  0
 10 28  1  0  0  0  0
 11 12  2  0  0  0  0
 11 29  1  0  0  0  0
 12 30  1  0  0  0  0
 13 22  1  0  0  0  0
 13 28  2  0  0  0  0
 14 23  1  0  0  0  0
 14 25  2  0  0  0  0
 15 24  2  0  0  0  0
 15 26  1  0  0  0  0
 16 30  2  0  0  0  0
 16 31  1  0  0  0  0
 17 32  1  0  0  0  0
 18 32  1  0  0  0  0
 18 33  2  0  0  0  0
 18 34  1  0  0  0  0
 19 21  2  0  0  0  0
 19 39  1  0  0  0  0
 20 22  2  0  0  0  0
 20 40  1  0  0  0  0
 21 48  1  0  0  0  0
 22 41  1  0  0  0  0
 23 26  2  0  0  0  0
 23 51  1  0  0  0  0
 24 25  1  0  0  0  0
 24 52  1  0  0  0  0
 25 58  1  0  0  0  0
 26 59  1  0  0  0  0
 27 84  1  0  0  0  0
 28 85  1  0  0  0  0
 29 31  2  0  0  0  0
 29 84  1  0  0  0  0
 30 86  1  0  0  0  0
 31 87  1  0  0  0  0
 32 69  2  0  0  0  0
 33 70  1  0  0  0  0
 33 73  1  0  0  0  0
 34 74  1  0  0  0  0
 34 79  2  0  0  0  0
 35 49  1  0  0  0  0
 35 75  1  0  0  0  0
 35 80  2  0  0  0  0
 36 66  1  0  0  0  0
 36 71  1  0  0  0  0
 36 81  2  0  0  0  0
 37 67  1  0  0  0  0
 37 76  1  0  0  0  0
 37 82  2  0  0  0  0
 38 72  1  0  0  0  0
 38 77  1  0  0  0  0
 38 83  2  0  0  0  0
 39 42  1  0  0  0  0
 40 49  1  0  0  0  0
 41 71  1  0  0  0  0
 42 44  1  0  0  0  0
 43 45  1  0  0  0  0
 43 46  1  0  0  0  0
 44 48  1  0  0  0  0
 45 50  1  0  0  0  0
 46 72  1  0  0  0  0
 47 50  1  0  0  0  0
 47 72  1  0  0  0  0
 48 75  1  0  0  0  0
 49 71  1  0  0  0  0
 50 70  1  0  0  0  0
 53 67  1  0  0  0  0
 54 68  1  0  0  0  0
 55 68  1  0  0  0  0
 56 68  1  0  0  0  0
 57 78  1  0  0  0  0
 58 60  1  0  0  0  0
 59 61  1  0  0  0  0
 60 62  1  0  0  0  0
 61 65  1  0  0  0  0
 62 63  1  0  0  0  0
 63 64  1  0  0  0  0
 64 77  1  0  0  0  0
 65 85  1  0  0  0  0
 66 68  1  0  0  0  0
 66 76  1  0  0  0  0
 67 78  1  0  0  0  0
 69 70  1  0  0  0  0
M  CHG  1  78   1
M  ISO  4  38 100  65 101  77 100  85 101
M  END
> <Batch ID>
0034

> <Smiles>
CNC(C)C(=O)NC(C(=O)N1Cc2cc([101O:1][101CH2:1]CCc3cc(C)c(CCCCC[100NH:0][100C:0](=O)N4CCCC(n5nc(-c6ccc(Oc7ccc(F)cc7F)cc6)c(C(N)=O)c5N)C4)cc3C)ccc2CC1C(=O)NC1CCCc2ccccc21)C(C)(C)C

> <Shape>
0.248

> <Color>
0.088

> <Negative vol penalty>
0.000

$$$$

  -OEChem-04052316503D

 81 89  0     1  0  0  0  0  0999 V2000
  -22.0803  -11.5544   20.8160 C   0  0  0  0  0  0  0  0  0  0  0  0
  -22.0257  -12.6925   21.6142 C   0  0  0  0  0  0  0  0  0  0  0  0
  -26.0957  -29.3484   21.4338 C   0  0  0  0  0  0  0  0  0  0  0  0
  -23.9149  -29.6297   20.4327 C   0  0  0  0  0  0  0  0  0  0  0  0
  -23.2638  -11.2220   20.1580 C   0  0  0  0  0  0  0  0  0  0  0  0
  -23.1548  -13.4984   21.7558 C   0  0  0  0  0  0  0  0  0  0  0  0
  -23.2765  -19.5902   22.3722 C   0  0  0  0  0  0  0  0  0  0  0  0
  -26.2833  -30.7304   21.4136 C   0  0  0  0  0  0  0  0  0  0  0  0
  -24.1025  -31.0117   20.4125 C   0  0  0  0  0  0  0  0  0  0  0  0
  -23.3942  -20.4180   23.4878 C   0  0  0  0  0  0  0  0  0  0  0  0
  -25.2971  -33.4050   23.2321 C   0  0  0  0  0  0  0  0  0  0  0  0
  -25.8135  -34.0059   24.3800 C   0  0  0  0  0  0  0  0  0  0  0  0
  -25.7689  -20.5918   23.1006 C   0  0  0  0  0  0  0  0  0  0  0  0
  -27.7031  -34.8117   23.1082 C   0  0  0  0  0  0  0  0  0  0  0  0
  -25.1288  -19.7652   26.3574 C   0  0  0  0  0  0  0  0  0  0  0  0
  -24.9115  -28.7980   20.9434 C   0  0  0  0  0  0  0  0  0  0  0  0
  -25.5065  -26.3961   20.3234 C   0  0  0  0  0  0  0  0  0  0  0  0
  -24.4052  -12.0294   20.2839 C   0  0  0  0  0  0  0  0  0  0  0  0
  -24.4076  -19.2477   21.6174 C   0  0  0  0  0  0  0  0  0  0  0  0
  -24.3550  -13.1757   21.1000 C   0  0  0  0  0  0  0  0  0  0  0  0
  -25.6624  -19.7617   21.9743 C   0  0  0  0  0  0  0  0  0  0  0  0
  -25.1590  -21.7446   27.4306 C   0  0  0  0  0  0  0  0  0  0  0  0
  -25.2867  -31.5621   20.9029 C   0  0  0  0  0  0  0  0  0  0  0  0
  -24.6410  -20.9166   23.8539 C   0  0  0  0  0  0  0  0  0  0  0  0
  -25.9837  -33.5073   22.0222 C   0  0  0  0  0  0  0  0  0  0  0  0
  -24.9996  -21.1233   26.1672 C   0  0  0  0  0  0  0  0  0  1  0  0
  -27.0165  -34.7093   24.3181 C   0  0  0  0  0  0  0  0  0  0  0  0
  -27.1867  -34.2106   21.9602 C   0  0  0  0  0  0  0  0  0  0  0  0
  -24.7174  -27.3704   20.9635 C   0  0  0  0  0  0  0  0  0  0  0  0
  -25.3803  -20.7471   28.3544 C   0  0  0  0  0  0  0  0  0  0  0  0
  -24.9095  -25.2027   20.6488 C   0  0  0  0  0  0  0  0  0  0  0  0
  -26.6747  -26.5555   19.5076 C   0  0  0  0  0  0  0  0  0  0  0  0
  -25.8969  -16.5286   20.9158 C   0  0  0  0  0  0  0  0  0  0  0  0
  -21.4115  -23.5925   25.2622 C   0  0  0  0  0  0  0  0  0  0  0  0
  -27.6702  -18.4493   18.9952 C   0  0  0  0  0  0  0  0  0  0  0  0
  -28.8336  -21.5837   18.3108 C   0  0  0  0  0  0  0  0  0  0  0  0
  -25.6755  -11.6037   19.5912 C   0  0  0  0  0  0  0  0  0  0  0  0
  -24.2597  -18.3754   20.4010 C   0  0  0  0  0  0  0  0  0  0  0  0
  -26.9045  -19.4403   21.1854 C   0  0  0  0  0  0  0  0  0  0  0  0
  -26.7180  -12.7146   19.4941 C   0  0  0  0  0  0  0  0  0  0  0  0
  -20.6683  -23.3111   21.7681 C   0  0  0  0  0  0  0  0  0  0  0  0
  -26.8678  -13.4249   20.8357 C   0  0  0  0  0  0  0  0  0  0  0  0
  -21.6754  -24.2533   21.1099 C   0  0  0  0  0  0  0  0  0  0  0  0
  -20.2040  -23.8457   23.1193 C   0  0  0  0  0  0  0  0  0  0  0  0
  -22.3259  -25.0834   23.4149 C   0  0  0  0  0  0  0  0  0  0  0  0
  -25.5516  -14.0885   21.2586 C   0  0  1  0  0  0  0  0  0  0  0  0
  -25.5565  -17.6753   20.0065 C   0  0  1  0  0  0  0  0  0  0  0  0
  -22.8439  -24.5656   22.0614 C   0  0  2  0  0  0  0  0  0  0  0  0
  -25.6093  -20.8316   29.8127 C   0  0  0  0  0  0  0  0  0  0  0  0
  -29.9986  -23.4098   17.0436 C   0  0  0  0  0  0  0  0  0  0  0  0
  -30.1504  -17.3254   20.3719 C   0  0  0  0  0  0  0  0  0  0  0  0
  -31.4565  -19.2426   19.4302 C   0  0  0  0  0  0  0  0  0  0  0  0
  -30.3676  -17.6044   17.8961 C   0  0  0  0  0  0  0  0  0  0  0  0
  -25.5527  -18.2450   28.2879 C   0  0  0  0  0  0  0  0  0  0  0  0
  -26.4015  -22.2070   16.7438 C   0  0  0  0  0  0  0  0  0  0  0  0
  -25.0989  -23.1947   27.7049 C   0  0  0  0  0  0  0  0  0  0  0  0
  -22.6171  -23.9505   26.0942 C   0  0  0  0  0  0  0  0  0  0  0  0
  -23.7619  -23.6261   28.3411 C   0  0  0  0  0  0  0  0  0  0  0  0
  -22.5601  -23.2725   27.4595 C   0  0  0  0  0  0  0  0  0  0  0  0
  -28.9345  -19.2566   19.1643 C   0  0  1  0  0  0  0  0  0  0  0  0
  -28.8776  -22.3824   17.0205 C   0  0  2  0  0  0  0  0  0  0  0  0
  -30.2044  -18.3619   19.2318 C   0  0  0  0  0  0  0  0  0  0  0  0
  -23.6968  -26.8418   21.6440 N   0  0  0  0  0  0  0  0  0  0  0  0
  -25.3603  -19.5482   27.6906 N   0  0  0  0  0  0  0  0  0  0  0  0
  -23.8405  -25.5224   21.4332 N   0  0  0  0  0  0  0  0  0  0  0  0
  -26.7093  -18.5782   20.0081 N   0  0  0  0  0  0  0  0  0  0  0  0
  -21.3438  -24.1512   23.9858 N   0  0  0  0  0  0  0  0  0  0  0  0
  -25.1998  -23.9216   20.3376 N   0  0  0  0  0  0  0  0  0  0  0  0
  -26.5078  -26.7123   18.1249 N   0  0  0  0  0  0  0  0  0  0  0  0
  -25.3492  -15.3209   20.5274 N   0  0  0  0  0  0  0  0  0  0  0  0
  -28.9461  -20.2295   18.0772 N   0  0  0  0  0  0  0  0  0  0  0  0
  -27.5878  -23.0987   16.8104 N   0  3  0  0  0  0  0  0  0  0  0  0
  -27.8332  -26.5423   19.9886 O   0  0  0  0  0  0  0  0  0  0  0  0
  -26.6052  -16.7247   21.8963 O   0  0  0  0  0  0  0  0  0  0  0  0
  -20.5580  -22.8363   25.7333 O   0  0  0  0  0  0  0  0  0  0  0  0
  -27.5369  -17.7362   17.9975 O   0  0  0  0  0  0  0  0  0  0  0  0
  -28.7152  -22.1090   19.4156 O   0  0  0  0  0  0  0  0  0  0  0  0
  -25.4693  -32.9107   20.8832 O   0  0  0  0  0  0  0  0  0  0  0  0
  -24.7589  -21.7242   24.9429 O   0  0  0  0  0  0  0  0  0  1  0  0
  -27.5115  -35.2877   25.4202 F   0  0  0  0  0  0  0  0  0  0  0  0
  -27.8502  -34.3134   20.8005 F   0  0  0  0  0  0  0  0  0  0  0  0
  1  2  1  0  0  0  0
  1  5  2  0  0  0  0
  2  6  2  0  0  0  0
  3  8  2  0  0  0  0
  3 16  1  0  0  0  0
  4  9  1  0  0  0  0
  4 16  2  0  0  0  0
  5 18  1  0  0  0  0
  6 20  1  0  0  0  0
  7 10  2  0  0  0  0
  7 19  1  0  0  0  0
  8 23  1  0  0  0  0
  9 23  2  0  0  0  0
 10 24  1  0  0  0  0
 11 12  2  0  0  0  0
 11 25  1  0  0  0  0
 12 27  1  0  0  0  0
 13 21  1  0  0  0  0
 13 24  2  0  0  0  0
 14 27  2  0  0  0  0
 14 28  1  0  0  0  0
 15 26  2  0  0  0  0
 15 64  1  0  0  0  0
 16 29  1  0  0  0  0
 17 29  1  0  0  0  0
 17 31  2  0  0  0  0
 17 32  1  0  0  0  0
 18 20  2  0  0  0  0
 18 37  1  0  0  0  0
 19 21  2  0  0  0  0
 19 38  1  0  0  0  0
 20 46  1  0  0  0  0
 21 39  1  0  0  0  0
 22 26  1  0  0  0  0
 22 30  2  0  0  0  0
 22 56  1  0  0  0  0
 23 78  1  0  0  0  0
 24 79  1  0  0  0  0
 25 28  2  0  0  0  0
 25 78  1  0  0  0  0
 26 79  1  0  0  0  0
 27 80  1  0  0  0  0
 28 81  1  0  0  0  0
 29 63  2  0  0  0  0
 30 49  1  0  0  0  0
 30 64  1  0  0  0  0
 31 65  1  0  0  0  0
 31 68  1  0  0  0  0
 32 69  1  0  0  0  0
 32 73  2  0  0  0  0
 33 47  1  0  0  0  0
 33 70  1  0  0  0  0
 33 74  2  0  0  0  0
 34 57  1  0  0  0  0
 34 67  1  0  0  0  0
 34 75  2  0  0  0  0
 35 60  1  0  0  0  0
 35 66  1  0  0  0  0
 35 76  2  0  0  0  0
 36 61  1  0  0  0  0
 36 71  1  0  0  0  0
 36 77  2  0  0  0  0
 37 40  1  0  0  0  0
 38 47  1  0  0  0  0
 39 66  1  0  0  0  0
 40 42  1  0  0  0  0
 41 43  1  0  0  0  0
 41 44  1  0  0  0  0
 42 46  1  0  0  0  0
 43 48  1  0  0  0  0
 44 67  1  0  0  0  0
 45 48  1  0  0  0  0
 45 67  1  0  0  0  0
 46 70  1  0  0  0  0
 47 66  1  0  0  0  0
 48 65  1  0  0  0  0
 50 61  1  0  0  0  0
 51 62  1  0  0  0  0
 52 62  1  0  0  0  0
 53 62  1  0  0  0  0
 54 64  1  0  0  0  0
 55 72  1  0  0  0  0
 56 58  1  0  0  0  0
 57 59  1  0  0  0  0
 58 59  1  0  0  0  0
 60 62  1  0  0  0  0
 60 71  1  0  0  0  0
 61 72  1  0  0  0  0
 63 65  1  0  0  0  0
M  CHG  1  72   1
M  ISO  4  26 101  34 100  57 100  79 101
M  END
> <Batch ID>
0034

> <Smiles>
CNC(C)C(=O)NC(C(=O)N1Cc2cc([101O:1][101c:1]3cn(C)c(C)c3CCC[100CH2:0][100C:0](=O)N3CCCC(n4nc(-c5ccc(Oc6ccc(F)cc6F)cc5)c(C(N)=O)c4N)C3)ccc2CC1C(=O)NC1CCCc2ccccc21)C(C)(C)C

> <Shape>
0.190

> <Color>
0.074

> <Negative vol penalty>
0.000

$$$$

  -OEChem-04052316503D

 85 93  0     1  0  0  0  0  0999 V2000
  -20.2621  -23.9408   22.2977 C   0  0  0  0  0  0  0  0  0  0  0  0
  -21.4091  -24.4378   21.6872 C   0  0  0  0  0  0  0  0  0  0  0  0
  -26.3044  -19.3920   21.7829 C   0  0  0  0  0  0  0  0  0  0  0  0
  -27.8986  -20.4706   23.2431 C   0  0  0  0  0  0  0  0  0  0  0  0
  -19.2692  -24.8178   22.7323 C   0  0  0  0  0  0  0  0  0  0  0  0
  -21.5634  -25.8123   21.5100 C   0  0  0  0  0  0  0  0  0  0  0  0
  -26.1990  -27.4238   22.7588 C   0  0  0  0  0  0  0  0  0  0  0  0
  -25.6394  -18.8717   22.8932 C   0  0  0  0  0  0  0  0  0  0  0  0
  -27.2337  -19.9503   24.3534 C   0  0  0  0  0  0  0  0  0  0  0  0
  -27.2212  -27.1976   21.8382 C   0  0  0  0  0  0  0  0  0  0  0  0
  -26.0486  -16.3192   25.0707 C   0  0  0  0  0  0  0  0  0  0  0  0
  -25.6718  -14.9769   25.0292 C   0  0  0  0  0  0  0  0  0  0  0  0
  -27.0347  -29.4799   21.0795 C   0  0  0  0  0  0  0  0  0  0  0  0
  -36.5152  -23.9394   20.2437 C   0  0  0  0  0  0  0  0  0  0  0  0
  -23.3572  -15.6185   25.2899 C   0  0  0  0  0  0  0  0  0  0  0  0
  -27.4340  -20.1914   21.9579 C   0  0  0  0  0  0  0  0  0  0  0  0
  -27.8758  -21.9585   20.1718 C   0  0  0  0  0  0  0  0  0  0  0  0
  -19.4158  -26.2044   22.5691 C   0  0  0  0  0  0  0  0  0  0  0  0
  -25.5784  -28.6787   22.8394 C   0  0  0  0  0  0  0  0  0  0  0  0
  -20.5710  -26.7087   21.9416 C   0  0  0  0  0  0  0  0  0  0  0  0
  -26.0066  -29.7202   22.0038 C   0  0  0  0  0  0  0  0  0  0  0  0
  -36.4775  -25.1152   20.9931 C   0  0  0  0  0  0  0  0  0  0  0  0
  -35.5469  -23.7029   19.2680 C   0  0  0  0  0  0  0  0  0  0  0  0
  -35.4714  -26.0545   20.7669 C   0  0  0  0  0  0  0  0  0  0  0  0
  -34.5408  -24.6421   19.0417 C   0  0  0  0  0  0  0  0  0  0  0  0
  -34.5030  -25.8179   19.7911 C   0  0  0  0  0  0  0  0  0  0  0  0
  -26.1040  -19.1509   24.1784 C   0  0  0  0  0  0  0  0  0  0  0  0
  -27.6372  -28.2249   20.9963 C   0  0  0  0  0  0  0  0  0  0  0  0
  -25.0797  -17.3112   25.2219 C   0  0  0  0  0  0  0  0  0  0  0  0
  -24.3261  -14.6265   25.1388 C   0  0  0  0  0  0  0  0  0  0  0  0
  -23.7340  -16.9609   25.3314 C   0  0  0  0  0  0  0  0  0  0  0  0
  -28.1217  -20.7287   20.8113 C   0  0  0  0  0  0  0  0  0  0  0  0
  -28.7882  -22.0005   19.1460 C   0  0  0  0  0  0  0  0  0  0  0  0
  -26.9091  -22.9722   20.4777 C   0  0  0  0  0  0  0  0  0  0  0  0
  -22.6192  -29.7505   22.3947 C   0  0  0  0  0  0  0  0  0  0  0  0
  -23.8802  -32.5332   23.4850 C   0  0  0  0  0  0  0  0  0  0  0  0
  -26.6477  -34.4769   23.9429 C   0  0  0  0  0  0  0  0  0  0  0  0
  -34.2321  -20.4439   17.9400 C   0  0  0  0  0  0  0  0  0  0  0  0
  -18.2943  -27.1101   23.0124 C   0  0  0  0  0  0  0  0  0  0  0  0
  -24.4954  -28.9142   23.8563 C   0  0  0  0  0  0  0  0  0  0  0  0
  -25.3867  -31.0915   22.0646 C   0  0  0  0  0  0  0  0  0  0  0  0
  -18.7038  -28.5763   23.1250 C   0  0  0  0  0  0  0  0  0  0  0  0
  -31.4380  -18.6192   16.6991 C   0  0  0  0  0  0  0  0  0  0  0  0
  -19.4925  -29.0065   21.8922 C   0  0  0  0  0  0  0  0  0  0  0  0
  -30.2751  -19.0915   17.5736 C   0  0  0  0  0  0  0  0  0  0  0  0
  -32.7378  -18.5191   17.4944 C   0  0  0  0  0  0  0  0  0  0  0  0
  -31.9508  -20.2172   19.0979 C   0  0  0  0  0  0  0  0  0  0  0  0
  -20.7861  -28.1948   21.7539 C   0  0  1  0  0  0  0  0  0  0  0  0
  -23.5834  -30.0834   23.4979 C   0  0  1  0  0  0  0  0  0  0  0  0
  -30.6305  -20.3873   18.3272 C   0  0  2  0  0  0  0  0  0  0  0  0
  -37.5260  -25.3439   22.0322 C   0  0  0  0  0  0  0  0  0  0  0  0
  -35.4334  -27.3149   21.5719 C   0  0  0  0  0  0  0  0  0  0  0  0
  -33.5031  -24.3854   17.9951 C   0  0  0  0  0  0  0  0  0  0  0  0
  -27.3582  -36.7161   24.8254 C   0  0  0  0  0  0  0  0  0  0  0  0
  -22.7876  -33.8689   20.9686 C   0  0  0  0  0  0  0  0  0  0  0  0
  -24.3028  -35.8091   21.4248 C   0  0  0  0  0  0  0  0  0  0  0  0
  -22.5188  -35.2102   23.0622 C   0  0  0  0  0  0  0  0  0  0  0  0
  -28.3820  -33.2452   26.0005 C   0  0  0  0  0  0  0  0  0  0  0  0
  -33.4157  -26.8336   19.5461 C   0  0  0  0  0  0  0  0  0  0  0  0
  -35.6105  -22.4362   18.4787 C   0  0  0  0  0  0  0  0  0  0  0  0
  -32.0569  -26.4405   20.1363 C   0  0  0  0  0  0  0  0  0  0  0  0
  -30.9501  -27.4449   19.8118 C   0  0  0  0  0  0  0  0  0  0  0  0
  -29.6261  -27.0423   20.4469 C   0  0  0  0  0  0  0  0  0  1  0  0
  -24.5531  -33.7245   22.8470 C   0  0  1  0  0  0  0  0  0  0  0  0
  -27.1500  -35.2454   25.1518 C   0  0  2  0  0  0  0  0  0  0  0  0
  -23.5511  -34.6269   22.0729 C   0  0  0  0  0  0  0  0  0  0  0  0
  -29.1125  -20.0393   20.2396 N   0  0  0  0  0  0  0  0  0  0  0  0
  -29.4972  -20.8385   19.2300 N   0  0  0  0  0  0  0  0  0  0  0  0
  -24.3272  -31.2704   23.0711 N   0  0  0  0  0  0  0  0  0  0  0  0
  -33.0180  -19.7810   18.1837 N   0  0  0  0  0  0  0  0  0  0  0  0
  -29.0450  -22.9177   18.1894 N   0  0  0  0  0  0  0  0  0  0  0  0
  -26.0492  -22.7689   21.5656 N   0  0  0  0  0  0  0  0  0  0  0  0
  -21.7894  -28.6819   22.6761 N   0  0  0  0  0  0  0  0  0  0  0  0
  -25.2707  -34.4093   23.9167 N   0  0  0  0  0  0  0  0  0  0  0  0
  -34.4152  -21.6365   18.6292 N   0  0  0  0  0  0  0  0  0  0  0  0
  -28.4462  -34.6805   25.6227 N   0  3  0  0  0  0  0  0  0  0  0  0
  -26.7999  -24.0197   19.7963 O   0  0  0  0  0  0  0  0  0  0  0  0
  -22.6264  -30.4148   21.3650 O   0  0  0  0  0  0  0  0  0  0  0  0
  -22.9956  -32.7164   24.3250 O   0  0  0  0  0  0  0  0  0  0  0  0
  -27.4012  -33.9889   23.1035 O   0  0  0  0  0  0  0  0  0  0  0  0
  -35.0871  -20.0082   17.1615 O   0  0  0  0  0  0  0  0  0  0  0  0
  -25.4553  -18.6435   25.2621 O   0  0  0  0  0  0  0  0  0  0  0  0
  -28.6344  -28.0066   20.0963 O   0  0  0  0  0  0  0  0  0  1  0  0
  -23.9643  -13.3375   25.0974 F   0  0  0  0  0  0  0  0  0  0  0  0
  -22.7985  -17.9095   25.4757 F   0  0  0  0  0  0  0  0  0  0  0  0
  1  2  1  0  0  0  0
  1  5  2  0  0  0  0
  2  6  2  0  0  0  0
  3  8  2  0  0  0  0
  3 16  1  0  0  0  0
  4  9  1  0  0  0  0
  4 16  2  0  0  0  0
  5 18  1  0  0  0  0
  6 20  1  0  0  0  0
  7 10  2  0  0  0  0
  7 19  1  0  0  0  0
  8 27  1  0  0  0  0
  9 27  2  0  0  0  0
 10 28  1  0  0  0  0
 11 12  2  0  0  0  0
 11 29  1  0  0  0  0
 12 30  1  0  0  0  0
 13 21  1  0  0  0  0
 13 28  2  0  0  0  0
 14 22  1  0  0  0  0
 14 23  2  0  0  0  0
 15 30  2  0  0  0  0
 15 31  1  0  0  0  0
 16 32  1  0  0  0  0
 17 32  1  0  0  0  0
 17 33  2  0  0  0  0
 17 34  1  0  0  0  0
 18 20  2  0  0  0  0
 18 39  1  0  0  0  0
 19 21  2  0  0  0  0
 19 40  1  0  0  0  0
 20 48  1  0  0  0  0
 21 41  1  0  0  0  0
 22 24  2  0  0  0  0
 22 51  1  0  0  0  0
 23 25  1  0  0  0  0
 23 60  1  0  0  0  0
 24 26  1  0  0  0  0
 24 52  1  0  0  0  0
 25 26  2  0  0  0  0
 25 53  1  0  0  0  0
 26 59  1  0  0  0  0
 27 82  1  0  0  0  0
 28 83  1  0  0  0  0
 29 31  2  0  0  0  0
 29 82  1  0  0  0  0
 30 84  1  0  0  0  0
 31 85  1  0  0  0  0
 32 67  2  0  0  0  0
 33 68  1  0  0  0  0
 33 71  1  0  0  0  0
 34 72  1  0  0  0  0
 34 77  2  0  0  0  0
 35 49  1  0  0  0  0
 35 73  1  0  0  0  0
 35 78  2  0  0  0  0
 36 64  1  0  0  0  0
 36 69  1  0  0  0  0
 36 79  2  0  0  0  0
 37 65  1  0  0  0  0
 37 74  1  0  0  0  0
 37 80  2  0  0  0  0
 38 70  1  0  0  0  0
 38 75  1  0  0  0  0
 38 81  2  0  0  0  0
 39 42  1  0  0  0  0
 40 49  1  0  0  0  0
 41 69  1  0  0  0  0
 42 44  1  0  0  0  0
 43 45  1  0  0  0  0
 43 46  1  0  0  0  0
 44 48  1  0  0  0  0
 45 50  1  0  0  0  0
 46 70  1  0  0  0  0
 47 50  1  0  0  0  0
 47 70  1  0  0  0  0
 48 73  1  0  0  0  0
 49 69  1  0  0  0  0
 50 68  1  0  0  0  0
 54 65  1  0  0  0  0
 55 66  1  0  0  0  0
 56 66  1  0  0  0  0
 57 66  1  0  0  0  0
 58 76  1  0  0  0  0
 59 61  1  0  0  0  0
 60 75  1  0  0  0  0
 61 62  1  0  0  0  0
 62 63  1  0  0  0  0
 63 83  1  0  0  0  0
 64 66  1  0  0  0  0
 64 74  1  0  0  0  0
 65 76  1  0  0  0  0
 67 68  1  0  0  0  0
M  CHG  1  76   1
M  ISO  4  38 100  63 101  75 100  83 101
M  END
> <Batch ID>
0034

> <Smiles>
CNC(C)C(=O)NC(C(=O)N1Cc2cc([101O:1][101CH2:1]CCCc3c(C)c(C)cc(C[100NH:0][100C:0](=O)N4CCCC(n5nc(-c6ccc(Oc7ccc(F)cc7F)cc6)c(C(N)=O)c5N)C4)c3C)ccc2CC1C(=O)NC1CCCc2ccccc21)C(C)(C)C

> <Shape>
0.197

> <Color>
0.085

> <Negative vol penalty>
0.000

$$$$

  -OEChem-04052316503D

 85 93  0     1  0  0  0  0  0999 V2000
  -28.2078  -33.2344   24.7218 C   0  0  0  0  0  0  0  0  0  0  0  0
  -28.2832  -31.8459   24.6795 C   0  0  0  0  0  0  0  0  0  0  0  0
  -22.2970  -10.5123   22.2539 C   0  0  0  0  0  0  0  0  0  0  0  0
  -22.3483  -10.2123   19.8571 C   0  0  0  0  0  0  0  0  0  0  0  0
  -26.9802  -33.8705   24.5423 C   0  0  0  0  0  0  0  0  0  0  0  0
  -27.1307  -31.0926   24.4587 C   0  0  0  0  0  0  0  0  0  0  0  0
  -27.8530  -27.3774   21.0941 C   0  0  0  0  0  0  0  0  0  0  0  0
  -21.7716   -9.2289   22.4033 C   0  0  0  0  0  0  0  0  0  0  0  0
  -21.8231   -8.9288   20.0065 C   0  0  0  0  0  0  0  0  0  0  0  0
  -28.5077  -26.2310   21.5422 C   0  0  0  0  0  0  0  0  0  0  0  0
  -20.7547   -5.8963   23.4400 C   0  0  0  0  0  0  0  0  0  0  0  0
  -21.2996   -5.0843   24.4347 C   0  0  0  0  0  0  0  0  0  0  0  0
  -26.3824  -25.1122   21.7668 C   0  0  0  0  0  0  0  0  0  0  0  0
  -23.4643   -5.2356   23.3724 C   0  0  0  0  0  0  0  0  0  0  0  0
  -22.5853  -11.0041   20.9808 C   0  0  0  0  0  0  0  0  0  0  0  0
  -24.4866  -12.6961   20.8089 C   0  0  0  0  0  0  0  0  0  0  0  0
  -25.8136  -33.1250   24.3096 C   0  0  0  0  0  0  0  0  0  0  0  0
  -26.4549  -27.4035   20.9892 C   0  0  0  0  0  0  0  0  0  0  0  0
  -25.8861  -31.7193   24.2773 C   0  0  0  0  0  0  0  0  0  0  0  0
  -25.7125  -26.2593   21.3147 C   0  0  0  0  0  0  0  0  0  0  0  0
  -27.3902  -20.0892   19.3831 C   0  0  0  0  0  0  0  0  0  0  0  0
  -21.5347   -8.4371   21.2797 C   0  0  0  0  0  0  0  0  0  0  0  0
  -27.7722  -25.0991   21.8814 C   0  0  0  0  0  0  0  0  0  0  0  0
  -21.5646   -6.3778   22.4115 C   0  0  0  0  0  0  0  0  0  0  0  0
  -22.6543   -4.7539   24.4009 C   0  0  0  0  0  0  0  0  0  0  0  0
  -22.9194   -6.0475   22.3777 C   0  0  0  0  0  0  0  0  0  0  0  0
  -23.1274  -12.3300   20.8258 C   0  0  0  0  0  0  0  0  0  0  0  0
  -27.0234  -20.5475   20.6320 C   0  0  0  0  0  0  0  0  0  0  0  0
  -28.6791  -20.3892   18.9919 C   0  0  0  0  0  0  0  0  0  0  0  0
  -24.4731  -14.0588   20.6372 C   0  0  0  0  0  0  0  0  0  0  0  0
  -29.0747  -21.4739   20.9500 C   0  0  0  0  0  0  0  0  0  0  0  0
  -25.6568  -11.8776   20.9369 C   0  0  0  0  0  0  0  0  0  0  0  0
  -24.1349  -29.1015   22.3450 C   0  0  0  0  0  0  0  0  0  0  0  0
  -22.2630  -27.5059   20.2302 C   0  0  0  0  0  0  0  0  0  0  0  0
  -21.8176  -24.7614   18.2513 C   0  0  0  0  0  0  0  0  0  0  0  0
  -22.5075  -18.6252   18.1016 C   0  0  0  0  0  0  0  0  0  0  0  0
  -24.5016  -33.8553   24.1685 C   0  0  0  0  0  0  0  0  0  0  0  0
  -25.7655  -28.6390   20.4787 C   0  0  0  0  0  0  0  0  0  0  0  0
  -24.2110  -26.2292   21.2003 C   0  0  0  0  0  0  0  0  0  0  0  0
  -23.3900  -32.9996   23.5664 C   0  0  0  0  0  0  0  0  0  0  0  0
  -20.6553  -17.3688   20.8706 C   0  0  0  0  0  0  0  0  0  0  0  0
  -23.3491  -31.6294   24.2356 C   0  0  0  0  0  0  0  0  0  0  0  0
  -21.2410  -15.9744   21.1000 C   0  0  0  0  0  0  0  0  0  0  0  0
  -20.5931  -17.7174   19.3851 C   0  0  0  0  0  0  0  0  0  0  0  0
  -22.4565  -16.1818   18.8913 C   0  0  0  0  0  0  0  0  0  0  0  0
  -24.6622  -30.8686   24.0154 C   0  0  1  0  0  0  0  0  0  0  0  0
  -24.3018  -28.7240   20.9003 C   0  0  1  0  0  0  0  0  0  0  0  0
  -22.5912  -15.8075   20.3773 C   0  0  2  0  0  0  0  0  0  0  0  0
  -25.6525  -20.2826   21.1621 C   0  0  0  0  0  0  0  0  0  0  0  0
  -30.7027  -20.0896   17.5422 C   0  0  0  0  0  0  0  0  0  0  0  0
  -20.1716  -23.7198   16.6692 C   0  0  0  0  0  0  0  0  0  0  0  0
  -20.5309  -26.6577   22.5946 C   0  0  0  0  0  0  0  0  0  0  0  0
  -19.5129  -24.9014   21.1292 C   0  0  0  0  0  0  0  0  0  0  0  0
  -19.2530  -27.3132   20.5473 C   0  0  0  0  0  0  0  0  0  0  0  0
  -23.7445  -24.8475   16.0066 C   0  0  0  0  0  0  0  0  0  0  0  0
  -26.4572  -19.3205   18.5162 C   0  0  0  0  0  0  0  0  0  0  0  0
  -29.1882  -19.9462   17.6598 C   0  0  0  0  0  0  0  0  0  0  0  0
  -30.0225  -22.2499   21.8319 C   0  0  0  0  0  0  0  0  0  0  0  0
  -25.4233  -20.1832   17.7626 C   0  0  0  0  0  0  0  0  0  0  0  0
  -24.5011  -19.3916   16.8377 C   0  0  0  0  0  0  0  0  0  0  0  0
  -29.7271  -23.7458   21.8257 C   0  0  0  0  0  0  0  0  0  1  0  0
  -21.5036  -26.2013   20.2469 C   0  0  1  0  0  0  0  0  0  0  0  0
  -21.3874  -24.6237   16.8020 C   0  0  2  0  0  0  0  0  0  0  0  0
  -20.2282  -26.2693   21.1336 C   0  0  0  0  0  0  0  0  0  0  0  0
  -22.3099  -13.3758   20.6768 N   0  0  0  0  0  0  0  0  0  0  0  0
  -27.8433  -21.2455   21.4450 N   0  0  0  0  0  0  0  0  0  0  0  0
  -29.5514  -21.0823   19.7529 N   0  0  0  0  0  0  0  0  0  0  0  0
  -23.1578  -14.4123   20.5648 N   0  0  0  0  0  0  0  0  0  0  0  0
  -23.5826  -27.4640   20.7023 N   0  0  0  0  0  0  0  0  0  0  0  0
  -21.9057  -17.5398   18.7593 N   0  0  0  0  0  0  0  0  0  0  0  0
  -25.4581  -14.9770   20.5426 N   0  0  0  0  0  0  0  0  0  0  0  0
  -25.4907  -10.4964   21.1070 N   0  0  0  0  0  0  0  0  0  0  0  0
  -24.7071  -30.3140   22.6794 N   0  0  0  0  0  0  0  0  0  0  0  0
  -21.2441  -25.8622   18.8519 N   0  0  0  0  0  0  0  0  0  0  0  0
  -23.7539  -18.3732   17.5414 N   0  0  0  0  0  0  0  0  0  0  0  0
  -22.4931  -24.0471   15.9860 N   0  3  0  0  0  0  0  0  0  0  0  0
  -26.8150  -12.3589   20.9179 O   0  0  0  0  0  0  0  0  0  0  0  0
  -23.5304  -28.3491   23.1001 O   0  0  0  0  0  0  0  0  0  0  0  0
  -21.7083  -28.5232   19.8070 O   0  0  0  0  0  0  0  0  0  0  0  0
  -22.5828  -23.9695   18.7971 O   0  0  0  0  0  0  0  0  0  0  0  0
  -21.9761  -19.7381   18.0243 O   0  0  0  0  0  0  0  0  0  0  0  0
  -21.0224   -7.1845   21.4251 O   0  0  0  0  0  0  0  0  0  0  0  0
  -28.4088  -23.9790   22.3197 O   0  0  0  0  0  0  0  0  0  1  0  0
  -23.1778   -3.9754   25.3570 F   0  0  0  0  0  0  0  0  0  0  0  0
  -23.7027   -6.5082   21.3928 F   0  0  0  0  0  0  0  0  0  0  0  0
  1  2  1  0  0  0  0
  1  5  2  0  0  0  0
  2  6  2  0  0  0  0
  3  8  2  0  0  0  0
  3 15  1  0  0  0  0
  4  9  1  0  0  0  0
  4 15  2  0  0  0  0
  5 17  1  0  0  0  0
  6 19  1  0  0  0  0
  7 10  2  0  0  0  0
  7 18  1  0  0  0  0
  8 22  1  0  0  0  0
  9 22  2  0  0  0  0
 10 23  1  0  0  0  0
 11 12  2  0  0  0  0
 11 24  1  0  0  0  0
 12 25  1  0  0  0  0
 13 20  1  0  0  0  0
 13 23  2  0  0  0  0
 14 25  2  0  0  0  0
 14 26  1  0  0  0  0
 15 27  1  0  0  0  0
 16 27  1  0  0  0  0
 16 30  2  0  0  0  0
 16 32  1  0  0  0  0
 17 19  2  0  0  0  0
 17 37  1  0  0  0  0
 18 20  2  0  0  0  0
 18 38  1  0  0  0  0
 19 46  1  0  0  0  0
 20 39  1  0  0  0  0
 21 28  1  0  0  0  0
 21 29  2  0  0  0  0
 21 56  1  0  0  0  0
 22 82  1  0  0  0  0
 23 83  1  0  0  0  0
 24 26  2  0  0  0  0
 24 82  1  0  0  0  0
 25 84  1  0  0  0  0
 26 85  1  0  0  0  0
 27 65  2  0  0  0  0
 28 49  1  0  0  0  0
 28 66  2  0  0  0  0
 29 57  1  0  0  0  0
 29 67  1  0  0  0  0
 30 68  1  0  0  0  0
 30 71  1  0  0  0  0
 31 58  1  0  0  0  0
 31 66  1  0  0  0  0
 31 67  2  0  0  0  0
 32 72  1  0  0  0  0
 32 77  2  0  0  0  0
 33 47  1  0  0  0  0
 33 73  1  0  0  0  0
 33 78  2  0  0  0  0
 34 62  1  0  0  0  0
 34 69  1  0  0  0  0
 34 79  2  0  0  0  0
 35 63  1  0  0  0  0
 35 74  1  0  0  0  0
 35 80  2  0  0  0  0
 36 70  1  0  0  0  0
 36 75  1  0  0  0  0
 36 81  2  0  0  0  0
 37 40  1  0  0  0  0
 38 47  1  0  0  0  0
 39 69  1  0  0  0  0
 40 42  1  0  0  0  0
 41 43  1  0  0  0  0
 41 44  1  0  0  0  0
 42 46  1  0  0  0  0
 43 48  1  0  0  0  0
 44 70  1  0  0  0  0
 45 48  1  0  0  0  0
 45 70  1  0  0  0  0
 46 73  1  0  0  0  0
 47 69  1  0  0  0  0
 48 68  1  0  0  0  0
 50 57  1  0  0  0  0
 51 63  1  0  0  0  0
 52 64  1  0  0  0  0
 53 64  1  0  0  0  0
 54 64  1  0  0  0  0
 55 76  1  0  0  0  0
 56 59  1  0  0  0  0
 58 61  1  0  0  0  0
 59 60  1  0  0  0  0
 60 75  1  0  0  0  0
 61 83  1  0  0  0  0
 62 64  1  0  0  0  0
 62 74  1  0  0  0  0
 63 76  1  0  0  0  0
 65 68  1  0  0  0  0
M  CHG  1  76   1
M  ISO  4  36 100  61 101  75 100  83 101
M  END
> <Batch ID>
0034

> <Smiles>
CCc1nc(C[101CH2:1][101O:1]c2ccc3c(c2)CN(C(=O)C(NC(=O)C(C)NC)C(C)(C)C)C(C(=O)NC2CCCc4ccccc42)C3)nc(C)c1CCC[100NH:0][100C:0](=O)N1CCCC(n2nc(-c3ccc(Oc4ccc(F)cc4F)cc3)c(C(N)=O)c2N)C1

> <Shape>
0.261

> <Color>
0.104

> <Negative vol penalty>
0.000

$$$$

  -OEChem-04052316503D

 92100  0     1  0  0  0  0  0999 V2000
  -19.4447   -8.5987   20.3447 C   0  0  0  0  0  0  0  0  0  0  0  0
  -19.4487   -9.9445   20.6972 C   0  0  0  0  0  0  0  0  0  0  0  0
  -27.9293  -27.5820   18.7799 C   0  0  0  0  0  0  0  0  0  0  0  0
  -28.1842  -27.2632   21.1612 C   0  0  0  0  0  0  0  0  0  0  0  0
  -20.6256   -7.8599   20.4050 C   0  0  0  0  0  0  0  0  0  0  0  0
  -20.6336  -10.5520   21.1113 C   0  0  0  0  0  0  0  0  0  0  0  0
  -21.3400  -15.0889   18.9754 C   0  0  0  0  0  0  0  0  0  0  0  0
  -29.0947  -26.8487   18.5570 C   0  0  0  0  0  0  0  0  0  0  0  0
  -29.3496  -26.5299   20.9383 C   0  0  0  0  0  0  0  0  0  0  0  0
  -20.6165  -16.1591   19.4997 C   0  0  0  0  0  0  0  0  0  0  0  0
  -31.8059  -24.7544   17.3411 C   0  0  0  0  0  0  0  0  0  0  0  0
  -31.7852  -23.7959   16.3279 C   0  0  0  0  0  0  0  0  0  0  0  0
  -22.5606  -16.8548   20.7469 C   0  0  0  0  0  0  0  0  0  0  0  0
  -18.5583  -22.0223   23.1823 C   0  0  0  0  0  0  0  0  0  0  0  0
  -20.5813  -21.3471   22.0473 C   0  0  0  0  0  0  0  0  0  0  0  0
  -29.9939  -22.6366   17.4613 C   0  0  0  0  0  0  0  0  0  0  0  0
  -27.4741  -27.7893   20.0821 C   0  0  0  0  0  0  0  0  0  0  0  0
  -24.9551  -28.0517   20.3876 C   0  0  0  0  0  0  0  0  0  0  0  0
  -21.8275   -8.4611   20.8108 C   0  0  0  0  0  0  0  0  0  0  0  0
  -22.6784  -14.8870   19.3420 C   0  0  0  0  0  0  0  0  0  0  0  0
  -21.8314   -9.8203   21.1784 C   0  0  0  0  0  0  0  0  0  0  0  0
  -23.2997  -15.7828   20.2238 C   0  0  0  0  0  0  0  0  0  0  0  0
  -19.7243  -22.3537   22.4922 C   0  0  0  0  0  0  0  0  0  0  0  0
  -18.2493  -20.6844   23.4275 C   0  0  0  0  0  0  0  0  0  0  0  0
  -20.2723  -20.0091   22.2925 C   0  0  0  0  0  0  0  0  0  0  0  0
  -19.1063  -19.6778   22.9826 C   0  0  0  0  0  0  0  0  0  0  0  0
  -29.8048  -26.3226   19.6362 C   0  0  0  0  0  0  0  0  0  0  0  0
  -21.2259  -17.0406   20.3878 C   0  0  0  0  0  0  0  0  0  0  0  0
  -30.9206  -24.6539   18.4144 C   0  0  0  0  0  0  0  0  0  0  0  0
  -30.8792  -22.7370   16.3880 C   0  0  0  0  0  0  0  0  0  0  0  0
  -30.0146  -23.5951   18.4745 C   0  0  0  0  0  0  0  0  0  0  0  0
  -26.2706  -28.5472   20.3130 C   0  0  0  0  0  0  0  0  0  0  0  0
  -24.1822  -29.1631   20.6200 C   0  0  0  0  0  0  0  0  0  0  0  0
  -24.4746  -26.7070   20.2586 C   0  0  0  0  0  0  0  0  0  0  0  0
  -24.2737  -12.5700   20.8219 C   0  0  0  0  0  0  0  0  0  0  0  0
  -26.8514  -14.3759   20.0368 C   0  0  0  0  0  0  0  0  0  0  0  0
  -28.1007  -17.4500   19.2393 C   0  0  0  0  0  0  0  0  0  0  0  0
  -25.3434  -34.4941   23.0864 C   0  0  0  0  0  0  0  0  0  0  0  0
  -23.0691   -7.6102   20.9055 C   0  0  0  0  0  0  0  0  0  0  0  0
  -23.4530  -13.7432   18.7469 C   0  0  0  0  0  0  0  0  0  0  0  0
  -24.7402  -15.6218   20.6334 C   0  0  0  0  0  0  0  0  0  0  0  0
  -24.3586   -8.4222   20.9959 C   0  0  0  0  0  0  0  0  0  0  0  0
  -24.0683  -33.8787   19.8196 C   0  0  0  0  0  0  0  0  0  0  0  0
  -24.2117   -9.5453   22.0176 C   0  0  0  0  0  0  0  0  0  0  0  0
  -24.3694  -32.3978   19.5823 C   0  0  0  0  0  0  0  0  0  0  0  0
  -25.1793  -34.5601   20.6155 C   0  0  0  0  0  0  0  0  0  0  0  0
  -25.8244  -32.4189   21.6514 C   0  0  0  0  0  0  0  0  0  0  0  0
  -23.1016  -10.5211   21.6089 C   0  0  1  0  0  0  0  0  0  0  0  0
  -24.6588  -13.3363   19.5882 C   0  0  1  0  0  0  0  0  0  0  0  0
  -24.7060  -31.6758   20.9009 C   0  0  2  0  0  0  0  0  0  0  0  0
  -16.9939  -20.3562   24.1678 C   0  0  0  0  0  0  0  0  0  0  0  0
  -18.7745  -18.2433   23.2453 C   0  0  0  0  0  0  0  0  0  0  0  0
  -30.2513  -18.6201   18.6887 C   0  0  0  0  0  0  0  0  0  0  0  0
  -27.6413  -14.3055   22.9832 C   0  0  0  0  0  0  0  0  0  0  0  0
  -29.1953  -16.2179   22.5404 C   0  0  0  0  0  0  0  0  0  0  0  0
  -29.5463  -14.0348   21.3857 C   0  0  0  0  0  0  0  0  0  0  0  0
  -27.1184  -18.2438   16.5628 C   0  0  0  0  0  0  0  0  0  0  0  0
  -20.0570  -23.7928   22.2291 C   0  0  0  0  0  0  0  0  0  0  0  0
  -21.2066  -18.9500   21.8054 C   0  0  0  0  0  0  0  0  0  1  0  0
  -21.8821  -31.0247   26.9450 C   0  0  0  0  0  0  0  0  0  0  0  0
  -21.7286  -30.3261   25.5922 C   0  0  0  0  0  0  0  0  0  0  0  0
  -22.3377  -32.4822   26.8302 C   0  0  0  0  0  0  0  0  0  0  0  0
  -21.2504  -28.8827   25.7659 C   0  0  0  0  0  0  0  0  0  0  0  0
  -23.7255  -32.6392   26.2051 C   0  0  0  0  0  0  0  0  0  0  0  0
  -21.1273  -28.1710   24.4174 C   0  0  0  0  0  0  0  0  0  0  0  0
  -24.1386  -34.1103   26.1366 C   0  0  0  0  0  0  0  0  0  0  0  0
  -20.6819  -26.7186   24.5933 C   0  0  0  0  0  0  0  0  0  0  0  0
  -25.5360  -34.2674   25.5502 C   0  0  0  0  0  0  0  0  0  0  0  0
  -20.5962  -26.0071   23.2512 C   0  0  0  0  0  0  0  0  0  0  0  0
  -27.6075  -15.5038   20.6965 C   0  0  1  0  0  0  0  0  0  0  0  0
  -29.0331  -17.9015   18.1297 C   0  0  2  0  0  0  0  0  0  0  0  0
  -28.4699  -15.0177   21.8954 C   0  0  0  0  0  0  0  0  0  0  0  0
  -26.3336  -29.8704   20.4838 N   0  0  0  0  0  0  0  0  0  0  0  0
  -25.0480  -30.2158   20.6681 N   0  0  0  0  0  0  0  0  0  0  0  0
  -25.4535  -14.4843   20.0294 N   0  0  0  0  0  0  0  0  0  0  0  0
  -25.4487  -33.8269   21.8548 N   0  0  0  0  0  0  0  0  0  0  0  0
  -22.8532  -29.3328   20.7856 N   0  0  0  0  0  0  0  0  0  0  0  0
  -25.4042  -25.6852   20.0216 N   0  0  0  0  0  0  0  0  0  0  0  0
  -23.5683  -11.4096   20.5662 N   0  0  0  0  0  0  0  0  0  0  0  0
  -28.3698  -16.1579   19.6385 N   0  0  0  0  0  0  0  0  0  0  0  0
  -25.6092  -33.7242   24.2122 N   0  0  0  0  0  0  0  0  0  0  0  0
  -28.3246  -18.8289   17.2030 N   0  3  0  0  0  0  0  0  0  0  0  0
  -20.2061  -24.5942   23.4747 N   0  3  0  0  0  0  0  0  0  0  0  0
  -23.2553  -26.4222   20.3344 O   0  0  0  0  0  0  0  0  0  0  0  0
  -24.5941  -12.9989   21.9242 O   0  0  0  0  0  0  0  0  0  0  0  0
  -27.4783  -13.4369   19.5400 O   0  0  0  0  0  0  0  0  0  0  0  0
  -27.2239  -18.1727   19.7078 O   0  0  0  0  0  0  0  0  0  0  0  0
  -25.0303  -35.6860   23.1763 O   0  0  0  0  0  0  0  0  0  0  0  0
  -30.9419  -25.6067   19.4191 O   0  0  0  0  0  0  0  0  0  0  0  0
  -20.5167  -18.0931   20.9052 O   0  0  0  0  0  0  0  0  0  1  0  0
  -30.8583  -21.8176   15.4142 F   0  0  0  0  0  0  0  0  0  0  0  0
  -29.1610  -23.4940   19.5025 F   0  0  0  0  0  0  0  0  0  0  0  0
  1  2  1  0  0  0  0
  1  5  2  0  0  0  0
  2  6  2  0  0  0  0
  3  8  2  0  0  0  0
  3 17  1  0  0  0  0
  4  9  1  0  0  0  0
  4 17  2  0  0  0  0
  5 19  1  0  0  0  0
  6 21  1  0  0  0  0
  7 10  2  0  0  0  0
  7 20  1  0  0  0  0
  8 27  1  0  0  0  0
  9 27  2  0  0  0  0
 10 28  1  0  0  0  0
 11 12  2  0  0  0  0
 11 29  1  0  0  0  0
 12 30  1  0  0  0  0
 13 22  1  0  0  0  0
 13 28  2  0  0  0  0
 14 23  1  0  0  0  0
 14 24  2  0  0  0  0
 15 23  2  0  0  0  0
 15 25  1  0  0  0  0
 16 30  2  0  0  0  0
 16 31  1  0  0  0  0
 17 32  1  0  0  0  0
 18 32  1  0  0  0  0
 18 33  2  0  0  0  0
 18 34  1  0  0  0  0
 19 21  2  0  0  0  0
 19 39  1  0  0  0  0
 20 22  2  0  0  0  0
 20 40  1  0  0  0  0
 21 48  1  0  0  0  0
 22 41  1  0  0  0  0
 23 58  1  0  0  0  0
 24 26  1  0  0  0  0
 24 51  1  0  0  0  0
 25 26  2  0  0  0  0
 25 59  1  0  0  0  0
 26 52  1  0  0  0  0
 27 89  1  0  0  0  0
 28 90  1  0  0  0  0
 29 31  2  0  0  0  0
 29 89  1  0  0  0  0
 30 91  1  0  0  0  0
 31 92  1  0  0  0  0
 32 73  2  0  0  0  0
 33 74  1  0  0  0  0
 33 77  1  0  0  0  0
 34 78  1  0  0  0  0
 34 84  2  0  0  0  0
 35 49  1  0  0  0  0
 35 79  1  0  0  0  0
 35 85  2  0  0  0  0
 36 70  1  0  0  0  0
 36 75  1  0  0  0  0
 36 86  2  0  0  0  0
 37 71  1  0  0  0  0
 37 80  1  0  0  0  0
 37 87  2  0  0  0  0
 38 76  1  0  0  0  0
 38 81  1  0  0  0  0
 38 88  2  0  0  0  0
 39 42  1  0  0  0  0
 40 49  1  0  0  0  0
 41 75  1  0  0  0  0
 42 44  1  0  0  0  0
 43 45  1  0  0  0  0
 43 46  1  0  0  0  0
 44 48  1  0  0  0  0
 45 50  1  0  0  0  0
 46 76  1  0  0  0  0
 47 50  1  0  0  0  0
 47 76  1  0  0  0  0
 48 79  1  0  0  0  0
 49 75  1  0  0  0  0
 50 74  1  0  0  0  0
 53 71  1  0  0  0  0
 54 72  1  0  0  0  0
 55 72  1  0  0  0  0
 56 72  1  0  0  0  0
 57 82  1  0  0  0  0
 58 83  1  0  0  0  0
 59 90  1  0  0  0  0
 60 61  1  0  0  0  0
 60 62  1  0  0  0  0
 61 63  1  0  0  0  0
 62 64  1  0  0  0  0
 63 65  1  0  0  0  0
 64 66  1  0  0  0  0
 65 67  1  0  0  0  0
 66 68  1  0  0  0  0
 67 69  1  0  0  0  0
 68 81  1  0  0  0  0
 69 83  1  0  0  0  0
 70 72  1  0  0  0  0
 70 80  1  0  0  0  0
 71 82  1  0  0  0  0
 73 74  1  0  0  0  0
M  CHG  2  82   1  83   1
M  ISO  4  38 100  59 101  81 100  90 101
M  END
> <Batch ID>
0034

> <Smiles>
CNC(C)C(=O)NC(C(=O)N1Cc2cc([101O:1][101CH2:1]c3cc(CNCCCCCCCCCC[100NH:0][100C:0](=O)N4CCCC(n5nc(-c6ccc(Oc7ccc(F)cc7F)cc6)c(C(N)=O)c5N)C4)cc(C)c3C)ccc2CC1C(=O)NC1CCCc2ccccc21)C(C)(C)C

> <Shape>
0.272

> <Color>
0.063

> <Negative vol penalty>
0.000

$$$$

  -OEChem-04052316503D

 84 92  0     1  0  0  0  0  0999 V2000
  -18.4207  -32.6747   20.6615 C   0  0  0  0  0  0  0  0  0  0  0  0
  -19.7283  -32.4685   20.2337 C   0  0  0  0  0  0  0  0  0  0  0  0
  -25.8383  -15.9456   20.5025 C   0  0  0  0  0  0  0  0  0  0  0  0
  -28.0905  -15.1291   20.1895 C   0  0  0  0  0  0  0  0  0  0  0  0
  -17.9943  -32.1426   21.8776 C   0  0  0  0  0  0  0  0  0  0  0  0
  -20.6106  -31.7308   21.0223 C   0  0  0  0  0  0  0  0  0  0  0  0
  -25.0560  -27.9992   19.0682 C   0  0  0  0  0  0  0  0  0  0  0  0
  -25.3705  -14.6329   20.5613 C   0  0  0  0  0  0  0  0  0  0  0  0
  -27.6227  -13.8163   20.2483 C   0  0  0  0  0  0  0  0  0  0  0  0
  -26.4300  -28.1779   18.9129 C   0  0  0  0  0  0  0  0  0  0  0  0
  -25.2582  -12.1277   22.8294 C   0  0  0  0  0  0  0  0  0  0  0  0
  -24.3473  -11.8086   23.8364 C   0  0  0  0  0  0  0  0  0  0  0  0
  -26.7980  -27.1841   21.0800 C   0  0  0  0  0  0  0  0  0  0  0  0
  -32.0684  -25.8823   17.8885 C   0  0  0  0  0  0  0  0  0  0  0  0
  -32.1539  -24.7258   20.0080 C   0  0  0  0  0  0  0  0  0  0  0  0
  -22.7217  -11.1751   22.1651 C   0  0  0  0  0  0  0  0  0  0  0  0
  -27.1983  -16.1937   20.3165 C   0  0  0  0  0  0  0  0  0  0  0  0
  -28.1202  -18.3453   21.3306 C   0  0  0  0  0  0  0  0  0  0  0  0
  -18.8689  -31.3899   22.6770 C   0  0  0  0  0  0  0  0  0  0  0  0
  -24.5411  -27.4206   20.2371 C   0  0  0  0  0  0  0  0  0  0  0  0
  -20.1958  -31.1893   22.2509 C   0  0  0  0  0  0  0  0  0  0  0  0
  -25.4173  -26.9969   21.2465 C   0  0  0  0  0  0  0  0  0  0  0  0
  -32.3482  -24.7324   18.6268 C   0  0  0  0  0  0  0  0  0  0  0  0
  -31.5944  -27.0257   18.5315 C   0  0  0  0  0  0  0  0  0  0  0  0
  -31.6798  -25.8693   20.6510 C   0  0  0  0  0  0  0  0  0  0  0  0
  -31.4000  -27.0192   19.9128 C   0  0  0  0  0  0  0  0  0  0  0  0
  -26.2627  -13.5682   20.4342 C   0  0  0  0  0  0  0  0  0  0  0  0
  -27.3010  -27.7730   19.9201 C   0  0  0  0  0  0  0  0  0  0  0  0
  -24.9009  -11.9706   21.4903 C   0  0  0  0  0  0  0  0  0  0  0  0
  -23.0790  -11.3323   23.5042 C   0  0  0  0  0  0  0  0  0  0  0  0
  -23.6326  -11.4943   21.1581 C   0  0  0  0  0  0  0  0  0  0  0  0
  -27.6820  -17.5496   20.2552 C   0  0  0  0  0  0  0  0  0  0  0  0
  -28.4738  -19.5399   20.7522 C   0  0  0  0  0  0  0  0  0  0  0  0
  -28.2005  -18.0327   22.7276 C   0  0  0  0  0  0  0  0  0  0  0  0
  -22.5958  -28.3962   22.5540 C   0  0  0  0  0  0  0  0  0  0  0  0
  -22.8571  -25.3163   23.5377 C   0  0  0  0  0  0  0  0  0  0  0  0
  -24.6673  -22.4232   23.5523 C   0  0  0  0  0  0  0  0  0  0  0  0
  -31.0012  -22.4244   16.6979 C   0  0  0  0  0  0  0  0  0  0  0  0
  -18.3761  -30.8747   24.0060 C   0  0  0  0  0  0  0  0  0  0  0  0
  -23.0584  -27.2104   20.3778 C   0  0  0  0  0  0  0  0  0  0  0  0
  -24.9165  -26.3519   22.5121 C   0  0  0  0  0  0  0  0  0  0  0  0
  -19.2649  -29.7881   24.6056 C   0  0  0  0  0  0  0  0  0  0  0  0
  -27.6831  -21.2941   16.0741 C   0  0  0  0  0  0  0  0  0  0  0  0
  -20.7330  -30.1939   24.5239 C   0  0  0  0  0  0  0  0  0  0  0  0
  -27.4258  -20.2807   17.1908 C   0  0  0  0  0  0  0  0  0  0  0  0
  -29.1294  -21.2419   15.5869 C   0  0  0  0  0  0  0  0  0  0  0  0
  -29.8882  -20.3695   17.7633 C   0  0  0  0  0  0  0  0  0  0  0  0
  -21.1754  -30.3737   23.0666 C   0  0  1  0  0  0  0  0  0  0  0  0
  -22.6085  -27.0799   21.8296 C   0  0  1  0  0  0  0  0  0  0  0  0
  -28.4575  -20.4233   18.3260 C   0  0  2  0  0  0  0  0  0  0  0  0
  -31.3013  -28.2438   17.7178 C   0  0  0  0  0  0  0  0  0  0  0  0
  -32.7943  -25.5921   22.8948 C   0  0  0  0  0  0  0  0  0  0  0  0
  -30.4250  -24.7997   22.5578 C   0  0  0  0  0  0  0  0  0  0  0  0
  -24.6436  -20.0893   24.4742 C   0  0  0  0  0  0  0  0  0  0  0  0
  -23.6798  -26.3908   26.2724 C   0  0  0  0  0  0  0  0  0  0  0  0
  -24.5422  -24.1080   26.8324 C   0  0  0  0  0  0  0  0  0  0  0  0
  -22.1182  -24.4387   26.3452 C   0  0  0  0  0  0  0  0  0  0  0  0
  -24.6308  -21.2296   20.8443 C   0  0  0  0  0  0  0  0  0  0  0  0
  -30.8866  -28.2566   20.6082 C   0  0  0  0  0  0  0  0  0  0  0  0
  -32.8557  -23.5101   17.9394 C   0  0  0  0  0  0  0  0  0  0  0  0
  -29.4063  -28.1524   20.9591 C   0  0  0  0  0  0  0  0  0  1  0  0
  -31.4801  -25.8365   22.1312 C   0  0  0  0  0  0  0  0  0  0  0  0
  -23.7907  -24.5619   24.4533 C   0  0  1  0  0  0  0  0  0  0  0  0
  -24.2637  -20.9812   23.3024 C   0  0  2  0  0  0  0  0  0  0  0  0
  -23.5424  -24.8887   25.9529 C   0  0  0  0  0  0  0  0  0  0  0  0
  -27.7499  -18.1851   19.0823 N   0  0  0  0  0  0  0  0  0  0  0  0
  -28.2348  -19.3928   19.4175 N   0  0  0  0  0  0  0  0  0  0  0  0
  -23.4580  -26.1739   22.6053 N   0  0  0  0  0  0  0  0  0  0  0  0
  -30.0570  -21.3845   16.7116 N   0  0  0  0  0  0  0  0  0  0  0  0
  -28.9625  -20.6912   21.2601 N   0  0  0  0  0  0  0  0  0  0  0  0
  -27.7970  -16.7592   23.1515 N   0  0  0  0  0  0  0  0  0  0  0  0
  -21.4038  -29.0867   22.4454 N   0  0  0  0  0  0  0  0  0  0  0  0
  -23.6406  -23.1504   24.1165 N   0  0  0  0  0  0  0  0  0  0  0  0
  -31.8377  -22.4920   17.8053 N   0  0  0  0  0  0  0  0  0  0  0  0
  -24.9350  -20.4601   22.0782 N   0  3  0  0  0  0  0  0  0  0  0  0
  -28.6024  -18.8637   23.5769 O   0  0  0  0  0  0  0  0  0  0  0  0
  -23.5932  -28.7580   23.1673 O   0  0  0  0  0  0  0  0  0  0  0  0
  -21.6399  -25.1453   23.6410 O   0  0  0  0  0  0  0  0  0  0  0  0
  -25.7829  -22.8597   23.2780 O   0  0  0  0  0  0  0  0  0  0  0  0
  -31.0884  -23.2360   15.7702 O   0  0  0  0  0  0  0  0  0  0  0  0
  -25.8066  -12.2871   20.4917 O   0  0  0  0  0  0  0  0  0  0  0  0
  -28.6425  -27.9468   19.7715 O   0  0  0  0  0  0  0  0  0  1  0  0
  -22.2049  -11.0245   24.4713 F   0  0  0  0  0  0  0  0  0  0  0  0
  -23.2840  -11.3401   19.8734 F   0  0  0  0  0  0  0  0  0  0  0  0
  1  2  1  0  0  0  0
  1  5  2  0  0  0  0
  2  6  2  0  0  0  0
  3  8  2  0  0  0  0
  3 17  1  0  0  0  0
  4  9  1  0  0  0  0
  4 17  2  0  0  0  0
  5 19  1  0  0  0  0
  6 21  1  0  0  0  0
  7 10  2  0  0  0  0
  7 20  1  0  0  0  0
  8 27  1  0  0  0  0
  9 27  2  0  0  0  0
 10 28  1  0  0  0  0
 11 12  2  0  0  0  0
 11 29  1  0  0  0  0
 12 30  1  0  0  0  0
 13 22  1  0  0  0  0
 13 28  2  0  0  0  0
 14 23  1  0  0  0  0
 14 24  2  0  0  0  0
 15 23  2  0  0  0  0
 15 25  1  0  0  0  0
 16 30  2  0  0  0  0
 16 31  1  0  0  0  0
 17 32  1  0  0  0  0
 18 32  1  0  0  0  0
 18 33  2  0  0  0  0
 18 34  1  0  0  0  0
 19 21  2  0  0  0  0
 19 39  1  0  0  0  0
 20 22  2  0  0  0  0
 20 40  1  0  0  0  0
 21 48  1  0  0  0  0
 22 41  1  0  0  0  0
 23 60  1  0  0  0  0
 24 26  1  0  0  0  0
 24 51  1  0  0  0  0
 25 26  2  0  0  0  0
 25 62  1  0  0  0  0
 26 59  1  0  0  0  0
 27 81  1  0  0  0  0
 28 82  1  0  0  0  0
 29 31  2  0  0  0  0
 29 81  1  0  0  0  0
 30 83  1  0  0  0  0
 31 84  1  0  0  0  0
 32 66  2  0  0  0  0
 33 67  1  0  0  0  0
 33 70  1  0  0  0  0
 34 71  1  0  0  0  0
 34 76  2  0  0  0  0
 35 49  1  0  0  0  0
 35 72  1  0  0  0  0
 35 77  2  0  0  0  0
 36 63  1  0  0  0  0
 36 68  1  0  0  0  0
 36 78  2  0  0  0  0
 37 64  1  0  0  0  0
 37 73  1  0  0  0  0
 37 79  2  0  0  0  0
 38 69  1  0  0  0  0
 38 74  1  0  0  0  0
 38 80  2  0  0  0  0
 39 42  1  0  0  0  0
 40 49  1  0  0  0  0
 41 68  1  0  0  0  0
 42 44  1  0  0  0  0
 43 45  1  0  0  0  0
 43 46  1  0  0  0  0
 44 48  1  0  0  0  0
 45 50  1  0  0  0  0
 46 69  1  0  0  0  0
 47 50  1  0  0  0  0
 47 69  1  0  0  0  0
 48 72  1  0  0  0  0
 49 68  1  0  0  0  0
 50 67  1  0  0  0  0
 52 62  1  0  0  0  0
 53 62  1  0  0  0  0
 54 64  1  0  0  0  0
 55 65  1  0  0  0  0
 56 65  1  0  0  0  0
 57 65  1  0  0  0  0
 58 75  1  0  0  0  0
 59 61  1  0  0  0  0
 60 74  1  0  0  0  0
 61 82  1  0  0  0  0
 63 65  1  0  0  0  0
 63 73  1  0  0  0  0
 64 75  1  0  0  0  0
 66 67  1  0  0  0  0
M  CHG  1  75   1
M  ISO  4  38 100  61 101  74 100  82 101
M  END
> <Batch ID>
0034

> <Smiles>
CNC(C)C(=O)NC(C(=O)N1Cc2cc([101O:1][101CH2:1]Cc3c(C)cc(C[100NH:0][100C:0](=O)N4CCCC(n5nc(-c6ccc(Oc7ccc(F)cc7F)cc6)c(C(N)=O)c5N)C4)cc3C(C)C)ccc2CC1C(=O)NC1CCCc2ccccc21)C(C)(C)C

> <Shape>
0.191

> <Color>
0.069

> <Negative vol penalty>
0.000

$$$$

  -OEChem-04052316503D

 87 95  0     1  0  0  0  0  0999 V2000
  -23.9388  -31.2681   24.3855 C   0  0  0  0  0  0  0  0  0  0  0  0
  -23.4941  -29.9568   24.5195 C   0  0  0  0  0  0  0  0  0  0  0  0
  -20.0708  -16.8774   20.3000 C   0  0  0  0  0  0  0  0  0  0  0  0
  -19.8790  -15.3493   22.1614 C   0  0  0  0  0  0  0  0  0  0  0  0
  -24.5300  -31.6841   23.1933 C   0  0  0  0  0  0  0  0  0  0  0  0
  -23.6393  -29.0609   23.4608 C   0  0  0  0  0  0  0  0  0  0  0  0
  -27.1866  -22.1040   23.2467 C   0  0  0  0  0  0  0  0  0  0  0  0
  -18.7729  -17.3296   20.5374 C   0  0  0  0  0  0  0  0  0  0  0  0
  -18.5810  -15.8015   22.3989 C   0  0  0  0  0  0  0  0  0  0  0  0
  -27.9186  -20.9340   23.0436 C   0  0  0  0  0  0  0  0  0  0  0  0
  -17.2207  -19.4309   22.6840 C   0  0  0  0  0  0  0  0  0  0  0  0
  -16.9994  -20.8079   22.6601 C   0  0  0  0  0  0  0  0  0  0  0  0
  -28.1729  -21.4866   20.7031 C   0  0  0  0  0  0  0  0  0  0  0  0
  -15.4190  -20.5225   20.8551 C   0  0  0  0  0  0  0  0  0  0  0  0
  -20.6239  -15.8872   21.1120 C   0  0  0  0  0  0  0  0  0  0  0  0
  -23.1479  -16.1816   20.8867 C   0  0  0  0  0  0  0  0  0  0  0  0
  -24.6913  -30.7903   22.1229 C   0  0  0  0  0  0  0  0  0  0  0  0
  -26.9578  -22.9785   22.1807 C   0  0  0  0  0  0  0  0  0  0  0  0
  -24.2320  -29.4657   22.2527 C   0  0  0  0  0  0  0  0  0  0  0  0
  -27.4510  -22.6662   20.9031 C   0  0  0  0  0  0  0  0  0  0  0  0
  -18.0279  -16.7916   21.5868 C   0  0  0  0  0  0  0  0  0  0  0  0
  -28.4103  -20.6259   21.7749 C   0  0  0  0  0  0  0  0  0  0  0  0
  -16.5412  -18.5997   21.7934 C   0  0  0  0  0  0  0  0  0  0  0  0
  -16.0985  -21.3537   21.7457 C   0  0  0  0  0  0  0  0  0  0  0  0
  -15.6403  -19.1455   20.8790 C   0  0  0  0  0  0  0  0  0  0  0  0
  -21.9645  -15.4193   20.8669 C   0  0  0  0  0  0  0  0  0  0  0  0
  -24.1419  -15.2802   20.5937 C   0  0  0  0  0  0  0  0  0  0  0  0
  -23.3321  -17.5795   21.1468 C   0  0  0  0  0  0  0  0  0  0  0  0
  -25.4300  -26.1988   21.0096 C   0  0  0  0  0  0  0  0  0  0  0  0
  -28.1548  -25.9491   19.6228 C   0  0  0  0  0  0  0  0  0  0  0  0
  -31.3876  -25.5027   18.6294 C   0  0  0  0  0  0  0  0  0  0  0  0
  -26.5383  -10.2862   21.2741 C   0  0  0  0  0  0  0  0  0  0  0  0
  -25.2934  -31.2987   20.8370 C   0  0  0  0  0  0  0  0  0  0  0  0
  -26.1221  -24.2195   22.3400 C   0  0  0  0  0  0  0  0  0  0  0  0
  -27.1508  -23.6193   19.7786 C   0  0  0  0  0  0  0  0  0  0  0  0
  -25.7496  -30.1863   19.8964 C   0  0  0  0  0  0  0  0  0  0  0  0
  -23.8756  -10.5137   18.9215 C   0  0  0  0  0  0  0  0  0  0  0  0
  -24.6727  -29.1126   19.7774 C   0  0  0  0  0  0  0  0  0  0  0  0
  -23.2353  -11.8696   19.2238 C   0  0  0  0  0  0  0  0  0  0  0  0
  -30.8538  -15.5457   21.1608 C   0  0  0  0  0  0  0  0  0  0  0  0
  -29.2739  -15.1465   19.2309 C   0  0  0  0  0  0  0  0  0  0  0  0
  -30.6154  -17.0532   21.0499 C   0  0  0  0  0  0  0  0  0  0  0  0
  -29.0304  -16.6525   19.1124 C   0  0  0  0  0  0  0  0  0  0  0  0
  -24.3580   -9.8211   20.1942 C   0  0  0  0  0  0  0  0  0  0  0  0
  -24.6155  -11.9877   21.3403 C   0  0  0  0  0  0  0  0  0  0  0  0
  -24.3943  -28.4576   21.1357 C   0  0  1  0  0  0  0  0  0  0  0  0
  -26.6083  -25.3906   21.4675 C   0  0  1  0  0  0  0  0  0  0  0  0
  -24.1638  -12.7493   20.0824 C   0  0  2  0  0  0  0  0  0  0  0  0
  -30.6536  -14.7918   19.8278 C   0  0  0  0  0  0  0  0  0  0  0  0
  -29.2461  -17.3708   20.4458 C   0  0  0  0  0  0  0  0  0  0  0  0
  -33.1856  -26.5659   17.2385 C   0  0  0  0  0  0  0  0  0  0  0  0
  -26.7529  -24.9944   17.0876 C   0  0  0  0  0  0  0  0  0  0  0  0
  -28.9393  -25.2019   15.8855 C   0  0  0  0  0  0  0  0  0  0  0  0
  -27.8714  -27.2222   16.8858 C   0  0  0  0  0  0  0  0  0  0  0  0
  -33.1819  -25.7963   20.9646 C   0  0  0  0  0  0  0  0  0  0  0  0
  -30.7075  -13.2761   20.0971 C   0  0  0  0  0  0  0  0  0  0  0  0
  -29.0480  -18.8750   20.2967 C   0  0  0  0  0  0  0  0  0  1  0  0
  -29.6393  -12.8672   21.1008 C   0  0  0  0  0  0  0  0  0  0  0  0
  -29.6814  -11.3559   21.3447 C   0  0  0  0  0  0  0  0  0  0  0  0
  -28.6677  -10.9023   22.3900 C   0  0  0  0  0  0  0  0  0  0  0  0
  -28.9170  -25.4925   18.4046 C   0  0  1  0  0  0  0  0  0  0  0  0
  -32.5801  -26.4421   18.6280 C   0  0  2  0  0  0  0  0  0  0  0  0
  -31.7798  -15.1373   18.8345 C   0  0  0  0  0  0  0  0  0  0  0  0
  -28.1179  -25.7114   17.0890 C   0  0  0  0  0  0  0  0  0  0  0  0
  -22.1846  -14.1328   20.5835 N   0  0  0  0  0  0  0  0  0  0  0  0
  -23.5177  -14.0796   20.4225 N   0  0  0  0  0  0  0  0  0  0  0  0
  -27.3210  -25.0069   20.2372 N   0  0  0  0  0  0  0  0  0  0  0  0
  -25.2354  -10.7080   20.9620 N   0  0  0  0  0  0  0  0  0  0  0  0
  -25.4802  -15.4053   20.4683 N   0  0  0  0  0  0  0  0  0  0  0  0
  -23.5533  -17.9897   22.4686 N   0  0  0  0  0  0  0  0  0  0  0  0
  -25.4344  -27.5051   21.4602 N   0  0  0  0  0  0  0  0  0  0  0  0
  -30.2020  -26.1821   18.4449 N   0  0  0  0  0  0  0  0  0  0  0  0
  -27.3057  -11.1898   21.9989 N   0  0  0  0  0  0  0  0  0  0  0  0
  -33.6334  -25.9434   19.5570 N   0  3  0  0  0  0  0  0  0  0  0  0
  -23.2852  -18.4411   20.2363 O   0  0  0  0  0  0  0  0  0  0  0  0
  -24.5792  -25.6771   20.2984 O   0  0  0  0  0  0  0  0  0  0  0  0
  -28.2887  -27.1107   20.0177 O   0  0  0  0  0  0  0  0  0  0  0  0
  -31.4973  -24.2873   18.7754 O   0  0  0  0  0  0  0  0  0  0  0  0
  -26.9864   -9.1880   20.9277 O   0  0  0  0  0  0  0  0  0  0  0  0
  -16.7614  -17.2328   21.8189 O   0  0  0  0  0  0  0  0  0  0  0  0
  -29.1281  -19.4843   21.5846 O   0  0  0  0  0  0  0  0  0  1  0  0
  -15.8849  -22.6758   21.7238 F   0  0  0  0  0  0  0  0  0  0  0  0
  -14.9837  -18.3519   20.0217 F   0  0  0  0  0  0  0  0  0  0  0  0
  -28.2924  -16.9238   21.3185 F   0  0  0  0  0  0  0  0  0  0  0  0
  -32.9591  -14.7859   19.3574 F   0  0  0  0  0  0  0  0  0  0  0  0
  -31.5845  -14.4739   17.6903 F   0  0  0  0  0  0  0  0  0  0  0  0
  -31.7739  -16.4524   18.5933 F   0  0  0  0  0  0  0  0  0  0  0  0
  1  2  1  0  0  0  0
  1  5  2  0  0  0  0
  2  6  2  0  0  0  0
  3  8  2  0  0  0  0
  3 15  1  0  0  0  0
  4  9  1  0  0  0  0
  4 15  2  0  0  0  0
  5 17  1  0  0  0  0
  6 19  1  0  0  0  0
  7 10  2  0  0  0  0
  7 18  1  0  0  0  0
  8 21  1  0  0  0  0
  9 21  2  0  0  0  0
 10 22  1  0  0  0  0
 11 12  2  0  0  0  0
 11 23  1  0  0  0  0
 12 24  1  0  0  0  0
 13 20  1  0  0  0  0
 13 22  2  0  0  0  0
 14 24  2  0  0  0  0
 14 25  1  0  0  0  0
 15 26  1  0  0  0  0
 16 26  1  0  0  0  0
 16 27  2  0  0  0  0
 16 28  1  0  0  0  0
 17 19  2  0  0  0  0
 17 33  1  0  0  0  0
 18 20  2  0  0  0  0
 18 34  1  0  0  0  0
 19 46  1  0  0  0  0
 20 35  1  0  0  0  0
 21 80  1  0  0  0  0
 22 81  1  0  0  0  0
 23 25  2  0  0  0  0
 23 80  1  0  0  0  0
 24 82  1  0  0  0  0
 25 83  1  0  0  0  0
 26 65  2  0  0  0  0
 27 66  1  0  0  0  0
 27 69  1  0  0  0  0
 28 70  1  0  0  0  0
 28 75  2  0  0  0  0
 29 47  1  0  0  0  0
 29 71  1  0  0  0  0
 29 76  2  0  0  0  0
 30 61  1  0  0  0  0
 30 67  1  0  0  0  0
 30 77  2  0  0  0  0
 31 62  1  0  0  0  0
 31 72  1  0  0  0  0
 31 78  2  0  0  0  0
 32 68  1  0  0  0  0
 32 73  1  0  0  0  0
 32 79  2  0  0  0  0
 33 36  1  0  0  0  0
 34 47  1  0  0  0  0
 35 67  1  0  0  0  0
 36 38  1  0  0  0  0
 37 39  1  0  0  0  0
 37 44  1  0  0  0  0
 38 46  1  0  0  0  0
 39 48  1  0  0  0  0
 40 42  1  0  0  0  0
 40 49  1  0  0  0  0
 41 43  1  0  0  0  0
 41 49  1  0  0  0  0
 42 50  1  0  0  0  0
 43 50  1  0  0  0  0
 44 68  1  0  0  0  0
 45 48  1  0  0  0  0
 45 68  1  0  0  0  0
 46 71  1  0  0  0  0
 47 67  1  0  0  0  0
 48 66  1  0  0  0  0
 49 56  1  0  0  0  0
 49 63  1  0  0  0  0
 50 57  1  0  0  0  0
 50 84  1  0  0  0  0
 51 62  1  0  0  0  0
 52 64  1  0  0  0  0
 53 64  1  0  0  0  0
 54 64  1  0  0  0  0
 55 74  1  0  0  0  0
 56 58  1  0  0  0  0
 57 81  1  0  0  0  0
 58 59  1  0  0  0  0
 59 60  1  0  0  0  0
 60 73  1  0  0  0  0
 61 64  1  0  0  0  0
 61 72  1  0  0  0  0
 62 74  1  0  0  0  0
 63 85  1  0  0  0  0
 63 86  1  0  0  0  0
 63 87  1  0  0  0  0
 65 66  1  0  0  0  0
M  CHG  1  74   1
M  ISO  4  32 100  57 101  73 100  81 101
M  END
> <Batch ID>
0034

> <Smiles>
CNC(C)C(=O)NC(C(=O)N1Cc2cc([101O:1][101CH2:1]C3(F)CCC(CCCC[100NH:0][100C:0](=O)N4CCCC(n5nc(-c6ccc(Oc7ccc(F)cc7F)cc6)c(C(N)=O)c5N)C4)(C(F)(F)F)CC3)ccc2CC1C(=O)NC1CCCc2ccccc21)C(C)(C)C

> <Shape>
0.204

> <Color>
0.095

> <Negative vol penalty>
0.000

$$$$

  -OEChem-04052316503D

 83 92  0     1  0  0  0  0  0999 V2000
  -17.7046  -14.2452   22.6698 C   0  0  0  0  0  0  0  0  0  0  0  0
  -19.0340  -14.6198   22.5027 C   0  0  0  0  0  0  0  0  0  0  0  0
  -22.8525  -10.0821   20.0741 C   0  0  0  0  0  0  0  0  0  0  0  0
  -24.2896   -9.5007   21.9271 C   0  0  0  0  0  0  0  0  0  0  0  0
  -17.0725  -14.4506   23.8954 C   0  0  0  0  0  0  0  0  0  0  0  0
  -19.7316  -15.2011   23.5609 C   0  0  0  0  0  0  0  0  0  0  0  0
  -25.6728  -14.5083   24.8756 C   0  0  0  0  0  0  0  0  0  0  0  0
  -22.1504   -8.8890   20.2442 C   0  0  0  0  0  0  0  0  0  0  0  0
  -23.5874   -8.3075   22.0973 C   0  0  0  0  0  0  0  0  0  0  0  0
  -26.7906  -15.2981   24.6100 C   0  0  0  0  0  0  0  0  0  0  0  0
  -20.6642   -7.3137   23.4713 C   0  0  0  0  0  0  0  0  0  0  0  0
  -20.3100   -6.9516   24.7709 C   0  0  0  0  0  0  0  0  0  0  0  0
  -30.6562  -14.9885   24.9128 C   0  0  0  0  0  0  0  0  0  0  0  0
  -26.6069  -16.2849   26.8036 C   0  0  0  0  0  0  0  0  0  0  0  0
  -32.7296  -15.3732   23.7418 C   0  0  0  0  0  0  0  0  0  0  0  0
  -21.5902   -4.9143   24.5522 C   0  0  0  0  0  0  0  0  0  0  0  0
  -23.9222  -10.3880   20.9155 C   0  0  0  0  0  0  0  0  0  0  0  0
  -24.1341  -12.9283   20.8179 C   0  0  0  0  0  0  0  0  0  0  0  0
  -17.7656  -15.0258   24.9721 C   0  0  0  0  0  0  0  0  0  0  0  0
  -25.0061  -14.6088   26.1051 C   0  0  0  0  0  0  0  0  0  0  0  0
  -19.1078  -15.4156   24.8016 C   0  0  0  0  0  0  0  0  0  0  0  0
  -30.6301  -16.3252   25.3426 C   0  0  0  0  0  0  0  0  0  0  0  0
  -25.4825  -15.4933   27.0833 C   0  0  0  0  0  0  0  0  0  0  0  0
  -31.6644  -17.1952   24.9488 C   0  0  0  0  0  0  0  0  0  0  0  0
  -31.7002  -14.5160   24.1182 C   0  0  0  0  0  0  0  0  0  0  0  0
  -32.7143  -16.7041   24.1573 C   0  0  0  0  0  0  0  0  0  0  0  0
  -22.5178   -8.0017   21.2558 C   0  0  0  0  0  0  0  0  0  0  0  0
  -27.2561  -16.1887   25.5730 C   0  0  0  0  0  0  0  0  0  0  0  0
  -21.4813   -6.4761   22.7121 C   0  0  0  0  0  0  0  0  0  0  0  0
  -20.7730   -5.7520   25.3114 C   0  0  0  0  0  0  0  0  0  0  0  0
  -21.9443   -5.2764   23.2525 C   0  0  0  0  0  0  0  0  0  0  0  0
  -24.6482  -11.6201   20.7400 C   0  0  0  0  0  0  0  0  0  0  0  0
  -25.2174  -13.7378   20.5780 C   0  0  0  0  0  0  0  0  0  0  0  0
  -22.7969  -13.3721   21.0836 C   0  0  0  0  0  0  0  0  0  0  0  0
  -22.0737  -15.4426   27.0051 C   0  0  0  0  0  0  0  0  0  0  0  0
  -23.1241  -14.5029   29.9267 C   0  0  0  0  0  0  0  0  0  0  0  0
  -25.7645  -13.9614   32.0200 C   0  0  0  0  0  0  0  0  0  0  0  0
  -31.1151  -12.9681   21.2681 C   0  0  0  0  0  0  0  0  0  0  0  0
  -17.0261  -15.2714   26.2634 C   0  0  0  0  0  0  0  0  0  0  0  0
  -23.8178  -13.7305   26.3862 C   0  0  0  0  0  0  0  0  0  0  0  0
  -31.7085  -18.6311   25.4089 C   0  0  0  0  0  0  0  0  0  0  0  0
  -24.8146  -15.6245   28.4268 C   0  0  0  0  0  0  0  0  0  0  0  0
  -17.9466  -15.5498   27.4490 C   0  0  0  0  0  0  0  0  0  0  0  0
  -30.3680  -19.1416   25.9328 C   0  0  0  0  0  0  0  0  0  0  0  0
  -29.4025  -13.8033   18.2604 C   0  0  0  0  0  0  0  0  0  0  0  0
  -19.0203  -16.5629   27.0648 C   0  0  0  0  0  0  0  0  0  0  0  0
  -29.7528  -18.1303   26.8955 C   0  0  0  0  0  0  0  0  0  0  0  0
  -27.9435  -13.4565   18.5619 C   0  0  0  0  0  0  0  0  0  0  0  0
  -30.3644  -12.8126   18.9125 C   0  0  0  0  0  0  0  0  0  0  0  0
  -28.7149  -12.2813   20.6648 C   0  0  0  0  0  0  0  0  0  0  0  0
  -19.9055  -16.0264   25.9333 C   0  0  1  0  0  0  0  0  0  0  0  0
  -29.4707  -16.8060   26.1810 C   0  0  1  0  0  0  0  0  0  1  0  0
  -22.9088  -14.2865   27.4780 C   0  0  1  0  0  0  0  0  0  0  0  0
  -27.7091  -13.2845   20.0747 C   0  0  2  0  0  0  0  0  0  0  0  0
  -33.8549  -17.5780   23.7404 C   0  0  0  0  0  0  0  0  0  0  0  0
  -26.3067  -13.2301   34.3585 C   0  0  0  0  0  0  0  0  0  0  0  0
  -22.2503  -17.2301   30.9797 C   0  0  0  0  0  0  0  0  0  0  0  0
  -23.6460  -16.8134   33.0160 C   0  0  0  0  0  0  0  0  0  0  0  0
  -21.7250  -15.3101   32.4937 C   0  0  0  0  0  0  0  0  0  0  0  0
  -27.3197  -11.6353   31.0560 C   0  0  0  0  0  0  0  0  0  0  0  0
  -31.7132  -13.0926   23.6735 C   0  0  0  0  0  0  0  0  0  0  0  0
  -23.8188  -15.1818   31.0824 C   0  0  1  0  0  0  0  0  0  0  0  0
  -26.1152  -12.7874   32.9162 C   0  0  2  0  0  0  0  0  0  0  0  0
  -22.8717  -16.1330   31.8670 C   0  0  0  0  0  0  0  0  0  0  0  0
  -25.9563  -11.5953   20.4713 N   0  0  0  0  0  0  0  0  0  0  0  0
  -26.2733  -12.8980   20.3783 N   0  0  0  0  0  0  0  0  0  0  0  0
  -23.6526  -14.7488   28.6516 N   0  0  0  0  0  0  0  0  0  0  0  0
  -30.0900  -12.6968   20.3468 N   0  0  0  0  0  0  0  0  0  0  0  0
  -25.3602  -15.0790   20.5204 N   0  0  0  0  0  0  0  0  0  0  0  0
  -21.9255  -13.5532   20.0009 N   0  0  0  0  0  0  0  0  0  0  0  0
  -20.8635  -15.0727   26.4501 N   0  0  0  0  0  0  0  0  0  0  0  0
  -24.4004  -14.1165   31.8918 N   0  0  0  0  0  0  0  0  0  0  0  0
  -30.7689  -12.8409   22.6078 N   0  0  0  0  0  0  0  0  0  0  0  0
  -27.3746  -12.1397   32.4522 N   0  3  0  0  0  0  0  0  0  0  0  0
  -22.3918  -13.6169   22.2453 O   0  0  0  0  0  0  0  0  0  0  0  0
  -22.4955  -16.5858   27.1355 O   0  0  0  0  0  0  0  0  0  0  0  0
  -22.1529  -13.7753   30.1480 O   0  0  0  0  0  0  0  0  0  0  0  0
  -26.6155  -14.6723   31.4899 O   0  0  0  0  0  0  0  0  0  0  0  0
  -32.2528  -13.3044   20.9225 O   0  0  0  0  0  0  0  0  0  0  0  0
  -21.8327   -6.8374   21.4222 O   0  0  0  0  0  0  0  0  0  0  0  0
  -28.3465  -16.9613   25.3161 O   0  0  0  0  0  0  0  0  0  1  0  0
  -20.4341   -5.4051   26.5600 F   0  0  0  0  0  0  0  0  0  0  0  0
  -22.7305   -4.4682   22.5283 F   0  0  0  0  0  0  0  0  0  0  0  0
  1  2  1  0  0  0  0
  1  5  2  0  0  0  0
  2  6  2  0  0  0  0
  3  8  2  0  0  0  0
  3 17  1  0  0  0  0
  4  9  1  0  0  0  0
  4 17  2  0  0  0  0
  5 19  1  0  0  0  0
  6 21  1  0  0  0  0
  7 10  2  0  0  0  0
  7 20  1  0  0  0  0
  8 27  1  0  0  0  0
  9 27  2  0  0  0  0
 10 28  1  0  0  0  0
 11 12  2  0  0  0  0
 11 29  1  0  0  0  0
 12 30  1  0  0  0  0
 13 22  1  0  0  0  0
 13 25  2  0  0  0  0
 14 23  1  0  0  0  0
 14 28  2  0  0  0  0
 15 25  1  0  0  0  0
 15 26  2  0  0  0  0
 16 30  2  0  0  0  0
 16 31  1  0  0  0  0
 17 32  1  0  0  0  0
 18 32  1  0  0  0  0
 18 33  2  0  0  0  0
 18 34  1  0  0  0  0
 19 21  2  0  0  0  0
 19 39  1  0  0  0  0
 20 23  2  0  0  0  0
 20 40  1  0  0  0  0
 21 51  1  0  0  0  0
 22 24  2  0  0  0  0
 22 52  1  0  0  0  0
 23 42  1  0  0  0  0
 24 26  1  0  0  0  0
 24 41  1  0  0  0  0
 25 61  1  0  0  0  0
 26 55  1  0  0  0  0
 27 80  1  0  0  0  0
 28 81  1  0  0  0  0
 29 31  2  0  0  0  0
 29 80  1  0  0  0  0
 30 82  1  0  0  0  0
 31 83  1  0  0  0  0
 32 65  2  0  0  0  0
 33 66  1  0  0  0  0
 33 69  1  0  0  0  0
 34 70  1  0  0  0  0
 34 75  2  0  0  0  0
 35 53  1  0  0  0  0
 35 71  1  0  0  0  0
 35 76  2  0  0  0  0
 36 62  1  0  0  0  0
 36 67  1  0  0  0  0
 36 77  2  0  0  0  0
 37 63  1  0  0  0  0
 37 72  1  0  0  0  0
 37 78  2  0  0  0  0
 38 68  1  0  0  0  0
 38 73  1  0  0  0  0
 38 79  2  0  0  0  0
 39 43  1  0  0  0  0
 40 53  1  0  0  0  0
 41 44  1  0  0  0  0
 42 67  1  0  0  0  0
 43 46  1  0  0  0  0
 44 47  1  0  0  0  0
 45 48  1  0  0  0  0
 45 49  1  0  0  0  0
 46 51  1  0  0  0  0
 47 52  1  0  0  0  0
 48 54  1  0  0  0  0
 49 68  1  0  0  0  0
 50 54  1  0  0  0  0
 50 68  1  0  0  0  0
 51 71  1  0  0  0  0
 52 81  1  0  0  0  0
 53 67  1  0  0  0  0
 54 66  1  0  0  0  0
 56 63  1  0  0  0  0
 57 64  1  0  0  0  0
 58 64  1  0  0  0  0
 59 64  1  0  0  0  0
 60 74  1  0  0  0  0
 61 73  1  0  0  0  0
 62 64  1  0  0  0  0
 62 72  1  0  0  0  0
 63 74  1  0  0  0  0
 65 66  1  0  0  0  0
M  CHG  1  74   1
M  ISO  4  38 100  52 101  73 100  81 101
M  END
> <Batch ID>
0034

> <Smiles>
CNC(C)C(=O)NC(C(=O)N1Cc2cc([101O:1][101CH:1]3CCCc4c(C)cc(C[100NH:0][100C:0](=O)N5CCCC(n6nc(-c7ccc(Oc8ccc(F)cc8F)cc7)c(C(N)=O)c6N)C5)cc43)ccc2CC1C(=O)NC1CCCc2ccccc21)C(C)(C)C

> <Shape>
0.153

> <Color>
0.150

> <Negative vol penalty>
0.000

$$$$

  -OEChem-04052316503D

 88 97  0     1  0  0  0  0  0999 V2000
  -28.8116  -37.0881   20.5497 C   0  0  0  0  0  0  0  0  0  0  0  0
  -29.1080  -35.7767   20.1923 C   0  0  0  0  0  0  0  0  0  0  0  0
  -23.2585  -10.1143   22.3416 C   0  0  0  0  0  0  0  0  0  0  0  0
  -24.3705  -11.1805   20.4804 C   0  0  0  0  0  0  0  0  0  0  0  0
  -27.9710  -37.3412   21.6329 C   0  0  0  0  0  0  0  0  0  0  0  0
  -28.5648  -34.7176   20.9187 C   0  0  0  0  0  0  0  0  0  0  0  0
  -26.8323  -29.2635   18.7375 C   0  0  0  0  0  0  0  0  0  0  0  0
  -22.4749   -9.3790   21.4522 C   0  0  0  0  0  0  0  0  0  0  0  0
  -23.5869  -10.4452   19.5910 C   0  0  0  0  0  0  0  0  0  0  0  0
  -27.4620  -28.0198   18.7137 C   0  0  0  0  0  0  0  0  0  0  0  0
  -22.8233   -6.6354   19.5069 C   0  0  0  0  0  0  0  0  0  0  0  0
  -22.6593   -5.2737   19.7606 C   0  0  0  0  0  0  0  0  0  0  0  0
  -30.8311  -22.5555   18.1679 C   0  0  0  0  0  0  0  0  0  0  0  0
  -26.2797  -27.3897   20.7198 C   0  0  0  0  0  0  0  0  0  0  0  0
  -20.2699   -5.5917   19.9232 C   0  0  0  0  0  0  0  0  0  0  0  0
  -24.2062  -11.0151   21.8557 C   0  0  0  0  0  0  0  0  0  0  0  0
  -25.9031  -11.2710   23.7433 C   0  0  0  0  0  0  0  0  0  0  0  0
  -27.4095  -36.2846   22.3669 C   0  0  0  0  0  0  0  0  0  0  0  0
  -25.9284  -29.5842   19.7605 C   0  0  0  0  0  0  0  0  0  0  0  0
  -27.7170  -34.9568   22.0135 C   0  0  0  0  0  0  0  0  0  0  0  0
  -30.1702  -21.6641   19.0223 C   0  0  0  0  0  0  0  0  0  0  0  0
  -25.6381  -28.6372   20.7529 C   0  0  0  0  0  0  0  0  0  0  0  0
  -30.3744  -23.8586   18.0175 C   0  0  0  0  0  0  0  0  0  0  0  0
  -22.6392   -9.5444   20.0770 C   0  0  0  0  0  0  0  0  0  0  0  0
  -27.1879  -27.0837   19.7065 C   0  0  0  0  0  0  0  0  0  0  0  0
  -21.7106   -7.4753   19.4615 C   0  0  0  0  0  0  0  0  0  0  0  0
  -21.3826   -4.7518   19.9687 C   0  0  0  0  0  0  0  0  0  0  0  0
  -20.4339   -6.9535   19.6696 C   0  0  0  0  0  0  0  0  0  0  0  0
  -25.0155  -11.7754   22.7739 C   0  0  0  0  0  0  0  0  0  0  0  0
  -29.0528  -22.1406   19.7103 C   0  0  0  0  0  0  0  0  0  0  0  0
  -29.2580  -24.2339   18.7370 C   0  0  0  0  0  0  0  0  0  0  0  0
  -26.4216  -12.3893   24.3491 C   0  0  0  0  0  0  0  0  0  0  0  0
  -26.2297   -9.9130   24.0671 C   0  0  0  0  0  0  0  0  0  0  0  0
  -25.8224  -31.7847   22.0518 C   0  0  0  0  0  0  0  0  0  0  0  0
  -22.8641  -30.5541   22.5582 C   0  0  0  0  0  0  0  0  0  0  0  0
  -20.7385  -27.9016   22.2533 C   0  0  0  0  0  0  0  0  0  0  0  0
  -27.1306  -18.0512   22.5348 C   0  0  0  0  0  0  0  0  0  0  0  0
  -26.5442  -36.6081   23.5590 C   0  0  0  0  0  0  0  0  0  0  0  0
  -25.2374  -30.9202   19.7570 C   0  0  0  0  0  0  0  0  0  0  0  0
  -30.6711  -20.2549   19.1757 C   0  0  0  0  0  0  0  0  0  0  0  0
  -24.6601  -28.9248   21.8617 C   0  0  0  0  0  0  0  0  0  0  0  0
  -28.2815  -21.2639   20.6590 C   0  0  0  0  0  0  0  0  0  0  0  0
  -25.7101  -35.4256   24.0451 C   0  0  0  0  0  0  0  0  0  0  0  0
  -29.6694  -19.2061   18.6840 C   0  0  0  0  0  0  0  0  0  0  0  0
  -27.6005  -20.0825   19.9646 C   0  0  0  0  0  0  0  0  0  0  0  0
  -25.3293  -16.9288   25.3935 C   0  0  0  0  0  0  0  0  0  0  0  0
  -26.5688  -34.1681   24.1361 C   0  0  0  0  0  0  0  0  0  0  0  0
  -25.1247  -15.4353   25.1338 C   0  0  0  0  0  0  0  0  0  0  0  0
  -25.2395  -17.7432   24.1049 C   0  0  0  0  0  0  0  0  0  0  0  0
  -25.9256  -15.7944   22.7614 C   0  0  0  0  0  0  0  0  0  0  0  0
  -27.1273  -33.7808   22.7615 C   0  0  1  0  0  0  0  0  0  0  0  0
  -24.7233  -31.3306   21.1334 C   0  0  1  0  0  0  0  0  0  0  0  0
  -26.0630  -14.9256   24.0233 C   0  0  2  0  0  0  0  0  0  0  0  0
  -28.4961  -18.8603   19.6365 C   0  0  1  0  0  0  0  0  0  0  0  0
  -32.3755  -25.3383   17.7129 C   0  0  0  0  0  0  0  0  0  0  0  0
  -28.3821  -16.5863   18.6051 C   0  0  0  0  0  0  0  0  0  0  0  0
  -18.3962  -27.1820   22.7946 C   0  0  0  0  0  0  0  0  0  0  0  0
  -23.6575  -30.1779   25.4804 C   0  0  0  0  0  0  0  0  0  0  0  0
  -21.7064  -28.6304   25.7384 C   0  0  0  0  0  0  0  0  0  0  0  0
  -21.3287  -31.0204   25.1318 C   0  0  0  0  0  0  0  0  0  0  0  0
  -20.0791  -27.4963   19.3968 C   0  0  0  0  0  0  0  0  0  0  0  0
  -31.0834  -24.7971   17.1042 C   0  0  0  0  0  0  0  0  0  0  0  0
  -28.7146  -25.6198   18.6193 C   0  0  0  0  0  0  0  0  0  1  0  0
  -27.6084  -17.8159   18.9175 C   0  0  0  0  0  0  0  0  0  0  0  0
  -29.0171  -18.1998   20.9291 C   0  0  0  0  0  0  0  0  0  0  0  0
  -22.2999  -29.4433   23.4108 C   0  0  1  0  0  0  0  0  0  0  0  0
  -19.3086  -27.8091   21.7520 C   0  0  2  0  0  0  0  0  0  0  0  0
  -22.2681  -29.8130   24.9207 C   0  0  0  0  0  0  0  0  0  0  0  0
  -24.9702  -13.1102   22.7612 N   0  0  0  0  0  0  0  0  0  0  0  0
  -28.5911  -23.4115   19.5746 N   0  0  0  0  0  0  0  0  0  0  0  0
  -25.8357  -13.4541   23.7301 N   0  0  0  0  0  0  0  0  0  0  0  0
  -24.0149  -30.2474   21.8183 N   0  0  0  0  0  0  0  0  0  0  0  0
  -26.1549  -17.2093   23.0935 N   0  0  0  0  0  0  0  0  0  0  0  0
  -27.3169  -12.5559   25.3456 N   0  0  0  0  0  0  0  0  0  0  0  0
  -25.6054   -8.8856   23.3465 N   0  0  0  0  0  0  0  0  0  0  0  0
  -26.1065  -33.1343   21.9651 N   0  0  0  0  0  0  0  0  0  0  0  0
  -20.9937  -29.1196   22.8472 N   0  0  0  0  0  0  0  0  0  0  0  0
  -27.9613  -17.4639   21.5883 N   0  0  0  0  0  0  0  0  0  0  0  0
  -19.2462  -26.9817   20.5141 N   0  3  0  0  0  0  0  0  0  0  0  0
  -27.0384   -9.6190   24.9798 O   0  0  0  0  0  0  0  0  0  0  0  0
  -26.3711  -30.9712   22.7859 O   0  0  0  0  0  0  0  0  0  0  0  0
  -22.3004  -31.6512   22.5436 O   0  0  0  0  0  0  0  0  0  0  0  0
  -21.5470  -26.9837   22.1336 O   0  0  0  0  0  0  0  0  0  0  0  0
  -27.2560  -19.2368   22.8596 O   0  0  0  0  0  0  0  0  0  0  0  0
  -21.8749   -8.8269   19.2088 O   0  0  0  0  0  0  0  0  0  0  0  0
  -27.8059  -25.8607   19.6859 O   0  0  0  0  0  0  0  0  0  1  0  0
  -21.2252   -3.4438   20.2107 F   0  0  0  0  0  0  0  0  0  0  0  0
  -19.3610   -7.7552   19.6260 F   0  0  0  0  0  0  0  0  0  0  0  0
  1  2  1  0  0  0  0
  1  5  2  0  0  0  0
  2  6  2  0  0  0  0
  3  8  2  0  0  0  0
  3 16  1  0  0  0  0
  4  9  1  0  0  0  0
  4 16  2  0  0  0  0
  5 18  1  0  0  0  0
  6 20  1  0  0  0  0
  7 10  2  0  0  0  0
  7 19  1  0  0  0  0
  8 24  1  0  0  0  0
  9 24  2  0  0  0  0
 10 25  1  0  0  0  0
 11 12  2  0  0  0  0
 11 26  1  0  0  0  0
 12 27  1  0  0  0  0
 13 21  2  0  0  0  0
 13 23  1  0  0  0  0
 14 22  1  0  0  0  0
 14 25  2  0  0  0  0
 15 27  2  0  0  0  0
 15 28  1  0  0  0  0
 16 29  1  0  0  0  0
 17 29  1  0  0  0  0
 17 32  2  0  0  0  0
 17 33  1  0  0  0  0
 18 20  2  0  0  0  0
 18 38  1  0  0  0  0
 19 22  2  0  0  0  0
 19 39  1  0  0  0  0
 20 51  1  0  0  0  0
 21 30  1  0  0  0  0
 21 40  1  0  0  0  0
 22 41  1  0  0  0  0
 23 31  2  0  0  0  0
 23 62  1  0  0  0  0
 24 85  1  0  0  0  0
 25 86  1  0  0  0  0
 26 28  2  0  0  0  0
 26 85  1  0  0  0  0
 27 87  1  0  0  0  0
 28 88  1  0  0  0  0
 29 69  2  0  0  0  0
 30 42  1  0  0  0  0
 30 70  2  0  0  0  0
 31 63  1  0  0  0  0
 31 70  1  0  0  0  0
 32 71  1  0  0  0  0
 32 74  1  0  0  0  0
 33 75  1  0  0  0  0
 33 80  2  0  0  0  0
 34 52  1  0  0  0  0
 34 76  1  0  0  0  0
 34 81  2  0  0  0  0
 35 66  1  0  0  0  0
 35 72  1  0  0  0  0
 35 82  2  0  0  0  0
 36 67  1  0  0  0  0
 36 77  1  0  0  0  0
 36 83  2  0  0  0  0
 37 73  1  0  0  0  0
 37 78  1  0  0  0  0
 37 84  2  0  0  0  0
 38 43  1  0  0  0  0
 39 52  1  0  0  0  0
 40 44  1  0  0  0  0
 41 72  1  0  0  0  0
 42 45  1  0  0  0  0
 43 47  1  0  0  0  0
 44 54  1  0  0  0  0
 45 54  1  0  0  0  0
 46 48  1  0  0  0  0
 46 49  1  0  0  0  0
 47 51  1  0  0  0  0
 48 53  1  0  0  0  0
 49 73  1  0  0  0  0
 50 53  1  0  0  0  0
 50 73  1  0  0  0  0
 51 76  1  0  0  0  0
 52 72  1  0  0  0  0
 53 71  1  0  0  0  0
 54 64  1  0  0  0  0
 54 65  1  0  0  0  0
 55 62  1  0  0  0  0
 56 64  1  0  0  0  0
 57 67  1  0  0  0  0
 58 68  1  0  0  0  0
 59 68  1  0  0  0  0
 60 68  1  0  0  0  0
 61 79  1  0  0  0  0
 63 86  1  0  0  0  0
 65 78  1  0  0  0  0
 66 68  1  0  0  0  0
 66 77  1  0  0  0  0
 67 79  1  0  0  0  0
 69 71  1  0  0  0  0
M  CHG  1  79   1
M  ISO  4  37 100  63 101  78 100  86 101
M  END
> <Batch ID>
0034

> <Smiles>
CCc1cc2c(nc1[101CH2:1][101O:1]c1ccc3c(c1)CN(C(=O)C(NC(=O)C(C)NC)C(C)(C)C)C(C(=O)NC1CCCc4ccccc41)C3)CCC(CC)(C[100NH:0][100C:0](=O)N1CCCC(n3nc(-c4ccc(Oc5ccc(F)cc5F)cc4)c(C(N)=O)c3N)C1)CC2

> <Shape>
0.271

> <Color>
0.059

> <Negative vol penalty>
0.000

$$$$

  -OEChem-04052316503D

 85 94  0     1  0  0  0  0  0999 V2000
  -20.3817  -18.4709   23.9076 C   0  0  0  0  0  0  0  0  0  0  0  0
  -21.6955  -18.8195   23.6113 C   0  0  0  0  0  0  0  0  0  0  0  0
  -22.1154  -26.3454   22.1309 C   0  0  0  0  0  0  0  0  0  0  0  0
  -20.4218  -27.8472   22.9756 C   0  0  0  0  0  0  0  0  0  0  0  0
  -20.0661  -17.1496   24.2213 C   0  0  0  0  0  0  0  0  0  0  0  0
  -22.6947  -17.8471   23.6296 C   0  0  0  0  0  0  0  0  0  0  0  0
  -25.7856  -18.1621   19.6306 C   0  0  0  0  0  0  0  0  0  0  0  0
  -21.2476  -25.2677   22.3072 C   0  0  0  0  0  0  0  0  0  0  0  0
  -19.5540  -26.7695   23.1519 C   0  0  0  0  0  0  0  0  0  0  0  0
  -26.7627  -19.1563   19.6578 C   0  0  0  0  0  0  0  0  0  0  0  0
  -19.3515  -22.1681   22.1966 C   0  0  0  0  0  0  0  0  0  0  0  0
  -19.2568  -21.2359   21.1633 C   0  0  0  0  0  0  0  0  0  0  0  0
  -28.4018  -17.5186   20.3292 C   0  0  0  0  0  0  0  0  0  0  0  0
  -18.5086  -22.9753   19.6627 C   0  0  0  0  0  0  0  0  0  0  0  0
  -29.1737  -29.3241   23.3191 C   0  0  0  0  0  0  0  0  0  0  0  0
  -21.7025  -27.6352   22.4651 C   0  0  0  0  0  0  0  0  0  0  0  0
  -28.6953  -29.1880   24.6044 C   0  0  0  0  0  0  0  0  0  0  0  0
  -22.7364  -29.5507   21.1349 C   0  0  0  0  0  0  0  0  0  0  0  0
  -21.0603  -16.1586   24.2340 C   0  0  0  0  0  0  0  0  0  0  0  0
  -26.1075  -16.8385   19.9636 C   0  0  0  0  0  0  0  0  0  0  0  0
  -22.3923  -16.5115   23.9451 C   0  0  0  0  0  0  0  0  0  0  0  0
  -27.4276  -16.5090   20.3030 C   0  0  0  0  0  0  0  0  0  0  0  0
  -28.7820  -27.8178   24.9515 C   0  0  0  0  0  0  0  0  0  0  0  0
  -19.9670  -25.4797   22.8177 C   0  0  0  0  0  0  0  0  0  0  0  0
  -28.0704  -18.8352   20.0099 C   0  0  0  0  0  0  0  0  0  0  0  0
  -19.0246  -23.5039   21.9630 C   0  0  0  0  0  0  0  0  0  0  0  0
  -18.8354  -21.6395   19.8963 C   0  0  0  0  0  0  0  0  0  0  0  0
  -18.6032  -23.9075   20.6960 C   0  0  0  0  0  0  0  0  0  0  0  0
  -22.5986  -28.7488   22.2837 C   0  0  0  0  0  0  0  0  0  0  0  0
  -29.3116  -27.1513   23.8672 C   0  0  0  0  0  0  0  0  0  0  0  0
  -23.7089  -30.4620   21.4669 C   0  0  0  0  0  0  0  0  0  0  0  0
  -29.6367  -25.7902   23.5970 C   0  0  0  0  0  0  0  0  0  0  0  0
  -30.3957  -26.4570   21.3718 C   0  0  0  0  0  0  0  0  0  0  0  0
  -30.0900  -27.7399   21.6242 C   0  0  0  0  0  0  0  0  0  0  0  0
  -30.1589  -25.4446   22.3996 C   0  0  0  0  0  0  0  0  0  0  0  0
  -28.1973  -30.3030   25.4204 C   0  0  0  0  0  0  0  0  0  0  0  0
  -22.0469  -29.4783   19.8799 C   0  0  0  0  0  0  0  0  0  0  0  0
  -25.1857  -14.8076   22.2285 C   0  0  0  0  0  0  0  0  0  0  0  0
  -27.0094  -12.7153   20.5497 C   0  0  0  0  0  0  0  0  0  0  0  0
  -29.5877  -12.2204   18.3693 C   0  0  0  0  0  0  0  0  0  0  0  0
  -20.6791  -14.7528   24.6253 C   0  0  0  0  0  0  0  0  0  0  0  0
  -25.0478  -15.7727   19.9035 C   0  0  0  0  0  0  0  0  0  0  0  0
  -27.8291  -15.0993   20.6492 C   0  0  0  0  0  0  0  0  0  0  0  0
  -21.7322  -13.7111   24.2565 C   0  0  0  0  0  0  0  0  0  0  0  0
  -25.5934  -32.7373   25.2323 C   0  0  0  0  0  0  0  0  0  0  0  0
  -23.1219  -14.1890   24.6657 C   0  0  0  0  0  0  0  0  0  0  0  0
  -24.5328  -32.0595   24.3629 C   0  0  0  0  0  0  0  0  0  0  0  0
  -26.3110  -31.7335   26.1312 C   0  0  0  0  0  0  0  0  0  0  0  0
  -25.8379  -29.8997   24.5443 C   0  0  0  0  0  0  0  0  0  0  0  0
  -23.4999  -15.4804   23.9304 C   0  0  1  0  0  0  0  0  0  0  0  0
  -25.3770  -14.5539   20.7600 C   0  0  1  0  0  0  0  0  0  0  0  0
  -25.1258  -30.8689   23.5863 C   0  0  1  0  0  0  0  0  0  0  0  0
  -27.0364  -26.4816   26.1575 C   0  0  0  0  0  0  0  0  0  0  0  0
  -30.8682  -10.3975   17.2139 C   0  0  0  0  0  0  0  0  0  0  0  0
  -28.4798  -12.1021   23.1520 C   0  0  0  0  0  0  0  0  0  0  0  0
  -30.2987  -11.0458   21.7940 C   0  0  0  0  0  0  0  0  0  0  0  0
  -27.9907  -10.1012   21.7337 C   0  0  0  0  0  0  0  0  0  0  0  0
  -28.8122  -13.2137   15.6915 C   0  0  0  0  0  0  0  0  0  0  0  0
  -28.3784  -27.2153   26.2396 C   0  0  0  0  0  0  0  0  0  0  0  0
  -30.5198  -24.0396   22.0516 C   0  0  0  0  0  0  0  0  0  0  0  0
  -29.3499  -23.2931   21.4105 C   0  0  0  0  0  0  0  0  0  0  0  0
  -29.7442  -21.8670   21.0304 C   0  0  0  0  0  0  0  0  0  0  0  0
  -28.5987  -21.1285   20.3525 C   0  0  0  0  0  0  0  0  0  1  0  0
  -28.4606  -12.3001   20.5778 C   0  0  1  0  0  0  0  0  0  0  0  0
  -29.6999  -11.3665   17.1192 C   0  0  2  0  0  0  0  0  0  0  0  0
  -28.7998  -11.4143   21.8098 C   0  0  0  0  0  0  0  0  0  0  0  0
  -23.4181  -29.1181   23.2716 N   0  0  0  0  0  0  0  0  0  0  0  0
  -29.5522  -28.0817   22.8632 N   0  0  0  0  0  0  0  0  0  0  0  0
  -24.0803  -30.1620   22.7445 N   0  0  0  0  0  0  0  0  0  0  0  0
  -26.8388  -30.6194   25.3444 N   0  0  0  0  0  0  0  0  0  0  0  0
  -26.7557  -14.0938   20.5822 N   0  0  0  0  0  0  0  0  0  0  0  0
  -24.2741  -31.4826   20.7876 N   0  0  0  0  0  0  0  0  0  0  0  0
  -21.0773  -28.4811   19.7067 N   0  0  0  0  0  0  0  0  0  0  0  0
  -23.9025  -15.1888   22.5712 N   0  0  0  0  0  0  0  0  0  0  0  0
  -28.7280  -11.6638   19.2925 N   0  0  0  0  0  0  0  0  0  0  0  0
  -29.9000  -12.2280   15.9197 N   0  3  0  0  0  0  0  0  0  0  0  0
  -29.0322  -30.8878   26.1089 O   0  0  0  0  0  0  0  0  0  0  0  0
  -22.2952  -30.2640   18.9340 O   0  0  0  0  0  0  0  0  0  0  0  0
  -26.1320  -14.6666   22.9943 O   0  0  0  0  0  0  0  0  0  0  0  0
  -26.1334  -11.8486   20.4936 O   0  0  0  0  0  0  0  0  0  0  0  0
  -30.2041  -13.2738   18.5140 O   0  0  0  0  0  0  0  0  0  0  0  0
  -19.1199  -24.4283   22.9897 O   0  0  0  0  0  0  0  0  0  0  0  0
  -29.0258  -19.8038   20.0379 O   0  0  0  0  0  0  0  0  0  1  0  0
  -18.7460  -20.7446   18.9038 F   0  0  0  0  0  0  0  0  0  0  0  0
  -18.2890  -25.1896   20.4652 F   0  0  0  0  0  0  0  0  0  0  0  0
  1  2  1  0  0  0  0
  1  5  2  0  0  0  0
  2  6  2  0  0  0  0
  3  8  2  0  0  0  0
  3 16  1  0  0  0  0
  4  9  1  0  0  0  0
  4 16  2  0  0  0  0
  5 19  1  0  0  0  0
  6 21  1  0  0  0  0
  7 10  2  0  0  0  0
  7 20  1  0  0  0  0
  8 24  1  0  0  0  0
  9 24  2  0  0  0  0
 10 25  1  0  0  0  0
 11 12  2  0  0  0  0
 11 26  1  0  0  0  0
 12 27  1  0  0  0  0
 13 22  1  0  0  0  0
 13 25  2  0  0  0  0
 14 27  2  0  0  0  0
 14 28  1  0  0  0  0
 15 17  2  0  0  0  0
 15 68  1  0  0  0  0
 16 29  1  0  0  0  0
 17 23  1  0  0  0  0
 17 36  1  0  0  0  0
 18 29  1  0  0  0  0
 18 31  2  0  0  0  0
 18 37  1  0  0  0  0
 19 21  2  0  0  0  0
 19 41  1  0  0  0  0
 20 22  2  0  0  0  0
 20 42  1  0  0  0  0
 21 50  1  0  0  0  0
 22 43  1  0  0  0  0
 23 30  2  0  0  0  0
 23 59  1  0  0  0  0
 24 82  1  0  0  0  0
 25 83  1  0  0  0  0
 26 28  2  0  0  0  0
 26 82  1  0  0  0  0
 27 84  1  0  0  0  0
 28 85  1  0  0  0  0
 29 67  2  0  0  0  0
 30 32  1  0  0  0  0
 30 68  1  0  0  0  0
 31 69  1  0  0  0  0
 31 72  1  0  0  0  0
 32 35  2  0  0  0  0
 33 34  2  0  0  0  0
 33 35  1  0  0  0  0
 34 68  1  0  0  0  0
 35 60  1  0  0  0  0
 36 70  1  0  0  0  0
 36 77  2  0  0  0  0
 37 73  1  0  0  0  0
 37 78  2  0  0  0  0
 38 51  1  0  0  0  0
 38 74  1  0  0  0  0
 38 79  2  0  0  0  0
 39 64  1  0  0  0  0
 39 71  1  0  0  0  0
 39 80  2  0  0  0  0
 40 65  1  0  0  0  0
 40 75  1  0  0  0  0
 40 81  2  0  0  0  0
 41 44  1  0  0  0  0
 42 51  1  0  0  0  0
 43 71  1  0  0  0  0
 44 46  1  0  0  0  0
 45 47  1  0  0  0  0
 45 48  1  0  0  0  0
 46 50  1  0  0  0  0
 47 52  1  0  0  0  0
 48 70  1  0  0  0  0
 49 52  1  0  0  0  0
 49 70  1  0  0  0  0
 50 74  1  0  0  0  0
 51 71  1  0  0  0  0
 52 69  1  0  0  0  0
 53 59  1  0  0  0  0
 54 65  1  0  0  0  0
 55 66  1  0  0  0  0
 56 66  1  0  0  0  0
 57 66  1  0  0  0  0
 58 76  1  0  0  0  0
 60 61  1  0  0  0  0
 61 62  1  0  0  0  0
 62 63  1  0  0  0  0
 63 83  1  0  0  0  0
 64 66  1  0  0  0  0
 64 75  1  0  0  0  0
 65 76  1  0  0  0  0
 67 69  1  0  0  0  0
M  CHG  1  76   1
M  ISO  4  17 100  36 100  63 101  83 101
M  END
> <Batch ID>
0034

> <Smiles>
CCc1c2cc(CCC[101CH2:1][101O:1]c3ccc4c(c3)CN(C(=O)C(NC(=O)C(C)NC)C(C)(C)C)C(C(=O)NC3CCCc5ccccc53)C4)ccn2c[100c:0]1[100C:0](=O)N1CCCC(n2nc(-c3ccc(Oc4ccc(F)cc4F)cc3)c(C(N)=O)c2N)C1

> <Shape>
0.239

> <Color>
0.048

> <Negative vol penalty>
0.000

$$$$

  -OEChem-04052316503D

 82 90  0     1  0  0  0  0  0999 V2000
  -17.5551  -23.7141   23.7275 C   0  0  0  0  0  0  0  0  0  0  0  0
  -18.9086  -23.4507   23.5426 C   0  0  0  0  0  0  0  0  0  0  0  0
  -23.0005   -9.8948   19.9811 C   0  0  0  0  0  0  0  0  0  0  0  0
  -23.7306   -9.9432   22.2836 C   0  0  0  0  0  0  0  0  0  0  0  0
  -16.5986  -22.8674   23.1689 C   0  0  0  0  0  0  0  0  0  0  0  0
  -19.3063  -22.3396   22.7999 C   0  0  0  0  0  0  0  0  0  0  0  0
  -24.2060  -21.9127   19.1506 C   0  0  0  0  0  0  0  0  0  0  0  0
  -22.2355   -8.7592   20.2475 C   0  0  0  0  0  0  0  0  0  0  0  0
  -22.9656   -8.8077   22.5501 C   0  0  0  0  0  0  0  0  0  0  0  0
  -25.4773  -21.3748   19.3463 C   0  0  0  0  0  0  0  0  0  0  0  0
  -23.2119   -5.4696   22.0730 C   0  0  0  0  0  0  0  0  0  0  0  0
  -23.8020   -4.4519   22.8225 C   0  0  0  0  0  0  0  0  0  0  0  0
  -24.7576  -19.3152   18.3170 C   0  0  0  0  0  0  0  0  0  0  0  0
  -31.6764  -18.2487   20.0194 C   0  0  0  0  0  0  0  0  0  0  0  0
  -22.0816   -4.6910   24.5018 C   0  0  0  0  0  0  0  0  0  0  0  0
  -23.7481  -10.4868   20.9991 C   0  0  0  0  0  0  0  0  0  0  0  0
  -24.1307  -13.0030   20.8258 C   0  0  0  0  0  0  0  0  0  0  0  0
  -16.9848  -21.7508   22.4108 C   0  0  0  0  0  0  0  0  0  0  0  0
  -23.1961  -21.1508   18.5455 C   0  0  0  0  0  0  0  0  0  0  0  0
  -18.3541  -21.4763   22.2317 C   0  0  0  0  0  0  0  0  0  0  0  0
  -23.4751  -19.8467   18.1125 C   0  0  0  0  0  0  0  0  0  0  0  0
  -30.6256  -17.9309   20.8800 C   0  0  0  0  0  0  0  0  0  0  0  0
  -29.4187  -18.6248   20.7930 C   0  0  0  0  0  0  0  0  0  0  0  0
  -29.2625  -19.6364   19.8454 C   0  0  0  0  0  0  0  0  0  0  0  0
  -30.3133  -19.9542   18.9848 C   0  0  0  0  0  0  0  0  0  0  0  0
  -22.2181   -8.2157   21.5320 C   0  0  0  0  0  0  0  0  0  0  0  0
  -25.7524  -20.0749   18.9321 C   0  0  0  0  0  0  0  0  0  0  0  0
  -22.0567   -6.0981   22.5380 C   0  0  0  0  0  0  0  0  0  0  0  0
  -23.2369   -4.0626   24.0368 C   0  0  0  0  0  0  0  0  0  0  0  0
  -21.4915   -5.7087   23.7523 C   0  0  0  0  0  0  0  0  0  0  0  0
  -31.5202  -19.2603   19.0718 C   0  0  0  0  0  0  0  0  0  0  0  0
  -24.5389  -11.6595   20.7244 C   0  0  0  0  0  0  0  0  0  0  0  0
  -25.2390  -13.7270   20.4599 C   0  0  0  0  0  0  0  0  0  0  0  0
  -22.8631  -13.5477   21.2158 C   0  0  0  0  0  0  0  0  0  0  0  0
  -20.3500  -20.0695   19.4586 C   0  0  0  0  0  0  0  0  0  0  0  0
  -20.1526  -19.1172   16.3640 C   0  0  0  0  0  0  0  0  0  0  0  0
  -21.7765  -18.2514   13.4900 C   0  0  0  0  0  0  0  0  0  0  0  0
  -30.7351  -14.6663   20.6978 C   0  0  0  0  0  0  0  0  0  0  0  0
  -15.9149  -20.8378   21.8664 C   0  0  0  0  0  0  0  0  0  0  0  0
  -21.8377  -21.7549   18.3175 C   0  0  0  0  0  0  0  0  0  0  0  0
  -22.4316  -18.9943   17.4394 C   0  0  0  0  0  0  0  0  0  0  0  0
  -16.4169  -19.8921   20.7783 C   0  0  0  0  0  0  0  0  0  0  0  0
  -29.5915  -12.2448   18.3514 C   0  0  0  0  0  0  0  0  0  0  0  0
  -17.7304  -19.2417   21.2007 C   0  0  0  0  0  0  0  0  0  0  0  0
  -28.1441  -11.9832   18.7718 C   0  0  0  0  0  0  0  0  0  0  0  0
  -30.4963  -12.4793   19.5590 C   0  0  0  0  0  0  0  0  0  0  0  0
  -28.5884  -13.2713   20.9031 C   0  0  0  0  0  0  0  0  0  0  0  0
  -18.8249  -20.2949   21.4116 C   0  0  1  0  0  0  0  0  0  0  0  0
  -20.7384  -20.7096   18.1558 C   0  0  1  0  0  0  0  0  0  0  0  0
  -27.6269  -13.0844   19.7169 C   0  0  2  0  0  0  0  0  0  0  0  0
  -28.2937  -18.2817   21.7177 C   0  0  0  0  0  0  0  0  0  0  0  0
  -30.1317  -21.0426   17.9723 C   0  0  0  0  0  0  0  0  0  0  0  0
  -21.3474  -17.4841   11.1395 C   0  0  0  0  0  0  0  0  0  0  0  0
  -19.5154  -16.3177   17.3968 C   0  0  0  0  0  0  0  0  0  0  0  0
  -20.0351  -15.4325   15.1133 C   0  0  0  0  0  0  0  0  0  0  0  0
  -18.1524  -17.0385   15.4278 C   0  0  0  0  0  0  0  0  0  0  0  0
  -23.0888  -20.6446   12.3457 C   0  0  0  0  0  0  0  0  0  0  0  0
  -30.8184  -16.8436   21.8858 C   0  0  0  0  0  0  0  0  0  0  0  0
  -27.9634  -20.3814   19.7529 C   0  0  0  0  0  0  0  0  0  1  0  0
  -20.5334  -17.8704   15.6028 C   0  0  1  0  0  0  0  0  0  0  0  0
  -21.5724  -18.6822   12.0487 C   0  0  2  0  0  0  0  0  0  0  0  0
  -19.5784  -16.6799   15.8996 C   0  0  0  0  0  0  0  0  0  0  0  0
  -25.8074  -11.5347   20.3253 N   0  0  0  0  0  0  0  0  0  0  0  0
  -26.2059  -12.8090   20.1726 N   0  0  0  0  0  0  0  0  0  0  0  0
  -21.1169  -19.6276   17.2446 N   0  0  0  0  0  0  0  0  0  0  0  0
  -29.9504  -13.5364   20.4138 N   0  0  0  0  0  0  0  0  0  0  0  0
  -25.4711  -15.0531   20.3592 N   0  0  0  0  0  0  0  0  0  0  0  0
  -21.8329  -12.6621   21.5604 N   0  0  0  0  0  0  0  0  0  0  0  0
  -19.3507  -20.7393   20.1386 N   0  0  0  0  0  0  0  0  0  0  0  0
  -20.5922  -18.2529   14.1961 N   0  0  0  0  0  0  0  0  0  0  0  0
  -30.1396  -15.6234   21.5102 N   0  0  0  0  0  0  0  0  0  0  0  0
  -22.7653  -19.4279   11.5570 N   0  3  0  0  0  0  0  0  0  0  0  0
  -22.6453  -14.7828   21.2417 O   0  0  0  0  0  0  0  0  0  0  0  0
  -20.9140  -19.0432   19.8194 O   0  0  0  0  0  0  0  0  0  0  0  0
  -19.0433  -19.6237   16.1786 O   0  0  0  0  0  0  0  0  0  0  0  0
  -22.8760  -17.9407   13.9429 O   0  0  0  0  0  0  0  0  0  0  0  0
  -31.8794  -14.8138   20.2554 O   0  0  0  0  0  0  0  0  0  0  0  0
  -21.4716   -7.1078   21.7924 O   0  0  0  0  0  0  0  0  0  0  0  0
  -26.9923  -19.5472   19.1224 O   0  0  0  0  0  0  0  0  0  1  0  0
  -23.8028   -3.0842   24.7556 F   0  0  0  0  0  0  0  0  0  0  0  0
  -20.3811   -6.3080   24.2036 F   0  0  0  0  0  0  0  0  0  0  0  0
  -32.8447  -19.6224   18.0249 Cl  0  0  0  0  0  0  0  0  0  0  0  0
  1  2  1  0  0  0  0
  1  5  2  0  0  0  0
  2  6  2  0  0  0  0
  3  8  2  0  0  0  0
  3 16  1  0  0  0  0
  4  9  1  0  0  0  0
  4 16  2  0  0  0  0
  5 18  1  0  0  0  0
  6 20  1  0  0  0  0
  7 10  2  0  0  0  0
  7 19  1  0  0  0  0
  8 26  1  0  0  0  0
  9 26  2  0  0  0  0
 10 27  1  0  0  0  0
 11 12  2  0  0  0  0
 11 28  1  0  0  0  0
 12 29  1  0  0  0  0
 13 21  1  0  0  0  0
 13 27  2  0  0  0  0
 14 22  2  0  0  0  0
 14 31  1  0  0  0  0
 15 29  2  0  0  0  0
 15 30  1  0  0  0  0
 16 32  1  0  0  0  0
 17 32  1  0  0  0  0
 17 33  2  0  0  0  0
 17 34  1  0  0  0  0
 18 20  2  0  0  0  0
 18 39  1  0  0  0  0
 19 21  2  0  0  0  0
 19 40  1  0  0  0  0
 20 48  1  0  0  0  0
 21 41  1  0  0  0  0
 22 23  1  0  0  0  0
 22 58  1  0  0  0  0
 23 24  2  0  0  0  0
 23 51  1  0  0  0  0
 24 25  1  0  0  0  0
 24 59  1  0  0  0  0
 25 31  2  0  0  0  0
 25 52  1  0  0  0  0
 26 78  1  0  0  0  0
 27 79  1  0  0  0  0
 28 30  2  0  0  0  0
 28 78  1  0  0  0  0
 29 80  1  0  0  0  0
 30 81  1  0  0  0  0
 31 82  1  0  0  0  0
 32 63  2  0  0  0  0
 33 64  1  0  0  0  0
 33 67  1  0  0  0  0
 34 68  1  0  0  0  0
 34 73  2  0  0  0  0
 35 49  1  0  0  0  0
 35 69  1  0  0  0  0
 35 74  2  0  0  0  0
 36 60  1  0  0  0  0
 36 65  1  0  0  0  0
 36 75  2  0  0  0  0
 37 61  1  0  0  0  0
 37 70  1  0  0  0  0
 37 76  2  0  0  0  0
 38 66  1  0  0  0  0
 38 71  1  0  0  0  0
 38 77  2  0  0  0  0
 39 42  1  0  0  0  0
 40 49  1  0  0  0  0
 41 65  1  0  0  0  0
 42 44  1  0  0  0  0
 43 45  1  0  0  0  0
 43 46  1  0  0  0  0
 44 48  1  0  0  0  0
 45 50  1  0  0  0  0
 46 66  1  0  0  0  0
 47 50  1  0  0  0  0
 47 66  1  0  0  0  0
 48 69  1  0  0  0  0
 49 65  1  0  0  0  0
 50 64  1  0  0  0  0
 53 61  1  0  0  0  0
 54 62  1  0  0  0  0
 55 62  1  0  0  0  0
 56 62  1  0  0  0  0
 57 72  1  0  0  0  0
 58 71  1  0  0  0  0
 59 79  1  0  0  0  0
 60 62  1  0  0  0  0
 60 70  1  0  0  0  0
 61 72  1  0  0  0  0
 63 64  1  0  0  0  0
M  CHG  1  72   1
M  ISO  4  38 100  59 101  71 100  79 101
M  END
> <Batch ID>
0034

> <Smiles>
CNC(C)C(=O)NC(C(=O)N1Cc2cc([101O:1][101CH2:1]c3c(C)c(Cl)cc(C[100NH:0][100C:0](=O)N4CCCC(n5nc(-c6ccc(Oc7ccc(F)cc7F)cc6)c(C(N)=O)c5N)C4)c3C)ccc2CC1C(=O)NC1CCCc2ccccc21)C(C)(C)C

> <Shape>
0.207

> <Color>
0.206

> <Negative vol penalty>
0.000

$$$$

  -OEChem-04052316503D

 82 90  0     1  0  0  0  0  0999 V2000
  -23.4452  -23.9620   21.1304 C   0  0  0  0  0  0  0  0  0  0  0  0
  -24.5721  -23.1484   21.1907 C   0  0  0  0  0  0  0  0  0  0  0  0
  -22.6295  -28.3366   19.4653 C   0  0  0  0  0  0  0  0  0  0  0  0
  -22.9286  -28.0509   21.8457 C   0  0  0  0  0  0  0  0  0  0  0  0
  -22.2201  -23.4899   21.5995 C   0  0  0  0  0  0  0  0  0  0  0  0
  -24.4747  -21.8625   21.7212 C   0  0  0  0  0  0  0  0  0  0  0  0
  -26.8866  -18.4119   18.9068 C   0  0  0  0  0  0  0  0  0  0  0  0
  -31.2882  -20.8784   22.6841 C   0  0  0  0  0  0  0  0  0  0  0  0
  -31.3440  -19.4905   22.5569 C   0  0  0  0  0  0  0  0  0  0  0  0
  -21.2613  -28.1067   19.6096 C   0  0  0  0  0  0  0  0  0  0  0  0
  -21.5603  -27.8210   21.9899 C   0  0  0  0  0  0  0  0  0  0  0  0
  -28.2741  -18.3488   19.0275 C   0  0  0  0  0  0  0  0  0  0  0  0
  -18.7270  -29.6587   22.1141 C   0  0  0  0  0  0  0  0  0  0  0  0
  -18.0695  -30.3053   23.1606 C   0  0  0  0  0  0  0  0  0  0  0  0
  -28.0535  -16.4518   20.5014 C   0  0  0  0  0  0  0  0  0  0  0  0
  -32.7253  -21.1130   20.7562 C   0  0  0  0  0  0  0  0  0  0  0  0
  -17.4340  -28.1650   24.0837 C   0  0  0  0  0  0  0  0  0  0  0  0
  -23.4632  -28.3087   20.5834 C   0  0  0  0  0  0  0  0  0  0  0  0
  -25.5425  -29.7842   20.5001 C   0  0  0  0  0  0  0  0  0  0  0  0
  -22.1056  -22.1941   22.1272 C   0  0  0  0  0  0  0  0  0  0  0  0
  -26.0703  -17.5007   19.5922 C   0  0  0  0  0  0  0  0  0  0  0  0
  -23.2472  -21.3731   22.1991 C   0  0  0  0  0  0  0  0  0  0  0  0
  -26.6561  -16.5039   20.3856 C   0  0  0  0  0  0  0  0  0  0  0  0
  -31.9788  -21.6897   21.7837 C   0  0  0  0  0  0  0  0  0  0  0  0
  -32.0905  -18.9138   21.5294 C   0  0  0  0  0  0  0  0  0  0  0  0
  -20.7267  -27.8489   20.8719 C   0  0  0  0  0  0  0  0  0  0  0  0
  -28.8577  -17.3705   19.8272 C   0  0  0  0  0  0  0  0  0  0  0  0
  -18.7379  -28.2652   22.0523 C   0  0  0  0  0  0  0  0  0  0  0  0
  -17.4231  -29.5585   24.1455 C   0  0  0  0  0  0  0  0  0  0  0  0
  -18.0914  -27.5184   23.0371 C   0  0  0  0  0  0  0  0  0  0  0  0
  -32.7812  -19.7250   20.6290 C   0  0  0  0  0  0  0  0  0  0  0  0
  -24.8766  -28.5455   20.4349 C   0  0  0  0  0  0  0  0  0  0  0  0
  -26.8651  -29.4741   20.2976 C   0  0  0  0  0  0  0  0  0  0  0  0
  -25.0128  -31.0976   20.7238 C   0  0  0  0  0  0  0  0  0  0  0  0
  -23.8267  -17.7425   21.8308 C   0  0  0  0  0  0  0  0  0  0  0  0
  -23.4823  -14.5648   21.2777 C   0  0  0  0  0  0  0  0  0  0  0  0
  -24.8654  -11.6520   20.1597 C   0  0  0  0  0  0  0  0  0  0  0  0
  -29.9431  -24.5342   21.2870 C   0  0  0  0  0  0  0  0  0  0  0  0
  -20.7702  -21.7449   22.6655 C   0  0  0  0  0  0  0  0  0  0  0  0
  -24.5763  -17.5654   19.4303 C   0  0  0  0  0  0  0  0  0  0  0  0
  -25.8249  -15.4893   21.1261 C   0  0  0  0  0  0  0  0  0  0  0  0
  -20.6719  -20.2351   22.8683 C   0  0  0  0  0  0  0  0  0  0  0  0
  -29.6676  -26.2632   18.1196 C   0  0  0  0  0  0  0  0  0  0  0  0
  -21.9151  -19.7099   23.5793 C   0  0  0  0  0  0  0  0  0  0  0  0
  -28.4596  -27.1675   18.3708 C   0  0  0  0  0  0  0  0  0  0  0  0
  -29.4881  -24.9028   18.7870 C   0  0  0  0  0  0  0  0  0  0  0  0
  -28.0073  -25.8691   20.5038 C   0  0  0  0  0  0  0  0  0  0  0  0
  -23.1764  -19.9634   22.7448 C   0  0  1  0  0  0  0  0  0  0  0  0
  -23.8215  -16.9078   20.5814 C   0  0  1  0  0  0  0  0  0  0  0  0
  -28.1375  -27.2677   19.8736 C   0  0  2  0  0  0  0  0  0  0  0  0
  -32.7636  -16.7753   22.6718 C   0  0  0  0  0  0  0  0  0  0  0  0
  -24.3529   -9.2130   19.8670 C   0  0  0  0  0  0  0  0  0  0  0  0
  -23.8487  -14.1305   24.2755 C   0  0  0  0  0  0  0  0  0  0  0  0
  -24.2773  -11.7097   23.8018 C   0  0  0  0  0  0  0  0  0  0  0  0
  -22.0700  -12.7196   23.2267 C   0  0  0  0  0  0  0  0  0  0  0  0
  -25.2407  -11.8061   17.2281 C   0  0  0  0  0  0  0  0  0  0  0  0
  -31.9193  -23.1737   21.9198 C   0  0  0  0  0  0  0  0  0  0  0  0
  -30.7318  -16.8053   21.1778 C   0  0  0  0  0  0  0  0  0  1  0  0
  -32.1260  -17.3971   21.4263 C   0  0  1  0  0  0  0  0  0  0  0  0
  -24.1011  -13.3083   21.8411 C   0  0  1  0  0  0  0  0  0  0  0  0
  -24.3420  -10.5863   19.2139 C   0  0  2  0  0  0  0  0  0  0  0  0
  -23.5901  -12.9872   23.2740 C   0  0  0  0  0  0  0  0  0  0  0  0
  -25.7077  -27.5247   20.2085 N   0  0  0  0  0  0  0  0  0  0  0  0
  -26.9093  -28.1213   20.1296 N   0  0  0  0  0  0  0  0  0  0  0  0
  -24.3684  -15.5979   20.9408 N   0  0  0  0  0  0  0  0  0  0  0  0
  -29.2026  -25.0681   20.2193 N   0  0  0  0  0  0  0  0  0  0  0  0
  -27.9830  -30.2293   20.2485 N   0  0  0  0  0  0  0  0  0  0  0  0
  -23.6312  -31.2375   20.9134 N   0  0  0  0  0  0  0  0  0  0  0  0
  -23.2739  -18.9988   21.6704 N   0  0  0  0  0  0  0  0  0  0  0  0
  -23.8453  -12.2544   20.8653 N   0  0  0  0  0  0  0  0  0  0  0  0
  -31.0562  -23.7822   20.9320 N   0  0  0  0  0  0  0  0  0  0  0  0
  -25.1810  -10.5283   17.9836 N   0  3  0  0  0  0  0  0  0  0  0  0
  -25.7410  -32.1189   20.7383 O   0  0  0  0  0  0  0  0  0  0  0  0
  -24.2960  -17.2804   22.8642 O   0  0  0  0  0  0  0  0  0  0  0  0
  -22.2585  -14.6247   21.1348 O   0  0  0  0  0  0  0  0  0  0  0  0
  -26.0601  -11.9206   20.2651 O   0  0  0  0  0  0  0  0  0  0  0  0
  -29.6378  -24.7185   22.4702 O   0  0  0  0  0  0  0  0  0  0  0  0
  -19.3917  -27.6248   21.0131 O   0  0  0  0  0  0  0  0  0  0  0  0
  -30.2117  -17.3071   19.9473 O   0  0  0  0  0  0  0  0  0  1  0  0
  -16.7931  -30.1795   25.1512 F   0  0  0  0  0  0  0  0  0  0  0  0
  -18.0995  -26.1794   22.9838 F   0  0  0  0  0  0  0  0  0  0  0  0
  -33.7157  -19.0466   19.3461 Cl  0  0  0  0  0  0  0  0  0  0  0  0
  1  2  1  0  0  0  0
  1  5  2  0  0  0  0
  2  6  2  0  0  0  0
  3 10  2  0  0  0  0
  3 18  1  0  0  0  0
  4 11  1  0  0  0  0
  4 18  2  0  0  0  0
  5 20  1  0  0  0  0
  6 22  1  0  0  0  0
  7 12  2  0  0  0  0
  7 21  1  0  0  0  0
  8  9  2  0  0  0  0
  8 24  1  0  0  0  0
  9 25  1  0  0  0  0
 10 26  1  0  0  0  0
 11 26  2  0  0  0  0
 12 27  1  0  0  0  0
 13 14  2  0  0  0  0
 13 28  1  0  0  0  0
 14 29  1  0  0  0  0
 15 23  1  0  0  0  0
 15 27  2  0  0  0  0
 16 24  2  0  0  0  0
 16 31  1  0  0  0  0
 17 29  2  0  0  0  0
 17 30  1  0  0  0  0
 18 32  1  0  0  0  0
 19 32  1  0  0  0  0
 19 33  2  0  0  0  0
 19 34  1  0  0  0  0
 20 22  2  0  0  0  0
 20 39  1  0  0  0  0
 21 23  2  0  0  0  0
 21 40  1  0  0  0  0
 22 48  1  0  0  0  0
 23 41  1  0  0  0  0
 24 57  1  0  0  0  0
 25 31  2  0  0  0  0
 25 59  1  0  0  0  0
 26 78  1  0  0  0  0
 27 79  1  0  0  0  0
 28 30  2  0  0  0  0
 28 78  1  0  0  0  0
 29 80  1  0  0  0  0
 30 81  1  0  0  0  0
 31 82  1  0  0  0  0
 32 63  2  0  0  0  0
 33 64  1  0  0  0  0
 33 67  1  0  0  0  0
 34 68  1  0  0  0  0
 34 73  2  0  0  0  0
 35 49  1  0  0  0  0
 35 69  1  0  0  0  0
 35 74  2  0  0  0  0
 36 60  1  0  0  0  0
 36 65  1  0  0  0  0
 36 75  2  0  0  0  0
 37 61  1  0  0  0  0
 37 70  1  0  0  0  0
 37 76  2  0  0  0  0
 38 66  1  0  0  0  0
 38 71  1  0  0  0  0
 38 77  2  0  0  0  0
 39 42  1  0  0  0  0
 40 49  1  0  0  0  0
 41 65  1  0  0  0  0
 42 44  1  0  0  0  0
 43 45  1  0  0  0  0
 43 46  1  0  0  0  0
 44 48  1  0  0  0  0
 45 50  1  0  0  0  0
 46 66  1  0  0  0  0
 47 50  1  0  0  0  0
 47 66  1  0  0  0  0
 48 69  1  0  0  0  0
 49 65  1  0  0  0  0
 50 64  1  0  0  0  0
 51 59  1  0  0  0  0
 52 61  1  0  0  0  0
 53 62  1  0  0  0  0
 54 62  1  0  0  0  0
 55 62  1  0  0  0  0
 56 72  1  0  0  0  0
 57 71  1  0  0  0  0
 58 59  1  0  0  0  0
 58 79  1  0  0  0  0
 60 62  1  0  0  0  0
 60 70  1  0  0  0  0
 61 72  1  0  0  0  0
 63 64  1  0  0  0  0
M  CHG  1  72   1
M  ISO  4  38 100  58 101  71 100  79 101
M  END
> <Batch ID>
0034

> <Smiles>
CNC(C)C(=O)NC(C(=O)N1Cc2cc([101O:1][101CH2:1]C(C)c3ccc(C[100NH:0][100C:0](=O)N4CCCC(n5nc(-c6ccc(Oc7ccc(F)cc7F)cc6)c(C(N)=O)c5N)C4)cc3Cl)ccc2CC1C(=O)NC1CCCc2ccccc21)C(C)(C)C

> <Shape>
0.221

> <Color>
0.077

> <Negative vol penalty>
0.000

$$$$

  -OEChem-04052316503D

 84 92  0     1  0  0  0  0  0999 V2000
  -21.8514  -11.8808   20.6857 C   0  0  0  0  0  0  0  0  0  0  0  0
  -21.6718  -13.1656   21.1880 C   0  0  0  0  0  0  0  0  0  0  0  0
  -25.0642  -28.5483   19.4890 C   0  0  0  0  0  0  0  0  0  0  0  0
  -25.8684  -26.9573   21.1196 C   0  0  0  0  0  0  0  0  0  0  0  0
  -23.1342  -11.4231   20.3876 C   0  0  0  0  0  0  0  0  0  0  0  0
  -22.7751  -13.9931   21.3937 C   0  0  0  0  0  0  0  0  0  0  0  0
  -22.9986  -20.0729   20.6916 C   0  0  0  0  0  0  0  0  0  0  0  0
  -26.3209  -29.1528   19.4590 C   0  0  0  0  0  0  0  0  0  0  0  0
  -27.1251  -27.5617   21.0896 C   0  0  0  0  0  0  0  0  0  0  0  0
  -22.9075  -21.1260   21.6007 C   0  0  0  0  0  0  0  0  0  0  0  0
  -30.6467  -28.4615   21.1741 C   0  0  0  0  0  0  0  0  0  0  0  0
  -31.7652  -27.6309   21.1067 C   0  0  0  0  0  0  0  0  0  0  0  0
  -25.3150  -21.2325   21.7093 C   0  0  0  0  0  0  0  0  0  0  0  0
  -23.7125  -21.8107   26.8334 C   0  0  0  0  0  0  0  0  0  0  0  0
  -30.9653  -26.7236   19.0152 C   0  0  0  0  0  0  0  0  0  0  0  0
  -24.8379  -27.4506   20.3193 C   0  0  0  0  0  0  0  0  0  0  0  0
  -23.0858  -25.7672   19.5421 C   0  0  0  0  0  0  0  0  0  0  0  0
  -24.2529  -12.2489   20.5806 C   0  0  0  0  0  0  0  0  0  0  0  0
  -24.2507  -19.5836   20.2923 C   0  0  0  0  0  0  0  0  0  0  0  0
  -24.0742  -13.5456   21.0992 C   0  0  0  0  0  0  0  0  0  0  0  0
  -25.4193  -20.1747   20.7932 C   0  0  0  0  0  0  0  0  0  0  0  0
  -22.6660  -21.1084   27.4208 C   0  0  0  0  0  0  0  0  0  0  0  0
  -21.3564  -21.3722   27.0355 C   0  0  0  0  0  0  0  0  0  0  0  0
  -27.3514  -28.6595   20.2593 C   0  0  0  0  0  0  0  0  0  0  0  0
  -24.0658  -21.7041   22.1119 C   0  0  0  0  0  0  0  0  0  0  0  0
  -29.6874  -28.4231   20.1622 C   0  0  0  0  0  0  0  0  0  0  0  0
  -31.9246  -26.7620   20.0272 C   0  0  0  0  0  0  0  0  0  0  0  0
  -29.8467  -27.5542   19.0827 C   0  0  0  0  0  0  0  0  0  0  0  0
  -23.5398  -26.8261   20.3511 C   0  0  0  0  0  0  0  0  0  0  0  0
  -23.3988  -22.7591   25.8732 C   0  0  0  0  0  0  0  0  0  0  0  0
  -21.1481  -22.3404   26.0664 C   0  0  0  0  0  0  0  0  0  0  0  0
  -21.7969  -25.5435   19.9607 C   0  0  0  0  0  0  0  0  0  0  0  0
  -23.7682  -25.0499   18.5050 C   0  0  0  0  0  0  0  0  0  0  0  0
  -25.7487  -16.7906   20.5343 C   0  0  0  0  0  0  0  0  0  0  0  0
  -27.9644  -18.2598   18.6756 C   0  0  0  0  0  0  0  0  0  0  0  0
  -29.3678  -21.1785   17.5995 C   0  0  0  0  0  0  0  0  0  0  0  0
  -18.9477  -26.5847   25.1230 C   0  0  0  0  0  0  0  0  0  0  0  0
  -25.6243  -11.6933   20.2885 C   0  0  0  0  0  0  0  0  0  0  0  0
  -24.3321  -18.4646   19.2905 C   0  0  0  0  0  0  0  0  0  0  0  0
  -26.7878  -19.6997   20.3808 C   0  0  0  0  0  0  0  0  0  0  0  0
  -26.7058  -12.7654   20.1822 C   0  0  0  0  0  0  0  0  0  0  0  0
  -18.0454  -27.7938   21.8980 C   0  0  0  0  0  0  0  0  0  0  0  0
  -26.5932  -13.7538   21.3386 C   0  0  0  0  0  0  0  0  0  0  0  0
  -19.3102  -27.5873   21.0628 C   0  0  0  0  0  0  0  0  0  0  0  0
  -18.3762  -28.1987   23.3327 C   0  0  0  0  0  0  0  0  0  0  0  0
  -20.5717  -27.0871   23.1976 C   0  0  0  0  0  0  0  0  0  0  0  0
  -25.2438  -14.4819   21.3126 C   0  0  1  0  0  0  0  0  0  0  0  0
  -25.6551  -17.7070   19.3472 C   0  0  1  0  0  0  0  0  0  0  0  0
  -20.2901  -26.6232   21.7582 C   0  0  2  0  0  0  0  0  0  0  0  0
  -22.9740  -20.0822   28.4606 C   0  0  0  0  0  0  0  0  0  0  0  0
  -20.2139  -20.6328   27.6465 C   0  0  0  0  0  0  0  0  0  0  0  0
  -31.1857  -22.0586   16.1101 C   0  0  0  0  0  0  0  0  0  0  0  0
  -30.0480  -17.4877   20.7666 C   0  0  0  0  0  0  0  0  0  0  0  0
  -31.5984  -19.1637   19.7393 C   0  0  0  0  0  0  0  0  0  0  0  0
  -30.7994  -17.2192   18.3965 C   0  0  0  0  0  0  0  0  0  0  0  0
  -27.4301  -22.6295   15.8969 C   0  0  0  0  0  0  0  0  0  0  0  0
  -24.5090  -23.5400   25.2131 C   0  0  0  0  0  0  0  0  0  0  0  0
  -19.7635  -22.6668   25.6103 C   0  0  0  0  0  0  0  0  0  0  0  0
  -18.9814  -23.5902   26.5636 C   0  0  0  0  0  0  0  0  0  0  0  0
  -19.6569  -24.9329   26.8340 C   0  0  0  0  0  0  0  0  0  0  0  0
  -25.0321  -22.8541   23.9557 C   0  0  0  0  0  0  0  0  0  1  0  0
  -29.1938  -19.0961   18.9364 C   0  0  1  0  0  0  0  0  0  0  0  0
  -29.7173  -21.6753   16.2082 C   0  0  2  0  0  0  0  0  0  0  0  0
  -30.3843  -18.2496   19.4692 C   0  0  0  0  0  0  0  0  0  0  0  0
  -22.6145  -27.2460   21.2180 N   0  0  0  0  0  0  0  0  0  0  0  0
  -22.1391  -23.0430   25.4731 N   0  0  0  0  0  0  0  0  0  0  0  0
  -21.5661  -26.4470   20.9560 N   0  0  0  0  0  0  0  0  0  0  0  0
  -26.8151  -18.5988   19.4037 N   0  0  0  0  0  0  0  0  0  0  0  0
  -19.3083  -27.2428   23.9355 N   0  0  0  0  0  0  0  0  0  0  0  0
  -20.8498  -24.6641   19.5708 N   0  0  0  0  0  0  0  0  0  0  0  0
  -25.0889  -25.4083   18.2024 N   0  0  0  0  0  0  0  0  0  0  0  0
  -25.2501  -15.5221   20.3065 N   0  0  0  0  0  0  0  0  0  0  0  0
  -29.4750  -19.8071   17.6940 N   0  0  0  0  0  0  0  0  0  0  0  0
  -19.8858  -25.6904   25.6238 N   0  0  0  0  0  0  0  0  0  0  0  0
  -28.8957  -22.8699   15.8632 N   0  3  0  0  0  0  0  0  0  0  0  0
  -23.2174  -24.1296   17.8545 O   0  0  0  0  0  0  0  0  0  0  0  0
  -26.2385  -17.2033   21.5790 O   0  0  0  0  0  0  0  0  0  0  0  0
  -28.0196  -17.3442   17.8508 O   0  0  0  0  0  0  0  0  0  0  0  0
  -29.0367  -21.9321   18.5122 O   0  0  0  0  0  0  0  0  0  0  0  0
  -17.8674  -26.7759   25.6916 O   0  0  0  0  0  0  0  0  0  0  0  0
  -28.5779  -29.2490   20.2302 O   0  0  0  0  0  0  0  0  0  0  0  0
  -23.9797  -22.7318   22.9998 O   0  0  0  0  0  0  0  0  0  1  0  0
  -32.9995  -25.9655   19.9618 F   0  0  0  0  0  0  0  0  0  0  0  0
  -28.9291  -27.5137   18.1069 F   0  0  0  0  0  0  0  0  0  0  0  0
  1  2  1  0  0  0  0
  1  5  2  0  0  0  0
  2  6  2  0  0  0  0
  3  8  2  0  0  0  0
  3 16  1  0  0  0  0
  4  9  1  0  0  0  0
  4 16  2  0  0  0  0
  5 18  1  0  0  0  0
  6 20  1  0  0  0  0
  7 10  2  0  0  0  0
  7 19  1  0  0  0  0
  8 24  1  0  0  0  0
  9 24  2  0  0  0  0
 10 25  1  0  0  0  0
 11 12  2  0  0  0  0
 11 26  1  0  0  0  0
 12 27  1  0  0  0  0
 13 21  1  0  0  0  0
 13 25  2  0  0  0  0
 14 22  2  0  0  0  0
 14 30  1  0  0  0  0
 15 27  2  0  0  0  0
 15 28  1  0  0  0  0
 16 29  1  0  0  0  0
 17 29  1  0  0  0  0
 17 32  2  0  0  0  0
 17 33  1  0  0  0  0
 18 20  2  0  0  0  0
 18 38  1  0  0  0  0
 19 21  2  0  0  0  0
 19 39  1  0  0  0  0
 20 47  1  0  0  0  0
 21 40  1  0  0  0  0
 22 23  1  0  0  0  0
 22 50  1  0  0  0  0
 23 31  2  0  0  0  0
 23 51  1  0  0  0  0
 24 81  1  0  0  0  0
 25 82  1  0  0  0  0
 26 28  2  0  0  0  0
 26 81  1  0  0  0  0
 27 83  1  0  0  0  0
 28 84  1  0  0  0  0
 29 65  2  0  0  0  0
 30 57  1  0  0  0  0
 30 66  2  0  0  0  0
 31 58  1  0  0  0  0
 31 66  1  0  0  0  0
 32 67  1  0  0  0  0
 32 70  1  0  0  0  0
 33 71  1  0  0  0  0
 33 76  2  0  0  0  0
 34 48  1  0  0  0  0
 34 72  1  0  0  0  0
 34 77  2  0  0  0  0
 35 62  1  0  0  0  0
 35 68  1  0  0  0  0
 35 78  2  0  0  0  0
 36 63  1  0  0  0  0
 36 73  1  0  0  0  0
 36 79  2  0  0  0  0
 37 69  1  0  0  0  0
 37 74  1  0  0  0  0
 37 80  2  0  0  0  0
 38 41  1  0  0  0  0
 39 48  1  0  0  0  0
 40 68  1  0  0  0  0
 41 43  1  0  0  0  0
 42 44  1  0  0  0  0
 42 45  1  0  0  0  0
 43 47  1  0  0  0  0
 44 49  1  0  0  0  0
 45 69  1  0  0  0  0
 46 49  1  0  0  0  0
 46 69  1  0  0  0  0
 47 72  1  0  0  0  0
 48 68  1  0  0  0  0
 49 67  1  0  0  0  0
 52 63  1  0  0  0  0
 53 64  1  0  0  0  0
 54 64  1  0  0  0  0
 55 64  1  0  0  0  0
 56 75  1  0  0  0  0
 57 61  1  0  0  0  0
 58 59  1  0  0  0  0
 59 60  1  0  0  0  0
 60 74  1  0  0  0  0
 61 82  1  0  0  0  0
 62 64  1  0  0  0  0
 62 73  1  0  0  0  0
 63 75  1  0  0  0  0
 65 67  1  0  0  0  0
M  CHG  1  75   1
M  ISO  4  37 100  61 101  74 100  82 101
M  END
> <Batch ID>
0034

> <Smiles>
CNC(C)C(=O)NC(C(=O)N1Cc2cc([101O:1][101CH2:1]Cc3cc(C)c(C)c(CCC[100NH:0][100C:0](=O)N4CCCC(n5nc(-c6ccc(Oc7ccc(F)cc7F)cc6)c(C(N)=O)c5N)C4)n3)ccc2CC1C(=O)NC1CCCc2ccccc21)C(C)(C)C

> <Shape>
0.195

> <Color>
0.075

> <Negative vol penalty>
0.000

$$$$

  -OEChem-04052316503D

 90 98  0     1  0  0  0  0  0999 V2000
  -31.4190  -16.4669   15.8241 C   0  0  0  0  0  0  0  0  0  0  0  0
  -30.8093  -16.7305   17.0465 C   0  0  0  0  0  0  0  0  0  0  0  0
  -23.0960   -9.8702   19.8586 C   0  0  0  0  0  0  0  0  0  0  0  0
  -23.8996   -9.7451   22.1336 C   0  0  0  0  0  0  0  0  0  0  0  0
  -32.4235  -17.3101   15.3512 C   0  0  0  0  0  0  0  0  0  0  0  0
  -31.2047  -17.8370   17.7972 C   0  0  0  0  0  0  0  0  0  0  0  0
  -27.2717  -20.4280   19.6582 C   0  0  0  0  0  0  0  0  0  0  0  0
  -22.3862   -8.6840   20.0440 C   0  0  0  0  0  0  0  0  0  0  0  0
  -23.1897   -8.5588   22.3191 C   0  0  0  0  0  0  0  0  0  0  0  0
  -26.6368  -19.9014   20.7821 C   0  0  0  0  0  0  0  0  0  0  0  0
  -21.3000   -5.6879   23.5046 C   0  0  0  0  0  0  0  0  0  0  0  0
  -20.5678   -5.5470   24.6834 C   0  0  0  0  0  0  0  0  0  0  0  0
  -27.8451  -21.4498   22.1827 C   0  0  0  0  0  0  0  0  0  0  0  0
  -30.0212  -18.1368   26.0686 C   0  0  0  0  0  0  0  0  0  0  0  0
  -28.4007  -17.1116   24.5989 C   0  0  0  0  0  0  0  0  0  0  0  0
  -19.2613   -7.4952   24.1049 C   0  0  0  0  0  0  0  0  0  0  0  0
  -23.8528  -10.4008   20.9034 C   0  0  0  0  0  0  0  0  0  0  0  0
  -24.1290  -12.9365   20.9462 C   0  0  0  0  0  0  0  0  0  0  0  0
  -32.8248  -18.4330   16.0920 C   0  0  0  0  0  0  0  0  0  0  0  0
  -28.2078  -21.4639   19.7894 C   0  0  0  0  0  0  0  0  0  0  0  0
  -32.2166  -18.6954   17.3344 C   0  0  0  0  0  0  0  0  0  0  0  0
  -28.4886  -21.9895   21.0586 C   0  0  0  0  0  0  0  0  0  0  0  0
  -29.6978  -17.1789   25.1076 C   0  0  0  0  0  0  0  0  0  0  0  0
  -29.0475  -19.0274   26.5209 C   0  0  0  0  0  0  0  0  0  0  0  0
  -27.4270  -18.0021   25.0512 C   0  0  0  0  0  0  0  0  0  0  0  0
  -27.7504  -18.9600   26.0122 C   0  0  0  0  0  0  0  0  0  0  0  0
  -22.4330   -8.0282   21.2743 C   0  0  0  0  0  0  0  0  0  0  0  0
  -26.9255  -20.4103   22.0449 C   0  0  0  0  0  0  0  0  0  0  0  0
  -21.0130   -6.7326   22.6260 C   0  0  0  0  0  0  0  0  0  0  0  0
  -19.5485   -6.4505   24.9836 C   0  0  0  0  0  0  0  0  0  0  0  0
  -19.9936   -7.6362   22.9261 C   0  0  0  0  0  0  0  0  0  0  0  0
  -24.5867  -11.6259   20.7122 C   0  0  0  0  0  0  0  0  0  0  0  0
  -25.1949  -13.7368   20.6147 C   0  0  0  0  0  0  0  0  0  0  0  0
  -22.8543  -13.3898   21.4210 C   0  0  0  0  0  0  0  0  0  0  0  0
  -31.3041  -21.7840   19.1457 C   0  0  0  0  0  0  0  0  0  0  0  0
  -30.7594  -24.8714   19.9784 C   0  0  0  0  0  0  0  0  0  0  0  0
  -28.8475  -27.1138   21.6998 C   0  0  0  0  0  0  0  0  0  0  0  0
  -30.6540  -14.8846   20.7741 C   0  0  0  0  0  0  0  0  0  0  0  0
  -33.9478  -19.2889   15.5620 C   0  0  0  0  0  0  0  0  0  0  0  0
  -28.8642  -22.0391   18.5644 C   0  0  0  0  0  0  0  0  0  0  0  0
  -29.4707  -23.1151   21.2512 C   0  0  0  0  0  0  0  0  0  0  0  0
  -34.0484  -20.6516   16.2425 C   0  0  0  0  0  0  0  0  0  0  0  0
  -29.5305  -12.6346   18.2538 C   0  0  0  0  0  0  0  0  0  0  0  0
  -33.9511  -20.5004   17.7573 C   0  0  0  0  0  0  0  0  0  0  0  0
  -28.1095  -12.2752   18.6914 C   0  0  0  0  0  0  0  0  0  0  0  0
  -30.4649  -12.7992   19.4505 C   0  0  0  0  0  0  0  0  0  0  0  0
  -28.5726  -13.3866   20.9160 C   0  0  0  0  0  0  0  0  0  0  0  0
  -32.6007  -19.8998   18.1662 C   0  0  1  0  0  0  0  0  0  0  0  0
  -30.1824  -22.7444   18.8683 C   0  0  1  0  0  0  0  0  0  0  0  0
  -27.5805  -13.2650   19.7467 C   0  0  2  0  0  0  0  0  0  0  0  0
  -26.1727  -19.5356   27.8739 C   0  0  0  0  0  0  0  0  0  0  0  0
  -28.6719  -29.5623   22.2206 C   0  0  0  0  0  0  0  0  0  0  0  0
  -32.4884  -23.8041   29.0190 C   0  0  0  0  0  0  0  0  0  0  0  0
  -31.8503  -23.6783   26.6029 C   0  0  0  0  0  0  0  0  0  0  0  0
  -33.0659  -24.6131   21.9592 C   0  0  0  0  0  0  0  0  0  0  0  0
  -32.2423  -26.6934   23.0826 C   0  0  0  0  0  0  0  0  0  0  0  0
  -33.0025  -26.7777   20.7083 C   0  0  0  0  0  0  0  0  0  0  0  0
  -26.1829  -27.3118   20.4270 C   0  0  0  0  0  0  0  0  0  0  0  0
  -30.7386  -16.2264   24.6246 C   0  0  0  0  0  0  0  0  0  0  0  0
  -29.4199  -20.0445   27.5497 C   0  0  0  0  0  0  0  0  0  0  0  0
  -26.0311  -17.9083   24.4846 C   0  0  0  0  0  0  0  0  0  0  0  0
  -26.7068  -19.9153   26.4970 C   0  0  0  0  0  0  0  0  0  0  0  0
  -31.5361  -16.7192   23.4009 C   0  0  0  0  0  0  0  0  0  0  0  0
  -30.5986  -20.9492   27.1466 C   0  0  0  0  0  0  0  0  0  0  0  0
  -30.9969  -21.9318   28.2553 C   0  0  0  0  0  0  0  0  0  0  0  0
  -30.6899  -16.9494   22.1505 C   0  0  0  0  0  0  0  0  0  0  0  0
  -25.9276  -18.5231   23.0931 C   0  0  0  0  0  0  0  0  0  1  0  0
  -30.8072  -25.6553   21.2677 C   0  0  1  0  0  0  0  0  0  0  0  0
  -28.2370  -28.4416   21.2891 C   0  0  2  0  0  0  0  0  0  0  0  0
  -32.1592  -22.8617   27.8585 C   0  0  0  0  0  0  0  0  0  0  0  0
  -32.2624  -25.9124   21.7514 C   0  0  0  0  0  0  0  0  0  0  0  0
  -25.8453  -11.5912   20.2663 N   0  0  0  0  0  0  0  0  0  0  0  0
  -26.1874  -12.8899   20.2174 N   0  0  0  0  0  0  0  0  0  0  0  0
  -30.0912  -23.6396   20.0235 N   0  0  0  0  0  0  0  0  0  0  0  0
  -29.9060  -13.7520   20.4127 N   0  0  0  0  0  0  0  0  0  0  0  0
  -25.3705  -15.0752   20.6270 N   0  0  0  0  0  0  0  0  0  0  0  0
  -21.8722  -12.4341   21.7145 N   0  0  0  0  0  0  0  0  0  0  0  0
  -31.5622  -20.9062   18.1102 N   0  0  0  0  0  0  0  0  0  0  0  0
  -30.0313  -26.8689   21.0365 N   0  0  0  0  0  0  0  0  0  0  0  0
  -30.0482  -15.7395   21.6867 N   0  0  0  0  0  0  0  0  0  0  0  0
  -26.7493  -28.3583   21.3165 N   0  3  0  0  0  0  0  0  0  0  0  0
  -22.5885  -14.6073   21.5645 O   0  0  0  0  0  0  0  0  0  0  0  0
  -31.8928  -21.8364   20.2192 O   0  0  0  0  0  0  0  0  0  0  0  0
  -31.2890  -25.3382   18.9669 O   0  0  0  0  0  0  0  0  0  0  0  0
  -28.3282  -26.3700   22.5291 O   0  0  0  0  0  0  0  0  0  0  0  0
  -31.7763  -15.1195   20.3133 O   0  0  0  0  0  0  0  0  0  0  0  0
  -21.7403   -6.8707   21.4557 O   0  0  0  0  0  0  0  0  0  0  0  0
  -26.3077  -19.8977   23.1437 O   0  0  0  0  0  0  0  0  0  1  0  0
  -18.8444   -6.3141   26.1149 F   0  0  0  0  0  0  0  0  0  0  0  0
  -19.7124   -8.6410   22.0853 F   0  0  0  0  0  0  0  0  0  0  0  0
  1  2  1  0  0  0  0
  1  5  2  0  0  0  0
  2  6  2  0  0  0  0
  3  8  2  0  0  0  0
  3 17  1  0  0  0  0
  4  9  1  0  0  0  0
  4 17  2  0  0  0  0
  5 19  1  0  0  0  0
  6 21  1  0  0  0  0
  7 10  2  0  0  0  0
  7 20  1  0  0  0  0
  8 27  1  0  0  0  0
  9 27  2  0  0  0  0
 10 28  1  0  0  0  0
 11 12  2  0  0  0  0
 11 29  1  0  0  0  0
 12 30  1  0  0  0  0
 13 22  1  0  0  0  0
 13 28  2  0  0  0  0
 14 23  1  0  0  0  0
 14 24  2  0  0  0  0
 15 23  2  0  0  0  0
 15 25  1  0  0  0  0
 16 30  2  0  0  0  0
 16 31  1  0  0  0  0
 17 32  1  0  0  0  0
 18 32  1  0  0  0  0
 18 33  2  0  0  0  0
 18 34  1  0  0  0  0
 19 21  2  0  0  0  0
 19 39  1  0  0  0  0
 20 22  2  0  0  0  0
 20 40  1  0  0  0  0
 21 48  1  0  0  0  0
 22 41  1  0  0  0  0
 23 59  1  0  0  0  0
 24 26  1  0  0  0  0
 24 60  1  0  0  0  0
 25 26  2  0  0  0  0
 25 61  1  0  0  0  0
 26 62  1  0  0  0  0
 27 87  1  0  0  0  0
 28 88  1  0  0  0  0
 29 31  2  0  0  0  0
 29 87  1  0  0  0  0
 30 89  1  0  0  0  0
 31 90  1  0  0  0  0
 32 72  2  0  0  0  0
 33 73  1  0  0  0  0
 33 76  1  0  0  0  0
 34 77  1  0  0  0  0
 34 82  2  0  0  0  0
 35 49  1  0  0  0  0
 35 78  1  0  0  0  0
 35 83  2  0  0  0  0
 36 68  1  0  0  0  0
 36 74  1  0  0  0  0
 36 84  2  0  0  0  0
 37 69  1  0  0  0  0
 37 79  1  0  0  0  0
 37 85  2  0  0  0  0
 38 75  1  0  0  0  0
 38 80  1  0  0  0  0
 38 86  2  0  0  0  0
 39 42  1  0  0  0  0
 40 49  1  0  0  0  0
 41 74  1  0  0  0  0
 42 44  1  0  0  0  0
 43 45  1  0  0  0  0
 43 46  1  0  0  0  0
 44 48  1  0  0  0  0
 45 50  1  0  0  0  0
 46 75  1  0  0  0  0
 47 50  1  0  0  0  0
 47 75  1  0  0  0  0
 48 78  1  0  0  0  0
 49 74  1  0  0  0  0
 50 73  1  0  0  0  0
 51 62  1  0  0  0  0
 52 69  1  0  0  0  0
 53 70  1  0  0  0  0
 54 70  1  0  0  0  0
 55 71  1  0  0  0  0
 56 71  1  0  0  0  0
 57 71  1  0  0  0  0
 58 81  1  0  0  0  0
 59 63  1  0  0  0  0
 60 64  1  0  0  0  0
 61 67  1  0  0  0  0
 63 66  1  0  0  0  0
 64 65  1  0  0  0  0
 65 70  1  0  0  0  0
 66 80  1  0  0  0  0
 67 88  1  0  0  0  0
 68 71  1  0  0  0  0
 68 79  1  0  0  0  0
 69 81  1  0  0  0  0
 72 73  1  0  0  0  0
M  CHG  1  81   1
M  ISO  4  38 100  67 101  80 100  88 101
M  END
> <Batch ID>
0034

> <Smiles>
CCc1c(CCCC(C)C)cc(CCC[100NH:0][100C:0](=O)N2CCCC(n3nc(-c4ccc(Oc5ccc(F)cc5F)cc4)c(C(N)=O)c3N)C2)cc1C[101CH2:1][101O:1]c1ccc2c(c1)CN(C(=O)C(NC(=O)C(C)NC)C(C)(C)C)C(C(=O)NC1CCCc3ccccc31)C2

> <Shape>
0.258

> <Color>
0.194

> <Negative vol penalty>
0.000

$$$$

  -OEChem-04052316503D

 81 89  0     1  0  0  0  0  0999 V2000
  -26.7683  -33.0532   17.9517 C   0  0  0  0  0  0  0  0  0  0  0  0
  -27.3346  -31.9022   18.4902 C   0  0  0  0  0  0  0  0  0  0  0  0
  -23.0842   -9.8571   19.9348 C   0  0  0  0  0  0  0  0  0  0  0  0
  -23.8528   -9.8573   22.2253 C   0  0  0  0  0  0  0  0  0  0  0  0
  -25.9219  -32.9613   16.8475 C   0  0  0  0  0  0  0  0  0  0  0  0
  -27.0540  -30.6585   17.9255 C   0  0  0  0  0  0  0  0  0  0  0  0
  -30.8522  -25.8748   17.4830 C   0  0  0  0  0  0  0  0  0  0  0  0
  -22.3522   -8.6955   20.1805 C   0  0  0  0  0  0  0  0  0  0  0  0
  -23.1207   -8.6957   22.4710 C   0  0  0  0  0  0  0  0  0  0  0  0
  -31.0018  -24.7216   18.2520 C   0  0  0  0  0  0  0  0  0  0  0  0
  -19.9026   -7.8638   23.0808 C   0  0  0  0  0  0  0  0  0  0  0  0
  -19.1505   -7.8096   24.2543 C   0  0  0  0  0  0  0  0  0  0  0  0
  -29.5953  -23.5160   16.7069 C   0  0  0  0  0  0  0  0  0  0  0  0
  -31.5440  -18.4353   20.0685 C   0  0  0  0  0  0  0  0  0  0  0  0
  -29.0800  -19.7417   20.0029 C   0  0  0  0  0  0  0  0  0  0  0  0
  -20.4129   -5.8794   24.9741 C   0  0  0  0  0  0  0  0  0  0  0  0
  -23.8346  -10.4380   20.9572 C   0  0  0  0  0  0  0  0  0  0  0  0
  -24.1521  -12.9670   20.8514 C   0  0  0  0  0  0  0  0  0  0  0  0
  -25.6384  -31.7168   16.2631 C   0  0  0  0  0  0  0  0  0  0  0  0
  -30.0629  -25.8600   16.3240 C   0  0  0  0  0  0  0  0  0  0  0  0
  -26.2020  -30.5498   16.8133 C   0  0  0  0  0  0  0  0  0  0  0  0
  -29.4394  -24.6697   15.9234 C   0  0  0  0  0  0  0  0  0  0  0  0
  -31.3283  -19.4721   19.1607 C   0  0  0  0  0  0  0  0  0  0  0  0
  -30.5277  -18.0516   20.9434 C   0  0  0  0  0  0  0  0  0  0  0  0
  -30.0963  -20.1254   19.1279 C   0  0  0  0  0  0  0  0  0  0  0  0
  -22.3704   -8.1148   21.4486 C   0  0  0  0  0  0  0  0  0  0  0  0
  -30.3710  -23.5427   17.8656 C   0  0  0  0  0  0  0  0  0  0  0  0
  -20.9098   -6.9258   22.8539 C   0  0  0  0  0  0  0  0  0  0  0  0
  -19.4057   -6.8174   25.2010 C   0  0  0  0  0  0  0  0  0  0  0  0
  -29.2957  -18.7049   20.9107 C   0  0  0  0  0  0  0  0  0  0  0  0
  -21.1649   -5.9337   23.8006 C   0  0  0  0  0  0  0  0  0  0  0  0
  -24.5914  -11.6376   20.7039 C   0  0  0  0  0  0  0  0  0  0  0  0
  -25.2358  -13.7289   20.4886 C   0  0  0  0  0  0  0  0  0  0  0  0
  -22.8785  -13.4682   21.2783 C   0  0  0  0  0  0  0  0  0  0  0  0
  -27.4283  -27.3704   15.3849 C   0  0  0  0  0  0  0  0  0  0  0  0
  -28.0406  -25.8730   12.5733 C   0  0  0  0  0  0  0  0  0  0  0  0
  -29.5256  -23.2702   10.9403 C   0  0  0  0  0  0  0  0  0  0  0  0
  -30.7104  -14.7985   20.6625 C   0  0  0  0  0  0  0  0  0  0  0  0
  -24.6801  -31.6626   15.0997 C   0  0  0  0  0  0  0  0  0  0  0  0
  -29.9333  -27.1056   15.4908 C   0  0  0  0  0  0  0  0  0  0  0  0
  -28.5977  -24.5960   14.6766 C   0  0  0  0  0  0  0  0  0  0  0  0
  -24.7310  -30.3457   14.3295 C   0  0  0  0  0  0  0  0  0  0  0  0
  -29.5861  -12.4180   18.2654 C   0  0  0  0  0  0  0  0  0  0  0  0
  -24.7154  -29.1629   15.2927 C   0  0  0  0  0  0  0  0  0  0  0  0
  -28.1532  -12.1081   18.7020 C   0  0  0  0  0  0  0  0  0  0  0  0
  -30.5057  -12.6401   19.4642 C   0  0  0  0  0  0  0  0  0  0  0  0
  -28.6025  -13.3447   20.8624 C   0  0  0  0  0  0  0  0  0  0  0  0
  -25.9413  -29.1851   16.2135 C   0  0  1  0  0  0  0  0  0  0  0  0
  -28.6881  -27.1079   14.6093 C   0  0  1  0  0  0  0  0  0  0  0  0
  -27.6255  -13.1681   19.6874 C   0  0  2  0  0  0  0  0  0  0  0  0
  -32.4319  -19.8658   18.2346 C   0  0  0  0  0  0  0  0  0  0  0  0
  -29.8188  -22.2931    8.6475 C   0  0  0  0  0  0  0  0  0  0  0  0
  -25.1894  -24.7909   12.6725 C   0  0  0  0  0  0  0  0  0  0  0  0
  -25.8393  -23.1147   10.9300 C   0  0  0  0  0  0  0  0  0  0  0  0
  -25.9380  -25.5526   10.4112 C   0  0  0  0  0  0  0  0  0  0  0  0
  -32.4656  -23.5906   11.0531 C   0  0  0  0  0  0  0  0  0  0  0  0
  -30.7607  -16.9420   21.9123 C   0  0  0  0  0  0  0  0  0  0  0  0
  -29.8405  -21.2432   18.1603 C   0  0  0  0  0  0  0  0  0  1  0  0
  -27.6600  -24.5452   11.9641 C   0  0  1  0  0  0  0  0  0  0  0  0
  -30.3986  -23.2262    9.6991 C   0  0  2  0  0  0  0  0  0  0  0  0
  -26.1709  -24.5024   11.5191 C   0  0  0  0  0  0  0  0  0  0  0  0
  -25.8555  -11.5563   20.2802 N   0  0  0  0  0  0  0  0  0  0  0  0
  -26.2198  -12.8441   20.1584 N   0  0  0  0  0  0  0  0  0  0  0  0
  -28.4962  -25.8419   13.8989 N   0  0  0  0  0  0  0  0  0  0  0  0
  -29.9489  -13.6579   20.3585 N   0  0  0  0  0  0  0  0  0  0  0  0
  -25.4334  -15.0627   20.4230 N   0  0  0  0  0  0  0  0  0  0  0  0
  -21.8765  -12.5475   21.6138 N   0  0  0  0  0  0  0  0  0  0  0  0
  -27.1121  -28.7099   15.5078 N   0  0  0  0  0  0  0  0  0  0  0  0
  -28.6130  -24.3024   10.8865 N   0  0  0  0  0  0  0  0  0  0  0  0
  -30.1058  -15.7165   21.5125 N   0  0  0  0  0  0  0  0  0  0  0  0
  -31.7680  -22.7510   10.0455 N   0  3  0  0  0  0  0  0  0  0  0  0
  -22.6309  -14.6962   21.3441 O   0  0  0  0  0  0  0  0  0  0  0  0
  -26.7896  -26.4273   15.8371 O   0  0  0  0  0  0  0  0  0  0  0  0
  -27.9441  -26.8991   11.8955 O   0  0  0  0  0  0  0  0  0  0  0  0
  -29.6393  -22.4668   11.8634 O   0  0  0  0  0  0  0  0  0  0  0  0
  -31.8429  -14.9874   20.2056 O   0  0  0  0  0  0  0  0  0  0  0  0
  -21.6560   -6.9814   21.6887 O   0  0  0  0  0  0  0  0  0  0  0  0
  -30.5148  -22.4158   18.6149 O   0  0  0  0  0  0  0  0  0  1  0  0
  -18.6845   -6.7664   26.3285 F   0  0  0  0  0  0  0  0  0  0  0  0
  -28.3130  -18.3432   21.7475 F   0  0  0  0  0  0  0  0  0  0  0  0
  -22.1320   -5.0305   23.5887 F   0  0  0  0  0  0  0  0  0  0  0  0
  1  2  1  0  0  0  0
  1  5  2  0  0  0  0
  2  6  2  0  0  0  0
  3  8  2  0  0  0  0
  3 17  1  0  0  0  0
  4  9  1  0  0  0  0
  4 17  2  0  0  0  0
  5 19  1  0  0  0  0
  6 21  1  0  0  0  0
  7 10  2  0  0  0  0
  7 20  1  0  0  0  0
  8 26  1  0  0  0  0
  9 26  2  0  0  0  0
 10 27  1  0  0  0  0
 11 12  2  0  0  0  0
 11 28  1  0  0  0  0
 12 29  1  0  0  0  0
 13 22  1  0  0  0  0
 13 27  2  0  0  0  0
 14 23  1  0  0  0  0
 14 24  2  0  0  0  0
 15 25  1  0  0  0  0
 15 30  2  0  0  0  0
 16 29  2  0  0  0  0
 16 31  1  0  0  0  0
 17 32  1  0  0  0  0
 18 32  1  0  0  0  0
 18 33  2  0  0  0  0
 18 34  1  0  0  0  0
 19 21  2  0  0  0  0
 19 39  1  0  0  0  0
 20 22  2  0  0  0  0
 20 40  1  0  0  0  0
 21 48  1  0  0  0  0
 22 41  1  0  0  0  0
 23 25  2  0  0  0  0
 23 51  1  0  0  0  0
 24 30  1  0  0  0  0
 24 57  1  0  0  0  0
 25 58  1  0  0  0  0
 26 77  1  0  0  0  0
 27 78  1  0  0  0  0
 28 31  2  0  0  0  0
 28 77  1  0  0  0  0
 29 79  1  0  0  0  0
 30 80  1  0  0  0  0
 31 81  1  0  0  0  0
 32 62  2  0  0  0  0
 33 63  1  0  0  0  0
 33 66  1  0  0  0  0
 34 67  1  0  0  0  0
 34 72  2  0  0  0  0
 35 49  1  0  0  0  0
 35 68  1  0  0  0  0
 35 73  2  0  0  0  0
 36 59  1  0  0  0  0
 36 64  1  0  0  0  0
 36 74  2  0  0  0  0
 37 60  1  0  0  0  0
 37 69  1  0  0  0  0
 37 75  2  0  0  0  0
 38 65  1  0  0  0  0
 38 70  1  0  0  0  0
 38 76  2  0  0  0  0
 39 42  1  0  0  0  0
 40 49  1  0  0  0  0
 41 64  1  0  0  0  0
 42 44  1  0  0  0  0
 43 45  1  0  0  0  0
 43 46  1  0  0  0  0
 44 48  1  0  0  0  0
 45 50  1  0  0  0  0
 46 65  1  0  0  0  0
 47 50  1  0  0  0  0
 47 65  1  0  0  0  0
 48 68  1  0  0  0  0
 49 64  1  0  0  0  0
 50 63  1  0  0  0  0
 52 60  1  0  0  0  0
 53 61  1  0  0  0  0
 54 61  1  0  0  0  0
 55 61  1  0  0  0  0
 56 71  1  0  0  0  0
 57 70  1  0  0  0  0
 58 78  1  0  0  0  0
 59 61  1  0  0  0  0
 59 69  1  0  0  0  0
 60 71  1  0  0  0  0
 62 63  1  0  0  0  0
M  CHG  1  71   1
M  ISO  4  38 100  58 101  70 100  78 101
M  END
> <Batch ID>
0034

> <Smiles>
CNC(C)C(=O)NC(C(=O)N1Cc2cc([101O:1][101CH2:1]c3cc(F)c(C[100NH:0][100C:0](=O)N4CCCC(n5nc(-c6ccc(Oc7ccc(F)cc7F)cc6)c(C(N)=O)c5N)C4)cc3C)ccc2CC1C(=O)NC1CCCc2ccccc21)C(C)(C)C

> <Shape>
0.227

> <Color>
0.201

> <Negative vol penalty>
0.000

$$$$

  -OEChem-04052316503D

 85 93  0     1  0  0  0  0  0999 V2000
  -20.4599  -21.1291   18.9521 C   0  0  0  0  0  0  0  0  0  0  0  0
  -20.7024  -22.4593   19.2795 C   0  0  0  0  0  0  0  0  0  0  0  0
  -26.3797  -12.9113   21.5228 C   0  0  0  0  0  0  0  0  0  0  0  0
  -24.8192  -14.5409   20.6592 C   0  0  0  0  0  0  0  0  0  0  0  0
  -21.4092  -20.1537   19.2542 C   0  0  0  0  0  0  0  0  0  0  0  0
  -21.8941  -22.8147   19.9103 C   0  0  0  0  0  0  0  0  0  0  0  0
  -25.0581  -28.0025   19.1477 C   0  0  0  0  0  0  0  0  0  0  0  0
  -25.6417  -11.8887   20.9269 C   0  0  0  0  0  0  0  0  0  0  0  0
  -24.0811  -13.5183   20.0633 C   0  0  0  0  0  0  0  0  0  0  0  0
  -25.1181  -29.1821   19.8885 C   0  0  0  0  0  0  0  0  0  0  0  0
  -22.8022  -10.1696   21.5646 C   0  0  0  0  0  0  0  0  0  0  0  0
  -22.5424   -9.0303   22.3262 C   0  0  0  0  0  0  0  0  0  0  0  0
  -27.0840  -28.3635   21.0216 C   0  0  0  0  0  0  0  0  0  0  0  0
  -23.7068   -7.6767   20.6986 C   0  0  0  0  0  0  0  0  0  0  0  0
  -25.9685  -14.2374   21.3891 C   0  0  0  0  0  0  0  0  0  0  0  0
  -27.7974  -16.0152   21.4366 C   0  0  0  0  0  0  0  0  0  0  0  0
  -22.6174  -20.4988   19.8803 C   0  0  0  0  0  0  0  0  0  0  0  0
  -26.0059  -26.9883   19.3465 C   0  0  0  0  0  0  0  0  0  0  0  0
  -22.8600  -21.8429   20.2223 C   0  0  0  0  0  0  0  0  0  0  0  0
  -27.0354  -27.1731   20.2803 C   0  0  0  0  0  0  0  0  0  0  0  0
  -24.4924  -12.1922   20.1971 C   0  0  0  0  0  0  0  0  0  0  0  0
  -26.1294  -29.3616   20.8276 C   0  0  0  0  0  0  0  0  0  0  0  0
  -23.5143  -10.0625   20.3699 C   0  0  0  0  0  0  0  0  0  0  0  0
  -22.9948   -7.7839   21.8932 C   0  0  0  0  0  0  0  0  0  0  0  0
  -23.9666   -8.8160   19.9369 C   0  0  0  0  0  0  0  0  0  0  0  0
  -26.7302  -15.2942   22.0049 C   0  0  0  0  0  0  0  0  0  0  0  0
  -28.1758  -16.8988   22.4177 C   0  0  0  0  0  0  0  0  0  0  0  0
  -26.2742  -29.5793   26.0168 C   0  0  0  0  0  0  0  0  0  0  0  0
  -25.3145  -30.8890   24.3049 C   0  0  0  0  0  0  0  0  0  0  0  0
  -28.3933  -15.8970   20.1379 C   0  0  0  0  0  0  0  0  0  0  0  0
  -25.8846  -23.9633   20.3152 C   0  0  0  0  0  0  0  0  0  0  0  0
  -29.0346  -23.9972   19.5417 C   0  0  0  0  0  0  0  0  0  0  0  0
  -31.8824  -25.8176   19.0690 C   0  0  0  0  0  0  0  0  0  0  0  0
  -25.8905  -20.1543   26.6241 C   0  0  0  0  0  0  0  0  0  0  0  0
  -23.5928  -19.4028   20.2297 C   0  0  0  0  0  0  0  0  0  0  0  0
  -25.9431  -25.7329   18.5204 C   0  0  0  0  0  0  0  0  0  0  0  0
  -28.0891  -26.1233   20.5171 C   0  0  0  0  0  0  0  0  0  0  0  0
  -24.9920  -19.9155   20.5608 C   0  0  0  0  0  0  0  0  0  0  0  0
  -27.6032  -17.1123   27.3237 C   0  0  0  0  0  0  0  0  0  0  0  0
  -24.9136  -21.1009   21.5176 C   0  0  0  0  0  0  0  0  0  0  0  0
  -27.6519  -16.4004   25.9707 C   0  0  0  0  0  0  0  0  0  0  0  0
  -26.2951  -17.8775   27.5121 C   0  0  0  0  0  0  0  0  0  0  0  0
  -26.0171  -18.1100   25.0744 C   0  0  0  0  0  0  0  0  0  0  0  0
  -24.1514  -22.2713   20.8847 C   0  0  1  0  0  0  0  0  0  0  0  0
  -26.6592  -24.5532   19.1708 C   0  0  1  0  0  0  0  0  0  0  0  0
  -27.3408  -17.3705   24.8151 C   0  0  2  0  0  0  0  0  0  0  0  0
  -34.3080  -25.5627   18.4786 C   0  0  0  0  0  0  0  0  0  0  0  0
  -29.6080  -22.9630   22.3544 C   0  0  0  0  0  0  0  0  0  0  0  0
  -32.0009  -23.6267   22.0354 C   0  0  0  0  0  0  0  0  0  0  0  0
  -30.9789  -21.9005   20.5526 C   0  0  0  0  0  0  0  0  0  0  0  0
  -31.5874  -27.4884   16.6441 C   0  0  0  0  0  0  0  0  0  0  0  0
  -27.1629  -28.9359   27.0054 C   0  0  0  0  0  0  0  0  0  0  0  0
  -25.0287  -31.8601   23.1852 C   0  0  0  0  0  0  0  0  0  0  0  0
  -27.2352  -27.3943   26.9067 C   0  0  0  0  0  0  0  0  0  0  0  0
  -27.8067  -26.9190   25.5663 C   0  0  0  0  0  0  0  0  0  0  0  0
  -27.9458  -25.3962   25.4726 C   0  0  0  0  0  0  0  0  0  0  0  0
  -26.6075  -24.6579   25.5584 C   0  0  0  0  0  0  0  0  0  0  0  0
  -26.8080  -23.1403   25.4881 C   0  0  0  0  0  0  0  0  0  0  0  0
  -25.4933  -22.3723   25.5838 C   0  0  0  0  0  0  0  0  0  0  0  0
  -24.9551  -31.1726   21.8261 C   0  0  0  0  0  0  0  0  0  1  0  0
  -30.3124  -24.3237   20.2764 C   0  0  1  0  0  0  0  0  0  0  0  0
  -32.9054  -25.8143   17.9475 C   0  0  2  0  0  0  0  0  0  0  0  0
  -30.7042  -23.2226   21.3019 C   0  0  0  0  0  0  0  0  0  0  0  0
  -26.4488  -15.6856   23.2505 N   0  0  0  0  0  0  0  0  0  0  0  0
  -24.9972  -29.3071   25.8521 N   0  0  0  0  0  0  0  0  0  0  0  0
  -24.4345  -30.0746   24.8473 N   0  0  0  0  0  0  0  0  0  0  0  0
  -27.3448  -16.6622   23.4731 N   0  0  0  0  0  0  0  0  0  0  0  0
  -27.9812  -24.9106   19.6892 N   0  0  0  0  0  0  0  0  0  0  0  0
  -26.0600  -18.7809   26.3832 N   0  0  0  0  0  0  0  0  0  0  0  0
  -29.1350  -17.8471   22.4721 N   0  0  0  0  0  0  0  0  0  0  0  0
  -27.8822  -14.9377   19.2531 N   0  0  0  0  0  0  0  0  0  0  0  0
  -24.9957  -22.9734   19.9419 N   0  0  0  0  0  0  0  0  0  0  0  0
  -31.3206  -24.5716   19.2515 N   0  0  0  0  0  0  0  0  0  0  0  0
  -25.6786  -20.9408   25.4983 N   0  0  0  0  0  0  0  0  0  0  0  0
  -32.8998  -27.1246   17.2374 N   0  3  0  0  0  0  0  0  0  0  0  0
  -29.3613  -16.6095   19.7788 O   0  0  0  0  0  0  0  0  0  0  0  0
  -26.0800  -24.3747   21.4528 O   0  0  0  0  0  0  0  0  0  0  0  0
  -28.9758  -22.9733   18.8563 O   0  0  0  0  0  0  0  0  0  0  0  0
  -31.6116  -26.8238   19.7207 O   0  0  0  0  0  0  0  0  0  0  0  0
  -25.9307  -20.6442   27.7578 O   0  0  0  0  0  0  0  0  0  0  0  0
  -23.7720  -11.1946   19.6153 O   0  0  0  0  0  0  0  0  0  0  0  0
  -26.1899  -30.5117   21.5525 O   0  0  0  0  0  0  0  0  0  1  0  0
  -22.7465   -6.6901   22.6255 F   0  0  0  0  0  0  0  0  0  0  0  0
  -24.6522   -8.7070   18.7907 F   0  0  0  0  0  0  0  0  0  0  0  0
  -26.8925  -30.7882   24.9689 S   0  0  0  0  0  0  0  0  0  0  0  0
  1  2  1  0  0  0  0
  1  5  2  0  0  0  0
  2  6  2  0  0  0  0
  3  8  2  0  0  0  0
  3 15  1  0  0  0  0
  4  9  1  0  0  0  0
  4 15  2  0  0  0  0
  5 17  1  0  0  0  0
  6 19  1  0  0  0  0
  7 10  2  0  0  0  0
  7 18  1  0  0  0  0
  8 21  1  0  0  0  0
  9 21  2  0  0  0  0
 10 22  1  0  0  0  0
 11 12  2  0  0  0  0
 11 23  1  0  0  0  0
 12 24  1  0  0  0  0
 13 20  1  0  0  0  0
 13 22  2  0  0  0  0
 14 24  2  0  0  0  0
 14 25  1  0  0  0  0
 15 26  1  0  0  0  0
 16 26  1  0  0  0  0
 16 27  2  0  0  0  0
 16 30  1  0  0  0  0
 17 19  2  0  0  0  0
 17 35  1  0  0  0  0
 18 20  2  0  0  0  0
 18 36  1  0  0  0  0
 19 44  1  0  0  0  0
 20 37  1  0  0  0  0
 21 81  1  0  0  0  0
 22 82  1  0  0  0  0
 23 25  2  0  0  0  0
 23 81  1  0  0  0  0
 24 83  1  0  0  0  0
 25 84  1  0  0  0  0
 26 64  2  0  0  0  0
 27 67  1  0  0  0  0
 27 70  1  0  0  0  0
 28 52  1  0  0  0  0
 28 65  2  0  0  0  0
 28 85  1  0  0  0  0
 29 53  1  0  0  0  0
 29 66  2  0  0  0  0
 29 85  1  0  0  0  0
 30 71  1  0  0  0  0
 30 76  2  0  0  0  0
 31 45  1  0  0  0  0
 31 72  1  0  0  0  0
 31 77  2  0  0  0  0
 32 61  1  0  0  0  0
 32 68  1  0  0  0  0
 32 78  2  0  0  0  0
 33 62  1  0  0  0  0
 33 73  1  0  0  0  0
 33 79  2  0  0  0  0
 34 69  1  0  0  0  0
 34 74  1  0  0  0  0
 34 80  2  0  0  0  0
 35 38  1  0  0  0  0
 36 45  1  0  0  0  0
 37 68  1  0  0  0  0
 38 40  1  0  0  0  0
 39 41  1  0  0  0  0
 39 42  1  0  0  0  0
 40 44  1  0  0  0  0
 41 46  1  0  0  0  0
 42 69  1  0  0  0  0
 43 46  1  0  0  0  0
 43 69  1  0  0  0  0
 44 72  1  0  0  0  0
 45 68  1  0  0  0  0
 46 67  1  0  0  0  0
 47 62  1  0  0  0  0
 48 63  1  0  0  0  0
 49 63  1  0  0  0  0
 50 63  1  0  0  0  0
 51 75  1  0  0  0  0
 52 54  1  0  0  0  0
 53 60  1  0  0  0  0
 54 55  1  0  0  0  0
 55 56  1  0  0  0  0
 56 57  1  0  0  0  0
 57 58  1  0  0  0  0
 58 59  1  0  0  0  0
 59 74  1  0  0  0  0
 60 82  1  0  0  0  0
 61 63  1  0  0  0  0
 61 73  1  0  0  0  0
 62 75  1  0  0  0  0
 64 67  1  0  0  0  0
 65 66  1  0  0  0  0
M  CHG  1  75   1
M  ISO  4  34 100  60 101  74 100  82 101
M  END
> <Batch ID>
0034

> <Smiles>
CNC(C)C(=O)NC(C(=O)N1Cc2cc([101O:1][101CH2:1]Cc3nnc(CCCCCCC[100NH:0][100C:0](=O)N4CCCC(n5nc(-c6ccc(Oc7ccc(F)cc7F)cc6)c(C(N)=O)c5N)C4)s3)ccc2CC1C(=O)NC1CCCc2ccccc21)C(C)(C)C

> <Shape>
0.196

> <Color>
0.069

> <Negative vol penalty>
0.000

$$$$

  -OEChem-04052316503D

 84 92  0     1  0  0  0  0  0999 V2000
  -21.4572  -37.8027   18.2492 C   0  0  0  0  0  0  0  0  0  0  0  0
  -22.8090  -37.4853   18.1635 C   0  0  0  0  0  0  0  0  0  0  0  0
  -25.6748  -12.6121   19.1739 C   0  0  0  0  0  0  0  0  0  0  0  0
  -25.8744  -12.7050   21.5799 C   0  0  0  0  0  0  0  0  0  0  0  0
  -20.7522  -37.5340   19.4217 C   0  0  0  0  0  0  0  0  0  0  0  0
  -23.4569  -36.9000   19.2507 C   0  0  0  0  0  0  0  0  0  0  0  0
  -26.6845  -30.4898   18.6320 C   0  0  0  0  0  0  0  0  0  0  0  0
  -24.3059  -12.3744   19.2966 C   0  0  0  0  0  0  0  0  0  0  0  0
  -24.5054  -12.4673   21.7026 C   0  0  0  0  0  0  0  0  0  0  0  0
  -27.5051  -29.3655   18.5382 C   0  0  0  0  0  0  0  0  0  0  0  0
  -21.6375  -14.2332   21.4246 C   0  0  0  0  0  0  0  0  0  0  0  0
  -20.9236  -15.0177   22.3305 C   0  0  0  0  0  0  0  0  0  0  0  0
  -28.0017  -29.5178   20.9001 C   0  0  0  0  0  0  0  0  0  0  0  0
  -20.2859  -13.0310   23.5485 C   0  0  0  0  0  0  0  0  0  0  0  0
  -26.4591  -12.7774   20.3156 C   0  0  0  0  0  0  0  0  0  0  0  0
  -28.8296  -12.1886   19.5796 C   0  0  0  0  0  0  0  0  0  0  0  0
  -21.3895  -36.9362   20.5204 C   0  0  0  0  0  0  0  0  0  0  0  0
  -26.5070  -31.1239   19.8647 C   0  0  0  0  0  0  0  0  0  0  0  0
  -22.7601  -36.6242   20.4394 C   0  0  0  0  0  0  0  0  0  0  0  0
  -27.1711  -30.6369   21.0026 C   0  0  0  0  0  0  0  0  0  0  0  0
  -23.7212  -12.3019   20.5609 C   0  0  0  0  0  0  0  0  0  0  0  0
  -28.1622  -28.8809   19.6694 C   0  0  0  0  0  0  0  0  0  0  0  0
  -21.6755  -12.8476   21.5807 C   0  0  0  0  0  0  0  0  0  0  0  0
  -20.2479  -14.4166   23.3924 C   0  0  0  0  0  0  0  0  0  0  0  0
  -20.9998  -12.2465   22.6426 C   0  0  0  0  0  0  0  0  0  0  0  0
  -27.8734  -13.0225   20.1895 C   0  0  0  0  0  0  0  0  0  0  0  0
  -30.0161  -12.8659   19.7213 C   0  0  0  0  0  0  0  0  0  0  0  0
  -28.6605  -10.9156   18.9419 C   0  0  0  0  0  0  0  0  0  0  0  0
  -24.8560  -33.8937   21.7827 C   0  0  0  0  0  0  0  0  0  0  0  0
  -24.7756  -31.4015   23.5695 C   0  0  0  0  0  0  0  0  0  0  0  0
  -23.9829  -28.9902   25.8487 C   0  0  0  0  0  0  0  0  0  0  0  0
  -31.3444  -18.6633   20.4114 C   0  0  0  0  0  0  0  0  0  0  0  0
  -20.5973  -36.7081   21.7834 C   0  0  0  0  0  0  0  0  0  0  0  0
  -25.6813  -32.3744   20.0002 C   0  0  0  0  0  0  0  0  0  0  0  0
  -26.9779  -31.3718   22.3008 C   0  0  0  0  0  0  0  0  0  0  0  0
  -21.2683  -35.7430   22.7574 C   0  0  0  0  0  0  0  0  0  0  0  0
  -32.2239  -15.9909   22.5936 C   0  0  0  0  0  0  0  0  0  0  0  0
  -27.5514  -21.2875   18.5393 C   0  0  0  0  0  0  0  0  0  0  0  0
  -22.7445  -36.0906   22.9215 C   0  0  0  0  0  0  0  0  0  0  0  0
  -28.7614  -20.7451   17.7749 C   0  0  0  0  0  0  0  0  0  0  0  0
  -31.2949  -14.8519   22.1699 C   0  0  0  0  0  0  0  0  0  0  0  0
  -31.5303  -17.3484   22.5026 C   0  0  0  0  0  0  0  0  0  0  0  0
  -29.9941  -16.5079   20.7684 C   0  0  0  0  0  0  0  0  0  0  0  0
  -27.3525  -22.7957   18.5179 C   0  0  0  0  0  0  0  0  0  0  0  0
  -29.6667  -23.5485   17.9008 C   0  0  0  0  0  0  0  0  0  0  0  0
  -23.4922  -35.9657   21.5886 C   0  0  1  0  0  0  0  0  0  0  0  0
  -24.9335  -32.4613   21.3427 C   0  0  1  0  0  0  0  0  0  0  0  0
  -30.0989  -21.0419   18.4855 C   0  0  2  0  0  0  0  0  0  0  0  0
  -30.6666  -15.1246   20.7900 C   0  0  2  0  0  0  0  0  0  0  0  0
  -30.7208  -22.4340   18.1131 C   0  0  0  0  0  0  0  0  0  0  0  0
  -31.5468  -22.3671   16.8069 C   0  0  0  0  0  0  0  0  0  0  0  0
  -31.6814  -22.8728   19.2454 C   0  0  0  0  0  0  0  0  0  0  0  0
  -23.4784  -28.6734   28.2864 C   0  0  0  0  0  0  0  0  0  0  0  0
  -27.7414  -31.6976   24.2179 C   0  0  0  0  0  0  0  0  0  0  0  0
  -27.3225  -30.4729   26.3610 C   0  0  0  0  0  0  0  0  0  0  0  0
  -26.1969  -32.6578   25.9346 C   0  0  0  0  0  0  0  0  0  0  0  0
  -21.2745  -27.9459   25.2715 C   0  0  0  0  0  0  0  0  0  0  0  0
  -31.0615  -19.8629   18.2573 C   0  0  0  0  0  0  0  0  0  0  0  0
  -29.3265  -25.5173   20.2900 C   0  0  0  0  0  0  0  0  0  0  0  0
  -28.2382  -24.9459   19.3937 C   0  0  0  0  0  0  0  0  0  0  0  0
  -29.0680  -26.9534   20.7288 C   0  0  0  0  0  0  0  0  0  1  0  0
  -25.4440  -30.6066   24.6626 C   0  0  1  0  0  0  0  0  0  0  0  0
  -22.8942  -28.9204   26.9042 C   0  0  2  0  0  0  0  0  0  0  0  0
  -26.6694  -31.3469   25.2691 C   0  0  0  0  0  0  0  0  0  0  0  0
  -28.4063  -14.1438   20.6821 N   0  0  0  0  0  0  0  0  0  0  0  0
  -29.7103  -14.0192   20.3820 N   0  0  0  0  0  0  0  0  0  0  0  0
  -25.5632  -31.7418   22.4630 N   0  0  0  0  0  0  0  0  0  0  0  0
  -30.9574  -17.5454   21.1688 N   0  0  0  0  0  0  0  0  0  0  0  0
  -31.2806  -12.5814   19.3439 N   0  0  0  0  0  0  0  0  0  0  0  0
  -28.7757   -9.7570   19.7221 N   0  0  0  0  0  0  0  0  0  0  0  0
  -23.7607  -34.5757   21.2881 N   0  0  0  0  0  0  0  0  0  0  0  0
  -24.4005  -30.2860   25.6305 N   0  0  0  0  0  0  0  0  0  0  0  0
  -30.7590  -18.7712   19.1559 N   0  0  0  0  0  0  0  0  0  0  0  0
  -28.5877  -23.5426   18.9617 N   0  3  1  0  0  0  0  0  0  0  0  0
  -21.9409  -27.8180   26.5931 N   0  3  0  0  0  0  0  0  0  0  0  0
  -28.4307  -10.8082   17.7134 O   0  0  0  0  0  0  0  0  0  0  0  0
  -25.7247  -34.3477   22.5182 O   0  0  0  0  0  0  0  0  0  0  0  0
  -23.5892  -31.7183   23.6934 O   0  0  0  0  0  0  0  0  0  0  0  0
  -24.4218  -27.9943   25.2776 O   0  0  0  0  0  0  0  0  0  0  0  0
  -32.1559  -19.5001   20.8214 O   0  0  0  0  0  0  0  0  0  0  0  0
  -22.3853  -12.0702   20.6810 O   0  0  0  0  0  0  0  0  0  0  0  0
  -28.9638  -27.7725   19.5711 O   0  0  0  0  0  0  0  0  0  1  0  0
  -19.5637  -15.1703   24.2631 F   0  0  0  0  0  0  0  0  0  0  0  0
  -21.0337  -10.9159   22.7983 F   0  0  0  0  0  0  0  0  0  0  0  0
  1  2  1  0  0  0  0
  1  5  2  0  0  0  0
  2  6  2  0  0  0  0
  3  8  2  0  0  0  0
  3 15  1  0  0  0  0
  4  9  1  0  0  0  0
  4 15  2  0  0  0  0
  5 17  1  0  0  0  0
  6 19  1  0  0  0  0
  7 10  2  0  0  0  0
  7 18  1  0  0  0  0
  8 21  1  0  0  0  0
  9 21  2  0  0  0  0
 10 22  1  0  0  0  0
 11 12  2  0  0  0  0
 11 23  1  0  0  0  0
 12 24  1  0  0  0  0
 13 20  1  0  0  0  0
 13 22  2  0  0  0  0
 14 24  2  0  0  0  0
 14 25  1  0  0  0  0
 15 26  1  0  0  0  0
 16 26  1  0  0  0  0
 16 27  2  0  0  0  0
 16 28  1  0  0  0  0
 17 19  2  0  0  0  0
 17 33  1  0  0  0  0
 18 20  2  0  0  0  0
 18 34  1  0  0  0  0
 19 46  1  0  0  0  0
 20 35  1  0  0  0  0
 21 81  1  0  0  0  0
 22 82  1  0  0  0  0
 23 25  2  0  0  0  0
 23 81  1  0  0  0  0
 24 83  1  0  0  0  0
 25 84  1  0  0  0  0
 26 65  2  0  0  0  0
 27 66  1  0  0  0  0
 27 69  1  0  0  0  0
 28 70  1  0  0  0  0
 28 76  2  0  0  0  0
 29 47  1  0  0  0  0
 29 71  1  0  0  0  0
 29 77  2  0  0  0  0
 30 62  1  0  0  0  0
 30 67  1  0  0  0  0
 30 78  2  0  0  0  0
 31 63  1  0  0  0  0
 31 72  1  0  0  0  0
 31 79  2  0  0  0  0
 32 68  1  0  0  0  0
 32 73  1  0  0  0  0
 32 80  2  0  0  0  0
 33 36  1  0  0  0  0
 34 47  1  0  0  0  0
 35 67  1  0  0  0  0
 36 39  1  0  0  0  0
 37 41  1  0  0  0  0
 37 42  1  0  0  0  0
 38 40  1  0  0  0  0
 38 44  1  0  0  0  0
 39 46  1  0  0  0  0
 40 48  1  0  0  0  0
 41 49  1  0  0  0  0
 42 68  1  0  0  0  0
 43 49  1  0  0  0  0
 43 68  1  0  0  0  0
 44 74  1  0  0  0  0
 45 50  1  0  0  0  0
 45 74  1  0  0  0  0
 46 71  1  0  0  0  0
 47 67  1  0  0  0  0
 48 50  1  0  0  0  0
 48 58  1  0  0  0  0
 49 66  1  0  0  0  0
 50 51  1  0  0  0  0
 50 52  1  0  0  0  0
 53 63  1  0  0  0  0
 54 64  1  0  0  0  0
 55 64  1  0  0  0  0
 56 64  1  0  0  0  0
 57 75  1  0  0  0  0
 58 73  1  0  0  0  0
 59 60  1  0  0  0  0
 59 61  1  0  0  0  0
 60 74  1  0  0  0  0
 61 82  1  0  0  0  0
 62 64  1  0  0  0  0
 62 72  1  0  0  0  0
 63 75  1  0  0  0  0
 65 66  1  0  0  0  0
M  CHG  2  74   1  75   1
M  ISO  4  32 100  61 101  73 100  82 101
M  END
> <Batch ID>
0034

> <Smiles>
CNC(C)C(=O)NC(C(=O)N1Cc2cc([101O:1][101CH2:1]CCN3CCCC(C[100NH:0][100C:0](=O)N4CCCC(n5nc(-c6ccc(Oc7ccc(F)cc7F)cc6)c(C(N)=O)c5N)C4)C(C)(C)C3)ccc2CC1C(=O)NC1CCCc2ccccc21)C(C)(C)C

> <Shape>
0.264

> <Color>
0.071

> <Negative vol penalty>
0.000

$$$$

  -OEChem-04052316503D

 89 98  0     1  0  0  0  0  0999 V2000
  -24.8227   -8.9089   21.6782 C   0  0  0  0  0  0  0  0  0  0  0  0
  -25.3090  -10.1993   21.4946 C   0  0  0  0  0  0  0  0  0  0  0  0
  -24.2181  -29.4589   24.6479 C   0  0  0  0  0  0  0  0  0  0  0  0
  -23.5754  -29.8097   22.3456 C   0  0  0  0  0  0  0  0  0  0  0  0
  -23.4557   -8.6579   21.5671 C   0  0  0  0  0  0  0  0  0  0  0  0
  -24.4286  -11.2394   21.1986 C   0  0  0  0  0  0  0  0  0  0  0  0
  -31.8192  -21.7278   20.7601 C   0  0  0  0  0  0  0  0  0  0  0  0
  -25.3782  -15.4162   23.9000 C   0  0  0  0  0  0  0  0  0  0  0  0
  -32.2153  -23.0421   21.0078 C   0  0  0  0  0  0  0  0  0  0  0  0
  -22.9102  -29.0845   24.9560 C   0  0  0  0  0  0  0  0  0  0  0  0
  -22.2675  -29.4353   22.6536 C   0  0  0  0  0  0  0  0  0  0  0  0
  -26.4459  -16.2122   23.4875 C   0  0  0  0  0  0  0  0  0  0  0  0
  -20.5536  -26.5676   23.1628 C   0  0  0  0  0  0  0  0  0  0  0  0
  -19.9108  -25.6879   22.2918 C   0  0  0  0  0  0  0  0  0  0  0  0
  -24.9000  -17.7125   22.4018 C   0  0  0  0  0  0  0  0  0  0  0  0
  -30.2484  -23.3781   22.3701 C   0  0  0  0  0  0  0  0  0  0  0  0
  -18.1982  -27.3428   21.8846 C   0  0  0  0  0  0  0  0  0  0  0  0
  -24.5507  -29.8215   23.3427 C   0  0  0  0  0  0  0  0  0  0  0  0
  -26.6300  -31.2815   23.5722 C   0  0  0  0  0  0  0  0  0  0  0  0
  -22.5571   -9.6972   21.2792 C   0  0  0  0  0  0  0  0  0  0  0  0
  -24.0620  -15.7571   23.5567 C   0  0  0  0  0  0  0  0  0  0  0  0
  -23.0485  -11.0019   21.0823 C   0  0  0  0  0  0  0  0  0  0  0  0
  -30.6377  -21.2387   21.3173 C   0  0  0  0  0  0  0  0  0  0  0  0
  -23.8172  -16.9206   22.8134 C   0  0  0  0  0  0  0  0  0  0  0  0
  -31.4299  -23.8672   21.8128 C   0  0  0  0  0  0  0  0  0  0  0  0
  -29.8523  -22.0638   22.1224 C   0  0  0  0  0  0  0  0  0  0  0  0
  -21.9349  -29.0727   23.9589 C   0  0  0  0  0  0  0  0  0  0  0  0
  -26.2071  -17.3590   22.7359 C   0  0  0  0  0  0  0  0  0  0  0  0
  -20.0188  -27.8348   23.3947 C   0  0  0  0  0  0  0  0  0  0  0  0
  -18.7331  -26.0756   21.6527 C   0  0  0  0  0  0  0  0  0  0  0  0
  -18.8411  -28.2224   22.7556 C   0  0  0  0  0  0  0  0  0  0  0  0
  -25.9014  -30.2089   23.0240 C   0  0  0  0  0  0  0  0  0  0  0  0
  -27.8504  -31.2239   22.9446 C   0  0  0  0  0  0  0  0  0  0  0  0
  -26.2387  -32.2438   24.5604 C   0  0  0  0  0  0  0  0  0  0  0  0
  -21.7579  -14.3763   21.8570 C   0  0  0  0  0  0  0  0  0  0  0  0
  -19.9951  -16.8725   22.9452 C   0  0  0  0  0  0  0  0  0  0  0  0
  -20.4712  -20.4142   23.4422 C   0  0  0  0  0  0  0  0  0  0  0  0
  -30.8931  -26.7694   20.3463 C   0  0  0  0  0  0  0  0  0  0  0  0
  -21.0934   -9.3687   21.1223 C   0  0  0  0  0  0  0  0  0  0  0  0
  -22.9192  -14.9024   24.0321 C   0  0  0  0  0  0  0  0  0  0  0  0
  -22.4212  -17.3414   22.4358 C   0  0  0  0  0  0  0  0  0  0  0  0
  -20.1849  -10.5943   21.1762 C   0  0  0  0  0  0  0  0  0  0  0  0
  -29.8910  -29.8383   18.8449 C   0  0  0  0  0  0  0  0  0  0  0  0
  -20.7404  -11.7097   20.2964 C   0  0  0  0  0  0  0  0  0  0  0  0
  -28.8206  -30.3781   19.7952 C   0  0  0  0  0  0  0  0  0  0  0  0
  -29.5730  -17.5629   22.2220 C   0  0  0  0  0  0  0  0  0  0  0  0
  -28.3016  -18.2493   20.1608 C   0  0  0  0  0  0  0  0  0  0  0  0
  -30.1210  -18.9866   22.3666 C   0  0  0  0  0  0  0  0  0  0  0  0
  -28.8433  -19.6753   20.3042 C   0  0  0  0  0  0  0  0  0  0  0  0
  -29.8290  -28.3168   18.7308 C   0  0  0  0  0  0  0  0  0  0  0  0
  -28.8093  -28.1365   20.9673 C   0  0  0  0  0  0  0  0  0  0  0  0
  -22.1223  -12.1610   20.7845 C   0  0  1  0  0  0  0  0  0  0  0  0
  -21.6590  -15.0664   23.1881 C   0  0  1  0  0  0  0  0  0  0  0  0
  -28.8681  -29.6617   21.1582 C   0  0  2  0  0  0  0  0  0  0  0  0
  -28.2317  -17.5250   21.5005 C   0  0  0  0  0  0  0  0  0  1  0  0
  -30.2193  -19.7764   21.0282 C   0  0  0  0  0  0  0  0  0  0  0  0
  -28.5832  -21.5622   22.7294 C   0  0  0  0  0  0  0  0  0  0  0  0
  -19.3731  -21.9983   25.0490 C   0  0  0  0  0  0  0  0  0  0  0  0
  -18.0779  -17.4273   20.6372 C   0  0  0  0  0  0  0  0  0  0  0  0
  -18.0685  -19.8371   21.3161 C   0  0  0  0  0  0  0  0  0  0  0  0
  -17.2208  -18.0966   22.8893 C   0  0  0  0  0  0  0  0  0  0  0  0
  -23.0767  -21.2943   24.5356 C   0  0  0  0  0  0  0  0  0  0  0  0
  -31.8533  -25.2725   22.0773 C   0  0  0  0  0  0  0  0  0  0  0  0
  -19.7054  -18.2707   22.4554 C   0  0  1  0  0  0  0  0  0  0  0  0
  -20.5951  -21.1367   24.7715 C   0  0  2  0  0  0  0  0  0  0  0  0
  -31.3113  -19.1604   20.1202 C   0  0  0  0  0  0  0  0  0  0  0  0
  -18.2926  -18.3947   21.8183 C   0  0  0  0  0  0  0  0  0  0  0  0
  -26.6005  -29.5204   22.1177 N   0  0  0  0  0  0  0  0  0  0  0  0
  -27.7811  -30.1619   22.0916 N   0  0  0  0  0  0  0  0  0  0  0  0
  -21.3377  -16.4694   22.9188 N   0  0  0  0  0  0  0  0  0  0  0  0
  -29.8799  -27.6985   20.0579 N   0  0  0  0  0  0  0  0  0  0  0  0
  -28.9652  -31.9786   23.0446 N   0  0  0  0  0  0  0  0  0  0  0  0
  -25.6340  -33.4334   24.1319 N   0  0  0  0  0  0  0  0  0  0  0  0
  -21.9938  -13.0176   21.9439 N   0  0  0  0  0  0  0  0  0  0  0  0
  -19.9275  -19.1561   23.5935 N   0  0  0  0  0  0  0  0  0  0  0  0
  -30.8725  -26.2358   21.6292 N   0  0  0  0  0  0  0  0  0  0  0  0
  -21.7994  -22.0146   24.7735 N   0  3  0  0  0  0  0  0  0  0  0  0
  -26.4347  -32.0615   25.7859 O   0  0  0  0  0  0  0  0  0  0  0  0
  -21.6283  -15.0281   20.8275 O   0  0  0  0  0  0  0  0  0  0  0  0
  -19.0652  -16.1664   23.3434 O   0  0  0  0  0  0  0  0  0  0  0  0
  -20.8183  -20.9170   22.3758 O   0  0  0  0  0  0  0  0  0  0  0  0
  -31.7555  -26.4438   19.5235 O   0  0  0  0  0  0  0  0  0  0  0  0
  -20.6587  -28.7072   24.2591 O   0  0  0  0  0  0  0  0  0  0  0  0
  -27.2475  -18.1374   22.3314 O   0  0  0  0  0  0  0  0  0  1  0  0
  -18.1167  -25.2313   20.8152 F   0  0  0  0  0  0  0  0  0  0  0  0
  -18.3232  -29.4390   22.9735 F   0  0  0  0  0  0  0  0  0  0  0  0
  -32.4951  -19.1936   20.7469 F   0  0  0  0  0  0  0  0  0  0  0  0
  -31.0011  -17.8886   19.8352 F   0  0  0  0  0  0  0  0  0  0  0  0
  -31.3993  -19.8570   18.9791 F   0  0  0  0  0  0  0  0  0  0  0  0
  1  2  1  0  0  0  0
  1  5  2  0  0  0  0
  2  6  2  0  0  0  0
  3 10  2  0  0  0  0
  3 18  1  0  0  0  0
  4 11  1  0  0  0  0
  4 18  2  0  0  0  0
  5 20  1  0  0  0  0
  6 22  1  0  0  0  0
  7  9  2  0  0  0  0
  7 23  1  0  0  0  0
  8 12  2  0  0  0  0
  8 21  1  0  0  0  0
  9 25  1  0  0  0  0
 10 27  1  0  0  0  0
 11 27  2  0  0  0  0
 12 28  1  0  0  0  0
 13 14  2  0  0  0  0
 13 29  1  0  0  0  0
 14 30  1  0  0  0  0
 15 24  1  0  0  0  0
 15 28  2  0  0  0  0
 16 25  2  0  0  0  0
 16 26  1  0  0  0  0
 17 30  2  0  0  0  0
 17 31  1  0  0  0  0
 18 32  1  0  0  0  0
 19 32  1  0  0  0  0
 19 33  2  0  0  0  0
 19 34  1  0  0  0  0
 20 22  2  0  0  0  0
 20 39  1  0  0  0  0
 21 24  2  0  0  0  0
 21 40  1  0  0  0  0
 22 52  1  0  0  0  0
 23 26  2  0  0  0  0
 23 56  1  0  0  0  0
 24 41  1  0  0  0  0
 25 63  1  0  0  0  0
 26 57  1  0  0  0  0
 27 83  1  0  0  0  0
 28 84  1  0  0  0  0
 29 31  2  0  0  0  0
 29 83  1  0  0  0  0
 30 85  1  0  0  0  0
 31 86  1  0  0  0  0
 32 68  2  0  0  0  0
 33 69  1  0  0  0  0
 33 72  1  0  0  0  0
 34 73  1  0  0  0  0
 34 78  2  0  0  0  0
 35 53  1  0  0  0  0
 35 74  1  0  0  0  0
 35 79  2  0  0  0  0
 36 64  1  0  0  0  0
 36 70  1  0  0  0  0
 36 80  2  0  0  0  0
 37 65  1  0  0  0  0
 37 75  1  0  0  0  0
 37 81  2  0  0  0  0
 38 71  1  0  0  0  0
 38 76  1  0  0  0  0
 38 82  2  0  0  0  0
 39 42  1  0  0  0  0
 40 53  1  0  0  0  0
 41 70  1  0  0  0  0
 42 44  1  0  0  0  0
 43 45  1  0  0  0  0
 43 50  1  0  0  0  0
 44 52  1  0  0  0  0
 45 54  1  0  0  0  0
 46 48  1  0  0  0  0
 46 55  1  0  0  0  0
 47 49  1  0  0  0  0
 47 55  1  0  0  0  0
 48 56  1  0  0  0  0
 49 56  1  0  0  0  0
 50 71  1  0  0  0  0
 51 54  1  0  0  0  0
 51 71  1  0  0  0  0
 52 74  1  0  0  0  0
 53 70  1  0  0  0  0
 54 69  1  0  0  0  0
 55 84  1  0  0  0  0
 56 66  1  0  0  0  0
 58 65  1  0  0  0  0
 59 67  1  0  0  0  0
 60 67  1  0  0  0  0
 61 67  1  0  0  0  0
 62 77  1  0  0  0  0
 63 76  1  0  0  0  0
 64 67  1  0  0  0  0
 64 75  1  0  0  0  0
 65 77  1  0  0  0  0
 66 87  1  0  0  0  0
 66 88  1  0  0  0  0
 66 89  1  0  0  0  0
 68 69  1  0  0  0  0
M  CHG  1  77   1
M  ISO  4  38 100  55 101  76 100  84 101
M  END
> <Batch ID>
0034

> <Smiles>
CNC(C)C(=O)NC(C(=O)N1Cc2cc([101O:1][101CH:1]3CCC(c4ccc(C[100NH:0][100C:0](=O)N5CCCC(n6nc(-c7ccc(Oc8ccc(F)cc8F)cc7)c(C(N)=O)c6N)C5)cc4C)(C(F)(F)F)CC3)ccc2CC1C(=O)NC1CCCc2ccccc21)C(C)(C)C

> <Shape>
0.238

> <Color>
0.063

> <Negative vol penalty>
0.000

$$$$

  -OEChem-04052316503D

 82 90  0     1  0  0  0  0  0999 V2000
  -18.4781  -31.1671   16.4352 C   0  0  0  0  0  0  0  0  0  0  0  0
  -19.7810  -30.7018   16.2893 C   0  0  0  0  0  0  0  0  0  0  0  0
  -20.6422  -24.4478   22.7698 C   0  0  0  0  0  0  0  0  0  0  0  0
  -22.4483  -25.7871   23.6538 C   0  0  0  0  0  0  0  0  0  0  0  0
  -18.2004  -32.1846   17.3471 C   0  0  0  0  0  0  0  0  0  0  0  0
  -20.8073  -31.2546   17.0546 C   0  0  0  0  0  0  0  0  0  0  0  0
  -25.7118  -28.3447   19.2872 C   0  0  0  0  0  0  0  0  0  0  0  0
  -19.8384  -24.8209   23.8470 C   0  0  0  0  0  0  0  0  0  0  0  0
  -21.6445  -26.1602   24.7309 C   0  0  0  0  0  0  0  0  0  0  0  0
  -27.0293  -28.2491   18.8413 C   0  0  0  0  0  0  0  0  0  0  0  0
  -17.4308  -25.1353   26.5540 C   0  0  0  0  0  0  0  0  0  0  0  0
  -16.6911  -24.1379   27.1893 C   0  0  0  0  0  0  0  0  0  0  0  0
  -27.6534  -30.0522   20.3172 C   0  0  0  0  0  0  0  0  0  0  0  0
  -31.1616  -26.4799   21.0070 C   0  0  0  0  0  0  0  0  0  0  0  0
  -18.7346  -22.9700   27.7347 C   0  0  0  0  0  0  0  0  0  0  0  0
  -21.9473  -24.9308   22.6732 C   0  0  0  0  0  0  0  0  0  0  0  0
  -22.8982  -25.2020   20.3217 C   0  0  0  0  0  0  0  0  0  0  0  0
  -19.2222  -32.7434   18.1308 C   0  0  0  0  0  0  0  0  0  0  0  0
  -25.3524  -29.3038   20.2451 C   0  0  0  0  0  0  0  0  0  0  0  0
  -20.5433  -32.2814   17.9769 C   0  0  0  0  0  0  0  0  0  0  0  0
  -26.3312  -30.1563   20.7755 C   0  0  0  0  0  0  0  0  0  0  0  0
  -31.2717  -27.0477   19.7425 C   0  0  0  0  0  0  0  0  0  0  0  0
  -20.3395  -25.6771   24.8275 C   0  0  0  0  0  0  0  0  0  0  0  0
  -27.9997  -29.1048   19.3541 C   0  0  0  0  0  0  0  0  0  0  0  0
  -18.8223  -25.0501   26.5090 C   0  0  0  0  0  0  0  0  0  0  0  0
  -17.3430  -23.0552   27.7796 C   0  0  0  0  0  0  0  0  0  0  0  0
  -19.4742  -23.9674   27.0993 C   0  0  0  0  0  0  0  0  0  0  0  0
  -30.9038  -25.1193   21.1319 C   0  0  0  0  0  0  0  0  0  0  0  0
  -22.7783  -24.5453   21.5611 C   0  0  0  0  0  0  0  0  0  0  0  0
  -31.1171  -26.2183   18.6434 C   0  0  0  0  0  0  0  0  0  0  0  0
  -30.7655  -24.3762   19.9706 C   0  0  0  0  0  0  0  0  0  0  0  0
  -23.8041  -24.4459   19.6187 C   0  0  0  0  0  0  0  0  0  0  0  0
  -22.2489  -26.3894   19.8482 C   0  0  0  0  0  0  0  0  0  0  0  0
  -23.3806  -31.7964   20.2936 C   0  0  0  0  0  0  0  0  0  0  0  0
  -24.1884  -31.8792   23.4341 C   0  0  0  0  0  0  0  0  0  0  0  0
  -26.4478  -31.0878   25.8663 C   0  0  0  0  0  0  0  0  0  0  0  0
  -28.6149  -21.3310   20.4360 C   0  0  0  0  0  0  0  0  0  0  0  0
  -18.8814  -33.8739   19.0692 C   0  0  0  0  0  0  0  0  0  0  0  0
  -23.9323  -29.3764   20.7354 C   0  0  0  0  0  0  0  0  0  0  0  0
  -26.0011  -31.1896   21.8204 C   0  0  0  0  0  0  0  0  0  0  0  0
  -19.9629  -34.1476   20.1112 C   0  0  0  0  0  0  0  0  0  0  0  0
  -25.4442  -19.7924   19.9300 C   0  0  0  0  0  0  0  0  0  0  0  0
  -21.3392  -34.1862   19.4547 C   0  0  0  0  0  0  0  0  0  0  0  0
  -24.4447  -20.9222   20.1838 C   0  0  0  0  0  0  0  0  0  0  0  0
  -26.6494  -19.8849   20.8631 C   0  0  0  0  0  0  0  0  0  0  0  0
  -26.3410  -22.3177   21.1086 C   0  0  0  0  0  0  0  0  0  0  0  0
  -21.6794  -32.8386   18.8068 C   0  0  1  0  0  0  0  0  0  0  0  0
  -23.5763  -30.7326   21.3365 C   0  0  1  0  0  0  0  0  0  0  0  0
  -25.1352  -22.2990   20.1537 C   0  0  2  0  0  0  0  0  0  0  0  0
  -31.2262  -26.7729   17.2606 C   0  0  0  0  0  0  0  0  0  0  0  0
  -27.3918  -30.8503   28.1793 C   0  0  0  0  0  0  0  0  0  0  0  0
  -24.9468  -34.8074   23.0331 C   0  0  0  0  0  0  0  0  0  0  0  0
  -26.1968  -34.7081   25.2000 C   0  0  0  0  0  0  0  0  0  0  0  0
  -23.7318  -34.3271   25.1656 C   0  0  0  0  0  0  0  0  0  0  0  0
  -25.2203  -28.4180   26.2186 C   0  0  0  0  0  0  0  0  0  0  0  0
  -31.5515  -28.5240   19.5992 C   0  0  0  0  0  0  0  0  0  0  0  0
  -30.4862  -22.9092   20.0279 C   0  0  0  0  0  0  0  0  0  0  0  0
  -30.3109  -29.3758   19.8452 C   0  0  0  0  0  0  0  0  0  1  0  0
  -25.2738  -32.5493   24.2415 C   0  0  1  0  0  0  0  0  0  0  0  0
  -26.2756  -30.4434   27.2300 C   0  0  2  0  0  0  0  0  0  0  0  0
  -25.0435  -34.0799   24.3889 C   0  0  0  0  0  0  0  0  0  0  0  0
  -23.5465  -23.4558   21.6438 N   0  0  0  0  0  0  0  0  0  0  0  0
  -30.8659  -24.8925   18.7252 N   0  0  0  0  0  0  0  0  0  0  0  0
  -24.1577  -23.4220   20.4474 N   0  0  0  0  0  0  0  0  0  0  0  0
  -24.5974  -31.2257   22.2631 N   0  0  0  0  0  0  0  0  0  0  0  0
  -27.2595  -21.2145   20.7858 N   0  0  0  0  0  0  0  0  0  0  0  0
  -24.3246  -24.5636   18.3787 N   0  0  0  0  0  0  0  0  0  0  0  0
  -21.3470  -27.0424   20.6994 N   0  0  0  0  0  0  0  0  0  0  0  0
  -22.0877  -31.8825   19.8136 N   0  0  0  0  0  0  0  0  0  0  0  0
  -25.3423  -31.8305   25.5092 N   0  0  0  0  0  0  0  0  0  0  0  0
  -29.1123  -22.6272   20.3795 N   0  0  0  0  0  0  0  0  0  0  0  0
  -26.2825  -28.9583   27.1056 N   0  3  0  0  0  0  0  0  0  0  0  0
  -22.4496  -26.8482   18.6981 O   0  0  0  0  0  0  0  0  0  0  0  0
  -24.3318  -32.4888   19.9510 O   0  0  0  0  0  0  0  0  0  0  0  0
  -23.0217  -31.9276   23.8317 O   0  0  0  0  0  0  0  0  0  0  0  0
  -27.4630  -30.9494   25.1876 O   0  0  0  0  0  0  0  0  0  0  0  0
  -29.3274  -20.3527   20.1868 O   0  0  0  0  0  0  0  0  0  0  0  0
  -19.5553  -26.0416   25.8785 O   0  0  0  0  0  0  0  0  0  0  0  0
  -29.2863  -29.0139   18.9201 O   0  0  0  0  0  0  0  0  0  1  0  0
  -16.6327  -22.0982   28.3910 F   0  0  0  0  0  0  0  0  0  0  0  0
  -20.8109  -23.8807   27.0603 F   0  0  0  0  0  0  0  0  0  0  0  0
  -30.7676  -24.4190   22.6973 Cl  0  0  0  0  0  0  0  0  0  0  0  0
  1  2  1  0  0  0  0
  1  5  2  0  0  0  0
  2  6  2  0  0  0  0
  3  8  2  0  0  0  0
  3 16  1  0  0  0  0
  4  9  1  0  0  0  0
  4 16  2  0  0  0  0
  5 18  1  0  0  0  0
  6 20  1  0  0  0  0
  7 10  2  0  0  0  0
  7 19  1  0  0  0  0
  8 23  1  0  0  0  0
  9 23  2  0  0  0  0
 10 24  1  0  0  0  0
 11 12  2  0  0  0  0
 11 25  1  0  0  0  0
 12 26  1  0  0  0  0
 13 21  1  0  0  0  0
 13 24  2  0  0  0  0
 14 22  1  0  0  0  0
 14 28  2  0  0  0  0
 15 26  2  0  0  0  0
 15 27  1  0  0  0  0
 16 29  1  0  0  0  0
 17 29  1  0  0  0  0
 17 32  2  0  0  0  0
 17 33  1  0  0  0  0
 18 20  2  0  0  0  0
 18 38  1  0  0  0  0
 19 21  2  0  0  0  0
 19 39  1  0  0  0  0
 20 47  1  0  0  0  0
 21 40  1  0  0  0  0
 22 30  2  0  0  0  0
 22 56  1  0  0  0  0
 23 78  1  0  0  0  0
 24 79  1  0  0  0  0
 25 27  2  0  0  0  0
 25 78  1  0  0  0  0
 26 80  1  0  0  0  0
 27 81  1  0  0  0  0
 28 31  1  0  0  0  0
 28 82  1  0  0  0  0
 29 62  2  0  0  0  0
 30 50  1  0  0  0  0
 30 63  1  0  0  0  0
 31 57  1  0  0  0  0
 31 63  2  0  0  0  0
 32 64  1  0  0  0  0
 32 67  1  0  0  0  0
 33 68  1  0  0  0  0
 33 73  2  0  0  0  0
 34 48  1  0  0  0  0
 34 69  1  0  0  0  0
 34 74  2  0  0  0  0
 35 59  1  0  0  0  0
 35 65  1  0  0  0  0
 35 75  2  0  0  0  0
 36 60  1  0  0  0  0
 36 70  1  0  0  0  0
 36 76  2  0  0  0  0
 37 66  1  0  0  0  0
 37 71  1  0  0  0  0
 37 77  2  0  0  0  0
 38 41  1  0  0  0  0
 39 48  1  0  0  0  0
 40 65  1  0  0  0  0
 41 43  1  0  0  0  0
 42 44  1  0  0  0  0
 42 45  1  0  0  0  0
 43 47  1  0  0  0  0
 44 49  1  0  0  0  0
 45 66  1  0  0  0  0
 46 49  1  0  0  0  0
 46 66  1  0  0  0  0
 47 69  1  0  0  0  0
 48 65  1  0  0  0  0
 49 64  1  0  0  0  0
 51 60  1  0  0  0  0
 52 61  1  0  0  0  0
 53 61  1  0  0  0  0
 54 61  1  0  0  0  0
 55 72  1  0  0  0  0
 56 58  1  0  0  0  0
 57 71  1  0  0  0  0
 58 79  1  0  0  0  0
 59 61  1  0  0  0  0
 59 70  1  0  0  0  0
 60 72  1  0  0  0  0
 62 64  1  0  0  0  0
M  CHG  1  72   1
M  ISO  4  37 100  58 101  71 100  79 101
M  END
> <Batch ID>
0034

> <Smiles>
CNC(C)C(=O)NC(C(=O)N1Cc2cc([101O:1][101CH2:1]Cc3cc(Cl)c(C[100NH:0][100C:0](=O)N4CCCC(n5nc(-c6ccc(Oc7ccc(F)cc7F)cc6)c(C(N)=O)c5N)C4)nc3C)ccc2CC1C(=O)NC1CCCc2ccccc21)C(C)(C)C

> <Shape>
0.185

> <Color>
0.064

> <Negative vol penalty>
0.000

$$$$

  -OEChem-04052316503D

 87 95  0     1  0  0  0  0  0999 V2000
  -32.5291  -14.1883   21.0080 C   0  0  0  0  0  0  0  0  0  0  0  0
  -31.7188  -15.3186   21.0445 C   0  0  0  0  0  0  0  0  0  0  0  0
  -29.0109  -24.9491   20.8148 C   0  0  0  0  0  0  0  0  0  0  0  0
  -27.5933  -25.6268   18.9796 C   0  0  0  0  0  0  0  0  0  0  0  0
  -32.0146  -12.9778   20.5456 C   0  0  0  0  0  0  0  0  0  0  0  0
  -30.3937  -15.2392   20.6174 C   0  0  0  0  0  0  0  0  0  0  0  0
  -25.6010  -18.2931   22.8998 C   0  0  0  0  0  0  0  0  0  0  0  0
  -28.8755  -23.6160   20.4272 C   0  0  0  0  0  0  0  0  0  0  0  0
  -27.4578  -24.2938   18.5919 C   0  0  0  0  0  0  0  0  0  0  0  0
  -24.9423  -19.4499   22.4855 C   0  0  0  0  0  0  0  0  0  0  0  0
  -30.1732  -21.5614   18.0761 C   0  0  0  0  0  0  0  0  0  0  0  0
  -31.3250  -20.7754   18.0438 C   0  0  0  0  0  0  0  0  0  0  0  0
  -23.3045  -18.0995   21.3393 C   0  0  0  0  0  0  0  0  0  0  0  0
  -23.3822  -23.8011   20.3318 C   0  0  0  0  0  0  0  0  0  0  0  0
  -21.5012  -22.9190   21.5649 C   0  0  0  0  0  0  0  0  0  0  0  0
  -30.3506  -19.2803   19.6724 C   0  0  0  0  0  0  0  0  0  0  0  0
  -28.3698  -25.9545   20.0910 C   0  0  0  0  0  0  0  0  0  0  0  0
  -29.4932  -28.2447   20.0679 C   0  0  0  0  0  0  0  0  0  0  0  0
  -30.6798  -12.8812   20.1217 C   0  0  0  0  0  0  0  0  0  0  0  0
  -25.1219  -17.0290   22.5272 C   0  0  0  0  0  0  0  0  0  0  0  0
  -29.8613  -14.0265   20.1476 C   0  0  0  0  0  0  0  0  0  0  0  0
  -23.9576  -16.9282   21.7523 C   0  0  0  0  0  0  0  0  0  0  0  0
  -22.8424  -22.8426   21.1894 C   0  0  0  0  0  0  0  0  0  0  0  0
  -22.5808  -24.8361   19.8497 C   0  0  0  0  0  0  0  0  0  0  0  0
  -20.6998  -23.9539   21.0828 C   0  0  0  0  0  0  0  0  0  0  0  0
  -21.2396  -24.9124   20.2252 C   0  0  0  0  0  0  0  0  0  0  0  0
  -28.0990  -23.2884   19.3157 C   0  0  0  0  0  0  0  0  0  0  0  0
  -23.7955  -19.3533   21.7027 C   0  0  0  0  0  0  0  0  0  0  0  0
  -29.1100  -21.2068   18.9067 C   0  0  0  0  0  0  0  0  0  0  0  0
  -31.4137  -19.6349   18.8419 C   0  0  0  0  0  0  0  0  0  0  0  0
  -29.1987  -20.0663   19.7047 C   0  0  0  0  0  0  0  0  0  0  0  0
  -28.5089  -27.3316   20.4913 C   0  0  0  0  0  0  0  0  0  0  0  0
  -29.1897  -29.4086   20.7310 C   0  0  0  0  0  0  0  0  0  0  0  0
  -30.5841  -28.0575   19.1566 C   0  0  0  0  0  0  0  0  0  0  0  0
  -26.2753  -14.6053   20.8245 C   0  0  0  0  0  0  0  0  0  0  0  0
  -23.5680  -13.1241   21.8239 C   0  0  0  0  0  0  0  0  0  0  0  0
  -20.3613  -13.4051   22.9575 C   0  0  0  0  0  0  0  0  0  0  0  0
  -24.1069  -31.5875   23.0263 C   0  0  0  0  0  0  0  0  0  0  0  0
  -30.1821  -11.5624   19.5855 C   0  0  0  0  0  0  0  0  0  0  0  0
  -25.8288  -15.7901   23.0046 C   0  0  0  0  0  0  0  0  0  0  0  0
  -23.3908  -15.5943   21.3424 C   0  0  0  0  0  0  0  0  0  0  0  0
  -28.6603  -11.4737   19.5031 C   0  0  0  0  0  0  0  0  0  0  0  0
  -27.1612  -31.0030   24.7601 C   0  0  0  0  0  0  0  0  0  0  0  0
  -28.0854  -12.7373   18.8711 C   0  0  0  0  0  0  0  0  0  0  0  0
  -27.9418  -30.0782   23.8245 C   0  0  0  0  0  0  0  0  0  0  0  0
  -25.6649  -30.6990   24.7350 C   0  0  0  0  0  0  0  0  0  0  0  0
  -25.8357  -29.7756   22.4564 C   0  0  0  0  0  0  0  0  0  0  0  0
  -28.4117  -13.9745   19.7162 C   0  0  1  0  0  0  0  0  0  0  0  0
  -25.5444  -14.5680   22.1368 C   0  0  1  0  0  0  0  0  0  0  0  0
  -27.3425  -30.0808   22.4053 C   0  0  2  0  0  0  0  0  0  0  0  0
  -23.1830  -25.8491   18.9317 C   0  0  0  0  0  0  0  0  0  0  0  0
  -19.2665  -24.0131   21.4999 C   0  0  0  0  0  0  0  0  0  0  0  0
  -18.3886  -12.0180   23.6516 C   0  0  0  0  0  0  0  0  0  0  0  0
  -22.9713  -12.5114   18.8949 C   0  0  0  0  0  0  0  0  0  0  0  0
  -20.6110  -12.0002   19.5550 C   0  0  0  0  0  0  0  0  0  0  0  0
  -22.4849  -10.6337   20.4735 C   0  0  0  0  0  0  0  0  0  0  0  0
  -20.3835  -14.5334   25.6935 C   0  0  0  0  0  0  0  0  0  0  0  0
  -20.3805  -26.0219   19.7077 C   0  0  0  0  0  0  0  0  0  0  0  0
  -23.7047  -21.7298   21.7086 C   0  0  0  0  0  0  0  0  0  1  0  0
  -20.5798  -27.3642   20.4329 C   0  0  0  0  0  0  0  0  0  0  0  0
  -19.6328  -28.4575   19.9262 C   0  0  0  0  0  0  0  0  0  0  0  0
  -19.7763  -29.7820   20.6825 C   0  0  0  0  0  0  0  0  0  0  0  0
  -21.1578  -30.4231   20.5275 C   0  0  0  0  0  0  0  0  0  0  0  0
  -21.2545  -31.7276   21.3257 C   0  0  0  0  0  0  0  0  0  0  0  0
  -22.6247  -32.3871   21.2034 C   0  0  0  0  0  0  0  0  0  0  0  0
  -22.1589  -13.0021   21.2960 C   0  0  1  0  0  0  0  0  0  0  0  0
  -19.6416  -12.7425   24.1183 C   0  0  2  0  0  0  0  0  0  0  0  0
  -22.0681  -12.0622   20.0608 C   0  0  0  0  0  0  0  0  0  0  0  0
  -27.6449  -27.8692   21.3565 N   0  0  0  0  0  0  0  0  0  0  0  0
  -28.0854  -29.1326   21.4823 N   0  0  0  0  0  0  0  0  0  0  0  0
  -24.1214  -14.4123   21.8288 N   0  0  0  0  0  0  0  0  0  0  0  0
  -25.1586  -30.7185   23.3605 N   0  0  0  0  0  0  0  0  0  0  0  0
  -29.7626  -30.6310   20.7390 N   0  0  0  0  0  0  0  0  0  0  0  0
  -30.7510  -26.7985   18.5638 N   0  0  0  0  0  0  0  0  0  0  0  0
  -27.5377  -14.0450   20.8675 N   0  0  0  0  0  0  0  0  0  0  0  0
  -21.3345  -12.5859   22.4254 N   0  0  0  0  0  0  0  0  0  0  0  0
  -23.6917  -31.5475   21.7009 N   0  0  0  0  0  0  0  0  0  0  0  0
  -19.2456  -13.7610   25.1316 N   0  3  0  0  0  0  0  0  0  0  0  0
  -31.3969  -28.9747   18.8890 O   0  0  0  0  0  0  0  0  0  0  0  0
  -25.7333  -15.1041   19.8451 O   0  0  0  0  0  0  0  0  0  0  0  0
  -24.1533  -12.1147   22.2240 O   0  0  0  0  0  0  0  0  0  0  0  0
  -20.0851  -14.5348   22.5600 O   0  0  0  0  0  0  0  0  0  0  0  0
  -23.5808  -32.3469   23.8469 O   0  0  0  0  0  0  0  0  0  0  0  0
  -27.9668  -21.9877   18.9370 O   0  0  0  0  0  0  0  0  0  0  0  0
  -23.1509  -20.4809   21.2964 O   0  0  0  0  0  0  0  0  0  1  0  0
  -32.5193  -18.8794   18.8096 F   0  0  0  0  0  0  0  0  0  0  0  0
  -28.1801  -19.7200   20.5037 F   0  0  0  0  0  0  0  0  0  0  0  0
  1  2  1  0  0  0  0
  1  5  2  0  0  0  0
  2  6  2  0  0  0  0
  3  8  2  0  0  0  0
  3 17  1  0  0  0  0
  4  9  1  0  0  0  0
  4 17  2  0  0  0  0
  5 19  1  0  0  0  0
  6 21  1  0  0  0  0
  7 10  2  0  0  0  0
  7 20  1  0  0  0  0
  8 27  1  0  0  0  0
  9 27  2  0  0  0  0
 10 28  1  0  0  0  0
 11 12  2  0  0  0  0
 11 29  1  0  0  0  0
 12 30  1  0  0  0  0
 13 22  1  0  0  0  0
 13 28  2  0  0  0  0
 14 23  1  0  0  0  0
 14 24  2  0  0  0  0
 15 23  2  0  0  0  0
 15 25  1  0  0  0  0
 16 30  2  0  0  0  0
 16 31  1  0  0  0  0
 17 32  1  0  0  0  0
 18 32  1  0  0  0  0
 18 33  2  0  0  0  0
 18 34  1  0  0  0  0
 19 21  2  0  0  0  0
 19 39  1  0  0  0  0
 20 22  2  0  0  0  0
 20 40  1  0  0  0  0
 21 48  1  0  0  0  0
 22 41  1  0  0  0  0
 23 59  1  0  0  0  0
 24 26  1  0  0  0  0
 24 51  1  0  0  0  0
 25 26  2  0  0  0  0
 25 52  1  0  0  0  0
 26 58  1  0  0  0  0
 27 84  1  0  0  0  0
 28 85  1  0  0  0  0
 29 31  2  0  0  0  0
 29 84  1  0  0  0  0
 30 86  1  0  0  0  0
 31 87  1  0  0  0  0
 32 69  2  0  0  0  0
 33 70  1  0  0  0  0
 33 73  1  0  0  0  0
 34 74  1  0  0  0  0
 34 79  2  0  0  0  0
 35 49  1  0  0  0  0
 35 75  1  0  0  0  0
 35 80  2  0  0  0  0
 36 66  1  0  0  0  0
 36 71  1  0  0  0  0
 36 81  2  0  0  0  0
 37 67  1  0  0  0  0
 37 76  1  0  0  0  0
 37 82  2  0  0  0  0
 38 72  1  0  0  0  0
 38 77  1  0  0  0  0
 38 83  2  0  0  0  0
 39 42  1  0  0  0  0
 40 49  1  0  0  0  0
 41 71  1  0  0  0  0
 42 44  1  0  0  0  0
 43 45  1  0  0  0  0
 43 46  1  0  0  0  0
 44 48  1  0  0  0  0
 45 50  1  0  0  0  0
 46 72  1  0  0  0  0
 47 50  1  0  0  0  0
 47 72  1  0  0  0  0
 48 75  1  0  0  0  0
 49 71  1  0  0  0  0
 50 70  1  0  0  0  0
 53 67  1  0  0  0  0
 54 68  1  0  0  0  0
 55 68  1  0  0  0  0
 56 68  1  0  0  0  0
 57 78  1  0  0  0  0
 58 60  1  0  0  0  0
 59 85  1  0  0  0  0
 60 61  1  0  0  0  0
 61 62  1  0  0  0  0
 62 63  1  0  0  0  0
 63 64  1  0  0  0  0
 64 65  1  0  0  0  0
 65 77  1  0  0  0  0
 66 68  1  0  0  0  0
 66 76  1  0  0  0  0
 67 78  1  0  0  0  0
 69 70  1  0  0  0  0
M  CHG  1  78   1
M  ISO  4  38 100  59 101  77 100  85 101
M  END
> <Batch ID>
0034

> <Smiles>
CNC(C)C(=O)NC(C(=O)N1Cc2cc([101O:1][101CH2:1]c3cc(C)c(CCCCCCC[100NH:0][100C:0](=O)N4CCCC(n5nc(-c6ccc(Oc7ccc(F)cc7F)cc6)c(C(N)=O)c5N)C4)c(C)c3)ccc2CC1C(=O)NC1CCCc2ccccc21)C(C)(C)C

> <Shape>
0.245

> <Color>
0.060

> <Negative vol penalty>
0.000

$$$$

  -OEChem-04052316503D

 84 92  0     1  0  0  0  0  0999 V2000
  -16.8874  -17.7067   19.1463 C   0  0  0  0  0  0  0  0  0  0  0  0
  -18.0501  -17.8301   19.9002 C   0  0  0  0  0  0  0  0  0  0  0  0
  -23.1869   -9.8194   19.9325 C   0  0  0  0  0  0  0  0  0  0  0  0
  -23.5634  -10.0006   22.3121 C   0  0  0  0  0  0  0  0  0  0  0  0
  -16.9639  -17.3318   17.8055 C   0  0  0  0  0  0  0  0  0  0  0  0
  -19.2899  -17.5775   19.3141 C   0  0  0  0  0  0  0  0  0  0  0  0
  -24.5820  -20.4098   20.5295 C   0  0  0  0  0  0  0  0  0  0  0  0
  -22.4183   -8.6743   20.1413 C   0  0  0  0  0  0  0  0  0  0  0  0
  -22.7947   -8.8555   22.5210 C   0  0  0  0  0  0  0  0  0  0  0  0
  -25.6661  -20.0663   21.3362 C   0  0  0  0  0  0  0  0  0  0  0  0
  -23.1898   -5.5079   22.2594 C   0  0  0  0  0  0  0  0  0  0  0  0
  -23.6856   -4.5463   23.1397 C   0  0  0  0  0  0  0  0  0  0  0  0
  -26.8030  -19.1594   19.4116 C   0  0  0  0  0  0  0  0  0  0  0  0
  -31.2642  -18.6858   21.8360 C   0  0  0  0  0  0  0  0  0  0  0  0
  -29.6743  -17.3135   23.0302 C   0  0  0  0  0  0  0  0  0  0  0  0
  -21.7283   -4.8108   24.5311 C   0  0  0  0  0  0  0  0  0  0  0  0
  -23.7595  -10.4825   21.0179 C   0  0  0  0  0  0  0  0  0  0  0  0
  -24.1031  -12.9984   20.7728 C   0  0  0  0  0  0  0  0  0  0  0  0
  -18.2059  -17.0839   17.2001 C   0  0  0  0  0  0  0  0  0  0  0  0
  -24.5958  -20.1203   19.1575 C   0  0  0  0  0  0  0  0  0  0  0  0
  -19.3829  -17.1976   17.9644 C   0  0  0  0  0  0  0  0  0  0  0  0
  -25.7190  -19.5025   18.5893 C   0  0  0  0  0  0  0  0  0  0  0  0
  -29.9836  -18.1456   21.9543 C   0  0  0  0  0  0  0  0  0  0  0  0
  -32.2355  -18.3938   22.7936 C   0  0  0  0  0  0  0  0  0  0  0  0
  -30.6456  -17.0216   23.9879 C   0  0  0  0  0  0  0  0  0  0  0  0
  -22.2222   -8.1924   21.4355 C   0  0  0  0  0  0  0  0  0  0  0  0
  -26.7756  -19.4384   20.7778 C   0  0  0  0  0  0  0  0  0  0  0  0
  -21.9633   -6.1212   22.5150 C   0  0  0  0  0  0  0  0  0  0  0  0
  -22.9549   -4.1977   24.2756 C   0  0  0  0  0  0  0  0  0  0  0  0
  -21.2325   -5.7726   23.6508 C   0  0  0  0  0  0  0  0  0  0  0  0
  -31.9262  -17.5617   23.8696 C   0  0  0  0  0  0  0  0  0  0  0  0
  -24.5540  -11.6651   20.8029 C   0  0  0  0  0  0  0  0  0  0  0  0
  -25.2359  -13.7388   20.5381 C   0  0  0  0  0  0  0  0  0  0  0  0
  -22.7787  -13.5209   20.9421 C   0  0  0  0  0  0  0  0  0  0  0  0
  -22.8253  -18.3197   17.2270 C   0  0  0  0  0  0  0  0  0  0  0  0
  -24.6557  -19.6792   14.9196 C   0  0  0  0  0  0  0  0  0  0  0  0
  -27.5860  -21.2100   14.0730 C   0  0  0  0  0  0  0  0  0  0  0  0
  -31.0397  -12.5611   21.5905 C   0  0  0  0  0  0  0  0  0  0  0  0
  -18.2352  -16.6353   15.7605 C   0  0  0  0  0  0  0  0  0  0  0  0
  -23.4298  -20.5214   18.2962 C   0  0  0  0  0  0  0  0  0  0  0  0
  -25.7919  -19.1882   17.1181 C   0  0  0  0  0  0  0  0  0  0  0  0
  -19.6136  -16.7499   15.1147 C   0  0  0  0  0  0  0  0  0  0  0  0
  -29.5244  -13.4832   18.4515 C   0  0  0  0  0  0  0  0  0  0  0  0
  -20.6848  -16.1781   16.0379 C   0  0  0  0  0  0  0  0  0  0  0  0
  -28.0406  -13.2032   18.6867 C   0  0  0  0  0  0  0  0  0  0  0  0
  -30.4062  -12.4833   19.1926 C   0  0  0  0  0  0  0  0  0  0  0  0
  -28.6432  -12.1303   20.9025 C   0  0  0  0  0  0  0  0  0  0  0  0
  -20.7482  -16.9562   17.3578 C   0  0  1  0  0  0  0  0  0  0  0  0
  -23.3359  -19.7152   17.0045 C   0  0  1  0  0  0  0  0  0  0  0  0
  -27.7228  -13.1370   20.1911 C   0  0  2  0  0  0  0  0  0  0  0  0
  -33.6038  -18.9728   22.6640 C   0  0  0  0  0  0  0  0  0  0  0  0
  -28.8091  -22.1713   12.1040 C   0  0  0  0  0  0  0  0  0  0  0  0
  -25.3100  -16.8602   13.9529 C   0  0  0  0  0  0  0  0  0  0  0  0
  -27.2198  -17.8245   12.6525 C   0  0  0  0  0  0  0  0  0  0  0  0
  -24.8810  -18.5155   12.1280 C   0  0  0  0  0  0  0  0  0  0  0  0
  -27.6745  -23.9037   15.2958 C   0  0  0  0  0  0  0  0  0  0  0  0
  -30.3113  -16.1318   25.1375 C   0  0  0  0  0  0  0  0  0  0  0  0
  -28.9384  -18.4604   20.9248 C   0  0  0  0  0  0  0  0  0  1  0  0
  -30.2494  -14.6346   24.7851 C   0  0  0  0  0  0  0  0  0  0  0  0
  -31.5918  -14.0821   24.3040 C   0  0  0  0  0  0  0  0  0  0  0  0
  -31.4877  -12.6107   23.9262 C   0  0  0  0  0  0  0  0  0  0  0  0
  -25.9685  -19.3381   14.2570 C   0  0  1  0  0  0  0  0  0  0  0  0
  -27.8710  -22.4631   13.2649 C   0  0  2  0  0  0  0  0  0  0  0  0
  -25.8430  -18.1386   13.2757 C   0  0  0  0  0  0  0  0  0  0  0  0
  -25.8706  -11.5615   20.6030 N   0  0  0  0  0  0  0  0  0  0  0  0
  -26.2566  -12.8390   20.4450 N   0  0  0  0  0  0  0  0  0  0  0  0
  -24.6241  -19.5943   16.3188 N   0  0  0  0  0  0  0  0  0  0  0  0
  -30.0533  -12.4159   20.6101 N   0  0  0  0  0  0  0  0  0  0  0  0
  -25.4484  -15.0652   20.4042 N   0  0  0  0  0  0  0  0  0  0  0  0
  -21.7301  -12.6207   21.1758 N   0  0  0  0  0  0  0  0  0  0  0  0
  -21.4490  -18.2088   17.1729 N   0  0  0  0  0  0  0  0  0  0  0  0
  -26.4452  -20.5697   13.6373 N   0  0  0  0  0  0  0  0  0  0  0  0
  -28.4995  -23.5036   14.1269 N   0  3  0  0  0  0  0  0  0  0  0  0
  -22.5298  -14.7483   20.8714 O   0  0  0  0  0  0  0  0  0  0  0  0
  -23.6212  -17.4106   17.4312 O   0  0  0  0  0  0  0  0  0  0  0  0
  -23.6957  -20.0158   14.2220 O   0  0  0  0  0  0  0  0  0  0  0  0
  -28.3056  -20.8346   14.9960 O   0  0  0  0  0  0  0  0  0  0  0  0
  -32.2314  -12.7488   21.3518 O   0  0  0  0  0  0  0  0  0  0  0  0
  -21.4721   -7.0752   21.6397 O   0  0  0  0  0  0  0  0  0  0  0  0
  -27.8347  -19.1015   21.5630 O   0  0  0  0  0  0  0  0  0  1  0  0
  -30.5388  -12.4720   22.8622 O   0  0  0  0  0  0  0  0  0  0  0  0
  -23.4304   -3.2730   25.1200 F   0  0  0  0  0  0  0  0  0  0  0  0
  -20.0530   -6.3573   23.9010 F   0  0  0  0  0  0  0  0  0  0  0  0
  -32.8602  -17.2795   24.7899 F   0  0  0  0  0  0  0  0  0  0  0  0
  1  2  1  0  0  0  0
  1  5  2  0  0  0  0
  2  6  2  0  0  0  0
  3  8  2  0  0  0  0
  3 17  1  0  0  0  0
  4  9  1  0  0  0  0
  4 17  2  0  0  0  0
  5 19  1  0  0  0  0
  6 21  1  0  0  0  0
  7 10  2  0  0  0  0
  7 20  1  0  0  0  0
  8 26  1  0  0  0  0
  9 26  2  0  0  0  0
 10 27  1  0  0  0  0
 11 12  2  0  0  0  0
 11 28  1  0  0  0  0
 12 29  1  0  0  0  0
 13 22  1  0  0  0  0
 13 27  2  0  0  0  0
 14 23  1  0  0  0  0
 14 24  2  0  0  0  0
 15 23  2  0  0  0  0
 15 25  1  0  0  0  0
 16 29  2  0  0  0  0
 16 30  1  0  0  0  0
 17 32  1  0  0  0  0
 18 32  1  0  0  0  0
 18 33  2  0  0  0  0
 18 34  1  0  0  0  0
 19 21  2  0  0  0  0
 19 39  1  0  0  0  0
 20 22  2  0  0  0  0
 20 40  1  0  0  0  0
 21 48  1  0  0  0  0
 22 41  1  0  0  0  0
 23 58  1  0  0  0  0
 24 31  1  0  0  0  0
 24 51  1  0  0  0  0
 25 31  2  0  0  0  0
 25 57  1  0  0  0  0
 26 79  1  0  0  0  0
 27 80  1  0  0  0  0
 28 30  2  0  0  0  0
 28 79  1  0  0  0  0
 29 82  1  0  0  0  0
 30 83  1  0  0  0  0
 31 84  1  0  0  0  0
 32 65  2  0  0  0  0
 33 66  1  0  0  0  0
 33 69  1  0  0  0  0
 34 70  1  0  0  0  0
 34 74  2  0  0  0  0
 35 49  1  0  0  0  0
 35 71  1  0  0  0  0
 35 75  2  0  0  0  0
 36 62  1  0  0  0  0
 36 67  1  0  0  0  0
 36 76  2  0  0  0  0
 37 63  1  0  0  0  0
 37 72  1  0  0  0  0
 37 77  2  0  0  0  0
 38 68  1  0  0  0  0
 38 78  2  0  0  0  0
 38 81  1  0  0  0  0
 39 42  1  0  0  0  0
 40 49  1  0  0  0  0
 41 67  1  0  0  0  0
 42 44  1  0  0  0  0
 43 45  1  0  0  0  0
 43 46  1  0  0  0  0
 44 48  1  0  0  0  0
 45 50  1  0  0  0  0
 46 68  1  0  0  0  0
 47 50  1  0  0  0  0
 47 68  1  0  0  0  0
 48 71  1  0  0  0  0
 49 67  1  0  0  0  0
 50 66  1  0  0  0  0
 52 63  1  0  0  0  0
 53 64  1  0  0  0  0
 54 64  1  0  0  0  0
 55 64  1  0  0  0  0
 56 73  1  0  0  0  0
 57 59  1  0  0  0  0
 58 80  1  0  0  0  0
 59 60  1  0  0  0  0
 60 61  1  0  0  0  0
 61 81  1  0  0  0  0
 62 64  1  0  0  0  0
 62 72  1  0  0  0  0
 63 73  1  0  0  0  0
 65 66  1  0  0  0  0
M  CHG  1  73   1
M  ISO  4  38 100  58 101  80 101  81 100
M  END
> <Batch ID>
0034

> <Smiles>
CNC(C)C(=O)NC(C(=O)N1Cc2cc([101O:1][101CH2:1]c3cc(C)c(F)c(CCCC[100O:0][100C:0](=O)N4CCCC(n5nc(-c6ccc(Oc7ccc(F)cc7F)cc6)c(C(N)=O)c5N)C4)c3)ccc2CC1C(=O)NC1CCCc2ccccc21)C(C)(C)C

> <Shape>
0.172

> <Color>
0.194

> <Negative vol penalty>
0.000

$$$$

  -OEChem-04052316503D

 82 90  0     1  0  0  0  0  0999 V2000
  -23.3227  -30.3918   20.9291 C   0  0  0  0  0  0  0  0  0  0  0  0
  -23.6666  -29.1143   20.4988 C   0  0  0  0  0  0  0  0  0  0  0  0
  -24.6268  -13.7808   23.9268 C   0  0  0  0  0  0  0  0  0  0  0  0
  -24.2134  -15.4540   22.2337 C   0  0  0  0  0  0  0  0  0  0  0  0
  -24.3120  -31.2634   21.3823 C   0  0  0  0  0  0  0  0  0  0  0  0
  -25.0004  -28.7081   20.5204 C   0  0  0  0  0  0  0  0  0  0  0  0
  -27.1163  -23.0795   21.6814 C   0  0  0  0  0  0  0  0  0  0  0  0
  -24.2634  -14.6933   24.9173 C   0  0  0  0  0  0  0  0  0  0  0  0
  -23.8499  -16.3664   23.2241 C   0  0  0  0  0  0  0  0  0  0  0  0
  -27.5324  -22.0432   20.8468 C   0  0  0  0  0  0  0  0  0  0  0  0
  -25.4072  -18.3681   25.4600 C   0  0  0  0  0  0  0  0  0  0  0  0
  -25.9201  -19.6620   25.3688 C   0  0  0  0  0  0  0  0  0  0  0  0
  -29.8209  -22.7602   21.1075 C   0  0  0  0  0  0  0  0  0  0  0  0
  -30.4577  -17.1011   18.1170 C   0  0  0  0  0  0  0  0  0  0  0  0
  -28.5843  -18.8576   17.0273 C   0  0  0  0  0  0  0  0  0  0  0  0
  -23.6743  -20.5432   25.2394 C   0  0  0  0  0  0  0  0  0  0  0  0
  -24.6018  -14.1612   22.5850 C   0  0  0  0  0  0  0  0  0  0  0  0
  -24.1333  -12.3219   20.8806 C   0  0  0  0  0  0  0  0  0  0  0  0
  -25.6574  -30.8643   21.4185 C   0  0  0  0  0  0  0  0  0  0  0  0
  -28.0499  -23.9721   22.2276 C   0  0  0  0  0  0  0  0  0  0  0  0
  -26.0089  -29.5757   20.9732 C   0  0  0  0  0  0  0  0  0  0  0  0
  -29.4143  -23.8055   21.9509 C   0  0  0  0  0  0  0  0  0  0  0  0
  -29.8679  -18.0776   18.9196 C   0  0  0  0  0  0  0  0  0  0  0  0
  -29.1741  -17.8811   16.2246 C   0  0  0  0  0  0  0  0  0  0  0  0
  -30.1108  -17.0029   16.7695 C   0  0  0  0  0  0  0  0  0  0  0  0
  -28.9312  -18.9558   18.3748 C   0  0  0  0  0  0  0  0  0  0  0  0
  -23.8749  -15.9861   24.5659 C   0  0  0  0  0  0  0  0  0  0  0  0
  -28.8846  -21.8852   20.5574 C   0  0  0  0  0  0  0  0  0  0  0  0
  -24.0278  -18.1618   25.4407 C   0  0  0  0  0  0  0  0  0  0  0  0
  -25.0537  -20.7496   25.2585 C   0  0  0  0  0  0  0  0  0  0  0  0
  -23.1613  -19.2493   25.3305 C   0  0  0  0  0  0  0  0  0  0  0  0
  -24.9776  -13.2192   21.5615 C   0  0  0  0  0  0  0  0  0  0  0  0
  -24.9668  -11.6546   20.0165 C   0  0  0  0  0  0  0  0  0  0  0  0
  -22.7218  -12.1104   21.0169 C   0  0  0  0  0  0  0  0  0  0  0  0
  -28.5506  -27.1037   22.0132 C   0  0  0  0  0  0  0  0  0  0  0  0
  -30.7900  -26.5069   24.2829 C   0  0  0  0  0  0  0  0  0  0  0  0
  -32.8871  -24.2580   25.7631 C   0  0  0  0  0  0  0  0  0  0  0  0
  -30.2104  -13.0730   17.4979 C   0  0  0  0  0  0  0  0  0  0  0  0
  -26.6974  -31.8580   21.8720 C   0  0  0  0  0  0  0  0  0  0  0  0
  -27.5876  -25.0686   23.1476 C   0  0  0  0  0  0  0  0  0  0  0  0
  -30.4586  -24.7245   22.5283 C   0  0  0  0  0  0  0  0  0  0  0  0
  -28.0409  -31.2197   22.2154 C   0  0  0  0  0  0  0  0  0  0  0  0
  -29.5130  -10.2417   19.5409 C   0  0  0  0  0  0  0  0  0  0  0  0
  -28.4562  -30.2328   21.1289 C   0  0  0  0  0  0  0  0  0  0  0  0
  -28.1954  -10.6028   20.2290 C   0  0  0  0  0  0  0  0  0  0  0  0
  -30.4134  -11.4631   19.3696 C   0  0  0  0  0  0  0  0  0  0  0  0
  -28.4630  -12.9696   19.3774 C   0  0  0  0  0  0  0  0  0  0  0  0
  -27.4417  -29.0897   21.0048 C   0  0  1  0  0  0  0  0  0  0  0  0
  -28.5729  -26.2300   23.2354 C   0  0  1  0  0  0  0  0  0  0  0  0
  -27.4979  -11.7805   19.5220 C   0  0  2  0  0  0  0  0  0  0  0  0
  -30.2545  -18.1632   20.3596 C   0  0  0  0  0  0  0  0  0  0  0  0
  -28.7876  -17.7955   14.7846 C   0  0  0  0  0  0  0  0  0  0  0  0
  -34.6220  -24.0737   27.5669 C   0  0  0  0  0  0  0  0  0  0  0  0
  -32.8124  -27.9068   22.4773 C   0  0  0  0  0  0  0  0  0  0  0  0
  -34.6403  -26.8754   23.8424 C   0  0  0  0  0  0  0  0  0  0  0  0
  -33.0295  -28.4543   24.9079 C   0  0  0  0  0  0  0  0  0  0  0  0
  -31.2903  -22.2629   27.2559 C   0  0  0  0  0  0  0  0  0  0  0  0
  -30.7560  -15.9500   15.9295 C   0  0  0  0  0  0  0  0  0  0  0  0
  -28.2832  -20.0138   19.2187 C   0  0  0  0  0  0  0  0  0  1  0  0
  -29.8617  -14.7300   15.6834 C   0  0  0  0  0  0  0  0  0  0  0  0
  -32.2529  -26.1345   24.2695 C   0  0  1  0  0  0  0  0  0  0  0  0
  -33.1473  -23.9329   27.2229 C   0  0  2  0  0  0  0  0  0  0  0  0
  -33.1642  -27.3264   23.8617 C   0  0  0  0  0  0  0  0  0  0  0  0
  -26.2499  -13.1324   21.1643 N   0  0  0  0  0  0  0  0  0  0  0  0
  -26.2112  -12.1725   20.2246 N   0  0  0  0  0  0  0  0  0  0  0  0
  -29.9561  -25.7851   23.4171 N   0  0  0  0  0  0  0  0  0  0  0  0
  -29.6926  -12.5430   18.6912 N   0  0  0  0  0  0  0  0  0  0  0  0
  -24.7492  -10.6813   19.1068 N   0  0  0  0  0  0  0  0  0  0  0  0
  -22.0179  -12.8815   21.9519 N   0  0  0  0  0  0  0  0  0  0  0  0
  -27.6278  -28.1305   22.0724 N   0  0  0  0  0  0  0  0  0  0  0  0
  -32.5456  -25.5823   25.5878 N   0  0  0  0  0  0  0  0  0  0  0  0
  -29.4619  -14.0892   16.9165 N   0  0  0  0  0  0  0  0  0  0  0  0
  -32.7254  -22.5360   27.5257 N   0  3  0  0  0  0  0  0  0  0  0  0
  -22.1059  -11.2512   20.3416 O   0  0  0  0  0  0  0  0  0  0  0  0
  -29.3152  -26.8649   21.0858 O   0  0  0  0  0  0  0  0  0  0  0  0
  -30.4003  -27.4003   25.0389 O   0  0  0  0  0  0  0  0  0  0  0  0
  -32.9813  -23.4217   24.8674 O   0  0  0  0  0  0  0  0  0  0  0  0
  -31.2589  -12.6668   16.9855 O   0  0  0  0  0  0  0  0  0  0  0  0
  -23.5200  -16.8766   25.5321 O   0  0  0  0  0  0  0  0  0  0  0  0
  -29.2934  -20.8749   19.7425 O   0  0  0  0  0  0  0  0  0  1  0  0
  -25.5464  -21.9922   25.1726 F   0  0  0  0  0  0  0  0  0  0  0  0
  -21.8352  -19.0574   25.3127 F   0  0  0  0  0  0  0  0  0  0  0  0
  1  2  1  0  0  0  0
  1  5  2  0  0  0  0
  2  6  2  0  0  0  0
  3  8  2  0  0  0  0
  3 17  1  0  0  0  0
  4  9  1  0  0  0  0
  4 17  2  0  0  0  0
  5 19  1  0  0  0  0
  6 21  1  0  0  0  0
  7 10  2  0  0  0  0
  7 20  1  0  0  0  0
  8 27  1  0  0  0  0
  9 27  2  0  0  0  0
 10 28  1  0  0  0  0
 11 12  2  0  0  0  0
 11 29  1  0  0  0  0
 12 30  1  0  0  0  0
 13 22  1  0  0  0  0
 13 28  2  0  0  0  0
 14 23  1  0  0  0  0
 14 25  2  0  0  0  0
 15 24  2  0  0  0  0
 15 26  1  0  0  0  0
 16 30  2  0  0  0  0
 16 31  1  0  0  0  0
 17 32  1  0  0  0  0
 18 32  1  0  0  0  0
 18 33  2  0  0  0  0
 18 34  1  0  0  0  0
 19 21  2  0  0  0  0
 19 39  1  0  0  0  0
 20 22  2  0  0  0  0
 20 40  1  0  0  0  0
 21 48  1  0  0  0  0
 22 41  1  0  0  0  0
 23 26  2  0  0  0  0
 23 51  1  0  0  0  0
 24 25  1  0  0  0  0
 24 52  1  0  0  0  0
 25 58  1  0  0  0  0
 26 59  1  0  0  0  0
 27 79  1  0  0  0  0
 28 80  1  0  0  0  0
 29 31  2  0  0  0  0
 29 79  1  0  0  0  0
 30 81  1  0  0  0  0
 31 82  1  0  0  0  0
 32 64  2  0  0  0  0
 33 65  1  0  0  0  0
 33 68  1  0  0  0  0
 34 69  1  0  0  0  0
 34 74  2  0  0  0  0
 35 49  1  0  0  0  0
 35 70  1  0  0  0  0
 35 75  2  0  0  0  0
 36 61  1  0  0  0  0
 36 66  1  0  0  0  0
 36 76  2  0  0  0  0
 37 62  1  0  0  0  0
 37 71  1  0  0  0  0
 37 77  2  0  0  0  0
 38 67  1  0  0  0  0
 38 72  1  0  0  0  0
 38 78  2  0  0  0  0
 39 42  1  0  0  0  0
 40 49  1  0  0  0  0
 41 66  1  0  0  0  0
 42 44  1  0  0  0  0
 43 45  1  0  0  0  0
 43 46  1  0  0  0  0
 44 48  1  0  0  0  0
 45 50  1  0  0  0  0
 46 67  1  0  0  0  0
 47 50  1  0  0  0  0
 47 67  1  0  0  0  0
 48 70  1  0  0  0  0
 49 66  1  0  0  0  0
 50 65  1  0  0  0  0
 53 62  1  0  0  0  0
 54 63  1  0  0  0  0
 55 63  1  0  0  0  0
 56 63  1  0  0  0  0
 57 73  1  0  0  0  0
 58 60  1  0  0  0  0
 59 80  1  0  0  0  0
 60 72  1  0  0  0  0
 61 63  1  0  0  0  0
 61 71  1  0  0  0  0
 62 73  1  0  0  0  0
 64 65  1  0  0  0  0
M  CHG  1  73   1
M  ISO  4  38 100  59 101  72 100  80 101
M  END
> <Batch ID>
0034

> <Smiles>
CNC(C)C(=O)NC(C(=O)N1Cc2cc([101O:1][101CH2:1]c3cc(C)c(CC[100NH:0][100C:0](=O)N4CCCC(n5nc(-c6ccc(Oc7ccc(F)cc7F)cc6)c(C(N)=O)c5N)C4)cc3C)ccc2CC1C(=O)NC1CCCc2ccccc21)C(C)(C)C

> <Shape>
0.196

> <Color>
0.084

> <Negative vol penalty>
0.000

$$$$

  -OEChem-04052316503D

 84 92  0     1  0  0  0  0  0999 V2000
  -22.1104  -10.9835   20.4057 C   0  0  0  0  0  0  0  0  0  0  0  0
  -21.8474  -12.1038   21.1875 C   0  0  0  0  0  0  0  0  0  0  0  0
  -25.1095  -27.9244   19.4034 C   0  0  0  0  0  0  0  0  0  0  0  0
  -25.4374  -25.8043   20.5146 C   0  0  0  0  0  0  0  0  0  0  0  0
  -23.3978  -10.7610   19.9190 C   0  0  0  0  0  0  0  0  0  0  0  0
  -22.8722  -13.0017   21.4840 C   0  0  0  0  0  0  0  0  0  0  0  0
  -22.3804  -19.0744   22.1058 C   0  0  0  0  0  0  0  0  0  0  0  0
  -26.4876  -28.1396   19.4073 C   0  0  0  0  0  0  0  0  0  0  0  0
  -26.8155  -26.0195   20.5185 C   0  0  0  0  0  0  0  0  0  0  0  0
  -22.2704  -19.8967   23.2262 C   0  0  0  0  0  0  0  0  0  0  0  0
  -29.8942  -29.4114   19.4478 C   0  0  0  0  0  0  0  0  0  0  0  0
  -30.3538  -30.6740   19.8221 C   0  0  0  0  0  0  0  0  0  0  0  0
  -24.6519  -20.2777   23.1729 C   0  0  0  0  0  0  0  0  0  0  0  0
  -21.9383  -25.4786   27.3273 C   0  0  0  0  0  0  0  0  0  0  0  0
  -29.3064  -30.4146   21.9837 C   0  0  0  0  0  0  0  0  0  0  0  0
  -24.5843  -26.7568   19.9571 C   0  0  0  0  0  0  0  0  0  0  0  0
  -22.4028  -25.8934   18.9555 C   0  0  0  0  0  0  0  0  0  0  0  0
  -24.4367  -11.6618   20.2016 C   0  0  0  0  0  0  0  0  0  0  0  0
  -23.6306  -18.8385   21.5160 C   0  0  0  0  0  0  0  0  0  0  0  0
  -24.1751  -12.7904   21.0017 C   0  0  0  0  0  0  0  0  0  0  0  0
  -24.7747  -19.4541   22.0434 C   0  0  0  0  0  0  0  0  0  0  0  0
  -23.3296  -25.4282   27.2430 C   0  0  0  0  0  0  0  0  0  0  0  0
  -21.1978  -24.2967   27.3527 C   0  0  0  0  0  0  0  0  0  0  0  0
  -23.9806  -24.1960   27.1838 C   0  0  0  0  0  0  0  0  0  0  0  0
  -23.2401  -23.0141   27.2091 C   0  0  0  0  0  0  0  0  0  0  0  0
  -27.3406  -27.1872   19.9648 C   0  0  0  0  0  0  0  0  0  0  0  0
  -23.4066  -20.4962   23.7617 C   0  0  0  0  0  0  0  0  0  0  0  0
  -29.1405  -28.6504   20.3414 C   0  0  0  0  0  0  0  0  0  0  0  0
  -30.0600  -31.1756   21.0900 C   0  0  0  0  0  0  0  0  0  0  0  0
  -28.8466  -29.1520   21.6094 C   0  0  0  0  0  0  0  0  0  0  0  0
  -21.8487  -23.0645   27.2935 C   0  0  0  0  0  0  0  0  0  0  0  0
  -23.1608  -26.5341   19.9539 C   0  0  0  0  0  0  0  0  0  0  0  0
  -21.1120  -25.9378   19.4228 C   0  0  0  0  0  0  0  0  0  0  0  0
  -22.8276  -25.3102   17.7165 C   0  0  0  0  0  0  0  0  0  0  0  0
  -25.4320  -16.2649   21.0308 C   0  0  0  0  0  0  0  0  0  0  0  0
  -27.2818  -18.3518   19.3737 C   0  0  0  0  0  0  0  0  0  0  0  0
  -28.2537  -21.5818   18.8548 C   0  0  0  0  0  0  0  0  0  0  0  0
  -18.7783  -26.3505   24.9214 C   0  0  0  0  0  0  0  0  0  0  0  0
  -25.8228  -11.3543   19.6927 C   0  0  0  0  0  0  0  0  0  0  0  0
  -23.7286  -17.9703   20.2916 C   0  0  0  0  0  0  0  0  0  0  0  0
  -26.1372  -19.2491   21.4353 C   0  0  0  0  0  0  0  0  0  0  0  0
  -26.7687  -12.5514   19.7405 C   0  0  0  0  0  0  0  0  0  0  0  0
  -18.2185  -28.5606   22.1867 C   0  0  0  0  0  0  0  0  0  0  0  0
  -26.6692  -13.2569   21.0893 C   0  0  0  0  0  0  0  0  0  0  0  0
  -19.3533  -28.2341   21.2143 C   0  0  0  0  0  0  0  0  0  0  0  0
  -18.6769  -28.4683   23.6404 C   0  0  0  0  0  0  0  0  0  0  0  0
  -20.4467  -26.8628   23.0371 C   0  0  0  0  0  0  0  0  0  0  0  0
  -25.2547  -13.8006   21.3244 C   0  0  1  0  0  0  0  0  0  0  0  0
  -25.1232  -17.3883   20.0819 C   0  0  1  0  0  0  0  0  0  0  0  0
  -20.0180  -26.8880   21.5600 C   0  0  2  0  0  0  0  0  0  0  0  0
  -24.0988  -26.7081   27.2174 C   0  0  0  0  0  0  0  0  0  0  0  0
  -25.4734  -24.1474   27.0948 C   0  0  0  0  0  0  0  0  0  0  0  0
  -29.4209  -23.5149   17.7604 C   0  0  0  0  0  0  0  0  0  0  0  0
  -29.6350  -17.4293   21.0829 C   0  0  0  0  0  0  0  0  0  0  0  0
  -30.8884  -19.4617   20.3303 C   0  0  0  0  0  0  0  0  0  0  0  0
  -30.1684  -17.7533   18.6612 C   0  0  0  0  0  0  0  0  0  0  0  0
  -26.0176  -22.0117   16.9643 C   0  0  0  0  0  0  0  0  0  0  0  0
  -19.7089  -24.3995   27.4436 C   0  0  0  0  0  0  0  0  0  0  0  0
  -23.9631  -21.6906   27.1452 C   0  0  0  0  0  0  0  0  0  0  0  0
  -18.9989  -24.1798   26.1040 C   0  0  0  0  0  0  0  0  0  0  0  0
  -24.4266  -21.3507   25.7329 C   0  0  0  0  0  0  0  0  0  1  0  0
  -28.4360  -19.2625   19.7163 C   0  0  1  0  0  0  0  0  0  0  0  0
  -28.4070  -22.3955   17.5825 C   0  0  2  0  0  0  0  0  0  0  0  0
  -29.7567  -18.4792   19.9605 C   0  0  0  0  0  0  0  0  0  0  0  0
  -22.4138  -26.9549   20.9781 N   0  0  0  0  0  0  0  0  0  0  0  0
  -21.1729  -26.5778   20.6257 N   0  0  0  0  0  0  0  0  0  0  0  0
  -26.1823  -18.3866   20.2430 N   0  0  0  0  0  0  0  0  0  0  0  0
  -19.2969  -27.1673   23.9031 N   0  0  0  0  0  0  0  0  0  0  0  0
  -19.9422  -25.4915   18.9180 N   0  0  0  0  0  0  0  0  0  0  0  0
  -24.1902  -25.3513   17.3911 N   0  0  0  0  0  0  0  0  0  0  0  0
  -25.0499  -15.0191   20.5710 N   0  0  0  0  0  0  0  0  0  0  0  0
  -28.5141  -20.2448   18.6405 N   0  0  0  0  0  0  0  0  0  0  0  0
  -19.4205  -25.1313   25.1002 N   0  0  0  0  0  0  0  0  0  0  0  0
  -27.1017  -23.0010   17.1945 N   0  3  0  0  0  0  0  0  0  0  0  0
  -22.0203  -24.7833   16.9138 O   0  0  0  0  0  0  0  0  0  0  0  0
  -25.9780  -16.5101   22.1001 O   0  0  0  0  0  0  0  0  0  0  0  0
  -27.3502  -17.6410   18.3678 O   0  0  0  0  0  0  0  0  0  0  0  0
  -27.9383  -22.0827   19.9320 O   0  0  0  0  0  0  0  0  0  0  0  0
  -17.8111  -26.6808   25.6160 O   0  0  0  0  0  0  0  0  0  0  0  0
  -28.6855  -27.3967   19.9686 O   0  0  0  0  0  0  0  0  0  0  0  0
  -23.3022  -21.2988   24.8557 O   0  0  0  0  0  0  0  0  0  1  0  0
  -30.5028  -32.3875   21.4498 F   0  0  0  0  0  0  0  0  0  0  0  0
  -28.1240  -28.4250   22.4726 F   0  0  0  0  0  0  0  0  0  0  0  0
  -20.9258  -21.5988   27.3242 Cl  0  0  0  0  0  0  0  0  0  0  0  0
  1  2  1  0  0  0  0
  1  5  2  0  0  0  0
  2  6  2  0  0  0  0
  3  8  2  0  0  0  0
  3 16  1  0  0  0  0
  4  9  1  0  0  0  0
  4 16  2  0  0  0  0
  5 18  1  0  0  0  0
  6 20  1  0  0  0  0
  7 10  2  0  0  0  0
  7 19  1  0  0  0  0
  8 26  1  0  0  0  0
  9 26  2  0  0  0  0
 10 27  1  0  0  0  0
 11 12  2  0  0  0  0
 11 28  1  0  0  0  0
 12 29  1  0  0  0  0
 13 21  1  0  0  0  0
 13 27  2  0  0  0  0
 14 22  1  0  0  0  0
 14 23  2  0  0  0  0
 15 29  2  0  0  0  0
 15 30  1  0  0  0  0
 16 32  1  0  0  0  0
 17 32  1  0  0  0  0
 17 33  2  0  0  0  0
 17 34  1  0  0  0  0
 18 20  2  0  0  0  0
 18 39  1  0  0  0  0
 19 21  2  0  0  0  0
 19 40  1  0  0  0  0
 20 48  1  0  0  0  0
 21 41  1  0  0  0  0
 22 24  2  0  0  0  0
 22 51  1  0  0  0  0
 23 31  1  0  0  0  0
 23 58  1  0  0  0  0
 24 25  1  0  0  0  0
 24 52  1  0  0  0  0
 25 31  2  0  0  0  0
 25 59  1  0  0  0  0
 26 80  1  0  0  0  0
 27 81  1  0  0  0  0
 28 30  2  0  0  0  0
 28 80  1  0  0  0  0
 29 82  1  0  0  0  0
 30 83  1  0  0  0  0
 31 84  1  0  0  0  0
 32 65  2  0  0  0  0
 33 66  1  0  0  0  0
 33 69  1  0  0  0  0
 34 70  1  0  0  0  0
 34 75  2  0  0  0  0
 35 49  1  0  0  0  0
 35 71  1  0  0  0  0
 35 76  2  0  0  0  0
 36 62  1  0  0  0  0
 36 67  1  0  0  0  0
 36 77  2  0  0  0  0
 37 63  1  0  0  0  0
 37 72  1  0  0  0  0
 37 78  2  0  0  0  0
 38 68  1  0  0  0  0
 38 73  1  0  0  0  0
 38 79  2  0  0  0  0
 39 42  1  0  0  0  0
 40 49  1  0  0  0  0
 41 67  1  0  0  0  0
 42 44  1  0  0  0  0
 43 45  1  0  0  0  0
 43 46  1  0  0  0  0
 44 48  1  0  0  0  0
 45 50  1  0  0  0  0
 46 68  1  0  0  0  0
 47 50  1  0  0  0  0
 47 68  1  0  0  0  0
 48 71  1  0  0  0  0
 49 67  1  0  0  0  0
 50 66  1  0  0  0  0
 53 63  1  0  0  0  0
 54 64  1  0  0  0  0
 55 64  1  0  0  0  0
 56 64  1  0  0  0  0
 57 74  1  0  0  0  0
 58 60  1  0  0  0  0
 59 61  1  0  0  0  0
 60 73  1  0  0  0  0
 61 81  1  0  0  0  0
 62 64  1  0  0  0  0
 62 72  1  0  0  0  0
 63 74  1  0  0  0  0
 65 66  1  0  0  0  0
M  CHG  1  74   1
M  ISO  4  38 100  61 101  73 100  81 101
M  END
> <Batch ID>
0034

> <Smiles>
CNC(C)C(=O)NC(C(=O)N1Cc2cc([101O:1][101CH2:1]Cc3c(C)c(C)cc(CC[100NH:0][100C:0](=O)N4CCCC(n5nc(-c6ccc(Oc7ccc(F)cc7F)cc6)c(C(N)=O)c5N)C4)c3Cl)ccc2CC1C(=O)NC1CCCc2ccccc21)C(C)(C)C

> <Shape>
0.190

> <Color>
0.071

> <Negative vol penalty>
0.000

$$$$

  -OEChem-04052316503D

 85 93  0     1  0  0  0  0  0999 V2000
  -22.2372   -8.5782   21.0985 C   0  0  0  0  0  0  0  0  0  0  0  0
  -22.1597   -9.6877   21.9341 C   0  0  0  0  0  0  0  0  0  0  0  0
  -28.1094  -28.5257   20.7638 C   0  0  0  0  0  0  0  0  0  0  0  0
  -26.5038  -27.0926   19.6660 C   0  0  0  0  0  0  0  0  0  0  0  0
  -23.2660   -8.4825   20.1623 C   0  0  0  0  0  0  0  0  0  0  0  0
  -23.1117  -10.7018   21.8349 C   0  0  0  0  0  0  0  0  0  0  0  0
  -22.2002  -16.7010   22.6624 C   0  0  0  0  0  0  0  0  0  0  0  0
  -19.7167  -21.1901   25.7054 C   0  0  0  0  0  0  0  0  0  0  0  0
  -18.6504  -21.5099   24.8649 C   0  0  0  0  0  0  0  0  0  0  0  0
  -29.1215  -27.6084   20.4810 C   0  0  0  0  0  0  0  0  0  0  0  0
  -27.5158  -26.1753   19.3831 C   0  0  0  0  0  0  0  0  0  0  0  0
  -22.4239  -17.5423   23.7514 C   0  0  0  0  0  0  0  0  0  0  0  0
  -29.2204  -23.7612   21.0254 C   0  0  0  0  0  0  0  0  0  0  0  0
  -28.9548  -22.4115   21.2564 C   0  0  0  0  0  0  0  0  0  0  0  0
  -24.5530  -18.1800   22.8137 C   0  0  0  0  0  0  0  0  0  0  0  0
  -20.7366  -23.3269   25.2245 C   0  0  0  0  0  0  0  0  0  0  0  0
  -29.3444  -21.9351   18.9201 C   0  0  0  0  0  0  0  0  0  0  0  0
  -26.8005  -28.2678   20.3563 C   0  0  0  0  0  0  0  0  0  0  0  0
  -25.3376  -30.2948   19.8480 C   0  0  0  0  0  0  0  0  0  0  0  0
  -24.2255   -9.5004   20.0450 C   0  0  0  0  0  0  0  0  0  0  0  0
  -23.1577  -16.5844   21.6445 C   0  0  0  0  0  0  0  0  0  0  0  0
  -24.1551  -10.6190   20.8972 C   0  0  0  0  0  0  0  0  0  0  0  0
  -24.3379  -17.3385   21.7115 C   0  0  0  0  0  0  0  0  0  0  0  0
  -20.7598  -22.0987   25.8852 C   0  0  0  0  0  0  0  0  0  0  0  0
  -18.6272  -22.7382   24.2042 C   0  0  0  0  0  0  0  0  0  0  0  0
  -19.6703  -23.6467   24.3840 C   0  0  0  0  0  0  0  0  0  0  0  0
  -28.8247  -26.4333   19.7906 C   0  0  0  0  0  0  0  0  0  0  0  0
  -23.6017  -18.2798   23.8286 C   0  0  0  0  0  0  0  0  0  0  0  0
  -29.5479  -24.1979   19.7418 C   0  0  0  0  0  0  0  0  0  0  0  0
  -29.0168  -21.4984   20.2037 C   0  0  0  0  0  0  0  0  0  0  0  0
  -29.6099  -23.2848   18.6891 C   0  0  0  0  0  0  0  0  0  0  0  0
  -25.7546  -29.2146   20.6486 C   0  0  0  0  0  0  0  0  0  0  0  0
  -24.3230  -30.8815   20.5641 C   0  0  0  0  0  0  0  0  0  0  0  0
  -25.8239  -30.7290   18.5710 C   0  0  0  0  0  0  0  0  0  0  0  0
  -24.9277  -14.2094   20.4913 C   0  0  0  0  0  0  0  0  0  0  0  0
  -25.7743  -16.4314   18.2849 C   0  0  0  0  0  0  0  0  0  0  0  0
  -26.1077  -19.7299   17.4752 C   0  0  0  0  0  0  0  0  0  0  0  0
  -20.5421  -28.8142   24.7212 C   0  0  0  0  0  0  0  0  0  0  0  0
  -25.3464   -9.3303   19.0504 C   0  0  0  0  0  0  0  0  0  0  0  0
  -22.8894  -15.6928   20.4632 C   0  0  0  0  0  0  0  0  0  0  0  0
  -25.3885  -17.2645   20.6348 C   0  0  0  0  0  0  0  0  0  0  0  0
  -26.0990  -10.6248   18.7534 C   0  0  0  0  0  0  0  0  0  0  0  0
  -22.8050  -31.5429   25.0529 C   0  0  0  0  0  0  0  0  0  0  0  0
  -26.4308  -11.3586   20.0488 C   0  0  0  0  0  0  0  0  0  0  0  0
  -23.7799  -31.3531   23.8895 C   0  0  0  0  0  0  0  0  0  0  0  0
  -22.3697  -30.2057   25.6484 C   0  0  0  0  0  0  0  0  0  0  0  0
  -22.7949  -29.0540   23.5114 C   0  0  0  0  0  0  0  0  0  0  0  0
  -25.1546  -11.7513   20.8029 C   0  0  1  0  0  0  0  0  0  0  0  0
  -24.1612  -15.2607   19.7398 C   0  0  1  0  0  0  0  0  0  0  0  0
  -23.2189  -30.3726   22.8421 C   0  0  2  0  0  0  0  0  0  0  0  0
  -17.5707  -22.3404   21.9655 C   0  0  0  0  0  0  0  0  0  0  0  0
  -26.8606  -21.2349   15.6136 C   0  0  0  0  0  0  0  0  0  0  0  0
  -28.6841  -15.8284   18.9774 C   0  0  0  0  0  0  0  0  0  0  0  0
  -29.3257  -17.9604   17.8323 C   0  0  0  0  0  0  0  0  0  0  0  0
  -28.2338  -16.1301   16.5360 C   0  0  0  0  0  0  0  0  0  0  0  0
  -23.4251  -20.9544   17.2244 C   0  0  0  0  0  0  0  0  0  0  0  0
  -21.9126  -21.7525   26.7934 C   0  0  0  0  0  0  0  0  0  0  0  0
  -17.4756  -23.0578   23.3086 C   0  0  0  0  0  0  0  0  0  0  0  0
  -19.6671  -24.9675   23.6868 C   0  0  0  0  0  0  0  0  0  0  0  0
  -23.0656  -21.0416   26.0815 C   0  0  0  0  0  0  0  0  0  0  0  0
  -18.7661  -26.0309   24.3432 C   0  0  0  0  0  0  0  0  0  0  0  0
  -18.8037  -27.3962   23.6599 C   0  0  0  0  0  0  0  0  0  0  0  0
  -22.6771  -19.6820   25.5123 C   0  0  0  0  0  0  0  0  0  1  0  0
  -26.8612  -17.4738   18.1799 C   0  0  1  0  0  0  0  0  0  0  0  0
  -25.6811  -20.5137   16.2472 C   0  0  2  0  0  0  0  0  0  0  0  0
  -28.2575  -16.8483   17.9028 C   0  0  0  0  0  0  0  0  0  0  0  0
  -25.0616  -29.1186   21.7865 N   0  0  0  0  0  0  0  0  0  0  0  0
  -24.1990  -30.1460   21.7059 N   0  0  0  0  0  0  0  0  0  0  0  0
  -25.0828  -16.3738   19.5032 N   0  0  0  0  0  0  0  0  0  0  0  0
  -21.8461  -29.3229   24.6033 N   0  0  0  0  0  0  0  0  0  0  0  0
  -23.5339  -31.9498   20.3223 N   0  0  0  0  0  0  0  0  0  0  0  0
  -26.8712  -30.0125   17.9760 N   0  0  0  0  0  0  0  0  0  0  0  0
  -24.5460  -12.9149   20.1946 N   0  0  0  0  0  0  0  0  0  0  0  0
  -26.4195  -18.4233   17.1641 N   0  0  0  0  0  0  0  0  0  0  0  0
  -20.1217  -27.9905   23.6841 N   0  0  0  0  0  0  0  0  0  0  0  0
  -24.6511  -21.5273   16.6116 N   0  3  0  0  0  0  0  0  0  0  0  0
  -25.3548  -31.7327   17.9827 O   0  0  0  0  0  0  0  0  0  0  0  0
  -25.8019  -14.5476   21.2807 O   0  0  0  0  0  0  0  0  0  0  0  0
  -25.5425  -15.7001   17.3189 O   0  0  0  0  0  0  0  0  0  0  0  0
  -26.1627  -20.2280   18.5974 O   0  0  0  0  0  0  0  0  0  0  0  0
  -19.8051  -29.0790   25.6771 O   0  0  0  0  0  0  0  0  0  0  0  0
  -29.8120  -25.5381   19.5143 O   0  0  0  0  0  0  0  0  0  0  0  0
  -23.8228  -19.1012   24.8908 O   0  0  0  0  0  0  0  0  0  1  0  0
  -28.7633  -20.2021   20.4259 F   0  0  0  0  0  0  0  0  0  0  0  0
  -29.9252  -23.6982   17.4540 F   0  0  0  0  0  0  0  0  0  0  0  0
  1  2  1  0  0  0  0
  1  5  2  0  0  0  0
  2  6  2  0  0  0  0
  3 10  2  0  0  0  0
  3 18  1  0  0  0  0
  4 11  1  0  0  0  0
  4 18  2  0  0  0  0
  5 20  1  0  0  0  0
  6 22  1  0  0  0  0
  7 12  2  0  0  0  0
  7 21  1  0  0  0  0
  8  9  2  0  0  0  0
  8 24  1  0  0  0  0
  9 25  1  0  0  0  0
 10 27  1  0  0  0  0
 11 27  2  0  0  0  0
 12 28  1  0  0  0  0
 13 14  2  0  0  0  0
 13 29  1  0  0  0  0
 14 30  1  0  0  0  0
 15 23  1  0  0  0  0
 15 28  2  0  0  0  0
 16 24  2  0  0  0  0
 16 26  1  0  0  0  0
 17 30  2  0  0  0  0
 17 31  1  0  0  0  0
 18 32  1  0  0  0  0
 19 32  1  0  0  0  0
 19 33  2  0  0  0  0
 19 34  1  0  0  0  0
 20 22  2  0  0  0  0
 20 39  1  0  0  0  0
 21 23  2  0  0  0  0
 21 40  1  0  0  0  0
 22 48  1  0  0  0  0
 23 41  1  0  0  0  0
 24 57  1  0  0  0  0
 25 26  2  0  0  0  0
 25 58  1  0  0  0  0
 26 59  1  0  0  0  0
 27 82  1  0  0  0  0
 28 83  1  0  0  0  0
 29 31  2  0  0  0  0
 29 82  1  0  0  0  0
 30 84  1  0  0  0  0
 31 85  1  0  0  0  0
 32 67  2  0  0  0  0
 33 68  1  0  0  0  0
 33 71  1  0  0  0  0
 34 72  1  0  0  0  0
 34 77  2  0  0  0  0
 35 49  1  0  0  0  0
 35 73  1  0  0  0  0
 35 78  2  0  0  0  0
 36 64  1  0  0  0  0
 36 69  1  0  0  0  0
 36 79  2  0  0  0  0
 37 65  1  0  0  0  0
 37 74  1  0  0  0  0
 37 80  2  0  0  0  0
 38 70  1  0  0  0  0
 38 75  1  0  0  0  0
 38 81  2  0  0  0  0
 39 42  1  0  0  0  0
 40 49  1  0  0  0  0
 41 69  1  0  0  0  0
 42 44  1  0  0  0  0
 43 45  1  0  0  0  0
 43 46  1  0  0  0  0
 44 48  1  0  0  0  0
 45 50  1  0  0  0  0
 46 70  1  0  0  0  0
 47 50  1  0  0  0  0
 47 70  1  0  0  0  0
 48 73  1  0  0  0  0
 49 69  1  0  0  0  0
 50 68  1  0  0  0  0
 51 58  1  0  0  0  0
 52 65  1  0  0  0  0
 53 66  1  0  0  0  0
 54 66  1  0  0  0  0
 55 66  1  0  0  0  0
 56 76  1  0  0  0  0
 57 60  1  0  0  0  0
 59 61  1  0  0  0  0
 60 63  1  0  0  0  0
 61 62  1  0  0  0  0
 62 75  1  0  0  0  0
 63 83  1  0  0  0  0
 64 66  1  0  0  0  0
 64 74  1  0  0  0  0
 65 76  1  0  0  0  0
 67 68  1  0  0  0  0
M  CHG  1  76   1
M  ISO  4  38 100  63 101  75 100  83 101
M  END
> <Batch ID>
0034

> <Smiles>
CCc1ccc(CC[101CH2:1][101O:1]c2ccc3c(c2)CN(C(=O)C(NC(=O)C(C)NC)C(C)(C)C)C(C(=O)NC2CCCc4ccccc42)C3)cc1CCC[100NH:0][100C:0](=O)N1CCCC(n2nc(-c3ccc(Oc4ccc(F)cc4F)cc3)c(C(N)=O)c2N)C1

> <Shape>
0.219

> <Color>
0.047

> <Negative vol penalty>
0.000

$$$$

  -OEChem-04052316503D

 82 90  0     1  0  0  0  0  0999 V2000
  -20.5128  -22.6188   23.2175 C   0  0  0  0  0  0  0  0  0  0  0  0
  -21.7752  -22.8743   22.6916 C   0  0  0  0  0  0  0  0  0  0  0  0
  -27.0511  -12.7892   21.4828 C   0  0  0  0  0  0  0  0  0  0  0  0
  -26.5371  -13.9187   19.4098 C   0  0  0  0  0  0  0  0  0  0  0  0
  -19.5661  -23.6403   23.2822 C   0  0  0  0  0  0  0  0  0  0  0  0
  -22.0912  -24.1512   22.2290 C   0  0  0  0  0  0  0  0  0  0  0  0
  -26.6612  -25.6989   23.7669 C   0  0  0  0  0  0  0  0  0  0  0  0
  -26.3027  -11.6876   21.0682 C   0  0  0  0  0  0  0  0  0  0  0  0
  -25.7886  -12.8171   18.9952 C   0  0  0  0  0  0  0  0  0  0  0  0
  -27.7676  -25.1877   23.0900 C   0  0  0  0  0  0  0  0  0  0  0  0
  -23.0412  -10.8197   20.8835 C   0  0  0  0  0  0  0  0  0  0  0  0
  -22.1656  -10.2476   21.8063 C   0  0  0  0  0  0  0  0  0  0  0  0
  -27.9172  -27.2256   21.8079 C   0  0  0  0  0  0  0  0  0  0  0  0
  -28.2634  -21.1904   19.1213 C   0  0  0  0  0  0  0  0  0  0  0  0
  -30.3783  -22.3350   19.1585 C   0  0  0  0  0  0  0  0  0  0  0  0
  -23.3522   -8.1502   21.6319 C   0  0  0  0  0  0  0  0  0  0  0  0
  -27.1683  -13.9048   20.6536 C   0  0  0  0  0  0  0  0  0  0  0  0
  -29.3132  -15.2696   20.8644 C   0  0  0  0  0  0  0  0  0  0  0  0
  -19.8738  -24.9328   22.8291 C   0  0  0  0  0  0  0  0  0  0  0  0
  -26.1669  -26.9751   23.4612 C   0  0  0  0  0  0  0  0  0  0  0  0
  -21.1472  -25.1906   22.2864 C   0  0  0  0  0  0  0  0  0  0  0  0
  -26.8059  -27.7517   22.4841 C   0  0  0  0  0  0  0  0  0  0  0  0
  -29.6530  -21.1505   19.0948 C   0  0  0  0  0  0  0  0  0  0  0  0
  -25.6715  -11.7015   19.8244 C   0  0  0  0  0  0  0  0  0  0  0  0
  -28.3940  -25.9499   22.1083 C   0  0  0  0  0  0  0  0  0  0  0  0
  -24.0723  -10.0570   20.3348 C   0  0  0  0  0  0  0  0  0  0  0  0
  -22.3211   -8.9129   22.1806 C   0  0  0  0  0  0  0  0  0  0  0  0
  -24.2278   -8.7223   20.7091 C   0  0  0  0  0  0  0  0  0  0  0  0
  -27.9408  -15.0433   21.0816 C   0  0  0  0  0  0  0  0  0  0  0  0
  -27.6518  -22.4304   19.2117 C   0  0  0  0  0  0  0  0  0  0  0  0
  -29.6720  -23.5238   19.2471 C   0  0  0  0  0  0  0  0  0  0  0  0
  -29.5602  -16.4812   21.4623 C   0  0  0  0  0  0  0  0  0  0  0  0
  -30.2783  -14.4573   20.1830 C   0  0  0  0  0  0  0  0  0  0  0  0
  -23.4175  -28.1055   22.3357 C   0  0  0  0  0  0  0  0  0  0  0  0
  -24.8010  -30.9772   22.9368 C   0  0  0  0  0  0  0  0  0  0  0  0
  -27.6676  -32.7817   23.3528 C   0  0  0  0  0  0  0  0  0  0  0  0
  -26.0814  -21.1861   22.7323 C   0  0  0  0  0  0  0  0  0  0  0  0
  -18.8020  -25.9928   22.8758 C   0  0  0  0  0  0  0  0  0  0  0  0
  -24.9888  -27.5227   24.2192 C   0  0  0  0  0  0  0  0  0  0  0  0
  -26.3268  -29.1357   22.1329 C   0  0  0  0  0  0  0  0  0  0  0  0
  -19.3407  -27.4115   22.7097 C   0  0  0  0  0  0  0  0  0  0  0  0
  -28.0257  -19.2800   25.0264 C   0  0  0  0  0  0  0  0  0  0  0  0
  -20.3252  -27.4758   21.5463 C   0  0  0  0  0  0  0  0  0  0  0  0
  -28.3482  -17.9985   24.2560 C   0  0  0  0  0  0  0  0  0  0  0  0
  -26.6230  -19.7924   24.7073 C   0  0  0  0  0  0  0  0  0  0  0  0
  -26.6656  -18.6958   22.5007 C   0  0  0  0  0  0  0  0  0  0  0  0
  -21.5360  -26.5689   21.7974 C   0  0  1  0  0  0  0  0  0  0  0  0
  -24.2563  -28.6295   23.4668 C   0  0  1  0  0  0  0  0  0  0  0  0
  -28.0906  -18.1715   22.7470 C   0  0  2  0  0  0  0  0  0  0  0  0
  -30.3626  -19.8424   18.9994 C   0  0  0  0  0  0  0  0  0  0  0  0
  -28.4802  -35.1144   23.7950 C   0  0  0  0  0  0  0  0  0  0  0  0
  -24.1929  -31.7348   20.0444 C   0  0  0  0  0  0  0  0  0  0  0  0
  -25.8247  -33.6203   20.2684 C   0  0  0  0  0  0  0  0  0  0  0  0
  -23.7881  -33.5581   21.7075 C   0  0  0  0  0  0  0  0  0  0  0  0
  -28.9797  -31.9702   25.8784 C   0  0  0  0  0  0  0  0  0  0  0  0
  -26.1621  -22.5115   19.2443 C   0  0  0  0  0  0  0  0  0  0  0  0
  -30.4268  -24.8291   19.3161 C   0  0  0  0  0  0  0  0  0  0  0  0
  -25.5755  -22.4538   20.6596 C   0  0  0  0  0  0  0  0  0  0  0  0
  -29.6716  -25.8947   20.1031 C   0  0  0  0  0  0  0  0  0  1  0  0
  -25.6705  -31.9301   22.1526 C   0  0  1  0  0  0  0  0  0  0  0  0
  -28.0817  -33.7841   24.4150 C   0  0  2  0  0  0  0  0  0  0  0  0
  -24.8771  -32.6840   21.0482 C   0  0  0  0  0  0  0  0  0  0  0  0
  -27.3569  -16.0317   21.7644 N   0  0  0  0  0  0  0  0  0  0  0  0
  -28.3227  -23.6023   19.2755 N   0  0  0  0  0  0  0  0  0  0  0  0
  -28.3673  -16.8908   21.9814 N   0  0  0  0  0  0  0  0  0  0  0  0
  -25.1674  -29.6244   22.8974 N   0  0  0  0  0  0  0  0  0  0  0  0
  -26.4442  -19.9361   23.2605 N   0  0  0  0  0  0  0  0  0  0  0  0
  -30.6793  -17.2254   21.5895 N   0  0  0  0  0  0  0  0  0  0  0  0
  -29.8556  -13.2424   19.6267 N   0  0  0  0  0  0  0  0  0  0  0  0
  -22.4531  -27.1956   22.7251 N   0  0  0  0  0  0  0  0  0  0  0  0
  -26.3066  -32.8033   23.1330 N   0  0  0  0  0  0  0  0  0  0  0  0
  -25.9388  -21.2370   21.3510 N   0  0  0  0  0  0  0  0  0  0  0  0
  -29.2397  -33.2635   25.1952 N   0  3  0  0  0  0  0  0  0  0  0  0
  -31.4835  -14.7910   20.0850 O   0  0  0  0  0  0  0  0  0  0  0  0
  -23.6286  -28.4987   21.1944 O   0  0  0  0  0  0  0  0  0  0  0  0
  -23.8365  -31.4179   23.5671 O   0  0  0  0  0  0  0  0  0  0  0  0
  -28.4717  -32.0550   22.7732 O   0  0  0  0  0  0  0  0  0  0  0  0
  -25.9033  -22.1842   23.4387 O   0  0  0  0  0  0  0  0  0  0  0  0
  -24.9413  -10.6267   19.4193 O   0  0  0  0  0  0  0  0  0  0  0  0
  -29.4738  -25.4531   21.4456 O   0  0  0  0  0  0  0  0  0  1  0  0
  -21.4811   -8.3641   23.0679 F   0  0  0  0  0  0  0  0  0  0  0  0
  -25.2171   -7.9850   20.1863 F   0  0  0  0  0  0  0  0  0  0  0  0
  1  2  1  0  0  0  0
  1  5  2  0  0  0  0
  2  6  2  0  0  0  0
  3  8  2  0  0  0  0
  3 17  1  0  0  0  0
  4  9  1  0  0  0  0
  4 17  2  0  0  0  0
  5 19  1  0  0  0  0
  6 21  1  0  0  0  0
  7 10  2  0  0  0  0
  7 20  1  0  0  0  0
  8 24  1  0  0  0  0
  9 24  2  0  0  0  0
 10 25  1  0  0  0  0
 11 12  2  0  0  0  0
 11 26  1  0  0  0  0
 12 27  1  0  0  0  0
 13 22  1  0  0  0  0
 13 25  2  0  0  0  0
 14 23  1  0  0  0  0
 14 30  2  0  0  0  0
 15 23  2  0  0  0  0
 15 31  1  0  0  0  0
 16 27  2  0  0  0  0
 16 28  1  0  0  0  0
 17 29  1  0  0  0  0
 18 29  1  0  0  0  0
 18 32  2  0  0  0  0
 18 33  1  0  0  0  0
 19 21  2  0  0  0  0
 19 38  1  0  0  0  0
 20 22  2  0  0  0  0
 20 39  1  0  0  0  0
 21 47  1  0  0  0  0
 22 40  1  0  0  0  0
 23 50  1  0  0  0  0
 24 79  1  0  0  0  0
 25 80  1  0  0  0  0
 26 28  2  0  0  0  0
 26 79  1  0  0  0  0
 27 81  1  0  0  0  0
 28 82  1  0  0  0  0
 29 63  2  0  0  0  0
 30 56  1  0  0  0  0
 30 64  1  0  0  0  0
 31 57  1  0  0  0  0
 31 64  2  0  0  0  0
 32 65  1  0  0  0  0
 32 68  1  0  0  0  0
 33 69  1  0  0  0  0
 33 74  2  0  0  0  0
 34 48  1  0  0  0  0
 34 70  1  0  0  0  0
 34 75  2  0  0  0  0
 35 60  1  0  0  0  0
 35 66  1  0  0  0  0
 35 76  2  0  0  0  0
 36 61  1  0  0  0  0
 36 71  1  0  0  0  0
 36 77  2  0  0  0  0
 37 67  1  0  0  0  0
 37 72  1  0  0  0  0
 37 78  2  0  0  0  0
 38 41  1  0  0  0  0
 39 48  1  0  0  0  0
 40 66  1  0  0  0  0
 41 43  1  0  0  0  0
 42 44  1  0  0  0  0
 42 45  1  0  0  0  0
 43 47  1  0  0  0  0
 44 49  1  0  0  0  0
 45 67  1  0  0  0  0
 46 49  1  0  0  0  0
 46 67  1  0  0  0  0
 47 70  1  0  0  0  0
 48 66  1  0  0  0  0
 49 65  1  0  0  0  0
 51 61  1  0  0  0  0
 52 62  1  0  0  0  0
 53 62  1  0  0  0  0
 54 62  1  0  0  0  0
 55 73  1  0  0  0  0
 56 58  1  0  0  0  0
 57 59  1  0  0  0  0
 58 72  1  0  0  0  0
 59 80  1  0  0  0  0
 60 62  1  0  0  0  0
 60 71  1  0  0  0  0
 61 73  1  0  0  0  0
 63 65  1  0  0  0  0
M  CHG  1  73   1
M  ISO  4  37 100  59 101  72 100  80 101
M  END
> <Batch ID>
0034

> <Smiles>
CNC(C)C(=O)NC(C(=O)N1Cc2cc([101O:1][101CH2:1]Cc3cc(C)cc(CC[100NH:0][100C:0](=O)N4CCCC(n5nc(-c6ccc(Oc7ccc(F)cc7F)cc6)c(C(N)=O)c5N)C4)n3)ccc2CC1C(=O)NC1CCCc2ccccc21)C(C)(C)C

> <Shape>
0.242

> <Color>
0.061

> <Negative vol penalty>
0.000

$$$$

  -OEChem-04052316503D

 90 99  0     1  0  0  0  0  0999 V2000
  -25.3939  -37.7578   24.8895 C   0  0  0  0  0  0  0  0  0  0  0  0
  -25.5421  -36.5618   25.5845 C   0  0  0  0  0  0  0  0  0  0  0  0
  -23.4736   -9.9302   21.7284 C   0  0  0  0  0  0  0  0  0  0  0  0
  -25.0480  -10.4821   23.4759 C   0  0  0  0  0  0  0  0  0  0  0  0
  -25.0268  -37.7402   23.5446 C   0  0  0  0  0  0  0  0  0  0  0  0
  -25.3222  -35.3475   24.9353 C   0  0  0  0  0  0  0  0  0  0  0  0
  -28.2765  -30.0701   25.8978 C   0  0  0  0  0  0  0  0  0  0  0  0
  -23.0409   -8.8284   22.4661 C   0  0  0  0  0  0  0  0  0  0  0  0
  -24.6152   -9.3802   24.2137 C   0  0  0  0  0  0  0  0  0  0  0  0
  -27.9558  -28.9387   26.6469 C   0  0  0  0  0  0  0  0  0  0  0  0
  -21.0081   -8.2389   25.1030 C   0  0  0  0  0  0  0  0  0  0  0  0
  -19.6334   -8.0255   25.2036 C   0  0  0  0  0  0  0  0  0  0  0  0
  -27.0850  -27.8791   24.6624 C   0  0  0  0  0  0  0  0  0  0  0  0
  -29.6028  -19.8987   23.8366 C   0  0  0  0  0  0  0  0  0  0  0  0
  -19.8919   -5.8651   24.1534 C   0  0  0  0  0  0  0  0  0  0  0  0
  -24.4772  -10.7571   22.2332 C   0  0  0  0  0  0  0  0  0  0  0  0
  -24.1511  -12.9918   21.0469 C   0  0  0  0  0  0  0  0  0  0  0  0
  -24.8116  -36.5248   22.8759 C   0  0  0  0  0  0  0  0  0  0  0  0
  -27.9933  -30.1187   24.5253 C   0  0  0  0  0  0  0  0  0  0  0  0
  -24.9505  -35.3137   23.5805 C   0  0  0  0  0  0  0  0  0  0  0  0
  -27.4053  -29.0112   23.8977 C   0  0  0  0  0  0  0  0  0  0  0  0
  -29.5804  -19.0788   22.7221 C   0  0  0  0  0  0  0  0  0  0  0  0
  -23.6117   -8.5534   23.7088 C   0  0  0  0  0  0  0  0  0  0  0  0
  -27.3574  -27.8441   26.0298 C   0  0  0  0  0  0  0  0  0  0  0  0
  -21.8248   -7.2654   24.5275 C   0  0  0  0  0  0  0  0  0  0  0  0
  -19.0753   -6.8386   24.7288 C   0  0  0  0  0  0  0  0  0  0  0  0
  -21.2666   -6.0785   24.0527 C   0  0  0  0  0  0  0  0  0  0  0  0
  -24.9250  -11.8951   21.4714 C   0  0  0  0  0  0  0  0  0  0  0  0
  -29.3334  -21.2406   23.6570 C   0  0  0  0  0  0  0  0  0  0  0  0
  -29.2898  -19.6550   21.5018 C   0  0  0  0  0  0  0  0  0  0  0  0
  -25.0348  -13.7922   20.3651 C   0  0  0  0  0  0  0  0  0  0  0  0
  -22.7580  -13.2627   21.2507 C   0  0  0  0  0  0  0  0  0  0  0  0
  -26.1587  -31.9409   22.6766 C   0  0  0  0  0  0  0  0  0  0  0  0
  -27.5721  -30.2627   20.2874 C   0  0  0  0  0  0  0  0  0  0  0  0
  -29.1771  -27.4164   19.3026 C   0  0  0  0  0  0  0  0  0  0  0  0
  -30.9789  -14.4584   20.6374 C   0  0  0  0  0  0  0  0  0  0  0  0
  -24.3701  -36.5577   21.4342 C   0  0  0  0  0  0  0  0  0  0  0  0
  -28.3698  -31.3361   23.7261 C   0  0  0  0  0  0  0  0  0  0  0  0
  -27.0993  -29.0053   22.4230 C   0  0  0  0  0  0  0  0  0  0  0  0
  -24.5208  -35.2168   20.7203 C   0  0  0  0  0  0  0  0  0  0  0  0
  -29.0524  -13.5766   17.7760 C   0  0  0  0  0  0  0  0  0  0  0  0
  -30.4464  -24.4358   25.5103 C   0  0  0  0  0  0  0  0  0  0  0  0
  -23.9711  -34.0869   21.5851 C   0  0  0  0  0  0  0  0  0  0  0  0
  -29.7972  -23.5924   24.4140 C   0  0  0  0  0  0  0  0  0  0  0  0
  -27.7063  -13.1446   18.3603 C   0  0  0  0  0  0  0  0  0  0  0  0
  -27.9489  -22.2155   25.5041 C   0  0  0  0  0  0  0  0  0  0  0  0
  -30.2166  -13.1584   18.6714 C   0  0  0  0  0  0  0  0  0  0  0  0
  -28.7605  -13.1645   20.6597 C   0  0  0  0  0  0  0  0  0  0  0  0
  -29.9098  -24.2935   26.9262 C   0  0  0  0  0  0  0  0  0  0  0  0
  -27.8774  -22.8138   26.9036 C   0  0  0  0  0  0  0  0  0  0  0  0
  -24.7448  -33.9755   22.9044 C   0  0  1  0  0  0  0  0  0  0  0  0
  -29.3453  -22.1886   24.8519 C   0  0  1  0  0  0  0  0  0  0  0  0
  -27.5672  -31.4758   22.4363 C   0  0  1  0  0  0  0  0  0  0  0  0
  -27.5523  -13.6131   19.8198 C   0  0  2  0  0  0  0  0  0  0  0  0
  -30.1762  -26.3178   17.2797 C   0  0  0  0  0  0  0  0  0  0  0  0
  -24.7739  -29.5906   19.2733 C   0  0  0  0  0  0  0  0  0  0  0  0
  -25.7899  -27.7727   17.8836 C   0  0  0  0  0  0  0  0  0  0  0  0
  -26.4263  -30.1510   17.4816 C   0  0  0  0  0  0  0  0  0  0  0  0
  -31.8668  -27.3308   20.5342 C   0  0  0  0  0  0  0  0  0  0  0  0
  -29.8659  -17.6238   22.8726 C   0  0  0  0  0  0  0  0  0  0  0  0
  -31.2969  -17.2089   22.4753 C   0  0  0  0  0  0  0  0  0  0  0  0
  -31.6000  -15.7259   22.6787 C   0  0  0  0  0  0  0  0  0  0  0  0
  -27.8523  -24.9581   28.1573 C   0  0  0  0  0  0  0  0  0  0  0  0
  -27.8656  -26.4499   27.8882 C   0  0  0  0  0  0  0  0  0  1  0  0
  -27.2657  -28.9772   19.5575 C   0  0  1  0  0  0  0  0  0  0  0  0
  -30.4401  -27.2027   18.4880 C   0  0  2  0  0  0  0  0  0  0  0  0
  -26.0678  -29.1234   18.5772 C   0  0  0  0  0  0  0  0  0  0  0  0
  -26.2020  -11.9871   21.0909 N   0  0  0  0  0  0  0  0  0  0  0  0
  -29.0520  -21.7774   22.4508 N   0  0  0  0  0  0  0  0  0  0  0  0
  -29.0297  -20.9714   21.3555 N   0  0  0  0  0  0  0  0  0  0  0  0
  -26.2373  -13.1511   20.4201 N   0  0  0  0  0  0  0  0  0  0  0  0
  -27.4804  -30.2214   21.6859 N   0  0  0  0  0  0  0  0  0  0  0  0
  -30.0097  -13.6350   20.0410 N   0  0  0  0  0  0  0  0  0  0  0  0
  -24.8927  -14.9748   19.7297 N   0  0  0  0  0  0  0  0  0  0  0  0
  -21.9958  -12.3351   21.9738 N   0  0  0  0  0  0  0  0  0  0  0  0
  -26.0148  -33.3151   22.6913 N   0  0  0  0  0  0  0  0  0  0  0  0
  -28.5113  -28.5621   18.9214 N   0  0  0  0  0  0  0  0  0  0  0  0
  -30.7019  -14.8709   21.9350 N   0  0  0  0  0  0  0  0  0  0  0  0
  -28.4022  -24.2297   26.9543 N   0  3  1  0  0  0  0  0  0  0  0  0
  -31.4919  -26.5566   19.3230 N   0  3  0  0  0  0  0  0  0  0  0  0
  -22.2019  -14.2888   20.7909 O   0  0  0  0  0  0  0  0  0  0  0  0
  -25.2682  -31.1141   22.8353 O   0  0  0  0  0  0  0  0  0  0  0  0
  -27.8884  -31.2645   19.6409 O   0  0  0  0  0  0  0  0  0  0  0  0
  -28.8152  -26.6423   20.1859 O   0  0  0  0  0  0  0  0  0  0  0  0
  -32.0119  -14.8050   20.0545 O   0  0  0  0  0  0  0  0  0  0  0  0
  -23.1895   -7.4784   24.4291 O   0  0  0  0  0  0  0  0  0  0  0  0
  -27.0428  -26.7388   26.7587 O   0  0  0  0  0  0  0  0  0  1  0  0
  -17.7553   -6.6332   24.8269 F   0  0  0  0  0  0  0  0  0  0  0  0
  -22.0463   -5.1391   23.5000 F   0  0  0  0  0  0  0  0  0  0  0  0
  -29.2276  -18.7590   20.0390 Cl  0  0  0  0  0  0  0  0  0  0  0  0
  1  2  1  0  0  0  0
  1  5  2  0  0  0  0
  2  6  2  0  0  0  0
  3  8  2  0  0  0  0
  3 16  1  0  0  0  0
  4  9  1  0  0  0  0
  4 16  2  0  0  0  0
  5 18  1  0  0  0  0
  6 20  1  0  0  0  0
  7 10  2  0  0  0  0
  7 19  1  0  0  0  0
  8 23  1  0  0  0  0
  9 23  2  0  0  0  0
 10 24  1  0  0  0  0
 11 12  2  0  0  0  0
 11 25  1  0  0  0  0
 12 26  1  0  0  0  0
 13 21  1  0  0  0  0
 13 24  2  0  0  0  0
 14 22  2  0  0  0  0
 14 29  1  0  0  0  0
 15 26  2  0  0  0  0
 15 27  1  0  0  0  0
 16 28  1  0  0  0  0
 17 28  1  0  0  0  0
 17 31  2  0  0  0  0
 17 32  1  0  0  0  0
 18 20  2  0  0  0  0
 18 37  1  0  0  0  0
 19 21  2  0  0  0  0
 19 38  1  0  0  0  0
 20 51  1  0  0  0  0
 21 39  1  0  0  0  0
 22 30  1  0  0  0  0
 22 60  1  0  0  0  0
 23 86  1  0  0  0  0
 24 87  1  0  0  0  0
 25 27  2  0  0  0  0
 25 86  1  0  0  0  0
 26 88  1  0  0  0  0
 27 89  1  0  0  0  0
 28 68  2  0  0  0  0
 29 52  1  0  0  0  0
 29 69  2  0  0  0  0
 30 70  2  0  0  0  0
 30 90  1  0  0  0  0
 31 71  1  0  0  0  0
 31 74  1  0  0  0  0
 32 75  1  0  0  0  0
 32 81  2  0  0  0  0
 33 53  1  0  0  0  0
 33 76  1  0  0  0  0
 33 82  2  0  0  0  0
 34 65  1  0  0  0  0
 34 72  1  0  0  0  0
 34 83  2  0  0  0  0
 35 66  1  0  0  0  0
 35 77  1  0  0  0  0
 35 84  2  0  0  0  0
 36 73  1  0  0  0  0
 36 78  1  0  0  0  0
 36 85  2  0  0  0  0
 37 40  1  0  0  0  0
 38 53  1  0  0  0  0
 39 72  1  0  0  0  0
 40 43  1  0  0  0  0
 41 45  1  0  0  0  0
 41 47  1  0  0  0  0
 42 44  1  0  0  0  0
 42 49  1  0  0  0  0
 43 51  1  0  0  0  0
 44 52  1  0  0  0  0
 45 54  1  0  0  0  0
 46 50  1  0  0  0  0
 46 52  1  0  0  0  0
 47 73  1  0  0  0  0
 48 54  1  0  0  0  0
 48 73  1  0  0  0  0
 49 79  1  0  0  0  0
 50 79  1  0  0  0  0
 51 76  1  0  0  0  0
 53 72  1  0  0  0  0
 54 71  1  0  0  0  0
 55 66  1  0  0  0  0
 56 67  1  0  0  0  0
 57 67  1  0  0  0  0
 58 67  1  0  0  0  0
 59 80  1  0  0  0  0
 60 61  1  0  0  0  0
 61 62  1  0  0  0  0
 62 78  1  0  0  0  0
 63 64  1  0  0  0  0
 63 79  1  0  0  0  0
 64 87  1  0  0  0  0
 65 67  1  0  0  0  0
 65 77  1  0  0  0  0
 66 80  1  0  0  0  0
 68 71  1  0  0  0  0
 69 70  1  0  0  0  0
M  CHG  2  79   1  80   1
M  ISO  4  36 100  64 101  78 100  87 101
M  END
> <Batch ID>
0034

> <Smiles>
CNC(C)C(=O)NC(C(=O)N1Cc2cc([101O:1][101CH2:1]CN3CCCC(c4cc(CCC[100NH:0][100C:0](=O)N5CCCC(n6nc(-c7ccc(Oc8ccc(F)cc8F)cc7)c(C(N)=O)c6N)C5)c(Cl)nn4)CC3)ccc2CC1C(=O)NC1CCCc2ccccc21)C(C)(C)C

> <Shape>
0.307

> <Color>
0.127

> <Negative vol penalty>
0.000

$$$$

  -OEChem-04052316503D

 84 92  0     1  0  0  0  0  0999 V2000
  -30.4173  -23.6383   18.2383 C   0  0  0  0  0  0  0  0  0  0  0  0
  -29.0761  -24.0044   18.2238 C   0  0  0  0  0  0  0  0  0  0  0  0
  -25.0096  -12.0704   20.2833 C   0  0  0  0  0  0  0  0  0  0  0  0
  -25.3039  -12.7663   22.5781 C   0  0  0  0  0  0  0  0  0  0  0  0
  -31.2215  -23.9949   19.3187 C   0  0  0  0  0  0  0  0  0  0  0  0
  -28.5416  -24.7373   19.2840 C   0  0  0  0  0  0  0  0  0  0  0  0
  -22.8228  -26.5391   20.3684 C   0  0  0  0  0  0  0  0  0  0  0  0
  -25.3468  -10.7638   20.6362 C   0  0  0  0  0  0  0  0  0  0  0  0
  -25.6411  -11.4597   22.9311 C   0  0  0  0  0  0  0  0  0  0  0  0
  -21.7024  -26.0568   21.0436 C   0  0  0  0  0  0  0  0  0  0  0  0
  -25.7791   -7.1727   21.0000 C   0  0  0  0  0  0  0  0  0  0  0  0
  -24.9898   -6.1400   20.4939 C   0  0  0  0  0  0  0  0  0  0  0  0
  -22.2948  -27.3888   22.9656 C   0  0  0  0  0  0  0  0  0  0  0  0
  -22.6568  -23.4234   24.6447 C   0  0  0  0  0  0  0  0  0  0  0  0
  -23.0552   -7.0788   21.5955 C   0  0  0  0  0  0  0  0  0  0  0  0
  -24.9882  -13.0717   21.2542 C   0  0  0  0  0  0  0  0  0  0  0  0
  -23.3551  -14.9956   20.8811 C   0  0  0  0  0  0  0  0  0  0  0  0
  -30.6927  -24.7219   20.3980 C   0  0  0  0  0  0  0  0  0  0  0  0
  -23.6950  -27.4431   20.9917 C   0  0  0  0  0  0  0  0  0  0  0  0
  -29.3428  -25.1274   20.3723 C   0  0  0  0  0  0  0  0  0  0  0  0
  -23.4242  -27.8831   22.2952 C   0  0  0  0  0  0  0  0  0  0  0  0
  -23.4944  -22.2803   24.4964 C   0  0  0  0  0  0  0  0  0  0  0  0
  -25.6625  -10.4584   21.9601 C   0  0  0  0  0  0  0  0  0  0  0  0
  -21.4399  -26.4794   22.3434 C   0  0  0  0  0  0  0  0  0  0  0  0
  -25.2065   -8.1584   21.8039 C   0  0  0  0  0  0  0  0  0  0  0  0
  -23.6278   -6.0930   20.7916 C   0  0  0  0  0  0  0  0  0  0  0  0
  -23.8446   -8.1114   22.1016 C   0  0  0  0  0  0  0  0  0  0  0  0
  -24.6405  -14.4218   20.8901 C   0  0  0  0  0  0  0  0  0  0  0  0
  -21.3467  -23.0764   24.8913 C   0  0  0  0  0  0  0  0  0  0  0  0
  -22.7925  -21.1031   24.6357 C   0  0  0  0  0  0  0  0  0  0  0  0
  -23.5590  -16.2882   20.4639 C   0  0  0  0  0  0  0  0  0  0  0  0
  -22.0898  -14.4124   21.2198 C   0  0  0  0  0  0  0  0  0  0  0  0
  -26.7645  -27.3926   21.8159 C   0  0  0  0  0  0  0  0  0  0  0  0
  -26.2050  -30.4921   22.5919 C   0  0  0  0  0  0  0  0  0  0  0  0
  -23.9501  -32.8946   23.4809 C   0  0  0  0  0  0  0  0  0  0  0  0
  -26.4355  -21.0668   20.6530 C   0  0  0  0  0  0  0  0  0  0  0  0
  -31.6100  -25.0881   21.5381 C   0  0  0  0  0  0  0  0  0  0  0  0
  -24.8846  -27.9745   20.2401 C   0  0  0  0  0  0  0  0  0  0  0  0
  -24.3183  -28.8679   23.0015 C   0  0  0  0  0  0  0  0  0  0  0  0
  -30.8566  -25.4729   22.8072 C   0  0  0  0  0  0  0  0  0  0  0  0
  -27.6602  -18.5066   18.5030 C   0  0  0  0  0  0  0  0  0  0  0  0
  -29.7767  -26.4937   22.4812 C   0  0  0  0  0  0  0  0  0  0  0  0
  -26.8826  -17.2625   18.9359 C   0  0  0  0  0  0  0  0  0  0  0  0
  -27.9989  -19.4026   19.6924 C   0  0  0  0  0  0  0  0  0  0  0  0
  -26.0671  -18.5435   20.9589 C   0  0  0  0  0  0  0  0  0  0  0  0
  -28.7322  -25.8984   21.5286 C   0  0  1  0  0  0  0  0  0  0  0  0
  -25.9864  -28.4963   21.1572 C   0  0  1  0  0  0  0  0  0  0  0  0
  -25.6542  -17.6369   19.7868 C   0  0  2  0  0  0  0  0  0  0  0  0
  -23.4445  -19.0552   25.9270 C   0  0  0  0  0  0  0  0  0  0  0  0
  -23.7968  -35.3254   24.0851 C   0  0  0  0  0  0  0  0  0  0  0  0
  -27.3366  -29.8735   25.3572 C   0  0  0  0  0  0  0  0  0  0  0  0
  -26.3012  -31.9995   26.1799 C   0  0  0  0  0  0  0  0  0  0  0  0
  -28.0526  -32.0724   24.4050 C   0  0  0  0  0  0  0  0  0  0  0  0
  -22.1763  -33.4732   21.1835 C   0  0  0  0  0  0  0  0  0  0  0  0
  -24.9493  -22.3618   24.2239 C   0  0  0  0  0  0  0  0  0  0  0  0
  -20.1611  -23.9830   25.1058 C   0  0  0  0  0  0  0  0  0  0  0  0
  -23.2876  -19.7105   24.5525 C   0  0  0  0  0  0  0  0  0  0  0  0
  -25.3275  -23.1782   22.9677 C   0  0  0  0  0  0  0  0  0  0  0  0
  -19.2325  -24.0799   23.8934 C   0  0  0  0  0  0  0  0  0  0  0  0
  -24.7744  -22.6097   21.6626 C   0  0  0  0  0  0  0  0  0  0  0  0
  -19.8997  -24.6969   22.6697 C   0  0  0  0  0  0  0  0  0  1  0  0
  -25.7433  -31.2169   23.8331 C   0  0  1  0  0  0  0  0  0  0  0  0
  -23.7214  -34.3028   22.9620 C   0  0  2  0  0  0  0  0  0  0  0  0
  -26.8424  -31.2705   24.9315 C   0  0  0  0  0  0  0  0  0  0  0  0
  -25.5907  -15.2795   20.5086 N   0  0  0  0  0  0  0  0  0  0  0  0
  -24.9018  -16.4054   20.2560 N   0  0  0  0  0  0  0  0  0  0  0  0
  -25.4723  -29.3537   22.2271 N   0  0  0  0  0  0  0  0  0  0  0  0
  -26.7907  -19.7221   20.4567 N   0  0  0  0  0  0  0  0  0  0  0  0
  -22.7188  -17.3246   20.2581 N   0  0  0  0  0  0  0  0  0  0  0  0
  -22.0600  -13.0723   21.6292 N   0  0  0  0  0  0  0  0  0  0  0  0
  -27.8477  -26.9512   21.0802 N   0  0  0  0  0  0  0  0  0  0  0  0
  -25.2758  -32.5262   23.3911 N   0  0  0  0  0  0  0  0  0  0  0  0
  -25.2729  -21.2815   21.3829 N   0  0  0  0  0  0  0  0  0  0  0  0
  -22.3802  -34.4071   22.3207 N   0  3  0  0  0  0  0  0  0  0  0  0
  -21.0155  -15.0556   21.1454 O   0  0  0  0  0  0  0  0  0  0  0  0
  -26.4093  -26.9734   22.9113 O   0  0  0  0  0  0  0  0  0  0  0  0
  -27.1755  -30.9243   21.9651 O   0  0  0  0  0  0  0  0  0  0  0  0
  -23.0440  -32.1930   23.9250 O   0  0  0  0  0  0  0  0  0  0  0  0
  -27.1021  -22.0064   20.2059 O   0  0  0  0  0  0  0  0  0  0  0  0
  -25.9913   -9.1834   22.3050 O   0  0  0  0  0  0  0  0  0  0  0  0
  -20.3474  -26.0097   23.0050 O   0  0  0  0  0  0  0  0  0  1  0  0
  -22.8697   -5.1022   20.3043 F   0  0  0  0  0  0  0  0  0  0  0  0
  -23.2886   -9.0562   22.8724 F   0  0  0  0  0  0  0  0  0  0  0  0
  -21.1306  -21.3785   24.9434 S   0  0  0  0  0  0  0  0  0  0  0  0
  1  2  1  0  0  0  0
  1  5  2  0  0  0  0
  2  6  2  0  0  0  0
  3  8  2  0  0  0  0
  3 16  1  0  0  0  0
  4  9  1  0  0  0  0
  4 16  2  0  0  0  0
  5 18  1  0  0  0  0
  6 20  1  0  0  0  0
  7 10  2  0  0  0  0
  7 19  1  0  0  0  0
  8 23  1  0  0  0  0
  9 23  2  0  0  0  0
 10 24  1  0  0  0  0
 11 12  2  0  0  0  0
 11 25  1  0  0  0  0
 12 26  1  0  0  0  0
 13 21  1  0  0  0  0
 13 24  2  0  0  0  0
 14 22  1  0  0  0  0
 14 29  2  0  0  0  0
 15 26  2  0  0  0  0
 15 27  1  0  0  0  0
 16 28  1  0  0  0  0
 17 28  1  0  0  0  0
 17 31  2  0  0  0  0
 17 32  1  0  0  0  0
 18 20  2  0  0  0  0
 18 37  1  0  0  0  0
 19 21  2  0  0  0  0
 19 38  1  0  0  0  0
 20 46  1  0  0  0  0
 21 39  1  0  0  0  0
 22 30  2  0  0  0  0
 22 55  1  0  0  0  0
 23 80  1  0  0  0  0
 24 81  1  0  0  0  0
 25 27  2  0  0  0  0
 25 80  1  0  0  0  0
 26 82  1  0  0  0  0
 27 83  1  0  0  0  0
 28 65  2  0  0  0  0
 29 56  1  0  0  0  0
 29 84  1  0  0  0  0
 30 57  1  0  0  0  0
 30 84  1  0  0  0  0
 31 66  1  0  0  0  0
 31 69  1  0  0  0  0
 32 70  1  0  0  0  0
 32 75  2  0  0  0  0
 33 47  1  0  0  0  0
 33 71  1  0  0  0  0
 33 76  2  0  0  0  0
 34 62  1  0  0  0  0
 34 67  1  0  0  0  0
 34 77  2  0  0  0  0
 35 63  1  0  0  0  0
 35 72  1  0  0  0  0
 35 78  2  0  0  0  0
 36 68  1  0  0  0  0
 36 73  1  0  0  0  0
 36 79  2  0  0  0  0
 37 40  1  0  0  0  0
 38 47  1  0  0  0  0
 39 67  1  0  0  0  0
 40 42  1  0  0  0  0
 41 43  1  0  0  0  0
 41 44  1  0  0  0  0
 42 46  1  0  0  0  0
 43 48  1  0  0  0  0
 44 68  1  0  0  0  0
 45 48  1  0  0  0  0
 45 68  1  0  0  0  0
 46 71  1  0  0  0  0
 47 67  1  0  0  0  0
 48 66  1  0  0  0  0
 49 57  1  0  0  0  0
 50 63  1  0  0  0  0
 51 64  1  0  0  0  0
 52 64  1  0  0  0  0
 53 64  1  0  0  0  0
 54 74  1  0  0  0  0
 55 58  1  0  0  0  0
 56 59  1  0  0  0  0
 58 60  1  0  0  0  0
 59 61  1  0  0  0  0
 60 73  1  0  0  0  0
 61 81  1  0  0  0  0
 62 64  1  0  0  0  0
 62 72  1  0  0  0  0
 63 74  1  0  0  0  0
 65 66  1  0  0  0  0
M  CHG  1  74   1
M  ISO  4  36 100  61 101  73 100  81 101
M  END
> <Batch ID>
0034

> <Smiles>
CCc1sc(CC[101CH2:1][101O:1]c2ccc3c(c2)CN(C(=O)C(NC(=O)C(C)NC)C(C)(C)C)C(C(=O)NC2CCCc4ccccc42)C3)cc1CCC[100NH:0][100C:0](=O)N1CCCC(n2nc(-c3ccc(Oc4ccc(F)cc4F)cc3)c(C(N)=O)c2N)C1

> <Shape>
0.233

> <Color>
0.071

> <Negative vol penalty>
0.000

$$$$

  -OEChem-04052316503D

 85 93  0     1  0  0  0  0  0999 V2000
  -26.5180  -26.2987   16.8974 C   0  0  0  0  0  0  0  0  0  0  0  0
  -26.3301  -25.1735   17.6936 C   0  0  0  0  0  0  0  0  0  0  0  0
  -23.1952   -9.8866   19.9990 C   0  0  0  0  0  0  0  0  0  0  0  0
  -23.8637  -10.0306   22.3162 C   0  0  0  0  0  0  0  0  0  0  0  0
  -26.4340  -27.5715   17.4603 C   0  0  0  0  0  0  0  0  0  0  0  0
  -26.0592  -25.3205   19.0536 C   0  0  0  0  0  0  0  0  0  0  0  0
  -22.4500  -21.7645   22.4937 C   0  0  0  0  0  0  0  0  0  0  0  0
  -22.4807   -8.7215   20.2774 C   0  0  0  0  0  0  0  0  0  0  0  0
  -23.1491   -8.8655   22.5947 C   0  0  0  0  0  0  0  0  0  0  0  0
  -22.7263  -20.7132   23.3667 C   0  0  0  0  0  0  0  0  0  0  0  0
  -23.1508   -5.4430   20.7535 C   0  0  0  0  0  0  0  0  0  0  0  0
  -23.2886   -4.3723   19.8701 C   0  0  0  0  0  0  0  0  0  0  0  0
  -22.6751  -22.2508   25.2248 C   0  0  0  0  0  0  0  0  0  0  0  0
  -27.6751  -15.9815   23.2547 C   0  0  0  0  0  0  0  0  0  0  0  0
  -29.5499  -16.9520   24.4294 C   0  0  0  0  0  0  0  0  0  0  0  0
  -20.9156   -4.4374   19.4211 C   0  0  0  0  0  0  0  0  0  0  0  0
  -23.8868  -10.5411   21.0183 C   0  0  0  0  0  0  0  0  0  0  0  0
  -24.1492  -13.0680   20.7865 C   0  0  0  0  0  0  0  0  0  0  0  0
  -26.1524  -27.7344   18.8259 C   0  0  0  0  0  0  0  0  0  0  0  0
  -22.2946  -23.0708   22.9793 C   0  0  0  0  0  0  0  0  0  0  0  0
  -25.9727  -26.5966   19.6356 C   0  0  0  0  0  0  0  0  0  0  0  0
  -22.3943  -23.3164   24.3562 C   0  0  0  0  0  0  0  0  0  0  0  0
  -29.0372  -16.2740   23.3235 C   0  0  0  0  0  0  0  0  0  0  0  0
  -27.3384  -17.0450   25.3977 C   0  0  0  0  0  0  0  0  0  0  0  0
  -22.4576   -8.2109   21.5753 C   0  0  0  0  0  0  0  0  0  0  0  0
  -22.8417  -20.9567   24.7322 C   0  0  0  0  0  0  0  0  0  0  0  0
  -21.8953   -6.0108   20.9707 C   0  0  0  0  0  0  0  0  0  0  0  0
  -22.1710   -3.8696   19.2039 C   0  0  0  0  0  0  0  0  0  0  0  0
  -20.7778   -5.5080   20.3045 C   0  0  0  0  0  0  0  0  0  0  0  0
  -26.8257  -16.3671   24.2918 C   0  0  0  0  0  0  0  0  0  0  0  0
  -28.7005  -17.3375   25.4665 C   0  0  0  0  0  0  0  0  0  0  0  0
  -24.6255  -11.7444   20.7311 C   0  0  0  0  0  0  0  0  0  0  0  0
  -25.2294  -13.8369   20.4280 C   0  0  0  0  0  0  0  0  0  0  0  0
  -22.8469  -13.5586   21.1312 C   0  0  0  0  0  0  0  0  0  0  0  0
  -23.8206  -25.8241   22.5380 C   0  0  0  0  0  0  0  0  0  0  0  0
  -31.0020  -13.9054   21.0755 C   0  0  0  0  0  0  0  0  0  0  0  0
  -21.3953  -27.0083   24.3375 C   0  0  0  0  0  0  0  0  0  0  0  0
  -18.9694  -26.4345   26.6683 C   0  0  0  0  0  0  0  0  0  0  0  0
  -26.1183  -29.1291   19.3988 C   0  0  0  0  0  0  0  0  0  0  0  0
  -21.9704  -24.1895   22.0275 C   0  0  0  0  0  0  0  0  0  0  0  0
  -22.2161  -24.6974   24.9303 C   0  0  0  0  0  0  0  0  0  0  0  0
  -25.4567  -29.2074   20.7722 C   0  0  0  0  0  0  0  0  0  0  0  0
  -29.4350  -13.0259   17.9754 C   0  0  0  0  0  0  0  0  0  0  0  0
  -25.9809  -28.1003   21.6812 C   0  0  0  0  0  0  0  0  0  0  0  0
  -27.9968  -12.7034   18.3789 C   0  0  0  0  0  0  0  0  0  0  0  0
  -30.4262  -12.6020   19.0547 C   0  0  0  0  0  0  0  0  0  0  0  0
  -28.7003  -12.8553   20.8093 C   0  0  0  0  0  0  0  0  0  0  0  0
  -25.6525  -26.7156   21.1098 C   0  0  1  0  0  0  0  0  0  0  0  0
  -22.3410  -25.5649   22.5735 C   0  0  1  0  0  0  0  0  0  0  0  0
  -27.6642  -13.2954   19.7600 C   0  0  2  0  0  0  0  0  0  0  0  0
  -31.7539  -14.4891   23.3447 C   0  0  0  0  0  0  0  0  0  0  0  0
  -17.1706  -27.6053   27.9687 C   0  0  0  0  0  0  0  0  0  0  0  0
  -23.5131  -28.2281   26.1644 C   0  0  0  0  0  0  0  0  0  0  0  0
  -21.7351  -28.5444   27.8984 C   0  0  0  0  0  0  0  0  0  0  0  0
  -21.5543  -29.7124   25.7017 C   0  0  0  0  0  0  0  0  0  0  0  0
  -16.8501  -24.7432   25.4824 C   0  0  0  0  0  0  0  0  0  0  0  0
  -29.9452  -15.8624   22.2143 C   0  0  0  0  0  0  0  0  0  0  0  0
  -26.4247  -17.4603   26.5129 C   0  0  0  0  0  0  0  0  0  0  0  0
  -24.6202  -19.0319   27.2288 C   0  0  0  0  0  0  0  0  0  0  0  0
  -23.8426  -20.2499   26.7705 C   0  0  0  0  0  0  0  0  0  1  0  0
  -30.5532  -14.4579   22.4049 C   0  0  1  0  0  0  0  0  0  0  0  0
  -21.1633  -27.2172   25.8145 C   0  0  1  0  0  0  0  0  0  0  0  0
  -17.5014  -26.8187   26.7099 C   0  0  2  0  0  0  0  0  0  0  0  0
  -21.9968  -28.3997   26.3840 C   0  0  0  0  0  0  0  0  0  0  0  0
  -25.9084  -11.6729   20.3661 N   0  0  0  0  0  0  0  0  0  0  0  0
  -26.2473  -12.9612   20.1887 N   0  0  0  0  0  0  0  0  0  0  0  0
  -21.9065  -25.7591   23.9584 N   0  0  0  0  0  0  0  0  0  0  0  0
  -30.0630  -13.1665   20.3557 N   0  0  0  0  0  0  0  0  0  0  0  0
  -25.3983  -15.1698   20.2972 N   0  0  0  0  0  0  0  0  0  0  0  0
  -21.8531  -12.6318   21.4747 N   0  0  0  0  0  0  0  0  0  0  0  0
  -24.2655  -26.3835   21.3554 N   0  0  0  0  0  0  0  0  0  0  0  0
  -19.7219  -27.3657   25.9843 N   0  0  0  0  0  0  0  0  0  0  0  0
  -16.6457  -25.5989   26.6794 N   0  3  0  0  0  0  0  0  0  0  0  0
  -25.5780  -18.6337   26.1665 N   0  3  0  0  0  0  0  0  0  0  0  0
  -22.5679  -14.7815   21.1187 O   0  0  0  0  0  0  0  0  0  0  0  0
  -24.5074  -25.5392   23.5121 O   0  0  0  0  0  0  0  0  0  0  0  0
  -32.1524  -14.1276   20.6887 O   0  0  0  0  0  0  0  0  0  0  0  0
  -21.1260  -27.9175   23.5486 O   0  0  0  0  0  0  0  0  0  0  0  0
  -19.4057  -25.4126   27.1936 O   0  0  0  0  0  0  0  0  0  0  0  0
  -21.7603   -7.0742   21.8475 O   0  0  0  0  0  0  0  0  0  0  0  0
  -23.1121  -19.9325   25.5865 O   0  0  0  0  0  0  0  0  0  1  0  0
  -22.3037   -2.8424   18.3545 F   0  0  0  0  0  0  0  0  0  0  0  0
  -19.5693   -6.0502   20.5082 F   0  0  0  0  0  0  0  0  0  0  0  0
  -25.1461  -15.9853   24.1656 Cl  0  0  0  0  0  0  0  0  0  0  0  0
  -29.3770  -18.1756   26.8165 Cl  0  0  0  0  0  0  0  0  0  0  0  0
  1  2  1  0  0  0  0
  1  5  2  0  0  0  0
  2  6  2  0  0  0  0
  3  8  2  0  0  0  0
  3 17  1  0  0  0  0
  4  9  1  0  0  0  0
  4 17  2  0  0  0  0
  5 19  1  0  0  0  0
  6 21  1  0  0  0  0
  7 10  2  0  0  0  0
  7 20  1  0  0  0  0
  8 25  1  0  0  0  0
  9 25  2  0  0  0  0
 10 26  1  0  0  0  0
 11 12  2  0  0  0  0
 11 27  1  0  0  0  0
 12 28  1  0  0  0  0
 13 22  1  0  0  0  0
 13 26  2  0  0  0  0
 14 23  1  0  0  0  0
 14 30  2  0  0  0  0
 15 23  2  0  0  0  0
 15 31  1  0  0  0  0
 16 28  2  0  0  0  0
 16 29  1  0  0  0  0
 17 32  1  0  0  0  0
 18 32  1  0  0  0  0
 18 33  2  0  0  0  0
 18 34  1  0  0  0  0
 19 21  2  0  0  0  0
 19 39  1  0  0  0  0
 20 22  2  0  0  0  0
 20 40  1  0  0  0  0
 21 48  1  0  0  0  0
 22 41  1  0  0  0  0
 23 57  1  0  0  0  0
 24 30  1  0  0  0  0
 24 31  2  0  0  0  0
 24 58  1  0  0  0  0
 25 80  1  0  0  0  0
 26 81  1  0  0  0  0
 27 29  2  0  0  0  0
 27 80  1  0  0  0  0
 28 82  1  0  0  0  0
 29 83  1  0  0  0  0
 30 84  1  0  0  0  0
 31 85  1  0  0  0  0
 32 65  2  0  0  0  0
 33 66  1  0  0  0  0
 33 69  1  0  0  0  0
 34 70  1  0  0  0  0
 34 75  2  0  0  0  0
 35 49  1  0  0  0  0
 35 71  1  0  0  0  0
 35 76  2  0  0  0  0
 36 61  1  0  0  0  0
 36 68  1  0  0  0  0
 36 77  2  0  0  0  0
 37 62  1  0  0  0  0
 37 67  1  0  0  0  0
 37 78  2  0  0  0  0
 38 63  1  0  0  0  0
 38 72  1  0  0  0  0
 38 79  2  0  0  0  0
 39 42  1  0  0  0  0
 40 49  1  0  0  0  0
 41 67  1  0  0  0  0
 42 44  1  0  0  0  0
 43 45  1  0  0  0  0
 43 46  1  0  0  0  0
 44 48  1  0  0  0  0
 45 50  1  0  0  0  0
 46 68  1  0  0  0  0
 47 50  1  0  0  0  0
 47 68  1  0  0  0  0
 48 71  1  0  0  0  0
 49 67  1  0  0  0  0
 50 66  1  0  0  0  0
 51 61  1  0  0  0  0
 52 63  1  0  0  0  0
 53 64  1  0  0  0  0
 54 64  1  0  0  0  0
 55 64  1  0  0  0  0
 56 73  1  0  0  0  0
 57 61  1  0  0  0  0
 58 74  1  0  0  0  0
 59 60  1  0  0  0  0
 59 74  1  0  0  0  0
 60 81  1  0  0  0  0
 62 64  1  0  0  0  0
 62 72  1  0  0  0  0
 63 73  1  0  0  0  0
 65 66  1  0  0  0  0
M  CHG  2  73   1  74   1
M  ISO  4  36 100  60 101  61 100  81 101
M  END
> <Batch ID>
0034

> <Smiles>
CNC(C)C(=O)NC(C(=O)N1Cc2cc([101O:1][101CH2:1]CNCc3c(Cl)cc(C[100CH:0](C)[100C:0](=O)N4CCCC(n5nc(-c6ccc(Oc7ccc(F)cc7F)cc6)c(C(N)=O)c5N)C4)cc3Cl)ccc2CC1C(=O)NC1CCCc2ccccc21)C(C)(C)C

> <Shape>
0.187

> <Color>
0.201

> <Negative vol penalty>
0.000

$$$$

  -OEChem-04052316503D

 91100  0     1  0  0  0  0  0999 V2000
  -29.7276  -12.2468   20.1870 C   0  0  0  0  0  0  0  0  0  0  0  0
  -29.6180  -13.3672   21.0044 C   0  0  0  0  0  0  0  0  0  0  0  0
  -31.1599  -20.8597   20.8729 C   0  0  0  0  0  0  0  0  0  0  0  0
  -29.7636  -19.6809   19.2925 C   0  0  0  0  0  0  0  0  0  0  0  0
  -28.8979  -12.1132   19.0745 C   0  0  0  0  0  0  0  0  0  0  0  0
  -28.6793  -14.3552   20.7091 C   0  0  0  0  0  0  0  0  0  0  0  0
  -24.3847  -19.1113   23.9110 C   0  0  0  0  0  0  0  0  0  0  0  0
  -31.9613  -19.7263   21.0103 C   0  0  0  0  0  0  0  0  0  0  0  0
  -30.5651  -18.5475   19.4297 C   0  0  0  0  0  0  0  0  0  0  0  0
  -24.0716  -20.4696   23.8831 C   0  0  0  0  0  0  0  0  0  0  0  0
  -31.8351  -16.7701   22.6440 C   0  0  0  0  0  0  0  0  0  0  0  0
  -32.2048  -16.3911   23.9344 C   0  0  0  0  0  0  0  0  0  0  0  0
  -24.0551  -27.4095   21.3135 C   0  0  0  0  0  0  0  0  0  0  0  0
  -22.6375  -20.0938   21.9802 C   0  0  0  0  0  0  0  0  0  0  0  0
  -34.5332  -16.6470   23.3426 C   0  0  0  0  0  0  0  0  0  0  0  0
  -30.0610  -20.8369   20.0141 C   0  0  0  0  0  0  0  0  0  0  0  0
  -28.5046  -22.6612   20.8843 C   0  0  0  0  0  0  0  0  0  0  0  0
  -27.9420  -13.0954   18.7709 C   0  0  0  0  0  0  0  0  0  0  0  0
  -23.8341  -18.2344   22.9653 C   0  0  0  0  0  0  0  0  0  0  0  0
  -27.8370  -14.2352   19.5907 C   0  0  0  0  0  0  0  0  0  0  0  0
  -23.6448  -26.7117   22.4537 C   0  0  0  0  0  0  0  0  0  0  0  0
  -22.9432  -18.7244   21.9998 C   0  0  0  0  0  0  0  0  0  0  0  0
  -23.9010  -28.7884   21.2438 C   0  0  0  0  0  0  0  0  0  0  0  0
  -31.6639  -18.5703   20.2887 C   0  0  0  0  0  0  0  0  0  0  0  0
  -23.2002  -20.9616   22.9159 C   0  0  0  0  0  0  0  0  0  0  0  0
  -32.8145  -17.0874   21.7028 C   0  0  0  0  0  0  0  0  0  0  0  0
  -33.5538  -16.3296   24.2838 C   0  0  0  0  0  0  0  0  0  0  0  0
  -34.1635  -17.0259   22.0521 C   0  0  0  0  0  0  0  0  0  0  0  0
  -29.2325  -22.0072   19.8722 C   0  0  0  0  0  0  0  0  0  0  0  0
  -23.1048  -27.4524   23.5089 C   0  0  0  0  0  0  0  0  0  0  0  0
  -23.3422  -29.4301   22.3330 C   0  0  0  0  0  0  0  0  0  0  0  0
  -27.8887  -23.7078   20.2426 C   0  0  0  0  0  0  0  0  0  0  0  0
  -28.3951  -22.3504   22.2797 C   0  0  0  0  0  0  0  0  0  0  0  0
  -25.0187  -16.3567   20.6905 C   0  0  0  0  0  0  0  0  0  0  0  0
  -21.9344  -15.3871   20.4272 C   0  0  0  0  0  0  0  0  0  0  0  0
  -18.6277  -16.0835   20.9043 C   0  0  0  0  0  0  0  0  0  0  0  0
  -28.0293  -27.9705   16.6433 C   0  0  0  0  0  0  0  0  0  0  0  0
  -27.0997  -12.9298   17.5308 C   0  0  0  0  0  0  0  0  0  0  0  0
  -24.1610  -16.7675   23.0254 C   0  0  0  0  0  0  0  0  0  0  0  0
  -23.8543  -25.2237   22.5395 C   0  0  0  0  0  0  0  0  0  0  0  0
  -22.3093  -17.8213   20.9746 C   0  0  0  0  0  0  0  0  0  0  0  0
  -22.6105  -26.7767   24.7597 C   0  0  0  0  0  0  0  0  0  0  0  0
  -25.8753  -13.8409   17.5001 C   0  0  0  0  0  0  0  0  0  0  0  0
  -23.1809  -25.3731   24.9545 C   0  0  0  0  0  0  0  0  0  0  0  0
  -27.4162  -24.7263   15.3105 C   0  0  0  0  0  0  0  0  0  0  0  0
  -26.2596  -15.2650   17.8887 C   0  0  0  0  0  0  0  0  0  0  0  0
  -27.7798  -23.7842   16.4594 C   0  0  0  0  0  0  0  0  0  0  0  0
  -28.3427  -25.9392   15.2605 C   0  0  0  0  0  0  0  0  0  0  0  0
  -28.8090  -25.7505   17.6731 C   0  0  0  0  0  0  0  0  0  0  0  0
  -26.8141  -15.3164   19.3174 C   0  0  1  0  0  0  0  0  0  0  0  0
  -23.9441  -16.0520   21.6955 C   0  0  1  0  0  0  0  0  0  0  0  0
  -23.0448  -24.5586   23.6637 C   0  0  2  0  0  0  0  0  0  0  0  0
  -27.8674  -24.5406   17.7986 C   0  0  2  0  0  0  0  0  0  0  0  0
  -27.0428  -31.7345   25.4752 C   0  0  0  0  0  0  0  0  0  0  0  0
  -16.3400  -15.1127   20.5561 C   0  0  0  0  0  0  0  0  0  0  0  0
  -22.1178  -16.0293   17.4500 C   0  0  0  0  0  0  0  0  0  0  0  0
  -19.6171  -15.9589   17.3520 C   0  0  0  0  0  0  0  0  0  0  0  0
  -20.8966  -13.9141   17.9877 C   0  0  0  0  0  0  0  0  0  0  0  0
  -18.0423  -16.1236   23.8051 C   0  0  0  0  0  0  0  0  0  0  0  0
  -24.3357  -29.5267   20.0254 C   0  0  0  0  0  0  0  0  0  0  0  0
  -23.1500  -30.9114   22.3181 C   0  0  0  0  0  0  0  0  0  0  0  0
  -23.5004  -23.1166   23.8758 C   0  0  0  0  0  0  0  0  0  1  0  0
  -26.3715  -32.1243   24.1679 C   0  0  0  0  0  0  0  0  0  0  0  0
  -25.8254  -29.3106   19.7126 C   0  0  0  0  0  0  0  0  0  0  0  0
  -24.4338  -31.7001   22.6038 C   0  0  0  0  0  0  0  0  0  0  0  0
  -25.0844  -31.3305   23.9407 C   0  0  0  0  0  0  0  0  0  0  0  0
  -26.2685  -30.1047   18.4802 C   0  0  0  0  0  0  0  0  0  0  0  0
  -27.7476  -29.9143   18.1604 C   0  0  0  0  0  0  0  0  0  0  0  0
  -20.7378  -15.8353   19.6235 C   0  0  1  0  0  0  0  0  0  0  0  0
  -17.5054  -15.2681   21.5207 C   0  0  2  0  0  0  0  0  0  0  0  0
  -20.8556  -15.4520   18.1213 C   0  0  0  0  0  0  0  0  0  0  0  0
  -29.0928  -22.5894   18.6783 N   0  0  0  0  0  0  0  0  0  0  0  0
  -22.9399  -28.7986   23.4576 N   0  0  0  0  0  0  0  0  0  0  0  0
  -28.2700  -23.6203   18.9360 N   0  0  0  0  0  0  0  0  0  0  0  0
  -22.6652  -16.3959   21.0707 N   0  0  0  0  0  0  0  0  0  0  0  0
  -28.3797  -26.6128   16.5608 N   0  0  0  0  0  0  0  0  0  0  0  0
  -27.0635  -24.6852   20.6742 N   0  0  0  0  0  0  0  0  0  0  0  0
  -29.0936  -21.2404   22.7739 N   0  0  0  0  0  0  0  0  0  0  0  0
  -25.7361  -15.2490   20.2806 N   0  0  0  0  0  0  0  0  0  0  0  0
  -19.5659  -15.2798   20.2917 N   0  0  0  0  0  0  0  0  0  0  0  0
  -28.0851  -28.5300   17.9139 N   0  0  0  0  0  0  0  0  0  0  0  0
  -17.0052  -15.9286   22.7595 N   0  3  0  0  0  0  0  0  0  0  0  0
  -27.6852  -23.0271   23.0619 O   0  0  0  0  0  0  0  0  0  0  0  0
  -25.1838  -17.5110   20.3137 O   0  0  0  0  0  0  0  0  0  0  0  0
  -22.2064  -14.1854   20.4880 O   0  0  0  0  0  0  0  0  0  0  0  0
  -18.6663  -17.3107   20.9575 O   0  0  0  0  0  0  0  0  0  0  0  0
  -27.6865  -28.6334   15.6584 O   0  0  0  0  0  0  0  0  0  0  0  0
  -32.4459  -17.4642   20.4222 O   0  0  0  0  0  0  0  0  0  0  0  0
  -22.8934  -22.2870   22.8860 O   0  0  0  0  0  0  0  0  0  1  0  0
  -33.9085  -15.9672   25.5235 F   0  0  0  0  0  0  0  0  0  0  0  0
  -35.1088  -17.3308   21.1526 F   0  0  0  0  0  0  0  0  0  0  0  0
  1  2  1  0  0  0  0
  1  5  2  0  0  0  0
  2  6  2  0  0  0  0
  3  8  2  0  0  0  0
  3 16  1  0  0  0  0
  4  9  1  0  0  0  0
  4 16  2  0  0  0  0
  5 18  1  0  0  0  0
  6 20  1  0  0  0  0
  7 10  2  0  0  0  0
  7 19  1  0  0  0  0
  8 24  1  0  0  0  0
  9 24  2  0  0  0  0
 10 25  1  0  0  0  0
 11 12  2  0  0  0  0
 11 26  1  0  0  0  0
 12 27  1  0  0  0  0
 13 21  2  0  0  0  0
 13 23  1  0  0  0  0
 14 22  1  0  0  0  0
 14 25  2  0  0  0  0
 15 27  2  0  0  0  0
 15 28  1  0  0  0  0
 16 29  1  0  0  0  0
 17 29  1  0  0  0  0
 17 32  2  0  0  0  0
 17 33  1  0  0  0  0
 18 20  2  0  0  0  0
 18 38  1  0  0  0  0
 19 22  2  0  0  0  0
 19 39  1  0  0  0  0
 20 50  1  0  0  0  0
 21 30  1  0  0  0  0
 21 40  1  0  0  0  0
 22 41  1  0  0  0  0
 23 31  2  0  0  0  0
 23 60  1  0  0  0  0
 24 88  1  0  0  0  0
 25 89  1  0  0  0  0
 26 28  2  0  0  0  0
 26 88  1  0  0  0  0
 27 90  1  0  0  0  0
 28 91  1  0  0  0  0
 29 72  2  0  0  0  0
 30 42  1  0  0  0  0
 30 73  2  0  0  0  0
 31 61  1  0  0  0  0
 31 73  1  0  0  0  0
 32 74  1  0  0  0  0
 32 77  1  0  0  0  0
 33 78  1  0  0  0  0
 33 83  2  0  0  0  0
 34 51  1  0  0  0  0
 34 79  1  0  0  0  0
 34 84  2  0  0  0  0
 35 69  1  0  0  0  0
 35 75  1  0  0  0  0
 35 85  2  0  0  0  0
 36 70  1  0  0  0  0
 36 80  1  0  0  0  0
 36 86  2  0  0  0  0
 37 76  1  0  0  0  0
 37 81  1  0  0  0  0
 37 87  2  0  0  0  0
 38 43  1  0  0  0  0
 39 51  1  0  0  0  0
 40 52  1  0  0  0  0
 41 75  1  0  0  0  0
 42 44  1  0  0  0  0
 43 46  1  0  0  0  0
 44 52  1  0  0  0  0
 45 47  1  0  0  0  0
 45 48  1  0  0  0  0
 46 50  1  0  0  0  0
 47 53  1  0  0  0  0
 48 76  1  0  0  0  0
 49 53  1  0  0  0  0
 49 76  1  0  0  0  0
 50 79  1  0  0  0  0
 51 75  1  0  0  0  0
 52 62  1  0  0  0  0
 53 74  1  0  0  0  0
 54 63  1  0  0  0  0
 55 70  1  0  0  0  0
 56 71  1  0  0  0  0
 57 71  1  0  0  0  0
 58 71  1  0  0  0  0
 59 82  1  0  0  0  0
 60 64  1  0  0  0  0
 61 65  1  0  0  0  0
 62 89  1  0  0  0  0
 63 66  1  0  0  0  0
 64 67  1  0  0  0  0
 65 66  1  0  0  0  0
 67 68  1  0  0  0  0
 68 81  1  0  0  0  0
 69 71  1  0  0  0  0
 69 80  1  0  0  0  0
 70 82  1  0  0  0  0
 72 74  1  0  0  0  0
M  CHG  1  82   1
M  ISO  4  37 100  62 101  81 100  89 101
M  END
> <Batch ID>
0034

> <Smiles>
CCCCCc1nc2c(cc1CCCC[100NH:0][100C:0](=O)N1CCCC(n3nc(-c4ccc(Oc5ccc(F)cc5F)cc4)c(C(N)=O)c3N)C1)CC([101CH2:1][101O:1]c1ccc3c(c1)CN(C(=O)C(NC(=O)C(C)NC)C(C)(C)C)C(C(=O)NC1CCCc4ccccc41)C3)CC2

> <Shape>
0.172

> <Color>
0.089

> <Negative vol penalty>
0.000

$$$$

  -OEChem-04052316503D

 94102  0     1  0  0  0  0  0999 V2000
  -27.0117  -13.2448   25.0042 C   0  0  0  0  0  0  0  0  0  0  0  0
  -26.8594  -14.6192   24.8524 C   0  0  0  0  0  0  0  0  0  0  0  0
  -29.3771  -17.6191   19.1291 C   0  0  0  0  0  0  0  0  0  0  0  0
  -30.2936  -17.9980   21.3322 C   0  0  0  0  0  0  0  0  0  0  0  0
  -26.3411  -12.3716   24.1488 C   0  0  0  0  0  0  0  0  0  0  0  0
  -26.0371  -15.1213   23.8443 C   0  0  0  0  0  0  0  0  0  0  0  0
  -22.5674  -20.1617   24.0927 C   0  0  0  0  0  0  0  0  0  0  0  0
  -29.8465  -16.3059   19.1597 C   0  0  0  0  0  0  0  0  0  0  0  0
  -30.7630  -16.6848   21.3628 C   0  0  0  0  0  0  0  0  0  0  0  0
  -22.7659  -21.4609   23.6276 C   0  0  0  0  0  0  0  0  0  0  0  0
  -30.4893  -12.7454   18.8070 C   0  0  0  0  0  0  0  0  0  0  0  0
  -29.6242  -11.7374   18.3814 C   0  0  0  0  0  0  0  0  0  0  0  0
  -21.5280  -20.9274   21.6270 C   0  0  0  0  0  0  0  0  0  0  0  0
  -21.2277  -27.5820   20.7421 C   0  0  0  0  0  0  0  0  0  0  0  0
  -22.8985  -27.4981   22.4851 C   0  0  0  0  0  0  0  0  0  0  0  0
  -28.0560  -12.3518   20.1137 C   0  0  0  0  0  0  0  0  0  0  0  0
  -29.6007  -18.4651   20.2154 C   0  0  0  0  0  0  0  0  0  0  0  0
  -27.8635  -20.2877   20.6255 C   0  0  0  0  0  0  0  0  0  0  0  0
  -25.5025  -12.8630   23.1359 C   0  0  0  0  0  0  0  0  0  0  0  0
  -21.8558  -19.2308   23.3222 C   0  0  0  0  0  0  0  0  0  0  0  0
  -25.3557  -14.2539   22.9738 C   0  0  0  0  0  0  0  0  0  0  0  0
  -21.3197  -19.6178   22.0857 C   0  0  0  0  0  0  0  0  0  0  0  0
  -21.7391  -26.4052   20.1952 C   0  0  0  0  0  0  0  0  0  0  0  0
  -22.8302  -25.7748   20.7932 C   0  0  0  0  0  0  0  0  0  0  0  0
  -21.8074  -28.1285   21.8870 C   0  0  0  0  0  0  0  0  0  0  0  0
  -30.5394  -15.8388   20.2765 C   0  0  0  0  0  0  0  0  0  0  0  0
  -22.2487  -21.8432   22.3933 C   0  0  0  0  0  0  0  0  0  0  0  0
  -30.1378  -13.5566   19.8860 C   0  0  0  0  0  0  0  0  0  0  0  0
  -28.4076  -11.5406   19.0347 C   0  0  0  0  0  0  0  0  0  0  0  0
  -28.9212  -13.3598   20.5393 C   0  0  0  0  0  0  0  0  0  0  0  0
  -23.4100  -26.3212   21.9382 C   0  0  0  0  0  0  0  0  0  0  0  0
  -29.1165  -19.8219   20.1842 C   0  0  0  0  0  0  0  0  0  0  0  0
  -27.8941  -21.6390   20.3813 C   0  0  0  0  0  0  0  0  0  0  0  0
  -26.7698  -19.5637   21.2045 C   0  0  0  0  0  0  0  0  0  0  0  0
  -22.5516  -16.4402   21.9686 C   0  0  0  0  0  0  0  0  0  0  0  0
  -19.3788  -16.4186   21.2940 C   0  0  0  0  0  0  0  0  0  0  0  0
  -16.5076  -18.1986   20.8100 C   0  0  0  0  0  0  0  0  0  0  0  0
  -30.5364  -26.5524   20.5277 C   0  0  0  0  0  0  0  0  0  0  0  0
  -24.8355  -11.8811   22.2056 C   0  0  0  0  0  0  0  0  0  0  0  0
  -21.6275  -17.8410   23.8501 C   0  0  0  0  0  0  0  0  0  0  0  0
  -20.5311  -18.6622   21.2293 C   0  0  0  0  0  0  0  0  0  0  0  0
  -23.6885  -12.4871   21.4009 C   0  0  0  0  0  0  0  0  0  0  0  0
  -31.1803  -24.4336   17.7398 C   0  0  0  0  0  0  0  0  0  0  0  0
  -24.1043  -13.8288   20.8060 C   0  0  0  0  0  0  0  0  0  0  0  0
  -30.6033  -23.0826   18.1661 C   0  0  0  0  0  0  0  0  0  0  0  0
  -31.8149  -25.1727   18.9158 C   0  0  0  0  0  0  0  0  0  0  0  0
  -30.3591  -23.9902   20.5146 C   0  0  0  0  0  0  0  0  0  0  0  0
  -24.4530  -14.8365   21.9080 C   0  0  1  0  0  0  0  0  0  0  0  0
  -21.3283  -16.8261   22.7510 C   0  0  1  0  0  0  0  0  0  0  0  0
  -29.6587  -23.2323   19.3739 C   0  0  2  0  0  0  0  0  0  0  0  0
  -21.0988  -25.8420   18.9686 C   0  0  0  0  0  0  0  0  0  0  0  0
  -14.0824  -17.9071   20.2347 C   0  0  0  0  0  0  0  0  0  0  0  0
  -20.1303  -15.9496   18.3742 C   0  0  0  0  0  0  0  0  0  0  0  0
  -17.7999  -16.6101   17.7408 C   0  0  0  0  0  0  0  0  0  0  0  0
  -18.1796  -14.6068   19.1779 C   0  0  0  0  0  0  0  0  0  0  0  0
  -15.6364  -19.3736   23.3829 C   0  0  0  0  0  0  0  0  0  0  0  0
  -23.3667  -24.5124   20.1935 C   0  0  0  0  0  0  0  0  0  0  0  0
  -23.8568  -33.2554   22.2175 C   0  0  0  0  0  0  0  0  0  0  0  0
  -24.4179  -31.9977   21.5460 C   0  0  0  0  0  0  0  0  0  0  0  0
  -22.6114  -33.8092   21.5202 C   0  0  0  0  0  0  0  0  0  0  0  0
  -25.6775  -31.4572   22.2266 C   0  0  0  0  0  0  0  0  0  0  0  0
  -21.4676  -32.7925   21.4298 C   0  0  0  0  0  0  0  0  0  0  0  0
  -26.1821  -30.1900   21.5323 C   0  0  0  0  0  0  0  0  0  0  0  0
  -21.0045  -32.2827   22.7970 C   0  0  0  0  0  0  0  0  0  0  0  0
  -27.4603  -29.6666   22.1907 C   0  0  0  0  0  0  0  0  0  0  0  0
  -19.8652  -31.2590   22.7094 C   0  0  0  0  0  0  0  0  0  0  0  0
  -27.9420  -28.3763   21.5209 C   0  0  0  0  0  0  0  0  0  0  0  0
  -20.1754  -30.0159   21.8790 C   0  0  0  0  0  0  0  0  0  0  0  0
  -29.1827  -27.7977   22.1938 C   0  0  0  0  0  0  0  0  0  0  0  0
  -22.5096  -23.2892   20.5233 C   0  0  0  0  0  0  0  0  0  1  0  0
  -18.5253  -16.9143   20.1517 C   0  0  1  0  0  0  0  0  0  0  0  0
  -15.1035  -18.0137   21.3567 C   0  0  2  0  0  0  0  0  0  0  0  0
  -18.6753  -16.0379   18.8762 C   0  0  0  0  0  0  0  0  0  0  0  0
  -29.8869  -20.7979   19.6964 N   0  0  0  0  0  0  0  0  0  0  0  0
  -29.1159  -21.8905   19.8297 N   0  0  0  0  0  0  0  0  0  0  0  0
  -20.3402  -17.3127   21.7861 N   0  0  0  0  0  0  0  0  0  0  0  0
  -30.8667  -25.2823   20.0270 N   0  0  0  0  0  0  0  0  0  0  0  0
  -26.9948  -22.6246   20.5866 N   0  0  0  0  0  0  0  0  0  0  0  0
  -26.9052  -18.1805   21.3853 N   0  0  0  0  0  0  0  0  0  0  0  0
  -21.2990  -29.2981   22.4304 N   0  0  0  0  0  0  0  0  0  0  0  0
  -23.2474  -15.3725   22.5027 N   0  0  0  0  0  0  0  0  0  0  0  0
  -17.1621  -16.9937   20.6652 N   0  0  0  0  0  0  0  0  0  0  0  0
  -29.6256  -26.5672   21.5769 N   0  0  0  0  0  0  0  0  0  0  0  0
  -14.7296  -19.1660   22.2246 N   0  3  0  0  0  0  0  0  0  0  0  0
  -25.6977  -20.1241   21.5362 O   0  0  0  0  0  0  0  0  0  0  0  0
  -22.8419  -17.0640   20.9546 O   0  0  0  0  0  0  0  0  0  0  0  0
  -19.1943  -15.2827   21.7381 O   0  0  0  0  0  0  0  0  0  0  0  0
  -16.9754  -19.3014   20.5352 O   0  0  0  0  0  0  0  0  0  0  0  0
  -31.0136  -27.5963   20.0698 O   0  0  0  0  0  0  0  0  0  0  0  0
  -30.9974  -14.5574   20.3068 O   0  0  0  0  0  0  0  0  0  0  0  0
  -22.4429  -23.1194   21.9335 O   0  0  0  0  0  0  0  0  0  1  0  0
  -27.5762  -10.5736   18.6250 F   0  0  0  0  0  0  0  0  0  0  0  0
  -28.5775  -14.1368   21.5756 F   0  0  0  0  0  0  0  0  0  0  0  0
  -24.7614  -25.5716   22.7082 Cl  0  0  0  0  0  0  0  0  0  0  0  0
  1  2  1  0  0  0  0
  1  5  2  0  0  0  0
  2  6  2  0  0  0  0
  3  8  2  0  0  0  0
  3 17  1  0  0  0  0
  4  9  1  0  0  0  0
  4 17  2  0  0  0  0
  5 19  1  0  0  0  0
  6 21  1  0  0  0  0
  7 10  2  0  0  0  0
  7 20  1  0  0  0  0
  8 26  1  0  0  0  0
  9 26  2  0  0  0  0
 10 27  1  0  0  0  0
 11 12  2  0  0  0  0
 11 28  1  0  0  0  0
 12 29  1  0  0  0  0
 13 22  1  0  0  0  0
 13 27  2  0  0  0  0
 14 23  2  0  0  0  0
 14 25  1  0  0  0  0
 15 25  2  0  0  0  0
 15 31  1  0  0  0  0
 16 29  2  0  0  0  0
 16 30  1  0  0  0  0
 17 32  1  0  0  0  0
 18 32  1  0  0  0  0
 18 33  2  0  0  0  0
 18 34  1  0  0  0  0
 19 21  2  0  0  0  0
 19 39  1  0  0  0  0
 20 22  2  0  0  0  0
 20 40  1  0  0  0  0
 21 48  1  0  0  0  0
 22 41  1  0  0  0  0
 23 24  1  0  0  0  0
 23 51  1  0  0  0  0
 24 31  2  0  0  0  0
 24 57  1  0  0  0  0
 25 80  1  0  0  0  0
 26 90  1  0  0  0  0
 27 91  1  0  0  0  0
 28 30  2  0  0  0  0
 28 90  1  0  0  0  0
 29 92  1  0  0  0  0
 30 93  1  0  0  0  0
 31 94  1  0  0  0  0
 32 74  2  0  0  0  0
 33 75  1  0  0  0  0
 33 78  1  0  0  0  0
 34 79  1  0  0  0  0
 34 85  2  0  0  0  0
 35 49  1  0  0  0  0
 35 81  1  0  0  0  0
 35 86  2  0  0  0  0
 36 71  1  0  0  0  0
 36 76  1  0  0  0  0
 36 87  2  0  0  0  0
 37 72  1  0  0  0  0
 37 82  1  0  0  0  0
 37 88  2  0  0  0  0
 38 77  1  0  0  0  0
 38 83  1  0  0  0  0
 38 89  2  0  0  0  0
 39 42  1  0  0  0  0
 40 49  1  0  0  0  0
 41 76  1  0  0  0  0
 42 44  1  0  0  0  0
 43 45  1  0  0  0  0
 43 46  1  0  0  0  0
 44 48  1  0  0  0  0
 45 50  1  0  0  0  0
 46 77  1  0  0  0  0
 47 50  1  0  0  0  0
 47 77  1  0  0  0  0
 48 81  1  0  0  0  0
 49 76  1  0  0  0  0
 50 75  1  0  0  0  0
 52 72  1  0  0  0  0
 53 73  1  0  0  0  0
 54 73  1  0  0  0  0
 55 73  1  0  0  0  0
 56 84  1  0  0  0  0
 57 70  1  0  0  0  0
 58 59  1  0  0  0  0
 58 60  1  0  0  0  0
 59 61  1  0  0  0  0
 60 62  1  0  0  0  0
 61 63  1  0  0  0  0
 62 64  1  0  0  0  0
 63 65  1  0  0  0  0
 64 66  1  0  0  0  0
 65 67  1  0  0  0  0
 66 68  1  0  0  0  0
 67 69  1  0  0  0  0
 68 80  1  0  0  0  0
 69 83  1  0  0  0  0
 70 91  1  0  0  0  0
 71 73  1  0  0  0  0
 71 82  1  0  0  0  0
 72 84  1  0  0  0  0
 74 75  1  0  0  0  0
M  CHG  1  84   1
M  ISO  4  38 100  70 101  83 100  91 101
M  END
> <Batch ID>
0034

> <Smiles>
CNC(C)C(=O)NC(C(=O)N1Cc2cc([101O:1][101CH2:1]Cc3c(C)cc(NCCCCCCCCCCCC[100NH:0][100C:0](=O)N4CCCC(n5nc(-c6ccc(Oc7ccc(F)cc7F)cc6)c(C(N)=O)c5N)C4)cc3Cl)ccc2CC1C(=O)NC1CCCc2ccccc21)C(C)(C)C

> <Shape>
0.228

> <Color>
0.059

> <Negative vol penalty>
0.000

$$$$

  -OEChem-04052316503D

 86 95  0     1  0  0  0  0  0999 V2000
  -35.8436  -30.7274   17.8798 C   0  0  0  0  0  0  0  0  0  0  0  0
  -35.2127  -29.6252   17.3120 C   0  0  0  0  0  0  0  0  0  0  0  0
  -23.0032   -9.8970   19.9704 C   0  0  0  0  0  0  0  0  0  0  0  0
  -23.7434   -9.9231   22.2701 C   0  0  0  0  0  0  0  0  0  0  0  0
  -35.2462  -31.3985   18.9460 C   0  0  0  0  0  0  0  0  0  0  0  0
  -33.9844  -29.1927   17.8108 C   0  0  0  0  0  0  0  0  0  0  0  0
  -29.3657  -26.7530   14.6138 C   0  0  0  0  0  0  0  0  0  0  0  0
  -22.2409   -8.7578   20.2287 C   0  0  0  0  0  0  0  0  0  0  0  0
  -22.9811   -8.7839   22.5284 C   0  0  0  0  0  0  0  0  0  0  0  0
  -28.9643  -25.4346   14.4029 C   0  0  0  0  0  0  0  0  0  0  0  0
  -23.2294   -5.4512   22.0164 C   0  0  0  0  0  0  0  0  0  0  0  0
  -23.8241   -4.4267   22.7529 C   0  0  0  0  0  0  0  0  0  0  0  0
  -28.6334  -19.2731   18.4805 C   0  0  0  0  0  0  0  0  0  0  0  0
  -27.3709  -25.6381   16.2026 C   0  0  0  0  0  0  0  0  0  0  0  0
  -28.7852  -20.7921   20.3478 C   0  0  0  0  0  0  0  0  0  0  0  0
  -22.1108   -4.6465   24.4421 C   0  0  0  0  0  0  0  0  0  0  0  0
  -23.7545  -10.4796   20.9911 C   0  0  0  0  0  0  0  0  0  0  0  0
  -24.1333  -12.9979   20.8415 C   0  0  0  0  0  0  0  0  0  0  0  0
  -34.0054  -30.9799   19.4518 C   0  0  0  0  0  0  0  0  0  0  0  0
  -28.7793  -27.5217   15.6295 C   0  0  0  0  0  0  0  0  0  0  0  0
  -33.3705  -29.8580   18.8856 C   0  0  0  0  0  0  0  0  0  0  0  0
  -28.3915  -20.3447   17.6069 C   0  0  0  0  0  0  0  0  0  0  0  0
  -27.7648  -26.9668   16.4226 C   0  0  0  0  0  0  0  0  0  0  0  0
  -28.3697  -21.6568   18.1135 C   0  0  0  0  0  0  0  0  0  0  0  0
  -28.8265  -19.4959   19.8432 C   0  0  0  0  0  0  0  0  0  0  0  0
  -28.5555  -21.8662   19.4889 C   0  0  0  0  0  0  0  0  0  0  0  0
  -22.2298   -8.2013   21.5076 C   0  0  0  0  0  0  0  0  0  0  0  0
  -27.9689  -24.8760   15.1992 C   0  0  0  0  0  0  0  0  0  0  0  0
  -22.0755   -6.0734   22.4928 C   0  0  0  0  0  0  0  0  0  0  0  0
  -23.2648   -4.0243   23.9657 C   0  0  0  0  0  0  0  0  0  0  0  0
  -21.5161   -5.6710   23.7056 C   0  0  0  0  0  0  0  0  0  0  0  0
  -24.5426  -11.6561   20.7248 C   0  0  0  0  0  0  0  0  0  0  0  0
  -25.2390  -13.7271   20.4782 C   0  0  0  0  0  0  0  0  0  0  0  0
  -22.8667  -13.5370   21.2426 C   0  0  0  0  0  0  0  0  0  0  0  0
  -29.8446  -28.9436   18.2652 C   0  0  0  0  0  0  0  0  0  0  0  0
  -26.8186  -30.1052   18.3934 C   0  0  0  0  0  0  0  0  0  0  0  0
  -23.5398  -29.7511   17.5156 C   0  0  0  0  0  0  0  0  0  0  0  0
  -30.7349  -14.6710   20.7014 C   0  0  0  0  0  0  0  0  0  0  0  0
  -33.4213  -31.7082   20.6363 C   0  0  0  0  0  0  0  0  0  0  0  0
  -29.2046  -28.9509   15.8267 C   0  0  0  0  0  0  0  0  0  0  0  0
  -28.2213  -20.0609   16.1361 C   0  0  0  0  0  0  0  0  0  0  0  0
  -28.0922  -22.8454   17.2267 C   0  0  0  0  0  0  0  0  0  0  0  0
  -27.0894  -27.7563   17.5130 C   0  0  0  0  0  0  0  0  0  0  0  0
  -31.9404  -31.4144   20.8622 C   0  0  0  0  0  0  0  0  0  0  0  0
  -27.6220  -21.2319   15.3619 C   0  0  0  0  0  0  0  0  0  0  0  0
  -29.5840  -12.2720   18.3357 C   0  0  0  0  0  0  0  0  0  0  0  0
  -31.6740  -29.9151   20.7735 C   0  0  0  0  0  0  0  0  0  0  0  0
  -28.1388  -12.0042   18.7598 C   0  0  0  0  0  0  0  0  0  0  0  0
  -30.4938  -12.4954   19.5416 C   0  0  0  0  0  0  0  0  0  0  0  0
  -28.5909  -13.2712   20.9020 C   0  0  0  0  0  0  0  0  0  0  0  0
  -32.0257  -29.3736   19.3826 C   0  0  1  0  0  0  0  0  0  0  0  0
  -28.9000  -29.4773   17.2258 C   0  0  1  0  0  0  0  0  0  0  0  0
  -27.6245  -13.0951   19.7182 C   0  0  2  0  0  0  0  0  0  0  0  0
  -28.2727  -22.5720   15.7240 C   0  0  2  0  0  0  0  0  0  1  0  0
  -28.5243  -23.2388   20.0833 C   0  0  0  0  0  0  0  0  0  0  0  0
  -29.7453  -22.6334   15.3040 C   0  0  0  0  0  0  0  0  0  0  0  0
  -21.2959  -30.8381   17.8000 C   0  0  0  0  0  0  0  0  0  0  0  0
  -26.6557  -29.0185   21.2399 C   0  0  0  0  0  0  0  0  0  0  0  0
  -24.1677  -29.2716   21.1197 C   0  0  0  0  0  0  0  0  0  0  0  0
  -25.6348  -31.2799   20.9265 C   0  0  0  0  0  0  0  0  0  0  0  0
  -23.2517  -30.1857   14.6023 C   0  0  0  0  0  0  0  0  0  0  0  0
  -29.0772  -18.3457   20.7587 C   0  0  0  0  0  0  0  0  0  0  0  0
  -30.5649  -17.9817   20.9338 C   0  0  0  0  0  0  0  0  0  0  0  0
  -30.8208  -16.8363   21.9110 C   0  0  0  0  0  0  0  0  0  0  0  0
  -25.5198  -29.6396   19.0060 C   0  0  1  0  0  0  0  0  0  0  0  0
  -22.5411  -30.7348   16.9330 C   0  0  2  0  0  0  0  0  0  0  0  0
  -25.5084  -29.7867   20.5538 C   0  0  0  0  0  0  0  0  0  0  0  0
  -25.8095  -11.5370   20.3188 N   0  0  0  0  0  0  0  0  0  0  0  0
  -26.2058  -12.8133   20.1773 N   0  0  0  0  0  0  0  0  0  0  0  0
  -27.5445  -29.1475   17.6710 N   0  0  0  0  0  0  0  0  0  0  0  0
  -29.9504  -13.5431   20.4094 N   0  0  0  0  0  0  0  0  0  0  0  0
  -25.4690  -15.0544   20.3899 N   0  0  0  0  0  0  0  0  0  0  0  0
  -21.8391  -12.6467   21.5827 N   0  0  0  0  0  0  0  0  0  0  0  0
  -30.9852  -29.7054   18.4331 N   0  0  0  0  0  0  0  0  0  0  0  0
  -24.4605  -30.3787   18.3278 N   0  0  0  0  0  0  0  0  0  0  0  0
  -30.1418  -15.6191   21.5261 N   0  0  0  0  0  0  0  0  0  0  0  0
  -22.1282  -30.3059   15.5668 N   0  3  0  0  0  0  0  0  0  0  0  0
  -22.6475  -14.7715   21.2821 O   0  0  0  0  0  0  0  0  0  0  0  0
  -29.5591  -27.9174   18.8711 O   0  0  0  0  0  0  0  0  0  0  0  0
  -27.1724  -31.2773   18.5440 O   0  0  0  0  0  0  0  0  0  0  0  0
  -23.5042  -28.5459   17.2772 O   0  0  0  0  0  0  0  0  0  0  0  0
  -31.8771  -14.8245   20.2555 O   0  0  0  0  0  0  0  0  0  0  0  0
  -21.4858   -7.0898   21.7601 O   0  0  0  0  0  0  0  0  0  0  0  0
  -27.5757  -23.5891   14.9959 O   0  0  0  0  0  0  0  0  0  1  0  0
  -23.8351   -3.0395   24.6721 F   0  0  0  0  0  0  0  0  0  0  0  0
  -20.4069   -6.2642   24.1678 F   0  0  0  0  0  0  0  0  0  0  0  0
  1  2  1  0  0  0  0
  1  5  2  0  0  0  0
  2  6  2  0  0  0  0
  3  8  2  0  0  0  0
  3 17  1  0  0  0  0
  4  9  1  0  0  0  0
  4 17  2  0  0  0  0
  5 19  1  0  0  0  0
  6 21  1  0  0  0  0
  7 10  2  0  0  0  0
  7 20  1  0  0  0  0
  8 27  1  0  0  0  0
  9 27  2  0  0  0  0
 10 28  1  0  0  0  0
 11 12  2  0  0  0  0
 11 29  1  0  0  0  0
 12 30  1  0  0  0  0
 13 22  1  0  0  0  0
 13 25  2  0  0  0  0
 14 23  1  0  0  0  0
 14 28  2  0  0  0  0
 15 25  1  0  0  0  0
 15 26  2  0  0  0  0
 16 30  2  0  0  0  0
 16 31  1  0  0  0  0
 17 32  1  0  0  0  0
 18 32  1  0  0  0  0
 18 33  2  0  0  0  0
 18 34  1  0  0  0  0
 19 21  2  0  0  0  0
 19 39  1  0  0  0  0
 20 23  2  0  0  0  0
 20 40  1  0  0  0  0
 21 51  1  0  0  0  0
 22 24  2  0  0  0  0
 22 41  1  0  0  0  0
 23 43  1  0  0  0  0
 24 26  1  0  0  0  0
 24 42  1  0  0  0  0
 25 62  1  0  0  0  0
 26 55  1  0  0  0  0
 27 83  1  0  0  0  0
 28 84  1  0  0  0  0
 29 31  2  0  0  0  0
 29 83  1  0  0  0  0
 30 85  1  0  0  0  0
 31 86  1  0  0  0  0
 32 68  2  0  0  0  0
 33 69  1  0  0  0  0
 33 72  1  0  0  0  0
 34 73  1  0  0  0  0
 34 78  2  0  0  0  0
 35 52  1  0  0  0  0
 35 74  1  0  0  0  0
 35 79  2  0  0  0  0
 36 65  1  0  0  0  0
 36 70  1  0  0  0  0
 36 80  2  0  0  0  0
 37 66  1  0  0  0  0
 37 75  1  0  0  0  0
 37 81  2  0  0  0  0
 38 71  1  0  0  0  0
 38 76  1  0  0  0  0
 38 82  2  0  0  0  0
 39 44  1  0  0  0  0
 40 52  1  0  0  0  0
 41 45  1  0  0  0  0
 42 54  1  0  0  0  0
 43 70  1  0  0  0  0
 44 47  1  0  0  0  0
 45 54  1  0  0  0  0
 46 48  1  0  0  0  0
 46 49  1  0  0  0  0
 47 51  1  0  0  0  0
 48 53  1  0  0  0  0
 49 71  1  0  0  0  0
 50 53  1  0  0  0  0
 50 71  1  0  0  0  0
 51 74  1  0  0  0  0
 52 70  1  0  0  0  0
 53 69  1  0  0  0  0
 54 56  1  0  0  0  0
 54 84  1  0  0  0  0
 57 66  1  0  0  0  0
 58 67  1  0  0  0  0
 59 67  1  0  0  0  0
 60 67  1  0  0  0  0
 61 77  1  0  0  0  0
 62 63  1  0  0  0  0
 63 64  1  0  0  0  0
 64 76  1  0  0  0  0
 65 67  1  0  0  0  0
 65 75  1  0  0  0  0
 66 77  1  0  0  0  0
 68 69  1  0  0  0  0
M  CHG  1  77   1
M  ISO  4  38 100  54 101  76 100  84 101
M  END
> <Batch ID>
0034

> <Smiles>
CNC(C)C(=O)NC(C(=O)N1Cc2cc([101O:1][101C:1]3(C)CCc4cc(CCC[100NH:0][100C:0](=O)N5CCCC(n6nc(-c7ccc(Oc8ccc(F)cc8F)cc7)c(C(N)=O)c6N)C5)cc(C)c4C3)ccc2CC1C(=O)NC1CCCc2ccccc21)C(C)(C)C

> <Shape>
0.259

> <Color>
0.202

> <Negative vol penalty>
0.000

$$$$

  -OEChem-04052316503D

 85 93  0     1  0  0  0  0  0999 V2000
  -27.6547  -22.9185   15.7817 C   0  0  0  0  0  0  0  0  0  0  0  0
  -27.4174  -22.5650   17.1062 C   0  0  0  0  0  0  0  0  0  0  0  0
  -23.0024   -9.8885   19.9868 C   0  0  0  0  0  0  0  0  0  0  0  0
  -23.7247   -9.9537   22.2913 C   0  0  0  0  0  0  0  0  0  0  0  0
  -28.6426  -23.8541   15.4775 C   0  0  0  0  0  0  0  0  0  0  0  0
  -28.1687  -23.1460   18.1271 C   0  0  0  0  0  0  0  0  0  0  0  0
  -25.3167  -24.6047   22.0492 C   0  0  0  0  0  0  0  0  0  0  0  0
  -22.2372   -8.7544   20.2586 C   0  0  0  0  0  0  0  0  0  0  0  0
  -22.9595   -8.8196   22.5632 C   0  0  0  0  0  0  0  0  0  0  0  0
  -24.8953  -23.6129   22.9337 C   0  0  0  0  0  0  0  0  0  0  0  0
  -23.2093   -5.4784   22.1105 C   0  0  0  0  0  0  0  0  0  0  0  0
  -23.7974   -4.4663   22.8691 C   0  0  0  0  0  0  0  0  0  0  0  0
  -26.6573  -24.2336   24.4599 C   0  0  0  0  0  0  0  0  0  0  0  0
  -27.5626  -17.8127   22.5680 C   0  0  0  0  0  0  0  0  0  0  0  0
  -27.8395  -20.3732   23.6403 C   0  0  0  0  0  0  0  0  0  0  0  0
  -22.0711   -4.7162   24.5408 C   0  0  0  0  0  0  0  0  0  0  0  0
  -23.7462  -10.4881   21.0031 C   0  0  0  0  0  0  0  0  0  0  0  0
  -24.1280  -13.0033   20.8133 C   0  0  0  0  0  0  0  0  0  0  0  0
  -29.3999  -24.4541   16.4959 C   0  0  0  0  0  0  0  0  0  0  0  0
  -26.4203  -25.4126   22.3591 C   0  0  0  0  0  0  0  0  0  0  0  0
  -29.1687  -24.0895   17.8361 C   0  0  0  0  0  0  0  0  0  0  0  0
  -27.0892  -25.2367   23.5788 C   0  0  0  0  0  0  0  0  0  0  0  0
  -26.8896  -18.1540   23.7411 C   0  0  0  0  0  0  0  0  0  0  0  0
  -28.3741  -18.7515   21.9311 C   0  0  0  0  0  0  0  0  0  0  0  0
  -27.0280  -19.4343   24.2773 C   0  0  0  0  0  0  0  0  0  0  0  0
  -22.2157   -8.2199   21.5468 C   0  0  0  0  0  0  0  0  0  0  0  0
  -25.5674  -23.4252   24.1380 C   0  0  0  0  0  0  0  0  0  0  0  0
  -22.0521   -6.1094   22.5671 C   0  0  0  0  0  0  0  0  0  0  0  0
  -23.2284   -4.0852   24.0842 C   0  0  0  0  0  0  0  0  0  0  0  0
  -21.4830   -5.7283   23.7823 C   0  0  0  0  0  0  0  0  0  0  0  0
  -28.5125  -20.0318   22.4673 C   0  0  0  0  0  0  0  0  0  0  0  0
  -24.5372  -11.6593   20.7228 C   0  0  0  0  0  0  0  0  0  0  0  0
  -25.2371  -13.7254   20.4462 C   0  0  0  0  0  0  0  0  0  0  0  0
  -22.8587  -13.5500   21.1952 C   0  0  0  0  0  0  0  0  0  0  0  0
  -29.2724  -25.9131   21.0480 C   0  0  0  0  0  0  0  0  0  0  0  0
  -29.4874  -28.2059   23.3326 C   0  0  0  0  0  0  0  0  0  0  0  0
  -28.4699  -29.3681   26.3757 C   0  0  0  0  0  0  0  0  0  0  0  0
  -30.7318  -14.6696   20.6961 C   0  0  0  0  0  0  0  0  0  0  0  0
  -30.4891  -25.4251   16.1146 C   0  0  0  0  0  0  0  0  0  0  0  0
  -26.8458  -26.4958   21.4062 C   0  0  0  0  0  0  0  0  0  0  0  0
  -28.2671  -26.0910   23.9676 C   0  0  0  0  0  0  0  0  0  0  0  0
  -30.9859  -26.2727   17.2829 C   0  0  0  0  0  0  0  0  0  0  0  0
  -29.5975  -12.2310   18.3630 C   0  0  0  0  0  0  0  0  0  0  0  0
  -31.2378  -25.3987   18.5074 C   0  0  0  0  0  0  0  0  0  0  0  0
  -28.1489  -11.9714   18.7803 C   0  0  0  0  0  0  0  0  0  0  0  0
  -30.4981  -12.4745   19.5720 C   0  0  0  0  0  0  0  0  0  0  0  0
  -28.5852  -13.2748   20.9039 C   0  0  0  0  0  0  0  0  0  0  0  0
  -29.9459  -24.7163   18.9732 C   0  0  1  0  0  0  0  0  0  0  0  0
  -28.2993  -26.9195   21.5938 C   0  0  1  0  0  0  0  0  0  0  0  0
  -27.6279  -13.0790   19.7158 C   0  0  2  0  0  0  0  0  0  0  0  0
  -26.0278  -17.1324   24.4076 C   0  0  0  0  0  0  0  0  0  0  0  0
  -28.8509  -31.2473   27.9946 C   0  0  0  0  0  0  0  0  0  0  0  0
  -32.1286  -26.9357   24.1817 C   0  0  0  0  0  0  0  0  0  0  0  0
  -31.9754  -28.2179   26.3267 C   0  0  0  0  0  0  0  0  0  0  0  0
  -32.1344  -29.4364   24.1559 C   0  0  0  0  0  0  0  0  0  0  0  0
  -25.6500  -30.2484   26.1967 C   0  0  0  0  0  0  0  0  0  0  0  0
  -29.0782  -18.3463   20.6765 C   0  0  0  0  0  0  0  0  0  0  0  0
  -26.3124  -19.8250   25.5457 C   0  0  0  0  0  0  0  0  0  0  0  0
  -30.5625  -17.9839   20.8702 C   0  0  0  0  0  0  0  0  0  0  0  0
  -24.8213  -20.1074   25.3497 C   0  0  0  0  0  0  0  0  0  0  0  0
  -30.8098  -16.8553   21.8689 C   0  0  0  0  0  0  0  0  0  0  0  0
  -24.5470  -21.2982   24.4384 C   0  0  0  0  0  0  0  0  0  1  0  0
  -29.9834  -28.2519   24.7577 C   0  0  1  0  0  0  0  0  0  0  0  0
  -28.0153  -30.7441   26.8278 C   0  0  2  0  0  0  0  0  0  0  0  0
  -31.5345  -28.1929   24.8476 C   0  0  0  0  0  0  0  0  0  0  0  0
  -25.8072  -11.5325   20.3289 N   0  0  0  0  0  0  0  0  0  0  0  0
  -26.2055  -12.8060   20.1685 N   0  0  0  0  0  0  0  0  0  0  0  0
  -28.6490  -27.1326   22.9998 N   0  0  0  0  0  0  0  0  0  0  0  0
  -29.9487  -13.5372   20.4174 N   0  0  0  0  0  0  0  0  0  0  0  0
  -25.4687  -15.0509   20.3369 N   0  0  0  0  0  0  0  0  0  0  0  0
  -21.8278  -12.6662   21.5425 N   0  0  0  0  0  0  0  0  0  0  0  0
  -29.1144  -25.6512   19.7005 N   0  0  0  0  0  0  0  0  0  0  0  0
  -29.3951  -29.4453   25.3562 N   0  0  0  0  0  0  0  0  0  0  0  0
  -30.1330  -15.6320   21.4997 N   0  0  0  0  0  0  0  0  0  0  0  0
  -26.5881  -30.7037   27.2548 N   0  3  0  0  0  0  0  0  0  0  0  0
  -22.6402  -14.7851   21.2117 O   0  0  0  0  0  0  0  0  0  0  0  0
  -30.1058  -25.4124   21.7939 O   0  0  0  0  0  0  0  0  0  0  0  0
  -29.8256  -29.0936   22.5456 O   0  0  0  0  0  0  0  0  0  0  0  0
  -28.0493  -28.3288   26.8793 O   0  0  0  0  0  0  0  0  0  0  0  0
  -31.8775  -14.8147   20.2565 O   0  0  0  0  0  0  0  0  0  0  0  0
  -21.4690   -7.1134   21.8125 O   0  0  0  0  0  0  0  0  0  0  0  0
  -25.1585  -22.4574   25.0028 O   0  0  0  0  0  0  0  0  0  1  0  0
  -23.7924   -3.1122   24.8119 F   0  0  0  0  0  0  0  0  0  0  0  0
  -20.3707   -6.3300   24.2255 F   0  0  0  0  0  0  0  0  0  0  0  0
  -29.5080  -21.2196   21.7073 Cl  0  0  0  0  0  0  0  0  0  0  0  0
  1  2  1  0  0  0  0
  1  5  2  0  0  0  0
  2  6  2  0  0  0  0
  3  8  2  0  0  0  0
  3 17  1  0  0  0  0
  4  9  1  0  0  0  0
  4 17  2  0  0  0  0
  5 19  1  0  0  0  0
  6 21  1  0  0  0  0
  7 10  2  0  0  0  0
  7 20  1  0  0  0  0
  8 26  1  0  0  0  0
  9 26  2  0  0  0  0
 10 27  1  0  0  0  0
 11 12  2  0  0  0  0
 11 28  1  0  0  0  0
 12 29  1  0  0  0  0
 13 22  1  0  0  0  0
 13 27  2  0  0  0  0
 14 23  1  0  0  0  0
 14 24  2  0  0  0  0
 15 25  1  0  0  0  0
 15 31  2  0  0  0  0
 16 29  2  0  0  0  0
 16 30  1  0  0  0  0
 17 32  1  0  0  0  0
 18 32  1  0  0  0  0
 18 33  2  0  0  0  0
 18 34  1  0  0  0  0
 19 21  2  0  0  0  0
 19 39  1  0  0  0  0
 20 22  2  0  0  0  0
 20 40  1  0  0  0  0
 21 48  1  0  0  0  0
 22 41  1  0  0  0  0
 23 25  2  0  0  0  0
 23 51  1  0  0  0  0
 24 31  1  0  0  0  0
 24 57  1  0  0  0  0
 25 58  1  0  0  0  0
 26 81  1  0  0  0  0
 27 82  1  0  0  0  0
 28 30  2  0  0  0  0
 28 81  1  0  0  0  0
 29 83  1  0  0  0  0
 30 84  1  0  0  0  0
 31 85  1  0  0  0  0
 32 66  2  0  0  0  0
 33 67  1  0  0  0  0
 33 70  1  0  0  0  0
 34 71  1  0  0  0  0
 34 76  2  0  0  0  0
 35 49  1  0  0  0  0
 35 72  1  0  0  0  0
 35 77  2  0  0  0  0
 36 63  1  0  0  0  0
 36 68  1  0  0  0  0
 36 78  2  0  0  0  0
 37 64  1  0  0  0  0
 37 73  1  0  0  0  0
 37 79  2  0  0  0  0
 38 69  1  0  0  0  0
 38 74  1  0  0  0  0
 38 80  2  0  0  0  0
 39 42  1  0  0  0  0
 40 49  1  0  0  0  0
 41 68  1  0  0  0  0
 42 44  1  0  0  0  0
 43 45  1  0  0  0  0
 43 46  1  0  0  0  0
 44 48  1  0  0  0  0
 45 50  1  0  0  0  0
 46 69  1  0  0  0  0
 47 50  1  0  0  0  0
 47 69  1  0  0  0  0
 48 72  1  0  0  0  0
 49 68  1  0  0  0  0
 50 67  1  0  0  0  0
 52 64  1  0  0  0  0
 53 65  1  0  0  0  0
 54 65  1  0  0  0  0
 55 65  1  0  0  0  0
 56 75  1  0  0  0  0
 57 59  1  0  0  0  0
 58 60  1  0  0  0  0
 59 61  1  0  0  0  0
 60 62  1  0  0  0  0
 61 74  1  0  0  0  0
 62 82  1  0  0  0  0
 63 65  1  0  0  0  0
 63 73  1  0  0  0  0
 64 75  1  0  0  0  0
 66 67  1  0  0  0  0
M  CHG  1  75   1
M  ISO  4  38 100  62 101  74 100  82 101
M  END
> <Batch ID>
0034

> <Smiles>
CNC(C)C(=O)NC(C(=O)N1Cc2cc([101O:1][101CH2:1]CCc3cc(Cl)c(CCC[100NH:0][100C:0](=O)N4CCCC(n5nc(-c6ccc(Oc7ccc(F)cc7F)cc6)c(C(N)=O)c5N)C4)cc3C)ccc2CC1C(=O)NC1CCCc2ccccc21)C(C)(C)C

> <Shape>
0.261

> <Color>
0.206

> <Negative vol penalty>
0.000

$$$$

  -OEChem-04052316503D

 85 94  0     1  0  0  0  0  0999 V2000
  -17.0276  -28.8324   24.5017 C   0  0  0  0  0  0  0  0  0  0  0  0
  -17.7779  -27.7862   23.9747 C   0  0  0  0  0  0  0  0  0  0  0  0
  -28.1409  -21.3501   22.7458 C   0  0  0  0  0  0  0  0  0  0  0  0
  -26.0929  -13.8948   21.3871 C   0  0  0  0  0  0  0  0  0  0  0  0
  -26.3560  -12.3182   19.5754 C   0  0  0  0  0  0  0  0  0  0  0  0
  -17.2481  -30.1372   24.0625 C   0  0  0  0  0  0  0  0  0  0  0  0
  -18.7486  -28.0440   23.0074 C   0  0  0  0  0  0  0  0  0  0  0  0
  -23.0838  -25.5839   23.9016 C   0  0  0  0  0  0  0  0  0  0  0  0
  -26.8259  -21.1176   23.1382 C   0  0  0  0  0  0  0  0  0  0  0  0
  -24.8510  -13.3376   21.6917 C   0  0  0  0  0  0  0  0  0  0  0  0
  -25.1141  -11.7609   19.8801 C   0  0  0  0  0  0  0  0  0  0  0  0
  -23.1267  -24.2296   23.5734 C   0  0  0  0  0  0  0  0  0  0  0  0
  -23.8405   -9.6139   22.1580 C   0  0  0  0  0  0  0  0  0  0  0  0
  -23.7467   -8.2226   22.1905 C   0  0  0  0  0  0  0  0  0  0  0  0
  -24.2850  -24.7684   21.5271 C   0  0  0  0  0  0  0  0  0  0  0  0
  -30.2803  -20.8671   19.7508 C   0  0  0  0  0  0  0  0  0  0  0  0
  -22.0818   -8.2940   20.4411 C   0  0  0  0  0  0  0  0  0  0  0  0
  -28.5698  -21.0006   21.4541 C   0  0  0  0  0  0  0  0  0  0  0  0
  -26.8454  -13.3852   20.3289 C   0  0  0  0  0  0  0  0  0  0  0  0
  -29.3813  -13.5782   20.5280 C   0  0  0  0  0  0  0  0  0  0  0  0
  -18.2287  -30.4124   23.0964 C   0  0  0  0  0  0  0  0  0  0  0  0
  -23.6324  -26.5432   23.0384 C   0  0  0  0  0  0  0  0  0  0  0  0
  -18.9816  -29.3535   22.5539 C   0  0  0  0  0  0  0  0  0  0  0  0
  -24.2500  -26.1341   21.8479 C   0  0  0  0  0  0  0  0  0  0  0  0
  -25.9359  -20.5360   22.2439 C   0  0  0  0  0  0  0  0  0  0  0  0
  -29.8877  -21.2235   21.0329 C   0  0  0  0  0  0  0  0  0  0  0  0
  -26.3625  -20.1885   20.9597 C   0  0  0  0  0  0  0  0  0  0  0  0
  -27.6716  -20.4098   20.5408 C   0  0  0  0  0  0  0  0  0  0  0  0
  -24.3616  -12.2706   20.9383 C   0  0  0  0  0  0  0  0  0  0  0  0
  -23.7248  -23.8219   22.3846 C   0  0  0  0  0  0  0  0  0  0  0  0
  -23.0550  -10.3453   21.2671 C   0  0  0  0  0  0  0  0  0  0  0  0
  -22.8673   -7.5626   21.3321 C   0  0  0  0  0  0  0  0  0  0  0  0
  -22.1757   -9.6853   20.4086 C   0  0  0  0  0  0  0  0  0  0  0  0
  -28.1280  -13.9607   20.0133 C   0  0  0  0  0  0  0  0  0  0  0  0
  -29.3309  -20.2951   18.9286 C   0  0  0  0  0  0  0  0  0  0  0  0
  -30.2753  -14.4250   19.9197 C   0  0  0  0  0  0  0  0  0  0  0  0
  -29.7081  -12.5492   21.4715 C   0  0  0  0  0  0  0  0  0  0  0  0
  -29.6803  -19.8915   17.5604 C   0  0  0  0  0  0  0  0  0  0  0  0
  -22.4767  -29.0128   21.4046 C   0  0  0  0  0  0  0  0  0  0  0  0
  -25.6068  -29.5301   20.7280 C   0  0  0  0  0  0  0  0  0  0  0  0
  -28.7559  -28.2498   20.4274 C   0  0  0  0  0  0  0  0  0  0  0  0
  -18.3984  -31.8327   22.6185 C   0  0  0  0  0  0  0  0  0  0  0  0
  -23.6016  -27.9979   23.4197 C   0  0  0  0  0  0  0  0  0  0  0  0
  -24.8716  -27.1226   20.8966 C   0  0  0  0  0  0  0  0  0  0  0  0
  -19.7039  -32.0694   21.8634 C   0  0  0  0  0  0  0  0  0  0  0  0
  -30.9078  -16.9705   15.9163 C   0  0  0  0  0  0  0  0  0  0  0  0
  -19.9359  -30.9636   20.8386 C   0  0  0  0  0  0  0  0  0  0  0  0
  -30.4356  -15.8282   16.8176 C   0  0  0  0  0  0  0  0  0  0  0  0
  -29.8883  -18.1056   15.8642 C   0  0  0  0  0  0  0  0  0  0  0  0
  -29.0146  -17.4890   18.0916 C   0  0  0  0  0  0  0  0  0  0  0  0
  -20.0608  -29.5962   21.5211 C   0  0  1  0  0  0  0  0  0  0  0  0
  -23.7353  -28.9326   22.2214 C   0  0  1  0  0  0  0  0  0  0  0  0
  -30.0364  -16.3465   18.2120 C   0  0  1  0  0  0  0  0  0  0  0  0
  -30.9167  -21.8422   21.9259 C   0  0  0  0  0  0  0  0  0  0  0  0
  -25.1400  -18.0922   20.3294 C   0  0  0  0  0  0  0  0  0  0  0  0
  -31.1007  -28.9084   19.8226 C   0  0  0  0  0  0  0  0  0  0  0  0
  -24.8348  -29.5581   17.7762 C   0  0  0  0  0  0  0  0  0  0  0  0
  -27.2560  -29.2621   17.2120 C   0  0  0  0  0  0  0  0  0  0  0  0
  -26.5025  -31.3015   18.4349 C   0  0  0  0  0  0  0  0  0  0  0  0
  -29.7767  -27.5169   23.1069 C   0  0  0  0  0  0  0  0  0  0  0  0
  -24.5138  -20.2905   22.6862 C   0  0  0  0  0  0  0  0  0  0  0  0
  -25.3832  -19.5621   20.0121 C   0  0  0  0  0  0  0  0  0  0  0  0
  -23.8191  -21.5693   23.1414 C   0  0  0  0  0  0  0  0  0  1  0  0
  -26.5543  -29.0807   19.6421 C   0  0  1  0  0  0  0  0  0  0  0  0
  -30.0953  -28.7365   20.9506 C   0  0  2  0  0  0  0  0  0  0  0  0
  -26.2736  -29.7819   18.2831 C   0  0  0  0  0  0  0  0  0  0  0  0
  -28.0498  -20.0629   19.2959 N   0  0  0  0  0  0  0  0  0  0  0  0
  -28.2141  -14.9721   19.1451 N   0  0  0  0  0  0  0  0  0  0  0  0
  -29.5321  -15.2322   19.1095 N   0  0  0  0  0  0  0  0  0  0  0  0
  -29.5351  -18.5462   17.2132 N   0  0  0  0  0  0  0  0  0  0  0  0
  -24.8106  -28.5340   21.3108 N   0  0  0  0  0  0  0  0  0  0  0  0
  -31.6167  -14.5506   20.0042 N   0  0  0  0  0  0  0  0  0  0  0  0
  -28.6682  -11.7712   21.9985 N   0  0  0  0  0  0  0  0  0  0  0  0
  -21.3724  -29.4451   22.1138 N   0  0  0  0  0  0  0  0  0  0  0  0
  -27.9009  -29.2979   20.1597 N   0  0  0  0  0  0  0  0  0  0  0  0
  -30.6524  -27.7636   21.9325 N   0  3  0  0  0  0  0  0  0  0  0  0
  -30.8854  -12.3371   21.8488 O   0  0  0  0  0  0  0  0  0  0  0  0
  -30.0917  -20.7828   16.8191 O   0  0  0  0  0  0  0  0  0  0  0  0
  -22.5058  -28.7068   20.2184 O   0  0  0  0  0  0  0  0  0  0  0  0
  -25.5793  -30.7200   21.0523 O   0  0  0  0  0  0  0  0  0  0  0  0
  -28.4957  -27.0592   20.2684 O   0  0  0  0  0  0  0  0  0  0  0  0
  -23.1500  -11.7264   21.2354 O   0  0  0  0  0  0  0  0  0  0  0  0
  -23.7675  -22.5007   22.0615 O   0  0  0  0  0  0  0  0  0  1  0  0
  -22.7784   -6.2265   21.3624 F   0  0  0  0  0  0  0  0  0  0  0  0
  -21.4193  -10.3825   19.5497 F   0  0  0  0  0  0  0  0  0  0  0  0
  1  2  1  0  0  0  0
  1  6  2  0  0  0  0
  2  7  2  0  0  0  0
  3  9  1  0  0  0  0
  3 18  2  0  0  0  0
  4 10  2  0  0  0  0
  4 19  1  0  0  0  0
  5 11  1  0  0  0  0
  5 19  2  0  0  0  0
  6 21  1  0  0  0  0
  7 23  1  0  0  0  0
  8 12  2  0  0  0  0
  8 22  1  0  0  0  0
  9 25  2  0  0  0  0
 10 29  1  0  0  0  0
 11 29  2  0  0  0  0
 12 30  1  0  0  0  0
 13 14  2  0  0  0  0
 13 31  1  0  0  0  0
 14 32  1  0  0  0  0
 15 24  1  0  0  0  0
 15 30  2  0  0  0  0
 16 26  2  0  0  0  0
 16 35  1  0  0  0  0
 17 32  2  0  0  0  0
 17 33  1  0  0  0  0
 18 26  1  0  0  0  0
 18 28  1  0  0  0  0
 19 34  1  0  0  0  0
 20 34  1  0  0  0  0
 20 36  2  0  0  0  0
 20 37  1  0  0  0  0
 21 23  2  0  0  0  0
 21 42  1  0  0  0  0
 22 24  2  0  0  0  0
 22 43  1  0  0  0  0
 23 51  1  0  0  0  0
 24 44  1  0  0  0  0
 25 27  1  0  0  0  0
 25 61  1  0  0  0  0
 26 54  1  0  0  0  0
 27 28  2  0  0  0  0
 27 62  1  0  0  0  0
 28 67  1  0  0  0  0
 29 82  1  0  0  0  0
 30 83  1  0  0  0  0
 31 33  2  0  0  0  0
 31 82  1  0  0  0  0
 32 84  1  0  0  0  0
 33 85  1  0  0  0  0
 34 68  2  0  0  0  0
 35 38  1  0  0  0  0
 35 67  2  0  0  0  0
 36 69  1  0  0  0  0
 36 72  1  0  0  0  0
 37 73  1  0  0  0  0
 37 77  2  0  0  0  0
 38 70  1  0  0  0  0
 38 78  2  0  0  0  0
 39 52  1  0  0  0  0
 39 74  1  0  0  0  0
 39 79  2  0  0  0  0
 40 64  1  0  0  0  0
 40 71  1  0  0  0  0
 40 80  2  0  0  0  0
 41 65  1  0  0  0  0
 41 75  1  0  0  0  0
 41 81  2  0  0  0  0
 42 45  1  0  0  0  0
 43 52  1  0  0  0  0
 44 71  1  0  0  0  0
 45 47  1  0  0  0  0
 46 48  1  0  0  0  0
 46 49  1  0  0  0  0
 47 51  1  0  0  0  0
 48 53  1  0  0  0  0
 49 70  1  0  0  0  0
 50 53  1  0  0  0  0
 50 70  1  0  0  0  0
 51 74  1  0  0  0  0
 52 71  1  0  0  0  0
 53 69  1  0  0  0  0
 55 62  1  0  0  0  0
 56 65  1  0  0  0  0
 57 66  1  0  0  0  0
 58 66  1  0  0  0  0
 59 66  1  0  0  0  0
 60 76  1  0  0  0  0
 61 63  1  0  0  0  0
 63 83  1  0  0  0  0
 64 66  1  0  0  0  0
 64 75  1  0  0  0  0
 65 76  1  0  0  0  0
 68 69  1  0  0  0  0
M  CHG  1  76   1
M  ISO  4  35 100  38 100  63 101  83 101
M  END
> <Batch ID>
0034

> <Smiles>
CCc1c(C[101CH2:1][101O:1]c2ccc3c(c2)CN(C(=O)C(NC(=O)C(C)NC)C(C)(C)C)C(C(=O)NC2CCCc4ccccc42)C3)ccc2c(C)c[100c:0]([100C:0](=O)N3CCCC(n4nc(-c5ccc(Oc6ccc(F)cc6F)cc5)c(C(N)=O)c4N)C3)nc12

> <Shape>
0.261

> <Color>
0.109

> <Negative vol penalty>
0.000

$$$$

  -OEChem-04052316503D

 81 90  0     1  0  0  0  0  0999 V2000
  -21.7964  -11.5941   21.0983 C   0  0  0  0  0  0  0  0  0  0  0  0
  -21.7697  -12.8614   21.6717 C   0  0  0  0  0  0  0  0  0  0  0  0
  -25.5265  -29.6679   20.3783 C   0  0  0  0  0  0  0  0  0  0  0  0
  -25.5648  -27.3732   21.1333 C   0  0  0  0  0  0  0  0  0  0  0  0
  -22.9901  -11.0865   20.5872 C   0  0  0  0  0  0  0  0  0  0  0  0
  -22.9371  -13.6213   21.7354 C   0  0  0  0  0  0  0  0  0  0  0  0
  -22.1921  -18.4441   20.3824 C   0  0  0  0  0  0  0  0  0  0  0  0
  -26.5969  -29.4046   19.5236 C   0  0  0  0  0  0  0  0  0  0  0  0
  -26.6352  -27.1099   20.2786 C   0  0  0  0  0  0  0  0  0  0  0  0
  -21.6015  -19.2856   21.3242 C   0  0  0  0  0  0  0  0  0  0  0  0
  -27.0786  -27.9492   16.5099 C   0  0  0  0  0  0  0  0  0  0  0  0
  -27.0015  -28.4365   15.2052 C   0  0  0  0  0  0  0  0  0  0  0  0
  -20.5745  -25.0294   25.4437 C   0  0  0  0  0  0  0  0  0  0  0  0
  -23.7745  -20.1670   21.8903 C   0  0  0  0  0  0  0  0  0  0  0  0
  -29.0076  -29.7323   15.5707 C   0  0  0  0  0  0  0  0  0  0  0  0
  -20.0097  -23.1632   24.3176 C   0  0  0  0  0  0  0  0  0  0  0  0
  -25.0104  -28.6522   21.1832 C   0  0  0  0  0  0  0  0  0  0  0  0
  -19.7173  -24.5028   24.4469 C   0  0  0  0  0  0  0  0  0  0  0  0
  -23.8670  -29.8592   23.1180 C   0  0  0  0  0  0  0  0  0  0  0  0
  -24.1707  -11.8445   20.6359 C   0  0  0  0  0  0  0  0  0  0  0  0
  -23.5818  -18.4499   20.1949 C   0  0  0  0  0  0  0  0  0  0  0  0
  -24.1481  -13.1228   21.2257 C   0  0  0  0  0  0  0  0  0  0  0  0
  -24.3800  -19.3264   20.9437 C   0  0  0  0  0  0  0  0  0  0  0  0
  -27.1513  -28.1255   19.4738 C   0  0  0  0  0  0  0  0  0  0  0  0
  -22.3930  -20.1452   22.0803 C   0  0  0  0  0  0  0  0  0  0  0  0
  -28.1201  -28.3535   17.3450 C   0  0  0  0  0  0  0  0  0  0  0  0
  -27.9660  -29.3280   14.7356 C   0  0  0  0  0  0  0  0  0  0  0  0
  -29.0846  -29.2450   16.8754 C   0  0  0  0  0  0  0  0  0  0  0  0
  -23.9051  -28.9238   22.0666 C   0  0  0  0  0  0  0  0  0  0  0  0
  -21.3704  -23.9970   25.9013 C   0  0  0  0  0  0  0  0  0  0  0  0
  -22.6050  -29.7324   23.6448 C   0  0  0  0  0  0  0  0  0  0  0  0
  -18.6877  -25.2096   23.6742 C   0  0  0  0  0  0  0  0  0  0  0  0
  -24.8818  -30.7621   23.5772 C   0  0  0  0  0  0  0  0  0  0  0  0
  -25.8999  -16.3016   20.5335 C   0  0  0  0  0  0  0  0  0  0  0  0
  -27.7264  -18.6404   19.2234 C   0  0  0  0  0  0  0  0  0  0  0  0
  -28.1772  -21.9692   18.6212 C   0  0  0  0  0  0  0  0  0  0  0  0
  -25.4471  -11.2344   20.1131 C   0  0  0  0  0  0  0  0  0  0  0  0
  -24.2006  -17.5552   19.1562 C   0  0  0  0  0  0  0  0  0  0  0  0
  -25.8744  -19.3857   20.7663 C   0  0  0  0  0  0  0  0  0  0  0  0
  -22.3943  -23.9738   26.9851 C   0  0  0  0  0  0  0  0  0  0  0  0
  -26.5593  -12.2541   19.8818 C   0  0  0  0  0  0  0  0  0  0  0  0
  -23.2480  -22.7057   26.9610 C   0  0  0  0  0  0  0  0  0  0  0  0
  -18.1375  -28.5123   22.4366 C   0  0  0  0  0  0  0  0  0  0  0  0
  -26.6818  -13.1914   21.0790 C   0  0  0  0  0  0  0  0  0  0  0  0
  -19.5512  -29.0755   22.2807 C   0  0  0  0  0  0  0  0  0  0  0  0
  -18.0846  -27.0228   22.1062 C   0  0  0  0  0  0  0  0  0  0  0  0
  -20.4671  -26.7554   22.7038 C   0  0  0  0  0  0  0  0  0  0  0  0
  -25.3883  -13.9874   21.2910 C   0  0  1  0  0  0  0  0  0  0  0  0
  -25.6786  -17.2764   19.4117 C   0  0  1  0  0  0  0  0  0  0  0  0
  -22.4214  -21.4378   26.6794 C   0  0  2  0  0  0  0  0  0  0  0  0
  -20.5741  -28.2432   23.0766 C   0  0  1  0  0  0  0  0  0  0  0  0
  -21.6671  -21.5656   25.3314 C   0  0  2  0  0  0  0  0  0  0  0  0
  -21.4546  -21.1313   27.8305 C   0  0  0  0  0  0  0  0  0  0  0  0
  -29.7832  -23.5793   17.5602 C   0  0  0  0  0  0  0  0  0  0  0  0
  -29.5984  -18.3450   21.6147 C   0  0  0  0  0  0  0  0  0  0  0  0
  -30.6092  -20.5537   21.0077 C   0  0  0  0  0  0  0  0  0  0  0  0
  -30.7531  -18.6385   19.4159 C   0  0  0  0  0  0  0  0  0  0  0  0
  -26.1443  -22.8994   16.6819 C   0  0  0  0  0  0  0  0  0  0  0  0
  -22.6024  -21.3097   24.1433 C   0  0  0  0  0  0  0  0  0  1  0  0
  -28.5328  -19.7964   19.7643 C   0  0  1  0  0  0  0  0  0  0  0  0
  -28.5430  -22.7234   17.3555 C   0  0  2  0  0  0  0  0  0  0  0  0
  -29.8454  -19.3311   20.4556 C   0  0  0  0  0  0  0  0  0  0  0  0
  -22.7584  -28.2522   21.9322 N   0  0  0  0  0  0  0  0  0  0  0  0
  -21.0258  -22.8719   25.1896 N   0  0  0  0  0  0  0  0  0  0  0  0
  -21.9879  -28.7662   22.9061 N   0  0  0  0  0  0  0  0  0  0  0  0
  -19.0852  -26.2859   22.8773 N   0  0  0  0  0  0  0  0  0  0  0  0
  -26.4331  -18.4869   19.7428 N   0  0  0  0  0  0  0  0  0  0  0  0
  -21.9740  -30.3543   24.6634 N   0  0  0  0  0  0  0  0  0  0  0  0
  -25.7668  -30.3228   24.5712 N   0  0  0  0  0  0  0  0  0  0  0  0
  -25.3004  -15.0722   20.3370 N   0  0  0  0  0  0  0  0  0  0  0  0
  -28.7380  -20.7098   18.6454 N   0  0  0  0  0  0  0  0  0  0  0  0
  -27.4216  -23.6126   16.9400 N   0  3  0  0  0  0  0  0  0  0  0  0
  -17.5352  -24.7988   23.8011 O   0  0  0  0  0  0  0  0  0  0  0  0
  -24.9898  -31.9295   23.1312 O   0  0  0  0  0  0  0  0  0  0  0  0
  -26.5665  -16.6393   21.5047 O   0  0  0  0  0  0  0  0  0  0  0  0
  -28.2229  -17.9052   18.3664 O   0  0  0  0  0  0  0  0  0  0  0  0
  -27.4682  -22.4507   19.5021 O   0  0  0  0  0  0  0  0  0  0  0  0
  -28.1957  -27.8682   18.6398 O   0  0  0  0  0  0  0  0  0  0  0  0
  -21.8192  -20.9671   23.0006 O   0  0  0  0  0  0  0  0  0  1  0  0
  -27.8928  -29.7947   13.4822 F   0  0  0  0  0  0  0  0  0  0  0  0
  -30.0882  -29.6361   17.6727 F   0  0  0  0  0  0  0  0  0  0  0  0
  1  2  1  0  0  0  0
  1  5  2  0  0  0  0
  2  6  2  0  0  0  0
  3  8  2  0  0  0  0
  3 17  1  0  0  0  0
  4  9  1  0  0  0  0
  4 17  2  0  0  0  0
  5 20  1  0  0  0  0
  6 22  1  0  0  0  0
  7 10  2  0  0  0  0
  7 21  1  0  0  0  0
  8 24  1  0  0  0  0
  9 24  2  0  0  0  0
 10 25  1  0  0  0  0
 11 12  2  0  0  0  0
 11 26  1  0  0  0  0
 12 27  1  0  0  0  0
 13 18  1  0  0  0  0
 13 30  2  0  0  0  0
 14 23  1  0  0  0  0
 14 25  2  0  0  0  0
 15 27  2  0  0  0  0
 15 28  1  0  0  0  0
 16 18  2  0  0  0  0
 16 64  1  0  0  0  0
 17 29  1  0  0  0  0
 18 32  1  0  0  0  0
 19 29  1  0  0  0  0
 19 31  2  0  0  0  0
 19 33  1  0  0  0  0
 20 22  2  0  0  0  0
 20 37  1  0  0  0  0
 21 23  2  0  0  0  0
 21 38  1  0  0  0  0
 22 48  1  0  0  0  0
 23 39  1  0  0  0  0
 24 78  1  0  0  0  0
 25 79  1  0  0  0  0
 26 28  2  0  0  0  0
 26 78  1  0  0  0  0
 27 80  1  0  0  0  0
 28 81  1  0  0  0  0
 29 63  2  0  0  0  0
 30 40  1  0  0  0  0
 30 64  1  0  0  0  0
 31 65  1  0  0  0  0
 31 68  1  0  0  0  0
 32 66  1  0  0  0  0
 32 73  2  0  0  0  0
 33 69  1  0  0  0  0
 33 74  2  0  0  0  0
 34 49  1  0  0  0  0
 34 70  1  0  0  0  0
 34 75  2  0  0  0  0
 35 60  1  0  0  0  0
 35 67  1  0  0  0  0
 35 76  2  0  0  0  0
 36 61  1  0  0  0  0
 36 71  1  0  0  0  0
 36 77  2  0  0  0  0
 37 41  1  0  0  0  0
 38 49  1  0  0  0  0
 39 67  1  0  0  0  0
 40 42  1  0  0  0  0
 41 44  1  0  0  0  0
 42 50  1  0  0  0  0
 43 45  1  0  0  0  0
 43 46  1  0  0  0  0
 44 48  1  0  0  0  0
 45 51  1  0  0  0  0
 46 66  1  0  0  0  0
 47 51  1  0  0  0  0
 47 66  1  0  0  0  0
 48 70  1  0  0  0  0
 49 67  1  0  0  0  0
 50 52  1  0  0  0  0
 50 53  1  0  0  0  0
 51 65  1  0  0  0  0
 52 59  1  0  0  0  0
 52 64  1  0  0  0  0
 54 61  1  0  0  0  0
 55 62  1  0  0  0  0
 56 62  1  0  0  0  0
 57 62  1  0  0  0  0
 58 72  1  0  0  0  0
 59 79  1  0  0  0  0
 60 62  1  0  0  0  0
 60 71  1  0  0  0  0
 61 72  1  0  0  0  0
 63 65  1  0  0  0  0
M  CHG  1  72   1
M  ISO  4  18 100  32 100  59 101  79 101
M  END
> <Batch ID>
0034

> <Smiles>
CNC(C)C(=O)NC(C(=O)N1Cc2cc([101O:1][101CH2:1]C3C(C)CCc4c[100c:0]([100C:0](=O)N5CCCC(n6nc(-c7ccc(Oc8ccc(F)cc8F)cc7)c(C(N)=O)c6N)C5)cn43)ccc2CC1C(=O)NC1CCCc2ccccc21)C(C)(C)C

> <Shape>
0.221

> <Color>
0.083

> <Negative vol penalty>
0.000

$$$$

  -OEChem-04052316502D

  0  0  0     0  0  0  0  0  0999 V2000
M  END
$$$$

  -OEChem-04052316503D

 84 92  0     1  0  0  0  0  0999 V2000
  -17.4612  -17.4950   17.4526 C   0  0  0  0  0  0  0  0  0  0  0  0
  -18.5738  -17.7836   18.2364 C   0  0  0  0  0  0  0  0  0  0  0  0
  -23.1890   -9.8244   19.9331 C   0  0  0  0  0  0  0  0  0  0  0  0
  -23.5698  -10.0052   22.3120 C   0  0  0  0  0  0  0  0  0  0  0  0
  -17.5912  -16.6688   16.3371 C   0  0  0  0  0  0  0  0  0  0  0  0
  -19.8168  -17.2451   17.9057 C   0  0  0  0  0  0  0  0  0  0  0  0
  -25.2884  -19.9000   18.6267 C   0  0  0  0  0  0  0  0  0  0  0  0
  -31.3880  -20.0864   23.4262 C   0  0  0  0  0  0  0  0  0  0  0  0
  -30.2995  -20.2963   22.5797 C   0  0  0  0  0  0  0  0  0  0  0  0
  -22.4211   -8.6791   20.1430 C   0  0  0  0  0  0  0  0  0  0  0  0
  -22.8018   -8.8599   22.5220 C   0  0  0  0  0  0  0  0  0  0  0  0
  -26.2679  -19.7776   19.6112 C   0  0  0  0  0  0  0  0  0  0  0  0
  -21.2404   -5.7791   23.6536 C   0  0  0  0  0  0  0  0  0  0  0  0
  -21.7360   -4.8189   24.5356 C   0  0  0  0  0  0  0  0  0  0  0  0
  -27.4323  -18.1670   18.2439 C   0  0  0  0  0  0  0  0  0  0  0  0
  -23.6929   -4.5510   23.1442 C   0  0  0  0  0  0  0  0  0  0  0  0
  -23.7635  -10.4875   21.0176 C   0  0  0  0  0  0  0  0  0  0  0  0
  -24.1061  -13.0034   20.7724 C   0  0  0  0  0  0  0  0  0  0  0  0
  -18.8383  -16.1278   15.9870 C   0  0  0  0  0  0  0  0  0  0  0  0
  -25.3678  -19.1474   17.4461 C   0  0  0  0  0  0  0  0  0  0  0  0
  -19.9633  -16.4099   16.7852 C   0  0  0  0  0  0  0  0  0  0  0  0
  -26.4538  -18.2836   17.2449 C   0  0  0  0  0  0  0  0  0  0  0  0
  -31.4786  -18.9079   24.1668 C   0  0  0  0  0  0  0  0  0  0  0  0
  -29.3014  -19.3276   22.4738 C   0  0  0  0  0  0  0  0  0  0  0  0
  -29.3919  -18.1490   23.2145 C   0  0  0  0  0  0  0  0  0  0  0  0
  -30.4806  -17.9392   24.0610 C   0  0  0  0  0  0  0  0  0  0  0  0
  -22.2274   -8.1969   21.4374 C   0  0  0  0  0  0  0  0  0  0  0  0
  -27.3385  -18.9088   19.4212 C   0  0  0  0  0  0  0  0  0  0  0  0
  -21.9710   -6.1253   22.5169 C   0  0  0  0  0  0  0  0  0  0  0  0
  -22.9623   -4.2048   24.2809 C   0  0  0  0  0  0  0  0  0  0  0  0
  -23.1972   -5.5113   22.2622 C   0  0  0  0  0  0  0  0  0  0  0  0
  -24.5574  -11.6703   20.8013 C   0  0  0  0  0  0  0  0  0  0  0  0
  -25.2383  -13.7441   20.5358 C   0  0  0  0  0  0  0  0  0  0  0  0
  -22.7819  -13.5256   20.9443 C   0  0  0  0  0  0  0  0  0  0  0  0
  -23.5519  -16.9286   16.0739 C   0  0  0  0  0  0  0  0  0  0  0  0
  -25.6801  -17.2444   13.6463 C   0  0  0  0  0  0  0  0  0  0  0  0
  -28.8137  -18.1463   12.6394 C   0  0  0  0  0  0  0  0  0  0  0  0
  -31.0524  -12.7451   21.5600 C   0  0  0  0  0  0  0  0  0  0  0  0
  -18.9203  -15.2018   14.7993 C   0  0  0  0  0  0  0  0  0  0  0  0
  -24.3171  -19.3109   16.3822 C   0  0  0  0  0  0  0  0  0  0  0  0
  -26.5961  -17.4685   15.9864 C   0  0  0  0  0  0  0  0  0  0  0  0
  -20.3454  -14.9741   14.3018 C   0  0  0  0  0  0  0  0  0  0  0  0
  -29.5233  -13.4636   18.4260 C   0  0  0  0  0  0  0  0  0  0  0  0
  -21.2789  -14.6806   15.4719 C   0  0  0  0  0  0  0  0  0  0  0  0
  -28.0364  -13.2058   18.6768 C   0  0  0  0  0  0  0  0  0  0  0  0
  -30.4037  -12.4731   19.1848 C   0  0  0  0  0  0  0  0  0  0  0  0
  -28.6511  -12.1339   20.8840 C   0  0  0  0  0  0  0  0  0  0  0  0
  -21.3334  -15.8648   16.4447 C   0  0  1  0  0  0  0  0  0  0  0  0
  -24.2273  -18.1127   15.4421 C   0  0  1  0  0  0  0  0  0  0  0  0
  -27.7247  -13.1429   20.1841 C   0  0  2  0  0  0  0  0  0  0  0  0
  -32.6550  -18.7081   25.0655 C   0  0  0  0  0  0  0  0  0  0  0  0
  -28.3198  -17.1119   23.1009 C   0  0  0  0  0  0  0  0  0  0  0  0
  -30.2720  -18.2567   10.6002 C   0  0  0  0  0  0  0  0  0  0  0  0
  -26.0876  -14.2233   13.7771 C   0  0  0  0  0  0  0  0  0  0  0  0
  -28.1794  -14.5174   12.4333 C   0  0  0  0  0  0  0  0  0  0  0  0
  -25.9740  -15.1613   11.4616 C   0  0  0  0  0  0  0  0  0  0  0  0
  -29.1106  -21.0820   12.8685 C   0  0  0  0  0  0  0  0  0  0  0  0
  -30.5810  -16.6757   24.8555 C   0  0  0  0  0  0  0  0  0  0  0  0
  -28.1403  -19.5792   21.5575 C   0  0  0  0  0  0  0  0  0  1  0  0
  -31.0401  -15.4890   23.9968 C   0  0  0  0  0  0  0  0  0  0  0  0
  -31.1038  -14.1948   24.8133 C   0  0  0  0  0  0  0  0  0  0  0  0
  -31.5452  -12.9964   23.9793 C   0  0  0  0  0  0  0  0  0  0  0  0
  -26.9912  -16.5907   13.2821 C   0  0  1  0  0  0  0  0  0  0  0  0
  -29.2915  -19.0097   11.4859 C   0  0  2  0  0  0  0  0  0  0  0  0
  -26.8047  -15.1370   12.7632 C   0  0  0  0  0  0  0  0  0  0  0  0
  -25.8736  -11.5669   20.5990 N   0  0  0  0  0  0  0  0  0  0  0  0
  -26.2591  -12.8446   20.4406 N   0  0  0  0  0  0  0  0  0  0  0  0
  -25.5399  -17.6584   14.9785 N   0  0  0  0  0  0  0  0  0  0  0  0
  -30.0584  -12.4632   20.6084 N   0  0  0  0  0  0  0  0  0  0  0  0
  -25.4503  -15.0706   20.4018 N   0  0  0  0  0  0  0  0  0  0  0  0
  -21.7340  -12.6252   21.1797 N   0  0  0  0  0  0  0  0  0  0  0  0
  -22.1791  -16.9139   15.9169 N   0  0  0  0  0  0  0  0  0  0  0  0
  -27.6433  -17.4853   12.3320 N   0  0  0  0  0  0  0  0  0  0  0  0
  -30.6394  -12.7209   22.8865 N   0  0  0  0  0  0  0  0  0  0  0  0
  -29.9677  -20.2339   12.0006 N   0  3  0  0  0  0  0  0  0  0  0  0
  -22.5326  -14.7530   20.8743 O   0  0  0  0  0  0  0  0  0  0  0  0
  -24.2264  -16.0895   16.6593 O   0  0  0  0  0  0  0  0  0  0  0  0
  -24.8149  -17.3889   12.7789 O   0  0  0  0  0  0  0  0  0  0  0  0
  -29.4201  -18.0634   13.7052 O   0  0  0  0  0  0  0  0  0  0  0  0
  -32.2201  -13.0046   21.2501 O   0  0  0  0  0  0  0  0  0  0  0  0
  -21.4779   -7.0794   21.6427 O   0  0  0  0  0  0  0  0  0  0  0  0
  -28.2957  -18.7870   20.3808 O   0  0  0  0  0  0  0  0  0  1  0  0
  -23.4388   -3.2838   25.1287 F   0  0  0  0  0  0  0  0  0  0  0  0
  -23.9042   -5.8406   21.1725 F   0  0  0  0  0  0  0  0  0  0  0  0
  1  2  1  0  0  0  0
  1  5  2  0  0  0  0
  2  6  2  0  0  0  0
  3 10  2  0  0  0  0
  3 17  1  0  0  0  0
  4 11  1  0  0  0  0
  4 17  2  0  0  0  0
  5 19  1  0  0  0  0
  6 21  1  0  0  0  0
  7 12  2  0  0  0  0
  7 20  1  0  0  0  0
  8  9  2  0  0  0  0
  8 23  1  0  0  0  0
  9 24  1  0  0  0  0
 10 27  1  0  0  0  0
 11 27  2  0  0  0  0
 12 28  1  0  0  0  0
 13 14  2  0  0  0  0
 13 29  1  0  0  0  0
 14 30  1  0  0  0  0
 15 22  1  0  0  0  0
 15 28  2  0  0  0  0
 16 30  2  0  0  0  0
 16 31  1  0  0  0  0
 17 32  1  0  0  0  0
 18 32  1  0  0  0  0
 18 33  2  0  0  0  0
 18 34  1  0  0  0  0
 19 21  2  0  0  0  0
 19 39  1  0  0  0  0
 20 22  2  0  0  0  0
 20 40  1  0  0  0  0
 21 48  1  0  0  0  0
 22 41  1  0  0  0  0
 23 26  2  0  0  0  0
 23 51  1  0  0  0  0
 24 25  2  0  0  0  0
 24 59  1  0  0  0  0
 25 26  1  0  0  0  0
 25 52  1  0  0  0  0
 26 58  1  0  0  0  0
 27 81  1  0  0  0  0
 28 82  1  0  0  0  0
 29 31  2  0  0  0  0
 29 81  1  0  0  0  0
 30 83  1  0  0  0  0
 31 84  1  0  0  0  0
 32 66  2  0  0  0  0
 33 67  1  0  0  0  0
 33 70  1  0  0  0  0
 34 71  1  0  0  0  0
 34 76  2  0  0  0  0
 35 49  1  0  0  0  0
 35 72  1  0  0  0  0
 35 77  2  0  0  0  0
 36 63  1  0  0  0  0
 36 68  1  0  0  0  0
 36 78  2  0  0  0  0
 37 64  1  0  0  0  0
 37 73  1  0  0  0  0
 37 79  2  0  0  0  0
 38 69  1  0  0  0  0
 38 74  1  0  0  0  0
 38 80  2  0  0  0  0
 39 42  1  0  0  0  0
 40 49  1  0  0  0  0
 41 68  1  0  0  0  0
 42 44  1  0  0  0  0
 43 45  1  0  0  0  0
 43 46  1  0  0  0  0
 44 48  1  0  0  0  0
 45 50  1  0  0  0  0
 46 69  1  0  0  0  0
 47 50  1  0  0  0  0
 47 69  1  0  0  0  0
 48 72  1  0  0  0  0
 49 68  1  0  0  0  0
 50 67  1  0  0  0  0
 53 64  1  0  0  0  0
 54 65  1  0  0  0  0
 55 65  1  0  0  0  0
 56 65  1  0  0  0  0
 57 75  1  0  0  0  0
 58 60  1  0  0  0  0
 59 82  1  0  0  0  0
 60 61  1  0  0  0  0
 61 62  1  0  0  0  0
 62 74  1  0  0  0  0
 63 65  1  0  0  0  0
 63 73  1  0  0  0  0
 64 75  1  0  0  0  0
 66 67  1  0  0  0  0
M  CHG  1  75   1
M  ISO  4  38 100  59 101  74 100  82 101
M  END
> <Batch ID>
0034

> <Smiles>
CNC(C)C(=O)NC(C(=O)N1Cc2cc([101O:1][101CH2:1]c3ccc(C)c(CCCC[100NH:0][100C:0](=O)N4CCCC(n5nc(-c6ccc(Oc7ccc(F)cc7F)cc6)c(C(N)=O)c5N)C4)c3C)ccc2CC1C(=O)NC1CCCc2ccccc21)C(C)(C)C

> <Shape>
0.167

> <Color>
0.191

> <Negative vol penalty>
0.000

$$$$

  -OEChem-04052316503D

 82 90  0     1  0  0  0  0  0999 V2000
  -19.3729  -21.7259   22.2304 C   0  0  0  0  0  0  0  0  0  0  0  0
  -20.7112  -21.3494   22.1800 C   0  0  0  0  0  0  0  0  0  0  0  0
  -25.7844  -14.5241   22.7002 C   0  0  0  0  0  0  0  0  0  0  0  0
  -25.0712  -14.1182   20.4278 C   0  0  0  0  0  0  0  0  0  0  0  0
  -18.9688  -22.9364   21.6689 C   0  0  0  0  0  0  0  0  0  0  0  0
  -21.6461  -22.1827   21.5669 C   0  0  0  0  0  0  0  0  0  0  0  0
  -28.5120  -24.1704   22.0412 C   0  0  0  0  0  0  0  0  0  0  0  0
  -24.9588  -13.4910   23.1439 C   0  0  0  0  0  0  0  0  0  0  0  0
  -24.2457  -13.0851   20.8715 C   0  0  0  0  0  0  0  0  0  0  0  0
  -29.6586  -24.2790   21.2555 C   0  0  0  0  0  0  0  0  0  0  0  0
  -22.2233  -10.1039   21.3618 C   0  0  0  0  0  0  0  0  0  0  0  0
  -22.2351   -8.9089   20.6425 C   0  0  0  0  0  0  0  0  0  0  0  0
  -28.8585  -26.3834   20.3892 C   0  0  0  0  0  0  0  0  0  0  0  0
  -31.3106  -21.5098   16.5459 C   0  0  0  0  0  0  0  0  0  0  0  0
  -30.4614  -23.7704   16.6170 C   0  0  0  0  0  0  0  0  0  0  0  0
  -24.5954   -8.6602   21.0947 C   0  0  0  0  0  0  0  0  0  0  0  0
  -25.8406  -14.8377   21.3422 C   0  0  0  0  0  0  0  0  0  0  0  0
  -28.0375  -15.8052   20.4790 C   0  0  0  0  0  0  0  0  0  0  0  0
  -19.9008  -23.7895   21.0572 C   0  0  0  0  0  0  0  0  0  0  0  0
  -27.5233  -25.1640   21.9985 C   0  0  0  0  0  0  0  0  0  0  0  0
  -21.2539  -23.4052   20.9955 C   0  0  0  0  0  0  0  0  0  0  0  0
  -27.7015  -26.2864   21.1773 C   0  0  0  0  0  0  0  0  0  0  0  0
  -30.2754  -22.4187   16.3275 C   0  0  0  0  0  0  0  0  0  0  0  0
  -32.5319  -21.9526   17.0539 C   0  0  0  0  0  0  0  0  0  0  0  0
  -31.6827  -24.2133   17.1249 C   0  0  0  0  0  0  0  0  0  0  0  0
  -32.7180  -23.3044   17.3434 C   0  0  0  0  0  0  0  0  0  0  0  0
  -24.1895  -12.7716   22.2295 C   0  0  0  0  0  0  0  0  0  0  0  0
  -29.8307  -25.3841   20.4272 C   0  0  0  0  0  0  0  0  0  0  0  0
  -23.3975  -10.5771   21.9475 C   0  0  0  0  0  0  0  0  0  0  0  0
  -23.4212   -8.1870   20.5090 C   0  0  0  0  0  0  0  0  0  0  0  0
  -24.5835   -9.8552   21.8140 C   0  0  0  0  0  0  0  0  0  0  0  0
  -26.6928  -15.9051   20.8834 C   0  0  0  0  0  0  0  0  0  0  0  0
  -28.3899  -17.0882   20.1384 C   0  0  0  0  0  0  0  0  0  0  0  0
  -28.8917  -14.6553   20.4167 C   0  0  0  0  0  0  0  0  0  0  0  0
  -24.4555  -25.2415   21.1699 C   0  0  0  0  0  0  0  0  0  0  0  0
  -24.6330  -28.2818   22.2867 C   0  0  0  0  0  0  0  0  0  0  0  0
  -26.5701  -31.0034   22.9849 C   0  0  0  0  0  0  0  0  0  0  0  0
  -27.2736  -21.9298   17.5971 C   0  0  0  0  0  0  0  0  0  0  0  0
  -19.4090  -25.0661   20.4223 C   0  0  0  0  0  0  0  0  0  0  0  0
  -26.3047  -25.0452   22.8722 C   0  0  0  0  0  0  0  0  0  0  0  0
  -26.6792  -27.3904   21.1104 C   0  0  0  0  0  0  0  0  0  0  0  0
  -20.5230  -26.0656   20.1221 C   0  0  0  0  0  0  0  0  0  0  0  0
  -25.9784  -21.4721   20.8818 C   0  0  0  0  0  0  0  0  0  0  0  0
  -21.6991  -25.3672   19.4469 C   0  0  0  0  0  0  0  0  0  0  0  0
  -26.1540  -19.9744   21.1389 C   0  0  0  0  0  0  0  0  0  0  0  0
  -25.6126  -21.7559   19.4266 C   0  0  0  0  0  0  0  0  0  0  0  0
  -26.7077  -19.6750   18.6889 C   0  0  0  0  0  0  0  0  0  0  0  0
  -22.3019  -24.2936   20.3610 C   0  0  1  0  0  0  0  0  0  0  0  0
  -25.1226  -25.8644   22.3635 C   0  0  1  0  0  0  0  0  0  0  0  0
  -27.1320  -19.3432   20.1297 C   0  0  2  0  0  0  0  0  0  0  0  0
  -33.6249  -20.9591   17.2777 C   0  0  0  0  0  0  0  0  0  0  0  0
  -34.0277  -23.7790   17.8875 C   0  0  0  0  0  0  0  0  0  0  0  0
  -26.4259  -33.3534   23.8534 C   0  0  0  0  0  0  0  0  0  0  0  0
  -23.4942  -29.1990   19.6087 C   0  0  0  0  0  0  0  0  0  0  0  0
  -24.2539  -31.5201   20.1596 C   0  0  0  0  0  0  0  0  0  0  0  0
  -22.5616  -30.3884   21.6012 C   0  0  0  0  0  0  0  0  0  0  0  0
  -28.3366  -30.3877   25.2782 C   0  0  0  0  0  0  0  0  0  0  0  0
  -31.8583  -25.6812   17.4297 C   0  0  0  0  0  0  0  0  0  0  0  0
  -28.9694  -21.9451   15.7851 C   0  0  0  0  0  0  0  0  0  0  0  0
  -30.8221  -26.1950   18.4234 C   0  0  0  0  0  0  0  0  0  1  0  0
  -24.9702  -29.6242   21.6839 C   0  0  1  0  0  0  0  0  0  0  0  0
  -26.6524  -31.8930   24.2122 C   0  0  2  0  0  0  0  0  0  0  0  0
  -23.8385  -30.1614   20.7629 C   0  0  0  0  0  0  0  0  0  0  0  0
  -26.2229  -17.1531   20.8075 N   0  0  0  0  0  0  0  0  0  0  0  0
  -27.2782  -17.8491   20.3515 N   0  0  0  0  0  0  0  0  0  0  0  0
  -25.5019  -27.2254   21.9788 N   0  0  0  0  0  0  0  0  0  0  0  0
  -26.5801  -21.1312   18.5213 N   0  0  0  0  0  0  0  0  0  0  0  0
  -29.5391  -17.6286   19.6804 N   0  0  0  0  0  0  0  0  0  0  0  0
  -28.3696  -13.4134   20.8032 N   0  0  0  0  0  0  0  0  0  0  0  0
  -23.1319  -24.9034   21.3777 N   0  0  0  0  0  0  0  0  0  0  0  0
  -25.2985  -30.5026   22.8015 N   0  0  0  0  0  0  0  0  0  0  0  0
  -28.1765  -21.2594   16.7811 N   0  0  0  0  0  0  0  0  0  0  0  0
  -27.9922  -31.7689   24.8530 N   0  3  0  0  0  0  0  0  0  0  0  0
  -30.0876  -14.7298   20.0455 O   0  0  0  0  0  0  0  0  0  0  0  0
  -25.0940  -25.0809   20.1363 O   0  0  0  0  0  0  0  0  0  0  0  0
  -23.6394  -28.1761   23.0100 O   0  0  0  0  0  0  0  0  0  0  0  0
  -27.5362  -30.7784   22.2592 O   0  0  0  0  0  0  0  0  0  0  0  0
  -27.1047  -23.1508   17.5094 O   0  0  0  0  0  0  0  0  0  0  0  0
  -23.3839  -11.7633   22.6620 O   0  0  0  0  0  0  0  0  0  0  0  0
  -30.9486  -25.4922   19.6588 O   0  0  0  0  0  0  0  0  0  1  0  0
  -23.4321   -7.0387   19.8195 F   0  0  0  0  0  0  0  0  0  0  0  0
  -25.7145  -10.3042   22.3755 F   0  0  0  0  0  0  0  0  0  0  0  0
  1  2  1  0  0  0  0
  1  5  2  0  0  0  0
  2  6  2  0  0  0  0
  3  8  2  0  0  0  0
  3 17  1  0  0  0  0
  4  9  1  0  0  0  0
  4 17  2  0  0  0  0
  5 19  1  0  0  0  0
  6 21  1  0  0  0  0
  7 10  2  0  0  0  0
  7 20  1  0  0  0  0
  8 27  1  0  0  0  0
  9 27  2  0  0  0  0
 10 28  1  0  0  0  0
 11 12  2  0  0  0  0
 11 29  1  0  0  0  0
 12 30  1  0  0  0  0
 13 22  1  0  0  0  0
 13 28  2  0  0  0  0
 14 23  1  0  0  0  0
 14 24  2  0  0  0  0
 15 23  2  0  0  0  0
 15 25  1  0  0  0  0
 16 30  2  0  0  0  0
 16 31  1  0  0  0  0
 17 32  1  0  0  0  0
 18 32  1  0  0  0  0
 18 33  2  0  0  0  0
 18 34  1  0  0  0  0
 19 21  2  0  0  0  0
 19 39  1  0  0  0  0
 20 22  2  0  0  0  0
 20 40  1  0  0  0  0
 21 48  1  0  0  0  0
 22 41  1  0  0  0  0
 23 59  1  0  0  0  0
 24 26  1  0  0  0  0
 24 51  1  0  0  0  0
 25 26  2  0  0  0  0
 25 58  1  0  0  0  0
 26 52  1  0  0  0  0
 27 79  1  0  0  0  0
 28 80  1  0  0  0  0
 29 31  2  0  0  0  0
 29 79  1  0  0  0  0
 30 81  1  0  0  0  0
 31 82  1  0  0  0  0
 32 64  2  0  0  0  0
 33 65  1  0  0  0  0
 33 68  1  0  0  0  0
 34 69  1  0  0  0  0
 34 74  2  0  0  0  0
 35 49  1  0  0  0  0
 35 70  1  0  0  0  0
 35 75  2  0  0  0  0
 36 61  1  0  0  0  0
 36 66  1  0  0  0  0
 36 76  2  0  0  0  0
 37 62  1  0  0  0  0
 37 71  1  0  0  0  0
 37 77  2  0  0  0  0
 38 67  1  0  0  0  0
 38 72  1  0  0  0  0
 38 78  2  0  0  0  0
 39 42  1  0  0  0  0
 40 49  1  0  0  0  0
 41 66  1  0  0  0  0
 42 44  1  0  0  0  0
 43 45  1  0  0  0  0
 43 46  1  0  0  0  0
 44 48  1  0  0  0  0
 45 50  1  0  0  0  0
 46 67  1  0  0  0  0
 47 50  1  0  0  0  0
 47 67  1  0  0  0  0
 48 70  1  0  0  0  0
 49 66  1  0  0  0  0
 50 65  1  0  0  0  0
 53 62  1  0  0  0  0
 54 63  1  0  0  0  0
 55 63  1  0  0  0  0
 56 63  1  0  0  0  0
 57 73  1  0  0  0  0
 58 60  1  0  0  0  0
 59 72  1  0  0  0  0
 60 80  1  0  0  0  0
 61 63  1  0  0  0  0
 61 71  1  0  0  0  0
 62 73  1  0  0  0  0
 64 65  1  0  0  0  0
M  CHG  1  73   1
M  ISO  4  38 100  60 101  72 100  80 101
M  END
> <Batch ID>
0034

> <Smiles>
CNC(C)C(=O)NC(C(=O)N1Cc2cc([101O:1][101CH2:1]Cc3cc(C[100NH:0][100C:0](=O)N4CCCC(n5nc(-c6ccc(Oc7ccc(F)cc7F)cc6)c(C(N)=O)c5N)C4)cc(C)c3C)ccc2CC1C(=O)NC1CCCc2ccccc21)C(C)(C)C

> <Shape>
0.221

> <Color>
0.059

> <Negative vol penalty>
0.000

$$$$

  -OEChem-04052316503D

 87 95  0     1  0  0  0  0  0999 V2000
  -29.1342   -9.5427   26.9429 C   0  0  0  0  0  0  0  0  0  0  0  0
  -28.0640  -10.4133   26.7636 C   0  0  0  0  0  0  0  0  0  0  0  0
  -30.1234  -24.0563   19.8457 C   0  0  0  0  0  0  0  0  0  0  0  0
  -27.9004  -23.5743   19.0315 C   0  0  0  0  0  0  0  0  0  0  0  0
  -30.1725   -9.5155   26.0128 C   0  0  0  0  0  0  0  0  0  0  0  0
  -28.0320  -11.2580   25.6546 C   0  0  0  0  0  0  0  0  0  0  0  0
  -23.0775  -13.0453   22.5298 C   0  0  0  0  0  0  0  0  0  0  0  0
  -30.3480  -22.6934   20.0393 C   0  0  0  0  0  0  0  0  0  0  0  0
  -28.1250  -22.2113   19.2250 C   0  0  0  0  0  0  0  0  0  0  0  0
  -22.3098  -14.2083   22.5739 C   0  0  0  0  0  0  0  0  0  0  0  0
  -28.1375  -20.0307   21.8087 C   0  0  0  0  0  0  0  0  0  0  0  0
  -27.1271  -19.2876   22.4192 C   0  0  0  0  0  0  0  0  0  0  0  0
  -23.5749  -15.1063   20.7267 C   0  0  0  0  0  0  0  0  0  0  0  0
  -21.6380  -21.0608   24.8860 C   0  0  0  0  0  0  0  0  0  0  0  0
  -26.9701  -17.8883   20.4559 C   0  0  0  0  0  0  0  0  0  0  0  0
  -19.4264  -21.0118   24.0124 C   0  0  0  0  0  0  0  0  0  0  0  0
  -28.8995  -24.4968   19.3419 C   0  0  0  0  0  0  0  0  0  0  0  0
  -28.9300  -26.6534   17.9795 C   0  0  0  0  0  0  0  0  0  0  0  0
  -30.1485  -10.3534   24.8867 C   0  0  0  0  0  0  0  0  0  0  0  0
  -24.1086  -12.9084   21.5893 C   0  0  0  0  0  0  0  0  0  0  0  0
  -29.0716  -11.2429   24.7093 C   0  0  0  0  0  0  0  0  0  0  0  0
  -24.3526  -13.9395   20.6710 C   0  0  0  0  0  0  0  0  0  0  0  0
  -20.5585  -20.3218   24.4150 C   0  0  0  0  0  0  0  0  0  0  0  0
  -29.3489  -21.7709   19.7289 C   0  0  0  0  0  0  0  0  0  0  0  0
  -22.5603  -15.2401   21.6741 C   0  0  0  0  0  0  0  0  0  0  0  0
  -28.5641  -19.7026   20.5218 C   0  0  0  0  0  0  0  0  0  0  0  0
  -26.5435  -18.2164   21.7428 C   0  0  0  0  0  0  0  0  0  0  0  0
  -27.9805  -18.6314   19.8455 C   0  0  0  0  0  0  0  0  0  0  0  0
  -21.5536  -22.4477   24.9392 C   0  0  0  0  0  0  0  0  0  0  0  0
  -28.6667  -25.9047   19.1422 C   0  0  0  0  0  0  0  0  0  0  0  0
  -20.3771  -23.0425   24.5129 C   0  0  0  0  0  0  0  0  0  0  0  0
  -28.5360  -27.9303   18.2969 C   0  0  0  0  0  0  0  0  0  0  0  0
  -29.4813  -26.2323   16.7248 C   0  0  0  0  0  0  0  0  0  0  0  0
  -27.2596  -12.5246   21.7552 C   0  0  0  0  0  0  0  0  0  0  0  0
  -26.9946  -12.1757   18.5411 C   0  0  0  0  0  0  0  0  0  0  0  0
  -25.2183  -12.8030   15.6954 C   0  0  0  0  0  0  0  0  0  0  0  0
  -24.6040  -30.1217   22.2451 C   0  0  0  0  0  0  0  0  0  0  0  0
  -31.3168  -10.3219   23.9335 C   0  0  0  0  0  0  0  0  0  0  0  0
  -24.9102  -11.6367   21.5373 C   0  0  0  0  0  0  0  0  0  0  0  0
  -25.4346  -13.8336   19.6286 C   0  0  0  0  0  0  0  0  0  0  0  0
  -31.0238  -10.9826   22.5888 C   0  0  0  0  0  0  0  0  0  0  0  0
  -28.0743  -30.8879   22.0292 C   0  0  0  0  0  0  0  0  0  0  0  0
  -30.3361  -12.3286   22.7940 C   0  0  0  0  0  0  0  0  0  0  0  0
  -28.6434  -29.7652   21.1599 C   0  0  0  0  0  0  0  0  0  0  0  0
  -26.9648  -30.3825   22.9487 C   0  0  0  0  0  0  0  0  0  0  0  0
  -26.4421  -28.5416   21.3958 C   0  0  0  0  0  0  0  0  0  0  0  0
  -28.9888  -12.1570   23.5060 C   0  0  1  0  0  0  0  0  0  0  0  0
  -26.2717  -11.8153   20.8728 C   0  0  1  0  0  0  0  0  0  0  0  0
  -27.5257  -29.0141   20.4116 C   0  0  2  0  0  0  0  0  0  0  0  0
  -25.2724  -12.4232   13.2155 C   0  0  0  0  0  0  0  0  0  0  0  0
  -29.1106  -14.3554   18.2558 C   0  0  0  0  0  0  0  0  0  0  0  0
  -28.4389  -14.5963   15.8560 C   0  0  0  0  0  0  0  0  0  0  0  0
  -29.3729  -12.4338   16.6768 C   0  0  0  0  0  0  0  0  0  0  0  0
  -22.6897  -11.2664   15.7586 C   0  0  0  0  0  0  0  0  0  0  0  0
  -20.6177  -18.8167   24.3452 C   0  0  0  0  0  0  0  0  0  0  0  0
  -20.2146  -24.5278   24.5422 C   0  0  0  0  0  0  0  0  0  0  0  0
  -21.1538  -18.2825   23.0153 C   0  0  0  0  0  0  0  0  0  0  0  0
  -20.9503  -25.2674   23.4117 C   0  0  0  0  0  0  0  0  0  0  0  0
  -20.8184  -26.7904   23.5131 C   0  0  0  0  0  0  0  0  0  0  0  0
  -21.5847  -27.4894   22.3873 C   0  0  0  0  0  0  0  0  0  0  0  0
  -21.4853  -29.0127   22.5116 C   0  0  0  0  0  0  0  0  0  0  0  0
  -22.2877  -29.7417   21.4390 C   0  0  0  0  0  0  0  0  0  0  0  0
  -21.2905  -16.7646   22.9854 C   0  0  0  0  0  0  0  0  0  1  0  0
  -27.0342  -13.1116   17.3572 C   0  0  1  0  0  0  0  0  0  0  0  0
  -24.7868  -11.8964   14.5569 C   0  0  2  0  0  0  0  0  0  0  0  0
  -28.4700  -13.6274   17.0572 C   0  0  0  0  0  0  0  0  0  0  0  0
  -19.3075  -22.3579   24.0493 N   0  0  0  0  0  0  0  0  0  0  0  0
  -28.1458  -26.6443   20.1249 N   0  0  0  0  0  0  0  0  0  0  0  0
  -28.0788  -27.8712   19.5805 N   0  0  0  0  0  0  0  0  0  0  0  0
  -26.1952  -12.5731   19.6222 N   0  0  0  0  0  0  0  0  0  0  0  0
  -25.9360  -29.6812   22.1769 N   0  0  0  0  0  0  0  0  0  0  0  0
  -28.5396  -29.0867   17.6004 N   0  0  0  0  0  0  0  0  0  0  0  0
  -29.8319  -24.8844   16.5678 N   0  0  0  0  0  0  0  0  0  0  0  0
  -27.9837  -11.6837   22.5786 N   0  0  0  0  0  0  0  0  0  0  0  0
  -26.4132  -12.3944   16.2489 N   0  0  0  0  0  0  0  0  0  0  0  0
  -23.6935  -29.4053   21.4779 N   0  0  0  0  0  0  0  0  0  0  0  0
  -23.3007  -11.7936   14.5113 N   0  3  0  0  0  0  0  0  0  0  0  0
  -29.6731  -27.0310   15.7768 O   0  0  0  0  0  0  0  0  0  0  0  0
  -27.3587  -13.7444   21.6924 O   0  0  0  0  0  0  0  0  0  0  0  0
  -27.6433  -11.1271   18.5049 O   0  0  0  0  0  0  0  0  0  0  0  0
  -24.5629  -13.7786   16.0551 O   0  0  0  0  0  0  0  0  0  0  0  0
  -24.2531  -31.0855   22.9342 O   0  0  0  0  0  0  0  0  0  0  0  0
  -29.5678  -20.4408   19.9174 O   0  0  0  0  0  0  0  0  0  0  0  0
  -21.8129  -16.3766   21.7154 O   0  0  0  0  0  0  0  0  0  1  0  0
  -25.5743  -17.5020   22.3297 F   0  0  0  0  0  0  0  0  0  0  0  0
  -28.3870  -18.3107   18.6094 F   0  0  0  0  0  0  0  0  0  0  0  0
  -22.8910  -23.3598   25.5215 Cl  0  0  0  0  0  0  0  0  0  0  0  0
  1  2  1  0  0  0  0
  1  5  2  0  0  0  0
  2  6  2  0  0  0  0
  3  8  2  0  0  0  0
  3 17  1  0  0  0  0
  4  9  1  0  0  0  0
  4 17  2  0  0  0  0
  5 19  1  0  0  0  0
  6 21  1  0  0  0  0
  7 10  2  0  0  0  0
  7 20  1  0  0  0  0
  8 24  1  0  0  0  0
  9 24  2  0  0  0  0
 10 25  1  0  0  0  0
 11 12  2  0  0  0  0
 11 26  1  0  0  0  0
 12 27  1  0  0  0  0
 13 22  1  0  0  0  0
 13 25  2  0  0  0  0
 14 23  2  0  0  0  0
 14 29  1  0  0  0  0
 15 27  2  0  0  0  0
 15 28  1  0  0  0  0
 16 23  1  0  0  0  0
 16 67  2  0  0  0  0
 17 30  1  0  0  0  0
 18 30  1  0  0  0  0
 18 32  2  0  0  0  0
 18 33  1  0  0  0  0
 19 21  2  0  0  0  0
 19 38  1  0  0  0  0
 20 22  2  0  0  0  0
 20 39  1  0  0  0  0
 21 47  1  0  0  0  0
 22 40  1  0  0  0  0
 23 55  1  0  0  0  0
 24 83  1  0  0  0  0
 25 84  1  0  0  0  0
 26 28  2  0  0  0  0
 26 83  1  0  0  0  0
 27 85  1  0  0  0  0
 28 86  1  0  0  0  0
 29 31  2  0  0  0  0
 29 87  1  0  0  0  0
 30 68  2  0  0  0  0
 31 56  1  0  0  0  0
 31 67  1  0  0  0  0
 32 69  1  0  0  0  0
 32 72  1  0  0  0  0
 33 73  1  0  0  0  0
 33 78  2  0  0  0  0
 34 48  1  0  0  0  0
 34 74  1  0  0  0  0
 34 79  2  0  0  0  0
 35 64  1  0  0  0  0
 35 70  1  0  0  0  0
 35 80  2  0  0  0  0
 36 65  1  0  0  0  0
 36 75  1  0  0  0  0
 36 81  2  0  0  0  0
 37 71  1  0  0  0  0
 37 76  1  0  0  0  0
 37 82  2  0  0  0  0
 38 41  1  0  0  0  0
 39 48  1  0  0  0  0
 40 70  1  0  0  0  0
 41 43  1  0  0  0  0
 42 44  1  0  0  0  0
 42 45  1  0  0  0  0
 43 47  1  0  0  0  0
 44 49  1  0  0  0  0
 45 71  1  0  0  0  0
 46 49  1  0  0  0  0
 46 71  1  0  0  0  0
 47 74  1  0  0  0  0
 48 70  1  0  0  0  0
 49 69  1  0  0  0  0
 50 65  1  0  0  0  0
 51 66  1  0  0  0  0
 52 66  1  0  0  0  0
 53 66  1  0  0  0  0
 54 77  1  0  0  0  0
 55 57  1  0  0  0  0
 56 58  1  0  0  0  0
 57 63  1  0  0  0  0
 58 59  1  0  0  0  0
 59 60  1  0  0  0  0
 60 61  1  0  0  0  0
 61 62  1  0  0  0  0
 62 76  1  0  0  0  0
 63 84  1  0  0  0  0
 64 66  1  0  0  0  0
 64 75  1  0  0  0  0
 65 77  1  0  0  0  0
 68 69  1  0  0  0  0
M  CHG  1  77   1
M  ISO  4  37 100  63 101  76 100  84 101
M  END
> <Batch ID>
0034

> <Smiles>
CNC(C)C(=O)NC(C(=O)N1Cc2cc([101O:1][101CH2:1]CCc3cnc(CCCCCC[100NH:0][100C:0](=O)N4CCCC(n5nc(-c6ccc(Oc7ccc(F)cc7F)cc6)c(C(N)=O)c5N)C4)c(Cl)c3)ccc2CC1C(=O)NC1CCCc2ccccc21)C(C)(C)C

> <Shape>
0.215

> <Color>
0.056

> <Negative vol penalty>
0.000

$$$$

  -OEChem-04052316503D

 85 93  0     1  0  0  0  0  0999 V2000
  -27.8868  -38.0903   21.2370 C   0  0  0  0  0  0  0  0  0  0  0  0
  -28.3621  -36.9067   20.6816 C   0  0  0  0  0  0  0  0  0  0  0  0
  -22.8817  -10.2463   20.0079 C   0  0  0  0  0  0  0  0  0  0  0  0
  -24.0014   -9.5210   22.0222 C   0  0  0  0  0  0  0  0  0  0  0  0
  -26.9937  -38.0477   22.3068 C   0  0  0  0  0  0  0  0  0  0  0  0
  -27.9454  -35.6796   21.1965 C   0  0  0  0  0  0  0  0  0  0  0  0
  -26.5337  -28.9591   19.1574 C   0  0  0  0  0  0  0  0  0  0  0  0
  -22.0660   -9.1158   20.0542 C   0  0  0  0  0  0  0  0  0  0  0  0
  -23.1856   -8.3905   22.0686 C   0  0  0  0  0  0  0  0  0  0  0  0
  -26.8626  -27.6436   19.4816 C   0  0  0  0  0  0  0  0  0  0  0  0
  -20.0309   -7.6344   23.0153 C   0  0  0  0  0  0  0  0  0  0  0  0
  -19.4752   -7.2882   24.2470 C   0  0  0  0  0  0  0  0  0  0  0  0
  -25.2557  -27.6915   21.2801 C   0  0  0  0  0  0  0  0  0  0  0  0
  -27.3859  -21.3062   20.2784 C   0  0  0  0  0  0  0  0  0  0  0  0
  -28.4289  -23.4432   21.7372 C   0  0  0  0  0  0  0  0  0  0  0  0
  -20.5988   -5.1514   24.1531 C   0  0  0  0  0  0  0  0  0  0  0  0
  -23.8494  -10.4489   20.9919 C   0  0  0  0  0  0  0  0  0  0  0  0
  -24.4434  -12.8697   21.5344 C   0  0  0  0  0  0  0  0  0  0  0  0
  -26.5584  -36.8195   22.8288 C   0  0  0  0  0  0  0  0  0  0  0  0
  -25.5696  -29.6555   19.9003 C   0  0  0  0  0  0  0  0  0  0  0  0
  -27.0467  -35.6206   22.2752 C   0  0  0  0  0  0  0  0  0  0  0  0
  -24.9146  -29.0149   20.9618 C   0  0  0  0  0  0  0  0  0  0  0  0
  -28.0841  -21.0678   21.4621 C   0  0  0  0  0  0  0  0  0  0  0  0
  -27.7307  -23.6816   20.5534 C   0  0  0  0  0  0  0  0  0  0  0  0
  -22.2179   -8.1879   21.0846 C   0  0  0  0  0  0  0  0  0  0  0  0
  -26.2256  -27.0105   20.5449 C   0  0  0  0  0  0  0  0  0  0  0  0
  -20.8704   -6.7391   22.3525 C   0  0  0  0  0  0  0  0  0  0  0  0
  -19.7591   -6.0466   24.8159 C   0  0  0  0  0  0  0  0  0  0  0  0
  -27.2092  -22.6132   19.8240 C   0  0  0  0  0  0  0  0  0  0  0  0
  -21.1544   -5.4976   22.9215 C   0  0  0  0  0  0  0  0  0  0  0  0
  -28.6056  -22.1362   22.1915 C   0  0  0  0  0  0  0  0  0  0  0  0
  -24.6927  -11.6162   20.9442 C   0  0  0  0  0  0  0  0  0  0  0  0
  -25.5376  -13.6300   21.2009 C   0  0  0  0  0  0  0  0  0  0  0  0
  -23.3229  -13.3077   22.3144 C   0  0  0  0  0  0  0  0  0  0  0  0
  -25.5861  -32.2757   21.6997 C   0  0  0  0  0  0  0  0  0  0  0  0
  -22.3849  -31.7602   21.7939 C   0  0  0  0  0  0  0  0  0  0  0  0
  -19.7969  -29.5515   21.5270 C   0  0  0  0  0  0  0  0  0  0  0  0
  -31.0571  -14.2304   20.6358 C   0  0  0  0  0  0  0  0  0  0  0  0
  -25.6289  -36.8241   24.0166 C   0  0  0  0  0  0  0  0  0  0  0  0
  -25.2070  -31.0651   19.5210 C   0  0  0  0  0  0  0  0  0  0  0  0
  -23.8578  -29.7118   21.7778 C   0  0  0  0  0  0  0  0  0  0  0  0
  -24.9462  -35.4808   24.2609 C   0  0  0  0  0  0  0  0  0  0  0  0
  -29.2899  -12.7415   17.9272 C   0  0  0  0  0  0  0  0  0  0  0  0
  -25.9605  -34.3442   24.1823 C   0  0  0  0  0  0  0  0  0  0  0  0
  -27.9187  -12.4140   18.5210 C   0  0  0  0  0  0  0  0  0  0  0  0
  -30.4091  -12.5388   18.9461 C   0  0  0  0  0  0  0  0  0  0  0  0
  -28.8512  -12.9273   20.8157 C   0  0  0  0  0  0  0  0  0  0  0  0
  -26.5988  -34.2698   22.7900 C   0  0  1  0  0  0  0  0  0  0  0  0
  -24.5793  -31.8500   20.6688 C   0  0  1  0  0  0  0  0  0  0  0  0
  -27.6849  -13.1703   19.8426 C   0  0  2  0  0  0  0  0  0  0  0  0
  -17.2965  -29.4176   21.6920 C   0  0  0  0  0  0  0  0  0  0  0  0
  -22.5819  -31.8767   24.8365 C   0  0  0  0  0  0  0  0  0  0  0  0
  -20.3175  -30.8151   24.9542 C   0  0  0  0  0  0  0  0  0  0  0  0
  -20.5921  -33.0470   23.8744 C   0  0  0  0  0  0  0  0  0  0  0  0
  -19.5420  -28.6747   18.7118 C   0  0  0  0  0  0  0  0  0  0  0  0
  -28.2503  -19.6531   21.9146 C   0  0  0  0  0  0  0  0  0  0  0  0
  -27.5421  -25.0884   20.0669 C   0  0  0  0  0  0  0  0  0  1  0  0
  -31.2547  -17.3030   21.8776 C   0  0  0  0  0  0  0  0  0  0  0  0
  -31.5604  -15.9030   22.3988 C   0  0  0  0  0  0  0  0  0  0  0  0
  -29.8276  -17.7358   22.1885 C   0  0  0  0  0  0  0  0  0  0  0  0
  -21.4530  -30.9841   22.6930 C   0  0  1  0  0  0  0  0  0  0  0  0
  -18.4852  -29.6240   20.7663 C   0  0  2  0  0  0  0  0  0  0  0  0
  -21.2574  -31.6680   24.0755 C   0  0  0  0  0  0  0  0  0  0  0  0
  -25.8541  -11.5782   20.2856 N   0  0  0  0  0  0  0  0  0  0  0  0
  -26.3442  -12.8174   20.4599 N   0  0  0  0  0  0  0  0  0  0  0  0
  -23.5427  -31.0915   21.3719 N   0  0  0  0  0  0  0  0  0  0  0  0
  -30.1272  -13.2836   20.1756 N   0  0  0  0  0  0  0  0  0  0  0  0
  -25.8788  -14.9077   21.4722 N   0  0  0  0  0  0  0  0  0  0  0  0
  -22.2855  -12.3986   22.5628 N   0  0  0  0  0  0  0  0  0  0  0  0
  -25.6919  -33.6451   21.8509 N   0  0  0  0  0  0  0  0  0  0  0  0
  -20.2183  -30.7983   21.9383 N   0  0  0  0  0  0  0  0  0  0  0  0
  -30.7094  -14.8962   21.8047 N   0  0  0  0  0  0  0  0  0  0  0  0
  -18.4427  -28.5773   19.7063 N   0  3  0  0  0  0  0  0  0  0  0  0
  -29.6228  -19.1228   21.6940 N   0  3  0  0  0  0  0  0  0  0  0  0
  -23.2363  -14.4757   22.7635 O   0  0  0  0  0  0  0  0  0  0  0  0
  -26.2189  -31.4246   22.3137 O   0  0  0  0  0  0  0  0  0  0  0  0
  -22.0926  -32.9145   21.4719 O   0  0  0  0  0  0  0  0  0  0  0  0
  -20.3867  -28.4942   21.7386 O   0  0  0  0  0  0  0  0  0  0  0  0
  -32.1163  -14.4687   20.0456 O   0  0  0  0  0  0  0  0  0  0  0  0
  -21.4220   -7.0847   21.1302 O   0  0  0  0  0  0  0  0  0  0  0  0
  -26.5452  -25.7268   20.8639 O   0  0  0  0  0  0  0  0  0  1  0  0
  -19.2267   -5.7149   25.9993 F   0  0  0  0  0  0  0  0  0  0  0  0
  -26.5370  -22.8333   18.6855 F   0  0  0  0  0  0  0  0  0  0  0  0
  -21.9613   -4.6339   22.2900 F   0  0  0  0  0  0  0  0  0  0  0  0
  -29.4759  -21.8780   23.6596 Cl  0  0  0  0  0  0  0  0  0  0  0  0
  1  2  1  0  0  0  0
  1  5  2  0  0  0  0
  2  6  2  0  0  0  0
  3  8  2  0  0  0  0
  3 17  1  0  0  0  0
  4  9  1  0  0  0  0
  4 17  2  0  0  0  0
  5 19  1  0  0  0  0
  6 21  1  0  0  0  0
  7 10  2  0  0  0  0
  7 20  1  0  0  0  0
  8 25  1  0  0  0  0
  9 25  2  0  0  0  0
 10 26  1  0  0  0  0
 11 12  2  0  0  0  0
 11 27  1  0  0  0  0
 12 28  1  0  0  0  0
 13 22  1  0  0  0  0
 13 26  2  0  0  0  0
 14 23  2  0  0  0  0
 14 29  1  0  0  0  0
 15 24  1  0  0  0  0
 15 31  2  0  0  0  0
 16 28  2  0  0  0  0
 16 30  1  0  0  0  0
 17 32  1  0  0  0  0
 18 32  1  0  0  0  0
 18 33  2  0  0  0  0
 18 34  1  0  0  0  0
 19 21  2  0  0  0  0
 19 39  1  0  0  0  0
 20 22  2  0  0  0  0
 20 40  1  0  0  0  0
 21 48  1  0  0  0  0
 22 41  1  0  0  0  0
 23 31  1  0  0  0  0
 23 56  1  0  0  0  0
 24 29  2  0  0  0  0
 24 57  1  0  0  0  0
 25 80  1  0  0  0  0
 26 81  1  0  0  0  0
 27 30  2  0  0  0  0
 27 80  1  0  0  0  0
 28 82  1  0  0  0  0
 29 83  1  0  0  0  0
 30 84  1  0  0  0  0
 31 85  1  0  0  0  0
 32 64  2  0  0  0  0
 33 65  1  0  0  0  0
 33 68  1  0  0  0  0
 34 69  1  0  0  0  0
 34 75  2  0  0  0  0
 35 49  1  0  0  0  0
 35 70  1  0  0  0  0
 35 76  2  0  0  0  0
 36 61  1  0  0  0  0
 36 66  1  0  0  0  0
 36 77  2  0  0  0  0
 37 62  1  0  0  0  0
 37 71  1  0  0  0  0
 37 78  2  0  0  0  0
 38 67  1  0  0  0  0
 38 72  1  0  0  0  0
 38 79  2  0  0  0  0
 39 42  1  0  0  0  0
 40 49  1  0  0  0  0
 41 66  1  0  0  0  0
 42 44  1  0  0  0  0
 43 45  1  0  0  0  0
 43 46  1  0  0  0  0
 44 48  1  0  0  0  0
 45 50  1  0  0  0  0
 46 67  1  0  0  0  0
 47 50  1  0  0  0  0
 47 67  1  0  0  0  0
 48 70  1  0  0  0  0
 49 66  1  0  0  0  0
 50 65  1  0  0  0  0
 51 62  1  0  0  0  0
 52 63  1  0  0  0  0
 53 63  1  0  0  0  0
 54 63  1  0  0  0  0
 55 73  1  0  0  0  0
 56 74  1  0  0  0  0
 57 81  1  0  0  0  0
 58 59  1  0  0  0  0
 58 60  1  0  0  0  0
 59 72  1  0  0  0  0
 60 74  1  0  0  0  0
 61 63  1  0  0  0  0
 61 71  1  0  0  0  0
 62 73  1  0  0  0  0
 64 65  1  0  0  0  0
M  CHG  2  73   1  74   1
M  ISO  4  38 100  57 101  72 100  81 101
M  END
> <Batch ID>
0034

> <Smiles>
CNC(C)C(=O)NC(C(=O)N1Cc2cc([101O:1][101CH2:1]c3cc(Cl)c(CNCCC[100NH:0][100C:0](=O)N4CCCC(n5nc(-c6ccc(Oc7ccc(F)cc7F)cc6)c(C(N)=O)c5N)C4)cc3F)ccc2CC1C(=O)NC1CCCc2ccccc21)C(C)(C)C

> <Shape>
0.346

> <Color>
0.175

> <Negative vol penalty>
0.000

$$$$

  -OEChem-04052316503D

 86 95  0     1  0  0  0  0  0999 V2000
  -26.7728  -37.9858   25.2875 C   0  0  0  0  0  0  0  0  0  0  0  0
  -27.0852  -36.9037   26.1041 C   0  0  0  0  0  0  0  0  0  0  0  0
  -23.1818  -10.2279   22.0151 C   0  0  0  0  0  0  0  0  0  0  0  0
  -24.7310  -10.9113   23.7384 C   0  0  0  0  0  0  0  0  0  0  0  0
  -25.7971  -37.8539   24.3003 C   0  0  0  0  0  0  0  0  0  0  0  0
  -26.4213  -35.6892   25.9346 C   0  0  0  0  0  0  0  0  0  0  0  0
  -29.3079  -28.5570   24.5834 C   0  0  0  0  0  0  0  0  0  0  0  0
  -22.6533   -9.2632   22.8727 C   0  0  0  0  0  0  0  0  0  0  0  0
  -24.2025   -9.9466   24.5961 C   0  0  0  0  0  0  0  0  0  0  0  0
  -29.6905  -27.2757   24.1860 C   0  0  0  0  0  0  0  0  0  0  0  0
  -23.4916   -6.1777   23.9688 C   0  0  0  0  0  0  0  0  0  0  0  0
  -23.2700   -4.9020   23.4501 C   0  0  0  0  0  0  0  0  0  0  0  0
  -29.8824  -19.9987   23.0496 C   0  0  0  0  0  0  0  0  0  0  0  0
  -27.5288  -26.9382   23.1558 C   0  0  0  0  0  0  0  0  0  0  0  0
  -20.9183   -5.1003   23.9668 C   0  0  0  0  0  0  0  0  0  0  0  0
  -24.2207  -11.0519   22.4479 C   0  0  0  0  0  0  0  0  0  0  0  0
  -24.0820  -13.1236   20.9657 C   0  0  0  0  0  0  0  0  0  0  0  0
  -25.1278  -36.6344   24.1122 C   0  0  0  0  0  0  0  0  0  0  0  0
  -28.0383  -29.0402   24.2548 C   0  0  0  0  0  0  0  0  0  0  0  0
  -25.4348  -35.5413   24.9448 C   0  0  0  0  0  0  0  0  0  0  0  0
  -29.7085  -21.3535   22.7403 C   0  0  0  0  0  0  0  0  0  0  0  0
  -27.1445  -28.2255   23.5404 C   0  0  0  0  0  0  0  0  0  0  0  0
  -29.8427  -19.0358   22.0494 C   0  0  0  0  0  0  0  0  0  0  0  0
  -23.1636   -9.1225   24.1632 C   0  0  0  0  0  0  0  0  0  0  0  0
  -28.8030  -26.4682   23.4742 C   0  0  0  0  0  0  0  0  0  0  0  0
  -22.4265   -6.9147   24.4866 C   0  0  0  0  0  0  0  0  0  0  0  0
  -21.9834   -4.3633   23.4490 C   0  0  0  0  0  0  0  0  0  0  0  0
  -21.1399   -6.3760   24.4855 C   0  0  0  0  0  0  0  0  0  0  0  0
  -24.7675  -12.0483   21.5622 C   0  0  0  0  0  0  0  0  0  0  0  0
  -29.5027  -21.6868   21.3989 C   0  0  0  0  0  0  0  0  0  0  0  0
  -29.6292  -19.4640   20.7546 C   0  0  0  0  0  0  0  0  0  0  0  0
  -25.0385  -13.7701   20.2217 C   0  0  0  0  0  0  0  0  0  0  0  0
  -22.7039  -13.5040   21.0746 C   0  0  0  0  0  0  0  0  0  0  0  0
  -25.6000  -31.8864   24.4279 C   0  0  0  0  0  0  0  0  0  0  0  0
  -25.3700  -30.6859   21.6143 C   0  0  0  0  0  0  0  0  0  0  0  0
  -25.7231  -29.3462   18.4970 C   0  0  0  0  0  0  0  0  0  0  0  0
  -31.0016  -14.1022   20.6492 C   0  0  0  0  0  0  0  0  0  0  0  0
  -24.0472  -36.5537   23.0632 C   0  0  0  0  0  0  0  0  0  0  0  0
  -27.5615  -30.3908   24.7155 C   0  0  0  0  0  0  0  0  0  0  0  0
  -29.7526  -22.3862   23.8333 C   0  0  0  0  0  0  0  0  0  0  0  0
  -25.7766  -28.7741   23.2392 C   0  0  0  0  0  0  0  0  0  0  0  0
  -29.3136  -23.1147   20.9612 C   0  0  0  0  0  0  0  0  0  0  0  0
  -23.6552  -35.1234   22.7013 C   0  0  0  0  0  0  0  0  0  0  0  0
  -28.4250  -23.1294   24.0072 C   0  0  0  0  0  0  0  0  0  0  0  0
  -28.0429  -23.7495   21.5300 C   0  0  0  0  0  0  0  0  0  0  0  0
  -29.1158  -12.9649   17.8514 C   0  0  0  0  0  0  0  0  0  0  0  0
  -23.4567  -34.2889   23.9626 C   0  0  0  0  0  0  0  0  0  0  0  0
  -27.7257  -12.6981   18.4314 C   0  0  0  0  0  0  0  0  0  0  0  0
  -30.2199  -12.5998   18.8413 C   0  0  0  0  0  0  0  0  0  0  0  0
  -28.7029  -12.9609   20.7497 C   0  0  0  0  0  0  0  0  0  0  0  0
  -24.7541  -34.2003   24.7754 C   0  0  1  0  0  0  0  0  0  0  0  0
  -26.6367  -31.0835   23.6985 C   0  0  1  0  0  0  0  0  0  0  0  0
  -27.5552  -13.3661   19.8090 C   0  0  2  0  0  0  0  0  0  0  0  0
  -28.1604  -24.2326   22.9792 C   0  0  2  0  0  0  0  0  0  1  0  0
  -24.8186  -29.5233   16.1629 C   0  0  0  0  0  0  0  0  0  0  0  0
  -22.8545  -29.1937   22.4799 C   0  0  0  0  0  0  0  0  0  0  0  0
  -22.4817  -28.5758   20.0825 C   0  0  0  0  0  0  0  0  0  0  0  0
  -22.4736  -30.9748   20.7662 C   0  0  0  0  0  0  0  0  0  0  0  0
  -28.3707  -30.0891   17.4030 C   0  0  0  0  0  0  0  0  0  0  0  0
  -30.0271  -17.6001   22.4013 C   0  0  0  0  0  0  0  0  0  0  0  0
  -31.4401  -17.0491   22.1212 C   0  0  0  0  0  0  0  0  0  0  0  0
  -31.6378  -15.5910   22.5301 C   0  0  0  0  0  0  0  0  0  0  0  0
  -24.6617  -29.7095   20.7096 C   0  0  1  0  0  0  0  0  0  0  0  0
  -25.8893  -29.9947   17.1345 C   0  0  2  0  0  0  0  0  0  0  0  0
  -23.1422  -29.6067   21.0226 C   0  0  0  0  0  0  0  0  0  0  0  0
  -26.0596  -12.0104   21.2260 N   0  0  0  0  0  0  0  0  0  0  0  0
  -29.4597  -20.7579   20.4080 N   0  0  0  0  0  0  0  0  0  0  0  0
  -26.1936  -13.0699   20.4101 N   0  0  0  0  0  0  0  0  0  0  0  0
  -25.8809  -30.1791   22.8154 N   0  0  0  0  0  0  0  0  0  0  0  0
  -30.0001  -13.2672   20.1267 N   0  0  0  0  0  0  0  0  0  0  0  0
  -24.9957  -14.8635   19.4311 N   0  0  0  0  0  0  0  0  0  0  0  0
  -21.8588  -12.7298   21.8812 N   0  0  0  0  0  0  0  0  0  0  0  0
  -25.6608  -33.2439   24.1774 N   0  0  0  0  0  0  0  0  0  0  0  0
  -24.9638  -30.1252   19.3442 N   0  0  0  0  0  0  0  0  0  0  0  0
  -30.7100  -14.7006   21.8688 N   0  0  0  0  0  0  0  0  0  0  0  0
  -27.2238  -29.6611   16.5614 N   0  3  0  0  0  0  0  0  0  0  0  0
  -22.2322  -14.4914   20.4613 O   0  0  0  0  0  0  0  0  0  0  0  0
  -24.8019  -31.3170   25.1631 O   0  0  0  0  0  0  0  0  0  0  0  0
  -25.4643  -31.8675   21.2705 O   0  0  0  0  0  0  0  0  0  0  0  0
  -26.2143  -28.2557   18.7800 O   0  0  0  0  0  0  0  0  0  0  0  0
  -32.0738  -14.3039   20.0689 O   0  0  0  0  0  0  0  0  0  0  0  0
  -22.6480   -8.1814   25.0005 O   0  0  0  0  0  0  0  0  0  0  0  0
  -29.1846  -25.2200   23.0854 O   0  0  0  0  0  0  0  0  0  1  0  0
  -21.7705   -3.1388   22.9495 F   0  0  0  0  0  0  0  0  0  0  0  0
  -20.1125   -7.0798   24.9805 F   0  0  0  0  0  0  0  0  0  0  0  0
  -29.5563  -18.3762   19.4251 Cl  0  0  0  0  0  0  0  0  0  0  0  0
  1  2  1  0  0  0  0
  1  5  2  0  0  0  0
  2  6  2  0  0  0  0
  3  8  2  0  0  0  0
  3 16  1  0  0  0  0
  4  9  1  0  0  0  0
  4 16  2  0  0  0  0
  5 18  1  0  0  0  0
  6 20  1  0  0  0  0
  7 10  2  0  0  0  0
  7 19  1  0  0  0  0
  8 24  1  0  0  0  0
  9 24  2  0  0  0  0
 10 25  1  0  0  0  0
 11 12  2  0  0  0  0
 11 26  1  0  0  0  0
 12 27  1  0  0  0  0
 13 21  1  0  0  0  0
 13 23  2  0  0  0  0
 14 22  1  0  0  0  0
 14 25  2  0  0  0  0
 15 27  2  0  0  0  0
 15 28  1  0  0  0  0
 16 29  1  0  0  0  0
 17 29  1  0  0  0  0
 17 32  2  0  0  0  0
 17 33  1  0  0  0  0
 18 20  2  0  0  0  0
 18 38  1  0  0  0  0
 19 22  2  0  0  0  0
 19 39  1  0  0  0  0
 20 51  1  0  0  0  0
 21 30  2  0  0  0  0
 21 40  1  0  0  0  0
 22 41  1  0  0  0  0
 23 31  1  0  0  0  0
 23 60  1  0  0  0  0
 24 82  1  0  0  0  0
 25 83  1  0  0  0  0
 26 28  2  0  0  0  0
 26 82  1  0  0  0  0
 27 84  1  0  0  0  0
 28 85  1  0  0  0  0
 29 66  2  0  0  0  0
 30 42  1  0  0  0  0
 30 67  1  0  0  0  0
 31 67  2  0  0  0  0
 31 86  1  0  0  0  0
 32 68  1  0  0  0  0
 32 71  1  0  0  0  0
 33 72  1  0  0  0  0
 33 77  2  0  0  0  0
 34 52  1  0  0  0  0
 34 73  1  0  0  0  0
 34 78  2  0  0  0  0
 35 63  1  0  0  0  0
 35 69  1  0  0  0  0
 35 79  2  0  0  0  0
 36 64  1  0  0  0  0
 36 74  1  0  0  0  0
 36 80  2  0  0  0  0
 37 70  1  0  0  0  0
 37 75  1  0  0  0  0
 37 81  2  0  0  0  0
 38 43  1  0  0  0  0
 39 52  1  0  0  0  0
 40 44  1  0  0  0  0
 41 69  1  0  0  0  0
 42 45  1  0  0  0  0
 43 47  1  0  0  0  0
 44 54  1  0  0  0  0
 45 54  1  0  0  0  0
 46 48  1  0  0  0  0
 46 49  1  0  0  0  0
 47 51  1  0  0  0  0
 48 53  1  0  0  0  0
 49 70  1  0  0  0  0
 50 53  1  0  0  0  0
 50 70  1  0  0  0  0
 51 73  1  0  0  0  0
 52 69  1  0  0  0  0
 53 68  1  0  0  0  0
 54 83  1  0  0  0  0
 55 64  1  0  0  0  0
 56 65  1  0  0  0  0
 57 65  1  0  0  0  0
 58 65  1  0  0  0  0
 59 76  1  0  0  0  0
 60 61  1  0  0  0  0
 61 62  1  0  0  0  0
 62 75  1  0  0  0  0
 63 65  1  0  0  0  0
 63 74  1  0  0  0  0
 64 76  1  0  0  0  0
 66 68  1  0  0  0  0
M  CHG  1  76   1
M  ISO  4  37 100  54 101  75 100  83 101
M  END
> <Batch ID>
0034

> <Smiles>
CNC(C)C(=O)NC(C(=O)N1Cc2cc([101O:1][101CH:1]3CCc4cc(CCC[100NH:0][100C:0](=O)N5CCCC(n6nc(-c7ccc(Oc8ccc(F)cc8F)cc7)c(C(N)=O)c6N)C5)c(Cl)nc4CC3)ccc2CC1C(=O)NC1CCCc2ccccc21)C(C)(C)C

> <Shape>
0.356

> <Color>
0.156

> <Negative vol penalty>
0.000

$$$$

  -OEChem-04052316503D

 84 92  0     1  0  0  0  0  0999 V2000
  -21.7483  -11.9349   20.6114 C   0  0  0  0  0  0  0  0  0  0  0  0
  -21.6007  -13.2234   21.1148 C   0  0  0  0  0  0  0  0  0  0  0  0
  -25.0405  -28.5212   19.4440 C   0  0  0  0  0  0  0  0  0  0  0  0
  -25.8568  -26.9271   21.0656 C   0  0  0  0  0  0  0  0  0  0  0  0
  -23.0210  -11.4372   20.3352 C   0  0  0  0  0  0  0  0  0  0  0  0
  -22.7259  -14.0146   21.3433 C   0  0  0  0  0  0  0  0  0  0  0  0
  -23.1567  -20.0860   20.6661 C   0  0  0  0  0  0  0  0  0  0  0  0
  -26.2993  -29.1203   19.3992 C   0  0  0  0  0  0  0  0  0  0  0  0
  -27.1157  -27.5261   21.0207 C   0  0  0  0  0  0  0  0  0  0  0  0
  -23.0827  -21.1390   21.5768 C   0  0  0  0  0  0  0  0  0  0  0  0
  -30.6418  -28.4108   21.0637 C   0  0  0  0  0  0  0  0  0  0  0  0
  -31.7559  -27.5754   20.9834 C   0  0  0  0  0  0  0  0  0  0  0  0
  -25.4900  -21.1679   21.7298 C   0  0  0  0  0  0  0  0  0  0  0  0
  -23.8000  -21.7746   26.8344 C   0  0  0  0  0  0  0  0  0  0  0  0
  -22.2353  -23.0223   25.4809 C   0  0  0  0  0  0  0  0  0  0  0  0
  -30.9277  -26.6710   18.9017 C   0  0  0  0  0  0  0  0  0  0  0  0
  -24.8192  -27.4246   20.2773 C   0  0  0  0  0  0  0  0  0  0  0  0
  -23.0509  -25.7486   19.5212 C   0  0  0  0  0  0  0  0  0  0  0  0
  -24.1618  -12.2261   20.5514 C   0  0  0  0  0  0  0  0  0  0  0  0
  -24.3995  -19.5580   20.2880 C   0  0  0  0  0  0  0  0  0  0  0  0
  -24.0152  -13.5265   21.0710 C   0  0  0  0  0  0  0  0  0  0  0  0
  -25.5771  -20.1100   20.8121 C   0  0  0  0  0  0  0  0  0  0  0  0
  -23.5475  -22.7435   25.8632 C   0  0  0  0  0  0  0  0  0  0  0  0
  -22.7404  -21.0845   27.4232 C   0  0  0  0  0  0  0  0  0  0  0  0
  -21.1757  -22.3323   26.0698 C   0  0  0  0  0  0  0  0  0  0  0  0
  -27.3369  -28.6227   20.1875 C   0  0  0  0  0  0  0  0  0  0  0  0
  -24.2493  -21.6782   22.1110 C   0  0  0  0  0  0  0  0  0  0  0  0
  -29.6706  -28.3763   20.0630 C   0  0  0  0  0  0  0  0  0  0  0  0
  -31.8989  -26.7055   19.9024 C   0  0  0  0  0  0  0  0  0  0  0  0
  -29.8136  -27.5064   18.9820 C   0  0  0  0  0  0  0  0  0  0  0  0
  -21.4283  -21.3634   27.0409 C   0  0  0  0  0  0  0  0  0  0  0  0
  -23.5189  -26.8057   20.3245 C   0  0  0  0  0  0  0  0  0  0  0  0
  -21.7661  -25.5306   19.9549 C   0  0  0  0  0  0  0  0  0  0  0  0
  -23.7180  -25.0281   18.4764 C   0  0  0  0  0  0  0  0  0  0  0  0
  -25.8028  -16.7177   20.5477 C   0  0  0  0  0  0  0  0  0  0  0  0
  -28.0980  -18.1203   18.7348 C   0  0  0  0  0  0  0  0  0  0  0  0
  -29.6136  -20.9956   17.6943 C   0  0  0  0  0  0  0  0  0  0  0  0
  -18.9820  -26.5853   25.1499 C   0  0  0  0  0  0  0  0  0  0  0  0
  -25.5199  -11.6278   20.2824 C   0  0  0  0  0  0  0  0  0  0  0  0
  -24.4635  -18.4397   19.2840 C   0  0  0  0  0  0  0  0  0  0  0  0
  -26.9371  -19.5924   20.4231 C   0  0  0  0  0  0  0  0  0  0  0  0
  -26.6369  -12.6649   20.1996 C   0  0  0  0  0  0  0  0  0  0  0  0
  -18.0471  -27.7973   21.9353 C   0  0  0  0  0  0  0  0  0  0  0  0
  -26.5347  -13.6532   21.3570 C   0  0  0  0  0  0  0  0  0  0  0  0
  -19.3012  -27.5853   21.0855 C   0  0  0  0  0  0  0  0  0  0  0  0
  -18.3965  -28.2012   23.3660 C   0  0  0  0  0  0  0  0  0  0  0  0
  -20.5854  -27.0802   23.2055 C   0  0  0  0  0  0  0  0  0  0  0  0
  -25.2101  -14.4242   21.3089 C   0  0  1  0  0  0  0  0  0  0  0  0
  -25.7603  -17.6400   19.3623 C   0  0  1  0  0  0  0  0  0  0  0  0
  -20.2851  -26.6171   21.7696 C   0  0  2  0  0  0  0  0  0  0  0  0
  -23.0582  -20.0547   28.4593 C   0  0  0  0  0  0  0  0  0  0  0  0
  -31.4857  -21.8211   16.2414 C   0  0  0  0  0  0  0  0  0  0  0  0
  -30.1171  -17.2760   20.8608 C   0  0  0  0  0  0  0  0  0  0  0  0
  -31.7390  -18.9044   19.8677 C   0  0  0  0  0  0  0  0  0  0  0  0
  -30.9030  -16.9902   18.5039 C   0  0  0  0  0  0  0  0  0  0  0  0
  -27.7549  -22.5127   15.9617 C   0  0  0  0  0  0  0  0  0  0  0  0
  -24.6941  -23.4902   25.2260 C   0  0  0  0  0  0  0  0  0  0  0  0
  -19.7861  -22.6639   25.6291 C   0  0  0  0  0  0  0  0  0  0  0  0
  -19.0198  -23.5909   26.5908 C   0  0  0  0  0  0  0  0  0  0  0  0
  -19.7042  -24.9308   26.8530 C   0  0  0  0  0  0  0  0  0  0  0  0
  -25.2179  -22.7914   23.9761 C   0  0  0  0  0  0  0  0  0  1  0  0
  -29.3486  -18.9161   19.0208 C   0  0  1  0  0  0  0  0  0  0  0  0
  -30.0043  -21.4849   16.3114 C   0  0  2  0  0  0  0  0  0  0  0  0
  -30.5014  -18.0304   19.5723 C   0  0  0  0  0  0  0  0  0  0  0  0
  -22.6056  -27.2299   21.2020 N   0  0  0  0  0  0  0  0  0  0  0  0
  -21.5508  -26.4353   20.9525 N   0  0  0  0  0  0  0  0  0  0  0  0
  -26.9470  -18.4940   19.4430 N   0  0  0  0  0  0  0  0  0  0  0  0
  -19.3315  -27.2414   23.9581 N   0  0  0  0  0  0  0  0  0  0  0  0
  -20.8107  -24.6551   19.5764 N   0  0  0  0  0  0  0  0  0  0  0  0
  -25.0366  -25.3808   18.1582 N   0  0  0  0  0  0  0  0  0  0  0  0
  -25.2681  -15.4665   20.3066 N   0  0  0  0  0  0  0  0  0  0  0  0
  -29.6751  -19.6212   17.7861 N   0  0  0  0  0  0  0  0  0  0  0  0
  -19.9221  -25.6870   25.6399 N   0  0  0  0  0  0  0  0  0  0  0  0
  -29.2278  -22.7061   15.9555 N   0  3  0  0  0  0  0  0  0  0  0  0
  -23.1557  -24.1100   17.8326 O   0  0  0  0  0  0  0  0  0  0  0  0
  -26.2862  -17.1115   21.6026 O   0  0  0  0  0  0  0  0  0  0  0  0
  -28.1390  -17.2058   17.9080 O   0  0  0  0  0  0  0  0  0  0  0  0
  -29.2902  -21.7568   18.6035 O   0  0  0  0  0  0  0  0  0  0  0  0
  -17.9093  -26.7812   25.7311 O   0  0  0  0  0  0  0  0  0  0  0  0
  -28.5655  -29.2069   20.1438 O   0  0  0  0  0  0  0  0  0  0  0  0
  -24.1798  -22.7056   23.0007 O   0  0  0  0  0  0  0  0  0  1  0  0
  -32.9696  -25.9044   19.8246 F   0  0  0  0  0  0  0  0  0  0  0  0
  -28.8844  -27.4697   18.0171 F   0  0  0  0  0  0  0  0  0  0  0  0
  -20.1128  -20.5065   27.7719 Cl  0  0  0  0  0  0  0  0  0  0  0  0
  1  2  1  0  0  0  0
  1  5  2  0  0  0  0
  2  6  2  0  0  0  0
  3  8  2  0  0  0  0
  3 17  1  0  0  0  0
  4  9  1  0  0  0  0
  4 17  2  0  0  0  0
  5 19  1  0  0  0  0
  6 21  1  0  0  0  0
  7 10  2  0  0  0  0
  7 20  1  0  0  0  0
  8 26  1  0  0  0  0
  9 26  2  0  0  0  0
 10 27  1  0  0  0  0
 11 12  2  0  0  0  0
 11 28  1  0  0  0  0
 12 29  1  0  0  0  0
 13 22  1  0  0  0  0
 13 27  2  0  0  0  0
 14 23  1  0  0  0  0
 14 24  2  0  0  0  0
 15 23  2  0  0  0  0
 15 25  1  0  0  0  0
 16 29  2  0  0  0  0
 16 30  1  0  0  0  0
 17 32  1  0  0  0  0
 18 32  1  0  0  0  0
 18 33  2  0  0  0  0
 18 34  1  0  0  0  0
 19 21  2  0  0  0  0
 19 39  1  0  0  0  0
 20 22  2  0  0  0  0
 20 40  1  0  0  0  0
 21 48  1  0  0  0  0
 22 41  1  0  0  0  0
 23 57  1  0  0  0  0
 24 31  1  0  0  0  0
 24 51  1  0  0  0  0
 25 31  2  0  0  0  0
 25 58  1  0  0  0  0
 26 80  1  0  0  0  0
 27 81  1  0  0  0  0
 28 30  2  0  0  0  0
 28 80  1  0  0  0  0
 29 82  1  0  0  0  0
 30 83  1  0  0  0  0
 31 84  1  0  0  0  0
 32 65  2  0  0  0  0
 33 66  1  0  0  0  0
 33 69  1  0  0  0  0
 34 70  1  0  0  0  0
 34 75  2  0  0  0  0
 35 49  1  0  0  0  0
 35 71  1  0  0  0  0
 35 76  2  0  0  0  0
 36 62  1  0  0  0  0
 36 67  1  0  0  0  0
 36 77  2  0  0  0  0
 37 63  1  0  0  0  0
 37 72  1  0  0  0  0
 37 78  2  0  0  0  0
 38 68  1  0  0  0  0
 38 73  1  0  0  0  0
 38 79  2  0  0  0  0
 39 42  1  0  0  0  0
 40 49  1  0  0  0  0
 41 67  1  0  0  0  0
 42 44  1  0  0  0  0
 43 45  1  0  0  0  0
 43 46  1  0  0  0  0
 44 48  1  0  0  0  0
 45 50  1  0  0  0  0
 46 68  1  0  0  0  0
 47 50  1  0  0  0  0
 47 68  1  0  0  0  0
 48 71  1  0  0  0  0
 49 67  1  0  0  0  0
 50 66  1  0  0  0  0
 52 63  1  0  0  0  0
 53 64  1  0  0  0  0
 54 64  1  0  0  0  0
 55 64  1  0  0  0  0
 56 74  1  0  0  0  0
 57 61  1  0  0  0  0
 58 59  1  0  0  0  0
 59 60  1  0  0  0  0
 60 73  1  0  0  0  0
 61 81  1  0  0  0  0
 62 64  1  0  0  0  0
 62 72  1  0  0  0  0
 63 74  1  0  0  0  0
 65 66  1  0  0  0  0
M  CHG  1  74   1
M  ISO  4  38 100  61 101  73 100  81 101
M  END
> <Batch ID>
0034

> <Smiles>
CNC(C)C(=O)NC(C(=O)N1Cc2cc([101O:1][101CH2:1]Cc3cc(C)c(Cl)c(CCC[100NH:0][100C:0](=O)N4CCCC(n5nc(-c6ccc(Oc7ccc(F)cc7F)cc6)c(C(N)=O)c5N)C4)c3)ccc2CC1C(=O)NC1CCCc2ccccc21)C(C)(C)C

> <Shape>
0.196

> <Color>
0.077

> <Negative vol penalty>
0.000

$$$$

  -OEChem-04052316503D

 87 96  0     1  0  0  0  0  0999 V2000
  -21.0038  -34.5542   24.1338 C   0  0  0  0  0  0  0  0  0  0  0  0
  -22.2189  -34.0374   23.6958 C   0  0  0  0  0  0  0  0  0  0  0  0
  -25.8295  -12.6964   22.2868 C   0  0  0  0  0  0  0  0  0  0  0  0
  -26.3516  -13.3803   20.0292 C   0  0  0  0  0  0  0  0  0  0  0  0
  -19.9915  -33.6922   24.5532 C   0  0  0  0  0  0  0  0  0  0  0  0
  -22.4227  -32.6580   23.6781 C   0  0  0  0  0  0  0  0  0  0  0  0
  -25.7055  -29.4738   19.6050 C   0  0  0  0  0  0  0  0  0  0  0  0
  -24.7029  -12.0188   21.8210 C   0  0  0  0  0  0  0  0  0  0  0  0
  -25.2249  -12.7026   19.5634 C   0  0  0  0  0  0  0  0  0  0  0  0
  -27.0055  -28.9710   19.6355 C   0  0  0  0  0  0  0  0  0  0  0  0
  -24.0175   -9.0812   20.2933 C   0  0  0  0  0  0  0  0  0  0  0  0
  -23.7854   -7.7961   20.7833 C   0  0  0  0  0  0  0  0  0  0  0  0
  -29.8298  -25.3674   16.7713 C   0  0  0  0  0  0  0  0  0  0  0  0
  -26.1544  -26.8302   20.3508 C   0  0  0  0  0  0  0  0  0  0  0  0
  -29.5627  -24.3752   18.9453 C   0  0  0  0  0  0  0  0  0  0  0  0
  -21.6578   -8.5189   21.6710 C   0  0  0  0  0  0  0  0  0  0  0  0
  -26.6539  -13.3773   21.3909 C   0  0  0  0  0  0  0  0  0  0  0  0
  -29.1199  -13.5636   22.0167 C   0  0  0  0  0  0  0  0  0  0  0  0
  -20.1796  -32.3012   24.5315 C   0  0  0  0  0  0  0  0  0  0  0  0
  -24.6193  -28.6603   19.9583 C   0  0  0  0  0  0  0  0  0  0  0  0
  -21.4125  -31.7766   24.0989 C   0  0  0  0  0  0  0  0  0  0  0  0
  -29.3019  -24.2165   16.1592 C   0  0  0  0  0  0  0  0  0  0  0  0
  -24.8413  -27.3243   20.3215 C   0  0  0  0  0  0  0  0  0  0  0  0
  -28.9226  -23.1111   16.9510 C   0  0  0  0  0  0  0  0  0  0  0  0
  -29.9580  -25.4466   18.1554 C   0  0  0  0  0  0  0  0  0  0  0  0
  -29.0485  -23.2221   18.3501 C   0  0  0  0  0  0  0  0  0  0  0  0
  -24.4005  -12.0218   20.4593 C   0  0  0  0  0  0  0  0  0  0  0  0
  -27.2304  -27.6499   20.0112 C   0  0  0  0  0  0  0  0  0  0  0  0
  -23.0698  -10.0853   20.4922 C   0  0  0  0  0  0  0  0  0  0  0  0
  -22.6055   -7.5149   21.4721 C   0  0  0  0  0  0  0  0  0  0  0  0
  -21.8899   -9.8041   21.1811 C   0  0  0  0  0  0  0  0  0  0  0  0
  -27.8176  -14.0780   21.8715 C   0  0  0  0  0  0  0  0  0  0  0  0
  -29.8530  -14.6177   22.5046 C   0  0  0  0  0  0  0  0  0  0  0  0
  -29.6222  -12.2504   21.7355 C   0  0  0  0  0  0  0  0  0  0  0  0
  -22.4000  -28.7445   22.2324 C   0  0  0  0  0  0  0  0  0  0  0  0
  -21.1935  -26.2104   20.6060 C   0  0  0  0  0  0  0  0  0  0  0  0
  -21.7503  -23.6068   18.4710 C   0  0  0  0  0  0  0  0  0  0  0  0
  -29.1764  -20.5573   22.1674 C   0  0  0  0  0  0  0  0  0  0  0  0
  -19.0730  -31.4110   25.0392 C   0  0  0  0  0  0  0  0  0  0  0  0
  -23.2206  -29.2100   19.8945 C   0  0  0  0  0  0  0  0  0  0  0  0
  -29.2128  -24.1986   14.6543 C   0  0  0  0  0  0  0  0  0  0  0  0
  -23.7076  -26.4039   20.6902 C   0  0  0  0  0  0  0  0  0  0  0  0
  -19.2349  -29.9477   24.6358 C   0  0  0  0  0  0  0  0  0  0  0  0
  -28.2668  -23.1316   14.1229 C   0  0  0  0  0  0  0  0  0  0  0  0
  -29.4057  -18.5934   25.1283 C   0  0  0  0  0  0  0  0  0  0  0  0
  -20.6657  -29.4806   24.8842 C   0  0  0  0  0  0  0  0  0  0  0  0
  -29.1422  -17.1670   24.6425 C   0  0  0  0  0  0  0  0  0  0  0  0
  -28.5687  -21.7979   14.7905 C   0  0  0  0  0  0  0  0  0  0  0  0
  -28.5568  -19.6130   24.3722 C   0  0  0  0  0  0  0  0  0  0  0  0
  -28.4073  -18.1196   22.4174 C   0  0  0  0  0  0  0  0  0  0  0  0
  -21.6628  -30.2852   24.0416 C   0  0  1  0  0  0  0  0  0  0  0  0
  -22.2359  -28.4411   20.7700 C   0  0  1  0  0  0  0  0  0  0  0  0
  -29.2813  -17.0613   23.1119 C   0  0  2  0  0  0  0  0  0  0  0  0
  -28.3392  -21.8386   16.3240 C   0  0  0  0  0  0  0  0  0  0  0  0
  -28.9939  -20.5651   16.9063 C   0  0  0  0  0  0  0  0  0  0  0  0
  -26.8249  -21.7887   16.6230 C   0  0  0  0  0  0  0  0  0  0  0  0
  -20.5785  -21.6879   17.3566 C   0  0  0  0  0  0  0  0  0  0  0  0
  -21.2251  -24.6661   23.2374 C   0  0  0  0  0  0  0  0  0  0  0  0
  -20.9695  -22.5527   21.9196 C   0  0  0  0  0  0  0  0  0  0  0  0
  -19.1876  -24.2963   21.8352 C   0  0  0  0  0  0  0  0  0  0  0  0
  -22.3427  -24.6624   15.7703 C   0  0  0  0  0  0  0  0  0  0  0  0
  -30.5126  -26.6785   18.7860 C   0  0  0  0  0  0  0  0  0  0  0  0
  -28.6144  -22.1650   19.3157 C   0  0  0  0  0  0  0  0  0  0  0  0
  -29.7773  -21.3541   19.8951 C   0  0  0  0  0  0  0  0  0  0  0  0
  -29.4358  -27.7146   19.1236 C   0  0  0  0  0  0  0  0  0  1  0  0
  -21.3873  -24.7143   20.6611 C   0  0  1  0  0  0  0  0  0  0  0  0
  -21.0049  -23.1424   17.2328 C   0  0  2  0  0  0  0  0  0  0  0  0
  -20.7141  -24.0750   21.9083 C   0  0  0  0  0  0  0  0  0  0  0  0
  -27.7254  -15.3591   22.2378 N   0  0  0  0  0  0  0  0  0  0  0  0
  -28.9791  -15.6586   22.6179 N   0  0  0  0  0  0  0  0  0  0  0  0
  -22.3589  -26.9898   20.6185 N   0  0  0  0  0  0  0  0  0  0  0  0
  -28.7356  -19.4605   22.9262 N   0  0  0  0  0  0  0  0  0  0  0  0
  -31.1534  -14.7463   22.8435 N   0  0  0  0  0  0  0  0  0  0  0  0
  -28.7333  -11.2873   21.2390 N   0  0  0  0  0  0  0  0  0  0  0  0
  -21.6547  -29.8225   22.6704 N   0  0  0  0  0  0  0  0  0  0  0  0
  -20.9030  -24.1928   19.3875 N   0  0  0  0  0  0  0  0  0  0  0  0
  -29.3256  -20.3255   20.8055 N   0  0  0  0  0  0  0  0  0  0  0  0
  -21.8696  -23.2776   16.0266 N   0  3  0  0  0  0  0  0  0  0  0  0
  -30.8200  -11.9357   21.9346 O   0  0  0  0  0  0  0  0  0  0  0  0
  -23.1464  -28.0509   22.9133 O   0  0  0  0  0  0  0  0  0  0  0  0
  -20.0504  -26.6703   20.5467 O   0  0  0  0  0  0  0  0  0  0  0  0
  -22.9624  -23.4608   18.6128 O   0  0  0  0  0  0  0  0  0  0  0  0
  -29.4241  -21.6599   22.6674 O   0  0  0  0  0  0  0  0  0  0  0  0
  -23.3014  -11.3605   20.0044 O   0  0  0  0  0  0  0  0  0  0  0  0
  -28.5073  -27.1534   20.0427 O   0  0  0  0  0  0  0  0  0  1  0  0
  -22.3821   -6.2803   21.9413 F   0  0  0  0  0  0  0  0  0  0  0  0
  -20.9752  -10.7642   21.3742 F   0  0  0  0  0  0  0  0  0  0  0  0
  1  2  1  0  0  0  0
  1  5  2  0  0  0  0
  2  6  2  0  0  0  0
  3  8  2  0  0  0  0
  3 17  1  0  0  0  0
  4  9  1  0  0  0  0
  4 17  2  0  0  0  0
  5 19  1  0  0  0  0
  6 21  1  0  0  0  0
  7 10  2  0  0  0  0
  7 20  1  0  0  0  0
  8 27  1  0  0  0  0
  9 27  2  0  0  0  0
 10 28  1  0  0  0  0
 11 12  2  0  0  0  0
 11 29  1  0  0  0  0
 12 30  1  0  0  0  0
 13 22  2  0  0  0  0
 13 25  1  0  0  0  0
 14 23  1  0  0  0  0
 14 28  2  0  0  0  0
 15 25  2  0  0  0  0
 15 26  1  0  0  0  0
 16 30  2  0  0  0  0
 16 31  1  0  0  0  0
 17 32  1  0  0  0  0
 18 32  1  0  0  0  0
 18 33  2  0  0  0  0
 18 34  1  0  0  0  0
 19 21  2  0  0  0  0
 19 39  1  0  0  0  0
 20 23  2  0  0  0  0
 20 40  1  0  0  0  0
 21 51  1  0  0  0  0
 22 24  1  0  0  0  0
 22 41  1  0  0  0  0
 23 42  1  0  0  0  0
 24 26  2  0  0  0  0
 24 54  1  0  0  0  0
 25 62  1  0  0  0  0
 26 63  1  0  0  0  0
 27 84  1  0  0  0  0
 28 85  1  0  0  0  0
 29 31  2  0  0  0  0
 29 84  1  0  0  0  0
 30 86  1  0  0  0  0
 31 87  1  0  0  0  0
 32 69  2  0  0  0  0
 33 70  1  0  0  0  0
 33 73  1  0  0  0  0
 34 74  1  0  0  0  0
 34 79  2  0  0  0  0
 35 52  1  0  0  0  0
 35 75  1  0  0  0  0
 35 80  2  0  0  0  0
 36 66  1  0  0  0  0
 36 71  1  0  0  0  0
 36 81  2  0  0  0  0
 37 67  1  0  0  0  0
 37 76  1  0  0  0  0
 37 82  2  0  0  0  0
 38 72  1  0  0  0  0
 38 77  1  0  0  0  0
 38 83  2  0  0  0  0
 39 43  1  0  0  0  0
 40 52  1  0  0  0  0
 41 44  1  0  0  0  0
 42 71  1  0  0  0  0
 43 46  1  0  0  0  0
 44 48  1  0  0  0  0
 45 47  1  0  0  0  0
 45 49  1  0  0  0  0
 46 51  1  0  0  0  0
 47 53  1  0  0  0  0
 48 54  1  0  0  0  0
 49 72  1  0  0  0  0
 50 53  1  0  0  0  0
 50 72  1  0  0  0  0
 51 75  1  0  0  0  0
 52 71  1  0  0  0  0
 53 70  1  0  0  0  0
 54 55  1  0  0  0  0
 54 56  1  0  0  0  0
 57 67  1  0  0  0  0
 58 68  1  0  0  0  0
 59 68  1  0  0  0  0
 60 68  1  0  0  0  0
 61 78  1  0  0  0  0
 62 65  1  0  0  0  0
 63 64  1  0  0  0  0
 64 77  1  0  0  0  0
 65 85  1  0  0  0  0
 66 68  1  0  0  0  0
 66 76  1  0  0  0  0
 67 78  1  0  0  0  0
 69 70  1  0  0  0  0
M  CHG  1  78   1
M  ISO  4  38 100  65 101  77 100  85 101
M  END
> <Batch ID>
0034

> <Smiles>
CNC(C)C(=O)NC(C(=O)N1Cc2cc([101O:1][101CH2:1]Cc3cc4c(c(CC[100NH:0][100C:0](=O)N5CCCC(n6nc(-c7ccc(Oc8ccc(F)cc8F)cc7)c(C(N)=O)c6N)C5)c3)C(C)(C)CCC4)ccc2CC1C(=O)NC1CCCc2ccccc21)C(C)(C)C

> <Shape>
0.236

> <Color>
0.087

> <Negative vol penalty>
0.000

$$$$

  -OEChem-04052316503D

 83 91  0     1  0  0  0  0  0999 V2000
  -32.6347  -30.0237   20.5586 C   0  0  0  0  0  0  0  0  0  0  0  0
  -32.1915  -29.0366   21.4331 C   0  0  0  0  0  0  0  0  0  0  0  0
  -23.3052   -9.7434   19.9707 C   0  0  0  0  0  0  0  0  0  0  0  0
  -23.7514   -9.9628   22.3350 C   0  0  0  0  0  0  0  0  0  0  0  0
  -32.3829  -29.9072   19.1923 C   0  0  0  0  0  0  0  0  0  0  0  0
  -31.4952  -27.9329   20.9418 C   0  0  0  0  0  0  0  0  0  0  0  0
  -31.7261  -22.1922   23.0624 C   0  0  0  0  0  0  0  0  0  0  0  0
  -22.5962   -8.5670   20.2137 C   0  0  0  0  0  0  0  0  0  0  0  0
  -23.0422   -8.7864   22.5780 C   0  0  0  0  0  0  0  0  0  0  0  0
  -30.8895  -21.4727   23.9145 C   0  0  0  0  0  0  0  0  0  0  0  0
  -20.9736   -5.3129   20.1728 C   0  0  0  0  0  0  0  0  0  0  0  0
  -21.2152   -4.2236   19.3358 C   0  0  0  0  0  0  0  0  0  0  0  0
  -29.7638  -20.5276   22.0017 C   0  0  0  0  0  0  0  0  0  0  0  0
  -31.7959  -17.5258   24.5315 C   0  0  0  0  0  0  0  0  0  0  0  0
  -32.7534  -15.5274   23.5689 C   0  0  0  0  0  0  0  0  0  0  0  0
  -23.5380   -4.2281   20.0004 C   0  0  0  0  0  0  0  0  0  0  0  0
  -23.8829  -10.4412   21.0314 C   0  0  0  0  0  0  0  0  0  0  0  0
  -24.1048  -12.9676   20.7560 C   0  0  0  0  0  0  0  0  0  0  0  0
  -31.6915  -28.7967   18.6828 C   0  0  0  0  0  0  0  0  0  0  0  0
  -31.5804  -22.0930   21.6712 C   0  0  0  0  0  0  0  0  0  0  0  0
  -31.2327  -27.8021   19.5675 C   0  0  0  0  0  0  0  0  0  0  0  0
  -30.6015  -21.2449   21.1340 C   0  0  0  0  0  0  0  0  0  0  0  0
  -30.7046  -16.7847   24.9846 C   0  0  0  0  0  0  0  0  0  0  0  0
  -31.6621  -14.7863   24.0220 C   0  0  0  0  0  0  0  0  0  0  0  0
  -22.4646   -8.0886   21.5173 C   0  0  0  0  0  0  0  0  0  0  0  0
  -29.9063  -20.6425   23.3843 C   0  0  0  0  0  0  0  0  0  0  0  0
  -22.0142   -5.8599   20.9236 C   0  0  0  0  0  0  0  0  0  0  0  0
  -22.4974   -3.6812   19.2496 C   0  0  0  0  0  0  0  0  0  0  0  0
  -23.2964   -5.3175   20.8374 C   0  0  0  0  0  0  0  0  0  0  0  0
  -32.8203  -16.8972   23.8235 C   0  0  0  0  0  0  0  0  0  0  0  0
  -30.6377  -15.4149   24.7299 C   0  0  0  0  0  0  0  0  0  0  0  0
  -24.6160  -11.6561   20.7810 C   0  0  0  0  0  0  0  0  0  0  0  0
  -25.1949  -13.7557   20.4780 C   0  0  0  0  0  0  0  0  0  0  0  0
  -22.7646  -13.4319   20.9654 C   0  0  0  0  0  0  0  0  0  0  0  0
  -30.8677  -24.1322   19.3394 C   0  0  0  0  0  0  0  0  0  0  0  0
  -31.5327  -21.5879   17.4403 C   0  0  0  0  0  0  0  0  0  0  0  0
  -31.7615  -18.1987   17.1125 C   0  0  0  0  0  0  0  0  0  0  0  0
  -31.0769  -13.0255   21.3265 C   0  0  0  0  0  0  0  0  0  0  0  0
  -31.4017  -28.7379   17.2039 C   0  0  0  0  0  0  0  0  0  0  0  0
  -32.5083  -22.8551   20.7653 C   0  0  0  0  0  0  0  0  0  0  0  0
  -30.4175  -21.0878   19.6474 C   0  0  0  0  0  0  0  0  0  0  0  0
  -30.9842  -27.3517   16.7196 C   0  0  0  0  0  0  0  0  0  0  0  0
  -29.4204  -13.6466   18.2367 C   0  0  0  0  0  0  0  0  0  0  0  0
  -29.9364  -26.7534   17.6529 C   0  0  0  0  0  0  0  0  0  0  0  0
  -27.9551  -13.3252   18.5361 C   0  0  0  0  0  0  0  0  0  0  0  0
  -30.3674  -12.7032   18.9751 C   0  0  0  0  0  0  0  0  0  0  0  0
  -28.6855  -12.3021   20.7312 C   0  0  0  0  0  0  0  0  0  0  0  0
  -30.4957  -26.5776   19.0698 C   0  0  1  0  0  0  0  0  0  0  0  0
  -31.9340  -23.0740   19.3690 C   0  0  1  0  0  0  0  0  0  0  0  0
  -27.6935  -13.2624   20.0530 C   0  0  2  0  0  0  0  0  0  0  0  0
  -32.2915  -16.4136   15.4302 C   0  0  0  0  0  0  0  0  0  0  0  0
  -28.7972  -21.9940   16.1512 C   0  0  0  0  0  0  0  0  0  0  0  0
  -28.9826  -19.6874   15.1955 C   0  0  0  0  0  0  0  0  0  0  0  0
  -30.6345  -21.4406   14.5473 C   0  0  0  0  0  0  0  0  0  0  0  0
  -34.0494  -17.2109   18.7089 C   0  0  0  0  0  0  0  0  0  0  0  0
  -29.6213  -17.5058   25.7462 C   0  0  0  0  0  0  0  0  0  0  0  0
  -31.6330  -13.3208   23.7271 C   0  0  0  0  0  0  0  0  0  0  0  0
  -28.3584  -17.7666   24.9224 C   0  0  0  0  0  0  0  0  0  0  0  0
  -28.5934  -18.6904   23.7329 C   0  0  0  0  0  0  0  0  0  1  0  0
  -30.7325  -20.4428   16.8682 C   0  0  1  0  0  0  0  0  0  0  0  0
  -32.8456  -17.3146   16.5229 C   0  0  2  0  0  0  0  0  0  0  0  0
  -29.7886  -20.8954   15.7186 C   0  0  0  0  0  0  0  0  0  0  0  0
  -25.9286  -11.6096   20.5382 N   0  0  0  0  0  0  0  0  0  0  0  0
  -26.2514  -12.9016   20.3578 N   0  0  0  0  0  0  0  0  0  0  0  0
  -31.3451  -21.8586   18.8032 N   0  0  0  0  0  0  0  0  0  0  0  0
  -30.0674  -12.6910   20.4089 N   0  0  0  0  0  0  0  0  0  0  0  0
  -25.3430  -15.0890   20.3271 N   0  0  0  0  0  0  0  0  0  0  0  0
  -21.7658  -12.4880   21.2406 N   0  0  0  0  0  0  0  0  0  0  0  0
  -31.3497  -25.4110   19.1350 N   0  0  0  0  0  0  0  0  0  0  0  0
  -31.7003  -19.4224   16.4800 N   0  0  0  0  0  0  0  0  0  0  0  0
  -30.7068  -12.9953   22.6655 N   0  0  0  0  0  0  0  0  0  0  0  0
  -33.4455  -16.4546   17.5819 N   0  3  0  0  0  0  0  0  0  0  0  0
  -22.4586  -14.6463   20.8937 O   0  0  0  0  0  0  0  0  0  0  0  0
  -29.6944  -23.8120   19.4893 O   0  0  0  0  0  0  0  0  0  0  0  0
  -32.3014  -22.2145   16.7067 O   0  0  0  0  0  0  0  0  0  0  0  0
  -31.0386  -17.8382   18.0388 O   0  0  0  0  0  0  0  0  0  0  0  0
  -32.2216  -13.3339   20.9780 O   0  0  0  0  0  0  0  0  0  0  0  0
  -21.7726   -6.9409   21.7547 O   0  0  0  0  0  0  0  0  0  0  0  0
  -29.0879  -19.9396   24.2138 O   0  0  0  0  0  0  0  0  0  1  0  0
  -22.7290   -2.6342   18.4469 F   0  0  0  0  0  0  0  0  0  0  0  0
  -24.2999   -5.8379   21.5572 F   0  0  0  0  0  0  0  0  0  0  0  0
  -34.1667  -17.8114   23.2636 Cl  0  0  0  0  0  0  0  0  0  0  0  0
  -29.2820  -14.4952   25.2912 Cl  0  0  0  0  0  0  0  0  0  0  0  0
  1  2  1  0  0  0  0
  1  5  2  0  0  0  0
  2  6  2  0  0  0  0
  3  8  2  0  0  0  0
  3 17  1  0  0  0  0
  4  9  1  0  0  0  0
  4 17  2  0  0  0  0
  5 19  1  0  0  0  0
  6 21  1  0  0  0  0
  7 10  2  0  0  0  0
  7 20  1  0  0  0  0
  8 25  1  0  0  0  0
  9 25  2  0  0  0  0
 10 26  1  0  0  0  0
 11 12  2  0  0  0  0
 11 27  1  0  0  0  0
 12 28  1  0  0  0  0
 13 22  1  0  0  0  0
 13 26  2  0  0  0  0
 14 23  1  0  0  0  0
 14 30  2  0  0  0  0
 15 24  2  0  0  0  0
 15 30  1  0  0  0  0
 16 28  2  0  0  0  0
 16 29  1  0  0  0  0
 17 32  1  0  0  0  0
 18 32  1  0  0  0  0
 18 33  2  0  0  0  0
 18 34  1  0  0  0  0
 19 21  2  0  0  0  0
 19 39  1  0  0  0  0
 20 22  2  0  0  0  0
 20 40  1  0  0  0  0
 21 48  1  0  0  0  0
 22 41  1  0  0  0  0
 23 31  2  0  0  0  0
 23 56  1  0  0  0  0
 24 31  1  0  0  0  0
 24 57  1  0  0  0  0
 25 78  1  0  0  0  0
 26 79  1  0  0  0  0
 27 29  2  0  0  0  0
 27 78  1  0  0  0  0
 28 80  1  0  0  0  0
 29 81  1  0  0  0  0
 30 82  1  0  0  0  0
 31 83  1  0  0  0  0
 32 63  2  0  0  0  0
 33 64  1  0  0  0  0
 33 67  1  0  0  0  0
 34 68  1  0  0  0  0
 34 73  2  0  0  0  0
 35 49  1  0  0  0  0
 35 69  1  0  0  0  0
 35 74  2  0  0  0  0
 36 60  1  0  0  0  0
 36 65  1  0  0  0  0
 36 75  2  0  0  0  0
 37 61  1  0  0  0  0
 37 70  1  0  0  0  0
 37 76  2  0  0  0  0
 38 66  1  0  0  0  0
 38 71  1  0  0  0  0
 38 77  2  0  0  0  0
 39 42  1  0  0  0  0
 40 49  1  0  0  0  0
 41 65  1  0  0  0  0
 42 44  1  0  0  0  0
 43 45  1  0  0  0  0
 43 46  1  0  0  0  0
 44 48  1  0  0  0  0
 45 50  1  0  0  0  0
 46 66  1  0  0  0  0
 47 50  1  0  0  0  0
 47 66  1  0  0  0  0
 48 69  1  0  0  0  0
 49 65  1  0  0  0  0
 50 64  1  0  0  0  0
 51 61  1  0  0  0  0
 52 62  1  0  0  0  0
 53 62  1  0  0  0  0
 54 62  1  0  0  0  0
 55 72  1  0  0  0  0
 56 58  1  0  0  0  0
 57 71  1  0  0  0  0
 58 59  1  0  0  0  0
 59 79  1  0  0  0  0
 60 62  1  0  0  0  0
 60 70  1  0  0  0  0
 61 72  1  0  0  0  0
 63 64  1  0  0  0  0
M  CHG  1  72   1
M  ISO  4  38 100  59 101  71 100  79 101
M  END
> <Batch ID>
0034

> <Smiles>
CNC(C)C(=O)NC(C(=O)N1Cc2cc([101O:1][101CH2:1]CCc3cc(Cl)cc(C[100NH:0][100C:0](=O)N4CCCC(n5nc(-c6ccc(Oc7ccc(F)cc7F)cc6)c(C(N)=O)c5N)C4)c3Cl)ccc2CC1C(=O)NC1CCCc2ccccc21)C(C)(C)C

> <Shape>
0.184

> <Color>
0.186

> <Negative vol penalty>
0.000

$$$$

  -OEChem-04052316503D

 84 92  0     1  0  0  0  0  0999 V2000
  -19.7963  -21.5660   22.7773 C   0  0  0  0  0  0  0  0  0  0  0  0
  -20.9608  -22.0808   22.2166 C   0  0  0  0  0  0  0  0  0  0  0  0
  -24.5072  -13.5949   21.6540 C   0  0  0  0  0  0  0  0  0  0  0  0
  -26.2011  -13.6488   19.9321 C   0  0  0  0  0  0  0  0  0  0  0  0
  -18.6362  -22.3388   22.8040 C   0  0  0  0  0  0  0  0  0  0  0  0
  -20.9655  -23.3683   21.6813 C   0  0  0  0  0  0  0  0  0  0  0  0
  -25.0499  -26.0284   23.0547 C   0  0  0  0  0  0  0  0  0  0  0  0
  -23.9818  -12.4274   21.1006 C   0  0  0  0  0  0  0  0  0  0  0  0
  -25.6757  -12.4812   19.3787 C   0  0  0  0  0  0  0  0  0  0  0  0
  -26.2426  -25.7542   22.3868 C   0  0  0  0  0  0  0  0  0  0  0  0
  -24.7151   -9.1266   21.0900 C   0  0  0  0  0  0  0  0  0  0  0  0
  -24.3894   -8.0863   21.9602 C   0  0  0  0  0  0  0  0  0  0  0  0
  -25.9028  -27.6955   20.9957 C   0  0  0  0  0  0  0  0  0  0  0  0
  -31.4982  -22.1694   19.0958 C   0  0  0  0  0  0  0  0  0  0  0  0
  -29.2764  -23.7575   18.5264 C   0  0  0  0  0  0  0  0  0  0  0  0
  -22.0906   -8.1903   21.2241 C   0  0  0  0  0  0  0  0  0  0  0  0
  -25.6169  -14.2057   21.0697 C   0  0  0  0  0  0  0  0  0  0  0  0
  -27.1594  -15.5109   22.6268 C   0  0  0  0  0  0  0  0  0  0  0  0
  -18.6292  -23.6401   22.2775 C   0  0  0  0  0  0  0  0  0  0  0  0
  -24.2680  -27.1339   22.6903 C   0  0  0  0  0  0  0  0  0  0  0  0
  -19.8038  -24.1588   21.6998 C   0  0  0  0  0  0  0  0  0  0  0  0
  -24.7020  -27.9830   21.6623 C   0  0  0  0  0  0  0  0  0  0  0  0
  -30.3652  -21.6008   18.5139 C   0  0  0  0  0  0  0  0  0  0  0  0
  -31.5203  -23.5321   19.3931 C   0  0  0  0  0  0  0  0  0  0  0  0
  -30.4094  -24.3261   19.1084 C   0  0  0  0  0  0  0  0  0  0  0  0
  -29.2543  -22.3948   18.2292 C   0  0  0  0  0  0  0  0  0  0  0  0
  -24.5660  -11.8705   19.9630 C   0  0  0  0  0  0  0  0  0  0  0  0
  -26.6678  -26.5861   21.3552 C   0  0  0  0  0  0  0  0  0  0  0  0
  -23.7286   -9.6988   20.2869 C   0  0  0  0  0  0  0  0  0  0  0  0
  -23.0771   -7.6182   22.0273 C   0  0  0  0  0  0  0  0  0  0  0  0
  -22.4163   -9.2307   20.3539 C   0  0  0  0  0  0  0  0  0  0  0  0
  -26.1597  -15.4122   21.6405 C   0  0  0  0  0  0  0  0  0  0  0  0
  -27.3165  -16.8613   22.8224 C   0  0  0  0  0  0  0  0  0  0  0  0
  -27.8816  -14.4747   23.3053 C   0  0  0  0  0  0  0  0  0  0  0  0
  -21.3249  -27.5230   21.5544 C   0  0  0  0  0  0  0  0  0  0  0  0
  -21.9966  -30.6681   21.9777 C   0  0  0  0  0  0  0  0  0  0  0  0
  -24.3602  -33.1152   22.2470 C   0  0  0  0  0  0  0  0  0  0  0  0
  -26.2791  -21.6315   19.3553 C   0  0  0  0  0  0  0  0  0  0  0  0
  -17.3383  -24.4199   22.2865 C   0  0  0  0  0  0  0  0  0  0  0  0
  -22.9975  -27.4312   23.4385 C   0  0  0  0  0  0  0  0  0  0  0  0
  -23.9092  -29.1942   21.2463 C   0  0  0  0  0  0  0  0  0  0  0  0
  -17.5274  -25.9138   22.0358 C   0  0  0  0  0  0  0  0  0  0  0  0
  -24.9049  -20.9861   22.5758 C   0  0  0  0  0  0  0  0  0  0  0  0
  -18.4640  -26.1423   20.8536 C   0  0  0  0  0  0  0  0  0  0  0  0
  -25.1608  -19.4933   22.7903 C   0  0  0  0  0  0  0  0  0  0  0  0
  -24.5714  -21.2979   21.1185 C   0  0  0  0  0  0  0  0  0  0  0  0
  -25.8127  -19.3112   20.3529 C   0  0  0  0  0  0  0  0  0  0  0  0
  -19.8552  -25.5603   21.1314 C   0  0  1  0  0  0  0  0  0  0  0  0
  -22.0219  -28.2915   22.6412 C   0  0  1  0  0  0  0  0  0  0  0  0
  -26.2078  -18.9555   21.7964 C   0  0  2  0  0  0  0  0  0  0  0  0
  -30.3649  -20.1398   18.2039 C   0  0  0  0  0  0  0  0  0  0  0  0
  -33.9891  -23.9034   19.1614 C   0  0  0  0  0  0  0  0  0  0  0  0
  -24.6032  -35.5944   22.5503 C   0  0  0  0  0  0  0  0  0  0  0  0
  -21.2145  -31.0993   19.0601 C   0  0  0  0  0  0  0  0  0  0  0  0
  -22.3580  -33.3245   19.1549 C   0  0  0  0  0  0  0  0  0  0  0  0
  -20.3996  -32.8666   20.6307 C   0  0  0  0  0  0  0  0  0  0  0  0
  -25.8376  -32.7764   24.7890 C   0  0  0  0  0  0  0  0  0  0  0  0
  -32.7441  -24.1185   20.0167 C   0  0  0  0  0  0  0  0  0  0  0  0
  -30.4096  -25.8011   19.4214 C   0  0  0  0  0  0  0  0  0  0  0  0
  -28.0304  -21.8083   17.6058 C   0  0  0  0  0  0  0  0  0  0  0  0
  -30.2128  -26.1157   20.9060 C   0  0  0  0  0  0  0  0  0  0  0  0
  -28.8593  -25.6666   21.4441 C   0  0  0  0  0  0  0  0  0  1  0  0
  -22.6141  -31.7531   21.1288 C   0  0  1  0  0  0  0  0  0  0  0  0
  -24.5315  -34.2444   23.2470 C   0  0  2  0  0  0  0  0  0  0  0  0
  -21.6607  -32.2371   19.9999 C   0  0  0  0  0  0  0  0  0  0  0  0
  -25.7131  -16.6048   21.2378 N   0  0  0  0  0  0  0  0  0  0  0  0
  -26.4355  -17.4657   21.9747 N   0  0  0  0  0  0  0  0  0  0  0  0
  -22.6708  -29.4391   22.0039 N   0  0  0  0  0  0  0  0  0  0  0  0
  -25.6041  -20.7623   20.2282 N   0  0  0  0  0  0  0  0  0  0  0  0
  -28.1210  -17.5788   23.6351 N   0  0  0  0  0  0  0  0  0  0  0  0
  -27.5961  -13.1407   22.9837 N   0  0  0  0  0  0  0  0  0  0  0  0
  -20.6033  -26.4355   22.0083 N   0  0  0  0  0  0  0  0  0  0  0  0
  -23.0312  -32.8045   22.0502 N   0  0  0  0  0  0  0  0  0  0  0  0
  -27.2472  -21.0434   18.5504 N   0  0  0  0  0  0  0  0  0  0  0  0
  -25.7829  -34.0544   24.0335 N   0  3  0  0  0  0  0  0  0  0  0  0
  -28.7425  -14.7239   24.1829 O   0  0  0  0  0  0  0  0  0  0  0  0
  -21.4325  -27.8904   20.3903 O   0  0  0  0  0  0  0  0  0  0  0  0
  -20.9584  -30.9047   22.6003 O   0  0  0  0  0  0  0  0  0  0  0  0
  -25.3100  -32.5662   21.6930 O   0  0  0  0  0  0  0  0  0  0  0  0
  -26.0407  -22.8427   19.3013 O   0  0  0  0  0  0  0  0  0  0  0  0
  -24.0537  -10.7310   19.4228 O   0  0  0  0  0  0  0  0  0  0  0  0
  -27.8311  -26.3203   20.7011 O   0  0  0  0  0  0  0  0  0  1  0  0
  -22.7648   -6.6181   22.8619 F   0  0  0  0  0  0  0  0  0  0  0  0
  -21.4645   -9.7756   19.5839 F   0  0  0  0  0  0  0  0  0  0  0  0
  1  2  1  0  0  0  0
  1  5  2  0  0  0  0
  2  6  2  0  0  0  0
  3  8  2  0  0  0  0
  3 17  1  0  0  0  0
  4  9  1  0  0  0  0
  4 17  2  0  0  0  0
  5 19  1  0  0  0  0
  6 21  1  0  0  0  0
  7 10  2  0  0  0  0
  7 20  1  0  0  0  0
  8 27  1  0  0  0  0
  9 27  2  0  0  0  0
 10 28  1  0  0  0  0
 11 12  2  0  0  0  0
 11 29  1  0  0  0  0
 12 30  1  0  0  0  0
 13 22  1  0  0  0  0
 13 28  2  0  0  0  0
 14 23  2  0  0  0  0
 14 24  1  0  0  0  0
 15 25  1  0  0  0  0
 15 26  2  0  0  0  0
 16 30  2  0  0  0  0
 16 31  1  0  0  0  0
 17 32  1  0  0  0  0
 18 32  1  0  0  0  0
 18 33  2  0  0  0  0
 18 34  1  0  0  0  0
 19 21  2  0  0  0  0
 19 39  1  0  0  0  0
 20 22  2  0  0  0  0
 20 40  1  0  0  0  0
 21 48  1  0  0  0  0
 22 41  1  0  0  0  0
 23 26  1  0  0  0  0
 23 51  1  0  0  0  0
 24 25  2  0  0  0  0
 24 58  1  0  0  0  0
 25 59  1  0  0  0  0
 26 60  1  0  0  0  0
 27 81  1  0  0  0  0
 28 82  1  0  0  0  0
 29 31  2  0  0  0  0
 29 81  1  0  0  0  0
 30 83  1  0  0  0  0
 31 84  1  0  0  0  0
 32 66  2  0  0  0  0
 33 67  1  0  0  0  0
 33 70  1  0  0  0  0
 34 71  1  0  0  0  0
 34 76  2  0  0  0  0
 35 49  1  0  0  0  0
 35 72  1  0  0  0  0
 35 77  2  0  0  0  0
 36 63  1  0  0  0  0
 36 68  1  0  0  0  0
 36 78  2  0  0  0  0
 37 64  1  0  0  0  0
 37 73  1  0  0  0  0
 37 79  2  0  0  0  0
 38 69  1  0  0  0  0
 38 74  1  0  0  0  0
 38 80  2  0  0  0  0
 39 42  1  0  0  0  0
 40 49  1  0  0  0  0
 41 68  1  0  0  0  0
 42 44  1  0  0  0  0
 43 45  1  0  0  0  0
 43 46  1  0  0  0  0
 44 48  1  0  0  0  0
 45 50  1  0  0  0  0
 46 69  1  0  0  0  0
 47 50  1  0  0  0  0
 47 69  1  0  0  0  0
 48 72  1  0  0  0  0
 49 68  1  0  0  0  0
 50 67  1  0  0  0  0
 52 58  1  0  0  0  0
 53 64  1  0  0  0  0
 54 65  1  0  0  0  0
 55 65  1  0  0  0  0
 56 65  1  0  0  0  0
 57 75  1  0  0  0  0
 59 61  1  0  0  0  0
 60 74  1  0  0  0  0
 61 62  1  0  0  0  0
 62 82  1  0  0  0  0
 63 65  1  0  0  0  0
 63 73  1  0  0  0  0
 64 75  1  0  0  0  0
 66 67  1  0  0  0  0
M  CHG  1  75   1
M  ISO  4  38 100  62 101  74 100  82 101
M  END
> <Batch ID>
0034

> <Smiles>
CCc1cc(C)c(C[100NH:0][100C:0](=O)N2CCCC(n3nc(-c4ccc(Oc5ccc(F)cc5F)cc4)c(C(N)=O)c3N)C2)cc1CC[101CH2:1][101O:1]c1ccc2c(c1)CN(C(=O)C(NC(=O)C(C)NC)C(C)(C)C)C(C(=O)NC1CCCc3ccccc31)C2

> <Shape>
0.227

> <Color>
0.055

> <Negative vol penalty>
0.000

$$$$

  -OEChem-04052316503D

 88 97  0     1  0  0  0  0  0999 V2000
  -18.8759  -30.4120   24.6927 C   0  0  0  0  0  0  0  0  0  0  0  0
  -20.2460  -30.1917   24.5947 C   0  0  0  0  0  0  0  0  0  0  0  0
  -23.1893  -10.1776   21.9173 C   0  0  0  0  0  0  0  0  0  0  0  0
  -24.8322  -10.6248   23.6314 C   0  0  0  0  0  0  0  0  0  0  0  0
  -17.9887  -29.6046   23.9821 C   0  0  0  0  0  0  0  0  0  0  0  0
  -20.7297  -29.1631   23.7870 C   0  0  0  0  0  0  0  0  0  0  0  0
  -29.4346  -20.6805   21.2800 C   0  0  0  0  0  0  0  0  0  0  0  0
  -25.9122  -29.1717   20.5239 C   0  0  0  0  0  0  0  0  0  0  0  0
  -29.5864  -19.3035   21.4429 C   0  0  0  0  0  0  0  0  0  0  0  0
  -22.6767   -9.1297   22.6819 C   0  0  0  0  0  0  0  0  0  0  0  0
  -24.3195   -9.5769   24.3961 C   0  0  0  0  0  0  0  0  0  0  0  0
  -27.1774  -28.6408   20.7715 C   0  0  0  0  0  0  0  0  0  0  0  0
  -23.4872   -5.9216   23.3716 C   0  0  0  0  0  0  0  0  0  0  0  0
  -23.2106   -4.7198   22.7200 C   0  0  0  0  0  0  0  0  0  0  0  0
  -26.5946  -26.6749   19.5008 C   0  0  0  0  0  0  0  0  0  0  0  0
  -30.3910  -19.6586   23.6932 C   0  0  0  0  0  0  0  0  0  0  0  0
  -20.8905   -4.9020   23.3690 C   0  0  0  0  0  0  0  0  0  0  0  0
  -24.2671  -10.9252   22.3920 C   0  0  0  0  0  0  0  0  0  0  0  0
  -24.1125  -13.1581   21.1681 C   0  0  0  0  0  0  0  0  0  0  0  0
  -18.4622  -28.5717   23.1577 C   0  0  0  0  0  0  0  0  0  0  0  0
  -24.9734  -28.4521   19.7708 C   0  0  0  0  0  0  0  0  0  0  0  0
  -19.8479  -28.3403   23.0658 C   0  0  0  0  0  0  0  0  0  0  0  0
  -29.7611  -21.5465   22.3236 C   0  0  0  0  0  0  0  0  0  0  0  0
  -25.3191  -27.2000   19.2429 C   0  0  0  0  0  0  0  0  0  0  0  0
  -30.0646  -18.7925   22.6495 C   0  0  0  0  0  0  0  0  0  0  0  0
  -30.2392  -21.0355   23.5302 C   0  0  0  0  0  0  0  0  0  0  0  0
  -23.2418   -8.8294   23.9214 C   0  0  0  0  0  0  0  0  0  0  0  0
  -27.5178  -27.3910   20.2624 C   0  0  0  0  0  0  0  0  0  0  0  0
  -22.4655   -6.6136   24.0221 C   0  0  0  0  0  0  0  0  0  0  0  0
  -21.9122   -4.2100   22.7186 C   0  0  0  0  0  0  0  0  0  0  0  0
  -21.1672   -6.1038   24.0207 C   0  0  0  0  0  0  0  0  0  0  0  0
  -24.7975  -12.0074   21.6023 C   0  0  0  0  0  0  0  0  0  0  0  0
  -25.0498  -13.8684   20.4587 C   0  0  0  0  0  0  0  0  0  0  0  0
  -22.7507  -13.5498   21.3866 C   0  0  0  0  0  0  0  0  0  0  0  0
  -22.0925  -27.2380   20.3455 C   0  0  0  0  0  0  0  0  0  0  0  0
  -22.1653  -26.5788   17.1702 C   0  0  0  0  0  0  0  0  0  0  0  0
  -24.0333  -26.0178   14.3698 C   0  0  0  0  0  0  0  0  0  0  0  0
  -31.0325  -14.0326   20.6336 C   0  0  0  0  0  0  0  0  0  0  0  0
  -17.4625  -27.6949   22.4459 C   0  0  0  0  0  0  0  0  0  0  0  0
  -23.6222  -29.0504   19.4902 C   0  0  0  0  0  0  0  0  0  0  0  0
  -24.3544  -26.3962   18.4112 C   0  0  0  0  0  0  0  0  0  0  0  0
  -18.0732  -26.8656   21.3192 C   0  0  0  0  0  0  0  0  0  0  0  0
  -28.9933  -13.2668   17.8172 C   0  0  0  0  0  0  0  0  0  0  0  0
  -28.1159  -23.4180   21.8743 C   0  0  0  0  0  0  0  0  0  0  0  0
  -30.4925  -23.5764   20.9993 C   0  0  0  0  0  0  0  0  0  0  0  0
  -19.3654  -26.2020   21.7848 C   0  0  0  0  0  0  0  0  0  0  0  0
  -27.6249  -12.9610   18.4288 C   0  0  0  0  0  0  0  0  0  0  0  0
  -27.9515  -24.9234   21.6818 C   0  0  0  0  0  0  0  0  0  0  0  0
  -30.3159  -25.0810   20.8119 C   0  0  0  0  0  0  0  0  0  0  0  0
  -30.1320  -12.7673   18.7037 C   0  0  0  0  0  0  0  0  0  0  0  0
  -28.7132  -12.9322   20.7121 C   0  0  0  0  0  0  0  0  0  0  0  0
  -29.5872  -23.0409   22.1229 C   0  0  0  0  0  0  0  0  0  0  0  0
  -20.4123  -27.2503   22.1806 C   0  0  1  0  0  0  0  0  0  0  0  0
  -22.5663  -28.0052   19.1436 C   0  0  1  0  0  0  0  0  0  0  0  0
  -27.5342  -13.4667   19.8811 C   0  0  2  0  0  0  0  0  0  0  0  0
  -28.8549  -25.4520   20.5691 C   0  0  0  0  0  0  0  0  0  1  0  0
  -31.9401  -22.6324   24.4487 C   0  0  0  0  0  0  0  0  0  0  0  0
  -23.8115  -25.4682   11.9313 C   0  0  0  0  0  0  0  0  0  0  0  0
  -21.5203  -23.6832   17.8840 C   0  0  0  0  0  0  0  0  0  0  0  0
  -22.2418  -23.0272   15.5781 C   0  0  0  0  0  0  0  0  0  0  0  0
  -20.2995  -24.5619   15.8861 C   0  0  0  0  0  0  0  0  0  0  0  0
  -25.3702  -28.5318   13.5626 C   0  0  0  0  0  0  0  0  0  0  0  0
  -30.2272  -17.3204   22.8236 C   0  0  0  0  0  0  0  0  0  0  0  0
  -30.5956  -21.9433   24.6615 C   0  0  0  0  0  0  0  0  0  0  0  0
  -31.6109  -16.7783   22.4141 C   0  0  0  0  0  0  0  0  0  0  0  0
  -31.7908  -15.2789   22.6413 C   0  0  0  0  0  0  0  0  0  0  0  0
  -22.6371  -25.4165   16.3302 C   0  0  1  0  0  0  0  0  0  0  0  0
  -23.9329  -26.5790   12.9629 C   0  0  2  0  0  0  0  0  0  0  0  0
  -21.6924  -24.1862   16.4369 C   0  0  0  0  0  0  0  0  0  0  0  0
  -26.0715  -11.9840   21.2020 N   0  0  0  0  0  0  0  0  0  0  0  0
  -26.1945  -13.1287   20.5088 N   0  0  0  0  0  0  0  0  0  0  0  0
  -23.0434  -27.0211   18.1698 N   0  0  0  0  0  0  0  0  0  0  0  0
  -29.9878  -13.2840   20.0669 N   0  0  0  0  0  0  0  0  0  0  0  0
  -24.9981  -15.0474   19.8031 N   0  0  0  0  0  0  0  0  0  0  0  0
  -21.9242  -12.7032   22.1380 N   0  0  0  0  0  0  0  0  0  0  0  0
  -21.0257  -27.8223   21.0012 N   0  0  0  0  0  0  0  0  0  0  0  0
  -22.7972  -25.9312   14.9745 N   0  0  0  0  0  0  0  0  0  0  0  0
  -30.8119  -14.4900   21.9270 N   0  0  0  0  0  0  0  0  0  0  0  0
  -25.1415  -27.3893   12.6409 N   0  3  0  0  0  0  0  0  0  0  0  0
  -22.2762  -14.6111   20.9153 O   0  0  0  0  0  0  0  0  0  0  0  0
  -22.6524  -26.1926   20.6543 O   0  0  0  0  0  0  0  0  0  0  0  0
  -21.0615  -27.0804   16.9431 O   0  0  0  0  0  0  0  0  0  0  0  0
  -25.1011  -25.6858   14.8798 O   0  0  0  0  0  0  0  0  0  0  0  0
  -32.0818  -14.2799   20.0296 O   0  0  0  0  0  0  0  0  0  0  0  0
  -22.7417   -7.8071   24.6679 O   0  0  0  0  0  0  0  0  0  0  0  0
  -28.7518  -26.8703   20.5031 O   0  0  0  0  0  0  0  0  0  1  0  0
  -21.6464   -3.0567   22.0915 F   0  0  0  0  0  0  0  0  0  0  0  0
  -20.1813   -6.7647   24.6428 F   0  0  0  0  0  0  0  0  0  0  0  0
  1  2  1  0  0  0  0
  1  5  2  0  0  0  0
  2  6  2  0  0  0  0
  3 10  2  0  0  0  0
  3 18  1  0  0  0  0
  4 11  1  0  0  0  0
  4 18  2  0  0  0  0
  5 20  1  0  0  0  0
  6 22  1  0  0  0  0
  7  9  2  0  0  0  0
  7 23  1  0  0  0  0
  8 12  2  0  0  0  0
  8 21  1  0  0  0  0
  9 25  1  0  0  0  0
 10 27  1  0  0  0  0
 11 27  2  0  0  0  0
 12 28  1  0  0  0  0
 13 14  2  0  0  0  0
 13 29  1  0  0  0  0
 14 30  1  0  0  0  0
 15 24  1  0  0  0  0
 15 28  2  0  0  0  0
 16 25  2  0  0  0  0
 16 26  1  0  0  0  0
 17 30  2  0  0  0  0
 17 31  1  0  0  0  0
 18 32  1  0  0  0  0
 19 32  1  0  0  0  0
 19 33  2  0  0  0  0
 19 34  1  0  0  0  0
 20 22  2  0  0  0  0
 20 39  1  0  0  0  0
 21 24  2  0  0  0  0
 21 40  1  0  0  0  0
 22 53  1  0  0  0  0
 23 26  2  0  0  0  0
 23 52  1  0  0  0  0
 24 41  1  0  0  0  0
 25 63  1  0  0  0  0
 26 64  1  0  0  0  0
 27 85  1  0  0  0  0
 28 86  1  0  0  0  0
 29 31  2  0  0  0  0
 29 85  1  0  0  0  0
 30 87  1  0  0  0  0
 31 88  1  0  0  0  0
 32 70  2  0  0  0  0
 33 71  1  0  0  0  0
 33 74  1  0  0  0  0
 34 75  1  0  0  0  0
 34 80  2  0  0  0  0
 35 54  1  0  0  0  0
 35 76  1  0  0  0  0
 35 81  2  0  0  0  0
 36 67  1  0  0  0  0
 36 72  1  0  0  0  0
 36 82  2  0  0  0  0
 37 68  1  0  0  0  0
 37 77  1  0  0  0  0
 37 83  2  0  0  0  0
 38 73  1  0  0  0  0
 38 78  1  0  0  0  0
 38 84  2  0  0  0  0
 39 42  1  0  0  0  0
 40 54  1  0  0  0  0
 41 72  1  0  0  0  0
 42 46  1  0  0  0  0
 43 47  1  0  0  0  0
 43 50  1  0  0  0  0
 44 48  1  0  0  0  0
 44 52  1  0  0  0  0
 45 49  1  0  0  0  0
 45 52  1  0  0  0  0
 46 53  1  0  0  0  0
 47 55  1  0  0  0  0
 48 56  1  0  0  0  0
 49 56  1  0  0  0  0
 50 73  1  0  0  0  0
 51 55  1  0  0  0  0
 51 73  1  0  0  0  0
 53 76  1  0  0  0  0
 54 72  1  0  0  0  0
 55 71  1  0  0  0  0
 56 86  1  0  0  0  0
 57 64  1  0  0  0  0
 58 68  1  0  0  0  0
 59 69  1  0  0  0  0
 60 69  1  0  0  0  0
 61 69  1  0  0  0  0
 62 79  1  0  0  0  0
 63 65  1  0  0  0  0
 65 66  1  0  0  0  0
 66 78  1  0  0  0  0
 67 69  1  0  0  0  0
 67 77  1  0  0  0  0
 68 79  1  0  0  0  0
 70 71  1  0  0  0  0
M  CHG  1  79   1
M  ISO  4  38 100  56 101  78 100  86 101
M  END
> <Batch ID>
0034

> <Smiles>
CCc1cc(CCC[100NH:0][100C:0](=O)N2CCCC(n3nc(-c4ccc(Oc5ccc(F)cc5F)cc4)c(C(N)=O)c3N)C2)ccc1C1CC[101CH:1]([101O:1]c2ccc3c(c2)CN(C(=O)C(NC(=O)C(C)NC)C(C)(C)C)C(C(=O)NC2CCCc4ccccc42)C3)CC1

> <Shape>
0.312

> <Color>
0.195

> <Negative vol penalty>
0.000

$$$$

  -OEChem-04052316503D

 87 96  0     1  0  0  0  0  0999 V2000
  -27.6883  -23.4923   17.7841 C   0  0  0  0  0  0  0  0  0  0  0  0
  -26.6238  -24.3674   17.9687 C   0  0  0  0  0  0  0  0  0  0  0  0
  -26.9799  -15.3382   20.4879 C   0  0  0  0  0  0  0  0  0  0  0  0
  -24.6479  -15.2089   19.8697 C   0  0  0  0  0  0  0  0  0  0  0  0
  -28.7542  -23.4984   18.6814 C   0  0  0  0  0  0  0  0  0  0  0  0
  -26.6304  -25.2569   19.0437 C   0  0  0  0  0  0  0  0  0  0  0  0
  -23.0280  -28.6039   19.1971 C   0  0  0  0  0  0  0  0  0  0  0  0
  -27.0196  -13.9510   20.6282 C   0  0  0  0  0  0  0  0  0  0  0  0
  -24.6876  -13.8217   20.0099 C   0  0  0  0  0  0  0  0  0  0  0  0
  -21.7076  -28.2766   19.5023 C   0  0  0  0  0  0  0  0  0  0  0  0
  -25.7712  -11.1687   18.2189 C   0  0  0  0  0  0  0  0  0  0  0  0
  -25.1740  -10.4004   17.2196 C   0  0  0  0  0  0  0  0  0  0  0  0
  -22.0033  -29.1780   21.7203 C   0  0  0  0  0  0  0  0  0  0  0  0
  -23.6712   -9.4449   18.8523 C   0  0  0  0  0  0  0  0  0  0  0  0
  -25.7940  -15.9671   20.1086 C   0  0  0  0  0  0  0  0  0  0  0  0
  -26.0193  -18.1452   18.7999 C   0  0  0  0  0  0  0  0  0  0  0  0
  -28.7671  -24.3801   19.7747 C   0  0  0  0  0  0  0  0  0  0  0  0
  -23.8506  -29.2118   20.1563 C   0  0  0  0  0  0  0  0  0  0  0  0
  -27.7083  -25.2948   19.9466 C   0  0  0  0  0  0  0  0  0  0  0  0
  -23.3330  -29.5144   21.4238 C   0  0  0  0  0  0  0  0  0  0  0  0
  -25.8735  -13.1927   20.3892 C   0  0  0  0  0  0  0  0  0  0  0  0
  -21.1959  -28.5610   20.7650 C   0  0  0  0  0  0  0  0  0  0  0  0
  -25.3185  -11.0750   19.5350 C   0  0  0  0  0  0  0  0  0  0  0  0
  -24.1240   -9.5385   17.5363 C   0  0  0  0  0  0  0  0  0  0  0  0
  -24.2685  -10.2132   19.8516 C   0  0  0  0  0  0  0  0  0  0  0  0
  -25.7522  -17.4001   19.9641 C   0  0  0  0  0  0  0  0  0  0  0  0
  -25.8447  -19.4530   19.1817 C   0  0  0  0  0  0  0  0  0  0  0  0
  -18.4898  -25.5726   20.3250 C   0  0  0  0  0  0  0  0  0  0  0  0
  -19.7614  -21.3984   20.5839 C   0  0  0  0  0  0  0  0  0  0  0  0
  -18.9468  -24.3368   20.0516 C   0  0  0  0  0  0  0  0  0  0  0  0
  -19.7851  -22.4768   21.5491 C   0  0  0  0  0  0  0  0  0  0  0  0
  -19.3425  -22.5252   18.3435 C   0  0  0  0  0  0  0  0  0  0  0  0
  -19.3955  -23.7417   21.3132 C   0  0  0  0  0  0  0  0  0  0  0  0
  -19.5630  -21.4110   19.2610 C   0  0  0  0  0  0  0  0  0  0  0  0
  -19.0534  -23.8031   18.6894 C   0  0  0  0  0  0  0  0  0  0  0  0
  -18.7502  -25.7198   21.7516 C   0  0  0  0  0  0  0  0  0  0  0  0
  -26.3918  -17.6955   17.4905 C   0  0  0  0  0  0  0  0  0  0  0  0
  -26.5533  -28.4110   21.6253 C   0  0  0  0  0  0  0  0  0  0  0  0
  -26.3425  -31.4217   22.8143 C   0  0  0  0  0  0  0  0  0  0  0  0
  -24.3718  -34.0943   23.6016 C   0  0  0  0  0  0  0  0  0  0  0  0
  -22.6335  -22.0392   23.5235 C   0  0  0  0  0  0  0  0  0  0  0  0
  -29.9496  -24.3496   20.7107 C   0  0  0  0  0  0  0  0  0  0  0  0
  -25.2647  -29.5828   19.8026 C   0  0  0  0  0  0  0  0  0  0  0  0
  -24.1688  -30.1847   22.4824 C   0  0  0  0  0  0  0  0  0  0  0  0
  -29.6608  -25.0092   22.0552 C   0  0  0  0  0  0  0  0  0  0  0  0
  -26.1462  -22.3087   23.0086 C   0  0  0  0  0  0  0  0  0  0  0  0
  -29.0318  -26.3774   21.8384 C   0  0  0  0  0  0  0  0  0  0  0  0
  -26.4676  -21.1485   22.0649 C   0  0  0  0  0  0  0  0  0  0  0  0
  -25.0594  -21.9340   24.0138 C   0  0  0  0  0  0  0  0  0  0  0  0
  -24.1406  -20.2444   22.4728 C   0  0  0  0  0  0  0  0  0  0  0  0
  -27.6793  -26.2500   21.1260 C   0  0  1  0  0  0  0  0  0  0  0  0
  -26.1665  -29.7325   21.0240 C   0  0  1  0  0  0  0  0  0  0  0  0
  -25.1915  -20.5926   21.4048 C   0  0  2  0  0  0  0  0  0  0  0  0
  -19.4654  -22.0519   16.9022 C   0  0  0  0  0  0  0  0  0  0  0  0
  -24.4794  -36.3967   24.5941 C   0  0  0  0  0  0  0  0  0  0  0  0
  -26.6080  -30.2058   25.6001 C   0  0  0  0  0  0  0  0  0  0  0  0
  -25.7688  -32.3662   26.5470 C   0  0  0  0  0  0  0  0  0  0  0  0
  -27.9027  -32.3176   25.2559 C   0  0  0  0  0  0  0  0  0  0  0  0
  -23.3683  -35.3405   21.1118 C   0  0  0  0  0  0  0  0  0  0  0  0
  -20.2252  -22.0238   22.9243 C   0  0  0  0  0  0  0  0  0  0  0  0
  -18.4322  -26.9803   22.4843 C   0  0  0  0  0  0  0  0  0  0  0  0
  -19.6172  -27.9281   22.4272 C   0  0  0  0  0  0  0  0  0  1  0  0
  -25.7070  -32.0482   24.0319 C   0  0  1  0  0  0  0  0  0  0  0  0
  -24.5233  -35.5771   23.3138 C   0  0  2  0  0  0  0  0  0  0  0  0
  -26.4812  -31.7200   25.3397 C   0  0  0  0  0  0  0  0  0  0  0  0
  -25.4324  -18.1705   21.0073 N   0  0  0  0  0  0  0  0  0  0  0  0
  -19.2920  -24.6858   22.3161 N   0  0  0  0  0  0  0  0  0  0  0  0
  -25.4975  -19.4133   20.5000 N   0  0  0  0  0  0  0  0  0  0  0  0
  -25.5472  -30.5220   22.0904 N   0  0  0  0  0  0  0  0  0  0  0  0
  -23.8761  -21.4155   23.3233 N   0  0  0  0  0  0  0  0  0  0  0  0
  -25.9559  -20.6216   18.5150 N   0  0  0  0  0  0  0  0  0  0  0  0
  -26.5272  -16.3179   17.2706 N   0  0  0  0  0  0  0  0  0  0  0  0
  -27.2160  -27.5685   20.7533 N   0  0  0  0  0  0  0  0  0  0  0  0
  -25.5949  -33.4744   23.7457 N   0  0  0  0  0  0  0  0  0  0  0  0
  -21.5650  -21.4887   22.8264 N   0  0  0  0  0  0  0  0  0  0  0  0
  -23.4282  -36.0455   22.4181 N   0  3  0  0  0  0  0  0  0  0  0  0
  -26.6145  -18.4924   16.5477 O   0  0  0  0  0  0  0  0  0  0  0  0
  -26.2726  -28.1738   22.7943 O   0  0  0  0  0  0  0  0  0  0  0  0
  -27.4995  -31.7249   22.5124 O   0  0  0  0  0  0  0  0  0  0  0  0
  -23.2777  -33.5420   23.6935 O   0  0  0  0  0  0  0  0  0  0  0  0
  -22.4882  -23.0176   24.2641 O   0  0  0  0  0  0  0  0  0  0  0  0
  -25.9120  -11.8390   20.5258 O   0  0  0  0  0  0  0  0  0  0  0  0
  -19.9076  -28.2421   21.0658 O   0  0  0  0  0  0  0  0  0  1  0  0
  -23.5495   -8.8020   16.5762 F   0  0  0  0  0  0  0  0  0  0  0  0
  -23.8284  -10.1199   21.1139 F   0  0  0  0  0  0  0  0  0  0  0  0
  -19.5958  -20.1860   18.6726 F   0  0  0  0  0  0  0  0  0  0  0  0
  -18.8033  -24.9862   17.4006 Cl  0  0  0  0  0  0  0  0  0  0  0  0
  1  2  1  0  0  0  0
  1  5  2  0  0  0  0
  2  6  2  0  0  0  0
  3  8  2  0  0  0  0
  3 15  1  0  0  0  0
  4  9  1  0  0  0  0
  4 15  2  0  0  0  0
  5 17  1  0  0  0  0
  6 19  1  0  0  0  0
  7 10  2  0  0  0  0
  7 18  1  0  0  0  0
  8 21  1  0  0  0  0
  9 21  2  0  0  0  0
 10 22  1  0  0  0  0
 11 12  2  0  0  0  0
 11 23  1  0  0  0  0
 12 24  1  0  0  0  0
 13 20  1  0  0  0  0
 13 22  2  0  0  0  0
 14 24  2  0  0  0  0
 14 25  1  0  0  0  0
 15 26  1  0  0  0  0
 16 26  1  0  0  0  0
 16 27  2  0  0  0  0
 16 37  1  0  0  0  0
 17 19  2  0  0  0  0
 17 42  1  0  0  0  0
 18 20  2  0  0  0  0
 18 43  1  0  0  0  0
 19 51  1  0  0  0  0
 20 44  1  0  0  0  0
 21 82  1  0  0  0  0
 22 83  1  0  0  0  0
 23 25  2  0  0  0  0
 23 82  1  0  0  0  0
 24 84  1  0  0  0  0
 25 85  1  0  0  0  0
 26 66  2  0  0  0  0
 27 68  1  0  0  0  0
 27 71  1  0  0  0  0
 28 30  2  0  0  0  0
 28 36  1  0  0  0  0
 29 31  1  0  0  0  0
 29 34  2  0  0  0  0
 30 33  1  0  0  0  0
 30 35  1  0  0  0  0
 31 33  2  0  0  0  0
 31 60  1  0  0  0  0
 32 34  1  0  0  0  0
 32 35  2  0  0  0  0
 32 54  1  0  0  0  0
 33 67  1  0  0  0  0
 34 86  1  0  0  0  0
 35 87  1  0  0  0  0
 36 61  1  0  0  0  0
 36 67  2  0  0  0  0
 37 72  1  0  0  0  0
 37 77  2  0  0  0  0
 38 52  1  0  0  0  0
 38 73  1  0  0  0  0
 38 78  2  0  0  0  0
 39 63  1  0  0  0  0
 39 69  1  0  0  0  0
 39 79  2  0  0  0  0
 40 64  1  0  0  0  0
 40 74  1  0  0  0  0
 40 80  2  0  0  0  0
 41 70  1  0  0  0  0
 41 75  1  0  0  0  0
 41 81  2  0  0  0  0
 42 45  1  0  0  0  0
 43 52  1  0  0  0  0
 44 69  1  0  0  0  0
 45 47  1  0  0  0  0
 46 48  1  0  0  0  0
 46 49  1  0  0  0  0
 47 51  1  0  0  0  0
 48 53  1  0  0  0  0
 49 70  1  0  0  0  0
 50 53  1  0  0  0  0
 50 70  1  0  0  0  0
 51 73  1  0  0  0  0
 52 69  1  0  0  0  0
 53 68  1  0  0  0  0
 55 64  1  0  0  0  0
 56 65  1  0  0  0  0
 57 65  1  0  0  0  0
 58 65  1  0  0  0  0
 59 76  1  0  0  0  0
 60 75  1  0  0  0  0
 61 62  1  0  0  0  0
 62 83  1  0  0  0  0
 63 65  1  0  0  0  0
 63 74  1  0  0  0  0
 64 76  1  0  0  0  0
 66 68  1  0  0  0  0
M  CHG  1  76   1
M  ISO  4  41 100  62 101  75 100  83 101
M  END
> <Batch ID>
0034

> <Smiles>
CNC(C)C(=O)NC(C(=O)N1Cc2cc([101O:1][101CH2:1]Cc3cc4c(Cl)c(C)c(F)cc(C[100NH:0][100C:0](=O)N5CCCC(n6nc(-c7ccc(Oc8ccc(F)cc8F)cc7)c(C(N)=O)c6N)C5)c-4n3)ccc2CC1C(=O)NC1CCCc2ccccc21)C(C)(C)C

> <Shape>
0.233

> <Color>
0.067

> <Negative vol penalty>
0.000

$$$$

  -OEChem-04052316503D

 93101  0     1  0  0  0  0  0999 V2000
  -19.3670  -25.1691   24.2357 C   0  0  0  0  0  0  0  0  0  0  0  0
  -20.6950  -25.2423   23.8276 C   0  0  0  0  0  0  0  0  0  0  0  0
  -21.2777   -5.0312   22.3131 C   0  0  0  0  0  0  0  0  0  0  0  0
  -22.0460   -6.2879   24.2281 C   0  0  0  0  0  0  0  0  0  0  0  0
  -18.4622  -26.1533   23.8403 C   0  0  0  0  0  0  0  0  0  0  0  0
  -21.1186  -26.2993   23.0228 C   0  0  0  0  0  0  0  0  0  0  0  0
  -26.5885  -29.0512   23.1377 C   0  0  0  0  0  0  0  0  0  0  0  0
  -21.2399   -3.8725   23.0886 C   0  0  0  0  0  0  0  0  0  0  0  0
  -22.0082   -5.1292   25.0037 C   0  0  0  0  0  0  0  0  0  0  0  0
  -27.7305  -28.9016   22.3519 C   0  0  0  0  0  0  0  0  0  0  0  0
  -21.7688   -2.5745   27.5794 C   0  0  0  0  0  0  0  0  0  0  0  0
  -21.2025   -2.6626   28.8510 C   0  0  0  0  0  0  0  0  0  0  0  0
  -27.0266  -30.7609   20.9856 C   0  0  0  0  0  0  0  0  0  0  0  0
  -33.3149  -28.6301   18.2920 C   0  0  0  0  0  0  0  0  0  0  0  0
  -30.9943  -28.1054   18.6446 C   0  0  0  0  0  0  0  0  0  0  0  0
  -19.1080   -3.3611   27.8700 C   0  0  0  0  0  0  0  0  0  0  0  0
  -21.6808   -6.2389   22.8828 C   0  0  0  0  0  0  0  0  0  0  0  0
  -20.6807   -8.3652   21.8897 C   0  0  0  0  0  0  0  0  0  0  0  0
  -18.8771  -27.2281   23.0382 C   0  0  0  0  0  0  0  0  0  0  0  0
  -25.6500  -30.0515   22.8462 C   0  0  0  0  0  0  0  0  0  0  0  0
  -20.2181  -27.2982   22.6152 C   0  0  0  0  0  0  0  0  0  0  0  0
  -25.8748  -30.9227   21.7707 C   0  0  0  0  0  0  0  0  0  0  0  0
  -32.1079  -28.1334   17.8124 C   0  0  0  0  0  0  0  0  0  0  0  0
  -21.6051   -3.9214   24.4339 C   0  0  0  0  0  0  0  0  0  0  0  0
  -27.9482  -29.7547   21.2740 C   0  0  0  0  0  0  0  0  0  0  0  0
  -21.0047   -2.8797   26.4530 C   0  0  0  0  0  0  0  0  0  0  0  0
  -19.8722   -3.0559   28.9964 C   0  0  0  0  0  0  0  0  0  0  0  0
  -19.6743   -3.2730   26.5983 C   0  0  0  0  0  0  0  0  0  0  0  0
  -21.7206   -7.4361   22.0820 C   0  0  0  0  0  0  0  0  0  0  0  0
  -33.3556  -29.0831   19.6007 C   0  0  0  0  0  0  0  0  0  0  0  0
  -31.1390  -28.5817   19.9376 C   0  0  0  0  0  0  0  0  0  0  0  0
  -21.2175   -9.3133   21.0533 C   0  0  0  0  0  0  0  0  0  0  0  0
  -19.3485   -8.3709   22.4199 C   0  0  0  0  0  0  0  0  0  0  0  0
  -22.5810  -30.0756   22.0188 C   0  0  0  0  0  0  0  0  0  0  0  0
  -25.3712  -12.6884   19.7754 C   0  0  0  0  0  0  0  0  0  0  0  0
  -22.9216  -33.2854   22.3405 C   0  0  0  0  0  0  0  0  0  0  0  0
  -24.9990  -35.9929   22.3398 C   0  0  0  0  0  0  0  0  0  0  0  0
  -17.8520  -28.2426   22.5969 C   0  0  0  0  0  0  0  0  0  0  0  0
  -24.4366  -30.2168   23.7196 C   0  0  0  0  0  0  0  0  0  0  0  0
  -24.9080  -32.0256   21.4281 C   0  0  0  0  0  0  0  0  0  0  0  0
  -18.4648  -29.5308   22.0535 C   0  0  0  0  0  0  0  0  0  0  0  0
  -25.5153   -9.3243   18.4010 C   0  0  0  0  0  0  0  0  0  0  0  0
  -19.5899  -29.2148   21.0732 C   0  0  0  0  0  0  0  0  0  0  0  0
  -24.4687   -8.6026   19.2490 C   0  0  0  0  0  0  0  0  0  0  0  0
  -26.2663  -10.3768   19.2123 C   0  0  0  0  0  0  0  0  0  0  0  0
  -24.3273  -10.6559   20.7244 C   0  0  0  0  0  0  0  0  0  0  0  0
  -20.7214  -28.4426   21.7624 C   0  0  1  0  0  0  0  0  0  0  0  0
  -23.2912  -30.9421   23.0200 C   0  0  1  0  0  0  0  0  0  0  0  0
  -23.5263   -9.6069   19.9351 C   0  0  2  0  0  0  0  0  0  0  0  0
  -35.4901  -28.5418   20.7996 C   0  0  0  0  0  0  0  0  0  0  0  0
  -24.9813  -38.4895   22.5930 C   0  0  0  0  0  0  0  0  0  0  0  0
  -21.8006  -33.5614   19.5161 C   0  0  0  0  0  0  0  0  0  0  0  0
  -22.6807  -35.9048   19.4708 C   0  0  0  0  0  0  0  0  0  0  0  0
  -20.9501  -35.2565   21.1463 C   0  0  0  0  0  0  0  0  0  0  0  0
  -26.7578  -35.8805   24.7174 C   0  0  0  0  0  0  0  0  0  0  0  0
  -32.0074  -27.6308   16.4024 C   0  0  0  0  0  0  0  0  0  0  0  0
  -34.6336  -29.6244   20.1488 C   0  0  0  0  0  0  0  0  0  0  0  0
  -29.9650  -28.5648   20.8586 C   0  0  0  0  0  0  0  0  0  1  0  0
  -26.4635  -13.2766   18.9183 C   0  0  0  0  0  0  0  0  0  0  0  0
  -26.3864  -14.8000   18.9030 C   0  0  0  0  0  0  0  0  0  0  0  0
  -27.5170  -15.4369   18.0890 C   0  0  0  0  0  0  0  0  0  0  0  0
  -27.4297  -16.9651   18.1187 C   0  0  0  0  0  0  0  0  0  0  0  0
  -28.5814  -17.6007   17.3366 C   0  0  0  0  0  0  0  0  0  0  0  0
  -28.5363  -19.1313   17.3228 C   0  0  0  0  0  0  0  0  0  0  0  0
  -29.6741  -19.7663   16.5202 C   0  0  0  0  0  0  0  0  0  0  0  0
  -29.5933  -21.2952   16.5590 C   0  0  0  0  0  0  0  0  0  0  0  0
  -30.7129  -21.9297   15.7307 C   0  0  0  0  0  0  0  0  0  0  0  0
  -30.7279  -23.4608   15.7931 C   0  0  0  0  0  0  0  0  0  0  0  0
  -31.8309  -24.0926   14.9378 C   0  0  0  0  0  0  0  0  0  0  0  0
  -31.7997  -25.6170   14.9395 C   0  0  0  0  0  0  0  0  0  0  0  0
  -23.3184  -34.4157   21.4219 C   0  0  1  0  0  0  0  0  0  0  0  0
  -25.1389  -37.1555   23.3059 C   0  0  2  0  0  0  0  0  0  0  0  0
  -22.2049  -34.7627   20.3938 C   0  0  0  0  0  0  0  0  0  0  0  0
  -22.8339   -7.7641   21.4208 N   0  0  0  0  0  0  0  0  0  0  0  0
  -32.2950  -29.0717   20.4389 N   0  0  0  0  0  0  0  0  0  0  0  0
  -22.4964   -8.9099   20.8048 N   0  0  0  0  0  0  0  0  0  0  0  0
  -23.7335  -32.1427   22.3080 N   0  0  0  0  0  0  0  0  0  0  0  0
  -25.3326  -11.2972   19.8721 N   0  0  0  0  0  0  0  0  0  0  0  0
  -20.7155  -10.4442   20.5134 N   0  0  0  0  0  0  0  0  0  0  0  0
  -18.9607   -7.3210   23.2635 N   0  0  0  0  0  0  0  0  0  0  0  0
  -21.5389  -29.3400   22.5502 N   0  0  0  0  0  0  0  0  0  0  0  0
  -23.7022  -35.5275   22.2851 N   0  0  0  0  0  0  0  0  0  0  0  0
  -26.4777  -37.1274   23.9598 N   0  3  0  0  0  0  0  0  0  0  0  0
  -31.9628  -26.1450   16.3144 N   0  3  0  0  0  0  0  0  0  0  0  0
  -18.5212   -9.2714   22.1402 O   0  0  0  0  0  0  0  0  0  0  0  0
  -22.9502  -30.0755   20.8503 O   0  0  0  0  0  0  0  0  0  0  0  0
  -24.5755  -13.4442   20.3391 O   0  0  0  0  0  0  0  0  0  0  0  0
  -21.9319  -33.4143   23.0655 O   0  0  0  0  0  0  0  0  0  0  0  0
  -25.9447  -35.5451   21.6952 O   0  0  0  0  0  0  0  0  0  0  0  0
  -21.5681   -2.7910   25.1911 O   0  0  0  0  0  0  0  0  0  0  0  0
  -29.0694  -29.6094   20.4997 O   0  0  0  0  0  0  0  0  0  1  0  0
  -19.3281   -3.1389   30.2176 F   0  0  0  0  0  0  0  0  0  0  0  0
  -18.9350   -3.5664   25.5199 F   0  0  0  0  0  0  0  0  0  0  0  0
  1  2  1  0  0  0  0
  1  5  2  0  0  0  0
  2  6  2  0  0  0  0
  3  8  2  0  0  0  0
  3 17  1  0  0  0  0
  4  9  1  0  0  0  0
  4 17  2  0  0  0  0
  5 19  1  0  0  0  0
  6 21  1  0  0  0  0
  7 10  2  0  0  0  0
  7 20  1  0  0  0  0
  8 24  1  0  0  0  0
  9 24  2  0  0  0  0
 10 25  1  0  0  0  0
 11 12  2  0  0  0  0
 11 26  1  0  0  0  0
 12 27  1  0  0  0  0
 13 22  1  0  0  0  0
 13 25  2  0  0  0  0
 14 23  2  0  0  0  0
 14 30  1  0  0  0  0
 15 23  1  0  0  0  0
 15 31  2  0  0  0  0
 16 27  2  0  0  0  0
 16 28  1  0  0  0  0
 17 29  1  0  0  0  0
 18 29  1  0  0  0  0
 18 32  2  0  0  0  0
 18 33  1  0  0  0  0
 19 21  2  0  0  0  0
 19 38  1  0  0  0  0
 20 22  2  0  0  0  0
 20 39  1  0  0  0  0
 21 47  1  0  0  0  0
 22 40  1  0  0  0  0
 23 56  1  0  0  0  0
 24 90  1  0  0  0  0
 25 91  1  0  0  0  0
 26 28  2  0  0  0  0
 26 90  1  0  0  0  0
 27 92  1  0  0  0  0
 28 93  1  0  0  0  0
 29 74  2  0  0  0  0
 30 57  1  0  0  0  0
 30 75  2  0  0  0  0
 31 58  1  0  0  0  0
 31 75  1  0  0  0  0
 32 76  1  0  0  0  0
 32 79  1  0  0  0  0
 33 80  1  0  0  0  0
 33 85  2  0  0  0  0
 34 48  1  0  0  0  0
 34 81  1  0  0  0  0
 34 86  2  0  0  0  0
 35 59  1  0  0  0  0
 35 78  1  0  0  0  0
 35 87  2  0  0  0  0
 36 71  1  0  0  0  0
 36 77  1  0  0  0  0
 36 88  2  0  0  0  0
 37 72  1  0  0  0  0
 37 82  1  0  0  0  0
 37 89  2  0  0  0  0
 38 41  1  0  0  0  0
 39 48  1  0  0  0  0
 40 77  1  0  0  0  0
 41 43  1  0  0  0  0
 42 44  1  0  0  0  0
 42 45  1  0  0  0  0
 43 47  1  0  0  0  0
 44 49  1  0  0  0  0
 45 78  1  0  0  0  0
 46 49  1  0  0  0  0
 46 78  1  0  0  0  0
 47 81  1  0  0  0  0
 48 77  1  0  0  0  0
 49 76  1  0  0  0  0
 50 57  1  0  0  0  0
 51 72  1  0  0  0  0
 52 73  1  0  0  0  0
 53 73  1  0  0  0  0
 54 73  1  0  0  0  0
 55 83  1  0  0  0  0
 56 84  1  0  0  0  0
 58 91  1  0  0  0  0
 59 60  1  0  0  0  0
 60 61  1  0  0  0  0
 61 62  1  0  0  0  0
 62 63  1  0  0  0  0
 63 64  1  0  0  0  0
 64 65  1  0  0  0  0
 65 66  1  0  0  0  0
 66 67  1  0  0  0  0
 67 68  1  0  0  0  0
 68 69  1  0  0  0  0
 69 70  1  0  0  0  0
 70 84  1  0  0  0  0
 71 73  1  0  0  0  0
 71 82  1  0  0  0  0
 72 83  1  0  0  0  0
 74 76  1  0  0  0  0
M  CHG  2  83   1  84   1
M  ISO  4  35 100  58 101  59 100  91 101
M  END
> <Batch ID>
0034

> <Smiles>
CCc1cc(CNCCCCCCCCCCC[100CH2:0][100C:0](=O)N2CCCC(n3nc(-c4ccc(Oc5ccc(F)cc5F)cc4)c(C(N)=O)c3N)C2)cc([101CH2:1][101O:1]c2ccc3c(c2)CN(C(=O)C(NC(=O)C(C)NC)C(C)(C)C)C(C(=O)NC2CCCc4ccccc42)C3)n1

> <Shape>
0.245

> <Color>
0.095

> <Negative vol penalty>
0.000

$$$$

  -OEChem-04052316503D

 83 91  0     1  0  0  0  0  0999 V2000
  -21.7949  -11.9757   21.9813 C   0  0  0  0  0  0  0  0  0  0  0  0
  -22.1369  -13.1751   22.5975 C   0  0  0  0  0  0  0  0  0  0  0  0
  -24.9365  -29.4049   19.6801 C   0  0  0  0  0  0  0  0  0  0  0  0
  -25.5249  -27.1613   20.3559 C   0  0  0  0  0  0  0  0  0  0  0  0
  -22.6980  -11.3531   21.1207 C   0  0  0  0  0  0  0  0  0  0  0  0
  -23.3828  -13.7522   22.3542 C   0  0  0  0  0  0  0  0  0  0  0  0
  -23.0836  -18.7364   21.5095 C   0  0  0  0  0  0  0  0  0  0  0  0
  -26.2791  -29.7772   19.7468 C   0  0  0  0  0  0  0  0  0  0  0  0
  -26.8675  -27.5335   20.4226 C   0  0  0  0  0  0  0  0  0  0  0  0
  -22.9262  -19.5623   22.6216 C   0  0  0  0  0  0  0  0  0  0  0  0
  -29.4219  -28.0341   18.2673 C   0  0  0  0  0  0  0  0  0  0  0  0
  -30.3610  -27.1704   17.7038 C   0  0  0  0  0  0  0  0  0  0  0  0
  -25.2841  -20.0696   22.5710 C   0  0  0  0  0  0  0  0  0  0  0  0
  -22.1742  -25.0888   26.6710 C   0  0  0  0  0  0  0  0  0  0  0  0
  -22.3252  -22.6777   26.6553 C   0  0  0  0  0  0  0  0  0  0  0  0
  -31.4334  -26.9326   19.8557 C   0  0  0  0  0  0  0  0  0  0  0  0
  -24.5594  -28.0970   19.9847 C   0  0  0  0  0  0  0  0  0  0  0  0
  -22.4875  -27.1959   18.8002 C   0  0  0  0  0  0  0  0  0  0  0  0
  -23.9518  -11.9277   20.8592 C   0  0  0  0  0  0  0  0  0  0  0  0
  -24.3465  -18.5620   20.9254 C   0  0  0  0  0  0  0  0  0  0  0  0
  -24.3041  -13.1361   21.4903 C   0  0  0  0  0  0  0  0  0  0  0  0
  -25.4543  -19.2429   21.4499 C   0  0  0  0  0  0  0  0  0  0  0  0
  -21.5548  -23.8395   26.7025 C   0  0  0  0  0  0  0  0  0  0  0  0
  -23.5642  -25.1764   26.5921 C   0  0  0  0  0  0  0  0  0  0  0  0
  -23.7151  -22.7652   26.5765 C   0  0  0  0  0  0  0  0  0  0  0  0
  -27.2446  -28.8415   20.1180 C   0  0  0  0  0  0  0  0  0  0  0  0
  -24.0271  -20.2268   23.1543 C   0  0  0  0  0  0  0  0  0  0  0  0
  -29.4885  -28.3472   19.6250 C   0  0  0  0  0  0  0  0  0  0  0  0
  -31.3668  -26.6196   18.4980 C   0  0  0  0  0  0  0  0  0  0  0  0
  -30.4942  -27.7964   20.4192 C   0  0  0  0  0  0  0  0  0  0  0  0
  -24.3346  -24.0145   26.5449 C   0  0  0  0  0  0  0  0  0  0  0  0
  -23.1726  -27.7120   19.9165 C   0  0  0  0  0  0  0  0  0  0  0  0
  -21.2049  -26.9935   19.2479 C   0  0  0  0  0  0  0  0  0  0  0  0
  -22.9676  -26.9237   17.4769 C   0  0  0  0  0  0  0  0  0  0  0  0
  -26.2845  -16.0840   20.4702 C   0  0  0  0  0  0  0  0  0  0  0  0
  -28.0254  -18.2507   18.7978 C   0  0  0  0  0  0  0  0  0  0  0  0
  -29.4303  -21.5325   18.2748 C   0  0  0  0  0  0  0  0  0  0  0  0
  -18.8882  -26.0312   24.6846 C   0  0  0  0  0  0  0  0  0  0  0  0
  -24.9132  -11.1936   19.9584 C   0  0  0  0  0  0  0  0  0  0  0  0
  -24.4947  -17.6886   19.7099 C   0  0  0  0  0  0  0  0  0  0  0  0
  -26.8279  -19.1053   20.8475 C   0  0  0  0  0  0  0  0  0  0  0  0
  -26.0664  -12.0618   19.4618 C   0  0  0  0  0  0  0  0  0  0  0  0
  -18.0441  -28.6558   22.4317 C   0  0  0  0  0  0  0  0  0  0  0  0
  -26.6707  -12.8572   20.6146 C   0  0  0  0  0  0  0  0  0  0  0  0
  -19.2010  -28.6650   21.4309 C   0  0  0  0  0  0  0  0  0  0  0  0
  -18.5234  -28.3331   23.8453 C   0  0  0  0  0  0  0  0  0  0  0  0
  -20.4665  -27.1002   22.9634 C   0  0  0  0  0  0  0  0  0  0  0  0
  -25.6364  -13.8058   21.2323 C   0  0  1  0  0  0  0  0  0  0  0  0
  -25.9191  -17.1801   19.5096 C   0  0  1  0  0  0  0  0  0  0  0  0
  -20.0247  -27.3658   21.5141 C   0  0  2  0  0  0  0  0  0  0  0  0
  -24.1847  -26.5362   26.5606 C   0  0  0  0  0  0  0  0  0  0  0  0
  -30.7931  -22.4396   16.3728 C   0  0  0  0  0  0  0  0  0  0  0  0
  -30.4190  -17.4719   20.5223 C   0  0  0  0  0  0  0  0  0  0  0  0
  -31.5644  -19.5611   19.7532 C   0  0  0  0  0  0  0  0  0  0  0  0
  -30.9421  -17.8008   18.0990 C   0  0  0  0  0  0  0  0  0  0  0  0
  -27.5388  -23.7651   17.8318 C   0  0  0  0  0  0  0  0  0  0  0  0
  -20.0687  -23.7459   26.7868 C   0  0  0  0  0  0  0  0  0  0  0  0
  -24.5080  -21.4817   26.5275 C   0  0  0  0  0  0  0  0  0  0  0  0
  -19.3768  -23.7114   25.4188 C   0  0  0  0  0  0  0  0  0  0  0  0
  -24.9935  -21.1535   25.1198 C   0  0  0  0  0  0  0  0  0  1  0  0
  -29.1281  -19.2252   19.1346 C   0  0  1  0  0  0  0  0  0  0  0  0
  -29.4059  -22.3369   16.9876 C   0  0  2  0  0  0  0  0  0  0  0  0
  -30.4880  -18.5160   19.3900 C   0  0  0  0  0  0  0  0  0  0  0  0
  -22.3899  -27.8303   20.9924 N   0  0  0  0  0  0  0  0  0  0  0  0
  -21.1998  -27.3857   20.5541 N   0  0  0  0  0  0  0  0  0  0  0  0
  -26.9228  -18.2351   19.6638 N   0  0  0  0  0  0  0  0  0  0  0  0
  -19.2964  -27.0888   23.8553 N   0  0  0  0  0  0  0  0  0  0  0  0
  -20.0922  -26.5201   18.6477 N   0  0  0  0  0  0  0  0  0  0  0  0
  -24.3126  -27.1897   17.1863 N   0  0  0  0  0  0  0  0  0  0  0  0
  -25.4621  -14.9758   20.3985 N   0  0  0  0  0  0  0  0  0  0  0  0
  -29.1570  -20.1999   18.0495 N   0  0  0  0  0  0  0  0  0  0  0  0
  -19.6728  -24.8857   24.6288 N   0  0  0  0  0  0  0  0  0  0  0  0
  -28.9040  -23.7157   17.2479 N   0  3  0  0  0  0  0  0  0  0  0  0
  -22.2218  -26.4738   16.5742 O   0  0  0  0  0  0  0  0  0  0  0  0
  -27.2426  -16.2320   21.2197 O   0  0  0  0  0  0  0  0  0  0  0  0
  -28.1349  -17.5351   17.7991 O   0  0  0  0  0  0  0  0  0  0  0  0
  -29.6717  -22.0353   19.3700 O   0  0  0  0  0  0  0  0  0  0  0  0
  -17.8948  -26.1005   25.4163 O   0  0  0  0  0  0  0  0  0  0  0  0
  -28.5548  -29.2043   20.1830 O   0  0  0  0  0  0  0  0  0  0  0  0
  -23.8764  -21.0331   24.2401 O   0  0  0  0  0  0  0  0  0  1  0  0
  -32.2676  -25.7889   17.9572 F   0  0  0  0  0  0  0  0  0  0  0  0
  -30.5626  -28.0925   21.7243 F   0  0  0  0  0  0  0  0  0  0  0  0
  -26.0602  -24.1232   26.4468 Cl  0  0  0  0  0  0  0  0  0  0  0  0
  1  2  1  0  0  0  0
  1  5  2  0  0  0  0
  2  6  2  0  0  0  0
  3  8  2  0  0  0  0
  3 17  1  0  0  0  0
  4  9  1  0  0  0  0
  4 17  2  0  0  0  0
  5 19  1  0  0  0  0
  6 21  1  0  0  0  0
  7 10  2  0  0  0  0
  7 20  1  0  0  0  0
  8 26  1  0  0  0  0
  9 26  2  0  0  0  0
 10 27  1  0  0  0  0
 11 12  2  0  0  0  0
 11 28  1  0  0  0  0
 12 29  1  0  0  0  0
 13 22  1  0  0  0  0
 13 27  2  0  0  0  0
 14 23  1  0  0  0  0
 14 24  2  0  0  0  0
 15 23  2  0  0  0  0
 15 25  1  0  0  0  0
 16 29  2  0  0  0  0
 16 30  1  0  0  0  0
 17 32  1  0  0  0  0
 18 32  1  0  0  0  0
 18 33  2  0  0  0  0
 18 34  1  0  0  0  0
 19 21  2  0  0  0  0
 19 39  1  0  0  0  0
 20 22  2  0  0  0  0
 20 40  1  0  0  0  0
 21 48  1  0  0  0  0
 22 41  1  0  0  0  0
 23 57  1  0  0  0  0
 24 31  1  0  0  0  0
 24 51  1  0  0  0  0
 25 31  2  0  0  0  0
 25 58  1  0  0  0  0
 26 79  1  0  0  0  0
 27 80  1  0  0  0  0
 28 30  2  0  0  0  0
 28 79  1  0  0  0  0
 29 81  1  0  0  0  0
 30 82  1  0  0  0  0
 31 83  1  0  0  0  0
 32 64  2  0  0  0  0
 33 65  1  0  0  0  0
 33 68  1  0  0  0  0
 34 69  1  0  0  0  0
 34 74  2  0  0  0  0
 35 49  1  0  0  0  0
 35 70  1  0  0  0  0
 35 75  2  0  0  0  0
 36 61  1  0  0  0  0
 36 66  1  0  0  0  0
 36 76  2  0  0  0  0
 37 62  1  0  0  0  0
 37 71  1  0  0  0  0
 37 77  2  0  0  0  0
 38 67  1  0  0  0  0
 38 72  1  0  0  0  0
 38 78  2  0  0  0  0
 39 42  1  0  0  0  0
 40 49  1  0  0  0  0
 41 66  1  0  0  0  0
 42 44  1  0  0  0  0
 43 45  1  0  0  0  0
 43 46  1  0  0  0  0
 44 48  1  0  0  0  0
 45 50  1  0  0  0  0
 46 67  1  0  0  0  0
 47 50  1  0  0  0  0
 47 67  1  0  0  0  0
 48 70  1  0  0  0  0
 49 66  1  0  0  0  0
 50 65  1  0  0  0  0
 52 62  1  0  0  0  0
 53 63  1  0  0  0  0
 54 63  1  0  0  0  0
 55 63  1  0  0  0  0
 56 73  1  0  0  0  0
 57 59  1  0  0  0  0
 58 60  1  0  0  0  0
 59 72  1  0  0  0  0
 60 80  1  0  0  0  0
 61 63  1  0  0  0  0
 61 71  1  0  0  0  0
 62 73  1  0  0  0  0
 64 65  1  0  0  0  0
M  CHG  1  73   1
M  ISO  4  38 100  60 101  72 100  80 101
M  END
> <Batch ID>
0034

> <Smiles>
CNC(C)C(=O)NC(C(=O)N1Cc2cc([101O:1][101CH2:1]Cc3cc(CC[100NH:0][100C:0](=O)N4CCCC(n5nc(-c6ccc(Oc7ccc(F)cc7F)cc6)c(C(N)=O)c5N)C4)cc(C)c3Cl)ccc2CC1C(=O)NC1CCCc2ccccc21)C(C)(C)C

> <Shape>
0.212

> <Color>
0.081

> <Negative vol penalty>
0.000

$$$$

  -OEChem-04052316503D

 87 96  0     1  0  0  0  0  0999 V2000
  -19.1915  -28.9973   16.7681 C   0  0  0  0  0  0  0  0  0  0  0  0
  -19.5955  -27.6719   16.8929 C   0  0  0  0  0  0  0  0  0  0  0  0
  -23.0002   -9.8958   19.9815 C   0  0  0  0  0  0  0  0  0  0  0  0
  -23.7311   -9.9442   22.2838 C   0  0  0  0  0  0  0  0  0  0  0  0
  -19.3301  -29.8715   17.8453 C   0  0  0  0  0  0  0  0  0  0  0  0
  -20.1394  -27.2203   18.0949 C   0  0  0  0  0  0  0  0  0  0  0  0
  -29.1343  -19.3636   25.9785 C   0  0  0  0  0  0  0  0  0  0  0  0
  -20.4995  -21.3674   22.2096 C   0  0  0  0  0  0  0  0  0  0  0  0
  -30.0842  -18.3999   25.6540 C   0  0  0  0  0  0  0  0  0  0  0  0
  -22.2354   -8.7603   20.2481 C   0  0  0  0  0  0  0  0  0  0  0  0
  -22.9662   -8.8087   22.5505 C   0  0  0  0  0  0  0  0  0  0  0  0
  -21.4360  -20.5562   22.8488 C   0  0  0  0  0  0  0  0  0  0  0  0
  -23.2124   -5.4706   22.0732 C   0  0  0  0  0  0  0  0  0  0  0  0
  -23.8027   -4.4529   22.8224 C   0  0  0  0  0  0  0  0  0  0  0  0
  -28.4673  -17.3186   24.2311 C   0  0  0  0  0  0  0  0  0  0  0  0
  -21.5541  -22.1363   24.6678 C   0  0  0  0  0  0  0  0  0  0  0  0
  -22.0827   -4.6919   24.5023 C   0  0  0  0  0  0  0  0  0  0  0  0
  -23.7482  -10.4878   20.9993 C   0  0  0  0  0  0  0  0  0  0  0  0
  -24.1308  -13.0040   20.8259 C   0  0  0  0  0  0  0  0  0  0  0  0
  -19.8670  -29.4280   19.0641 C   0  0  0  0  0  0  0  0  0  0  0  0
  -27.8403  -19.3212   25.4262 C   0  0  0  0  0  0  0  0  0  0  0  0
  -20.0907  -22.5765   22.7904 C   0  0  0  0  0  0  0  0  0  0  0  0
  -20.2865  -28.0898   19.1890 C   0  0  0  0  0  0  0  0  0  0  0  0
  -27.4794  -18.2729   24.5549 C   0  0  0  0  0  0  0  0  0  0  0  0
  -20.6104  -22.9598   24.0351 C   0  0  0  0  0  0  0  0  0  0  0  0
  -29.7519  -17.3795   24.7747 C   0  0  0  0  0  0  0  0  0  0  0  0
  -22.2183   -8.2167   21.5326 C   0  0  0  0  0  0  0  0  0  0  0  0
  -21.9656  -20.9420   24.0767 C   0  0  0  0  0  0  0  0  0  0  0  0
  -22.0573   -6.0991   22.5386 C   0  0  0  0  0  0  0  0  0  0  0  0
  -23.2379   -4.0635   24.0369 C   0  0  0  0  0  0  0  0  0  0  0  0
  -21.4924   -5.7097   23.7531 C   0  0  0  0  0  0  0  0  0  0  0  0
  -24.5389  -11.6605   20.7244 C   0  0  0  0  0  0  0  0  0  0  0  0
  -25.2390  -13.7281   20.4598 C   0  0  0  0  0  0  0  0  0  0  0  0
  -22.8633  -13.5487   21.2164 C   0  0  0  0  0  0  0  0  0  0  0  0
  -20.2623  -25.6382   21.9534 C   0  0  0  0  0  0  0  0  0  0  0  0
  -18.4495  -26.0629   24.6097 C   0  0  0  0  0  0  0  0  0  0  0  0
  -17.4554  -24.8906   27.6567 C   0  0  0  0  0  0  0  0  0  0  0  0
  -30.7351  -14.6673   20.6960 C   0  0  0  0  0  0  0  0  0  0  0  0
  -20.0408  -30.4217   20.1853 C   0  0  0  0  0  0  0  0  0  0  0  0
  -26.8711  -20.3947   25.8397 C   0  0  0  0  0  0  0  0  0  0  0  0
  -19.0597  -23.4273   22.1008 C   0  0  0  0  0  0  0  0  0  0  0  0
  -20.1893  -24.2384   24.7105 C   0  0  0  0  0  0  0  0  0  0  0  0
  -20.2802  -29.7703   21.5449 C   0  0  0  0  0  0  0  0  0  0  0  0
  -25.6975  -20.5306   24.8841 C   0  0  0  0  0  0  0  0  0  0  0  0
  -29.5908  -12.2459   18.3499 C   0  0  0  0  0  0  0  0  0  0  0  0
  -21.3275  -28.6672   21.4314 C   0  0  0  0  0  0  0  0  0  0  0  0
  -28.1435  -11.9843   18.7708 C   0  0  0  0  0  0  0  0  0  0  0  0
  -30.4960  -12.4804   19.5572 C   0  0  0  0  0  0  0  0  0  0  0  0
  -28.5885  -13.2723   20.9019 C   0  0  0  0  0  0  0  0  0  0  0  0
  -20.8581  -27.5561   20.4846 C   0  0  1  0  0  0  0  0  0  0  0  0
  -19.0998  -24.8879   22.5394 C   0  0  1  0  0  0  0  0  0  0  0  0
  -25.0611  -19.1588   24.6322 C   0  0  2  0  0  0  0  0  0  0  0  0
  -27.6267  -13.0854   19.7160 C   0  0  2  0  0  0  0  0  0  0  0  0
  -26.0713  -18.1795   23.9291 C   0  0  0  0  0  0  0  0  0  0  0  0
  -25.5189  -16.7389   24.0847 C   0  0  0  0  0  0  0  0  0  0  0  0
  -26.2030  -18.4877   22.4192 C   0  0  0  0  0  0  0  0  0  0  0  0
  -15.9950  -25.4758   29.6117 C   0  0  0  0  0  0  0  0  0  0  0  0
  -20.5250  -28.0926   25.5493 C   0  0  0  0  0  0  0  0  0  0  0  0
  -19.5469  -27.9242   27.8479 C   0  0  0  0  0  0  0  0  0  0  0  0
  -18.1506  -28.7628   25.9586 C   0  0  0  0  0  0  0  0  0  0  0  0
  -15.7868  -22.4752   27.2817 C   0  0  0  0  0  0  0  0  0  0  0  0
  -30.7647  -16.3461   24.4127 C   0  0  0  0  0  0  0  0  0  0  0  0
  -23.7317  -19.3601   23.8910 C   0  0  0  0  0  0  0  0  0  1  0  0
  -31.6176  -16.6945   23.1770 C   0  0  0  0  0  0  0  0  0  0  0  0
  -30.8188  -16.8446   21.8840 C   0  0  0  0  0  0  0  0  0  0  0  0
  -18.7359  -26.3058   26.0719 C   0  0  1  0  0  0  0  0  0  0  0  0
  -16.0789  -24.7460   28.2802 C   0  0  2  0  0  0  0  0  0  0  0  0
  -19.2492  -27.7481   26.3435 C   0  0  0  0  0  0  0  0  0  0  0  0
  -25.8073  -11.5357   20.3249 N   0  0  0  0  0  0  0  0  0  0  0  0
  -26.2057  -12.8101   20.1721 N   0  0  0  0  0  0  0  0  0  0  0  0
  -19.1832  -25.0393   23.9935 N   0  0  0  0  0  0  0  0  0  0  0  0
  -29.9503  -13.5374   20.4122 N   0  0  0  0  0  0  0  0  0  0  0  0
  -25.4710  -15.0541   20.3590 N   0  0  0  0  0  0  0  0  0  0  0  0
  -21.8331  -12.6631   21.5612 N   0  0  0  0  0  0  0  0  0  0  0  0
  -19.8980  -26.6996   21.1471 N   0  0  0  0  0  0  0  0  0  0  0  0
  -17.5136  -25.9614   26.7900 N   0  0  0  0  0  0  0  0  0  0  0  0
  -30.1399  -15.6244   21.5087 N   0  0  0  0  0  0  0  0  0  0  0  0
  -15.7635  -23.3080   28.5117 N   0  3  0  0  0  0  0  0  0  0  0  0
  -22.6455  -14.7838   21.2424 O   0  0  0  0  0  0  0  0  0  0  0  0
  -21.4052  -25.2815   22.2147 O   0  0  0  0  0  0  0  0  0  0  0  0
  -17.6008  -26.7510   24.0372 O   0  0  0  0  0  0  0  0  0  0  0  0
  -18.3870  -24.1319   27.9157 O   0  0  0  0  0  0  0  0  0  0  0  0
  -31.8793  -14.8148   20.2533 O   0  0  0  0  0  0  0  0  0  0  0  0
  -21.4719   -7.1088   21.7932 O   0  0  0  0  0  0  0  0  0  0  0  0
  -22.8899  -20.1441   24.7091 O   0  0  0  0  0  0  0  0  0  1  0  0
  -23.8040   -3.0851   24.7555 F   0  0  0  0  0  0  0  0  0  0  0  0
  -20.3821   -6.3089   24.2047 F   0  0  0  0  0  0  0  0  0  0  0  0
  1  2  1  0  0  0  0
  1  5  2  0  0  0  0
  2  6  2  0  0  0  0
  3 10  2  0  0  0  0
  3 18  1  0  0  0  0
  4 11  1  0  0  0  0
  4 18  2  0  0  0  0
  5 20  1  0  0  0  0
  6 23  1  0  0  0  0
  7  9  2  0  0  0  0
  7 21  1  0  0  0  0
  8 12  2  0  0  0  0
  8 22  1  0  0  0  0
  9 26  1  0  0  0  0
 10 27  1  0  0  0  0
 11 27  2  0  0  0  0
 12 28  1  0  0  0  0
 13 14  2  0  0  0  0
 13 29  1  0  0  0  0
 14 30  1  0  0  0  0
 15 24  1  0  0  0  0
 15 26  2  0  0  0  0
 16 25  1  0  0  0  0
 16 28  2  0  0  0  0
 17 30  2  0  0  0  0
 17 31  1  0  0  0  0
 18 32  1  0  0  0  0
 19 32  1  0  0  0  0
 19 33  2  0  0  0  0
 19 34  1  0  0  0  0
 20 23  2  0  0  0  0
 20 39  1  0  0  0  0
 21 24  2  0  0  0  0
 21 40  1  0  0  0  0
 22 25  2  0  0  0  0
 22 41  1  0  0  0  0
 23 50  1  0  0  0  0
 24 54  1  0  0  0  0
 25 42  1  0  0  0  0
 26 62  1  0  0  0  0
 27 84  1  0  0  0  0
 28 85  1  0  0  0  0
 29 31  2  0  0  0  0
 29 84  1  0  0  0  0
 30 86  1  0  0  0  0
 31 87  1  0  0  0  0
 32 69  2  0  0  0  0
 33 70  1  0  0  0  0
 33 73  1  0  0  0  0
 34 74  1  0  0  0  0
 34 79  2  0  0  0  0
 35 51  1  0  0  0  0
 35 75  1  0  0  0  0
 35 80  2  0  0  0  0
 36 66  1  0  0  0  0
 36 71  1  0  0  0  0
 36 81  2  0  0  0  0
 37 67  1  0  0  0  0
 37 76  1  0  0  0  0
 37 82  2  0  0  0  0
 38 72  1  0  0  0  0
 38 77  1  0  0  0  0
 38 83  2  0  0  0  0
 39 43  1  0  0  0  0
 40 44  1  0  0  0  0
 41 51  1  0  0  0  0
 42 71  1  0  0  0  0
 43 46  1  0  0  0  0
 44 52  1  0  0  0  0
 45 47  1  0  0  0  0
 45 48  1  0  0  0  0
 46 50  1  0  0  0  0
 47 53  1  0  0  0  0
 48 72  1  0  0  0  0
 49 53  1  0  0  0  0
 49 72  1  0  0  0  0
 50 75  1  0  0  0  0
 51 71  1  0  0  0  0
 52 54  1  0  0  0  0
 52 63  1  0  0  0  0
 53 70  1  0  0  0  0
 54 55  1  0  0  0  0
 54 56  1  0  0  0  0
 57 67  1  0  0  0  0
 58 68  1  0  0  0  0
 59 68  1  0  0  0  0
 60 68  1  0  0  0  0
 61 78  1  0  0  0  0
 62 64  1  0  0  0  0
 63 85  1  0  0  0  0
 64 65  1  0  0  0  0
 65 77  1  0  0  0  0
 66 68  1  0  0  0  0
 66 76  1  0  0  0  0
 67 78  1  0  0  0  0
 69 70  1  0  0  0  0
M  CHG  1  78   1
M  ISO  4  38 100  63 101  77 100  85 101
M  END
> <Batch ID>
0034

> <Smiles>
CNC(C)C(=O)NC(C(=O)N1Cc2cc([101O:1][101CH2:1]C3CCc4ccc(CCC[100NH:0][100C:0](=O)N5CCCC(n6nc(-c7ccc(Oc8ccc(F)cc8F)cc7)c(C(N)=O)c6N)C5)cc4C3(C)C)ccc2CC1C(=O)NC1CCCc2ccccc21)C(C)(C)C

> <Shape>
0.207

> <Color>
0.197

> <Negative vol penalty>
0.000

$$$$

  -OEChem-04052316503D

 89 97  0     1  0  0  0  0  0999 V2000
  -17.5676  -22.5417   22.8860 C   0  0  0  0  0  0  0  0  0  0  0  0
  -18.8726  -22.0680   22.7955 C   0  0  0  0  0  0  0  0  0  0  0  0
  -25.6148  -12.8489   21.6281 C   0  0  0  0  0  0  0  0  0  0  0  0
  -26.1088  -12.9529   19.2654 C   0  0  0  0  0  0  0  0  0  0  0  0
  -17.2574  -23.8195   22.4225 C   0  0  0  0  0  0  0  0  0  0  0  0
  -19.8679  -22.8716   22.2406 C   0  0  0  0  0  0  0  0  0  0  0  0
  -25.7566  -23.1153   23.9046 C   0  0  0  0  0  0  0  0  0  0  0  0
  -25.2905  -11.4983   21.5009 C   0  0  0  0  0  0  0  0  0  0  0  0
  -25.7845  -11.6023   19.1382 C   0  0  0  0  0  0  0  0  0  0  0  0
  -26.9048  -22.5232   23.3803 C   0  0  0  0  0  0  0  0  0  0  0  0
  -23.9870   -8.1112   21.7287 C   0  0  0  0  0  0  0  0  0  0  0  0
  -22.8283   -7.6587   22.3597 C   0  0  0  0  0  0  0  0  0  0  0  0
  -27.3634  -24.5343   22.1295 C   0  0  0  0  0  0  0  0  0  0  0  0
  -30.0292  -25.4027   16.9135 C   0  0  0  0  0  0  0  0  0  0  0  0
  -21.5113   -9.2023   21.0482 C   0  0  0  0  0  0  0  0  0  0  0  0
  -26.0239  -13.5763   20.5104 C   0  0  0  0  0  0  0  0  0  0  0  0
  -27.6230  -15.5192   20.9293 C   0  0  0  0  0  0  0  0  0  0  0  0
  -18.2514  -24.6428   21.8704 C   0  0  0  0  0  0  0  0  0  0  0  0
  -25.3968  -24.4196   23.5362 C   0  0  0  0  0  0  0  0  0  0  0  0
  -19.5704  -24.1611   21.7681 C   0  0  0  0  0  0  0  0  0  0  0  0
  -26.2116  -25.1416   22.6525 C   0  0  0  0  0  0  0  0  0  0  0  0
  -29.8211  -24.4360   15.9298 C   0  0  0  0  0  0  0  0  0  0  0  0
  -30.6428  -25.0530   18.1164 C   0  0  0  0  0  0  0  0  0  0  0  0
  -30.8401  -22.7696   17.3518 C   0  0  0  0  0  0  0  0  0  0  0  0
  -30.2265  -23.1194   16.1490 C   0  0  0  0  0  0  0  0  0  0  0  0
  -31.0483  -23.7364   18.3355 C   0  0  0  0  0  0  0  0  0  0  0  0
  -25.3753  -10.8749   20.2559 C   0  0  0  0  0  0  0  0  0  0  0  0
  -27.7068  -23.2316   22.4903 C   0  0  0  0  0  0  0  0  0  0  0  0
  -23.9079   -9.1093   20.7575 C   0  0  0  0  0  0  0  0  0  0  0  0
  -21.5904   -8.2042   22.0194 C   0  0  0  0  0  0  0  0  0  0  0  0
  -22.6701   -9.6549   20.4173 C   0  0  0  0  0  0  0  0  0  0  0  0
  -26.3586  -14.9716   20.6410 C   0  0  0  0  0  0  0  0  0  0  0  0
  -27.4140  -16.8766   20.9445 C   0  0  0  0  0  0  0  0  0  0  0  0
  -28.8746  -14.8598   21.1624 C   0  0  0  0  0  0  0  0  0  0  0  0
  -22.9053  -25.7258   22.0563 C   0  0  0  0  0  0  0  0  0  0  0  0
  -24.3928  -28.5012   22.8356 C   0  0  0  0  0  0  0  0  0  0  0  0
  -27.2973  -30.1082   23.6281 C   0  0  0  0  0  0  0  0  0  0  0  0
  -23.3263  -20.4019   18.3532 C   0  0  0  0  0  0  0  0  0  0  0  0
  -17.8586  -25.9988   21.3396 C   0  0  0  0  0  0  0  0  0  0  0  0
  -24.1695  -25.0538   24.1314 C   0  0  0  0  0  0  0  0  0  0  0  0
  -25.8802  -26.5520   22.2409 C   0  0  0  0  0  0  0  0  0  0  0  0
  -19.0461  -26.9295   21.1078 C   0  0  0  0  0  0  0  0  0  0  0  0
  -24.0239  -20.1334   21.8343 C   0  0  0  0  0  0  0  0  0  0  0  0
  -20.1629  -26.1967   20.3712 C   0  0  0  0  0  0  0  0  0  0  0  0
  -24.8155  -18.8295   21.9492 C   0  0  0  0  0  0  0  0  0  0  0  0
  -22.9314  -20.0386   20.7716 C   0  0  0  0  0  0  0  0  0  0  0  0
  -24.1893  -18.3028   19.5556 C   0  0  0  0  0  0  0  0  0  0  0  0
  -20.6827  -25.0124   21.1950 C   0  0  1  0  0  0  0  0  0  0  0  0
  -23.6215  -26.2013   23.2887 C   0  0  1  0  0  0  0  0  0  0  0  0
  -25.3389  -18.3683   20.5757 C   0  0  2  0  0  0  0  0  0  0  0  0
  -29.1614  -24.8363   14.6508 C   0  0  0  0  0  0  0  0  0  0  0  0
  -30.8544  -26.1076   19.1531 C   0  0  0  0  0  0  0  0  0  0  0  0
  -31.2751  -21.3573   17.5867 C   0  0  0  0  0  0  0  0  0  0  0  0
  -28.2039  -32.3835   24.1743 C   0  0  0  0  0  0  0  0  0  0  0  0
  -24.2264  -29.2723   19.8882 C   0  0  0  0  0  0  0  0  0  0  0  0
  -25.9410  -31.0433   20.3266 C   0  0  0  0  0  0  0  0  0  0  0  0
  -23.7326  -31.1342   21.4831 C   0  0  0  0  0  0  0  0  0  0  0  0
  -28.2045  -29.2316   26.3053 C   0  0  0  0  0  0  0  0  0  0  0  0
  -30.0016  -22.0845   15.0924 C   0  0  0  0  0  0  0  0  0  0  0  0
  -31.7126  -23.3611   19.6360 C   0  0  0  0  0  0  0  0  0  0  0  0
  -28.8278  -21.1336   15.3797 C   0  0  0  0  0  0  0  0  0  0  0  0
  -30.7942  -22.6106   20.6028 C   0  0  0  0  0  0  0  0  0  0  0  0
  -27.4785  -21.8564   15.4446 C   0  0  0  0  0  0  0  0  0  0  0  0
  -26.3349  -20.8730   15.7058 C   0  0  0  0  0  0  0  0  0  0  0  0
  -24.9819  -21.5902   15.7314 C   0  0  0  0  0  0  0  0  0  0  0  0
  -23.8135  -20.6304   15.9305 C   0  0  0  0  0  0  0  0  0  0  0  0
  -29.6032  -23.4391   21.0702 C   0  0  0  0  0  0  0  0  0  1  0  0
  -25.4222  -29.3849   22.1736 C   0  0  1  0  0  0  0  0  0  0  0  0
  -27.6357  -31.0895   24.7358 C   0  0  2  0  0  0  0  0  0  0  0  0
  -24.8360  -30.1814   20.9739 C   0  0  0  0  0  0  0  0  0  0  0  0
  -25.4160  -15.9049   20.4846 N   0  0  0  0  0  0  0  0  0  0  0  0
  -26.0886  -17.0527   20.6752 N   0  0  0  0  0  0  0  0  0  0  0  0
  -24.6666  -27.1261   22.8451 N   0  0  0  0  0  0  0  0  0  0  0  0
  -23.4939  -19.5979   19.4928 N   0  0  0  0  0  0  0  0  0  0  0  0
  -28.2364  -17.9248   21.1618 N   0  0  0  0  0  0  0  0  0  0  0  0
  -28.9123  -13.4598   21.1094 N   0  0  0  0  0  0  0  0  0  0  0  0
  -21.5599  -25.4759   22.2486 N   0  0  0  0  0  0  0  0  0  0  0  0
  -25.9820  -30.2212   23.2298 N   0  0  0  0  0  0  0  0  0  0  0  0
  -23.8960  -19.9137   17.1836 N   0  0  0  0  0  0  0  0  0  0  0  0
  -28.6415  -30.4977   25.6626 N   0  3  0  0  0  0  0  0  0  0  0  0
  -29.9250  -15.4927   21.4265 O   0  0  0  0  0  0  0  0  0  0  0  0
  -23.5270  -25.5968   21.0082 O   0  0  0  0  0  0  0  0  0  0  0  0
  -23.3863  -29.0128   23.3326 O   0  0  0  0  0  0  0  0  0  0  0  0
  -28.1186  -29.3228   23.1601 O   0  0  0  0  0  0  0  0  0  0  0  0
  -22.7189  -21.4777   18.3775 O   0  0  0  0  0  0  0  0  0  0  0  0
  -25.0592   -9.5570   20.1314 O   0  0  0  0  0  0  0  0  0  0  0  0
  -28.8277  -22.6558   21.9766 O   0  0  0  0  0  0  0  0  0  1  0  0
  -20.4776   -7.7685   22.6243 F   0  0  0  0  0  0  0  0  0  0  0  0
  -22.5877  -10.6132   19.4842 F   0  0  0  0  0  0  0  0  0  0  0  0
  1  2  1  0  0  0  0
  1  5  2  0  0  0  0
  2  6  2  0  0  0  0
  3  8  2  0  0  0  0
  3 16  1  0  0  0  0
  4  9  1  0  0  0  0
  4 16  2  0  0  0  0
  5 18  1  0  0  0  0
  6 20  1  0  0  0  0
  7 10  2  0  0  0  0
  7 19  1  0  0  0  0
  8 27  1  0  0  0  0
  9 27  2  0  0  0  0
 10 28  1  0  0  0  0
 11 12  2  0  0  0  0
 11 29  1  0  0  0  0
 12 30  1  0  0  0  0
 13 21  1  0  0  0  0
 13 28  2  0  0  0  0
 14 22  1  0  0  0  0
 14 23  2  0  0  0  0
 15 30  2  0  0  0  0
 15 31  1  0  0  0  0
 16 32  1  0  0  0  0
 17 32  1  0  0  0  0
 17 33  2  0  0  0  0
 17 34  1  0  0  0  0
 18 20  2  0  0  0  0
 18 39  1  0  0  0  0
 19 21  2  0  0  0  0
 19 40  1  0  0  0  0
 20 48  1  0  0  0  0
 21 41  1  0  0  0  0
 22 25  2  0  0  0  0
 22 51  1  0  0  0  0
 23 26  1  0  0  0  0
 23 52  1  0  0  0  0
 24 25  1  0  0  0  0
 24 26  2  0  0  0  0
 24 53  1  0  0  0  0
 25 59  1  0  0  0  0
 26 60  1  0  0  0  0
 27 86  1  0  0  0  0
 28 87  1  0  0  0  0
 29 31  2  0  0  0  0
 29 86  1  0  0  0  0
 30 88  1  0  0  0  0
 31 89  1  0  0  0  0
 32 71  2  0  0  0  0
 33 72  1  0  0  0  0
 33 75  1  0  0  0  0
 34 76  1  0  0  0  0
 34 81  2  0  0  0  0
 35 49  1  0  0  0  0
 35 77  1  0  0  0  0
 35 82  2  0  0  0  0
 36 68  1  0  0  0  0
 36 73  1  0  0  0  0
 36 83  2  0  0  0  0
 37 69  1  0  0  0  0
 37 78  1  0  0  0  0
 37 84  2  0  0  0  0
 38 74  1  0  0  0  0
 38 79  1  0  0  0  0
 38 85  2  0  0  0  0
 39 42  1  0  0  0  0
 40 49  1  0  0  0  0
 41 73  1  0  0  0  0
 42 44  1  0  0  0  0
 43 45  1  0  0  0  0
 43 46  1  0  0  0  0
 44 48  1  0  0  0  0
 45 50  1  0  0  0  0
 46 74  1  0  0  0  0
 47 50  1  0  0  0  0
 47 74  1  0  0  0  0
 48 77  1  0  0  0  0
 49 73  1  0  0  0  0
 50 72  1  0  0  0  0
 54 69  1  0  0  0  0
 55 70  1  0  0  0  0
 56 70  1  0  0  0  0
 57 70  1  0  0  0  0
 58 80  1  0  0  0  0
 59 61  1  0  0  0  0
 60 62  1  0  0  0  0
 61 63  1  0  0  0  0
 62 67  1  0  0  0  0
 63 64  1  0  0  0  0
 64 65  1  0  0  0  0
 65 66  1  0  0  0  0
 66 79  1  0  0  0  0
 67 87  1  0  0  0  0
 68 70  1  0  0  0  0
 68 78  1  0  0  0  0
 69 80  1  0  0  0  0
 71 72  1  0  0  0  0
M  CHG  1  80   1
M  ISO  4  38 100  67 101  79 100  87 101
M  END
> <Batch ID>
0034

> <Smiles>
CNC(C)C(=O)NC(C(=O)N1Cc2cc([101O:1][101CH2:1]CCc3c(C)cc(C)c(CCCCCC[100NH:0][100C:0](=O)N4CCCC(n5nc(-c6ccc(Oc7ccc(F)cc7F)cc6)c(C(N)=O)c5N)C4)c3C)ccc2CC1C(=O)NC1CCCc2ccccc21)C(C)(C)C

> <Shape>
0.226

> <Color>
0.053

> <Negative vol penalty>
0.000

$$$$

  -OEChem-04052316502D

  0  0  0     0  0  0  0  0  0999 V2000
M  END
$$$$

  -OEChem-04052316503D

 86 94  0     1  0  0  0  0  0999 V2000
  -22.7471  -11.4063   18.3664 C   0  0  0  0  0  0  0  0  0  0  0  0
  -22.2739  -12.7049   18.5253 C   0  0  0  0  0  0  0  0  0  0  0  0
  -29.7001  -27.8331   18.9722 C   0  0  0  0  0  0  0  0  0  0  0  0
  -29.6391  -28.0174   21.3804 C   0  0  0  0  0  0  0  0  0  0  0  0
  -23.8909  -10.9941   19.0489 C   0  0  0  0  0  0  0  0  0  0  0  0
  -22.9437  -13.5917   19.3676 C   0  0  0  0  0  0  0  0  0  0  0  0
  -23.5843  -19.6328   18.5928 C   0  0  0  0  0  0  0  0  0  0  0  0
  -31.0944  -27.8491   19.0063 C   0  0  0  0  0  0  0  0  0  0  0  0
  -31.0334  -28.0334   21.4145 C   0  0  0  0  0  0  0  0  0  0  0  0
  -22.8998  -20.7245   19.1251 C   0  0  0  0  0  0  0  0  0  0  0  0
  -33.5511  -30.1463   19.3408 C   0  0  0  0  0  0  0  0  0  0  0  0
  -34.2119  -30.9590   18.4196 C   0  0  0  0  0  0  0  0  0  0  0  0
  -24.5924  -20.9472   20.8294 C   0  0  0  0  0  0  0  0  0  0  0  0
  -19.8316  -25.9739   23.7790 C   0  0  0  0  0  0  0  0  0  0  0  0
  -18.6995  -27.7644   21.9637 C   0  0  0  0  0  0  0  0  0  0  0  0
  -35.3284  -29.0193   17.5095 C   0  0  0  0  0  0  0  0  0  0  0  0
  -28.9724  -27.9172   20.1593 C   0  0  0  0  0  0  0  0  0  0  0  0
  -26.6926  -26.7731   20.1899 C   0  0  0  0  0  0  0  0  0  0  0  0
  -24.5805  -11.8791   19.8925 C   0  0  0  0  0  0  0  0  0  0  0  0
  -24.7743  -19.1826   19.1824 C   0  0  0  0  0  0  0  0  0  0  0  0
  -24.0970  -13.1904   20.0630 C   0  0  0  0  0  0  0  0  0  0  0  0
  -25.2915  -19.8512   20.3012 C   0  0  0  0  0  0  0  0  0  0  0  0
  -20.1931  -27.3207   23.8102 C   0  0  0  0  0  0  0  0  0  0  0  0
  -18.9041  -25.5223   22.8401 C   0  0  0  0  0  0  0  0  0  0  0  0
  -18.3380  -26.4176   21.9325 C   0  0  0  0  0  0  0  0  0  0  0  0
  -19.6271  -28.2160   22.9026 C   0  0  0  0  0  0  0  0  0  0  0  0
  -31.7611  -27.9492   20.2274 C   0  0  0  0  0  0  0  0  0  0  0  0
  -23.4022  -21.3801   20.2453 C   0  0  0  0  0  0  0  0  0  0  0  0
  -33.7791  -28.7702   19.3464 C   0  0  0  0  0  0  0  0  0  0  0  0
  -35.1005  -30.3955   17.5039 C   0  0  0  0  0  0  0  0  0  0  0  0
  -34.6677  -28.2067   18.4307 C   0  0  0  0  0  0  0  0  0  0  0  0
  -27.5320  -27.9013   20.1246 C   0  0  0  0  0  0  0  0  0  0  0  0
  -25.4208  -27.2869   20.1192 C   0  0  0  0  0  0  0  0  0  0  0  0
  -27.0321  -25.3848   20.3043 C   0  0  0  0  0  0  0  0  0  0  0  0
  -25.7093  -16.4771   20.5644 C   0  0  0  0  0  0  0  0  0  0  0  0
  -28.5977  -17.9527   20.6061 C   0  0  0  0  0  0  0  0  0  0  0  0
  -30.3585  -20.8760   20.5717 C   0  0  0  0  0  0  0  0  0  0  0  0
  -21.6054  -31.0627   21.6461 C   0  0  0  0  0  0  0  0  0  0  0  0
  -25.7853  -11.3736   20.6459 C   0  0  0  0  0  0  0  0  0  0  0  0
  -25.5148  -18.0201   18.5802 C   0  0  0  0  0  0  0  0  0  0  0  0
  -26.5758  -19.4198   20.9592 C   0  0  0  0  0  0  0  0  0  0  0  0
  -26.6510  -12.4879   21.2285 C   0  0  0  0  0  0  0  0  0  0  0  0
  -23.8111  -31.9487   18.9954 C   0  0  0  0  0  0  0  0  0  0  0  0
  -25.7826  -13.5262   21.9316 C   0  0  0  0  0  0  0  0  0  0  0  0
  -24.9091  -30.8858   19.0625 C   0  0  0  0  0  0  0  0  0  0  0  0
  -23.3160  -32.3372   20.3868 C   0  0  0  0  0  0  0  0  0  0  0  0
  -23.9776  -30.1433   21.2940 C   0  0  0  0  0  0  0  0  0  0  0  0
  -24.8101  -14.1891   20.9486 C   0  0  1  0  0  0  0  0  0  0  0  0
  -26.4470  -17.3280   19.5698 C   0  0  1  0  0  0  0  0  0  0  0  0
  -24.4697  -29.6786   19.9127 C   0  0  2  0  0  0  0  0  0  0  0  0
  -21.1877  -27.7812   24.8247 C   0  0  0  0  0  0  0  0  0  0  0  0
  -14.8997  -25.8965   20.2558 C   0  0  0  0  0  0  0  0  0  0  0  0
  -32.7042  -21.7638   20.6539 C   0  0  0  0  0  0  0  0  0  0  0  0
  -28.7059  -17.3825   23.6016 C   0  0  0  0  0  0  0  0  0  0  0  0
  -30.5413  -19.0751   23.7868 C   0  0  0  0  0  0  0  0  0  0  0  0
  -30.8676  -17.0315   22.3941 C   0  0  0  0  0  0  0  0  0  0  0  0
  -30.0933  -22.1496   17.9134 C   0  0  0  0  0  0  0  0  0  0  0  0
  -18.5294  -24.0617   22.8250 C   0  0  0  0  0  0  0  0  0  0  0  0
  -17.3435  -25.9571   20.9179 C   0  0  0  0  0  0  0  0  0  0  0  0
  -19.9984  -29.6625   22.9175 C   0  0  0  0  0  0  0  0  0  0  0  0
  -15.9072  -26.3364   21.3062 C   0  0  0  0  0  0  0  0  0  0  0  0
  -19.1795  -23.2675   21.6867 C   0  0  0  0  0  0  0  0  0  0  0  0
  -20.7053  -23.2253   21.7815 C   0  0  0  0  0  0  0  0  0  0  0  0
  -21.3171  -22.4627   20.6141 C   0  0  0  0  0  0  0  0  0  1  0  0
  -29.3225  -18.8568   21.5737 C   0  0  1  0  0  0  0  0  0  0  0  0
  -31.5601  -21.3186   19.7564 C   0  0  2  0  0  0  0  0  0  0  0  0
  -29.8341  -18.0936   22.8280 C   0  0  0  0  0  0  0  0  0  0  0  0
  -26.8509  -29.0455   20.0203 N   0  0  0  0  0  0  0  0  0  0  0  0
  -25.5700  -28.6389   20.0194 N   0  0  0  0  0  0  0  0  0  0  0  0
  -27.2597  -18.2741   20.3370 N   0  0  0  0  0  0  0  0  0  0  0  0
  -22.9132  -31.1475   21.1406 N   0  0  0  0  0  0  0  0  0  0  0  0
  -24.2006  -26.7095   20.1331 N   0  0  0  0  0  0  0  0  0  0  0  0
  -28.3869  -25.0311   20.3650 N   0  0  0  0  0  0  0  0  0  0  0  0
  -25.4983  -15.1772   20.1457 N   0  0  0  0  0  0  0  0  0  0  0  0
  -30.3730  -19.5173   20.8065 N   0  0  0  0  0  0  0  0  0  0  0  0
  -21.3042  -29.8989   22.3431 N   0  0  0  0  0  0  0  0  0  0  0  0
  -31.1916  -22.4553   18.8659 N   0  3  0  0  0  0  0  0  0  0  0  0
  -26.1603  -24.4834   20.3348 O   0  0  0  0  0  0  0  0  0  0  0  0
  -25.3588  -16.9634   21.6332 O   0  0  0  0  0  0  0  0  0  0  0  0
  -29.1987  -17.0008   20.1018 O   0  0  0  0  0  0  0  0  0  0  0  0
  -29.4953  -21.6579   20.9643 O   0  0  0  0  0  0  0  0  0  0  0  0
  -20.7666  -31.9554   21.4835 O   0  0  0  0  0  0  0  0  0  0  0  0
  -33.1217  -27.9647   20.2611 O   0  0  0  0  0  0  0  0  0  0  0  0
  -22.7357  -22.4456   20.7672 O   0  0  0  0  0  0  0  0  0  1  0  0
  -35.7338  -31.1758   16.6183 F   0  0  0  0  0  0  0  0  0  0  0  0
  -34.8898  -26.8852   18.4305 F   0  0  0  0  0  0  0  0  0  0  0  0
  1  2  1  0  0  0  0
  1  5  2  0  0  0  0
  2  6  2  0  0  0  0
  3  8  2  0  0  0  0
  3 17  1  0  0  0  0
  4  9  1  0  0  0  0
  4 17  2  0  0  0  0
  5 19  1  0  0  0  0
  6 21  1  0  0  0  0
  7 10  2  0  0  0  0
  7 20  1  0  0  0  0
  8 27  1  0  0  0  0
  9 27  2  0  0  0  0
 10 28  1  0  0  0  0
 11 12  2  0  0  0  0
 11 29  1  0  0  0  0
 12 30  1  0  0  0  0
 13 22  1  0  0  0  0
 13 28  2  0  0  0  0
 14 23  2  0  0  0  0
 14 24  1  0  0  0  0
 15 25  1  0  0  0  0
 15 26  2  0  0  0  0
 16 30  2  0  0  0  0
 16 31  1  0  0  0  0
 17 32  1  0  0  0  0
 18 32  1  0  0  0  0
 18 33  2  0  0  0  0
 18 34  1  0  0  0  0
 19 21  2  0  0  0  0
 19 39  1  0  0  0  0
 20 22  2  0  0  0  0
 20 40  1  0  0  0  0
 21 48  1  0  0  0  0
 22 41  1  0  0  0  0
 23 26  1  0  0  0  0
 23 51  1  0  0  0  0
 24 25  2  0  0  0  0
 24 58  1  0  0  0  0
 25 59  1  0  0  0  0
 26 60  1  0  0  0  0
 27 83  1  0  0  0  0
 28 84  1  0  0  0  0
 29 31  2  0  0  0  0
 29 83  1  0  0  0  0
 30 85  1  0  0  0  0
 31 86  1  0  0  0  0
 32 68  2  0  0  0  0
 33 69  1  0  0  0  0
 33 72  1  0  0  0  0
 34 73  1  0  0  0  0
 34 78  2  0  0  0  0
 35 49  1  0  0  0  0
 35 74  1  0  0  0  0
 35 79  2  0  0  0  0
 36 65  1  0  0  0  0
 36 70  1  0  0  0  0
 36 80  2  0  0  0  0
 37 66  1  0  0  0  0
 37 75  1  0  0  0  0
 37 81  2  0  0  0  0
 38 71  1  0  0  0  0
 38 76  1  0  0  0  0
 38 82  2  0  0  0  0
 39 42  1  0  0  0  0
 40 49  1  0  0  0  0
 41 70  1  0  0  0  0
 42 44  1  0  0  0  0
 43 45  1  0  0  0  0
 43 46  1  0  0  0  0
 44 48  1  0  0  0  0
 45 50  1  0  0  0  0
 46 71  1  0  0  0  0
 47 50  1  0  0  0  0
 47 71  1  0  0  0  0
 48 74  1  0  0  0  0
 49 70  1  0  0  0  0
 50 69  1  0  0  0  0
 52 61  1  0  0  0  0
 53 66  1  0  0  0  0
 54 67  1  0  0  0  0
 55 67  1  0  0  0  0
 56 67  1  0  0  0  0
 57 77  1  0  0  0  0
 58 62  1  0  0  0  0
 59 61  1  0  0  0  0
 60 76  1  0  0  0  0
 62 63  1  0  0  0  0
 63 64  1  0  0  0  0
 64 84  1  0  0  0  0
 65 67  1  0  0  0  0
 65 75  1  0  0  0  0
 66 77  1  0  0  0  0
 68 69  1  0  0  0  0
M  CHG  1  77   1
M  ISO  4  38 100  64 101  76 100  84 101
M  END
> <Batch ID>
0034

> <Smiles>
CCCc1cc(C[100NH:0][100C:0](=O)N2CCCC(n3nc(-c4ccc(Oc5ccc(F)cc5F)cc4)c(C(N)=O)c3N)C2)c(C)cc1CCC[101CH2:1][101O:1]c1ccc2c(c1)CN(C(=O)C(NC(=O)C(C)NC)C(C)(C)C)C(C(=O)NC1CCCc3ccccc31)C2

> <Shape>
0.226

> <Color>
0.084

> <Negative vol penalty>
0.000

$$$$

  -OEChem-04052316503D

 92100  0     1  0  0  0  0  0999 V2000
  -16.3290  -29.4719   23.6830 C   0  0  0  0  0  0  0  0  0  0  0  0
  -17.0626  -28.3348   24.0058 C   0  0  0  0  0  0  0  0  0  0  0  0
  -23.1409  -10.8120   21.3619 C   0  0  0  0  0  0  0  0  0  0  0  0
  -24.6814   -8.9509   21.3627 C   0  0  0  0  0  0  0  0  0  0  0  0
  -16.8461  -30.4009   22.7810 C   0  0  0  0  0  0  0  0  0  0  0  0
  -18.3133  -28.1255   23.4259 C   0  0  0  0  0  0  0  0  0  0  0  0
  -24.7231  -25.2658   24.8589 C   0  0  0  0  0  0  0  0  0  0  0  0
  -22.0735   -9.9286   21.5227 C   0  0  0  0  0  0  0  0  0  0  0  0
  -23.6140   -8.0674   21.5236 C   0  0  0  0  0  0  0  0  0  0  0  0
  -25.6406  -24.3591   24.3299 C   0  0  0  0  0  0  0  0  0  0  0  0
  -21.6238   -6.9998   24.0375 C   0  0  0  0  0  0  0  0  0  0  0  0
  -21.7634   -5.9821   24.9811 C   0  0  0  0  0  0  0  0  0  0  0  0
  -26.4678  -26.0713   22.8455 C   0  0  0  0  0  0  0  0  0  0  0  0
  -29.6372  -21.4630   23.3883 C   0  0  0  0  0  0  0  0  0  0  0  0
  -21.4683   -4.3300   23.2431 C   0  0  0  0  0  0  0  0  0  0  0  0
  -24.4449  -10.3231   21.2818 C   0  0  0  0  0  0  0  0  0  0  0  0
  -26.2983  -11.8565   22.1312 C   0  0  0  0  0  0  0  0  0  0  0  0
  -18.1080  -30.2076   22.1972 C   0  0  0  0  0  0  0  0  0  0  0  0
  -24.6636  -26.5813   24.3768 C   0  0  0  0  0  0  0  0  0  0  0  0
  -18.8472  -29.0520   22.5143 C   0  0  0  0  0  0  0  0  0  0  0  0
  -25.5504  -26.9935   23.3719 C   0  0  0  0  0  0  0  0  0  0  0  0
  -30.6477  -20.7059   22.7957 C   0  0  0  0  0  0  0  0  0  0  0  0
  -28.4691  -21.7437   22.6795 C   0  0  0  0  0  0  0  0  0  0  0  0
  -28.3116  -21.2674   21.3780 C   0  0  0  0  0  0  0  0  0  0  0  0
  -29.3221  -20.5102   20.7853 C   0  0  0  0  0  0  0  0  0  0  0  0
  -30.4902  -20.2295   21.4942 C   0  0  0  0  0  0  0  0  0  0  0  0
  -22.3101   -8.5563   21.6036 C   0  0  0  0  0  0  0  0  0  0  0  0
  -26.5111  -24.7609   23.3211 C   0  0  0  0  0  0  0  0  0  0  0  0
  -21.4064   -6.6826   22.6966 C   0  0  0  0  0  0  0  0  0  0  0  0
  -21.6857   -4.6473   24.5839 C   0  0  0  0  0  0  0  0  0  0  0  0
  -21.3287   -5.3477   22.2994 C   0  0  0  0  0  0  0  0  0  0  0  0
  -25.5478  -11.2351   21.1150 C   0  0  0  0  0  0  0  0  0  0  0  0
  -27.2215  -12.6193   21.4587 C   0  0  0  0  0  0  0  0  0  0  0  0
  -26.1721  -11.7533   23.5557 C   0  0  0  0  0  0  0  0  0  0  0  0
  -22.4496  -28.3402   22.9248 C   0  0  0  0  0  0  0  0  0  0  0  0
  -24.6349  -30.7065   23.3092 C   0  0  0  0  0  0  0  0  0  0  0  0
  -27.9027  -31.5899   23.7424 C   0  0  0  0  0  0  0  0  0  0  0  0
  -29.6405  -12.2174   15.9963 C   0  0  0  0  0  0  0  0  0  0  0  0
  -18.6047  -31.2160   21.1916 C   0  0  0  0  0  0  0  0  0  0  0  0
  -23.6864  -27.5548   24.9766 C   0  0  0  0  0  0  0  0  0  0  0  0
  -25.5407  -28.4002   22.8338 C   0  0  0  0  0  0  0  0  0  0  0  0
  -20.1006  -31.1067   20.9074 C   0  0  0  0  0  0  0  0  0  0  0  0
  -27.8443  -14.9803   17.3442 C   0  0  0  0  0  0  0  0  0  0  0  0
  -20.4956  -29.6513   20.6787 C   0  0  0  0  0  0  0  0  0  0  0  0
  -27.1198  -14.3898   18.5552 C   0  0  0  0  0  0  0  0  0  0  0  0
  -27.9153  -13.9848   16.1884 C   0  0  0  0  0  0  0  0  0  0  0  0
  -27.7663  -12.0816   17.7471 C   0  0  0  0  0  0  0  0  0  0  0  0
  -20.2185  -28.8020   21.9251 C   0  0  1  0  0  0  0  0  0  0  0  0
  -23.3653  -28.7252   24.0522 C   0  0  1  0  0  0  0  0  0  0  0  0
  -27.7187  -13.0289   18.9582 C   0  0  2  0  0  0  0  0  0  0  0  0
  -31.8888  -20.4200   23.5763 C   0  0  0  0  0  0  0  0  0  0  0  0
  -27.0581  -21.5706   20.6198 C   0  0  0  0  0  0  0  0  0  0  0  0
  -29.1529  -19.9987   19.3894 C   0  0  0  0  0  0  0  0  0  0  0  0
  -29.3842  -33.6009   23.9850 C   0  0  0  0  0  0  0  0  0  0  0  0
  -24.4064  -31.2334   20.3125 C   0  0  0  0  0  0  0  0  0  0  0  0
  -26.5346  -32.5447   20.4514 C   0  0  0  0  0  0  0  0  0  0  0  0
  -24.5257  -33.2920   21.7276 C   0  0  0  0  0  0  0  0  0  0  0  0
  -28.7971  -30.7504   26.4358 C   0  0  0  0  0  0  0  0  0  0  0  0
  -31.5841  -19.4111   20.8560 C   0  0  0  0  0  0  0  0  0  0  0  0
  -27.4019  -22.5559   23.3374 C   0  0  0  0  0  0  0  0  0  1  0  0
  -31.3090  -17.9031   20.8549 C   0  0  0  0  0  0  0  0  0  0  0  0
  -32.4252  -17.0908   20.1908 C   0  0  0  0  0  0  0  0  0  0  0  0
  -32.0946  -15.5968   20.1847 C   0  0  0  0  0  0  0  0  0  0  0  0
  -33.2226  -14.7805   19.5514 C   0  0  0  0  0  0  0  0  0  0  0  0
  -32.9074  -13.2832   19.5755 C   0  0  0  0  0  0  0  0  0  0  0  0
  -34.0200  -12.4724   18.9082 C   0  0  0  0  0  0  0  0  0  0  0  0
  -33.7604  -10.9629   18.9104 C   0  0  0  0  0  0  0  0  0  0  0  0
  -32.5228  -10.4964   18.1379 C   0  0  0  0  0  0  0  0  0  0  0  0
  -32.5694  -10.8384   16.6483 C   0  0  0  0  0  0  0  0  0  0  0  0
  -31.3036  -10.3764   15.9360 C   0  0  0  0  0  0  0  0  0  0  0  0
  -25.7880  -31.2397   22.4936 C   0  0  1  0  0  0  0  0  0  0  0  0
  -28.5669  -32.5469   24.7158 C   0  0  2  0  0  0  0  0  0  0  0  0
  -25.3128  -32.0503   21.2549 C   0  0  0  0  0  0  0  0  0  0  0  0
  -25.9587  -11.5740   19.8901 N   0  0  0  0  0  0  0  0  0  0  0  0
  -26.9772  -12.4166   20.1322 N   0  0  0  0  0  0  0  0  0  0  0  0
  -24.5626  -29.3132   23.4481 N   0  0  0  0  0  0  0  0  0  0  0  0
  -28.4940  -12.7159   16.6367 N   0  0  0  0  0  0  0  0  0  0  0  0
  -28.2102  -13.4369   21.8785 N   0  0  0  0  0  0  0  0  0  0  0  0
  -25.1701  -10.9250   24.0794 N   0  0  0  0  0  0  0  0  0  0  0  0
  -21.2452  -29.0175   22.9220 N   0  0  0  0  0  0  0  0  0  0  0  0
  -26.6259  -31.9965   23.4175 N   0  0  0  0  0  0  0  0  0  0  0  0
  -30.1279  -11.0124   16.4872 N   0  0  0  0  0  0  0  0  0  0  0  0
  -29.4737  -31.8035   25.6357 N   0  3  0  0  0  0  0  0  0  0  0  0
  -26.9151  -12.3898   24.3408 O   0  0  0  0  0  0  0  0  0  0  0  0
  -22.8099  -27.4926   22.1165 O   0  0  0  0  0  0  0  0  0  0  0  0
  -23.8321  -31.4975   23.8107 O   0  0  0  0  0  0  0  0  0  0  0  0
  -28.4621  -30.5844   23.3104 O   0  0  0  0  0  0  0  0  0  0  0  0
  -30.1922  -12.8056   15.0600 O   0  0  0  0  0  0  0  0  0  0  0  0
  -21.2688   -7.6941   21.7609 O   0  0  0  0  0  0  0  0  0  0  0  0
  -27.4136  -23.8714   22.7988 O   0  0  0  0  0  0  0  0  0  1  0  0
  -21.8213   -3.6701   25.4900 F   0  0  0  0  0  0  0  0  0  0  0  0
  -21.1212   -5.0368   21.0125 F   0  0  0  0  0  0  0  0  0  0  0  0
  1  2  1  0  0  0  0
  1  5  2  0  0  0  0
  2  6  2  0  0  0  0
  3  8  2  0  0  0  0
  3 16  1  0  0  0  0
  4  9  1  0  0  0  0
  4 16  2  0  0  0  0
  5 18  1  0  0  0  0
  6 20  1  0  0  0  0
  7 10  2  0  0  0  0
  7 19  1  0  0  0  0
  8 27  1  0  0  0  0
  9 27  2  0  0  0  0
 10 28  1  0  0  0  0
 11 12  2  0  0  0  0
 11 29  1  0  0  0  0
 12 30  1  0  0  0  0
 13 21  1  0  0  0  0
 13 28  2  0  0  0  0
 14 22  2  0  0  0  0
 14 23  1  0  0  0  0
 15 30  2  0  0  0  0
 15 31  1  0  0  0  0
 16 32  1  0  0  0  0
 17 32  1  0  0  0  0
 17 33  2  0  0  0  0
 17 34  1  0  0  0  0
 18 20  2  0  0  0  0
 18 39  1  0  0  0  0
 19 21  2  0  0  0  0
 19 40  1  0  0  0  0
 20 48  1  0  0  0  0
 21 41  1  0  0  0  0
 22 26  1  0  0  0  0
 22 51  1  0  0  0  0
 23 24  2  0  0  0  0
 23 60  1  0  0  0  0
 24 25  1  0  0  0  0
 24 52  1  0  0  0  0
 25 26  2  0  0  0  0
 25 53  1  0  0  0  0
 26 59  1  0  0  0  0
 27 89  1  0  0  0  0
 28 90  1  0  0  0  0
 29 31  2  0  0  0  0
 29 89  1  0  0  0  0
 30 91  1  0  0  0  0
 31 92  1  0  0  0  0
 32 74  2  0  0  0  0
 33 75  1  0  0  0  0
 33 78  1  0  0  0  0
 34 79  1  0  0  0  0
 34 84  2  0  0  0  0
 35 49  1  0  0  0  0
 35 80  1  0  0  0  0
 35 85  2  0  0  0  0
 36 71  1  0  0  0  0
 36 76  1  0  0  0  0
 36 86  2  0  0  0  0
 37 72  1  0  0  0  0
 37 81  1  0  0  0  0
 37 87  2  0  0  0  0
 38 77  1  0  0  0  0
 38 82  1  0  0  0  0
 38 88  2  0  0  0  0
 39 42  1  0  0  0  0
 40 49  1  0  0  0  0
 41 76  1  0  0  0  0
 42 44  1  0  0  0  0
 43 45  1  0  0  0  0
 43 46  1  0  0  0  0
 44 48  1  0  0  0  0
 45 50  1  0  0  0  0
 46 77  1  0  0  0  0
 47 50  1  0  0  0  0
 47 77  1  0  0  0  0
 48 80  1  0  0  0  0
 49 76  1  0  0  0  0
 50 75  1  0  0  0  0
 54 72  1  0  0  0  0
 55 73  1  0  0  0  0
 56 73  1  0  0  0  0
 57 73  1  0  0  0  0
 58 83  1  0  0  0  0
 59 61  1  0  0  0  0
 60 90  1  0  0  0  0
 61 62  1  0  0  0  0
 62 63  1  0  0  0  0
 63 64  1  0  0  0  0
 64 65  1  0  0  0  0
 65 66  1  0  0  0  0
 66 67  1  0  0  0  0
 67 68  1  0  0  0  0
 68 69  1  0  0  0  0
 69 70  1  0  0  0  0
 70 82  1  0  0  0  0
 71 73  1  0  0  0  0
 71 81  1  0  0  0  0
 72 83  1  0  0  0  0
 74 75  1  0  0  0  0
M  CHG  1  83   1
M  ISO  4  38 100  60 101  82 100  90 101
M  END
> <Batch ID>
0034

> <Smiles>
CNC(C)C(=O)NC(C(=O)N1Cc2cc([101O:1][101CH2:1]c3cc(C)c(CCCCCCCCCCC[100NH:0][100C:0](=O)N4CCCC(n5nc(-c6ccc(Oc7ccc(F)cc7F)cc6)c(C(N)=O)c5N)C4)c(C)c3C)ccc2CC1C(=O)NC1CCCc2ccccc21)C(C)(C)C

> <Shape>
0.264

> <Color>
0.101

> <Negative vol penalty>
0.000

$$$$

  -OEChem-04052316503D

 91100  0     1  0  0  0  0  0999 V2000
  -17.2295  -30.9029   23.6056 C   0  0  0  0  0  0  0  0  0  0  0  0
  -18.5673  -31.2562   23.4607 C   0  0  0  0  0  0  0  0  0  0  0  0
  -25.7383  -13.6160   19.7875 C   0  0  0  0  0  0  0  0  0  0  0  0
  -25.0178  -14.7622   21.7885 C   0  0  0  0  0  0  0  0  0  0  0  0
  -16.8481  -29.5656   23.5060 C   0  0  0  0  0  0  0  0  0  0  0  0
  -19.5247  -30.2720   23.2171 C   0  0  0  0  0  0  0  0  0  0  0  0
  -25.7149  -29.2386   19.7632 C   0  0  0  0  0  0  0  0  0  0  0  0
  -24.7551  -12.6473   19.9883 C   0  0  0  0  0  0  0  0  0  0  0  0
  -24.0345  -13.7934   21.9893 C   0  0  0  0  0  0  0  0  0  0  0  0
  -27.0089  -28.7711   19.9884 C   0  0  0  0  0  0  0  0  0  0  0  0
  -24.3087   -9.9172   21.9304 C   0  0  0  0  0  0  0  0  0  0  0  0
  -24.6754   -8.5805   21.7741 C   0  0  0  0  0  0  0  0  0  0  0  0
  -26.2230  -26.5022   19.7571 C   0  0  0  0  0  0  0  0  0  0  0  0
  -23.0366   -8.3365   20.0157 C   0  0  0  0  0  0  0  0  0  0  0  0
  -25.8697  -14.6734   20.6876 C   0  0  0  0  0  0  0  0  0  0  0  0
  -28.2776  -15.4727   20.4210 C   0  0  0  0  0  0  0  0  0  0  0  0
  -17.8000  -28.5656   23.2514 C   0  0  0  0  0  0  0  0  0  0  0  0
  -24.6614  -28.3394   19.5437 C   0  0  0  0  0  0  0  0  0  0  0  0
  -19.1558  -28.9199   23.1153 C   0  0  0  0  0  0  0  0  0  0  0  0
  -24.9170  -26.9609   19.5268 C   0  0  0  0  0  0  0  0  0  0  0  0
  -31.1786  -26.5504   21.8097 C   0  0  0  0  0  0  0  0  0  0  0  0
  -32.4263  -25.9191   21.9120 C   0  0  0  0  0  0  0  0  0  0  0  0
  -30.8557  -27.2228   20.6245 C   0  0  0  0  0  0  0  0  0  0  0  0
  -23.9031  -12.7359   21.0891 C   0  0  0  0  0  0  0  0  0  0  0  0
  -27.2626  -27.4026   19.9883 C   0  0  0  0  0  0  0  0  0  0  0  0
  -23.3058  -10.4635   21.1294 C   0  0  0  0  0  0  0  0  0  0  0  0
  -24.0394   -7.7902   20.8167 C   0  0  0  0  0  0  0  0  0  0  0  0
  -22.6698   -9.6732   20.1720 C   0  0  0  0  0  0  0  0  0  0  0  0
  -26.8856  -15.6742   20.4811 C   0  0  0  0  0  0  0  0  0  0  0  0
  -33.2787  -26.0037   20.8105 C   0  0  0  0  0  0  0  0  0  0  0  0
  -31.7801  -27.2381   19.5930 C   0  0  0  0  0  0  0  0  0  0  0  0
  -28.7972  -16.7265   20.2100 C   0  0  0  0  0  0  0  0  0  0  0  0
  -29.0333  -14.2606   20.5448 C   0  0  0  0  0  0  0  0  0  0  0  0
  -21.9448  -27.6572   21.0464 C   0  0  0  0  0  0  0  0  0  0  0  0
  -21.4446  -25.7631   18.4610 C   0  0  0  0  0  0  0  0  0  0  0  0
  -22.5236  -23.4433   15.9170 C   0  0  0  0  0  0  0  0  0  0  0  0
  -26.5120  -21.5615   17.7089 C   0  0  0  0  0  0  0  0  0  0  0  0
  -17.3465  -27.1282   23.1991 C   0  0  0  0  0  0  0  0  0  0  0  0
  -23.2761  -28.8606   19.2758 C   0  0  0  0  0  0  0  0  0  0  0  0
  -30.1844  -26.5349   22.9432 C   0  0  0  0  0  0  0  0  0  0  0  0
  -32.8642  -25.1833   23.1483 C   0  0  0  0  0  0  0  0  0  0  0  0
  -23.8246  -25.9548   19.2760 C   0  0  0  0  0  0  0  0  0  0  0  0
  -18.3706  -26.1891   22.5668 C   0  0  0  0  0  0  0  0  0  0  0  0
  -29.6932  -25.1307   23.2937 C   0  0  0  0  0  0  0  0  0  0  0  0
  -31.9867  -23.9743   23.4709 C   0  0  0  0  0  0  0  0  0  0  0  0
  -30.6683  -24.3305   24.1557 C   0  0  0  0  0  0  0  0  0  0  0  0
  -27.8839  -21.3488   21.0511 C   0  0  0  0  0  0  0  0  0  0  0  0
  -19.7608  -26.4543   23.1358 C   0  0  0  0  0  0  0  0  0  0  0  0
  -27.9129  -19.8354   21.2722 C   0  0  0  0  0  0  0  0  0  0  0  0
  -26.6456  -21.7689   20.2646 C   0  0  0  0  0  0  0  0  0  0  0  0
  -26.5112  -19.5628   19.1744 C   0  0  0  0  0  0  0  0  0  0  0  0
  -20.2203  -27.8840   22.8257 C   0  0  1  0  0  0  0  0  0  0  0  0
  -22.1847  -27.8374   19.5741 C   0  0  1  0  0  0  0  0  0  0  0  0
  -27.7506  -19.0719   19.9444 C   0  0  2  0  0  0  0  0  0  0  0  0
  -34.6296  -25.3630   20.8152 C   0  0  0  0  0  0  0  0  0  0  0  0
  -21.9261  -22.1394   13.8578 C   0  0  0  0  0  0  0  0  0  0  0  0
  -20.9675  -23.4559   20.3999 C   0  0  0  0  0  0  0  0  0  0  0  0
  -21.2633  -21.8745   18.4816 C   0  0  0  0  0  0  0  0  0  0  0  0
  -19.3952  -23.5274   18.4563 C   0  0  0  0  0  0  0  0  0  0  0  0
  -23.7590  -25.4616   14.1397 C   0  0  0  0  0  0  0  0  0  0  0  0
  -29.5410  -27.9200   20.4327 C   0  0  0  0  0  0  0  0  0  1  0  0
  -31.4759  -27.9401   18.3096 C   0  0  0  0  0  0  0  0  0  0  0  0
  -30.5569  -27.1507   17.3601 C   0  0  0  0  0  0  0  0  0  0  0  0
  -31.1188  -25.7696   17.0052 C   0  0  0  0  0  0  0  0  0  0  0  0
  -30.1853  -24.9469   16.1115 C   0  0  0  0  0  0  0  0  0  0  0  0
  -28.7937  -24.7399   16.7148 C   0  0  0  0  0  0  0  0  0  0  0  0
  -27.9131  -23.8885   15.7939 C   0  0  0  0  0  0  0  0  0  0  0  0
  -26.5211  -23.6517   16.3717 C   0  0  0  0  0  0  0  0  0  0  0  0
  -21.7665  -24.3315   18.1061 C   0  0  1  0  0  0  0  0  0  0  0  0
  -22.2189  -23.5170   14.4317 C   0  0  2  0  0  0  0  0  0  0  0  0
  -20.8686  -23.3159   18.8677 C   0  0  0  0  0  0  0  0  0  0  0  0
  -26.5426  -16.9551   20.3214 N   0  0  0  0  0  0  0  0  0  0  0  0
  -32.9878  -26.6439   19.6561 N   0  0  0  0  0  0  0  0  0  0  0  0
  -27.7266  -17.5699   20.1589 N   0  0  0  0  0  0  0  0  0  0  0  0
  -22.4858  -26.5136   19.0254 N   0  0  0  0  0  0  0  0  0  0  0  0
  -26.5602  -21.0187   19.0037 N   0  0  0  0  0  0  0  0  0  0  0  0
  -30.0609  -17.1788   20.0652 N   0  0  0  0  0  0  0  0  0  0  0  0
  -29.4630  -13.8684   21.8199 N   0  0  0  0  0  0  0  0  0  0  0  0
  -20.6652  -27.9852   21.4522 N   0  0  0  0  0  0  0  0  0  0  0  0
  -21.6724  -24.2400   16.6532 N   0  0  0  0  0  0  0  0  0  0  0  0
  -26.5562  -22.9483   17.6347 N   0  0  0  0  0  0  0  0  0  0  0  0
  -23.3764  -24.0972   13.6937 N   0  3  0  0  0  0  0  0  0  0  0  0
  -29.3332  -13.5550   19.5519 O   0  0  0  0  0  0  0  0  0  0  0  0
  -22.8528  -27.2493   21.7610 O   0  0  0  0  0  0  0  0  0  0  0  0
  -20.3132  -26.2015   18.2387 O   0  0  0  0  0  0  0  0  0  0  0  0
  -23.4241  -22.7456   16.3785 O   0  0  0  0  0  0  0  0  0  0  0  0
  -26.4403  -20.8615   16.6930 O   0  0  0  0  0  0  0  0  0  0  0  0
  -22.9434  -11.7909   21.2853 O   0  0  0  0  0  0  0  0  0  0  0  0
  -28.5247  -26.9436   20.2085 O   0  0  0  0  0  0  0  0  0  1  0  0
  -24.3927   -6.5070   20.6657 F   0  0  0  0  0  0  0  0  0  0  0  0
  -21.7065  -10.1928   19.3988 F   0  0  0  0  0  0  0  0  0  0  0  0
  1  2  1  0  0  0  0
  1  5  2  0  0  0  0
  2  6  2  0  0  0  0
  3  8  2  0  0  0  0
  3 15  1  0  0  0  0
  4  9  1  0  0  0  0
  4 15  2  0  0  0  0
  5 17  1  0  0  0  0
  6 19  1  0  0  0  0
  7 10  2  0  0  0  0
  7 18  1  0  0  0  0
  8 24  1  0  0  0  0
  9 24  2  0  0  0  0
 10 25  1  0  0  0  0
 11 12  2  0  0  0  0
 11 26  1  0  0  0  0
 12 27  1  0  0  0  0
 13 20  1  0  0  0  0
 13 25  2  0  0  0  0
 14 27  2  0  0  0  0
 14 28  1  0  0  0  0
 15 29  1  0  0  0  0
 16 29  1  0  0  0  0
 16 32  2  0  0  0  0
 16 33  1  0  0  0  0
 17 19  2  0  0  0  0
 17 38  1  0  0  0  0
 18 20  2  0  0  0  0
 18 39  1  0  0  0  0
 19 52  1  0  0  0  0
 20 42  1  0  0  0  0
 21 22  1  0  0  0  0
 21 23  2  0  0  0  0
 21 40  1  0  0  0  0
 22 30  2  0  0  0  0
 22 41  1  0  0  0  0
 23 31  1  0  0  0  0
 23 61  1  0  0  0  0
 24 88  1  0  0  0  0
 25 89  1  0  0  0  0
 26 28  2  0  0  0  0
 26 88  1  0  0  0  0
 27 90  1  0  0  0  0
 28 91  1  0  0  0  0
 29 72  2  0  0  0  0
 30 55  1  0  0  0  0
 30 73  1  0  0  0  0
 31 62  1  0  0  0  0
 31 73  2  0  0  0  0
 32 74  1  0  0  0  0
 32 77  1  0  0  0  0
 33 78  1  0  0  0  0
 33 83  2  0  0  0  0
 34 53  1  0  0  0  0
 34 79  1  0  0  0  0
 34 84  2  0  0  0  0
 35 69  1  0  0  0  0
 35 75  1  0  0  0  0
 35 85  2  0  0  0  0
 36 70  1  0  0  0  0
 36 80  1  0  0  0  0
 36 86  2  0  0  0  0
 37 76  1  0  0  0  0
 37 81  1  0  0  0  0
 37 87  2  0  0  0  0
 38 43  1  0  0  0  0
 39 53  1  0  0  0  0
 40 44  1  0  0  0  0
 41 45  1  0  0  0  0
 42 75  1  0  0  0  0
 43 48  1  0  0  0  0
 44 46  1  0  0  0  0
 45 46  1  0  0  0  0
 47 49  1  0  0  0  0
 47 50  1  0  0  0  0
 48 52  1  0  0  0  0
 49 54  1  0  0  0  0
 50 76  1  0  0  0  0
 51 54  1  0  0  0  0
 51 76  1  0  0  0  0
 52 79  1  0  0  0  0
 53 75  1  0  0  0  0
 54 74  1  0  0  0  0
 56 70  1  0  0  0  0
 57 71  1  0  0  0  0
 58 71  1  0  0  0  0
 59 71  1  0  0  0  0
 60 82  1  0  0  0  0
 61 89  1  0  0  0  0
 62 63  1  0  0  0  0
 63 64  1  0  0  0  0
 64 65  1  0  0  0  0
 65 66  1  0  0  0  0
 66 67  1  0  0  0  0
 67 68  1  0  0  0  0
 68 81  1  0  0  0  0
 69 71  1  0  0  0  0
 69 80  1  0  0  0  0
 70 82  1  0  0  0  0
 72 74  1  0  0  0  0
M  CHG  1  82   1
M  ISO  4  37 100  61 101  81 100  89 101
M  END
> <Batch ID>
0034

> <Smiles>
CNC(C)C(=O)NC(C(=O)N1Cc2cc([101O:1][101CH2:1]c3c(CCCCCCC[100NH:0][100C:0](=O)N4CCCC(n5nc(-c6ccc(Oc7ccc(F)cc7F)cc6)c(C(N)=O)c5N)C4)nc(C)c4c3CCCCC4)ccc2CC1C(=O)NC1CCCc2ccccc21)C(C)(C)C

> <Shape>
0.265

> <Color>
0.088

> <Negative vol penalty>
0.000

$$$$

  -OEChem-04052316503D

 87 95  0     1  0  0  0  0  0999 V2000
  -32.2720  -13.7620   20.8203 C   0  0  0  0  0  0  0  0  0  0  0  0
  -31.5051  -14.8992   21.0534 C   0  0  0  0  0  0  0  0  0  0  0  0
  -29.0369  -27.0326   19.9317 C   0  0  0  0  0  0  0  0  0  0  0  0
  -27.1027  -26.3579   18.6508 C   0  0  0  0  0  0  0  0  0  0  0  0
  -31.6784  -12.6204   20.2834 C   0  0  0  0  0  0  0  0  0  0  0  0
  -30.1444  -14.8957   20.7485 C   0  0  0  0  0  0  0  0  0  0  0  0
  -27.3261  -16.9528   24.4188 C   0  0  0  0  0  0  0  0  0  0  0  0
  -29.6646  -25.8269   19.6190 C   0  0  0  0  0  0  0  0  0  0  0  0
  -27.7304  -25.1521   18.3381 C   0  0  0  0  0  0  0  0  0  0  0  0
  -27.2980  -18.3446   24.4956 C   0  0  0  0  0  0  0  0  0  0  0  0
  -28.6780  -21.7450   17.4992 C   0  0  0  0  0  0  0  0  0  0  0  0
  -27.9245  -20.5758   17.6031 C   0  0  0  0  0  0  0  0  0  0  0  0
  -25.1689  -18.3581   23.3615 C   0  0  0  0  0  0  0  0  0  0  0  0
  -22.1070  -24.3629   21.3422 C   0  0  0  0  0  0  0  0  0  0  0  0
  -27.5670  -21.0149   19.9518 C   0  0  0  0  0  0  0  0  0  0  0  0
  -27.7559  -27.2981   19.4476 C   0  0  0  0  0  0  0  0  0  0  0  0
  -27.1677  -29.7473   19.0440 C   0  0  0  0  0  0  0  0  0  0  0  0
  -30.3078  -12.5997   19.9809 C   0  0  0  0  0  0  0  0  0  0  0  0
  -26.2793  -16.2527   23.8020 C   0  0  0  0  0  0  0  0  0  0  0  0
  -29.5323  -13.7531   20.2058 C   0  0  0  0  0  0  0  0  0  0  0  0
  -25.1850  -16.9573   23.2804 C   0  0  0  0  0  0  0  0  0  0  0  0
  -21.2304  -24.0348   22.3704 C   0  0  0  0  0  0  0  0  0  0  0  0
  -21.7324  -23.6100   23.5954 C   0  0  0  0  0  0  0  0  0  0  0  0
  -29.0114  -24.8866   18.8222 C   0  0  0  0  0  0  0  0  0  0  0  0
  -26.2207  -19.0476   23.9644 C   0  0  0  0  0  0  0  0  0  0  0  0
  -28.8761  -22.5492   18.6216 C   0  0  0  0  0  0  0  0  0  0  0  0
  -27.3690  -20.2107   18.8294 C   0  0  0  0  0  0  0  0  0  0  0  0
  -28.3206  -22.1841   19.8479 C   0  0  0  0  0  0  0  0  0  0  0  0
  -27.1067  -28.5432   19.7707 C   0  0  0  0  0  0  0  0  0  0  0  0
  -23.1081  -23.5308   23.7403 C   0  0  0  0  0  0  0  0  0  0  0  0
  -23.4659  -24.2501   21.5880 C   0  0  0  0  0  0  0  0  0  0  0  0
  -26.3871  -30.6209   19.7609 C   0  0  0  0  0  0  0  0  0  0  0  0
  -27.8672  -30.0491   17.8294 C   0  0  0  0  0  0  0  0  0  0  0  0
  -26.0445  -14.3337   21.2789 C   0  0  0  0  0  0  0  0  0  0  0  0
  -22.9979  -13.9668   22.3305 C   0  0  0  0  0  0  0  0  0  0  0  0
  -20.3772  -15.2291   24.1152 C   0  0  0  0  0  0  0  0  0  0  0  0
  -21.8301  -29.8379   23.5651 C   0  0  0  0  0  0  0  0  0  0  0  0
  -29.7205  -11.3581   19.3579 C   0  0  0  0  0  0  0  0  0  0  0  0
  -26.3119  -14.7497   23.7510 C   0  0  0  0  0  0  0  0  0  0  0  0
  -24.0264  -16.2516   22.6261 C   0  0  0  0  0  0  0  0  0  0  0  0
  -28.1956  -11.3122   19.4120 C   0  0  0  0  0  0  0  0  0  0  0  0
  -24.8991  -31.5205   24.2182 C   0  0  0  0  0  0  0  0  0  0  0  0
  -27.6056  -12.6493   18.9750 C   0  0  0  0  0  0  0  0  0  0  0  0
  -25.8184  -31.0569   23.0869 C   0  0  0  0  0  0  0  0  0  0  0  0
  -23.9676  -30.4030   24.6823 C   0  0  0  0  0  0  0  0  0  0  0  0
  -24.0960  -29.3070   22.4787 C   0  0  0  0  0  0  0  0  0  0  0  0
  -28.0481  -13.7801   19.9114 C   0  0  1  0  0  0  0  0  0  0  0  0
  -25.4372  -14.1703   22.6435 C   0  0  1  0  0  0  0  0  0  0  0  0
  -25.0155  -30.4159   21.9390 C   0  0  2  0  0  0  0  0  0  0  0  0
  -20.8155  -23.2496   24.7160 C   0  0  0  0  0  0  0  0  0  0  0  0
  -18.0064  -14.7197   24.7610 C   0  0  0  0  0  0  0  0  0  0  0  0
  -22.0701  -14.7477   19.5307 C   0  0  0  0  0  0  0  0  0  0  0  0
  -19.7854  -15.1452   20.4743 C   0  0  0  0  0  0  0  0  0  0  0  0
  -20.7913  -12.8643   20.5660 C   0  0  0  0  0  0  0  0  0  0  0  0
  -21.0471  -15.1963   26.9978 C   0  0  0  0  0  0  0  0  0  0  0  0
  -19.7599  -24.1466   22.1365 C   0  0  0  0  0  0  0  0  0  0  0  0
  -23.7107  -23.0764   25.0457 C   0  0  0  0  0  0  0  0  0  0  0  0
  -19.1639  -25.4053   22.7835 C   0  0  0  0  0  0  0  0  0  0  0  0
  -25.0378  -22.3317   24.8852 C   0  0  0  0  0  0  0  0  0  0  0  0
  -19.7721  -26.6833   22.2021 C   0  0  0  0  0  0  0  0  0  0  0  0
  -19.1990  -27.9301   22.8822 C   0  0  0  0  0  0  0  0  0  0  0  0
  -19.7755  -29.2236   22.3159 C   0  0  0  0  0  0  0  0  0  0  0  0
  -24.9071  -21.0247   24.1120 C   0  0  0  0  0  0  0  0  0  1  0  0
  -21.6888  -14.6766   22.0832 C   0  0  1  0  0  0  0  0  0  0  0  0
  -19.4700  -14.5977   25.1558 C   0  0  2  0  0  0  0  0  0  0  0  0
  -21.1065  -14.3722   20.6741 C   0  0  0  0  0  0  0  0  0  0  0  0
  -26.3476  -28.6395   20.8655 N   0  0  0  0  0  0  0  0  0  0  0  0
  -23.9909  -23.8410   22.7647 N   0  0  0  0  0  0  0  0  0  0  0  0
  -25.9244  -29.9146   20.8320 N   0  0  0  0  0  0  0  0  0  0  0  0
  -24.1076  -14.7819   22.5951 N   0  0  0  0  0  0  0  0  0  0  0  0
  -23.2346  -29.8387   23.5464 N   0  0  0  0  0  0  0  0  0  0  0  0
  -26.0583  -31.9168   19.5734 N   0  0  0  0  0  0  0  0  0  0  0  0
  -28.6227  -29.0357   17.2240 N   0  0  0  0  0  0  0  0  0  0  0  0
  -27.2869  -13.7445   21.1417 N   0  0  0  0  0  0  0  0  0  0  0  0
  -20.8088  -14.3061   23.1863 N   0  0  0  0  0  0  0  0  0  0  0  0
  -21.2140  -29.2903   22.4465 N   0  0  0  0  0  0  0  0  0  0  0  0
  -19.6572  -15.2609   26.4771 N   0  3  0  0  0  0  0  0  0  0  0  0
  -27.8370  -31.1885   17.3056 O   0  0  0  0  0  0  0  0  0  0  0  0
  -25.4307  -14.9475   20.4139 O   0  0  0  0  0  0  0  0  0  0  0  0
  -23.0332  -12.7342   22.2975 O   0  0  0  0  0  0  0  0  0  0  0  0
  -20.6705  -16.4226   24.1234 O   0  0  0  0  0  0  0  0  0  0  0  0
  -21.1738  -30.2964   24.5063 O   0  0  0  0  0  0  0  0  0  0  0  0
  -29.6237  -23.7101   18.5167 O   0  0  0  0  0  0  0  0  0  0  0  0
  -26.1910  -20.4062   24.0375 O   0  0  0  0  0  0  0  0  0  1  0  0
  -26.6442  -19.0887   18.9286 F   0  0  0  0  0  0  0  0  0  0  0  0
  -28.5064  -22.9532   20.9295 F   0  0  0  0  0  0  0  0  0  0  0  0
  -24.6215  -24.6299   20.3778 Cl  0  0  0  0  0  0  0  0  0  0  0  0
  1  2  1  0  0  0  0
  1  5  2  0  0  0  0
  2  6  2  0  0  0  0
  3  8  2  0  0  0  0
  3 16  1  0  0  0  0
  4  9  1  0  0  0  0
  4 16  2  0  0  0  0
  5 18  1  0  0  0  0
  6 20  1  0  0  0  0
  7 10  2  0  0  0  0
  7 19  1  0  0  0  0
  8 24  1  0  0  0  0
  9 24  2  0  0  0  0
 10 25  1  0  0  0  0
 11 12  2  0  0  0  0
 11 26  1  0  0  0  0
 12 27  1  0  0  0  0
 13 21  1  0  0  0  0
 13 25  2  0  0  0  0
 14 22  2  0  0  0  0
 14 31  1  0  0  0  0
 15 27  2  0  0  0  0
 15 28  1  0  0  0  0
 16 29  1  0  0  0  0
 17 29  1  0  0  0  0
 17 32  2  0  0  0  0
 17 33  1  0  0  0  0
 18 20  2  0  0  0  0
 18 38  1  0  0  0  0
 19 21  2  0  0  0  0
 19 39  1  0  0  0  0
 20 47  1  0  0  0  0
 21 40  1  0  0  0  0
 22 23  1  0  0  0  0
 22 56  1  0  0  0  0
 23 30  2  0  0  0  0
 23 50  1  0  0  0  0
 24 83  1  0  0  0  0
 25 84  1  0  0  0  0
 26 28  2  0  0  0  0
 26 83  1  0  0  0  0
 27 85  1  0  0  0  0
 28 86  1  0  0  0  0
 29 67  2  0  0  0  0
 30 57  1  0  0  0  0
 30 68  1  0  0  0  0
 31 68  2  0  0  0  0
 31 87  1  0  0  0  0
 32 69  1  0  0  0  0
 32 72  1  0  0  0  0
 33 73  1  0  0  0  0
 33 78  2  0  0  0  0
 34 48  1  0  0  0  0
 34 74  1  0  0  0  0
 34 79  2  0  0  0  0
 35 64  1  0  0  0  0
 35 70  1  0  0  0  0
 35 80  2  0  0  0  0
 36 65  1  0  0  0  0
 36 75  1  0  0  0  0
 36 81  2  0  0  0  0
 37 71  1  0  0  0  0
 37 76  1  0  0  0  0
 37 82  2  0  0  0  0
 38 41  1  0  0  0  0
 39 48  1  0  0  0  0
 40 70  1  0  0  0  0
 41 43  1  0  0  0  0
 42 44  1  0  0  0  0
 42 45  1  0  0  0  0
 43 47  1  0  0  0  0
 44 49  1  0  0  0  0
 45 71  1  0  0  0  0
 46 49  1  0  0  0  0
 46 71  1  0  0  0  0
 47 74  1  0  0  0  0
 48 70  1  0  0  0  0
 49 69  1  0  0  0  0
 51 65  1  0  0  0  0
 52 66  1  0  0  0  0
 53 66  1  0  0  0  0
 54 66  1  0  0  0  0
 55 77  1  0  0  0  0
 56 58  1  0  0  0  0
 57 59  1  0  0  0  0
 58 60  1  0  0  0  0
 59 63  1  0  0  0  0
 60 61  1  0  0  0  0
 61 62  1  0  0  0  0
 62 76  1  0  0  0  0
 63 84  1  0  0  0  0
 64 66  1  0  0  0  0
 64 75  1  0  0  0  0
 65 77  1  0  0  0  0
 67 69  1  0  0  0  0
M  CHG  1  77   1
M  ISO  4  37 100  63 101  76 100  84 101
M  END
> <Batch ID>
0034

> <Smiles>
CNC(C)C(=O)NC(C(=O)N1Cc2cc([101O:1][101CH2:1]CCc3nc(Cl)cc(CCCCC[100NH:0][100C:0](=O)N4CCCC(n5nc(-c6ccc(Oc7ccc(F)cc7F)cc6)c(C(N)=O)c5N)C4)c3C)ccc2CC1C(=O)NC1CCCc2ccccc21)C(C)(C)C

> <Shape>
0.233

> <Color>
0.064

> <Negative vol penalty>
0.000

$$$$

  -OEChem-04052316503D

 83 91  0     1  0  0  0  0  0999 V2000
  -30.7376   -9.4902   29.4353 C   0  0  0  0  0  0  0  0  0  0  0  0
  -30.8928  -10.7749   28.9245 C   0  0  0  0  0  0  0  0  0  0  0  0
  -23.2887   -9.7995   19.9129 C   0  0  0  0  0  0  0  0  0  0  0  0
  -23.7395   -9.9399   22.2823 C   0  0  0  0  0  0  0  0  0  0  0  0
  -29.4594   -8.9752   29.6472 C   0  0  0  0  0  0  0  0  0  0  0  0
  -29.7698  -11.5450   28.6242 C   0  0  0  0  0  0  0  0  0  0  0  0
  -30.1901  -16.3165   30.2677 C   0  0  0  0  0  0  0  0  0  0  0  0
  -22.5624   -8.6269   20.1205 C   0  0  0  0  0  0  0  0  0  0  0  0
  -23.0133   -8.7672   22.4900 C   0  0  0  0  0  0  0  0  0  0  0  0
  -30.9778  -17.1833   29.5114 C   0  0  0  0  0  0  0  0  0  0  0  0
  -20.9745   -6.0067   23.6905 C   0  0  0  0  0  0  0  0  0  0  0  0
  -20.0730   -5.9812   24.7545 C   0  0  0  0  0  0  0  0  0  0  0  0
  -28.9884  -18.0982   28.4992 C   0  0  0  0  0  0  0  0  0  0  0  0
  -30.7667  -16.5555   25.1360 C   0  0  0  0  0  0  0  0  0  0  0  0
  -32.8188  -15.3452   23.6845 C   0  0  0  0  0  0  0  0  0  0  0  0
  -18.8632   -7.8283   23.7738 C   0  0  0  0  0  0  0  0  0  0  0  0
  -23.8773  -10.4560   20.9938 C   0  0  0  0  0  0  0  0  0  0  0  0
  -24.1364  -12.9860   20.7955 C   0  0  0  0  0  0  0  0  0  0  0  0
  -28.3202   -9.7430   29.3585 C   0  0  0  0  0  0  0  0  0  0  0  0
  -28.7939  -16.3265   30.1371 C   0  0  0  0  0  0  0  0  0  0  0  0
  -28.4751  -11.0393   28.8312 C   0  0  0  0  0  0  0  0  0  0  0  0
  -28.1851  -17.2323   29.2568 C   0  0  0  0  0  0  0  0  0  0  0  0
  -30.6981  -15.1959   24.8324 C   0  0  0  0  0  0  0  0  0  0  0  0
  -31.8613  -17.3101   24.7138 C   0  0  0  0  0  0  0  0  0  0  0  0
  -31.7242  -14.5907   24.1067 C   0  0  0  0  0  0  0  0  0  0  0  0
  -22.4247   -8.1107   21.4091 C   0  0  0  0  0  0  0  0  0  0  0  0
  -30.3772  -18.0724   28.6249 C   0  0  0  0  0  0  0  0  0  0  0  0
  -20.8205   -6.9431   22.6681 C   0  0  0  0  0  0  0  0  0  0  0  0
  -19.0173   -6.8920   24.7962 C   0  0  0  0  0  0  0  0  0  0  0  0
  -19.7648   -7.8539   22.7098 C   0  0  0  0  0  0  0  0  0  0  0  0
  -32.8874  -16.7049   23.9881 C   0  0  0  0  0  0  0  0  0  0  0  0
  -24.6281  -11.6670   20.7799 C   0  0  0  0  0  0  0  0  0  0  0  0
  -25.2378  -13.7661   20.5406 C   0  0  0  0  0  0  0  0  0  0  0  0
  -22.8033  -13.4635   21.0204 C   0  0  0  0  0  0  0  0  0  0  0  0
  -26.6120  -14.2071   29.2145 C   0  0  0  0  0  0  0  0  0  0  0  0
  -24.5370  -16.5162   30.1550 C   0  0  0  0  0  0  0  0  0  0  0  0
  -23.9617  -19.8273   30.7489 C   0  0  0  0  0  0  0  0  0  0  0  0
  -31.1089  -12.9236   21.3598 C   0  0  0  0  0  0  0  0  0  0  0  0
  -26.9588   -9.1259   29.5598 C   0  0  0  0  0  0  0  0  0  0  0  0
  -27.9568  -15.4036   30.9797 C   0  0  0  0  0  0  0  0  0  0  0  0
  -26.6891  -17.2968   29.0946 C   0  0  0  0  0  0  0  0  0  0  0  0
  -25.8229  -10.1458   29.5678 C   0  0  0  0  0  0  0  0  0  0  0  0
  -29.4598  -13.6632   18.2922 C   0  0  0  0  0  0  0  0  0  0  0  0
  -25.9736  -11.1217   28.4052 C   0  0  0  0  0  0  0  0  0  0  0  0
  -27.9901  -13.3545   18.5833 C   0  0  0  0  0  0  0  0  0  0  0  0
  -30.3932  -12.6838   19.0004 C   0  0  0  0  0  0  0  0  0  0  0  0
  -28.7067  -12.2541   20.7453 C   0  0  0  0  0  0  0  0  0  0  0  0
  -27.2814  -11.9146   28.5164 C   0  0  1  0  0  0  0  0  0  0  0  0
  -26.5746  -15.1439   30.3886 C   0  0  1  0  0  0  0  0  0  0  0  0
  -27.7286  -13.2492   20.0979 C   0  0  2  0  0  0  0  0  0  0  0  0
  -29.5159  -14.4077   25.2924 C   0  0  0  0  0  0  0  0  0  0  0  0
  -22.1576  -21.4144   31.4726 C   0  0  0  0  0  0  0  0  0  0  0  0
  -23.2526  -16.3111   27.3949 C   0  0  0  0  0  0  0  0  0  0  0  0
  -22.1308  -18.5065   27.8304 C   0  0  0  0  0  0  0  0  0  0  0  0
  -21.6316  -16.5426   29.2852 C   0  0  0  0  0  0  0  0  0  0  0  0
  -25.5047  -20.6801   33.1260 C   0  0  0  0  0  0  0  0  0  0  0  0
  -31.8972  -18.7767   25.0623 C   0  0  0  0  0  0  0  0  0  0  0  0
  -31.6709  -13.1371   23.7677 C   0  0  0  0  0  0  0  0  0  0  0  0
  -32.8509  -19.1136   26.2106 C   0  0  0  0  0  0  0  0  0  0  0  0
  -32.4526  -18.4717   27.5345 C   0  0  0  0  0  0  0  0  0  1  0  0
  -23.8733  -17.6947   29.4844 C   0  0  1  0  0  0  0  0  0  0  0  0
  -23.3198  -20.5433   31.9235 C   0  0  2  0  0  0  0  0  0  0  0  0
  -22.7504  -17.2614   28.5001 C   0  0  0  0  0  0  0  0  0  0  0  0
  -25.9397  -11.6085   20.5343 N   0  0  0  0  0  0  0  0  0  0  0  0
  -26.2815  -12.9006   20.3931 N   0  0  0  0  0  0  0  0  0  0  0  0
  -25.9141  -16.3699   29.9358 N   0  0  0  0  0  0  0  0  0  0  0  0
  -30.0940  -12.6322   20.4335 N   0  0  0  0  0  0  0  0  0  0  0  0
  -25.4055  -15.1010   20.4303 N   0  0  0  0  0  0  0  0  0  0  0  0
  -21.7908  -12.5264   21.2679 N   0  0  0  0  0  0  0  0  0  0  0  0
  -27.1519  -12.9677   29.5007 N   0  0  0  0  0  0  0  0  0  0  0  0
  -23.4209  -18.5734   30.5576 N   0  0  0  0  0  0  0  0  0  0  0  0
  -30.7393  -12.8578   22.6976 N   0  0  0  0  0  0  0  0  0  0  0  0
  -24.3185  -21.4106   32.6100 N   0  3  0  0  0  0  0  0  0  0  0  0
  -22.5153  -14.6839   20.9863 O   0  0  0  0  0  0  0  0  0  0  0  0
  -26.1816  -14.5805   28.1296 O   0  0  0  0  0  0  0  0  0  0  0  0
  -23.8600  -15.7577   30.8534 O   0  0  0  0  0  0  0  0  0  0  0  0
  -24.8511  -20.3314   30.0667 O   0  0  0  0  0  0  0  0  0  0  0  0
  -32.2578  -13.2256   21.0196 O   0  0  0  0  0  0  0  0  0  0  0  0
  -21.7159   -6.9667   21.6121 O   0  0  0  0  0  0  0  0  0  0  0  0
  -31.1437  -18.9191   27.8850 O   0  0  0  0  0  0  0  0  0  1  0  0
  -18.1507   -6.8664   25.8172 F   0  0  0  0  0  0  0  0  0  0  0  0
  -19.6110   -8.7550   21.7299 F   0  0  0  0  0  0  0  0  0  0  0  0
  -34.2570  -17.6064   23.4488 Cl  0  0  0  0  0  0  0  0  0  0  0  0
  1  2  1  0  0  0  0
  1  5  2  0  0  0  0
  2  6  2  0  0  0  0
  3  8  2  0  0  0  0
  3 17  1  0  0  0  0
  4  9  1  0  0  0  0
  4 17  2  0  0  0  0
  5 19  1  0  0  0  0
  6 21  1  0  0  0  0
  7 10  2  0  0  0  0
  7 20  1  0  0  0  0
  8 26  1  0  0  0  0
  9 26  2  0  0  0  0
 10 27  1  0  0  0  0
 11 12  2  0  0  0  0
 11 28  1  0  0  0  0
 12 29  1  0  0  0  0
 13 22  1  0  0  0  0
 13 27  2  0  0  0  0
 14 23  2  0  0  0  0
 14 24  1  0  0  0  0
 15 25  2  0  0  0  0
 15 31  1  0  0  0  0
 16 29  2  0  0  0  0
 16 30  1  0  0  0  0
 17 32  1  0  0  0  0
 18 32  1  0  0  0  0
 18 33  2  0  0  0  0
 18 34  1  0  0  0  0
 19 21  2  0  0  0  0
 19 39  1  0  0  0  0
 20 22  2  0  0  0  0
 20 40  1  0  0  0  0
 21 48  1  0  0  0  0
 22 41  1  0  0  0  0
 23 25  1  0  0  0  0
 23 51  1  0  0  0  0
 24 31  2  0  0  0  0
 24 57  1  0  0  0  0
 25 58  1  0  0  0  0
 26 79  1  0  0  0  0
 27 80  1  0  0  0  0
 28 30  2  0  0  0  0
 28 79  1  0  0  0  0
 29 81  1  0  0  0  0
 30 82  1  0  0  0  0
 31 83  1  0  0  0  0
 32 64  2  0  0  0  0
 33 65  1  0  0  0  0
 33 68  1  0  0  0  0
 34 69  1  0  0  0  0
 34 74  2  0  0  0  0
 35 49  1  0  0  0  0
 35 70  1  0  0  0  0
 35 75  2  0  0  0  0
 36 61  1  0  0  0  0
 36 66  1  0  0  0  0
 36 76  2  0  0  0  0
 37 62  1  0  0  0  0
 37 71  1  0  0  0  0
 37 77  2  0  0  0  0
 38 67  1  0  0  0  0
 38 72  1  0  0  0  0
 38 78  2  0  0  0  0
 39 42  1  0  0  0  0
 40 49  1  0  0  0  0
 41 66  1  0  0  0  0
 42 44  1  0  0  0  0
 43 45  1  0  0  0  0
 43 46  1  0  0  0  0
 44 48  1  0  0  0  0
 45 50  1  0  0  0  0
 46 67  1  0  0  0  0
 47 50  1  0  0  0  0
 47 67  1  0  0  0  0
 48 70  1  0  0  0  0
 49 66  1  0  0  0  0
 50 65  1  0  0  0  0
 52 62  1  0  0  0  0
 53 63  1  0  0  0  0
 54 63  1  0  0  0  0
 55 63  1  0  0  0  0
 56 73  1  0  0  0  0
 57 59  1  0  0  0  0
 58 72  1  0  0  0  0
 59 60  1  0  0  0  0
 60 80  1  0  0  0  0
 61 63  1  0  0  0  0
 61 71  1  0  0  0  0
 62 73  1  0  0  0  0
 64 65  1  0  0  0  0
M  CHG  1  73   1
M  ISO  4  38 100  60 101  72 100  80 101
M  END
> <Batch ID>
0034

> <Smiles>
CNC(C)C(=O)NC(C(=O)N1Cc2cc([101O:1][101CH2:1]CCc3cc(C)c(C[100NH:0][100C:0](=O)N4CCCC(n5nc(-c6ccc(Oc7ccc(F)cc7F)cc6)c(C(N)=O)c5N)C4)cc3Cl)ccc2CC1C(=O)NC1CCCc2ccccc21)C(C)(C)C

> <Shape>
0.131

> <Color>
0.182

> <Negative vol penalty>
0.000

$$$$

  -OEChem-04052316503D

 86 94  0     1  0  0  0  0  0999 V2000
  -20.3776  -34.3725   23.2234 C   0  0  0  0  0  0  0  0  0  0  0  0
  -21.6503  -33.9097   22.9048 C   0  0  0  0  0  0  0  0  0  0  0  0
  -27.4222  -13.4673   18.2575 C   0  0  0  0  0  0  0  0  0  0  0  0
  -27.8482  -12.6772   20.5005 C   0  0  0  0  0  0  0  0  0  0  0  0
  -19.4095  -33.4829   23.6873 C   0  0  0  0  0  0  0  0  0  0  0  0
  -21.9559  -32.5571   23.0511 C   0  0  0  0  0  0  0  0  0  0  0  0
  -25.6895  -29.2237   19.5219 C   0  0  0  0  0  0  0  0  0  0  0  0
  -28.6098  -12.8778   17.8242 C   0  0  0  0  0  0  0  0  0  0  0  0
  -29.0358  -12.0876   20.0673 C   0  0  0  0  0  0  0  0  0  0  0  0
  -27.0192  -28.8321   19.6709 C   0  0  0  0  0  0  0  0  0  0  0  0
  -29.7021   -9.7833   17.0093 C   0  0  0  0  0  0  0  0  0  0  0  0
  -29.6681   -9.0550   15.8202 C   0  0  0  0  0  0  0  0  0  0  0  0
  -26.2890  -26.7199   20.5790 C   0  0  0  0  0  0  0  0  0  0  0  0
  -31.3145  -10.5414   14.8628 C   0  0  0  0  0  0  0  0  0  0  0  0
  -29.3920  -27.3497   24.9072 C   0  0  0  0  0  0  0  0  0  0  0  0
  -27.0415  -13.3670   19.5956 C   0  0  0  0  0  0  0  0  0  0  0  0
  -24.5368  -13.3876   20.0795 C   0  0  0  0  0  0  0  0  0  0  0  0
  -19.7004  -32.1171   23.8301 C   0  0  0  0  0  0  0  0  0  0  0  0
  -24.6479  -28.3693   19.9112 C   0  0  0  0  0  0  0  0  0  0  0  0
  -20.9911  -31.6486   23.5187 C   0  0  0  0  0  0  0  0  0  0  0  0
  -24.9469  -27.1021   20.4316 C   0  0  0  0  0  0  0  0  0  0  0  0
  -29.4571  -26.0120   24.5855 C   0  0  0  0  0  0  0  0  0  0  0  0
  -29.9495  -25.9190   23.2604 C   0  0  0  0  0  0  0  0  0  0  0  0
  -29.4166  -12.1879   18.7291 C   0  0  0  0  0  0  0  0  0  0  0  0
  -27.3192  -27.5811   20.2022 C   0  0  0  0  0  0  0  0  0  0  0  0
  -30.5422  -10.8907   17.1252 C   0  0  0  0  0  0  0  0  0  0  0  0
  -30.4743   -9.4340   14.7470 C   0  0  0  0  0  0  0  0  0  0  0  0
  -31.3485  -11.2698   16.0519 C   0  0  0  0  0  0  0  0  0  0  0  0
  -25.8151  -13.9763   20.0439 C   0  0  0  0  0  0  0  0  0  0  0  0
  -30.1706  -27.2027   22.8127 C   0  0  0  0  0  0  0  0  0  0  0  0
  -23.7199  -14.3707   20.5819 C   0  0  0  0  0  0  0  0  0  0  0  0
  -24.1248  -12.0698   19.6931 C   0  0  0  0  0  0  0  0  0  0  0  0
  -22.3034  -28.5212   22.0522 C   0  0  0  0  0  0  0  0  0  0  0  0
  -21.3808  -25.7390   20.6629 C   0  0  0  0  0  0  0  0  0  0  0  0
  -22.2478  -22.9732   18.8614 C   0  0  0  0  0  0  0  0  0  0  0  0
  -24.8230  -18.9902   24.0890 C   0  0  0  0  0  0  0  0  0  0  0  0
  -18.6355  -31.2016   24.3802 C   0  0  0  0  0  0  0  0  0  0  0  0
  -23.2184  -28.7960   19.7191 C   0  0  0  0  0  0  0  0  0  0  0  0
  -23.8650  -26.1395   20.8459 C   0  0  0  0  0  0  0  0  0  0  0  0
  -18.9274  -29.7209   24.1510 C   0  0  0  0  0  0  0  0  0  0  0  0
  -23.2956  -19.1326   20.8111 C   0  0  0  0  0  0  0  0  0  0  0  0
  -20.3723  -29.3985   24.5186 C   0  0  0  0  0  0  0  0  0  0  0  0
  -23.6542  -17.7560   20.2484 C   0  0  0  0  0  0  0  0  0  0  0  0
  -24.4354  -19.7000   21.6521 C   0  0  0  0  0  0  0  0  0  0  0  0
  -25.2405  -17.4369   22.2033 C   0  0  0  0  0  0  0  0  0  0  0  0
  -21.3535  -30.1844   23.6404 C   0  0  1  0  0  0  0  0  0  0  0  0
  -22.2451  -28.0501   20.6266 C   0  0  1  0  0  0  0  0  0  0  0  0
  -24.1199  -16.7994   21.3621 C   0  0  2  0  0  0  0  0  0  0  0  0
  -30.1837  -24.6757   22.4971 C   0  0  0  0  0  0  0  0  0  0  0  0
  -21.9388  -20.8371   17.5811 C   0  0  0  0  0  0  0  0  0  0  0  0
  -21.3773  -24.4944   23.4487 C   0  0  0  0  0  0  0  0  0  0  0  0
  -21.3530  -22.2378   22.3646 C   0  0  0  0  0  0  0  0  0  0  0  0
  -19.4551  -23.8151   22.0002 C   0  0  0  0  0  0  0  0  0  0  0  0
  -29.9082  -29.5074   23.7690 C   0  0  0  0  0  0  0  0  0  0  0  0
  -21.8179  -24.4241   16.3180 C   0  0  0  0  0  0  0  0  0  0  0  0
  -29.0796  -24.8899   25.4679 C   0  0  0  0  0  0  0  0  0  0  0  0
  -30.6893  -27.6949   21.4834 C   0  0  0  0  0  0  0  0  0  0  0  0
  -25.6757  -21.2646   26.3530 C   0  0  0  0  0  0  0  0  0  0  0  0
  -26.0777  -22.5036   25.5442 C   0  0  0  0  0  0  0  0  0  0  0  0
  -24.3627  -20.6545   25.8709 C   0  0  0  0  0  0  0  0  0  0  0  0
  -27.4222  -23.0876   25.9617 C   0  0  0  0  0  0  0  0  0  0  0  0
  -29.5758  -28.2257   20.5871 C   0  0  0  0  0  0  0  0  0  1  0  0
  -21.6809  -24.2776   20.8940 C   0  0  1  0  0  0  0  0  0  0  0  0
  -21.6099  -22.3204   17.6484 C   0  0  2  0  0  0  0  0  0  0  0  0
  -20.9872  -23.7249   22.1710 C   0  0  0  0  0  0  0  0  0  0  0  0
  -25.8152  -15.2359   20.4881 N   0  0  0  0  0  0  0  0  0  0  0  0
  -29.8284  -28.0642   23.8222 N   0  0  0  0  0  0  0  0  0  0  0  0
  -24.5269  -15.4468   20.8076 N   0  0  0  0  0  0  0  0  0  0  0  0
  -22.4830  -26.6053   20.6443 N   0  0  0  0  0  0  0  0  0  0  0  0
  -24.8183  -18.7489   22.7051 N   0  0  0  0  0  0  0  0  0  0  0  0
  -22.3970  -14.4112   20.8482 N   0  0  0  0  0  0  0  0  0  0  0  0
  -25.0926  -11.1857   19.1971 N   0  0  0  0  0  0  0  0  0  0  0  0
  -21.4571  -29.5775   22.3307 N   0  0  0  0  0  0  0  0  0  0  0  0
  -21.3092  -23.5852   19.6648 N   0  0  0  0  0  0  0  0  0  0  0  0
  -24.4161  -20.2597   24.4809 N   0  0  0  0  0  0  0  0  0  0  0  0
  -22.0959  -22.9668   16.3967 N   0  3  0  0  0  0  0  0  0  0  0  0
  -27.7757  -24.2511   25.1116 N   0  3  0  0  0  0  0  0  0  0  0  0
  -22.9308  -11.6930   19.7696 O   0  0  0  0  0  0  0  0  0  0  0  0
  -23.0591  -27.9665   22.8414 O   0  0  0  0  0  0  0  0  0  0  0  0
  -20.2121  -26.0976   20.4976 O   0  0  0  0  0  0  0  0  0  0  0  0
  -23.4574  -22.9400   19.0767 O   0  0  0  0  0  0  0  0  0  0  0  0
  -25.1598  -18.1352   24.9153 O   0  0  0  0  0  0  0  0  0  0  0  0
  -30.5754  -11.6123   18.3067 O   0  0  0  0  0  0  0  0  0  0  0  0
  -28.6162  -27.1966   20.3493 O   0  0  0  0  0  0  0  0  0  1  0  0
  -30.4427   -8.7336   13.6056 F   0  0  0  0  0  0  0  0  0  0  0  0
  -32.1585  -12.3321   16.1576 F   0  0  0  0  0  0  0  0  0  0  0  0
  1  2  1  0  0  0  0
  1  5  2  0  0  0  0
  2  6  2  0  0  0  0
  3  8  2  0  0  0  0
  3 16  1  0  0  0  0
  4  9  1  0  0  0  0
  4 16  2  0  0  0  0
  5 18  1  0  0  0  0
  6 20  1  0  0  0  0
  7 10  2  0  0  0  0
  7 19  1  0  0  0  0
  8 24  1  0  0  0  0
  9 24  2  0  0  0  0
 10 25  1  0  0  0  0
 11 12  2  0  0  0  0
 11 26  1  0  0  0  0
 12 27  1  0  0  0  0
 13 21  1  0  0  0  0
 13 25  2  0  0  0  0
 14 27  2  0  0  0  0
 14 28  1  0  0  0  0
 15 22  2  0  0  0  0
 15 67  1  0  0  0  0
 16 29  1  0  0  0  0
 17 29  1  0  0  0  0
 17 31  2  0  0  0  0
 17 32  1  0  0  0  0
 18 20  2  0  0  0  0
 18 37  1  0  0  0  0
 19 21  2  0  0  0  0
 19 38  1  0  0  0  0
 20 46  1  0  0  0  0
 21 39  1  0  0  0  0
 22 23  1  0  0  0  0
 22 56  1  0  0  0  0
 23 30  2  0  0  0  0
 23 49  1  0  0  0  0
 24 83  1  0  0  0  0
 25 84  1  0  0  0  0
 26 28  2  0  0  0  0
 26 83  1  0  0  0  0
 27 85  1  0  0  0  0
 28 86  1  0  0  0  0
 29 66  2  0  0  0  0
 30 57  1  0  0  0  0
 30 67  1  0  0  0  0
 31 68  1  0  0  0  0
 31 71  1  0  0  0  0
 32 72  1  0  0  0  0
 32 78  2  0  0  0  0
 33 47  1  0  0  0  0
 33 73  1  0  0  0  0
 33 79  2  0  0  0  0
 34 63  1  0  0  0  0
 34 69  1  0  0  0  0
 34 80  2  0  0  0  0
 35 64  1  0  0  0  0
 35 74  1  0  0  0  0
 35 81  2  0  0  0  0
 36 70  1  0  0  0  0
 36 75  1  0  0  0  0
 36 82  2  0  0  0  0
 37 40  1  0  0  0  0
 38 47  1  0  0  0  0
 39 69  1  0  0  0  0
 40 42  1  0  0  0  0
 41 43  1  0  0  0  0
 41 44  1  0  0  0  0
 42 46  1  0  0  0  0
 43 48  1  0  0  0  0
 44 70  1  0  0  0  0
 45 48  1  0  0  0  0
 45 70  1  0  0  0  0
 46 73  1  0  0  0  0
 47 69  1  0  0  0  0
 48 68  1  0  0  0  0
 50 64  1  0  0  0  0
 51 65  1  0  0  0  0
 52 65  1  0  0  0  0
 53 65  1  0  0  0  0
 54 67  1  0  0  0  0
 55 76  1  0  0  0  0
 56 77  1  0  0  0  0
 57 62  1  0  0  0  0
 58 59  1  0  0  0  0
 58 60  1  0  0  0  0
 59 61  1  0  0  0  0
 60 75  1  0  0  0  0
 61 77  1  0  0  0  0
 62 84  1  0  0  0  0
 63 65  1  0  0  0  0
 63 74  1  0  0  0  0
 64 76  1  0  0  0  0
 66 68  1  0  0  0  0
M  CHG  2  76   1  77   1
M  ISO  4  36 100  62 101  75 100  84 101
M  END
> <Batch ID>
0034

> <Smiles>
CNC(C)C(=O)NC(C(=O)N1Cc2cc([101O:1][101CH2:1]Cc3c(C)c(CNCCCC[100NH:0][100C:0](=O)N4CCCC(n5nc(-c6ccc(Oc7ccc(F)cc7F)cc6)c(C(N)=O)c5N)C4)cn3C)ccc2CC1C(=O)NC1CCCc2ccccc21)C(C)(C)C

> <Shape>
0.173

> <Color>
0.101

> <Negative vol penalty>
0.000

$$$$

  -OEChem-04052316503D

 83 91  0     1  0  0  0  0  0999 V2000
  -32.8602  -15.0518   34.0739 C   0  0  0  0  0  0  0  0  0  0  0  0
  -32.2534  -15.4839   32.8990 C   0  0  0  0  0  0  0  0  0  0  0  0
  -23.1533   -9.8656   19.9611 C   0  0  0  0  0  0  0  0  0  0  0  0
  -23.8215   -9.9648   22.2807 C   0  0  0  0  0  0  0  0  0  0  0  0
  -32.9204  -13.6898   34.3660 C   0  0  0  0  0  0  0  0  0  0  0  0
  -31.7074  -14.5541   32.0148 C   0  0  0  0  0  0  0  0  0  0  0  0
  -27.1374  -15.9324   30.3237 C   0  0  0  0  0  0  0  0  0  0  0  0
  -22.4394   -8.6949   20.2168 C   0  0  0  0  0  0  0  0  0  0  0  0
  -23.1076   -8.7941   22.5364 C   0  0  0  0  0  0  0  0  0  0  0  0
  -27.0947  -16.9002   29.3210 C   0  0  0  0  0  0  0  0  0  0  0  0
  -21.7577   -5.6356   23.7245 C   0  0  0  0  0  0  0  0  0  0  0  0
  -22.3769   -4.6547   24.4991 C   0  0  0  0  0  0  0  0  0  0  0  0
  -26.7745  -15.1689   27.6720 C   0  0  0  0  0  0  0  0  0  0  0  0
  -24.1518   -4.4875   22.8684 C   0  0  0  0  0  0  0  0  0  0  0  0
  -23.8444  -10.5006   20.9931 C   0  0  0  0  0  0  0  0  0  0  0  0
  -24.1054  -13.0316   20.8105 C   0  0  0  0  0  0  0  0  0  0  0  0
  -32.3663  -12.7435   33.4896 C   0  0  0  0  0  0  0  0  0  0  0  0
  -27.0096  -14.5725   30.0063 C   0  0  0  0  0  0  0  0  0  0  0  0
  -31.7614  -13.1781   32.2947 C   0  0  0  0  0  0  0  0  0  0  0  0
  -26.8133  -14.1860   28.6728 C   0  0  0  0  0  0  0  0  0  0  0  0
  -30.3444  -17.9675   25.5821 C   0  0  0  0  0  0  0  0  0  0  0  0
  -31.1282  -17.0357   24.9107 C   0  0  0  0  0  0  0  0  0  0  0  0
  -29.0277  -18.1743   25.1861 C   0  0  0  0  0  0  0  0  0  0  0  0
  -22.4165   -8.1592   21.5044 C   0  0  0  0  0  0  0  0  0  0  0  0
  -26.9162  -16.5183   27.9946 C   0  0  0  0  0  0  0  0  0  0  0  0
  -22.3354   -6.0424   22.5218 C   0  0  0  0  0  0  0  0  0  0  0  0
  -23.5739   -4.0807   24.0711 C   0  0  0  0  0  0  0  0  0  0  0  0
  -23.5325   -5.4684   22.0938 C   0  0  0  0  0  0  0  0  0  0  0  0
  -24.5825  -11.7097   20.7295 C   0  0  0  0  0  0  0  0  0  0  0  0
  -30.5527  -16.3421   23.8583 C   0  0  0  0  0  0  0  0  0  0  0  0
  -28.5463  -17.4299   24.1212 C   0  0  0  0  0  0  0  0  0  0  0  0
  -25.1852  -13.8080   20.4672 C   0  0  0  0  0  0  0  0  0  0  0  0
  -22.8027  -13.5147   21.1647 C   0  0  0  0  0  0  0  0  0  0  0  0
  -28.8715  -12.0141   30.3082 C   0  0  0  0  0  0  0  0  0  0  0  0
  -26.2315  -10.4509   29.2549 C   0  0  0  0  0  0  0  0  0  0  0  0
  -23.2871  -10.5713   27.5337 C   0  0  0  0  0  0  0  0  0  0  0  0
  -30.9415  -13.9715   21.0607 C   0  0  0  0  0  0  0  0  0  0  0  0
  -32.4974  -11.2790   33.8252 C   0  0  0  0  0  0  0  0  0  0  0  0
  -27.0309  -13.5429   31.1025 C   0  0  0  0  0  0  0  0  0  0  0  0
  -26.6506  -12.7406   28.2818 C   0  0  0  0  0  0  0  0  0  0  0  0
  -31.5632  -10.3826   33.0165 C   0  0  0  0  0  0  0  0  0  0  0  0
  -29.3952  -13.0241   17.9967 C   0  0  0  0  0  0  0  0  0  0  0  0
  -31.6087  -10.7591   31.5390 C   0  0  0  0  0  0  0  0  0  0  0  0
  -27.9522  -12.7114   18.3966 C   0  0  0  0  0  0  0  0  0  0  0  0
  -30.3857  -12.5956   19.0772 C   0  0  0  0  0  0  0  0  0  0  0  0
  -28.6601  -12.8161   20.8229 C   0  0  0  0  0  0  0  0  0  0  0  0
  -31.1358  -12.2017   31.3225 C   0  0  1  0  0  0  0  0  0  0  0  0
  -27.4051  -12.1496   30.6064 C   0  0  1  0  0  0  0  0  0  0  0  0
  -27.6202  -13.2810   19.7890 C   0  0  2  0  0  0  0  0  0  0  0  0
  -30.9157  -18.7460   26.7240 C   0  0  0  0  0  0  0  0  0  0  0  0
  -32.5439  -16.7908   25.3130 C   0  0  0  0  0  0  0  0  0  0  0  0
  -27.1407  -17.6094   23.6484 C   0  0  0  0  0  0  0  0  0  0  0  0
  -21.3670   -9.1259   26.8114 C   0  0  0  0  0  0  0  0  0  0  0  0
  -27.9842   -9.2100   27.0873 C   0  0  0  0  0  0  0  0  0  0  0  0
  -25.8961   -8.5653   25.8657 C   0  0  0  0  0  0  0  0  0  0  0  0
  -26.3489   -7.6347   28.1354 C   0  0  0  0  0  0  0  0  0  0  0  0
  -21.3362  -12.2090   29.0407 C   0  0  0  0  0  0  0  0  0  0  0  0
  -28.1510  -19.1784   25.8943 C   0  0  0  0  0  0  0  0  0  0  0  0
  -31.3447  -15.3283   23.0993 C   0  0  0  0  0  0  0  0  0  0  0  0
  -27.6285  -18.6537   27.2272 C   0  0  0  0  0  0  0  0  0  1  0  0
  -25.6874  -10.0636   27.9010 C   0  0  1  0  0  0  0  0  0  0  0  0
  -21.8967  -10.0696   27.8799 C   0  0  2  0  0  0  0  0  0  0  0  0
  -26.4841   -8.8956   27.2542 C   0  0  0  0  0  0  0  0  0  0  0  0
  -25.8654  -11.6460   20.3632 N   0  0  0  0  0  0  0  0  0  0  0  0
  -29.2774  -16.5158   23.4448 N   0  0  0  0  0  0  0  0  0  0  0  0
  -26.2036  -12.9377   20.2109 N   0  0  0  0  0  0  0  0  0  0  0  0
  -26.6850  -11.7708   29.3890 N   0  0  0  0  0  0  0  0  0  0  0  0
  -30.0152  -13.1707   20.3725 N   0  0  0  0  0  0  0  0  0  0  0  0
  -25.3533  -15.1433   20.3624 N   0  0  0  0  0  0  0  0  0  0  0  0
  -21.8095  -12.5809   21.4899 N   0  0  0  0  0  0  0  0  0  0  0  0
  -29.6919  -12.2756   31.3889 N   0  0  0  0  0  0  0  0  0  0  0  0
  -24.2690   -9.7834   28.0961 N   0  0  0  0  0  0  0  0  0  0  0  0
  -30.5078  -14.4823   22.2780 N   0  0  0  0  0  0  0  0  0  0  0  0
  -20.9502  -11.2136   28.0077 N   0  3  0  0  0  0  0  0  0  0  0  0
  -22.5231  -14.7375   21.1759 O   0  0  0  0  0  0  0  0  0  0  0  0
  -29.2319  -11.6944   29.1814 O   0  0  0  0  0  0  0  0  0  0  0  0
  -26.2469   -9.6153   30.1621 O   0  0  0  0  0  0  0  0  0  0  0  0
  -23.4825  -11.5608   26.8314 O   0  0  0  0  0  0  0  0  0  0  0  0
  -32.0695  -14.2178   20.6203 O   0  0  0  0  0  0  0  0  0  0  0  0
  -21.7198   -7.0169   21.7543 O   0  0  0  0  0  0  0  0  0  0  0  0
  -26.8748  -17.4608   27.0139 O   0  0  0  0  0  0  0  0  0  1  0  0
  -24.1693   -3.1399   24.8158 F   0  0  0  0  0  0  0  0  0  0  0  0
  -24.0929   -5.8560   20.9399 F   0  0  0  0  0  0  0  0  0  0  0  0
  1  2  1  0  0  0  0
  1  5  2  0  0  0  0
  2  6  2  0  0  0  0
  3  8  2  0  0  0  0
  3 15  1  0  0  0  0
  4  9  1  0  0  0  0
  4 15  2  0  0  0  0
  5 17  1  0  0  0  0
  6 19  1  0  0  0  0
  7 10  2  0  0  0  0
  7 18  1  0  0  0  0
  8 24  1  0  0  0  0
  9 24  2  0  0  0  0
 10 25  1  0  0  0  0
 11 12  2  0  0  0  0
 11 26  1  0  0  0  0
 12 27  1  0  0  0  0
 13 20  1  0  0  0  0
 13 25  2  0  0  0  0
 14 27  2  0  0  0  0
 14 28  1  0  0  0  0
 15 29  1  0  0  0  0
 16 29  1  0  0  0  0
 16 32  2  0  0  0  0
 16 33  1  0  0  0  0
 17 19  2  0  0  0  0
 17 38  1  0  0  0  0
 18 20  2  0  0  0  0
 18 39  1  0  0  0  0
 19 47  1  0  0  0  0
 20 40  1  0  0  0  0
 21 22  1  0  0  0  0
 21 23  2  0  0  0  0
 21 50  1  0  0  0  0
 22 30  2  0  0  0  0
 22 51  1  0  0  0  0
 23 31  1  0  0  0  0
 23 58  1  0  0  0  0
 24 80  1  0  0  0  0
 25 81  1  0  0  0  0
 26 28  2  0  0  0  0
 26 80  1  0  0  0  0
 27 82  1  0  0  0  0
 28 83  1  0  0  0  0
 29 64  2  0  0  0  0
 30 59  1  0  0  0  0
 30 65  1  0  0  0  0
 31 52  1  0  0  0  0
 31 65  2  0  0  0  0
 32 66  1  0  0  0  0
 32 69  1  0  0  0  0
 33 70  1  0  0  0  0
 33 75  2  0  0  0  0
 34 48  1  0  0  0  0
 34 71  1  0  0  0  0
 34 76  2  0  0  0  0
 35 61  1  0  0  0  0
 35 67  1  0  0  0  0
 35 77  2  0  0  0  0
 36 62  1  0  0  0  0
 36 72  1  0  0  0  0
 36 78  2  0  0  0  0
 37 68  1  0  0  0  0
 37 73  1  0  0  0  0
 37 79  2  0  0  0  0
 38 41  1  0  0  0  0
 39 48  1  0  0  0  0
 40 67  1  0  0  0  0
 41 43  1  0  0  0  0
 42 44  1  0  0  0  0
 42 45  1  0  0  0  0
 43 47  1  0  0  0  0
 44 49  1  0  0  0  0
 45 68  1  0  0  0  0
 46 49  1  0  0  0  0
 46 68  1  0  0  0  0
 47 71  1  0  0  0  0
 48 67  1  0  0  0  0
 49 66  1  0  0  0  0
 53 62  1  0  0  0  0
 54 63  1  0  0  0  0
 55 63  1  0  0  0  0
 56 63  1  0  0  0  0
 57 74  1  0  0  0  0
 58 60  1  0  0  0  0
 59 73  1  0  0  0  0
 60 81  1  0  0  0  0
 61 63  1  0  0  0  0
 61 72  1  0  0  0  0
 62 74  1  0  0  0  0
 64 66  1  0  0  0  0
M  CHG  1  74   1
M  ISO  4  37 100  60 101  73 100  81 101
M  END
> <Batch ID>
0034

> <Smiles>
CNC(C)C(=O)NC(C(=O)N1Cc2cc([101O:1][101CH2:1]Cc3c(C)nc(C[100NH:0][100C:0](=O)N4CCCC(n5nc(-c6ccc(Oc7ccc(F)cc7F)cc6)c(C(N)=O)c5N)C4)c(C)c3C)ccc2CC1C(=O)NC1CCCc2ccccc21)C(C)(C)C

> <Shape>
0.154

> <Color>
0.191

> <Negative vol penalty>
0.000

$$$$

  -OEChem-04052316503D

 81 89  0     1  0  0  0  0  0999 V2000
  -18.5835  -30.8480   26.3664 C   0  0  0  0  0  0  0  0  0  0  0  0
  -19.9466  -30.5707   26.3869 C   0  0  0  0  0  0  0  0  0  0  0  0
  -22.0358  -15.5228   22.0441 C   0  0  0  0  0  0  0  0  0  0  0  0
  -24.1825  -14.9235   21.1115 C   0  0  0  0  0  0  0  0  0  0  0  0
  -17.7922  -30.3726   25.3216 C   0  0  0  0  0  0  0  0  0  0  0  0
  -20.5190  -29.8167   25.3631 C   0  0  0  0  0  0  0  0  0  0  0  0
  -26.6136  -29.1502   21.6580 C   0  0  0  0  0  0  0  0  0  0  0  0
  -21.5228  -14.2841   21.6593 C   0  0  0  0  0  0  0  0  0  0  0  0
  -23.6695  -13.6848   20.7267 C   0  0  0  0  0  0  0  0  0  0  0  0
  -27.5476  -28.1844   21.2857 C   0  0  0  0  0  0  0  0  0  0  0  0
  -22.9731  -10.7171   22.1855 C   0  0  0  0  0  0  0  0  0  0  0  0
  -23.7512   -9.5877   22.4400 C   0  0  0  0  0  0  0  0  0  0  0  0
  -26.0972  -27.4825   19.4905 C   0  0  0  0  0  0  0  0  0  0  0  0
  -29.2857  -23.8608   18.3596 C   0  0  0  0  0  0  0  0  0  0  0  0
  -23.8059   -9.0928   20.0758 C   0  0  0  0  0  0  0  0  0  0  0  0
  -30.8676  -22.4367   20.0670 C   0  0  0  0  0  0  0  0  0  0  0  0
  -23.3656  -15.8425   21.7702 C   0  0  0  0  0  0  0  0  0  0  0  0
  -24.5167  -17.4432   23.3890 C   0  0  0  0  0  0  0  0  0  0  0  0
  -18.3569  -29.6205   24.2794 C   0  0  0  0  0  0  0  0  0  0  0  0
  -25.4075  -29.2824   20.9549 C   0  0  0  0  0  0  0  0  0  0  0  0
  -19.7343  -29.3296   24.3040 C   0  0  0  0  0  0  0  0  0  0  0  0
  -25.1506  -28.4525   19.8543 C   0  0  0  0  0  0  0  0  0  0  0  0
  -29.1289  -22.4819   18.4448 C   0  0  0  0  0  0  0  0  0  0  0  0
  -22.3396  -13.3651   21.0006 C   0  0  0  0  0  0  0  0  0  0  0  0
  -27.2882  -27.3484   20.2036 C   0  0  0  0  0  0  0  0  0  0  0  0
  -22.6113  -11.0343   20.8762 C   0  0  0  0  0  0  0  0  0  0  0  0
  -24.1676   -8.7756   21.3851 C   0  0  0  0  0  0  0  0  0  0  0  0
  -23.0278  -10.2221   19.8214 C   0  0  0  0  0  0  0  0  0  0  0  0
  -29.9309  -21.7489   19.3124 C   0  0  0  0  0  0  0  0  0  0  0  0
  -23.8960  -17.1222   22.1670 C   0  0  0  0  0  0  0  0  0  0  0  0
  -30.2511  -24.4541   19.1570 C   0  0  0  0  0  0  0  0  0  0  0  0
  -24.8381  -18.7734   23.2719 C   0  0  0  0  0  0  0  0  0  0  0  0
  -24.7793  -16.6132   24.5282 C   0  0  0  0  0  0  0  0  0  0  0  0
  -22.3322  -28.9804   21.6998 C   0  0  0  0  0  0  0  0  0  0  0  0
  -21.8940  -30.0776   18.6788 C   0  0  0  0  0  0  0  0  0  0  0  0
  -23.1445  -30.4644   15.5271 C   0  0  0  0  0  0  0  0  0  0  0  0
  -25.8630  -22.3207   18.5583 C   0  0  0  0  0  0  0  0  0  0  0  0
  -17.4529  -29.0880   23.1960 C   0  0  0  0  0  0  0  0  0  0  0  0
  -24.4222  -30.3470   21.3526 C   0  0  0  0  0  0  0  0  0  0  0  0
  -23.8799  -28.5673   19.0540 C   0  0  0  0  0  0  0  0  0  0  0  0
  -18.2040  -28.6138   21.9545 C   0  0  0  0  0  0  0  0  0  0  0  0
  -23.4151  -22.7922   21.1004 C   0  0  0  0  0  0  0  0  0  0  0  0
  -19.3939  -27.7451   22.3498 C   0  0  0  0  0  0  0  0  0  0  0  0
  -23.3168  -21.4215   21.7723 C   0  0  0  0  0  0  0  0  0  0  0  0
  -23.6402  -22.6680   19.5951 C   0  0  0  0  0  0  0  0  0  0  0  0
  -24.6901  -20.4566   19.8797 C   0  0  0  0  0  0  0  0  0  0  0  0
  -20.3965  -28.5360   23.1987 C   0  0  1  0  0  0  0  0  0  0  0  0
  -23.0009  -30.0506   20.8842 C   0  0  1  0  0  0  0  0  0  0  0  0
  -24.5190  -20.5303   21.4067 C   0  0  2  0  0  0  0  0  0  0  0  0
  -22.5389  -31.3647   13.2643 C   0  0  0  0  0  0  0  0  0  0  0  0
  -20.1326  -27.6363   18.1815 C   0  0  0  0  0  0  0  0  0  0  0  0
  -20.3426  -28.0719   15.7250 C   0  0  0  0  0  0  0  0  0  0  0  0
  -19.2629  -29.7670   17.2027 C   0  0  0  0  0  0  0  0  0  0  0  0
  -25.3618  -32.4237   15.5850 C   0  0  0  0  0  0  0  0  0  0  0  0
  -28.0939  -21.8254   17.5904 C   0  0  0  0  0  0  0  0  0  0  0  0
  -30.4489  -25.9490   19.0917 C   0  0  0  0  0  0  0  0  0  0  0  0
  -29.5719  -26.6941   20.0922 C   0  0  0  0  0  0  0  0  0  1  0  0
  -21.7671  -29.4383   17.3171 C   0  0  1  0  0  0  0  0  0  0  0  0
  -23.1929  -31.6680   14.6033 C   0  0  2  0  0  0  0  0  0  0  0  0
  -20.3995  -28.7246   17.1227 C   0  0  0  0  0  0  0  0  0  0  0  0
  -31.0490  -23.7752   20.0114 N   0  0  0  0  0  0  0  0  0  0  0  0
  -23.8260  -18.1645   21.3347 N   0  0  0  0  0  0  0  0  0  0  0  0
  -24.4068  -19.1535   22.0351 N   0  0  0  0  0  0  0  0  0  0  0  0
  -22.9449  -29.6193   19.4859 N   0  0  0  0  0  0  0  0  0  0  0  0
  -24.7955  -21.8117   19.3162 N   0  0  0  0  0  0  0  0  0  0  0  0
  -25.4446  -19.6433   24.1072 N   0  0  0  0  0  0  0  0  0  0  0  0
  -24.3831  -15.2696   24.4815 N   0  0  0  0  0  0  0  0  0  0  0  0
  -21.1947  -29.4043   22.3599 N   0  0  0  0  0  0  0  0  0  0  0  0
  -22.0346  -30.4925   16.3447 N   0  0  0  0  0  0  0  0  0  0  0  0
  -26.9210  -21.4453   18.3458 N   0  0  0  0  0  0  0  0  0  0  0  0
  -24.6052  -32.0740   14.3553 N   0  3  0  0  0  0  0  0  0  0  0  0
  -25.3338  -17.0541   25.5634 O   0  0  0  0  0  0  0  0  0  0  0  0
  -22.8120  -27.8531   21.7271 O   0  0  0  0  0  0  0  0  0  0  0  0
  -21.0947  -30.9563   19.0112 O   0  0  0  0  0  0  0  0  0  0  0  0
  -24.0032  -29.5851   15.5211 O   0  0  0  0  0  0  0  0  0  0  0  0
  -25.8749  -23.4718   18.1092 O   0  0  0  0  0  0  0  0  0  0  0  0
  -21.8394  -12.1562   20.6252 O   0  0  0  0  0  0  0  0  0  0  0  0
  -28.1979  -26.4045   19.8384 O   0  0  0  0  0  0  0  0  0  1  0  0
  -24.9161   -7.6920   21.6295 F   0  0  0  0  0  0  0  0  0  0  0  0
  -22.6844  -10.5224   18.5613 F   0  0  0  0  0  0  0  0  0  0  0  0
  -29.7941  -20.0417   19.4680 Cl  0  0  0  0  0  0  0  0  0  0  0  0
  1  2  1  0  0  0  0
  1  5  2  0  0  0  0
  2  6  2  0  0  0  0
  3  8  2  0  0  0  0
  3 17  1  0  0  0  0
  4  9  1  0  0  0  0
  4 17  2  0  0  0  0
  5 19  1  0  0  0  0
  6 21  1  0  0  0  0
  7 10  2  0  0  0  0
  7 20  1  0  0  0  0
  8 24  1  0  0  0  0
  9 24  2  0  0  0  0
 10 25  1  0  0  0  0
 11 12  2  0  0  0  0
 11 26  1  0  0  0  0
 12 27  1  0  0  0  0
 13 22  1  0  0  0  0
 13 25  2  0  0  0  0
 14 23  2  0  0  0  0
 14 31  1  0  0  0  0
 15 27  2  0  0  0  0
 15 28  1  0  0  0  0
 16 29  2  0  0  0  0
 16 61  1  0  0  0  0
 17 30  1  0  0  0  0
 18 30  1  0  0  0  0
 18 32  2  0  0  0  0
 18 33  1  0  0  0  0
 19 21  2  0  0  0  0
 19 38  1  0  0  0  0
 20 22  2  0  0  0  0
 20 39  1  0  0  0  0
 21 47  1  0  0  0  0
 22 40  1  0  0  0  0
 23 29  1  0  0  0  0
 23 55  1  0  0  0  0
 24 77  1  0  0  0  0
 25 78  1  0  0  0  0
 26 28  2  0  0  0  0
 26 77  1  0  0  0  0
 27 79  1  0  0  0  0
 28 80  1  0  0  0  0
 29 81  1  0  0  0  0
 30 62  2  0  0  0  0
 31 56  1  0  0  0  0
 31 61  2  0  0  0  0
 32 63  1  0  0  0  0
 32 66  1  0  0  0  0
 33 67  1  0  0  0  0
 33 72  2  0  0  0  0
 34 48  1  0  0  0  0
 34 68  1  0  0  0  0
 34 73  2  0  0  0  0
 35 58  1  0  0  0  0
 35 64  1  0  0  0  0
 35 74  2  0  0  0  0
 36 59  1  0  0  0  0
 36 69  1  0  0  0  0
 36 75  2  0  0  0  0
 37 65  1  0  0  0  0
 37 70  1  0  0  0  0
 37 76  2  0  0  0  0
 38 41  1  0  0  0  0
 39 48  1  0  0  0  0
 40 64  1  0  0  0  0
 41 43  1  0  0  0  0
 42 44  1  0  0  0  0
 42 45  1  0  0  0  0
 43 47  1  0  0  0  0
 44 49  1  0  0  0  0
 45 65  1  0  0  0  0
 46 49  1  0  0  0  0
 46 65  1  0  0  0  0
 47 68  1  0  0  0  0
 48 64  1  0  0  0  0
 49 63  1  0  0  0  0
 50 59  1  0  0  0  0
 51 60  1  0  0  0  0
 52 60  1  0  0  0  0
 53 60  1  0  0  0  0
 54 71  1  0  0  0  0
 55 70  1  0  0  0  0
 56 57  1  0  0  0  0
 57 78  1  0  0  0  0
 58 60  1  0  0  0  0
 58 69  1  0  0  0  0
 59 71  1  0  0  0  0
 62 63  1  0  0  0  0
M  CHG  1  71   1
M  ISO  4  37 100  57 101  70 100  78 101
M  END
> <Batch ID>
0034

> <Smiles>
CNC(C)C(=O)NC(C(=O)N1Cc2cc([101O:1][101CH2:1]Cc3cc(C[100NH:0][100C:0](=O)N4CCCC(n5nc(-c6ccc(Oc7ccc(F)cc7F)cc6)c(C(N)=O)c5N)C4)c(Cl)cn3)ccc2CC1C(=O)NC1CCCc2ccccc21)C(C)(C)C

> <Shape>
0.216

> <Color>
0.074

> <Negative vol penalty>
0.000

$$$$

  -OEChem-04052316503D

 83 91  0     1  0  0  0  0  0999 V2000
  -16.8637  -30.8108   21.5720 C   0  0  0  0  0  0  0  0  0  0  0  0
  -18.0799  -31.1683   20.9988 C   0  0  0  0  0  0  0  0  0  0  0  0
  -26.2886  -12.9314   21.3613 C   0  0  0  0  0  0  0  0  0  0  0  0
  -26.1535  -13.2754   18.9737 C   0  0  0  0  0  0  0  0  0  0  0  0
  -16.8413  -30.0254   22.7237 C   0  0  0  0  0  0  0  0  0  0  0  0
  -19.2745  -30.7414   21.5777 C   0  0  0  0  0  0  0  0  0  0  0  0
  -25.9429  -28.7946   19.8288 C   0  0  0  0  0  0  0  0  0  0  0  0
  -25.0636  -12.2649   21.3346 C   0  0  0  0  0  0  0  0  0  0  0  0
  -24.9285  -12.6088   18.9470 C   0  0  0  0  0  0  0  0  0  0  0  0
  -27.2685  -29.0855   20.1478 C   0  0  0  0  0  0  0  0  0  0  0  0
  -23.9159   -9.1948   20.5038 C   0  0  0  0  0  0  0  0  0  0  0  0
  -23.8109   -8.0025   21.2202 C   0  0  0  0  0  0  0  0  0  0  0  0
  -27.1059  -27.6663   22.0916 C   0  0  0  0  0  0  0  0  0  0  0  0
  -32.2290  -25.4258   19.8616 C   0  0  0  0  0  0  0  0  0  0  0  0
  -22.0408   -8.9612   22.5561 C   0  0  0  0  0  0  0  0  0  0  0  0
  -26.8335  -13.4368   20.1809 C   0  0  0  0  0  0  0  0  0  0  0  0
  -29.3784  -13.5600   20.0537 C   0  0  0  0  0  0  0  0  0  0  0  0
  -18.0360  -29.5805   23.3115 C   0  0  0  0  0  0  0  0  0  0  0  0
  -25.1842  -27.9445   20.6462 C   0  0  0  0  0  0  0  0  0  0  0  0
  -19.2680  -29.9503   22.7391 C   0  0  0  0  0  0  0  0  0  0  0  0
  -25.7716  -27.3641   21.7794 C   0  0  0  0  0  0  0  0  0  0  0  0
  -31.8720  -24.1839   19.3482 C   0  0  0  0  0  0  0  0  0  0  0  0
  -30.5830  -23.9808   18.8680 C   0  0  0  0  0  0  0  0  0  0  0  0
  -24.3836  -12.1035   20.1275 C   0  0  0  0  0  0  0  0  0  0  0  0
  -27.8493  -28.5236   21.2810 C   0  0  0  0  0  0  0  0  0  0  0  0
  -23.0834  -10.2702   20.8137 C   0  0  0  0  0  0  0  0  0  0  0  0
  -22.8733   -7.8857   22.2463 C   0  0  0  0  0  0  0  0  0  0  0  0
  -22.1458  -10.1534   21.8398 C   0  0  0  0  0  0  0  0  0  0  0  0
  -28.0986  -14.1259   20.2079 C   0  0  0  0  0  0  0  0  0  0  0  0
  -31.2680  -26.4238   19.8723 C   0  0  0  0  0  0  0  0  0  0  0  0
  -29.6956  -25.0435   18.9234 C   0  0  0  0  0  0  0  0  0  0  0  0
  -30.2395  -14.6250   20.1576 C   0  0  0  0  0  0  0  0  0  0  0  0
  -29.7551  -12.1939   19.8360 C   0  0  0  0  0  0  0  0  0  0  0  0
  -22.5395  -28.2708   22.3791 C   0  0  0  0  0  0  0  0  0  0  0  0
  -22.8825  -25.0718   22.7928 C   0  0  0  0  0  0  0  0  0  0  0  0
  -24.9545  -22.3603   22.8243 C   0  0  0  0  0  0  0  0  0  0  0  0
  -29.5244  -20.3826   19.0646 C   0  0  0  0  0  0  0  0  0  0  0  0
  -17.9626  -28.7728   24.5831 C   0  0  0  0  0  0  0  0  0  0  0  0
  -23.7636  -27.6194   20.2736 C   0  0  0  0  0  0  0  0  0  0  0  0
  -25.0062  -26.4291   22.6785 C   0  0  0  0  0  0  0  0  0  0  0  0
  -19.2635  -28.0490   24.9208 C   0  0  0  0  0  0  0  0  0  0  0  0
  -30.6317  -18.9390   22.1931 C   0  0  0  0  0  0  0  0  0  0  0  0
  -20.4535  -28.9912   24.7690 C   0  0  0  0  0  0  0  0  0  0  0  0
  -30.2227  -17.4758   22.0145 C   0  0  0  0  0  0  0  0  0  0  0  0
  -29.5983  -19.8804   21.5816 C   0  0  0  0  0  0  0  0  0  0  0  0
  -28.8949  -18.1602   19.9630 C   0  0  0  0  0  0  0  0  0  0  0  0
  -20.5845  -29.4860   23.3235 C   0  0  1  0  0  0  0  0  0  0  0  0
  -22.9278  -27.1478   21.4595 C   0  0  1  0  0  0  0  0  0  0  0  0
  -29.9102  -17.1572   20.5404 C   0  0  2  0  0  0  0  0  0  0  0  0
  -32.8867  -23.0885   19.3256 C   0  0  0  0  0  0  0  0  0  0  0  0
  -24.9526  -19.8843   23.2328 C   0  0  0  0  0  0  0  0  0  0  0  0
  -22.7269  -25.5703   25.7990 C   0  0  0  0  0  0  0  0  0  0  0  0
  -23.6646  -23.2768   26.1574 C   0  0  0  0  0  0  0  0  0  0  0  0
  -21.4684  -23.5589   25.0086 C   0  0  0  0  0  0  0  0  0  0  0  0
  -25.8624  -21.7874   20.0663 C   0  0  0  0  0  0  0  0  0  0  0  0
  -30.1821  -22.6542   18.3135 C   0  0  0  0  0  0  0  0  0  0  0  0
  -31.6192  -27.7833   20.4217 C   0  0  0  0  0  0  0  0  0  0  0  0
  -31.3521  -27.9295   21.9213 C   0  0  0  0  0  0  0  0  0  0  0  0
  -29.8784  -27.7987   22.2877 C   0  0  0  0  0  0  0  0  0  1  0  0
  -23.5931  -24.1934   23.7941 C   0  0  1  0  0  0  0  0  0  0  0  0
  -24.8248  -20.9861   22.1924 C   0  0  2  0  0  0  0  0  0  0  0  0
  -22.8773  -24.1690   25.1741 C   0  0  0  0  0  0  0  0  0  0  0  0
  -28.1385  -15.4477   20.3956 N   0  0  0  0  0  0  0  0  0  0  0  0
  -30.0059  -26.2641   19.4148 N   0  0  0  0  0  0  0  0  0  0  0  0
  -29.4538  -15.7213   20.3601 N   0  0  0  0  0  0  0  0  0  0  0  0
  -23.6186  -26.1472   22.2754 N   0  0  0  0  0  0  0  0  0  0  0  0
  -29.3603  -19.5352   20.1729 N   0  0  0  0  0  0  0  0  0  0  0  0
  -31.5845  -14.7213   20.0946 N   0  0  0  0  0  0  0  0  0  0  0  0
  -28.7439  -11.2268   19.7547 N   0  0  0  0  0  0  0  0  0  0  0  0
  -21.1753  -28.4611   22.4900 N   0  0  0  0  0  0  0  0  0  0  0  0
  -23.7253  -22.8832   23.1662 N   0  0  0  0  0  0  0  0  0  0  0  0
  -29.9614  -21.6703   19.3500 N   0  0  0  0  0  0  0  0  0  0  0  0
  -25.8850  -20.7867   21.1641 N   0  3  0  0  0  0  0  0  0  0  0  0
  -30.9538  -11.8388   19.7335 O   0  0  0  0  0  0  0  0  0  0  0  0
  -23.4129  -28.9160   22.9472 O   0  0  0  0  0  0  0  0  0  0  0  0
  -21.7196  -24.8092   22.4759 O   0  0  0  0  0  0  0  0  0  0  0  0
  -26.0381  -22.9128   23.0006 O   0  0  0  0  0  0  0  0  0  0  0  0
  -29.3029  -20.0169   17.9052 O   0  0  0  0  0  0  0  0  0  0  0  0
  -23.1883  -11.4529   20.1010 O   0  0  0  0  0  0  0  0  0  0  0  0
  -29.1429  -28.8065   21.5950 O   0  0  0  0  0  0  0  0  0  1  0  0
  -22.7716   -6.7402   22.9331 F   0  0  0  0  0  0  0  0  0  0  0  0
  -21.3424  -11.1828   22.1412 F   0  0  0  0  0  0  0  0  0  0  0  0
  -28.0749  -24.9212   18.3589 Cl  0  0  0  0  0  0  0  0  0  0  0  0
  1  2  1  0  0  0  0
  1  5  2  0  0  0  0
  2  6  2  0  0  0  0
  3  8  2  0  0  0  0
  3 16  1  0  0  0  0
  4  9  1  0  0  0  0
  4 16  2  0  0  0  0
  5 18  1  0  0  0  0
  6 20  1  0  0  0  0
  7 10  2  0  0  0  0
  7 19  1  0  0  0  0
  8 24  1  0  0  0  0
  9 24  2  0  0  0  0
 10 25  1  0  0  0  0
 11 12  2  0  0  0  0
 11 26  1  0  0  0  0
 12 27  1  0  0  0  0
 13 21  1  0  0  0  0
 13 25  2  0  0  0  0
 14 22  2  0  0  0  0
 14 30  1  0  0  0  0
 15 27  2  0  0  0  0
 15 28  1  0  0  0  0
 16 29  1  0  0  0  0
 17 29  1  0  0  0  0
 17 32  2  0  0  0  0
 17 33  1  0  0  0  0
 18 20  2  0  0  0  0
 18 38  1  0  0  0  0
 19 21  2  0  0  0  0
 19 39  1  0  0  0  0
 20 47  1  0  0  0  0
 21 40  1  0  0  0  0
 22 23  1  0  0  0  0
 22 50  1  0  0  0  0
 23 31  2  0  0  0  0
 23 56  1  0  0  0  0
 24 79  1  0  0  0  0
 25 80  1  0  0  0  0
 26 28  2  0  0  0  0
 26 79  1  0  0  0  0
 27 81  1  0  0  0  0
 28 82  1  0  0  0  0
 29 63  2  0  0  0  0
 30 57  1  0  0  0  0
 30 64  2  0  0  0  0
 31 64  1  0  0  0  0
 31 83  1  0  0  0  0
 32 65  1  0  0  0  0
 32 68  1  0  0  0  0
 33 69  1  0  0  0  0
 33 74  2  0  0  0  0
 34 48  1  0  0  0  0
 34 70  1  0  0  0  0
 34 75  2  0  0  0  0
 35 60  1  0  0  0  0
 35 66  1  0  0  0  0
 35 76  2  0  0  0  0
 36 61  1  0  0  0  0
 36 71  1  0  0  0  0
 36 77  2  0  0  0  0
 37 67  1  0  0  0  0
 37 72  1  0  0  0  0
 37 78  2  0  0  0  0
 38 41  1  0  0  0  0
 39 48  1  0  0  0  0
 40 66  1  0  0  0  0
 41 43  1  0  0  0  0
 42 44  1  0  0  0  0
 42 45  1  0  0  0  0
 43 47  1  0  0  0  0
 44 49  1  0  0  0  0
 45 67  1  0  0  0  0
 46 49  1  0  0  0  0
 46 67  1  0  0  0  0
 47 70  1  0  0  0  0
 48 66  1  0  0  0  0
 49 65  1  0  0  0  0
 51 61  1  0  0  0  0
 52 62  1  0  0  0  0
 53 62  1  0  0  0  0
 54 62  1  0  0  0  0
 55 73  1  0  0  0  0
 56 72  1  0  0  0  0
 57 58  1  0  0  0  0
 58 59  1  0  0  0  0
 59 80  1  0  0  0  0
 60 62  1  0  0  0  0
 60 71  1  0  0  0  0
 61 73  1  0  0  0  0
 63 65  1  0  0  0  0
M  CHG  1  73   1
M  ISO  4  37 100  59 101  72 100  80 101
M  END
> <Batch ID>
0034

> <Smiles>
CNC(C)C(=O)NC(C(=O)N1Cc2cc([101O:1][101CH2:1]CCc3cc(C)c(C[100NH:0][100C:0](=O)N4CCCC(n5nc(-c6ccc(Oc7ccc(F)cc7F)cc6)c(C(N)=O)c5N)C4)c(Cl)n3)ccc2CC1C(=O)NC1CCCc2ccccc21)C(C)(C)C

> <Shape>
0.285

> <Color>
0.092

> <Negative vol penalty>
0.000

$$$$

  -OEChem-04052316503D

 86 95  0     1  0  0  0  0  0999 V2000
  -25.2928  -23.1031   14.5493 C   0  0  0  0  0  0  0  0  0  0  0  0
  -25.0815  -23.0914   15.9243 C   0  0  0  0  0  0  0  0  0  0  0  0
  -24.5541   -9.8685   20.4299 C   0  0  0  0  0  0  0  0  0  0  0  0
  -24.9484  -10.4878   22.7316 C   0  0  0  0  0  0  0  0  0  0  0  0
  -26.3784  -23.7980   14.0179 C   0  0  0  0  0  0  0  0  0  0  0  0
  -25.9566  -23.7737   16.7689 C   0  0  0  0  0  0  0  0  0  0  0  0
  -23.5360  -26.4592   20.3149 C   0  0  0  0  0  0  0  0  0  0  0  0
  -24.2816   -8.5599   20.8286 C   0  0  0  0  0  0  0  0  0  0  0  0
  -24.6758   -9.1793   23.1304 C   0  0  0  0  0  0  0  0  0  0  0  0
  -23.0345  -25.7596   21.4116 C   0  0  0  0  0  0  0  0  0  0  0  0
  -21.9486   -7.2518   23.6483 C   0  0  0  0  0  0  0  0  0  0  0  0
  -21.1190   -7.0728   24.7552 C   0  0  0  0  0  0  0  0  0  0  0  0
  -26.6837  -20.6903   22.6206 C   0  0  0  0  0  0  0  0  0  0  0  0
  -24.9420  -26.4503   22.7168 C   0  0  0  0  0  0  0  0  0  0  0  0
  -22.8992   -5.9089   25.9012 C   0  0  0  0  0  0  0  0  0  0  0  0
  -24.8876  -10.8324   21.3814 C   0  0  0  0  0  0  0  0  0  0  0  0
  -24.2512  -13.2433   20.8425 C   0  0  0  0  0  0  0  0  0  0  0  0
  -27.2617  -24.4972   14.8555 C   0  0  0  0  0  0  0  0  0  0  0  0
  -24.7519  -27.1517   20.4078 C   0  0  0  0  0  0  0  0  0  0  0  0
  -27.0558  -24.4775   16.2482 C   0  0  0  0  0  0  0  0  0  0  0  0
  -25.9320  -21.1165   23.7200 C   0  0  0  0  0  0  0  0  0  0  0  0
  -25.4555  -27.1600   21.6206 C   0  0  0  0  0  0  0  0  0  0  0  0
  -27.8932  -20.0344   22.8120 C   0  0  0  0  0  0  0  0  0  0  0  0
  -24.3424   -8.2153   22.1789 C   0  0  0  0  0  0  0  0  0  0  0  0
  -23.7389  -25.7527   22.6119 C   0  0  0  0  0  0  0  0  0  0  0  0
  -23.2535   -6.7593   23.6678 C   0  0  0  0  0  0  0  0  0  0  0  0
  -21.5942   -6.4013   25.8816 C   0  0  0  0  0  0  0  0  0  0  0  0
  -23.7288   -6.0879   24.7943 C   0  0  0  0  0  0  0  0  0  0  0  0
  -25.1698  -12.1842   20.9700 C   0  0  0  0  0  0  0  0  0  0  0  0
  -26.4313  -20.8376   24.9953 C   0  0  0  0  0  0  0  0  0  0  0  0
  -28.3104  -19.8183   24.1118 C   0  0  0  0  0  0  0  0  0  0  0  0
  -25.0114  -14.3089   20.4265 C   0  0  0  0  0  0  0  0  0  0  0  0
  -22.8372  -13.2622   21.0791 C   0  0  0  0  0  0  0  0  0  0  0  0
  -27.5713  -26.9389   18.9554 C   0  0  0  0  0  0  0  0  0  0  0  0
  -28.2097  -29.6301   20.6502 C   0  0  0  0  0  0  0  0  0  0  0  0
  -27.5187  -31.5742   23.3686 C   0  0  0  0  0  0  0  0  0  0  0  0
  -29.6148  -17.4421   20.7961 C   0  0  0  0  0  0  0  0  0  0  0  0
  -28.4481  -25.1947   14.2388 C   0  0  0  0  0  0  0  0  0  0  0  0
  -25.2659  -27.9236   19.2236 C   0  0  0  0  0  0  0  0  0  0  0  0
  -24.6022  -21.7882   23.5057 C   0  0  0  0  0  0  0  0  0  0  0  0
  -26.7553  -27.9045   21.7782 C   0  0  0  0  0  0  0  0  0  0  0  0
  -25.7005  -21.2876   26.2317 C   0  0  0  0  0  0  0  0  0  0  0  0
  -29.1144  -26.2030   15.1714 C   0  0  0  0  0  0  0  0  0  0  0  0
  -24.2268  -21.6025   25.9821 C   0  0  0  0  0  0  0  0  0  0  0  0
  -29.7955  -14.5026   18.7953 C   0  0  0  0  0  0  0  0  0  0  0  0
  -29.3130  -25.5979   16.5575 C   0  0  0  0  0  0  0  0  0  0  0  0
  -28.5363  -13.7225   19.1768 C   0  0  0  0  0  0  0  0  0  0  0  0
  -30.3941  -15.2307   19.9968 C   0  0  0  0  0  0  0  0  0  0  0  0
  -28.1944  -15.3246   21.1042 C   0  0  0  0  0  0  0  0  0  0  0  0
  -27.9688  -25.2262   17.1949 C   0  0  1  0  0  0  0  0  0  0  0  0
  -26.7707  -28.1689   19.2778 C   0  0  1  0  0  0  0  0  0  0  0  0
  -24.0754  -22.5092   24.7562 C   0  0  2  0  0  0  0  0  0  0  0  0
  -27.5230  -14.6189   19.9136 C   0  0  2  0  0  0  0  0  0  0  0  0
  -30.7090  -20.0881   24.7902 C   0  0  0  0  0  0  0  0  0  0  0  0
  -28.2311  -33.6944   24.5064 C   0  0  0  0  0  0  0  0  0  0  0  0
  -30.7006  -28.2217   21.7096 C   0  0  0  0  0  0  0  0  0  0  0  0
  -30.8331  -29.9589   23.5075 C   0  0  0  0  0  0  0  0  0  0  0  0
  -31.0365  -30.6270   21.1127 C   0  0  0  0  0  0  0  0  0  0  0  0
  -24.8349  -32.7814   23.0545 C   0  0  0  0  0  0  0  0  0  0  0  0
  -28.6925  -19.5870   21.6376 C   0  0  0  0  0  0  0  0  0  0  0  0
  -29.6027  -19.1200   24.3821 C   0  0  0  0  0  0  0  0  0  0  0  0
  -22.6202  -22.9298   24.5631 C   0  0  0  0  0  0  0  0  0  0  0  0
  -22.4630  -23.9124   23.4127 C   0  0  0  0  0  0  0  0  0  1  0  0
  -28.7825  -29.9227   22.0159 C   0  0  1  0  0  0  0  0  0  0  0  0
  -27.2753  -33.0665   23.5040 C   0  0  2  0  0  0  0  0  0  0  0  0
  -30.3147  -29.6669   22.0832 C   0  0  0  0  0  0  0  0  0  0  0  0
  -26.4181  -12.5441   20.6599 N   0  0  0  0  0  0  0  0  0  0  0  0
  -27.6135  -20.2041   25.2031 N   0  0  0  0  0  0  0  0  0  0  0  0
  -26.2893  -13.8414   20.3333 N   0  0  0  0  0  0  0  0  0  0  0  0
  -27.2198  -28.6390   20.5898 N   0  0  0  0  0  0  0  0  0  0  0  0
  -29.3821  -16.0646   20.6499 N   0  0  0  0  0  0  0  0  0  0  0  0
  -24.7047  -15.5908   20.1348 N   0  0  0  0  0  0  0  0  0  0  0  0
  -22.2149  -12.0801   21.5030 N   0  0  0  0  0  0  0  0  0  0  0  0
  -27.3084  -26.4077   17.7071 N   0  0  0  0  0  0  0  0  0  0  0  0
  -28.3904  -31.2904   22.3386 N   0  0  0  0  0  0  0  0  0  0  0  0
  -28.6022  -18.1603   21.4203 N   0  0  0  0  0  0  0  0  0  0  0  0
  -25.8801  -33.3244   23.9599 N   0  3  0  0  0  0  0  0  0  0  0  0
  -22.1435  -14.2925   20.9036 O   0  0  0  0  0  0  0  0  0  0  0  0
  -28.3695  -26.5049   19.7777 O   0  0  0  0  0  0  0  0  0  0  0  0
  -28.6202  -30.2627   19.6740 O   0  0  0  0  0  0  0  0  0  0  0  0
  -26.9915  -30.7437   24.1054 O   0  0  0  0  0  0  0  0  0  0  0  0
  -30.6461  -17.9921   20.3951 O   0  0  0  0  0  0  0  0  0  0  0  0
  -24.0762   -6.9386   22.5684 O   0  0  0  0  0  0  0  0  0  0  0  0
  -23.2520  -25.0702   23.6838 O   0  0  0  0  0  0  0  0  0  1  0  0
  -20.7979   -6.2308   26.9451 F   0  0  0  0  0  0  0  0  0  0  0  0
  -24.9819   -5.6136   24.8193 F   0  0  0  0  0  0  0  0  0  0  0  0
  1  2  1  0  0  0  0
  1  5  2  0  0  0  0
  2  6  2  0  0  0  0
  3  8  2  0  0  0  0
  3 16  1  0  0  0  0
  4  9  1  0  0  0  0
  4 16  2  0  0  0  0
  5 18  1  0  0  0  0
  6 20  1  0  0  0  0
  7 10  2  0  0  0  0
  7 19  1  0  0  0  0
  8 24  1  0  0  0  0
  9 24  2  0  0  0  0
 10 25  1  0  0  0  0
 11 12  2  0  0  0  0
 11 26  1  0  0  0  0
 12 27  1  0  0  0  0
 13 21  2  0  0  0  0
 13 23  1  0  0  0  0
 14 22  1  0  0  0  0
 14 25  2  0  0  0  0
 15 27  2  0  0  0  0
 15 28  1  0  0  0  0
 16 29  1  0  0  0  0
 17 29  1  0  0  0  0
 17 32  2  0  0  0  0
 17 33  1  0  0  0  0
 18 20  2  0  0  0  0
 18 38  1  0  0  0  0
 19 22  2  0  0  0  0
 19 39  1  0  0  0  0
 20 50  1  0  0  0  0
 21 30  1  0  0  0  0
 21 40  1  0  0  0  0
 22 41  1  0  0  0  0
 23 31  2  0  0  0  0
 23 60  1  0  0  0  0
 24 83  1  0  0  0  0
 25 84  1  0  0  0  0
 26 28  2  0  0  0  0
 26 83  1  0  0  0  0
 27 85  1  0  0  0  0
 28 86  1  0  0  0  0
 29 67  2  0  0  0  0
 30 42  1  0  0  0  0
 30 68  2  0  0  0  0
 31 61  1  0  0  0  0
 31 68  1  0  0  0  0
 32 69  1  0  0  0  0
 32 72  1  0  0  0  0
 33 73  1  0  0  0  0
 33 78  2  0  0  0  0
 34 51  1  0  0  0  0
 34 74  1  0  0  0  0
 34 79  2  0  0  0  0
 35 64  1  0  0  0  0
 35 70  1  0  0  0  0
 35 80  2  0  0  0  0
 36 65  1  0  0  0  0
 36 75  1  0  0  0  0
 36 81  2  0  0  0  0
 37 71  1  0  0  0  0
 37 76  1  0  0  0  0
 37 82  2  0  0  0  0
 38 43  1  0  0  0  0
 39 51  1  0  0  0  0
 40 52  1  0  0  0  0
 41 70  1  0  0  0  0
 42 44  1  0  0  0  0
 43 46  1  0  0  0  0
 44 52  1  0  0  0  0
 45 47  1  0  0  0  0
 45 48  1  0  0  0  0
 46 50  1  0  0  0  0
 47 53  1  0  0  0  0
 48 71  1  0  0  0  0
 49 53  1  0  0  0  0
 49 71  1  0  0  0  0
 50 74  1  0  0  0  0
 51 70  1  0  0  0  0
 52 62  1  0  0  0  0
 53 69  1  0  0  0  0
 54 61  1  0  0  0  0
 55 65  1  0  0  0  0
 56 66  1  0  0  0  0
 57 66  1  0  0  0  0
 58 66  1  0  0  0  0
 59 77  1  0  0  0  0
 60 76  1  0  0  0  0
 62 63  1  0  0  0  0
 63 84  1  0  0  0  0
 64 66  1  0  0  0  0
 64 75  1  0  0  0  0
 65 77  1  0  0  0  0
 67 69  1  0  0  0  0
M  CHG  1  77   1
M  ISO  4  37 100  63 101  76 100  84 101
M  END
> <Batch ID>
0034

> <Smiles>
CCc1nc2c(cc1C[100NH:0][100C:0](=O)N1CCCC(n3nc(-c4ccc(Oc5ccc(F)cc5F)cc4)c(C(N)=O)c3N)C1)CC(C[101CH2:1][101O:1]c1ccc3c(c1)CN(C(=O)C(NC(=O)C(C)NC)C(C)(C)C)C(C(=O)NC1CCCc4ccccc41)C3)CC2

> <Shape>
0.215

> <Color>
0.125

> <Negative vol penalty>
0.000

$$$$

  -OEChem-04052316503D

 87 96  0     1  0  0  0  0  0999 V2000
  -30.3288  -12.4419   19.7446 C   0  0  0  0  0  0  0  0  0  0  0  0
  -30.1202  -13.8170   19.7135 C   0  0  0  0  0  0  0  0  0  0  0  0
  -25.3043  -30.9157   20.3336 C   0  0  0  0  0  0  0  0  0  0  0  0
  -23.2657  -29.7276   20.8529 C   0  0  0  0  0  0  0  0  0  0  0  0
  -29.2542  -11.5708   19.5704 C   0  0  0  0  0  0  0  0  0  0  0  0
  -28.8369  -14.3219   19.5070 C   0  0  0  0  0  0  0  0  0  0  0  0
  -27.7110  -18.1172   22.6650 C   0  0  0  0  0  0  0  0  0  0  0  0
  -25.1784  -31.6477   21.5142 C   0  0  0  0  0  0  0  0  0  0  0  0
  -23.1398  -30.4595   22.0335 C   0  0  0  0  0  0  0  0  0  0  0  0
  -28.2440  -19.3711   22.3691 C   0  0  0  0  0  0  0  0  0  0  0  0
  -25.7617  -31.1768   24.8113 C   0  0  0  0  0  0  0  0  0  0  0  0
  -26.9016  -31.3379   25.5989 C   0  0  0  0  0  0  0  0  0  0  0  0
  -29.8322  -24.1452   22.4615 C   0  0  0  0  0  0  0  0  0  0  0  0
  -26.1330  -20.0353   21.4091 C   0  0  0  0  0  0  0  0  0  0  0  0
  -26.7285  -33.7357   25.3590 C   0  0  0  0  0  0  0  0  0  0  0  0
  -24.3479  -29.9557   20.0029 C   0  0  0  0  0  0  0  0  0  0  0  0
  -24.5124  -29.7047   17.4696 C   0  0  0  0  0  0  0  0  0  0  0  0
  -27.9555  -12.0652   19.3714 C   0  0  0  0  0  0  0  0  0  0  0  0
  -26.3861  -17.8088   22.3247 C   0  0  0  0  0  0  0  0  0  0  0  0
  -27.7441  -13.4566   19.3287 C   0  0  0  0  0  0  0  0  0  0  0  0
  -30.1924  -25.4647   22.1469 C   0  0  0  0  0  0  0  0  0  0  0  0
  -25.5848  -18.7777   21.7040 C   0  0  0  0  0  0  0  0  0  0  0  0
  -29.7165  -23.1836   21.4674 C   0  0  0  0  0  0  0  0  0  0  0  0
  -24.0962  -31.4196   22.3642 C   0  0  0  0  0  0  0  0  0  0  0  0
  -27.4559  -20.3293   21.7385 C   0  0  0  0  0  0  0  0  0  0  0  0
  -25.1052  -32.2951   24.2975 C   0  0  0  0  0  0  0  0  0  0  0  0
  -27.3850  -32.6173   25.8727 C   0  0  0  0  0  0  0  0  0  0  0  0
  -25.5886  -33.5746   24.5714 C   0  0  0  0  0  0  0  0  0  0  0  0
  -24.4771  -29.1996   18.7831 C   0  0  0  0  0  0  0  0  0  0  0  0
  -30.4313  -25.7646   20.8002 C   0  0  0  0  0  0  0  0  0  0  0  0
  -29.9628  -23.5763   20.1689 C   0  0  0  0  0  0  0  0  0  0  0  0
  -24.6455  -28.5909   16.6769 C   0  0  0  0  0  0  0  0  0  0  0  0
  -24.4321  -31.0595   17.0073 C   0  0  0  0  0  0  0  0  0  0  0  0
  -24.9974  -15.6715   20.4253 C   0  0  0  0  0  0  0  0  0  0  0  0
  -22.2747  -16.8616   21.7266 C   0  0  0  0  0  0  0  0  0  0  0  0
  -20.6991  -19.4653   23.2710 C   0  0  0  0  0  0  0  0  0  0  0  0
  -26.8761  -23.1235   17.6685 C   0  0  0  0  0  0  0  0  0  0  0  0
  -26.8330  -11.0848   19.1407 C   0  0  0  0  0  0  0  0  0  0  0  0
  -25.8178  -16.4608   22.6747 C   0  0  0  0  0  0  0  0  0  0  0  0
  -30.2501  -26.4818   23.2553 C   0  0  0  0  0  0  0  0  0  0  0  0
  -24.1503  -18.5033   21.3361 C   0  0  0  0  0  0  0  0  0  0  0  0
  -30.8450  -27.1311   20.3148 C   0  0  0  0  0  0  0  0  0  0  0  0
  -25.4449  -11.6994   19.3010 C   0  0  0  0  0  0  0  0  0  0  0  0
  -28.8679  -26.9504   23.7235 C   0  0  0  0  0  0  0  0  0  0  0  0
  -29.6878  -28.1191   20.1178 C   0  0  0  0  0  0  0  0  0  0  0  0
  -27.8970  -27.4246   22.6368 C   0  0  0  0  0  0  0  0  0  0  0  0
  -29.4488  -29.0581   21.3070 C   0  0  0  0  0  0  0  0  0  0  0  0
  -28.1503  -28.8226   22.0766 C   0  0  0  0  0  0  0  0  0  0  0  0
  -23.5874  -23.9263   16.5653 C   0  0  0  0  0  0  0  0  0  0  0  0
  -25.3618  -13.0307   18.5610 C   0  0  0  0  0  0  0  0  0  0  0  0
  -23.4457  -25.4143   16.8901 C   0  0  0  0  0  0  0  0  0  0  0  0
  -24.4001  -23.1914   17.6290 C   0  0  0  0  0  0  0  0  0  0  0  0
  -25.5810  -25.2670   18.2383 C   0  0  0  0  0  0  0  0  0  0  0  0
  -26.3628  -14.0426   19.1319 C   0  0  1  0  0  0  0  0  0  0  0  0
  -24.6134  -16.0797   21.8195 C   0  0  1  0  0  0  0  0  0  0  0  0
  -24.8165  -26.0612   17.1654 C   0  0  2  0  0  0  0  0  0  0  0  0
  -18.4636  -20.1568   24.1773 C   0  0  0  0  0  0  0  0  0  0  0  0
  -21.2711  -17.3337   18.8841 C   0  0  0  0  0  0  0  0  0  0  0  0
  -19.5190  -18.8519   19.8294 C   0  0  0  0  0  0  0  0  0  0  0  0
  -19.5501  -16.4394   20.4630 C   0  0  0  0  0  0  0  0  0  0  0  0
  -21.7766  -19.7786   26.0096 C   0  0  0  0  0  0  0  0  0  0  0  0
  -29.3323  -21.7884   21.8178 C   0  0  0  0  0  0  0  0  0  1  0  0
  -29.8511  -22.5953   19.0487 C   0  0  0  0  0  0  0  0  0  0  0  0
  -29.3551  -23.2162   17.7381 C   0  0  0  0  0  0  0  0  0  0  0  0
  -21.3273  -17.9852   21.3817 C   0  0  1  0  0  0  0  0  0  0  0  0
  -19.8059  -19.5176   24.4973 C   0  0  2  0  0  0  0  0  0  0  0  0
  -20.4445  -17.6574   20.1446 C   0  0  0  0  0  0  0  0  0  0  0  0
  -24.5794  -27.8685   18.8267 N   0  0  0  0  0  0  0  0  0  0  0  0
  -30.3126  -24.8316   19.8162 N   0  0  0  0  0  0  0  0  0  0  0  0
  -24.6801  -27.5278   17.5306 N   0  0  0  0  0  0  0  0  0  0  0  0
  -23.6424  -17.1685   21.6935 N   0  0  0  0  0  0  0  0  0  0  0  0
  -25.6891  -23.8543   17.8413 N   0  0  0  0  0  0  0  0  0  0  0  0
  -24.7350  -28.4270   15.3399 N   0  0  0  0  0  0  0  0  0  0  0  0
  -23.1685  -31.5943   16.7218 N   0  0  0  0  0  0  0  0  0  0  0  0
  -25.8671  -14.5990   20.3725 N   0  0  0  0  0  0  0  0  0  0  0  0
  -20.5715  -18.2692   22.5968 N   0  0  0  0  0  0  0  0  0  0  0  0
  -28.0536  -23.8292   17.8832 N   0  0  0  0  0  0  0  0  0  0  0  0
  -20.4573  -20.3089   25.5792 N   0  3  0  0  0  0  0  0  0  0  0  0
  -25.4521  -31.7694   16.8363 O   0  0  0  0  0  0  0  0  0  0  0  0
  -24.5374  -16.2834   19.4684 O   0  0  0  0  0  0  0  0  0  0  0  0
  -21.8179  -15.7544   22.0216 O   0  0  0  0  0  0  0  0  0  0  0  0
  -21.4337  -20.3940   22.9418 O   0  0  0  0  0  0  0  0  0  0  0  0
  -26.8859  -21.9319   17.3415 O   0  0  0  0  0  0  0  0  0  0  0  0
  -23.9731  -32.1336   23.5165 O   0  0  0  0  0  0  0  0  0  0  0  0
  -27.9774  -21.5618   21.4461 O   0  0  0  0  0  0  0  0  0  1  0  0
  -28.4788  -32.7719   26.6303 F   0  0  0  0  0  0  0  0  0  0  0  0
  -24.9614  -34.6528   24.0816 F   0  0  0  0  0  0  0  0  0  0  0  0
  1  2  1  0  0  0  0
  1  5  2  0  0  0  0
  2  6  2  0  0  0  0
  3  8  2  0  0  0  0
  3 16  1  0  0  0  0
  4  9  1  0  0  0  0
  4 16  2  0  0  0  0
  5 18  1  0  0  0  0
  6 20  1  0  0  0  0
  7 10  2  0  0  0  0
  7 19  1  0  0  0  0
  8 24  1  0  0  0  0
  9 24  2  0  0  0  0
 10 25  1  0  0  0  0
 11 12  2  0  0  0  0
 11 26  1  0  0  0  0
 12 27  1  0  0  0  0
 13 21  2  0  0  0  0
 13 23  1  0  0  0  0
 14 22  1  0  0  0  0
 14 25  2  0  0  0  0
 15 27  2  0  0  0  0
 15 28  1  0  0  0  0
 16 29  1  0  0  0  0
 17 29  1  0  0  0  0
 17 32  2  0  0  0  0
 17 33  1  0  0  0  0
 18 20  2  0  0  0  0
 18 38  1  0  0  0  0
 19 22  2  0  0  0  0
 19 39  1  0  0  0  0
 20 54  1  0  0  0  0
 21 30  1  0  0  0  0
 21 40  1  0  0  0  0
 22 41  1  0  0  0  0
 23 31  2  0  0  0  0
 23 62  1  0  0  0  0
 24 84  1  0  0  0  0
 25 85  1  0  0  0  0
 26 28  2  0  0  0  0
 26 84  1  0  0  0  0
 27 86  1  0  0  0  0
 28 87  1  0  0  0  0
 29 68  2  0  0  0  0
 30 42  1  0  0  0  0
 30 69  2  0  0  0  0
 31 63  1  0  0  0  0
 31 69  1  0  0  0  0
 32 70  1  0  0  0  0
 32 73  1  0  0  0  0
 33 74  1  0  0  0  0
 33 79  2  0  0  0  0
 34 55  1  0  0  0  0
 34 75  1  0  0  0  0
 34 80  2  0  0  0  0
 35 65  1  0  0  0  0
 35 71  1  0  0  0  0
 35 81  2  0  0  0  0
 36 66  1  0  0  0  0
 36 76  1  0  0  0  0
 36 82  2  0  0  0  0
 37 72  1  0  0  0  0
 37 77  1  0  0  0  0
 37 83  2  0  0  0  0
 38 43  1  0  0  0  0
 39 55  1  0  0  0  0
 40 44  1  0  0  0  0
 41 71  1  0  0  0  0
 42 45  1  0  0  0  0
 43 50  1  0  0  0  0
 44 46  1  0  0  0  0
 45 47  1  0  0  0  0
 46 48  1  0  0  0  0
 47 48  1  0  0  0  0
 49 51  1  0  0  0  0
 49 52  1  0  0  0  0
 50 54  1  0  0  0  0
 51 56  1  0  0  0  0
 52 72  1  0  0  0  0
 53 56  1  0  0  0  0
 53 72  1  0  0  0  0
 54 75  1  0  0  0  0
 55 71  1  0  0  0  0
 56 70  1  0  0  0  0
 57 66  1  0  0  0  0
 58 67  1  0  0  0  0
 59 67  1  0  0  0  0
 60 67  1  0  0  0  0
 61 78  1  0  0  0  0
 62 85  1  0  0  0  0
 63 64  1  0  0  0  0
 64 77  1  0  0  0  0
 65 67  1  0  0  0  0
 65 76  1  0  0  0  0
 66 78  1  0  0  0  0
 68 70  1  0  0  0  0
M  CHG  1  78   1
M  ISO  4  37 100  62 101  77 100  85 101
M  END
> <Batch ID>
0034

> <Smiles>
CNC(C)C(=O)NC(C(=O)N1Cc2cc([101O:1][101CH2:1]c3cc4c(nc3CC[100NH:0][100C:0](=O)N3CCCC(n5nc(-c6ccc(Oc7ccc(F)cc7F)cc6)c(C(N)=O)c5N)C3)CCCCCCC4)ccc2CC1C(=O)NC1CCCc2ccccc21)C(C)(C)C

> <Shape>
0.230

> <Color>
0.068

> <Negative vol penalty>
0.000

$$$$

  -OEChem-04052316503D

 83 91  0     1  0  0  0  0  0999 V2000
  -28.2073   -8.3300   30.3892 C   0  0  0  0  0  0  0  0  0  0  0  0
  -29.0127   -9.4109   30.0451 C   0  0  0  0  0  0  0  0  0  0  0  0
  -23.2881   -9.7998   19.9132 C   0  0  0  0  0  0  0  0  0  0  0  0
  -23.7394   -9.9398   22.2825 C   0  0  0  0  0  0  0  0  0  0  0  0
  -26.8332   -8.3851   30.1601 C   0  0  0  0  0  0  0  0  0  0  0  0
  -28.4443  -10.5474   29.4707 C   0  0  0  0  0  0  0  0  0  0  0  0
  -30.2061  -16.3562   30.2828 C   0  0  0  0  0  0  0  0  0  0  0  0
  -22.5617   -8.6272   20.1208 C   0  0  0  0  0  0  0  0  0  0  0  0
  -23.0130   -8.7672   22.4902 C   0  0  0  0  0  0  0  0  0  0  0  0
  -31.0006  -17.2108   29.5198 C   0  0  0  0  0  0  0  0  0  0  0  0
  -20.9742   -6.0068   23.6908 C   0  0  0  0  0  0  0  0  0  0  0  0
  -20.0728   -5.9812   24.7549 C   0  0  0  0  0  0  0  0  0  0  0  0
  -29.0177  -18.1441   28.5116 C   0  0  0  0  0  0  0  0  0  0  0  0
  -30.7716  -16.5533   25.1407 C   0  0  0  0  0  0  0  0  0  0  0  0
  -32.8199  -15.3435   23.6835 C   0  0  0  0  0  0  0  0  0  0  0  0
  -18.8631   -7.8286   23.7747 C   0  0  0  0  0  0  0  0  0  0  0  0
  -23.8769  -10.4561   20.9940 C   0  0  0  0  0  0  0  0  0  0  0  0
  -24.1363  -12.9861   20.7960 C   0  0  0  0  0  0  0  0  0  0  0  0
  -26.2464   -9.5266   29.5915 C   0  0  0  0  0  0  0  0  0  0  0  0
  -28.8096  -16.3816   30.1578 C   0  0  0  0  0  0  0  0  0  0  0  0
  -27.0612  -10.6173   29.2326 C   0  0  0  0  0  0  0  0  0  0  0  0
  -28.2077  -17.2906   29.2760 C   0  0  0  0  0  0  0  0  0  0  0  0
  -30.7009  -15.1943   24.8345 C   0  0  0  0  0  0  0  0  0  0  0  0
  -32.8905  -16.7025   23.9897 C   0  0  0  0  0  0  0  0  0  0  0  0
  -31.8664  -17.3074   24.7183 C   0  0  0  0  0  0  0  0  0  0  0  0
  -31.7250  -14.5894   24.1059 C   0  0  0  0  0  0  0  0  0  0  0  0
  -22.4242   -8.1109   21.4093 C   0  0  0  0  0  0  0  0  0  0  0  0
  -30.4066  -18.1029   28.6319 C   0  0  0  0  0  0  0  0  0  0  0  0
  -20.8201   -6.9433   22.6685 C   0  0  0  0  0  0  0  0  0  0  0  0
  -19.0173   -6.8921   24.7969 C   0  0  0  0  0  0  0  0  0  0  0  0
  -19.7645   -7.8542   22.7105 C   0  0  0  0  0  0  0  0  0  0  0  0
  -24.6278  -11.6670   20.7801 C   0  0  0  0  0  0  0  0  0  0  0  0
  -25.2377  -13.7661   20.5410 C   0  0  0  0  0  0  0  0  0  0  0  0
  -22.8033  -13.4637   21.0213 C   0  0  0  0  0  0  0  0  0  0  0  0
  -26.6001  -14.2834   29.2527 C   0  0  0  0  0  0  0  0  0  0  0  0
  -24.5552  -16.6199   30.1916 C   0  0  0  0  0  0  0  0  0  0  0  0
  -24.0200  -19.9398   30.7737 C   0  0  0  0  0  0  0  0  0  0  0  0
  -31.1089  -12.9228   21.3590 C   0  0  0  0  0  0  0  0  0  0  0  0
  -24.7629   -9.5212   29.3194 C   0  0  0  0  0  0  0  0  0  0  0  0
  -27.9654  -15.4718   31.0075 C   0  0  0  0  0  0  0  0  0  0  0  0
  -26.7119  -17.3714   29.1194 C   0  0  0  0  0  0  0  0  0  0  0  0
  -24.1877  -10.9096   29.0516 C   0  0  0  0  0  0  0  0  0  0  0  0
  -29.4593  -13.6630   18.2918 C   0  0  0  0  0  0  0  0  0  0  0  0
  -25.0679  -11.6709   28.0653 C   0  0  0  0  0  0  0  0  0  0  0  0
  -27.9896  -13.3544   18.5832 C   0  0  0  0  0  0  0  0  0  0  0  0
  -30.3927  -12.6834   18.9997 C   0  0  0  0  0  0  0  0  0  0  0  0
  -28.7065  -12.2536   20.7449 C   0  0  0  0  0  0  0  0  0  0  0  0
  -26.4784  -11.8774   28.6303 C   0  0  1  0  0  0  0  0  0  0  0  0
  -26.5779  -15.2255   30.4230 C   0  0  1  0  0  0  0  0  0  0  0  0
  -27.7284  -13.2490   20.0977 C   0  0  2  0  0  0  0  0  0  0  0  0
  -29.5194  -14.4071   25.2979 C   0  0  0  0  0  0  0  0  0  0  0  0
  -34.0720  -17.4898   23.5262 C   0  0  0  0  0  0  0  0  0  0  0  0
  -22.2370  -21.5504   31.4979 C   0  0  0  0  0  0  0  0  0  0  0  0
  -23.2576  -16.4179   27.4374 C   0  0  0  0  0  0  0  0  0  0  0  0
  -22.1626  -18.6278   27.8681 C   0  0  0  0  0  0  0  0  0  0  0  0
  -21.6469  -16.6758   29.3331 C   0  0  0  0  0  0  0  0  0  0  0  0
  -25.5822  -20.7848   33.1411 C   0  0  0  0  0  0  0  0  0  0  0  0
  -31.9204  -18.7749   25.0605 C   0  0  0  0  0  0  0  0  0  0  0  0
  -31.6713  -13.1359   23.7668 C   0  0  0  0  0  0  0  0  0  0  0  0
  -32.8824  -19.1058   26.2036 C   0  0  0  0  0  0  0  0  0  0  0  0
  -32.4821  -18.4740   27.5317 C   0  0  0  0  0  0  0  0  0  1  0  0
  -23.9023  -17.8031   29.5187 C   0  0  1  0  0  0  0  0  0  0  0  0
  -23.3910  -20.6679   31.9478 C   0  0  2  0  0  0  0  0  0  0  0  0
  -22.7706  -17.3785   28.5406 C   0  0  0  0  0  0  0  0  0  0  0  0
  -25.9394  -11.6084   20.5343 N   0  0  0  0  0  0  0  0  0  0  0  0
  -26.2813  -12.9004   20.3932 N   0  0  0  0  0  0  0  0  0  0  0  0
  -25.9297  -16.4569   29.9676 N   0  0  0  0  0  0  0  0  0  0  0  0
  -30.0938  -12.6316   20.4328 N   0  0  0  0  0  0  0  0  0  0  0  0
  -25.4056  -15.1010   20.4308 N   0  0  0  0  0  0  0  0  0  0  0  0
  -21.7908  -12.5267   21.2687 N   0  0  0  0  0  0  0  0  0  0  0  0
  -26.4821  -12.9512   29.6005 N   0  0  0  0  0  0  0  0  0  0  0  0
  -23.4642  -18.6914   30.5899 N   0  0  0  0  0  0  0  0  0  0  0  0
  -30.7395  -12.8569   22.6969 N   0  0  0  0  0  0  0  0  0  0  0  0
  -24.4022  -21.5266   32.6268 N   0  3  0  0  0  0  0  0  0  0  0  0
  -22.5154  -14.6841   20.9873 O   0  0  0  0  0  0  0  0  0  0  0  0
  -26.7141  -14.7319   28.1180 O   0  0  0  0  0  0  0  0  0  0  0  0
  -23.8724  -15.8721   30.8959 O   0  0  0  0  0  0  0  0  0  0  0  0
  -24.9124  -20.4309   30.0860 O   0  0  0  0  0  0  0  0  0  0  0  0
  -32.2578  -13.2247   21.0187 O   0  0  0  0  0  0  0  0  0  0  0  0
  -21.7153   -6.9669   21.6123 O   0  0  0  0  0  0  0  0  0  0  0  0
  -31.1797  -18.9378   27.8855 O   0  0  0  0  0  0  0  0  0  1  0  0
  -18.1509   -6.8664   25.8181 F   0  0  0  0  0  0  0  0  0  0  0  0
  -19.6106   -8.7554   21.7307 F   0  0  0  0  0  0  0  0  0  0  0  0
  1  2  1  0  0  0  0
  1  5  2  0  0  0  0
  2  6  2  0  0  0  0
  3  8  2  0  0  0  0
  3 17  1  0  0  0  0
  4  9  1  0  0  0  0
  4 17  2  0  0  0  0
  5 19  1  0  0  0  0
  6 21  1  0  0  0  0
  7 10  2  0  0  0  0
  7 20  1  0  0  0  0
  8 27  1  0  0  0  0
  9 27  2  0  0  0  0
 10 28  1  0  0  0  0
 11 12  2  0  0  0  0
 11 29  1  0  0  0  0
 12 30  1  0  0  0  0
 13 22  1  0  0  0  0
 13 28  2  0  0  0  0
 14 23  2  0  0  0  0
 14 25  1  0  0  0  0
 15 24  1  0  0  0  0
 15 26  2  0  0  0  0
 16 30  2  0  0  0  0
 16 31  1  0  0  0  0
 17 32  1  0  0  0  0
 18 32  1  0  0  0  0
 18 33  2  0  0  0  0
 18 34  1  0  0  0  0
 19 21  2  0  0  0  0
 19 39  1  0  0  0  0
 20 22  2  0  0  0  0
 20 40  1  0  0  0  0
 21 48  1  0  0  0  0
 22 41  1  0  0  0  0
 23 26  1  0  0  0  0
 23 51  1  0  0  0  0
 24 25  2  0  0  0  0
 24 52  1  0  0  0  0
 25 58  1  0  0  0  0
 26 59  1  0  0  0  0
 27 80  1  0  0  0  0
 28 81  1  0  0  0  0
 29 31  2  0  0  0  0
 29 80  1  0  0  0  0
 30 82  1  0  0  0  0
 31 83  1  0  0  0  0
 32 65  2  0  0  0  0
 33 66  1  0  0  0  0
 33 69  1  0  0  0  0
 34 70  1  0  0  0  0
 34 75  2  0  0  0  0
 35 49  1  0  0  0  0
 35 71  1  0  0  0  0
 35 76  2  0  0  0  0
 36 62  1  0  0  0  0
 36 67  1  0  0  0  0
 36 77  2  0  0  0  0
 37 63  1  0  0  0  0
 37 72  1  0  0  0  0
 37 78  2  0  0  0  0
 38 68  1  0  0  0  0
 38 73  1  0  0  0  0
 38 79  2  0  0  0  0
 39 42  1  0  0  0  0
 40 49  1  0  0  0  0
 41 67  1  0  0  0  0
 42 44  1  0  0  0  0
 43 45  1  0  0  0  0
 43 46  1  0  0  0  0
 44 48  1  0  0  0  0
 45 50  1  0  0  0  0
 46 68  1  0  0  0  0
 47 50  1  0  0  0  0
 47 68  1  0  0  0  0
 48 71  1  0  0  0  0
 49 67  1  0  0  0  0
 50 66  1  0  0  0  0
 53 63  1  0  0  0  0
 54 64  1  0  0  0  0
 55 64  1  0  0  0  0
 56 64  1  0  0  0  0
 57 74  1  0  0  0  0
 58 60  1  0  0  0  0
 59 73  1  0  0  0  0
 60 61  1  0  0  0  0
 61 81  1  0  0  0  0
 62 64  1  0  0  0  0
 62 72  1  0  0  0  0
 63 74  1  0  0  0  0
 65 66  1  0  0  0  0
M  CHG  1  74   1
M  ISO  4  38 100  61 101  73 100  81 101
M  END
> <Batch ID>
0034

> <Smiles>
CNC(C)C(=O)NC(C(=O)N1Cc2cc([101O:1][101CH2:1]CCc3cc(C)c(C[100NH:0][100C:0](=O)N4CCCC(n5nc(-c6ccc(Oc7ccc(F)cc7F)cc6)c(C(N)=O)c5N)C4)cc3C)ccc2CC1C(=O)NC1CCCc2ccccc21)C(C)(C)C

> <Shape>
0.131

> <Color>
0.182

> <Negative vol penalty>
0.000

$$$$
