
  -OEChem-04052316533D

 82 90  0     1  0  0  0  0  0999 V2000
  -25.8208  -11.1496   23.8764 C   0  0  0  0  0  0  0  0  0  0  0  0
  -26.6406  -12.2736   23.8767 C   0  0  0  0  0  0  0  0  0  0  0  0
  -22.6722  -29.8029   21.2346 C   0  0  0  0  0  0  0  0  0  0  0  0
  -23.9305  -28.7428   23.0037 C   0  0  0  0  0  0  0  0  0  0  0  0
  -25.0614  -10.8423   22.7482 C   0  0  0  0  0  0  0  0  0  0  0  0
  -26.7022  -13.0905   22.7483 C   0  0  0  0  0  0  0  0  0  0  0  0
  -27.4126  -19.1724   22.6406 C   0  0  0  0  0  0  0  0  0  0  0  0
  -21.6131  -30.0176   22.1164 C   0  0  0  0  0  0  0  0  0  0  0  0
  -22.8714  -28.9575   23.8857 C   0  0  0  0  0  0  0  0  0  0  0  0
  -28.5290  -19.9829   22.4394 C   0  0  0  0  0  0  0  0  0  0  0  0
  -19.0804  -28.2207   23.4510 C   0  0  0  0  0  0  0  0  0  0  0  0
  -17.7931  -27.9293   22.9999 C   0  0  0  0  0  0  0  0  0  0  0  0
  -27.9495  -20.1917   20.1070 C   0  0  0  0  0  0  0  0  0  0  0  0
  -31.5819  -23.7149   21.1601 C   0  0  0  0  0  0  0  0  0  0  0  0
  -17.1467  -30.2294   23.3584 C   0  0  0  0  0  0  0  0  0  0  0  0
  -33.1563  -22.0626   21.8292 C   0  0  0  0  0  0  0  0  0  0  0  0
  -23.8310  -29.1654   21.6782 C   0  0  0  0  0  0  0  0  0  0  0  0
  -26.0087  -29.8050   20.5137 C   0  0  0  0  0  0  0  0  0  0  0  0
  -25.1064  -11.6612   21.6089 C   0  0  0  0  0  0  0  0  0  0  0  0
  -26.5609  -18.8560   21.5724 C   0  0  0  0  0  0  0  0  0  0  0  0
  -25.9437  -12.7932   21.6033 C   0  0  0  0  0  0  0  0  0  0  0  0
  -26.8216  -19.3790   20.2978 C   0  0  0  0  0  0  0  0  0  0  0  0
  -31.8347  -22.4555   21.6924 C   0  0  0  0  0  0  0  0  0  0  0  0
  -32.6434  -24.5314   20.7862 C   0  0  0  0  0  0  0  0  0  0  0  0
  -21.7127  -29.5949   23.4420 C   0  0  0  0  0  0  0  0  0  0  0  0
  -28.7992  -20.4904   21.1719 C   0  0  0  0  0  0  0  0  0  0  0  0
  -19.4008  -29.5165   23.8560 C   0  0  0  0  0  0  0  0  0  0  0  0
  -16.8263  -28.9336   22.9535 C   0  0  0  0  0  0  0  0  0  0  0  0
  -18.4340  -30.5209   23.8096 C   0  0  0  0  0  0  0  0  0  0  0  0
  -24.9251  -28.9429   20.7675 C   0  0  0  0  0  0  0  0  0  0  0  0
  -33.9288  -24.0456   20.9637 C   0  0  0  0  0  0  0  0  0  0  0  0
  -26.7646  -29.1405   19.5790 C   0  0  0  0  0  0  0  0  0  0  0  0
  -26.3055  -31.0915   21.0728 C   0  0  0  0  0  0  0  0  0  0  0  0
  -25.6910  -16.1669   20.1178 C   0  0  0  0  0  0  0  0  0  0  0  0
  -23.6640  -18.1403   18.5305 C   0  0  0  0  0  0  0  0  0  0  0  0
  -22.9404  -21.2994   17.4612 C   0  0  0  0  0  0  0  0  0  0  0  0
  -29.1548  -24.4676   17.6826 C   0  0  0  0  0  0  0  0  0  0  0  0
  -24.3036  -11.2623   20.3960 C   0  0  0  0  0  0  0  0  0  0  0  0
  -25.3459  -18.0021   21.8115 C   0  0  0  0  0  0  0  0  0  0  0  0
  -25.9271  -19.0857   19.1221 C   0  0  0  0  0  0  0  0  0  0  0  0
  -24.1399  -12.3871   19.3770 C   0  0  0  0  0  0  0  0  0  0  0  0
  -25.7367  -25.0097   16.8466 C   0  0  0  0  0  0  0  0  0  0  0  0
  -25.4767  -13.0769   19.1239 C   0  0  0  0  0  0  0  0  0  0  0  0
  -25.3090  -26.1475   17.7752 C   0  0  0  0  0  0  0  0  0  0  0  0
  -26.7161  -24.0596   17.5322 C   0  0  0  0  0  0  0  0  0  0  0  0
  -27.4742  -25.8485   19.0484 C   0  0  0  0  0  0  0  0  0  0  0  0
  -26.0186  -13.7175   20.4074 C   0  0  1  0  0  0  0  0  0  0  0  0
  -24.8332  -17.3244   20.5446 C   0  0  1  0  0  0  0  0  0  0  0  0
  -26.5298  -26.8642   18.3830 C   0  0  2  0  0  0  0  0  0  0  0  0
  -35.1079  -24.8792   20.5806 C   0  0  0  0  0  0  0  0  0  0  0  0
  -21.2339  -22.5940   16.1538 C   0  0  0  0  0  0  0  0  0  0  0  0
  -24.8107  -17.0237   15.9327 C   0  0  0  0  0  0  0  0  0  0  0  0
  -23.7977  -18.9718   14.7298 C   0  0  0  0  0  0  0  0  0  0  0  0
  -22.3307  -17.3461   15.9247 C   0  0  0  0  0  0  0  0  0  0  0  0
  -22.2703  -22.9947   19.7927 C   0  0  0  0  0  0  0  0  0  0  0  0
  -32.3795  -25.8811   20.2135 C   0  0  0  0  0  0  0  0  0  0  0  0
  -30.7118  -21.5506   22.1066 C   0  0  0  0  0  0  0  0  0  1  0  0
  -32.4945  -25.9580   18.6775 C   0  0  0  0  0  0  0  0  0  0  0  0
  -31.5653  -25.0041   17.9299 C   0  0  0  0  0  0  0  0  0  0  0  0
  -23.7419  -18.9598   17.2651 C   0  0  1  0  0  0  0  0  0  0  0  0
  -21.6651  -22.1197   17.5329 C   0  0  2  0  0  0  0  0  0  0  0  0
  -23.6884  -18.0795   15.9846 C   0  0  0  0  0  0  0  0  0  0  0  0
  -34.2137  -22.8280   21.4773 N   0  0  0  0  0  0  0  0  0  0  0  0
  -24.9836  -27.8167   20.0518 N   0  0  0  0  0  0  0  0  0  0  0  0
  -26.1130  -27.9666   19.3390 N   0  0  0  0  0  0  0  0  0  0  0  0
  -24.7551  -18.2409   19.4053 N   0  0  0  0  0  0  0  0  0  0  0  0
  -27.8514  -24.8018   18.0855 N   0  0  0  0  0  0  0  0  0  0  0  0
  -27.9163  -29.4517   18.9473 N   0  0  0  0  0  0  0  0  0  0  0  0
  -25.4232  -31.6277   22.0206 N   0  0  0  0  0  0  0  0  0  0  0  0
  -25.3283  -14.9593   20.6829 N   0  0  0  0  0  0  0  0  0  0  0  0
  -22.6747  -19.9506   17.3541 N   0  0  0  0  0  0  0  0  0  0  0  0
  -30.1726  -25.2245   18.2502 N   0  0  0  0  0  0  0  0  0  0  0  0
  -21.8662  -23.3153   18.3995 N   0  3  0  0  0  0  0  0  0  0  0  0
  -27.3143  -31.7533   20.7296 O   0  0  0  0  0  0  0  0  0  0  0  0
  -26.6128  -16.3553   19.3326 O   0  0  0  0  0  0  0  0  0  0  0  0
  -22.6685  -17.4422   18.7385 O   0  0  0  0  0  0  0  0  0  0  0  0
  -24.0602  -21.8049   17.4931 O   0  0  0  0  0  0  0  0  0  0  0  0
  -29.3935  -23.5653   16.8728 O   0  0  0  0  0  0  0  0  0  0  0  0
  -20.6795  -29.8045   24.3029 O   0  0  0  0  0  0  0  0  0  0  0  0
  -29.8886  -21.2812   20.9726 O   0  0  0  0  0  0  0  0  0  1  0  0
  -15.5906  -28.6539   22.5188 F   0  0  0  0  0  0  0  0  0  0  0  0
  -18.7362  -31.7679   24.1962 F   0  0  0  0  0  0  0  0  0  0  0  0
  1  2  1  0  0  0  0
  1  5  2  0  0  0  0
  2  6  2  0  0  0  0
  3  8  2  0  0  0  0
  3 17  1  0  0  0  0
  4  9  1  0  0  0  0
  4 17  2  0  0  0  0
  5 19  1  0  0  0  0
  6 21  1  0  0  0  0
  7 10  2  0  0  0  0
  7 20  1  0  0  0  0
  8 25  1  0  0  0  0
  9 25  2  0  0  0  0
 10 26  1  0  0  0  0
 11 12  2  0  0  0  0
 11 27  1  0  0  0  0
 12 28  1  0  0  0  0
 13 22  1  0  0  0  0
 13 26  2  0  0  0  0
 14 23  2  0  0  0  0
 14 24  1  0  0  0  0
 15 28  2  0  0  0  0
 15 29  1  0  0  0  0
 16 23  1  0  0  0  0
 16 63  2  0  0  0  0
 17 30  1  0  0  0  0
 18 30  1  0  0  0  0
 18 32  2  0  0  0  0
 18 33  1  0  0  0  0
 19 21  2  0  0  0  0
 19 38  1  0  0  0  0
 20 22  2  0  0  0  0
 20 39  1  0  0  0  0
 21 47  1  0  0  0  0
 22 40  1  0  0  0  0
 23 57  1  0  0  0  0
 24 31  2  0  0  0  0
 24 56  1  0  0  0  0
 25 79  1  0  0  0  0
 26 80  1  0  0  0  0
 27 29  2  0  0  0  0
 27 79  1  0  0  0  0
 28 81  1  0  0  0  0
 29 82  1  0  0  0  0
 30 64  2  0  0  0  0
 31 50  1  0  0  0  0
 31 63  1  0  0  0  0
 32 65  1  0  0  0  0
 32 68  1  0  0  0  0
 33 69  1  0  0  0  0
 33 74  2  0  0  0  0
 34 48  1  0  0  0  0
 34 70  1  0  0  0  0
 34 75  2  0  0  0  0
 35 60  1  0  0  0  0
 35 66  1  0  0  0  0
 35 76  2  0  0  0  0
 36 61  1  0  0  0  0
 36 71  1  0  0  0  0
 36 77  2  0  0  0  0
 37 67  1  0  0  0  0
 37 72  1  0  0  0  0
 37 78  2  0  0  0  0
 38 41  1  0  0  0  0
 39 48  1  0  0  0  0
 40 66  1  0  0  0  0
 41 43  1  0  0  0  0
 42 44  1  0  0  0  0
 42 45  1  0  0  0  0
 43 47  1  0  0  0  0
 44 49  1  0  0  0  0
 45 67  1  0  0  0  0
 46 49  1  0  0  0  0
 46 67  1  0  0  0  0
 47 70  1  0  0  0  0
 48 66  1  0  0  0  0
 49 65  1  0  0  0  0
 51 61  1  0  0  0  0
 52 62  1  0  0  0  0
 53 62  1  0  0  0  0
 54 62  1  0  0  0  0
 55 73  1  0  0  0  0
 56 58  1  0  0  0  0
 57 80  1  0  0  0  0
 58 59  1  0  0  0  0
 59 72  1  0  0  0  0
 60 62  1  0  0  0  0
 60 71  1  0  0  0  0
 61 73  1  0  0  0  0
 64 65  1  0  0  0  0
M  CHG  1  73   1
M  ISO  4  37 100  57 101  72 100  80 101
M  END
> <Batch ID>
0035

> <Smiles>
CNC(C)C(=O)NC(C(=O)N1Cc2cc([101O:1][101CH2:1]c3cnc(C)c(CCC[100NH:0][100C:0](=O)N4CCCC(n5nc(-c6ccc(Oc7ccc(F)cc7F)cc6)c(C(N)=O)c5N)C4)c3)ccc2CC1C(=O)NC1CCCc2ccccc21)C(C)(C)C

> <Shape>
0.212

> <Color>
0.070

> <Negative vol penalty>
0.000

$$$$

  -OEChem-04052316533D

 86 95  0     1  0  0  0  0  0999 V2000
  -28.6463  -37.6655   18.3784 C   0  0  0  0  0  0  0  0  0  0  0  0
  -28.6497  -36.3746   17.8598 C   0  0  0  0  0  0  0  0  0  0  0  0
  -23.7448   -8.9427   21.3321 C   0  0  0  0  0  0  0  0  0  0  0  0
  -24.8940   -9.9724   23.1912 C   0  0  0  0  0  0  0  0  0  0  0  0
  -28.5011  -37.8638   19.7508 C   0  0  0  0  0  0  0  0  0  0  0  0
  -28.5089  -35.2811   18.7135 C   0  0  0  0  0  0  0  0  0  0  0  0
  -25.7487  -28.6737   18.9139 C   0  0  0  0  0  0  0  0  0  0  0  0
  -31.2096  -18.1121   21.2895 C   0  0  0  0  0  0  0  0  0  0  0  0
  -23.3407   -7.8964   22.1614 C   0  0  0  0  0  0  0  0  0  0  0  0
  -24.4898   -8.9261   24.0205 C   0  0  0  0  0  0  0  0  0  0  0  0
  -26.1125  -27.3633   19.2213 C   0  0  0  0  0  0  0  0  0  0  0  0
  -20.9699   -7.3529   24.5101 C   0  0  0  0  0  0  0  0  0  0  0  0
  -19.6408   -6.9376   24.4288 C   0  0  0  0  0  0  0  0  0  0  0  0
  -30.8369  -19.3616   20.8069 C   0  0  0  0  0  0  0  0  0  0  0  0
  -25.7891  -27.8300   21.5658 C   0  0  0  0  0  0  0  0  0  0  0  0
  -20.3714   -4.7241   23.7935 C   0  0  0  0  0  0  0  0  0  0  0  0
  -24.5215   -9.9806   21.8471 C   0  0  0  0  0  0  0  0  0  0  0  0
  -24.1128  -11.9517   20.2801 C   0  0  0  0  0  0  0  0  0  0  0  0
  -28.3488  -36.7726   20.6207 C   0  0  0  0  0  0  0  0  0  0  0  0
  -25.4124  -29.5766   19.9327 C   0  0  0  0  0  0  0  0  0  0  0  0
  -28.3629  -35.4649   20.0990 C   0  0  0  0  0  0  0  0  0  0  0  0
  -25.4190  -29.1505   21.2685 C   0  0  0  0  0  0  0  0  0  0  0  0
  -30.3197  -17.3797   22.0673 C   0  0  0  0  0  0  0  0  0  0  0  0
  -23.7132   -7.8882   23.5056 C   0  0  0  0  0  0  0  0  0  0  0  0
  -26.1355  -26.9421   20.5476 C   0  0  0  0  0  0  0  0  0  0  0  0
  -21.9998   -6.4539   24.2331 C   0  0  0  0  0  0  0  0  0  0  0  0
  -19.3416   -5.6232   24.0705 C   0  0  0  0  0  0  0  0  0  0  0  0
  -21.7005   -5.1394   23.8748 C   0  0  0  0  0  0  0  0  0  0  0  0
  -24.9398  -11.0614   20.9908 C   0  0  0  0  0  0  0  0  0  0  0  0
  -29.5730  -19.8302   21.1277 C   0  0  0  0  0  0  0  0  0  0  0  0
  -29.0791  -17.9371   22.3319 C   0  0  0  0  0  0  0  0  0  0  0  0
  -24.9872  -12.7832   19.6240 C   0  0  0  0  0  0  0  0  0  0  0  0
  -22.6820  -12.0210   20.2184 C   0  0  0  0  0  0  0  0  0  0  0  0
  -26.6070  -32.3330   20.9714 C   0  0  0  0  0  0  0  0  0  0  0  0
  -23.9760  -32.3104   22.8688 C   0  0  0  0  0  0  0  0  0  0  0  0
  -21.5364  -30.4948   24.4175 C   0  0  0  0  0  0  0  0  0  0  0  0
  -30.6428  -14.4246   20.7065 C   0  0  0  0  0  0  0  0  0  0  0  0
  -28.2424  -37.0346   22.1021 C   0  0  0  0  0  0  0  0  0  0  0  0
  -24.9965  -30.9790   19.5826 C   0  0  0  0  0  0  0  0  0  0  0  0
  -25.0469  -30.0751   22.3977 C   0  0  0  0  0  0  0  0  0  0  0  0
  -27.7227  -35.8390   22.8963 C   0  0  0  0  0  0  0  0  0  0  0  0
  -29.3930  -12.8644   17.7603 C   0  0  0  0  0  0  0  0  0  0  0  0
  -28.4411  -34.5624   22.4708 C   0  0  0  0  0  0  0  0  0  0  0  0
  -28.8514  -22.1707   21.7669 C   0  0  0  0  0  0  0  0  0  0  0  0
  -27.9179  -21.0817   19.6783 C   0  0  0  0  0  0  0  0  0  0  0  0
  -28.4207  -23.5399   21.2417 C   0  0  0  0  0  0  0  0  0  0  0  0
  -27.4895  -22.4537   19.1584 C   0  0  0  0  0  0  0  0  0  0  0  0
  -28.0354  -12.3057   18.1900 C   0  0  0  0  0  0  0  0  0  0  0  0
  -30.4251  -12.7639   18.8813 C   0  0  0  0  0  0  0  0  0  0  0  0
  -28.6512  -12.8069   20.5917 C   0  0  0  0  0  0  0  0  0  0  0  0
  -28.1878  -34.2543   20.9901 C   0  0  1  0  0  0  0  0  0  0  0  0
  -29.1320  -21.1896   20.6163 C   0  0  0  0  0  0  0  0  0  0  0  0
  -25.1703  -31.9599   20.7380 C   0  0  1  0  0  0  0  0  0  0  0  0
  -27.2096  -23.4330   20.3058 C   0  0  0  0  0  0  0  0  0  0  0  0
  -27.5623  -12.9375   19.5130 C   0  0  2  0  0  0  0  0  0  0  0  0
  -28.0816  -17.1945   23.1592 C   0  0  0  0  0  0  0  0  0  0  0  0
  -19.5506  -30.7507   25.9303 C   0  0  0  0  0  0  0  0  0  0  0  0
  -25.8434  -32.7022   25.2498 C   0  0  0  0  0  0  0  0  0  0  0  0
  -23.9637  -32.0056   26.7497 C   0  0  0  0  0  0  0  0  0  0  0  0
  -23.7400  -34.0518   25.3407 C   0  0  0  0  0  0  0  0  0  0  0  0
  -19.6965  -29.3866   22.3815 C   0  0  0  0  0  0  0  0  0  0  0  0
  -30.7138  -16.0410   22.5883 C   0  0  0  0  0  0  0  0  0  0  0  0
  -26.8279  -24.8077   19.7597 C   0  0  0  0  0  0  0  0  0  1  0  0
  -23.6537  -31.7758   24.2433 C   0  0  1  0  0  0  0  0  0  0  0  0
  -20.0319  -30.6841   24.4893 C   0  0  2  0  0  0  0  0  0  0  0  0
  -24.3092  -32.6167   25.3750 C   0  0  0  0  0  0  0  0  0  0  0  0
  -26.2398  -11.3044   20.8038 N   0  0  0  0  0  0  0  0  0  0  0  0
  -28.6813  -19.1477   21.8805 N   0  0  0  0  0  0  0  0  0  0  0  0
  -26.2362  -12.3567   19.9680 N   0  0  0  0  0  0  0  0  0  0  0  0
  -24.6534  -31.4383   22.0049 N   0  0  0  0  0  0  0  0  0  0  0  0
  -29.9154  -13.3831   20.1073 N   0  0  0  0  0  0  0  0  0  0  0  0
  -24.8020  -13.8301   18.7922 N   0  0  0  0  0  0  0  0  0  0  0  0
  -21.9357  -11.0902   20.9540 N   0  0  0  0  0  0  0  0  0  0  0  0
  -26.8716  -33.6798   20.8113 N   0  0  0  0  0  0  0  0  0  0  0  0
  -22.1989  -31.7002   24.3211 N   0  0  0  0  0  0  0  0  0  0  0  0
  -30.0862  -14.9599   21.8617 N   0  0  0  0  0  0  0  0  0  0  0  0
  -19.3348  -29.5540   23.8127 N   0  3  0  0  0  0  0  0  0  0  0  0
  -22.0831  -12.8724   19.5185 O   0  0  0  0  0  0  0  0  0  0  0  0
  -27.4152  -31.4637   21.2758 O   0  0  0  0  0  0  0  0  0  0  0  0
  -23.6329  -33.4570   22.5702 O   0  0  0  0  0  0  0  0  0  0  0  0
  -22.0707  -29.3884   24.4480 O   0  0  0  0  0  0  0  0  0  0  0  0
  -31.7065  -14.8498   20.2433 O   0  0  0  0  0  0  0  0  0  0  0  0
  -23.3188   -6.8675   24.3151 O   0  0  0  0  0  0  0  0  0  0  0  0
  -26.4908  -25.6638   20.8504 O   0  0  0  0  0  0  0  0  0  1  0  0
  -18.0652   -5.2240   23.9939 F   0  0  0  0  0  0  0  0  0  0  0  0
  -22.6857   -4.2708   23.6087 F   0  0  0  0  0  0  0  0  0  0  0  0
  1  2  1  0  0  0  0
  1  5  2  0  0  0  0
  2  6  2  0  0  0  0
  3  9  2  0  0  0  0
  3 17  1  0  0  0  0
  4 10  1  0  0  0  0
  4 17  2  0  0  0  0
  5 19  1  0  0  0  0
  6 21  1  0  0  0  0
  7 11  2  0  0  0  0
  7 20  1  0  0  0  0
  8 14  2  0  0  0  0
  8 23  1  0  0  0  0
  9 24  1  0  0  0  0
 10 24  2  0  0  0  0
 11 25  1  0  0  0  0
 12 13  2  0  0  0  0
 12 26  1  0  0  0  0
 13 27  1  0  0  0  0
 14 30  1  0  0  0  0
 15 22  1  0  0  0  0
 15 25  2  0  0  0  0
 16 27  2  0  0  0  0
 16 28  1  0  0  0  0
 17 29  1  0  0  0  0
 18 29  1  0  0  0  0
 18 32  2  0  0  0  0
 18 33  1  0  0  0  0
 19 21  2  0  0  0  0
 19 38  1  0  0  0  0
 20 22  2  0  0  0  0
 20 39  1  0  0  0  0
 21 51  1  0  0  0  0
 22 40  1  0  0  0  0
 23 31  2  0  0  0  0
 23 62  1  0  0  0  0
 24 83  1  0  0  0  0
 25 84  1  0  0  0  0
 26 28  2  0  0  0  0
 26 83  1  0  0  0  0
 27 85  1  0  0  0  0
 28 86  1  0  0  0  0
 29 67  2  0  0  0  0
 30 52  1  0  0  0  0
 30 68  2  0  0  0  0
 31 56  1  0  0  0  0
 31 68  1  0  0  0  0
 32 69  1  0  0  0  0
 32 72  1  0  0  0  0
 33 73  1  0  0  0  0
 33 78  2  0  0  0  0
 34 53  1  0  0  0  0
 34 74  1  0  0  0  0
 34 79  2  0  0  0  0
 35 64  1  0  0  0  0
 35 70  1  0  0  0  0
 35 80  2  0  0  0  0
 36 65  1  0  0  0  0
 36 75  1  0  0  0  0
 36 81  2  0  0  0  0
 37 71  1  0  0  0  0
 37 76  1  0  0  0  0
 37 82  2  0  0  0  0
 38 41  1  0  0  0  0
 39 53  1  0  0  0  0
 40 70  1  0  0  0  0
 41 43  1  0  0  0  0
 42 48  1  0  0  0  0
 42 49  1  0  0  0  0
 43 51  1  0  0  0  0
 44 46  1  0  0  0  0
 44 52  1  0  0  0  0
 45 47  1  0  0  0  0
 45 52  1  0  0  0  0
 46 54  1  0  0  0  0
 47 54  1  0  0  0  0
 48 55  1  0  0  0  0
 49 71  1  0  0  0  0
 50 55  1  0  0  0  0
 50 71  1  0  0  0  0
 51 74  1  0  0  0  0
 53 70  1  0  0  0  0
 54 63  1  0  0  0  0
 55 69  1  0  0  0  0
 57 65  1  0  0  0  0
 58 66  1  0  0  0  0
 59 66  1  0  0  0  0
 60 66  1  0  0  0  0
 61 77  1  0  0  0  0
 62 76  1  0  0  0  0
 63 84  1  0  0  0  0
 64 66  1  0  0  0  0
 64 75  1  0  0  0  0
 65 77  1  0  0  0  0
 67 69  1  0  0  0  0
M  CHG  1  77   1
M  ISO  4  37 100  63 101  76 100  84 101
M  END
> <Batch ID>
0035

> <Smiles>
CNC(C)C(=O)NC(C(=O)N1Cc2cc([101O:1][101CH2:1]C3CCC(c4ccc(C[100NH:0][100C:0](=O)N5CCCC(n6nc(-c7ccc(Oc8ccc(F)cc8F)cc7)c(C(N)=O)c6N)C5)c(C)n4)CC3)ccc2CC1C(=O)NC1CCCc2ccccc21)C(C)(C)C

> <Shape>
0.312

> <Color>
0.098

> <Negative vol penalty>
0.000

$$$$

  -OEChem-04052316533D

 83 91  0     1  0  0  0  0  0999 V2000
  -23.6770  -30.2817   19.9240 C   0  0  0  0  0  0  0  0  0  0  0  0
  -24.7539  -29.4273   19.7103 C   0  0  0  0  0  0  0  0  0  0  0  0
  -26.6152  -12.6557   21.6964 C   0  0  0  0  0  0  0  0  0  0  0  0
  -25.9676  -14.0611   19.8409 C   0  0  0  0  0  0  0  0  0  0  0  0
  -23.2584  -30.5622   21.2240 C   0  0  0  0  0  0  0  0  0  0  0  0
  -25.4136  -28.8538   20.7967 C   0  0  0  0  0  0  0  0  0  0  0  0
  -26.3394  -23.9207   20.1236 C   0  0  0  0  0  0  0  0  0  0  0  0
  -25.3309  -12.1127   21.7334 C   0  0  0  0  0  0  0  0  0  0  0  0
  -24.6833  -13.5180   19.8779 C   0  0  0  0  0  0  0  0  0  0  0  0
  -27.4128  -23.5807   19.3015 C   0  0  0  0  0  0  0  0  0  0  0  0
  -23.5530   -9.8023   20.0206 C   0  0  0  0  0  0  0  0  0  0  0  0
  -23.4379   -8.4180   20.1475 C   0  0  0  0  0  0  0  0  0  0  0  0
  -28.7766  -23.1922   21.2530 C   0  0  0  0  0  0  0  0  0  0  0  0
  -31.3538  -23.3828   16.0713 C   0  0  0  0  0  0  0  0  0  0  0  0
  -31.2523  -21.2391   17.1808 C   0  0  0  0  0  0  0  0  0  0  0  0
  -22.2111   -8.7090   22.2084 C   0  0  0  0  0  0  0  0  0  0  0  0
  -26.9335  -13.6299   20.7502 C   0  0  0  0  0  0  0  0  0  0  0  0
  -29.3610  -13.7216   19.9713 C   0  0  0  0  0  0  0  0  0  0  0  0
  -23.9071  -29.9842   22.3265 C   0  0  0  0  0  0  0  0  0  0  0  0
  -26.4799  -23.9095   21.5188 C   0  0  0  0  0  0  0  0  0  0  0  0
  -25.0041  -29.1278   22.1127 C   0  0  0  0  0  0  0  0  0  0  0  0
  -27.7026  -23.5299   22.0906 C   0  0  0  0  0  0  0  0  0  0  0  0
  -30.7193  -22.5078   16.9530 C   0  0  0  0  0  0  0  0  0  0  0  0
  -32.5213  -22.9891   15.4173 C   0  0  0  0  0  0  0  0  0  0  0  0
  -32.4199  -20.8453   16.5269 C   0  0  0  0  0  0  0  0  0  0  0  0
  -24.3650  -12.5439   20.8242 C   0  0  0  0  0  0  0  0  0  0  0  0
  -28.6325  -23.2192   19.8661 C   0  0  0  0  0  0  0  0  0  0  0  0
  -22.9973  -10.6399   20.9876 C   0  0  0  0  0  0  0  0  0  0  0  0
  -22.7669   -7.8714   21.2414 C   0  0  0  0  0  0  0  0  0  0  0  0
  -22.3263  -10.0933   22.0815 C   0  0  0  0  0  0  0  0  0  0  0  0
  -33.0543  -21.7204   15.6451 C   0  0  0  0  0  0  0  0  0  0  0  0
  -28.2599  -14.1916   20.7118 C   0  0  0  0  0  0  0  0  0  0  0  0
  -30.3773  -14.5938   20.2761 C   0  0  0  0  0  0  0  0  0  0  0  0
  -29.4566  -12.5972   19.0868 C   0  0  0  0  0  0  0  0  0  0  0  0
  -26.2678  -26.1000   23.8123 C   0  0  0  0  0  0  0  0  0  0  0  0
  -26.6258  -23.5313   25.7606 C   0  0  0  0  0  0  0  0  0  0  0  0
  -27.7569  -20.3370   26.1649 C   0  0  0  0  0  0  0  0  0  0  0  0
  -32.2589  -19.7874   21.0706 C   0  0  0  0  0  0  0  0  0  0  0  0
  -23.4486  -30.3545   23.7148 C   0  0  0  0  0  0  0  0  0  0  0  0
  -25.3045  -24.2530   22.3922 C   0  0  0  0  0  0  0  0  0  0  0  0
  -27.8992  -23.4823   23.5831 C   0  0  0  0  0  0  0  0  0  0  0  0
  -23.9642  -29.4110   24.7985 C   0  0  0  0  0  0  0  0  0  0  0  0
  -30.6821  -18.1812   23.8292 C   0  0  0  0  0  0  0  0  0  0  0  0
  -25.4548  -29.1468   24.6112 C   0  0  0  0  0  0  0  0  0  0  0  0
  -29.9975  -16.9655   23.2021 C   0  0  0  0  0  0  0  0  0  0  0  0
  -30.6384  -19.3940   22.9024 C   0  0  0  0  0  0  0  0  0  0  0  0
  -30.4809  -17.9403   20.9185 C   0  0  0  0  0  0  0  0  0  0  0  0
  -25.7296  -28.4667   23.2645 C   0  0  1  0  0  0  0  0  0  0  0  0
  -25.7116  -24.7044   23.7915 C   0  0  1  0  0  0  0  0  0  0  0  0
  -30.5486  -16.6765   21.7929 C   0  0  2  0  0  0  0  0  0  0  0  0
  -33.1670  -23.9594   14.4810 C   0  0  0  0  0  0  0  0  0  0  0  0
  -27.9417  -18.5150   27.8807 C   0  0  0  0  0  0  0  0  0  0  0  0
  -28.9430  -25.0134   27.0812 C   0  0  0  0  0  0  0  0  0  0  0  0
  -29.6684  -22.8390   28.0883 C   0  0  0  0  0  0  0  0  0  0  0  0
  -27.4407  -23.7992   28.6697 C   0  0  0  0  0  0  0  0  0  0  0  0
  -26.0888  -18.4949   24.5577 C   0  0  0  0  0  0  0  0  0  0  0  0
  -32.9549  -19.4766   16.8014 C   0  0  0  0  0  0  0  0  0  0  0  0
  -29.4635  -22.9314   17.6564 C   0  0  0  0  0  0  0  0  0  1  0  0
  -34.1320  -19.4428   17.7938 C   0  0  0  0  0  0  0  0  0  0  0  0
  -33.8213  -20.0500   19.1602 C   0  0  0  0  0  0  0  0  0  0  0  0
  -27.8020  -22.8087   26.3717 C   0  0  1  0  0  0  0  0  0  0  0  0
  -27.1006  -19.1036   26.7587 C   0  0  2  0  0  0  0  0  0  0  0  0
  -28.4607  -23.6178   27.5245 C   0  0  0  0  0  0  0  0  0  0  0  0
  -28.5493  -15.2780   21.4330 N   0  0  0  0  0  0  0  0  0  0  0  0
  -29.8439  -15.4978   21.1471 N   0  0  0  0  0  0  0  0  0  0  0  0
  -26.7220  -23.8330   24.3948 N   0  0  0  0  0  0  0  0  0  0  0  0
  -31.1765  -19.0535   21.5832 N   0  0  0  0  0  0  0  0  0  0  0  0
  -31.6661  -14.6680   19.8815 N   0  0  0  0  0  0  0  0  0  0  0  0
  -28.3172  -11.8061   18.8863 N   0  0  0  0  0  0  0  0  0  0  0  0
  -25.3974  -27.0597   23.3318 N   0  0  0  0  0  0  0  0  0  0  0  0
  -27.3114  -21.4935   26.7692 N   0  0  0  0  0  0  0  0  0  0  0  0
  -32.7116  -19.3954   19.8167 N   0  0  0  0  0  0  0  0  0  0  0  0
  -26.9173  -18.0594   25.7113 N   0  3  0  0  0  0  0  0  0  0  0  0
  -30.5254  -12.2931   18.5048 O   0  0  0  0  0  0  0  0  0  0  0  0
  -27.4020  -26.2922   24.2345 O   0  0  0  0  0  0  0  0  0  0  0  0
  -25.6544  -23.8113   26.4675 O   0  0  0  0  0  0  0  0  0  0  0  0
  -28.5849  -20.2798   25.2585 O   0  0  0  0  0  0  0  0  0  0  0  0
  -32.7865  -20.7194   21.6871 O   0  0  0  0  0  0  0  0  0  0  0  0
  -23.1117  -12.0141   20.8598 O   0  0  0  0  0  0  0  0  0  0  0  0
  -29.6821  -22.8875   19.0659 O   0  0  0  0  0  0  0  0  0  1  0  0
  -22.6551   -6.5421   21.3623 F   0  0  0  0  0  0  0  0  0  0  0  0
  -21.7893  -10.8930   23.0132 F   0  0  0  0  0  0  0  0  0  0  0  0
  -34.5037  -21.2315   14.8331 Cl  0  0  0  0  0  0  0  0  0  0  0  0
  1  2  1  0  0  0  0
  1  5  2  0  0  0  0
  2  6  2  0  0  0  0
  3  8  2  0  0  0  0
  3 17  1  0  0  0  0
  4  9  1  0  0  0  0
  4 17  2  0  0  0  0
  5 19  1  0  0  0  0
  6 21  1  0  0  0  0
  7 10  2  0  0  0  0
  7 20  1  0  0  0  0
  8 26  1  0  0  0  0
  9 26  2  0  0  0  0
 10 27  1  0  0  0  0
 11 12  2  0  0  0  0
 11 28  1  0  0  0  0
 12 29  1  0  0  0  0
 13 22  1  0  0  0  0
 13 27  2  0  0  0  0
 14 23  1  0  0  0  0
 14 24  2  0  0  0  0
 15 23  2  0  0  0  0
 15 25  1  0  0  0  0
 16 29  2  0  0  0  0
 16 30  1  0  0  0  0
 17 32  1  0  0  0  0
 18 32  1  0  0  0  0
 18 33  2  0  0  0  0
 18 34  1  0  0  0  0
 19 21  2  0  0  0  0
 19 39  1  0  0  0  0
 20 22  2  0  0  0  0
 20 40  1  0  0  0  0
 21 48  1  0  0  0  0
 22 41  1  0  0  0  0
 23 58  1  0  0  0  0
 24 31  1  0  0  0  0
 24 51  1  0  0  0  0
 25 31  2  0  0  0  0
 25 57  1  0  0  0  0
 26 79  1  0  0  0  0
 27 80  1  0  0  0  0
 28 30  2  0  0  0  0
 28 79  1  0  0  0  0
 29 81  1  0  0  0  0
 30 82  1  0  0  0  0
 31 83  1  0  0  0  0
 32 64  2  0  0  0  0
 33 65  1  0  0  0  0
 33 68  1  0  0  0  0
 34 69  1  0  0  0  0
 34 74  2  0  0  0  0
 35 49  1  0  0  0  0
 35 70  1  0  0  0  0
 35 75  2  0  0  0  0
 36 61  1  0  0  0  0
 36 66  1  0  0  0  0
 36 76  2  0  0  0  0
 37 62  1  0  0  0  0
 37 71  1  0  0  0  0
 37 77  2  0  0  0  0
 38 67  1  0  0  0  0
 38 72  1  0  0  0  0
 38 78  2  0  0  0  0
 39 42  1  0  0  0  0
 40 49  1  0  0  0  0
 41 66  1  0  0  0  0
 42 44  1  0  0  0  0
 43 45  1  0  0  0  0
 43 46  1  0  0  0  0
 44 48  1  0  0  0  0
 45 50  1  0  0  0  0
 46 67  1  0  0  0  0
 47 50  1  0  0  0  0
 47 67  1  0  0  0  0
 48 70  1  0  0  0  0
 49 66  1  0  0  0  0
 50 65  1  0  0  0  0
 52 62  1  0  0  0  0
 53 63  1  0  0  0  0
 54 63  1  0  0  0  0
 55 63  1  0  0  0  0
 56 73  1  0  0  0  0
 57 59  1  0  0  0  0
 58 80  1  0  0  0  0
 59 60  1  0  0  0  0
 60 72  1  0  0  0  0
 61 63  1  0  0  0  0
 61 71  1  0  0  0  0
 62 73  1  0  0  0  0
 64 65  1  0  0  0  0
M  CHG  1  73   1
M  ISO  4  38 100  58 101  72 100  80 101
M  END
> <Batch ID>
0035

> <Smiles>
CNC(C)C(=O)NC(C(=O)N1Cc2cc([101O:1][101CH2:1]c3cc(C)c(Cl)c(CCC[100NH:0][100C:0](=O)N4CCCC(n5nc(-c6ccc(Oc7ccc(F)cc7F)cc6)c(C(N)=O)c5N)C4)c3)ccc2CC1C(=O)NC1CCCc2ccccc21)C(C)(C)C

> <Shape>
0.201

> <Color>
0.077

> <Negative vol penalty>
0.000

$$$$

  -OEChem-04052316533D

 84 92  0     1  0  0  0  0  0999 V2000
  -17.3840  -31.2437   24.0909 C   0  0  0  0  0  0  0  0  0  0  0  0
  -18.5443  -31.0448   24.8321 C   0  0  0  0  0  0  0  0  0  0  0  0
  -24.9936  -13.4833   19.4783 C   0  0  0  0  0  0  0  0  0  0  0  0
  -26.0743  -13.5872   21.6366 C   0  0  0  0  0  0  0  0  0  0  0  0
  -17.0934  -30.4060   23.0149 C   0  0  0  0  0  0  0  0  0  0  0  0
  -19.4143  -30.0074   24.4984 C   0  0  0  0  0  0  0  0  0  0  0  0
  -25.5215  -30.0341   24.9535 C   0  0  0  0  0  0  0  0  0  0  0  0
  -24.8878  -12.0976   19.5979 C   0  0  0  0  0  0  0  0  0  0  0  0
  -25.9684  -12.2015   21.7563 C   0  0  0  0  0  0  0  0  0  0  0  0
  -26.3924  -29.5305   25.9187 C   0  0  0  0  0  0  0  0  0  0  0  0
  -25.6583   -8.7300   22.7912 C   0  0  0  0  0  0  0  0  0  0  0  0
  -25.2227   -8.2152   24.0122 C   0  0  0  0  0  0  0  0  0  0  0  0
  -26.6807  -27.5279   24.6051 C   0  0  0  0  0  0  0  0  0  0  0  0
  -31.6878  -28.4793   26.1975 C   0  0  0  0  0  0  0  0  0  0  0  0
  -30.6025  -26.3335   26.2467 C   0  0  0  0  0  0  0  0  0  0  0  0
  -23.1469   -9.4301   23.7838 C   0  0  0  0  0  0  0  0  0  0  0  0
  -25.5869  -14.2281   20.4976 C   0  0  0  0  0  0  0  0  0  0  0  0
  -24.7620  -16.6235   20.7963 C   0  0  0  0  0  0  0  0  0  0  0  0
  -17.9651  -29.3638   22.6618 C   0  0  0  0  0  0  0  0  0  0  0  0
  -25.2147  -29.2825   23.8101 C   0  0  0  0  0  0  0  0  0  0  0  0
  -19.1344  -29.1542   23.4175 C   0  0  0  0  0  0  0  0  0  0  0  0
  -25.8076  -28.0253   23.6256 C   0  0  0  0  0  0  0  0  0  0  0  0
  -30.7463  -27.6204   26.7534 C   0  0  0  0  0  0  0  0  0  0  0  0
  -25.3752  -11.4567   20.7369 C   0  0  0  0  0  0  0  0  0  0  0  0
  -26.9699  -28.2760   25.7461 C   0  0  0  0  0  0  0  0  0  0  0  0
  -24.8382   -9.5950   22.0666 C   0  0  0  0  0  0  0  0  0  0  0  0
  -23.9670   -8.5652   24.5085 C   0  0  0  0  0  0  0  0  0  0  0  0
  -23.5825   -9.9449   22.5629 C   0  0  0  0  0  0  0  0  0  0  0  0
  -25.6971  -15.6594   20.3743 C   0  0  0  0  0  0  0  0  0  0  0  0
  -32.4548  -28.0069   25.1447 C   0  0  0  0  0  0  0  0  0  0  0  0
  -31.4180  -25.9573   25.1916 C   0  0  0  0  0  0  0  0  0  0  0  0
  -25.3308  -17.8261   20.4546 C   0  0  0  0  0  0  0  0  0  0  0  0
  -23.4929  -16.4476   21.4397 C   0  0  0  0  0  0  0  0  0  0  0  0
  -22.5573  -28.0320   22.5943 C   0  0  0  0  0  0  0  0  0  0  0  0
  -24.5035  -27.3055   20.1029 C   0  0  0  0  0  0  0  0  0  0  0  0
  -27.6706  -26.7161   18.9766 C   0  0  0  0  0  0  0  0  0  0  0  0
  -29.7501  -21.2255   20.2123 C   0  0  0  0  0  0  0  0  0  0  0  0
  -17.5849  -28.4549   21.5199 C   0  0  0  0  0  0  0  0  0  0  0  0
  -24.2942  -29.8513   22.7653 C   0  0  0  0  0  0  0  0  0  0  0  0
  -25.5267  -27.1873   22.4060 C   0  0  0  0  0  0  0  0  0  0  0  0
  -18.7464  -27.6119   20.9998 C   0  0  0  0  0  0  0  0  0  0  0  0
  -29.3596  -18.8632   17.5772 C   0  0  0  0  0  0  0  0  0  0  0  0
  -19.5096  -26.9808   22.1600 C   0  0  0  0  0  0  0  0  0  0  0  0
  -28.2999  -17.8958   18.1073 C   0  0  0  0  0  0  0  0  0  0  0  0
  -30.2879  -19.3478   18.6887 C   0  0  0  0  0  0  0  0  0  0  0  0
  -28.5433  -18.9651   20.3868 C   0  0  0  0  0  0  0  0  0  0  0  0
  -20.1154  -28.0551   23.0712 C   0  0  1  0  0  0  0  0  0  0  0  0
  -23.6519  -28.7809   21.8882 C   0  0  1  0  0  0  0  0  0  0  0  0
  -27.5487  -18.4924   19.3127 C   0  0  2  0  0  0  0  0  0  0  0  0
  -33.4764  -28.9004   24.5244 C   0  0  0  0  0  0  0  0  0  0  0  0
  -28.9419  -26.1102   16.8996 C   0  0  0  0  0  0  0  0  0  0  0  0
  -23.5632  -24.4154   20.3735 C   0  0  0  0  0  0  0  0  0  0  0  0
  -25.5144  -23.7221   18.9662 C   0  0  0  0  0  0  0  0  0  0  0  0
  -23.7679  -25.2296   18.0177 C   0  0  0  0  0  0  0  0  0  0  0  0
  -29.2232  -29.2346   19.0525 C   0  0  0  0  0  0  0  0  0  0  0  0
  -29.8844  -28.0827   27.9031 C   0  0  0  0  0  0  0  0  0  0  0  0
  -31.2894  -24.5842   24.6217 C   0  0  0  0  0  0  0  0  0  0  0  0
  -30.2641  -24.5232   23.4791 C   0  0  0  0  0  0  0  0  0  0  0  0
  -30.1144  -23.1020   22.9281 C   0  0  0  0  0  0  0  0  0  0  0  0
  -29.0910  -23.0150   21.8006 C   0  0  0  0  0  0  0  0  0  0  0  0
  -28.5859  -28.7280   27.4313 C   0  0  0  0  0  0  0  0  0  1  0  0
  -25.3832  -26.1336   19.7399 C   0  0  1  0  0  0  0  0  0  0  0  0
  -28.4255  -27.2450   17.7704 C   0  0  2  0  0  0  0  0  0  0  0  0
  -24.5611  -24.8899   19.2984 C   0  0  0  0  0  0  0  0  0  0  0  0
  -26.7777  -16.2027   19.8076 N   0  0  0  0  0  0  0  0  0  0  0  0
  -32.3438  -26.7636   24.6256 N   0  0  0  0  0  0  0  0  0  0  0  0
  -26.5252  -17.5211   19.8711 N   0  0  0  0  0  0  0  0  0  0  0  0
  -24.6152  -27.7843   21.4159 N   0  0  0  0  0  0  0  0  0  0  0  0
  -29.5131  -19.9036   19.8008 N   0  0  0  0  0  0  0  0  0  0  0  0
  -24.9206  -19.1041   20.5992 N   0  0  0  0  0  0  0  0  0  0  0  0
  -23.0599  -15.1441   21.7184 N   0  0  0  0  0  0  0  0  0  0  0  0
  -21.3091  -28.6119   22.4716 N   0  0  0  0  0  0  0  0  0  0  0  0
  -26.3171  -26.6215   18.7309 N   0  0  0  0  0  0  0  0  0  0  0  0
  -28.9681  -21.6759   21.2689 N   0  0  0  0  0  0  0  0  0  0  0  0
  -29.5881  -28.0687   18.2072 N   0  3  0  0  0  0  0  0  0  0  0  0
  -22.7569  -17.4170   21.7433 O   0  0  0  0  0  0  0  0  0  0  0  0
  -22.8250  -27.0032   23.2039 O   0  0  0  0  0  0  0  0  0  0  0  0
  -23.7502  -27.7831   19.2507 O   0  0  0  0  0  0  0  0  0  0  0  0
  -28.2266  -26.4135   20.0301 O   0  0  0  0  0  0  0  0  0  0  0  0
  -30.5921  -21.9524   19.6742 O   0  0  0  0  0  0  0  0  0  0  0  0
  -25.2718  -10.1046   20.8542 O   0  0  0  0  0  0  0  0  0  0  0  0
  -27.8197  -27.7818   26.6870 O   0  0  0  0  0  0  0  0  0  1  0  0
  -23.5482   -8.0695   25.6803 F   0  0  0  0  0  0  0  0  0  0  0  0
  -22.7897  -10.7745   21.8706 F   0  0  0  0  0  0  0  0  0  0  0  0
  1  2  1  0  0  0  0
  1  5  2  0  0  0  0
  2  6  2  0  0  0  0
  3  8  2  0  0  0  0
  3 17  1  0  0  0  0
  4  9  1  0  0  0  0
  4 17  2  0  0  0  0
  5 19  1  0  0  0  0
  6 21  1  0  0  0  0
  7 10  2  0  0  0  0
  7 20  1  0  0  0  0
  8 24  1  0  0  0  0
  9 24  2  0  0  0  0
 10 25  1  0  0  0  0
 11 12  2  0  0  0  0
 11 26  1  0  0  0  0
 12 27  1  0  0  0  0
 13 22  1  0  0  0  0
 13 25  2  0  0  0  0
 14 23  1  0  0  0  0
 14 30  2  0  0  0  0
 15 23  2  0  0  0  0
 15 31  1  0  0  0  0
 16 27  2  0  0  0  0
 16 28  1  0  0  0  0
 17 29  1  0  0  0  0
 18 29  1  0  0  0  0
 18 32  2  0  0  0  0
 18 33  1  0  0  0  0
 19 21  2  0  0  0  0
 19 38  1  0  0  0  0
 20 22  2  0  0  0  0
 20 39  1  0  0  0  0
 21 47  1  0  0  0  0
 22 40  1  0  0  0  0
 23 56  1  0  0  0  0
 24 81  1  0  0  0  0
 25 82  1  0  0  0  0
 26 28  2  0  0  0  0
 26 81  1  0  0  0  0
 27 83  1  0  0  0  0
 28 84  1  0  0  0  0
 29 65  2  0  0  0  0
 30 50  1  0  0  0  0
 30 66  1  0  0  0  0
 31 57  1  0  0  0  0
 31 66  2  0  0  0  0
 32 67  1  0  0  0  0
 32 70  1  0  0  0  0
 33 71  1  0  0  0  0
 33 76  2  0  0  0  0
 34 48  1  0  0  0  0
 34 72  1  0  0  0  0
 34 77  2  0  0  0  0
 35 62  1  0  0  0  0
 35 68  1  0  0  0  0
 35 78  2  0  0  0  0
 36 63  1  0  0  0  0
 36 73  1  0  0  0  0
 36 79  2  0  0  0  0
 37 69  1  0  0  0  0
 37 74  1  0  0  0  0
 37 80  2  0  0  0  0
 38 41  1  0  0  0  0
 39 48  1  0  0  0  0
 40 68  1  0  0  0  0
 41 43  1  0  0  0  0
 42 44  1  0  0  0  0
 42 45  1  0  0  0  0
 43 47  1  0  0  0  0
 44 49  1  0  0  0  0
 45 69  1  0  0  0  0
 46 49  1  0  0  0  0
 46 69  1  0  0  0  0
 47 72  1  0  0  0  0
 48 68  1  0  0  0  0
 49 67  1  0  0  0  0
 51 63  1  0  0  0  0
 52 64  1  0  0  0  0
 53 64  1  0  0  0  0
 54 64  1  0  0  0  0
 55 75  1  0  0  0  0
 56 61  1  0  0  0  0
 57 58  1  0  0  0  0
 58 59  1  0  0  0  0
 59 60  1  0  0  0  0
 60 74  1  0  0  0  0
 61 82  1  0  0  0  0
 62 64  1  0  0  0  0
 62 73  1  0  0  0  0
 63 75  1  0  0  0  0
 65 67  1  0  0  0  0
M  CHG  1  75   1
M  ISO  4  37 100  61 101  74 100  82 101
M  END
> <Batch ID>
0035

> <Smiles>
CNC(C)C(=O)NC(C(=O)N1Cc2cc([101O:1][101CH2:1]Cc3cc(C)nc(CCCC[100NH:0][100C:0](=O)N4CCCC(n5nc(-c6ccc(Oc7ccc(F)cc7F)cc6)c(C(N)=O)c5N)C4)c3)ccc2CC1C(=O)NC1CCCc2ccccc21)C(C)(C)C

> <Shape>
0.225

> <Color>
0.066

> <Negative vol penalty>
0.000

$$$$

  -OEChem-04052316533D

 83 91  0     1  0  0  0  0  0999 V2000
  -30.6345   -9.5718   29.5223 C   0  0  0  0  0  0  0  0  0  0  0  0
  -30.8127  -10.8470   28.9955 C   0  0  0  0  0  0  0  0  0  0  0  0
  -23.2883   -9.7996   19.9128 C   0  0  0  0  0  0  0  0  0  0  0  0
  -23.7390   -9.9399   22.2822 C   0  0  0  0  0  0  0  0  0  0  0  0
  -29.3474   -9.0852   29.7470 C   0  0  0  0  0  0  0  0  0  0  0  0
  -29.7038  -11.6360   28.6921 C   0  0  0  0  0  0  0  0  0  0  0  0
  -30.2290  -16.4170   30.2768 C   0  0  0  0  0  0  0  0  0  0  0  0
  -22.5620   -8.6270   20.1204 C   0  0  0  0  0  0  0  0  0  0  0  0
  -23.0126   -8.7673   22.4899 C   0  0  0  0  0  0  0  0  0  0  0  0
  -31.0298  -17.2588   29.5062 C   0  0  0  0  0  0  0  0  0  0  0  0
  -19.7656   -7.8562   22.7070 C   0  0  0  0  0  0  0  0  0  0  0  0
  -18.8632   -7.8343   23.7703 C   0  0  0  0  0  0  0  0  0  0  0  0
  -29.0537  -18.2018   28.4937 C   0  0  0  0  0  0  0  0  0  0  0  0
  -32.8229  -15.3328   23.6782 C   0  0  0  0  0  0  0  0  0  0  0  0
  -30.7888  -16.5699   25.1323 C   0  0  0  0  0  0  0  0  0  0  0  0
  -20.0690   -5.9870   24.7556 C   0  0  0  0  0  0  0  0  0  0  0  0
  -23.8769  -10.4560   20.9937 C   0  0  0  0  0  0  0  0  0  0  0  0
  -24.1362  -12.9860   20.7954 C   0  0  0  0  0  0  0  0  0  0  0  0
  -28.2223   -9.8724   29.4552 C   0  0  0  0  0  0  0  0  0  0  0  0
  -28.8326  -16.4536   30.1534 C   0  0  0  0  0  0  0  0  0  0  0  0
  -28.4004  -11.1590   28.9118 C   0  0  0  0  0  0  0  0  0  0  0  0
  -28.2374  -17.3612   29.2657 C   0  0  0  0  0  0  0  0  0  0  0  0
  -32.9064  -16.6929   23.9757 C   0  0  0  0  0  0  0  0  0  0  0  0
  -31.7223  -14.5912   24.1076 C   0  0  0  0  0  0  0  0  0  0  0  0
  -31.8894  -17.3115   24.7028 C   0  0  0  0  0  0  0  0  0  0  0  0
  -22.4241   -8.1109   21.4089 C   0  0  0  0  0  0  0  0  0  0  0  0
  -30.4423  -18.1494   28.6124 C   0  0  0  0  0  0  0  0  0  0  0  0
  -20.8197   -6.9434   22.6679 C   0  0  0  0  0  0  0  0  0  0  0  0
  -19.0149   -6.8998   24.7947 C   0  0  0  0  0  0  0  0  0  0  0  0
  -20.9714   -6.0089   23.6922 C   0  0  0  0  0  0  0  0  0  0  0  0
  -30.7053  -15.2098   24.8347 C   0  0  0  0  0  0  0  0  0  0  0  0
  -24.6278  -11.6670   20.7799 C   0  0  0  0  0  0  0  0  0  0  0  0
  -25.2377  -13.7660   20.5406 C   0  0  0  0  0  0  0  0  0  0  0  0
  -22.8032  -13.4636   21.0203 C   0  0  0  0  0  0  0  0  0  0  0  0
  -26.6035  -14.3680   29.2674 C   0  0  0  0  0  0  0  0  0  0  0  0
  -24.5806  -16.7294   30.1914 C   0  0  0  0  0  0  0  0  0  0  0  0
  -24.0752  -20.0581   30.7491 C   0  0  0  0  0  0  0  0  0  0  0  0
  -31.1087  -12.9231   21.3603 C   0  0  0  0  0  0  0  0  0  0  0  0
  -26.8499   -9.2853   29.6709 C   0  0  0  0  0  0  0  0  0  0  0  0
  -27.9818  -15.5577   31.0113 C   0  0  0  0  0  0  0  0  0  0  0  0
  -26.7421  -17.4539   29.1106 C   0  0  0  0  0  0  0  0  0  0  0  0
  -25.7348  -10.3279   29.6728 C   0  0  0  0  0  0  0  0  0  0  0  0
  -29.4599  -13.6628   18.2926 C   0  0  0  0  0  0  0  0  0  0  0  0
  -25.8987  -11.2869   28.4980 C   0  0  0  0  0  0  0  0  0  0  0  0
  -27.9902  -13.3542   18.5836 C   0  0  0  0  0  0  0  0  0  0  0  0
  -30.3932  -12.6833   19.0009 C   0  0  0  0  0  0  0  0  0  0  0  0
  -28.7065  -12.2537   20.7457 C   0  0  0  0  0  0  0  0  0  0  0  0
  -27.2228  -12.0545   28.5930 C   0  0  1  0  0  0  0  0  0  0  0  0
  -26.5914  -15.3191   30.4306 C   0  0  1  0  0  0  0  0  0  0  0  0
  -27.7285  -13.2489   20.0981 C   0  0  2  0  0  0  0  0  0  0  0  0
  -34.0926  -17.4681   23.5040 C   0  0  0  0  0  0  0  0  0  0  0  0
  -22.3074  -21.6897   31.4635 C   0  0  0  0  0  0  0  0  0  0  0  0
  -23.2772  -16.5179   27.4407 C   0  0  0  0  0  0  0  0  0  0  0  0
  -22.2021  -18.7405   27.8562 C   0  0  0  0  0  0  0  0  0  0  0  0
  -21.6716  -16.8041   29.3367 C   0  0  0  0  0  0  0  0  0  0  0  0
  -25.6481  -20.9074   33.1078 C   0  0  0  0  0  0  0  0  0  0  0  0
  -31.9567  -18.7810   25.0338 C   0  0  0  0  0  0  0  0  0  0  0  0
  -31.6705  -13.1365   23.7682 C   0  0  0  0  0  0  0  0  0  0  0  0
  -32.9233  -19.1121   26.1730 C   0  0  0  0  0  0  0  0  0  0  0  0
  -32.5194  -18.4939   27.5064 C   0  0  0  0  0  0  0  0  0  1  0  0
  -23.9370  -17.9131   29.5105 C   0  0  1  0  0  0  0  0  0  0  0  0
  -23.4543  -20.8006   31.9186 C   0  0  2  0  0  0  0  0  0  0  0  0
  -22.8002  -17.4910   28.5373 C   0  0  0  0  0  0  0  0  0  0  0  0
  -25.9394  -11.6084   20.5344 N   0  0  0  0  0  0  0  0  0  0  0  0
  -26.2814  -12.9004   20.3933 N   0  0  0  0  0  0  0  0  0  0  0  0
  -25.9532  -16.5527   29.9668 N   0  0  0  0  0  0  0  0  0  0  0  0
  -30.0938  -12.6317   20.4339 N   0  0  0  0  0  0  0  0  0  0  0  0
  -25.4056  -15.1009   20.4303 N   0  0  0  0  0  0  0  0  0  0  0  0
  -21.7906  -12.5266   21.2676 N   0  0  0  0  0  0  0  0  0  0  0  0
  -27.1199  -13.1214   29.5654 N   0  0  0  0  0  0  0  0  0  0  0  0
  -23.5083  -18.8133   30.5755 N   0  0  0  0  0  0  0  0  0  0  0  0
  -30.7389  -12.8573   22.6981 N   0  0  0  0  0  0  0  0  0  0  0  0
  -24.4740  -21.6556   32.5896 N   0  3  0  0  0  0  0  0  0  0  0  0
  -22.5152  -14.6840   20.9861 O   0  0  0  0  0  0  0  0  0  0  0  0
  -26.1748  -14.7373   28.1805 O   0  0  0  0  0  0  0  0  0  0  0  0
  -23.8923  -15.9929   30.9024 O   0  0  0  0  0  0  0  0  0  0  0  0
  -24.9708  -20.5362   30.0564 O   0  0  0  0  0  0  0  0  0  0  0  0
  -32.2577  -13.2249   21.0203 O   0  0  0  0  0  0  0  0  0  0  0  0
  -21.7152   -6.9669   21.6119 O   0  0  0  0  0  0  0  0  0  0  0  0
  -31.2217  -18.9717   27.8585 O   0  0  0  0  0  0  0  0  0  1  0  0
  -18.1491   -6.8800   25.8166 F   0  0  0  0  0  0  0  0  0  0  0  0
  -21.9827   -5.1302   23.6607 F   0  0  0  0  0  0  0  0  0  0  0  0
  -29.3284  -14.3246   25.3825 Cl  0  0  0  0  0  0  0  0  0  0  0  0
  1  2  1  0  0  0  0
  1  5  2  0  0  0  0
  2  6  2  0  0  0  0
  3  8  2  0  0  0  0
  3 17  1  0  0  0  0
  4  9  1  0  0  0  0
  4 17  2  0  0  0  0
  5 19  1  0  0  0  0
  6 21  1  0  0  0  0
  7 10  2  0  0  0  0
  7 20  1  0  0  0  0
  8 26  1  0  0  0  0
  9 26  2  0  0  0  0
 10 27  1  0  0  0  0
 11 12  2  0  0  0  0
 11 28  1  0  0  0  0
 12 29  1  0  0  0  0
 13 22  1  0  0  0  0
 13 27  2  0  0  0  0
 14 23  1  0  0  0  0
 14 24  2  0  0  0  0
 15 25  1  0  0  0  0
 15 31  2  0  0  0  0
 16 29  2  0  0  0  0
 16 30  1  0  0  0  0
 17 32  1  0  0  0  0
 18 32  1  0  0  0  0
 18 33  2  0  0  0  0
 18 34  1  0  0  0  0
 19 21  2  0  0  0  0
 19 39  1  0  0  0  0
 20 22  2  0  0  0  0
 20 40  1  0  0  0  0
 21 48  1  0  0  0  0
 22 41  1  0  0  0  0
 23 25  2  0  0  0  0
 23 51  1  0  0  0  0
 24 31  1  0  0  0  0
 24 58  1  0  0  0  0
 25 57  1  0  0  0  0
 26 79  1  0  0  0  0
 27 80  1  0  0  0  0
 28 30  2  0  0  0  0
 28 79  1  0  0  0  0
 29 81  1  0  0  0  0
 30 82  1  0  0  0  0
 31 83  1  0  0  0  0
 32 64  2  0  0  0  0
 33 65  1  0  0  0  0
 33 68  1  0  0  0  0
 34 69  1  0  0  0  0
 34 74  2  0  0  0  0
 35 49  1  0  0  0  0
 35 70  1  0  0  0  0
 35 75  2  0  0  0  0
 36 61  1  0  0  0  0
 36 66  1  0  0  0  0
 36 76  2  0  0  0  0
 37 62  1  0  0  0  0
 37 71  1  0  0  0  0
 37 77  2  0  0  0  0
 38 67  1  0  0  0  0
 38 72  1  0  0  0  0
 38 78  2  0  0  0  0
 39 42  1  0  0  0  0
 40 49  1  0  0  0  0
 41 66  1  0  0  0  0
 42 44  1  0  0  0  0
 43 45  1  0  0  0  0
 43 46  1  0  0  0  0
 44 48  1  0  0  0  0
 45 50  1  0  0  0  0
 46 67  1  0  0  0  0
 47 50  1  0  0  0  0
 47 67  1  0  0  0  0
 48 70  1  0  0  0  0
 49 66  1  0  0  0  0
 50 65  1  0  0  0  0
 52 62  1  0  0  0  0
 53 63  1  0  0  0  0
 54 63  1  0  0  0  0
 55 63  1  0  0  0  0
 56 73  1  0  0  0  0
 57 59  1  0  0  0  0
 58 72  1  0  0  0  0
 59 60  1  0  0  0  0
 60 80  1  0  0  0  0
 61 63  1  0  0  0  0
 61 71  1  0  0  0  0
 62 73  1  0  0  0  0
 64 65  1  0  0  0  0
M  CHG  1  73   1
M  ISO  4  38 100  60 101  72 100  80 101
M  END
> <Batch ID>
0035

> <Smiles>
CNC(C)C(=O)NC(C(=O)N1Cc2cc([101O:1][101CH2:1]CCc3cc(Cl)c(C[100NH:0][100C:0](=O)N4CCCC(n5nc(-c6ccc(Oc7ccc(F)cc7F)cc6)c(C(N)=O)c5N)C4)cc3C)ccc2CC1C(=O)NC1CCCc2ccccc21)C(C)(C)C

> <Shape>
0.136

> <Color>
0.182

> <Negative vol penalty>
0.000

$$$$

  -OEChem-04052316533D

 84 92  0     1  0  0  0  0  0999 V2000
  -16.1868  -13.4545   20.0172 C   0  0  0  0  0  0  0  0  0  0  0  0
  -17.5543  -13.5666   19.7876 C   0  0  0  0  0  0  0  0  0  0  0  0
  -27.3505  -23.4828   20.1190 C   0  0  0  0  0  0  0  0  0  0  0  0
  -29.4224  -23.7038   18.8962 C   0  0  0  0  0  0  0  0  0  0  0  0
  -15.4009  -14.6022   20.1133 C   0  0  0  0  0  0  0  0  0  0  0  0
  -18.1366  -14.8264   19.6529 C   0  0  0  0  0  0  0  0  0  0  0  0
  -22.4553  -15.2595   22.2618 C   0  0  0  0  0  0  0  0  0  0  0  0
  -27.3809  -24.8451   20.4168 C   0  0  0  0  0  0  0  0  0  0  0  0
  -29.4528  -25.0662   19.1939 C   0  0  0  0  0  0  0  0  0  0  0  0
  -23.5956  -14.6810   21.7062 C   0  0  0  0  0  0  0  0  0  0  0  0
  -26.6673  -27.7543   18.8481 C   0  0  0  0  0  0  0  0  0  0  0  0
  -25.4842  -28.4775   18.6967 C   0  0  0  0  0  0  0  0  0  0  0  0
  -24.2953  -16.8457   20.9037 C   0  0  0  0  0  0  0  0  0  0  0  0
  -29.5598  -12.9007   17.2488 C   0  0  0  0  0  0  0  0  0  0  0  0
  -25.5406  -29.0604   21.0407 C   0  0  0  0  0  0  0  0  0  0  0  0
  -28.3713  -22.9121   19.3587 C   0  0  0  0  0  0  0  0  0  0  0  0
  -27.7459  -20.8918   17.9323 C   0  0  0  0  0  0  0  0  0  0  0  0
  -15.9754  -15.8770   19.9893 C   0  0  0  0  0  0  0  0  0  0  0  0
  -22.2206  -16.6360   22.1330 C   0  0  0  0  0  0  0  0  0  0  0  0
  -17.3574  -15.9922   19.7461 C   0  0  0  0  0  0  0  0  0  0  0  0
  -23.1525  -17.4396   21.4609 C   0  0  0  0  0  0  0  0  0  0  0  0
  -28.8562  -11.7641   17.6314 C   0  0  0  0  0  0  0  0  0  0  0  0
  -29.4934  -10.7758   18.3734 C   0  0  0  0  0  0  0  0  0  0  0  0
  -28.4320  -25.6368   19.9542 C   0  0  0  0  0  0  0  0  0  0  0  0
  -24.5144  -15.4736   21.0245 C   0  0  0  0  0  0  0  0  0  0  0  0
  -27.2870  -27.6840   20.0959 C   0  0  0  0  0  0  0  0  0  0  0  0
  -24.9209  -29.1305   19.7930 C   0  0  0  0  0  0  0  0  0  0  0  0
  -26.7236  -28.3371   21.1921 C   0  0  0  0  0  0  0  0  0  0  0  0
  -28.3407  -21.5047   19.0513 C   0  0  0  0  0  0  0  0  0  0  0  0
  -30.8881  -13.0002   17.6302 C   0  0  0  0  0  0  0  0  0  0  0  0
  -30.8247  -10.9704   18.7044 C   0  0  0  0  0  0  0  0  0  0  0  0
  -27.9913  -19.5513   18.1041 C   0  0  0  0  0  0  0  0  0  0  0  0
  -27.0352  -21.4813   16.8354 C   0  0  0  0  0  0  0  0  0  0  0  0
  -19.9544  -18.4082   20.7811 C   0  0  0  0  0  0  0  0  0  0  0  0
  -21.5718  -20.8473   22.1802 C   0  0  0  0  0  0  0  0  0  0  0  0
  -24.5129  -22.0193   23.4542 C   0  0  0  0  0  0  0  0  0  0  0  0
  -31.4381  -15.3643   19.4210 C   0  0  0  0  0  0  0  0  0  0  0  0
  -15.0777  -17.0872   20.0535 C   0  0  0  0  0  0  0  0  0  0  0  0
  -20.9991  -17.2490   22.7612 C   0  0  0  0  0  0  0  0  0  0  0  0
  -22.9572  -18.9256   21.3123 C   0  0  0  0  0  0  0  0  0  0  0  0
  -15.8334  -18.3953   20.2725 C   0  0  0  0  0  0  0  0  0  0  0  0
  -29.7766  -17.0172   22.1013 C   0  0  0  0  0  0  0  0  0  0  0  0
  -17.0384  -18.4781   19.3409 C   0  0  0  0  0  0  0  0  0  0  0  0
  -29.2116  -18.2838   21.4559 C   0  0  0  0  0  0  0  0  0  0  0  0
  -31.1389  -16.6466   21.5192 C   0  0  0  0  0  0  0  0  0  0  0  0
  -30.6079  -17.7948   19.4041 C   0  0  0  0  0  0  0  0  0  0  0  0
  -18.0299  -17.3419   19.6192 C   0  0  1  0  0  0  0  0  0  0  0  0
  -20.6034  -18.5782   22.1256 C   0  0  1  0  0  0  0  0  0  0  0  0
  -29.2097  -18.1770   19.9191 C   0  0  2  0  0  0  0  0  0  0  0  0
  -28.7631   -9.5469   18.8000 C   0  0  0  0  0  0  0  0  0  0  0  0
  -31.5624   -9.9446   19.5013 C   0  0  0  0  0  0  0  0  0  0  0  0
  -25.5352  -24.0634   24.4906 C   0  0  0  0  0  0  0  0  0  0  0  0
  -21.6948  -22.1744   19.4355 C   0  0  0  0  0  0  0  0  0  0  0  0
  -23.4926  -23.6761   20.3193 C   0  0  0  0  0  0  0  0  0  0  0  0
  -21.2120  -23.7358   21.3285 C   0  0  0  0  0  0  0  0  0  0  0  0
  -25.1403  -20.5765   25.9610 C   0  0  0  0  0  0  0  0  0  0  0  0
  -27.4096  -11.6270   17.2281 C   0  0  0  0  0  0  0  0  0  0  0  0
  -31.6739  -14.2068   17.2384 C   0  0  0  0  0  0  0  0  0  0  0  0
  -26.4208  -11.8994   18.3672 C   0  0  0  0  0  0  0  0  0  0  0  0
  -26.4922  -13.3342   18.8917 C   0  0  0  0  0  0  0  0  0  0  0  0
  -25.5254  -13.5557   20.0470 C   0  0  0  0  0  0  0  0  0  1  0  0
  -22.7114  -21.7486   21.7703 C   0  0  1  0  0  0  0  0  0  0  0  0
  -24.8326  -22.7401   24.7514 C   0  0  2  0  0  0  0  0  0  0  0  0
  -22.2807  -22.8054   20.7143 C   0  0  0  0  0  0  0  0  0  0  0  0
  -28.9202  -20.6258   19.8734 N   0  0  0  0  0  0  0  0  0  0  0  0
  -31.5410  -12.0610   18.3508 N   0  0  0  0  0  0  0  0  0  0  0  0
  -28.6906  -19.4469   19.2704 N   0  0  0  0  0  0  0  0  0  0  0  0
  -21.7442  -19.4770   21.9385 N   0  0  0  0  0  0  0  0  0  0  0  0
  -31.0683  -16.5600   20.0586 N   0  0  0  0  0  0  0  0  0  0  0  0
  -27.6748  -18.4636   17.3699 N   0  0  0  0  0  0  0  0  0  0  0  0
  -26.8738  -22.8734   16.8149 N   0  0  0  0  0  0  0  0  0  0  0  0
  -18.8117  -17.6316   20.8021 N   0  0  0  0  0  0  0  0  0  0  0  0
  -23.2448  -22.3184   23.0028 N   0  0  0  0  0  0  0  0  0  0  0  0
  -31.3356  -15.3649   18.0352 N   0  0  0  0  0  0  0  0  0  0  0  0
  -25.7168  -21.8992   25.6070 N   0  3  0  0  0  0  0  0  0  0  0  0
  -26.5433  -20.7925   15.9097 O   0  0  0  0  0  0  0  0  0  0  0  0
  -20.4527  -18.9433   19.7977 O   0  0  0  0  0  0  0  0  0  0  0  0
  -20.5688  -21.3400   22.7024 O   0  0  0  0  0  0  0  0  0  0  0  0
  -25.3099  -21.2691   22.8952 O   0  0  0  0  0  0  0  0  0  0  0  0
  -31.8254  -14.3681   20.0411 O   0  0  0  0  0  0  0  0  0  0  0  0
  -28.4619  -26.9663   20.2444 O   0  0  0  0  0  0  0  0  0  0  0  0
  -25.6279  -14.9114   20.4806 O   0  0  0  0  0  0  0  0  0  1  0  0
  -23.7856  -29.8263   19.6471 F   0  0  0  0  0  0  0  0  0  0  0  0
  -27.3150  -28.2743   22.3930 F   0  0  0  0  0  0  0  0  0  0  0  0
  1  2  1  0  0  0  0
  1  5  2  0  0  0  0
  2  6  2  0  0  0  0
  3  8  2  0  0  0  0
  3 16  1  0  0  0  0
  4  9  1  0  0  0  0
  4 16  2  0  0  0  0
  5 18  1  0  0  0  0
  6 20  1  0  0  0  0
  7 10  2  0  0  0  0
  7 19  1  0  0  0  0
  8 24  1  0  0  0  0
  9 24  2  0  0  0  0
 10 25  1  0  0  0  0
 11 12  2  0  0  0  0
 11 26  1  0  0  0  0
 12 27  1  0  0  0  0
 13 21  1  0  0  0  0
 13 25  2  0  0  0  0
 14 22  1  0  0  0  0
 14 30  2  0  0  0  0
 15 27  2  0  0  0  0
 15 28  1  0  0  0  0
 16 29  1  0  0  0  0
 17 29  1  0  0  0  0
 17 32  2  0  0  0  0
 17 33  1  0  0  0  0
 18 20  2  0  0  0  0
 18 38  1  0  0  0  0
 19 21  2  0  0  0  0
 19 39  1  0  0  0  0
 20 47  1  0  0  0  0
 21 40  1  0  0  0  0
 22 23  2  0  0  0  0
 22 57  1  0  0  0  0
 23 31  1  0  0  0  0
 23 50  1  0  0  0  0
 24 81  1  0  0  0  0
 25 82  1  0  0  0  0
 26 28  2  0  0  0  0
 26 81  1  0  0  0  0
 27 83  1  0  0  0  0
 28 84  1  0  0  0  0
 29 65  2  0  0  0  0
 30 58  1  0  0  0  0
 30 66  1  0  0  0  0
 31 51  1  0  0  0  0
 31 66  2  0  0  0  0
 32 67  1  0  0  0  0
 32 70  1  0  0  0  0
 33 71  1  0  0  0  0
 33 76  2  0  0  0  0
 34 48  1  0  0  0  0
 34 72  1  0  0  0  0
 34 77  2  0  0  0  0
 35 62  1  0  0  0  0
 35 68  1  0  0  0  0
 35 78  2  0  0  0  0
 36 63  1  0  0  0  0
 36 73  1  0  0  0  0
 36 79  2  0  0  0  0
 37 69  1  0  0  0  0
 37 74  1  0  0  0  0
 37 80  2  0  0  0  0
 38 41  1  0  0  0  0
 39 48  1  0  0  0  0
 40 68  1  0  0  0  0
 41 43  1  0  0  0  0
 42 44  1  0  0  0  0
 42 45  1  0  0  0  0
 43 47  1  0  0  0  0
 44 49  1  0  0  0  0
 45 69  1  0  0  0  0
 46 49  1  0  0  0  0
 46 69  1  0  0  0  0
 47 72  1  0  0  0  0
 48 68  1  0  0  0  0
 49 67  1  0  0  0  0
 52 63  1  0  0  0  0
 53 64  1  0  0  0  0
 54 64  1  0  0  0  0
 55 64  1  0  0  0  0
 56 75  1  0  0  0  0
 57 59  1  0  0  0  0
 58 74  1  0  0  0  0
 59 60  1  0  0  0  0
 60 61  1  0  0  0  0
 61 82  1  0  0  0  0
 62 64  1  0  0  0  0
 62 73  1  0  0  0  0
 63 75  1  0  0  0  0
 65 67  1  0  0  0  0
M  CHG  1  75   1
M  ISO  4  37 100  61 101  74 100  82 101
M  END
> <Batch ID>
0035

> <Smiles>
CNC(C)C(=O)NC(C(=O)N1Cc2cc([101O:1][101CH2:1]CCCc3cc(C[100NH:0][100C:0](=O)N4CCCC(n5nc(-c6ccc(Oc7ccc(F)cc7F)cc6)c(C(N)=O)c5N)C4)nc(C)c3C)ccc2CC1C(=O)NC1CCCc2ccccc21)C(C)(C)C

> <Shape>
0.176

> <Color>
0.087

> <Negative vol penalty>
0.000

$$$$

  -OEChem-04052316533D

 87 96  0     1  0  0  0  0  0999 V2000
  -16.9976  -29.0824   24.5114 C   0  0  0  0  0  0  0  0  0  0  0  0
  -17.6185  -28.0037   23.8899 C   0  0  0  0  0  0  0  0  0  0  0  0
  -27.4501  -19.9195   21.6231 C   0  0  0  0  0  0  0  0  0  0  0  0
  -28.4522  -18.8229   19.7178 C   0  0  0  0  0  0  0  0  0  0  0  0
  -17.3794  -30.3845   24.1907 C   0  0  0  0  0  0  0  0  0  0  0  0
  -18.6209  -28.2264   22.9465 C   0  0  0  0  0  0  0  0  0  0  0  0
  -22.6158  -25.1839   23.6013 C   0  0  0  0  0  0  0  0  0  0  0  0
  -27.6366  -21.1577   21.0086 C   0  0  0  0  0  0  0  0  0  0  0  0
  -28.6387  -20.0611   19.1032 C   0  0  0  0  0  0  0  0  0  0  0  0
  -22.4954  -23.8694   23.1524 C   0  0  0  0  0  0  0  0  0  0  0  0
  -29.7062  -22.9597   17.1879 C   0  0  0  0  0  0  0  0  0  0  0  0
  -30.9404  -23.2057   16.5864 C   0  0  0  0  0  0  0  0  0  0  0  0
  -23.7266  -24.4438   21.1591 C   0  0  0  0  0  0  0  0  0  0  0  0
  -20.1305  -17.7883   24.9458 C   0  0  0  0  0  0  0  0  0  0  0  0
  -19.9877  -15.4663   25.5561 C   0  0  0  0  0  0  0  0  0  0  0  0
  -32.0399  -22.8946   18.7152 C   0  0  0  0  0  0  0  0  0  0  0  0
  -27.8580  -18.7521   20.9777 C   0  0  0  0  0  0  0  0  0  0  0  0
  -28.1950  -17.0478   22.8457 C   0  0  0  0  0  0  0  0  0  0  0  0
  -18.3937  -30.6231   23.2500 C   0  0  0  0  0  0  0  0  0  0  0  0
  -23.2842  -26.1424   22.8261 C   0  0  0  0  0  0  0  0  0  0  0  0
  -19.0157  -29.5329   22.6120 C   0  0  0  0  0  0  0  0  0  0  0  0
  -23.8564  -25.7691   21.6016 C   0  0  0  0  0  0  0  0  0  0  0  0
  -19.5375  -16.7750   25.6906 C   0  0  0  0  0  0  0  0  0  0  0  0
  -28.2309  -21.2285   19.7487 C   0  0  0  0  0  0  0  0  0  0  0  0
  -23.0483  -23.4999   21.9298 C   0  0  0  0  0  0  0  0  0  0  0  0
  -29.6388  -22.6813   18.5531 C   0  0  0  0  0  0  0  0  0  0  0  0
  -32.1073  -23.1731   17.3500 C   0  0  0  0  0  0  0  0  0  0  0  0
  -30.8056  -22.6487   19.3167 C   0  0  0  0  0  0  0  0  0  0  0  0
  -27.6661  -17.4727   21.6123 C   0  0  0  0  0  0  0  0  0  0  0  0
  -21.1620  -17.4436   24.0873 C   0  0  0  0  0  0  0  0  0  0  0  0
  -21.0254  -15.2255   24.6701 C   0  0  0  0  0  0  0  0  0  0  0  0
  -27.7232  -15.7669   22.9986 C   0  0  0  0  0  0  0  0  0  0  0  0
  -29.0374  -17.7482   23.7706 C   0  0  0  0  0  0  0  0  0  0  0  0
  -22.4518  -28.8714   21.4251 C   0  0  0  0  0  0  0  0  0  0  0  0
  -25.6267  -29.0602   20.7874 C   0  0  0  0  0  0  0  0  0  0  0  0
  -28.5980  -27.4361   20.3624 C   0  0  0  0  0  0  0  0  0  0  0  0
  -22.9319  -12.9012   20.8348 C   0  0  0  0  0  0  0  0  0  0  0  0
  -18.7395  -32.0491   22.9013 C   0  0  0  0  0  0  0  0  0  0  0  0
  -23.4286  -27.5497   23.3369 C   0  0  0  0  0  0  0  0  0  0  0  0
  -24.6015  -26.7554   20.7411 C   0  0  0  0  0  0  0  0  0  0  0  0
  -20.0699  -32.1909   22.1663 C   0  0  0  0  0  0  0  0  0  0  0  0
  -26.3437  -11.9562   20.4557 C   0  0  0  0  0  0  0  0  0  0  0  0
  -20.1729  -31.1615   21.0453 C   0  0  0  0  0  0  0  0  0  0  0  0
  -22.5302  -19.5733   24.1440 C   0  0  0  0  0  0  0  0  0  0  0  0
  -20.8509  -19.1896   22.2806 C   0  0  0  0  0  0  0  0  0  0  0  0
  -27.1172  -13.2246   20.8204 C   0  0  0  0  0  0  0  0  0  0  0  0
  -23.2095  -20.6497   23.3013 C   0  0  0  0  0  0  0  0  0  0  0  0
  -21.5394  -20.2676   21.4475 C   0  0  0  0  0  0  0  0  0  0  0  0
  -25.0500  -12.2787   19.7111 C   0  0  0  0  0  0  0  0  0  0  0  0
  -24.9365  -14.5052   20.7617 C   0  0  0  0  0  0  0  0  0  0  0  0
  -20.1244  -29.7334   21.6016 C   0  0  1  0  0  0  0  0  0  0  0  0
  -21.8344  -18.5235   23.2594 C   0  0  0  0  0  0  0  0  0  0  0  0
  -23.6848  -28.5648   22.2272 C   0  0  1  0  0  0  0  0  0  0  0  0
  -26.2211  -14.2338   21.5632 C   0  0  2  0  0  0  0  0  0  0  0  0
  -22.2316  -21.3053   22.3279 C   0  0  0  0  0  0  0  0  0  1  0  0
  -18.4238  -17.0906   26.6307 C   0  0  0  0  0  0  0  0  0  0  0  0
  -31.0103  -27.8542   19.8115 C   0  0  0  0  0  0  0  0  0  0  0  0
  -24.8869  -29.4472   17.8526 C   0  0  0  0  0  0  0  0  0  0  0  0
  -27.2581  -28.9088   17.2561 C   0  0  0  0  0  0  0  0  0  0  0  0
  -26.7500  -30.9071   18.6601 C   0  0  0  0  0  0  0  0  0  0  0  0
  -29.5008  -26.3463   22.9617 C   0  0  0  0  0  0  0  0  0  0  0  0
  -21.5325  -13.8325   24.4993 C   0  0  0  0  0  0  0  0  0  0  0  0
  -20.8192  -13.0254   23.3970 C   0  0  0  0  0  0  0  0  0  0  0  0
  -20.8830  -13.6623   22.0104 C   0  0  0  0  0  0  0  0  0  0  0  0
  -26.5206  -28.5974   19.6623 C   0  0  1  0  0  0  0  0  0  0  0  0
  -29.9827  -27.7062   20.9228 C   0  0  2  0  0  0  0  0  0  0  0  0
  -26.3382  -29.4468   18.3729 C   0  0  0  0  0  0  0  0  0  0  0  0
  -26.9159  -16.5377   21.0233 N   0  0  0  0  0  0  0  0  0  0  0  0
  -21.6264  -16.1838   23.9297 N   0  0  0  0  0  0  0  0  0  0  0  0
  -26.9700  -15.5124   21.8904 N   0  0  0  0  0  0  0  0  0  0  0  0
  -24.7103  -28.1208   21.2809 N   0  0  0  0  0  0  0  0  0  0  0  0
  -24.2453  -13.2396   20.4694 N   0  0  0  0  0  0  0  0  0  0  0  0
  -27.8834  -14.8448   23.9715 N   0  0  0  0  0  0  0  0  0  0  0  0
  -29.4291  -19.0572   23.4584 N   0  0  0  0  0  0  0  0  0  0  0  0
  -21.4031  -29.3702   22.1740 N   0  0  0  0  0  0  0  0  0  0  0  0
  -27.8796  -28.6007   20.1929 N   0  0  0  0  0  0  0  0  0  0  0  0
  -22.2410  -13.8661   21.5575 N   0  0  0  0  0  0  0  0  0  0  0  0
  -30.4091  -26.5883   21.8113 N   0  3  0  0  0  0  0  0  0  0  0  0
  -29.4446  -17.2228   24.8344 O   0  0  0  0  0  0  0  0  0  0  0  0
  -22.4524  -28.6718   20.2160 O   0  0  0  0  0  0  0  0  0  0  0  0
  -25.7424  -30.2105   21.2175 O   0  0  0  0  0  0  0  0  0  0  0  0
  -28.1954  -26.3055   20.0978 O   0  0  0  0  0  0  0  0  0  0  0  0
  -22.4152  -11.8172   20.5434 O   0  0  0  0  0  0  0  0  0  0  0  0
  -28.4128  -22.4366   19.1486 O   0  0  0  0  0  0  0  0  0  0  0  0
  -22.9317  -22.2177   21.4890 O   0  0  0  0  0  0  0  0  0  1  0  0
  -33.2926  -23.4077   16.7719 F   0  0  0  0  0  0  0  0  0  0  0  0
  -30.7473  -22.3807   20.6284 F   0  0  0  0  0  0  0  0  0  0  0  0
  1  2  1  0  0  0  0
  1  5  2  0  0  0  0
  2  6  2  0  0  0  0
  3  8  2  0  0  0  0
  3 17  1  0  0  0  0
  4  9  1  0  0  0  0
  4 17  2  0  0  0  0
  5 19  1  0  0  0  0
  6 21  1  0  0  0  0
  7 10  2  0  0  0  0
  7 20  1  0  0  0  0
  8 24  1  0  0  0  0
  9 24  2  0  0  0  0
 10 25  1  0  0  0  0
 11 12  2  0  0  0  0
 11 26  1  0  0  0  0
 12 27  1  0  0  0  0
 13 22  1  0  0  0  0
 13 25  2  0  0  0  0
 14 23  2  0  0  0  0
 14 30  1  0  0  0  0
 15 23  1  0  0  0  0
 15 31  2  0  0  0  0
 16 27  2  0  0  0  0
 16 28  1  0  0  0  0
 17 29  1  0  0  0  0
 18 29  1  0  0  0  0
 18 32  2  0  0  0  0
 18 33  1  0  0  0  0
 19 21  2  0  0  0  0
 19 38  1  0  0  0  0
 20 22  2  0  0  0  0
 20 39  1  0  0  0  0
 21 51  1  0  0  0  0
 22 40  1  0  0  0  0
 23 56  1  0  0  0  0
 24 84  1  0  0  0  0
 25 85  1  0  0  0  0
 26 28  2  0  0  0  0
 26 84  1  0  0  0  0
 27 86  1  0  0  0  0
 28 87  1  0  0  0  0
 29 68  2  0  0  0  0
 30 52  1  0  0  0  0
 30 69  2  0  0  0  0
 31 62  1  0  0  0  0
 31 69  1  0  0  0  0
 32 70  1  0  0  0  0
 32 73  1  0  0  0  0
 33 74  1  0  0  0  0
 33 79  2  0  0  0  0
 34 53  1  0  0  0  0
 34 75  1  0  0  0  0
 34 80  2  0  0  0  0
 35 65  1  0  0  0  0
 35 71  1  0  0  0  0
 35 81  2  0  0  0  0
 36 66  1  0  0  0  0
 36 76  1  0  0  0  0
 36 82  2  0  0  0  0
 37 72  1  0  0  0  0
 37 77  1  0  0  0  0
 37 83  2  0  0  0  0
 38 41  1  0  0  0  0
 39 53  1  0  0  0  0
 40 71  1  0  0  0  0
 41 43  1  0  0  0  0
 42 46  1  0  0  0  0
 42 49  1  0  0  0  0
 43 51  1  0  0  0  0
 44 47  1  0  0  0  0
 44 52  1  0  0  0  0
 45 48  1  0  0  0  0
 45 52  1  0  0  0  0
 46 54  1  0  0  0  0
 47 55  1  0  0  0  0
 48 55  1  0  0  0  0
 49 72  1  0  0  0  0
 50 54  1  0  0  0  0
 50 72  1  0  0  0  0
 51 75  1  0  0  0  0
 53 71  1  0  0  0  0
 54 70  1  0  0  0  0
 55 85  1  0  0  0  0
 57 66  1  0  0  0  0
 58 67  1  0  0  0  0
 59 67  1  0  0  0  0
 60 67  1  0  0  0  0
 61 78  1  0  0  0  0
 62 63  1  0  0  0  0
 63 64  1  0  0  0  0
 64 77  1  0  0  0  0
 65 67  1  0  0  0  0
 65 76  1  0  0  0  0
 66 78  1  0  0  0  0
 68 70  1  0  0  0  0
M  CHG  1  78   1
M  ISO  4  37 100  55 101  77 100  85 101
M  END
> <Batch ID>
0035

> <Smiles>
CNC(C)C(=O)NC(C(=O)N1Cc2cc([101O:1][101CH:1]3CCC(c4cc(C)cc(CCC[100NH:0][100C:0](=O)N5CCCC(n6nc(-c7ccc(Oc8ccc(F)cc8F)cc7)c(C(N)=O)c6N)C5)n4)CC3)ccc2CC1C(=O)NC1CCCc2ccccc21)C(C)(C)C

> <Shape>
0.224

> <Color>
0.078

> <Negative vol penalty>
0.000

$$$$

  -OEChem-04052316533D

 84 92  0     1  0  0  0  0  0999 V2000
  -16.8589  -29.5666   23.1898 C   0  0  0  0  0  0  0  0  0  0  0  0
  -18.0220  -30.2737   22.9020 C   0  0  0  0  0  0  0  0  0  0  0  0
  -27.0826  -17.7527   20.0568 C   0  0  0  0  0  0  0  0  0  0  0  0
  -29.0855  -17.3768   21.3546 C   0  0  0  0  0  0  0  0  0  0  0  0
  -16.9265  -28.2048   23.4809 C   0  0  0  0  0  0  0  0  0  0  0  0
  -19.2534  -29.6195   22.9061 C   0  0  0  0  0  0  0  0  0  0  0  0
  -25.6315  -29.7048   19.6459 C   0  0  0  0  0  0  0  0  0  0  0  0
  -26.9264  -16.3756   19.8990 C   0  0  0  0  0  0  0  0  0  0  0  0
  -28.9292  -15.9997   21.1968 C   0  0  0  0  0  0  0  0  0  0  0  0
  -26.9926  -29.7556   19.9434 C   0  0  0  0  0  0  0  0  0  0  0  0
  -25.7904  -13.7713   21.7320 C   0  0  0  0  0  0  0  0  0  0  0  0
  -24.5157  -13.2376   21.9216 C   0  0  0  0  0  0  0  0  0  0  0  0
  -26.9790  -27.3837   20.3828 C   0  0  0  0  0  0  0  0  0  0  0  0
  -32.9853  -28.3488   23.6556 C   0  0  0  0  0  0  0  0  0  0  0  0
  -31.9737  -27.5740   21.6030 C   0  0  0  0  0  0  0  0  0  0  0  0
  -24.5237  -12.4121   19.6510 C   0  0  0  0  0  0  0  0  0  0  0  0
  -28.1622  -18.2533   20.7845 C   0  0  0  0  0  0  0  0  0  0  0  0
  -27.8051  -20.4777   21.9814 C   0  0  0  0  0  0  0  0  0  0  0  0
  -18.1582  -27.5315   23.4791 C   0  0  0  0  0  0  0  0  0  0  0  0
  -24.9304  -28.4929   19.7253 C   0  0  0  0  0  0  0  0  0  0  0  0
  -19.3376  -28.2476   23.1988 C   0  0  0  0  0  0  0  0  0  0  0  0
  -25.6096  -27.3197   20.0833 C   0  0  0  0  0  0  0  0  0  0  0  0
  -32.5458  -27.3017   22.8456 C   0  0  0  0  0  0  0  0  0  0  0  0
  -32.8526  -29.6682   23.2229 C   0  0  0  0  0  0  0  0  0  0  0  0
  -31.8410  -28.8934   21.1703 C   0  0  0  0  0  0  0  0  0  0  0  0
  -32.2805  -29.9405   21.9803 C   0  0  0  0  0  0  0  0  0  0  0  0
  -27.8497  -15.4992   20.4690 C   0  0  0  0  0  0  0  0  0  0  0  0
  -27.6660  -28.5956   20.3147 C   0  0  0  0  0  0  0  0  0  0  0  0
  -26.4317  -13.6255   20.5018 C   0  0  0  0  0  0  0  0  0  0  0  0
  -23.8824  -12.5579   20.8811 C   0  0  0  0  0  0  0  0  0  0  0  0
  -25.7983  -12.9459   19.4614 C   0  0  0  0  0  0  0  0  0  0  0  0
  -28.3244  -19.6757   20.9474 C   0  0  0  0  0  0  0  0  0  0  0  0
  -28.2380  -21.7464   21.6823 C   0  0  0  0  0  0  0  0  0  0  0  0
  -27.0032  -20.1087   23.1112 C   0  0  0  0  0  0  0  0  0  0  0  0
  -22.4915  -27.4219   21.4597 C   0  0  0  0  0  0  0  0  0  0  0  0
  -22.7585  -24.8322   19.5246 C   0  0  0  0  0  0  0  0  0  0  0  0
  -24.6535  -22.3716   17.6884 C   0  0  0  0  0  0  0  0  0  0  0  0
  -32.8170  -24.4959   19.4490 C   0  0  0  0  0  0  0  0  0  0  0  0
  -18.1866  -26.0689   23.8462 C   0  0  0  0  0  0  0  0  0  0  0  0
  -23.4682  -28.4499   19.3752 C   0  0  0  0  0  0  0  0  0  0  0  0
  -24.9072  -25.9898   20.1638 C   0  0  0  0  0  0  0  0  0  0  0  0
  -19.4881  -25.3697   23.4623 C   0  0  0  0  0  0  0  0  0  0  0  0
  -29.8235  -24.0110   17.5835 C   0  0  0  0  0  0  0  0  0  0  0  0
  -20.6897  -26.2104   23.8821 C   0  0  0  0  0  0  0  0  0  0  0  0
  -29.0835  -22.9182   18.3569 C   0  0  0  0  0  0  0  0  0  0  0  0
  -31.3340  -23.7869   17.5958 C   0  0  0  0  0  0  0  0  0  0  0  0
  -31.1848  -22.5302   19.7106 C   0  0  0  0  0  0  0  0  0  0  0  0
  -20.6894  -27.5680   23.1691 C   0  0  1  0  0  0  0  0  0  0  0  0
  -22.7421  -27.2561   19.9875 C   0  0  1  0  0  0  0  0  0  0  0  0
  -29.6627  -22.7437   19.7737 C   0  0  2  0  0  0  0  0  0  0  0  0
  -33.3322  -30.7713   24.1088 C   0  0  0  0  0  0  0  0  0  0  0  0
  -32.1387  -31.3553   21.5165 C   0  0  0  0  0  0  0  0  0  0  0  0
  -23.8896  -20.5091   16.1901 C   0  0  0  0  0  0  0  0  0  0  0  0
  -22.9309  -23.1222   22.0458 C   0  0  0  0  0  0  0  0  0  0  0  0
  -23.8164  -21.2538   20.6340 C   0  0  0  0  0  0  0  0  0  0  0  0
  -21.5255  -22.1500   20.2199 C   0  0  0  0  0  0  0  0  0  0  0  0
  -26.3199  -23.3393   15.4422 C   0  0  0  0  0  0  0  0  0  0  0  0
  -32.6871  -25.8911   23.3085 C   0  0  0  0  0  0  0  0  0  0  0  0
  -31.2186  -29.1611   19.8215 C   0  0  0  0  0  0  0  0  0  0  0  0
  -34.0148  -25.2179   22.9078 C   0  0  0  0  0  0  0  0  0  0  0  0
  -34.2278  -25.0962   21.4005 C   0  0  0  0  0  0  0  0  0  0  0  0
  -29.7725  -29.6315   19.9333 C   0  0  0  0  0  0  0  0  0  1  0  0
  -23.5358  -23.5389   19.5706 C   0  0  1  0  0  0  0  0  0  0  0  0
  -24.4228  -21.9319   16.2539 C   0  0  2  0  0  0  0  0  0  0  0  0
  -22.9652  -22.5415   20.6180 C   0  0  0  0  0  0  0  0  0  0  0  0
  -29.0328  -20.3762   20.0578 N   0  0  0  0  0  0  0  0  0  0  0  0
  -28.9618  -21.6317   20.5319 N   0  0  0  0  0  0  0  0  0  0  0  0
  -23.4761  -26.0004   19.8182 N   0  0  0  0  0  0  0  0  0  0  0  0
  -31.8200  -23.6307   18.9689 N   0  0  0  0  0  0  0  0  0  0  0  0
  -28.0663  -22.9377   22.2936 N   0  0  0  0  0  0  0  0  0  0  0  0
  -26.6483  -18.7619   23.2674 N   0  0  0  0  0  0  0  0  0  0  0  0
  -21.1537  -27.4231   21.8061 N   0  0  0  0  0  0  0  0  0  0  0  0
  -23.5550  -23.0255   18.2052 N   0  0  0  0  0  0  0  0  0  0  0  0
  -33.2161  -24.2834   20.7629 N   0  0  0  0  0  0  0  0  0  0  0  0
  -25.6966  -21.9914   15.4827 N   0  3  0  0  0  0  0  0  0  0  0  0
  -26.5992  -20.9511   23.9483 O   0  0  0  0  0  0  0  0  0  0  0  0
  -23.4415  -27.5386   22.2249 O   0  0  0  0  0  0  0  0  0  0  0  0
  -21.5604  -24.8077   19.2319 O   0  0  0  0  0  0  0  0  0  0  0  0
  -25.7019  -22.1533   18.2916 O   0  0  0  0  0  0  0  0  0  0  0  0
  -33.3107  -25.3948   18.7597 O   0  0  0  0  0  0  0  0  0  0  0  0
  -27.6975  -14.1554   20.3154 O   0  0  0  0  0  0  0  0  0  0  0  0
  -28.9944  -28.6426   20.6063 O   0  0  0  0  0  0  0  0  0  1  0  0
  -22.6590  -12.0441   21.0638 F   0  0  0  0  0  0  0  0  0  0  0  0
  -26.4099  -12.8016   18.2777 F   0  0  0  0  0  0  0  0  0  0  0  0
  1  2  1  0  0  0  0
  1  5  2  0  0  0  0
  2  6  2  0  0  0  0
  3  8  2  0  0  0  0
  3 17  1  0  0  0  0
  4  9  1  0  0  0  0
  4 17  2  0  0  0  0
  5 19  1  0  0  0  0
  6 21  1  0  0  0  0
  7 10  2  0  0  0  0
  7 20  1  0  0  0  0
  8 27  1  0  0  0  0
  9 27  2  0  0  0  0
 10 28  1  0  0  0  0
 11 12  2  0  0  0  0
 11 29  1  0  0  0  0
 12 30  1  0  0  0  0
 13 22  1  0  0  0  0
 13 28  2  0  0  0  0
 14 23  1  0  0  0  0
 14 24  2  0  0  0  0
 15 23  2  0  0  0  0
 15 25  1  0  0  0  0
 16 30  2  0  0  0  0
 16 31  1  0  0  0  0
 17 32  1  0  0  0  0
 18 32  1  0  0  0  0
 18 33  2  0  0  0  0
 18 34  1  0  0  0  0
 19 21  2  0  0  0  0
 19 39  1  0  0  0  0
 20 22  2  0  0  0  0
 20 40  1  0  0  0  0
 21 48  1  0  0  0  0
 22 41  1  0  0  0  0
 23 58  1  0  0  0  0
 24 26  1  0  0  0  0
 24 51  1  0  0  0  0
 25 26  2  0  0  0  0
 25 59  1  0  0  0  0
 26 52  1  0  0  0  0
 27 81  1  0  0  0  0
 28 82  1  0  0  0  0
 29 31  2  0  0  0  0
 29 81  1  0  0  0  0
 30 83  1  0  0  0  0
 31 84  1  0  0  0  0
 32 66  2  0  0  0  0
 33 67  1  0  0  0  0
 33 70  1  0  0  0  0
 34 71  1  0  0  0  0
 34 76  2  0  0  0  0
 35 49  1  0  0  0  0
 35 72  1  0  0  0  0
 35 77  2  0  0  0  0
 36 63  1  0  0  0  0
 36 68  1  0  0  0  0
 36 78  2  0  0  0  0
 37 64  1  0  0  0  0
 37 73  1  0  0  0  0
 37 79  2  0  0  0  0
 38 69  1  0  0  0  0
 38 74  1  0  0  0  0
 38 80  2  0  0  0  0
 39 42  1  0  0  0  0
 40 49  1  0  0  0  0
 41 68  1  0  0  0  0
 42 44  1  0  0  0  0
 43 45  1  0  0  0  0
 43 46  1  0  0  0  0
 44 48  1  0  0  0  0
 45 50  1  0  0  0  0
 46 69  1  0  0  0  0
 47 50  1  0  0  0  0
 47 69  1  0  0  0  0
 48 72  1  0  0  0  0
 49 68  1  0  0  0  0
 50 67  1  0  0  0  0
 53 64  1  0  0  0  0
 54 65  1  0  0  0  0
 55 65  1  0  0  0  0
 56 65  1  0  0  0  0
 57 75  1  0  0  0  0
 58 60  1  0  0  0  0
 59 62  1  0  0  0  0
 60 61  1  0  0  0  0
 61 74  1  0  0  0  0
 62 82  1  0  0  0  0
 63 65  1  0  0  0  0
 63 73  1  0  0  0  0
 64 75  1  0  0  0  0
 66 67  1  0  0  0  0
M  CHG  1  75   1
M  ISO  4  38 100  62 101  74 100  82 101
M  END
> <Batch ID>
0035

> <Smiles>
CNC(C)C(=O)NC(C(=O)N1Cc2cc([101O:1][101CH2:1]Cc3cc(CCC[100NH:0][100C:0](=O)N4CCCC(n5nc(-c6ccc(Oc7ccc(F)cc7F)cc6)c(C(N)=O)c5N)C4)cc(C)c3C)ccc2CC1C(=O)NC1CCCc2ccccc21)C(C)(C)C

> <Shape>
0.219

> <Color>
0.071

> <Negative vol penalty>
0.000

$$$$

  -OEChem-04052316533D

 82 90  0     1  0  0  0  0  0999 V2000
  -25.9197  -13.3675   25.8738 C   0  0  0  0  0  0  0  0  0  0  0  0
  -26.7504  -12.9572   24.8360 C   0  0  0  0  0  0  0  0  0  0  0  0
  -23.1618   -9.8526   19.9153 C   0  0  0  0  0  0  0  0  0  0  0  0
  -23.8315   -9.9041   22.2360 C   0  0  0  0  0  0  0  0  0  0  0  0
  -26.3398  -14.3705   26.7464 C   0  0  0  0  0  0  0  0  0  0  0  0
  -28.0013  -13.5504   24.6696 C   0  0  0  0  0  0  0  0  0  0  0  0
  -34.6524  -12.0346   22.4829 C   0  0  0  0  0  0  0  0  0  0  0  0
  -35.5742  -17.2702   17.9181 C   0  0  0  0  0  0  0  0  0  0  0  0
  -34.2308  -17.5400   17.6577 C   0  0  0  0  0  0  0  0  0  0  0  0
  -22.4340   -8.6863   20.1512 C   0  0  0  0  0  0  0  0  0  0  0  0
  -23.1037   -8.7378   22.4720 C   0  0  0  0  0  0  0  0  0  0  0  0
  -35.6293  -12.4995   21.6034 C   0  0  0  0  0  0  0  0  0  0  0  0
  -19.4495   -7.8419   21.4976 C   0  0  0  0  0  0  0  0  0  0  0  0
  -18.1639   -7.7608   20.9628 C   0  0  0  0  0  0  0  0  0  0  0  0
  -36.2819  -14.1672   23.2196 C   0  0  0  0  0  0  0  0  0  0  0  0
  -34.9772  -16.3920   20.0882 C   0  0  0  0  0  0  0  0  0  0  0  0
  -18.8167   -5.8148   19.6884 C   0  0  0  0  0  0  0  0  0  0  0  0
  -23.8606  -10.4615   20.9577 C   0  0  0  0  0  0  0  0  0  0  0  0
  -24.1519  -12.9920   20.8184 C   0  0  0  0  0  0  0  0  0  0  0  0
  -27.6004  -14.9695   26.5965 C   0  0  0  0  0  0  0  0  0  0  0  0
  -34.4754  -12.6406   23.7350 C   0  0  0  0  0  0  0  0  0  0  0  0
  -28.4381  -14.5632   25.5403 C   0  0  0  0  0  0  0  0  0  0  0  0
  -35.3039  -13.7065   24.1141 C   0  0  0  0  0  0  0  0  0  0  0  0
  -35.9475  -16.6962   19.1334 C   0  0  0  0  0  0  0  0  0  0  0  0
  -33.2605  -17.2359   18.6125 C   0  0  0  0  0  0  0  0  0  0  0  0
  -33.6337  -16.6618   19.8278 C   0  0  0  0  0  0  0  0  0  0  0  0
  -22.4049   -8.1289   21.4295 C   0  0  0  0  0  0  0  0  0  0  0  0
  -36.4423  -13.5678   21.9706 C   0  0  0  0  0  0  0  0  0  0  0  0
  -20.4189   -6.9096   21.1277 C   0  0  0  0  0  0  0  0  0  0  0  0
  -17.8474   -6.7473   20.0582 C   0  0  0  0  0  0  0  0  0  0  0  0
  -20.1025   -5.8960   20.2231 C   0  0  0  0  0  0  0  0  0  0  0  0
  -24.6131  -11.6660   20.7145 C   0  0  0  0  0  0  0  0  0  0  0  0
  -25.2408  -13.7611   20.4879 C   0  0  0  0  0  0  0  0  0  0  0  0
  -22.8552  -13.4845   21.1811 C   0  0  0  0  0  0  0  0  0  0  0  0
  -32.0946  -14.1913   25.1601 C   0  0  0  0  0  0  0  0  0  0  0  0
  -34.0872  -14.1036   27.7183 C   0  0  0  0  0  0  0  0  0  0  0  0
  -37.2805  -13.8547   28.8962 C   0  0  0  0  0  0  0  0  0  0  0  0
  -30.5626  -14.9348   20.9857 C   0  0  0  0  0  0  0  0  0  0  0  0
  -27.9915  -16.0827   27.5359 C   0  0  0  0  0  0  0  0  0  0  0  0
  -33.4350  -12.1101   24.6829 C   0  0  0  0  0  0  0  0  0  0  0  0
  -35.1678  -14.3785   25.4551 C   0  0  0  0  0  0  0  0  0  0  0  0
  -29.4849  -16.3987   27.5177 C   0  0  0  0  0  0  0  0  0  0  0  0
  -29.7011  -12.4679   18.4819 C   0  0  0  0  0  0  0  0  0  0  0  0
  -29.9924  -16.4961   26.0825 C   0  0  0  0  0  0  0  0  0  0  0  0
  -28.2519  -12.1497   18.8544 C   0  0  0  0  0  0  0  0  0  0  0  0
  -30.5541  -12.6975   19.7260 C   0  0  0  0  0  0  0  0  0  0  0  0
  -28.5882  -13.4371   21.0153 C   0  0  0  0  0  0  0  0  0  0  0  0
  -29.8123  -15.1653   25.3422 C   0  0  1  0  0  0  0  0  0  0  0  0
  -32.9998  -13.1341   25.7265 C   0  0  1  0  0  0  0  0  0  0  0  0
  -27.6692  -13.2167   19.7999 C   0  0  2  0  0  0  0  0  0  0  0  0
  -31.8285  -17.5349   18.3116 C   0  0  0  0  0  0  0  0  0  0  0  0
  -38.5978  -13.8526   31.0322 C   0  0  0  0  0  0  0  0  0  0  0  0
  -33.7523  -17.1293   27.9249 C   0  0  0  0  0  0  0  0  0  0  0  0
  -35.7689  -17.1813   29.4077 C   0  0  0  0  0  0  0  0  0  0  0  0
  -33.7335  -15.9256   30.1169 C   0  0  0  0  0  0  0  0  0  0  0  0
  -38.2979  -11.1198   28.4020 C   0  0  0  0  0  0  0  0  0  0  0  0
  -37.3999  -16.4051   19.4149 C   0  0  0  0  0  0  0  0  0  0  0  0
  -32.6124  -16.3279   20.8653 C   0  0  0  0  0  0  0  0  0  0  0  0
  -37.8453  -15.0094   18.9729 C   0  0  0  0  0  0  0  0  0  0  0  0
  -37.1353  -13.8849   19.7177 C   0  0  0  0  0  0  0  0  0  1  0  0
  -35.1751  -15.0007   28.2573 C   0  0  1  0  0  0  0  0  0  0  0  0
  -37.8851  -12.9990   29.9947 C   0  0  2  0  0  0  0  0  0  0  0  0
  -34.6090  -16.2981   28.9006 C   0  0  0  0  0  0  0  0  0  0  0  0
  -25.8951  -11.5932   20.3467 N   0  0  0  0  0  0  0  0  0  0  0  0
  -26.2487  -12.8832   20.2165 N   0  0  0  0  0  0  0  0  0  0  0  0
  -34.1319  -13.8276   26.3444 N   0  0  0  0  0  0  0  0  0  0  0  0
  -29.9544  -13.7374   20.5740 N   0  0  0  0  0  0  0  0  0  0  0  0
  -25.4249  -15.0960   20.4059 N   0  0  0  0  0  0  0  0  0  0  0  0
  -21.8509  -12.5572   21.4908 N   0  0  0  0  0  0  0  0  0  0  0  0
  -30.8391  -14.2247   25.7363 N   0  0  0  0  0  0  0  0  0  0  0  0
  -35.9681  -14.1800   29.1662 N   0  0  0  0  0  0  0  0  0  0  0  0
  -31.8592  -15.1399   20.5302 N   0  0  0  0  0  0  0  0  0  0  0  0
  -38.8690  -12.0381   29.4206 N   0  3  0  0  0  0  0  0  0  0  0  0
  -22.5902  -14.7101   21.2134 O   0  0  0  0  0  0  0  0  0  0  0  0
  -32.5054  -14.9235   24.2675 O   0  0  0  0  0  0  0  0  0  0  0  0
  -33.2335  -13.6581   28.4893 O   0  0  0  0  0  0  0  0  0  0  0  0
  -37.9107  -14.2029   27.9002 O   0  0  0  0  0  0  0  0  0  0  0  0
  -29.9904  -15.7632   21.7023 O   0  0  0  0  0  0  0  0  0  0  0  0
  -21.6947   -6.9910   21.6601 O   0  0  0  0  0  0  0  0  0  0  0  0
  -37.3961  -14.0240   21.1138 O   0  0  0  0  0  0  0  0  0  1  0  0
  -16.6123   -6.6686   19.5460 F   0  0  0  0  0  0  0  0  0  0  0  0
  -21.0291   -4.9967   19.8649 F   0  0  0  0  0  0  0  0  0  0  0  0
  1  2  1  0  0  0  0
  1  5  2  0  0  0  0
  2  6  2  0  0  0  0
  3 10  2  0  0  0  0
  3 18  1  0  0  0  0
  4 11  1  0  0  0  0
  4 18  2  0  0  0  0
  5 20  1  0  0  0  0
  6 22  1  0  0  0  0
  7 12  2  0  0  0  0
  7 21  1  0  0  0  0
  8  9  2  0  0  0  0
  8 24  1  0  0  0  0
  9 25  1  0  0  0  0
 10 27  1  0  0  0  0
 11 27  2  0  0  0  0
 12 28  1  0  0  0  0
 13 14  2  0  0  0  0
 13 29  1  0  0  0  0
 14 30  1  0  0  0  0
 15 23  1  0  0  0  0
 15 28  2  0  0  0  0
 16 24  2  0  0  0  0
 16 26  1  0  0  0  0
 17 30  2  0  0  0  0
 17 31  1  0  0  0  0
 18 32  1  0  0  0  0
 19 32  1  0  0  0  0
 19 33  2  0  0  0  0
 19 34  1  0  0  0  0
 20 22  2  0  0  0  0
 20 39  1  0  0  0  0
 21 23  2  0  0  0  0
 21 40  1  0  0  0  0
 22 48  1  0  0  0  0
 23 41  1  0  0  0  0
 24 57  1  0  0  0  0
 25 26  2  0  0  0  0
 25 51  1  0  0  0  0
 26 58  1  0  0  0  0
 27 79  1  0  0  0  0
 28 80  1  0  0  0  0
 29 31  2  0  0  0  0
 29 79  1  0  0  0  0
 30 81  1  0  0  0  0
 31 82  1  0  0  0  0
 32 64  2  0  0  0  0
 33 65  1  0  0  0  0
 33 68  1  0  0  0  0
 34 69  1  0  0  0  0
 34 74  2  0  0  0  0
 35 49  1  0  0  0  0
 35 70  1  0  0  0  0
 35 75  2  0  0  0  0
 36 61  1  0  0  0  0
 36 66  1  0  0  0  0
 36 76  2  0  0  0  0
 37 62  1  0  0  0  0
 37 71  1  0  0  0  0
 37 77  2  0  0  0  0
 38 67  1  0  0  0  0
 38 72  1  0  0  0  0
 38 78  2  0  0  0  0
 39 42  1  0  0  0  0
 40 49  1  0  0  0  0
 41 66  1  0  0  0  0
 42 44  1  0  0  0  0
 43 45  1  0  0  0  0
 43 46  1  0  0  0  0
 44 48  1  0  0  0  0
 45 50  1  0  0  0  0
 46 67  1  0  0  0  0
 47 50  1  0  0  0  0
 47 67  1  0  0  0  0
 48 70  1  0  0  0  0
 49 66  1  0  0  0  0
 50 65  1  0  0  0  0
 52 62  1  0  0  0  0
 53 63  1  0  0  0  0
 54 63  1  0  0  0  0
 55 63  1  0  0  0  0
 56 73  1  0  0  0  0
 57 59  1  0  0  0  0
 58 72  1  0  0  0  0
 59 60  1  0  0  0  0
 60 80  1  0  0  0  0
 61 63  1  0  0  0  0
 61 71  1  0  0  0  0
 62 73  1  0  0  0  0
 64 65  1  0  0  0  0
M  CHG  1  73   1
M  ISO  4  38 100  60 101  72 100  80 101
M  END
> <Batch ID>
0035

> <Smiles>
CNC(C)C(=O)NC(C(=O)N1Cc2cc([101O:1][101CH2:1]CCc3ccc(C)c(C[100NH:0][100C:0](=O)N4CCCC(n5nc(-c6ccc(Oc7ccc(F)cc7F)cc6)c(C(N)=O)c5N)C4)c3)ccc2CC1C(=O)NC1CCCc2ccccc21)C(C)(C)C

> <Shape>
0.136

> <Color>
0.178

> <Negative vol penalty>
0.000

$$$$

  -OEChem-04052316533D

 88 96  0     1  0  0  0  0  0999 V2000
  -17.1399  -29.7731   24.6407 C   0  0  0  0  0  0  0  0  0  0  0  0
  -17.7935  -28.5452   24.6632 C   0  0  0  0  0  0  0  0  0  0  0  0
  -27.7779  -17.8191   18.7866 C   0  0  0  0  0  0  0  0  0  0  0  0
  -29.4545  -17.0961   20.3687 C   0  0  0  0  0  0  0  0  0  0  0  0
  -26.2124  -19.0632   25.4682 C   0  0  0  0  0  0  0  0  0  0  0  0
  -17.3799  -30.6703   23.6008 C   0  0  0  0  0  0  0  0  0  0  0  0
  -18.6867  -28.2133   23.6451 C   0  0  0  0  0  0  0  0  0  0  0  0
  -23.8174  -24.9125   24.1801 C   0  0  0  0  0  0  0  0  0  0  0  0
  -26.6305  -18.1296   26.4165 C   0  0  0  0  0  0  0  0  0  0  0  0
  -28.1116  -19.1494   19.0408 C   0  0  0  0  0  0  0  0  0  0  0  0
  -29.7884  -18.4264   20.6229 C   0  0  0  0  0  0  0  0  0  0  0  0
  -24.1009  -23.5715   23.9249 C   0  0  0  0  0  0  0  0  0  0  0  0
  -30.5412  -21.3231   18.1435 C   0  0  0  0  0  0  0  0  0  0  0  0
  -30.6854  -22.1757   17.0491 C   0  0  0  0  0  0  0  0  0  0  0  0
  -27.5104  -17.9267   23.7769 C   0  0  0  0  0  0  0  0  0  0  0  0
  -24.9291  -24.1686   21.7394 C   0  0  0  0  0  0  0  0  0  0  0  0
  -28.9160  -23.5784   17.9088 C   0  0  0  0  0  0  0  0  0  0  0  0
  -28.4493  -16.7925   19.4506 C   0  0  0  0  0  0  0  0  0  0  0  0
  -26.6523  -18.9617   24.1484 C   0  0  0  0  0  0  0  0  0  0  0  0
  -28.6629  -14.5730   18.2113 C   0  0  0  0  0  0  0  0  0  0  0  0
  -18.2838  -30.3533   22.5746 C   0  0  0  0  0  0  0  0  0  0  0  0
  -24.0780  -25.8919   23.2110 C   0  0  0  0  0  0  0  0  0  0  0  0
  -18.9380  -29.1066   22.5898 C   0  0  0  0  0  0  0  0  0  0  0  0
  -24.6504  -25.5217   21.9857 C   0  0  0  0  0  0  0  0  0  0  0  0
  -27.4887  -17.0946   26.0450 C   0  0  0  0  0  0  0  0  0  0  0  0
  -27.9286  -16.9931   24.7252 C   0  0  0  0  0  0  0  0  0  0  0  0
  -29.1169  -19.4530   19.9589 C   0  0  0  0  0  0  0  0  0  0  0  0
  -24.6541  -23.1990   22.7034 C   0  0  0  0  0  0  0  0  0  0  0  0
  -29.5844  -21.5980   19.1206 C   0  0  0  0  0  0  0  0  0  0  0  0
  -29.8728  -23.3034   16.9317 C   0  0  0  0  0  0  0  0  0  0  0  0
  -28.7718  -22.7257   19.0032 C   0  0  0  0  0  0  0  0  0  0  0  0
  -28.1045  -15.4181   19.1889 C   0  0  0  0  0  0  0  0  0  0  0  0
  -28.0004  -13.3803   18.3696 C   0  0  0  0  0  0  0  0  0  0  0  0
  -26.2042  -19.9593   23.1345 C   0  0  0  0  0  0  0  0  0  0  0  0
  -29.6887  -14.8420   17.2464 C   0  0  0  0  0  0  0  0  0  0  0  0
  -22.3006  -27.9586   21.5759 C   0  0  0  0  0  0  0  0  0  0  0  0
  -25.1846  -29.0220   20.5396 C   0  0  0  0  0  0  0  0  0  0  0  0
  -28.4844  -28.3596   19.9745 C   0  0  0  0  0  0  0  0  0  0  0  0
  -25.1925  -10.8617   23.0196 C   0  0  0  0  0  0  0  0  0  0  0  0
  -18.4750  -31.3358   21.4464 C   0  0  0  0  0  0  0  0  0  0  0  0
  -23.7913  -27.3375   23.5119 C   0  0  0  0  0  0  0  0  0  0  0  0
  -24.9681  -26.5372   20.9197 C   0  0  0  0  0  0  0  0  0  0  0  0
  -19.7189  -31.0624   20.6049 C   0  0  0  0  0  0  0  0  0  0  0  0
  -23.8079  -11.5897   19.8213 C   0  0  0  0  0  0  0  0  0  0  0  0
  -19.8105  -29.5809   20.2532 C   0  0  0  0  0  0  0  0  0  0  0  0
  -24.8024  -12.5772   19.2083 C   0  0  0  0  0  0  0  0  0  0  0  0
  -23.6520  -11.8058   21.3249 C   0  0  0  0  0  0  0  0  0  0  0  0
  -25.9097  -12.7829   21.4734 C   0  0  0  0  0  0  0  0  0  0  0  0
  -19.9327  -28.7205   21.5167 C   0  0  1  0  0  0  0  0  0  0  0  0
  -23.6208  -28.1868   22.2561 C   0  0  1  0  0  0  0  0  0  0  0  0
  -26.1425  -12.5677   19.9681 C   0  0  2  0  0  0  0  0  0  0  0  0
  -28.8462  -15.8923   24.3040 C   0  0  0  0  0  0  0  0  0  0  0  0
  -30.5812  -29.4138   19.0859 C   0  0  0  0  0  0  0  0  0  0  0  0
  -24.1485  -28.6755   17.6907 C   0  0  0  0  0  0  0  0  0  0  0  0
  -26.5157  -28.8141   16.8873 C   0  0  0  0  0  0  0  0  0  0  0  0
  -25.4857  -30.7547   18.0688 C   0  0  0  0  0  0  0  0  0  0  0  0
  -29.8794  -28.0444   22.5656 C   0  0  0  0  0  0  0  0  0  0  0  0
  -27.9222  -16.1063   27.0774 C   0  0  0  0  0  0  0  0  0  0  0  0
  -25.2706  -21.0717   23.5697 C   0  0  0  0  0  0  0  0  0  1  0  0
  -27.2695  -11.9208   26.2850 C   0  0  0  0  0  0  0  0  0  0  0  0
  -26.5554  -10.5885   26.0387 C   0  0  0  0  0  0  0  0  0  0  0  0
  -26.9627  -12.4650   27.6815 C   0  0  0  0  0  0  0  0  0  0  0  0
  -26.8527  -10.0130   24.6575 C   0  0  0  0  0  0  0  0  0  0  0  0
  -27.7026  -13.7703   27.9338 C   0  0  0  0  0  0  0  0  0  0  0  0
  -26.0967  -28.6844   19.3850 C   0  0  1  0  0  0  0  0  0  0  0  0
  -29.7416  -29.1357   20.3231 C   0  0  2  0  0  0  0  0  0  0  0  0
  -25.5540  -29.2126   18.0271 C   0  0  0  0  0  0  0  0  0  0  0  0
  -27.1600  -14.8137   19.9145 N   0  0  0  0  0  0  0  0  0  0  0  0
  -27.1196  -13.5760   19.3923 N   0  0  0  0  0  0  0  0  0  0  0  0
  -24.6636  -27.9371   21.2590 N   0  0  0  0  0  0  0  0  0  0  0  0
  -24.9589  -11.7841   21.9864 N   0  0  0  0  0  0  0  0  0  0  0  0
  -28.0911  -12.1937   17.7322 N   0  0  0  0  0  0  0  0  0  0  0  0
  -30.2631  -16.1201   17.2206 N   0  0  0  0  0  0  0  0  0  0  0  0
  -21.2829  -28.7728   22.0351 N   0  0  0  0  0  0  0  0  0  0  0  0
  -27.4146  -29.1979   19.7422 N   0  0  0  0  0  0  0  0  0  0  0  0
  -26.4595  -10.9036   23.5884 N   0  0  0  0  0  0  0  0  0  0  0  0
  -30.5730  -28.3670   21.2921 N   0  3  0  0  0  0  0  0  0  0  0  0
  -27.2446  -14.7874   26.9514 N   0  3  0  0  0  0  0  0  0  0  0  0
  -26.5970  -19.8634   21.9741 O   0  0  0  0  0  0  0  0  0  0  0  0
  -30.0727  -13.9796   16.4204 O   0  0  0  0  0  0  0  0  0  0  0  0
  -22.2121  -27.1078   20.6984 O   0  0  0  0  0  0  0  0  0  0  0  0
  -24.9490  -30.2048   20.7983 O   0  0  0  0  0  0  0  0  0  0  0  0
  -28.4552  -27.1326   19.9108 O   0  0  0  0  0  0  0  0  0  0  0  0
  -24.3370  -10.0565   23.4030 O   0  0  0  0  0  0  0  0  0  0  0  0
  -29.4430  -20.7510   20.2069 O   0  0  0  0  0  0  0  0  0  0  0  0
  -24.9312  -21.8907   22.4515 O   0  0  0  0  0  0  0  0  0  1  0  0
  -30.0124  -24.1229   15.8815 F   0  0  0  0  0  0  0  0  0  0  0  0
  -27.8517  -22.9957   19.9393 F   0  0  0  0  0  0  0  0  0  0  0  0
  1  2  1  0  0  0  0
  1  6  2  0  0  0  0
  2  7  2  0  0  0  0
  3 10  2  0  0  0  0
  3 18  1  0  0  0  0
  4 11  1  0  0  0  0
  4 18  2  0  0  0  0
  5  9  2  0  0  0  0
  5 19  1  0  0  0  0
  6 21  1  0  0  0  0
  7 23  1  0  0  0  0
  8 12  2  0  0  0  0
  8 22  1  0  0  0  0
  9 25  1  0  0  0  0
 10 27  1  0  0  0  0
 11 27  2  0  0  0  0
 12 28  1  0  0  0  0
 13 14  2  0  0  0  0
 13 29  1  0  0  0  0
 14 30  1  0  0  0  0
 15 19  2  0  0  0  0
 15 26  1  0  0  0  0
 16 24  1  0  0  0  0
 16 28  2  0  0  0  0
 17 30  2  0  0  0  0
 17 31  1  0  0  0  0
 18 32  1  0  0  0  0
 19 34  1  0  0  0  0
 20 32  1  0  0  0  0
 20 33  2  0  0  0  0
 20 35  1  0  0  0  0
 21 23  2  0  0  0  0
 21 40  1  0  0  0  0
 22 24  2  0  0  0  0
 22 41  1  0  0  0  0
 23 49  1  0  0  0  0
 24 42  1  0  0  0  0
 25 26  2  0  0  0  0
 25 58  1  0  0  0  0
 26 52  1  0  0  0  0
 27 85  1  0  0  0  0
 28 86  1  0  0  0  0
 29 31  2  0  0  0  0
 29 85  1  0  0  0  0
 30 87  1  0  0  0  0
 31 88  1  0  0  0  0
 32 68  2  0  0  0  0
 33 69  1  0  0  0  0
 33 72  1  0  0  0  0
 34 59  1  0  0  0  0
 34 79  2  0  0  0  0
 35 73  1  0  0  0  0
 35 80  2  0  0  0  0
 36 50  1  0  0  0  0
 36 74  1  0  0  0  0
 36 81  2  0  0  0  0
 37 65  1  0  0  0  0
 37 70  1  0  0  0  0
 37 82  2  0  0  0  0
 38 66  1  0  0  0  0
 38 75  1  0  0  0  0
 38 83  2  0  0  0  0
 39 71  1  0  0  0  0
 39 76  1  0  0  0  0
 39 84  2  0  0  0  0
 40 43  1  0  0  0  0
 41 50  1  0  0  0  0
 42 70  1  0  0  0  0
 43 45  1  0  0  0  0
 44 46  1  0  0  0  0
 44 47  1  0  0  0  0
 45 49  1  0  0  0  0
 46 51  1  0  0  0  0
 47 71  1  0  0  0  0
 48 51  1  0  0  0  0
 48 71  1  0  0  0  0
 49 74  1  0  0  0  0
 50 70  1  0  0  0  0
 51 69  1  0  0  0  0
 53 66  1  0  0  0  0
 54 67  1  0  0  0  0
 55 67  1  0  0  0  0
 56 67  1  0  0  0  0
 57 77  1  0  0  0  0
 58 78  1  0  0  0  0
 59 86  1  0  0  0  0
 60 61  1  0  0  0  0
 60 62  1  0  0  0  0
 61 63  1  0  0  0  0
 62 64  1  0  0  0  0
 63 76  1  0  0  0  0
 64 78  1  0  0  0  0
 65 67  1  0  0  0  0
 65 75  1  0  0  0  0
 66 77  1  0  0  0  0
 68 69  1  0  0  0  0
M  CHG  2  77   1  78   1
M  ISO  4  39 100  59 101  76 100  86 101
M  END
> <Batch ID>
0035

> <Smiles>
CNC(C)C(=O)NC(C(=O)N1Cc2cc([101O:1][101CH2:1]C(=O)c3ccc(CNCCCCC[100NH:0][100C:0](=O)N4CCCC(n5nc(-c6ccc(Oc7ccc(F)cc7F)cc6)c(C(N)=O)c5N)C4)c(C)c3)ccc2CC1C(=O)NC1CCCc2ccccc21)C(C)(C)C

> <Shape>
0.210

> <Color>
0.075

> <Negative vol penalty>
0.000

$$$$

  -OEChem-04052316533D

 83 91  0     1  0  0  0  0  0999 V2000
  -23.3069  -23.6815   18.0462 C   0  0  0  0  0  0  0  0  0  0  0  0
  -24.4184  -22.9857   18.5109 C   0  0  0  0  0  0  0  0  0  0  0  0
  -21.1274  -28.0729   19.6932 C   0  0  0  0  0  0  0  0  0  0  0  0
  -21.6524  -26.5450   21.4896 C   0  0  0  0  0  0  0  0  0  0  0  0
  -22.0260  -23.2748   18.4175 C   0  0  0  0  0  0  0  0  0  0  0  0
  -24.2496  -21.8834   19.3481 C   0  0  0  0  0  0  0  0  0  0  0  0
  -27.1732  -17.9682   18.0182 C   0  0  0  0  0  0  0  0  0  0  0  0
  -32.3078  -22.6908   22.2893 C   0  0  0  0  0  0  0  0  0  0  0  0
  -32.1317  -24.0572   22.0711 C   0  0  0  0  0  0  0  0  0  0  0  0
  -19.8758  -27.4742   19.5497 C   0  0  0  0  0  0  0  0  0  0  0  0
  -20.4008  -25.9462   21.3461 C   0  0  0  0  0  0  0  0  0  0  0  0
  -28.5187  -18.0269   18.3787 C   0  0  0  0  0  0  0  0  0  0  0  0
  -17.2039  -24.2501   21.6939 C   0  0  0  0  0  0  0  0  0  0  0  0
  -16.4761  -23.9811   22.8530 C   0  0  0  0  0  0  0  0  0  0  0  0
  -28.0725  -16.5794   20.2563 C   0  0  0  0  0  0  0  0  0  0  0  0
  -32.9620  -22.4065   19.9810 C   0  0  0  0  0  0  0  0  0  0  0  0
  -16.4790  -26.3342   23.4007 C   0  0  0  0  0  0  0  0  0  0  0  0
  -22.0158  -27.6082   20.6631 C   0  0  0  0  0  0  0  0  0  0  0  0
  -23.6413  -29.3143   21.6403 C   0  0  0  0  0  0  0  0  0  0  0  0
  -21.8411  -22.1611   19.2518 C   0  0  0  0  0  0  0  0  0  0  0  0
  -26.2636  -17.2222   18.7816 C   0  0  0  0  0  0  0  0  0  0  0  0
  -22.9651  -21.4623   19.7320 C   0  0  0  0  0  0  0  0  0  0  0  0
  -26.7165  -16.5108   19.9018 C   0  0  0  0  0  0  0  0  0  0  0  0
  -32.7230  -21.8654   21.2442 C   0  0  0  0  0  0  0  0  0  0  0  0
  -32.3708  -24.5982   20.8079 C   0  0  0  0  0  0  0  0  0  0  0  0
  -32.7859  -23.7729   19.7628 C   0  0  0  0  0  0  0  0  0  0  0  0
  -19.5125  -26.4109   20.3762 C   0  0  0  0  0  0  0  0  0  0  0  0
  -28.9680  -17.3348   19.4995 C   0  0  0  0  0  0  0  0  0  0  0  0
  -17.5693  -25.5611   21.3882 C   0  0  0  0  0  0  0  0  0  0  0  0
  -16.1136  -25.0232   23.7064 C   0  0  0  0  0  0  0  0  0  0  0  0
  -17.2068  -26.6032   22.2416 C   0  0  0  0  0  0  0  0  0  0  0  0
  -23.3090  -28.2259   20.8114 C   0  0  0  0  0  0  0  0  0  0  0  0
  -24.9821  -29.5160   21.4211 C   0  0  0  0  0  0  0  0  0  0  0  0
  -22.8121  -30.0748   22.5289 C   0  0  0  0  0  0  0  0  0  0  0  0
  -23.6578  -17.9082   20.4676 C   0  0  0  0  0  0  0  0  0  0  0  0
  -23.4665  -14.6825   20.7523 C   0  0  0  0  0  0  0  0  0  0  0  0
  -25.0706  -11.6705   20.7143 C   0  0  0  0  0  0  0  0  0  0  0  0
  -29.7356  -26.5148   20.5213 C   0  0  0  0  0  0  0  0  0  0  0  0
  -20.4392  -21.7879   19.6642 C   0  0  0  0  0  0  0  0  0  0  0  0
  -24.8206  -17.1475   18.3640 C   0  0  0  0  0  0  0  0  0  0  0  0
  -25.7843  -15.6791   20.7431 C   0  0  0  0  0  0  0  0  0  0  0  0
  -20.3307  -20.3831   20.2516 C   0  0  0  0  0  0  0  0  0  0  0  0
  -28.1438  -28.3134   17.8141 C   0  0  0  0  0  0  0  0  0  0  0  0
  -21.4376  -20.1449   21.2738 C   0  0  0  0  0  0  0  0  0  0  0  0
  -26.7566  -28.5808   18.4008 C   0  0  0  0  0  0  0  0  0  0  0  0
  -28.6633  -26.9395   18.2272 C   0  0  0  0  0  0  0  0  0  0  0  0
  -27.3119  -26.9775   20.2878 C   0  0  0  0  0  0  0  0  0  0  0  0
  -22.8218  -20.2466   20.6217 C   0  0  1  0  0  0  0  0  0  0  0  0
  -23.8856  -16.7730   19.5099 C   0  0  1  0  0  0  0  0  0  0  0  0
  -26.7408  -28.3604   19.9250 C   0  0  2  0  0  0  0  0  0  0  0  0
  -33.0475  -24.3298   18.4019 C   0  0  0  0  0  0  0  0  0  0  0  0
  -24.6562   -9.2141   21.0168 C   0  0  0  0  0  0  0  0  0  0  0  0
  -23.3069  -15.0839   23.7728 C   0  0  0  0  0  0  0  0  0  0  0  0
  -23.8504  -12.6562   24.0540 C   0  0  0  0  0  0  0  0  0  0  0  0
  -21.7629  -13.3361   22.8696 C   0  0  0  0  0  0  0  0  0  0  0  0
  -25.9530  -11.0638   17.9553 C   0  0  0  0  0  0  0  0  0  0  0  0
  -32.9128  -20.3882   21.4802 C   0  0  0  0  0  0  0  0  0  0  0  0
  -32.1744  -26.0638   20.5980 C   0  0  0  0  0  0  0  0  0  0  0  0
  -31.6525  -19.5537   21.2263 C   0  0  0  0  0  0  0  0  0  0  0  0
  -31.8426  -18.0700   21.5447 C   0  0  0  0  0  0  0  0  0  0  0  0
  -30.5842  -17.2677   21.2429 C   0  0  0  0  0  0  0  0  0  1  0  0
  -23.9964  -13.6623   21.7308 C   0  0  1  0  0  0  0  0  0  0  0  0
  -24.7386  -10.3611   20.0217 C   0  0  2  0  0  0  0  0  0  0  0  0
  -23.2466  -13.7018   23.0923 C   0  0  0  0  0  0  0  0  0  0  0  0
  -24.3545  -27.7684   20.1174 N   0  0  0  0  0  0  0  0  0  0  0  0
  -25.3568  -28.5732   20.5096 N   0  0  0  0  0  0  0  0  0  0  0  0
  -24.3815  -15.6427   20.2977 N   0  0  0  0  0  0  0  0  0  0  0  0
  -28.6397  -26.8011   19.6902 N   0  0  0  0  0  0  0  0  0  0  0  0
  -25.8653  -30.4061   21.9211 N   0  0  0  0  0  0  0  0  0  0  0  0
  -21.4567  -29.7338   22.6340 N   0  0  0  0  0  0  0  0  0  0  0  0
  -23.1220  -19.0394   19.8822 N   0  0  0  0  0  0  0  0  0  0  0  0
  -23.9329  -12.3731   21.0508 N   0  0  0  0  0  0  0  0  0  0  0  0
  -30.9559  -26.3556   19.8761 N   0  0  0  0  0  0  0  0  0  0  0  0
  -25.7817  -10.0314   19.0097 N   0  3  0  0  0  0  0  0  0  0  0  0
  -23.2562  -31.0390   23.1973 O   0  0  0  0  0  0  0  0  0  0  0  0
  -23.9454  -17.7676   21.6505 O   0  0  0  0  0  0  0  0  0  0  0  0
  -22.2861  -14.6252   20.3987 O   0  0  0  0  0  0  0  0  0  0  0  0
  -26.2238  -12.0320   20.9381 O   0  0  0  0  0  0  0  0  0  0  0  0
  -29.6350  -26.4139   21.7488 O   0  0  0  0  0  0  0  0  0  0  0  0
  -18.2911  -25.8266   20.2366 O   0  0  0  0  0  0  0  0  0  0  0  0
  -30.2806  -17.3909   19.8540 O   0  0  0  0  0  0  0  0  0  1  0  0
  -15.4134  -24.7650   24.8187 F   0  0  0  0  0  0  0  0  0  0  0  0
  -17.5539  -27.8648   21.9526 F   0  0  0  0  0  0  0  0  0  0  0  0
  1  2  1  0  0  0  0
  1  5  2  0  0  0  0
  2  6  2  0  0  0  0
  3 10  2  0  0  0  0
  3 18  1  0  0  0  0
  4 11  1  0  0  0  0
  4 18  2  0  0  0  0
  5 20  1  0  0  0  0
  6 22  1  0  0  0  0
  7 12  2  0  0  0  0
  7 21  1  0  0  0  0
  8  9  2  0  0  0  0
  8 24  1  0  0  0  0
  9 25  1  0  0  0  0
 10 27  1  0  0  0  0
 11 27  2  0  0  0  0
 12 28  1  0  0  0  0
 13 14  2  0  0  0  0
 13 29  1  0  0  0  0
 14 30  1  0  0  0  0
 15 23  1  0  0  0  0
 15 28  2  0  0  0  0
 16 24  2  0  0  0  0
 16 26  1  0  0  0  0
 17 30  2  0  0  0  0
 17 31  1  0  0  0  0
 18 32  1  0  0  0  0
 19 32  1  0  0  0  0
 19 33  2  0  0  0  0
 19 34  1  0  0  0  0
 20 22  2  0  0  0  0
 20 39  1  0  0  0  0
 21 23  2  0  0  0  0
 21 40  1  0  0  0  0
 22 48  1  0  0  0  0
 23 41  1  0  0  0  0
 24 57  1  0  0  0  0
 25 26  2  0  0  0  0
 25 58  1  0  0  0  0
 26 51  1  0  0  0  0
 27 80  1  0  0  0  0
 28 81  1  0  0  0  0
 29 31  2  0  0  0  0
 29 80  1  0  0  0  0
 30 82  1  0  0  0  0
 31 83  1  0  0  0  0
 32 65  2  0  0  0  0
 33 66  1  0  0  0  0
 33 69  1  0  0  0  0
 34 70  1  0  0  0  0
 34 75  2  0  0  0  0
 35 49  1  0  0  0  0
 35 71  1  0  0  0  0
 35 76  2  0  0  0  0
 36 62  1  0  0  0  0
 36 67  1  0  0  0  0
 36 77  2  0  0  0  0
 37 63  1  0  0  0  0
 37 72  1  0  0  0  0
 37 78  2  0  0  0  0
 38 68  1  0  0  0  0
 38 73  1  0  0  0  0
 38 79  2  0  0  0  0
 39 42  1  0  0  0  0
 40 49  1  0  0  0  0
 41 67  1  0  0  0  0
 42 44  1  0  0  0  0
 43 45  1  0  0  0  0
 43 46  1  0  0  0  0
 44 48  1  0  0  0  0
 45 50  1  0  0  0  0
 46 68  1  0  0  0  0
 47 50  1  0  0  0  0
 47 68  1  0  0  0  0
 48 71  1  0  0  0  0
 49 67  1  0  0  0  0
 50 66  1  0  0  0  0
 52 63  1  0  0  0  0
 53 64  1  0  0  0  0
 54 64  1  0  0  0  0
 55 64  1  0  0  0  0
 56 74  1  0  0  0  0
 57 59  1  0  0  0  0
 58 73  1  0  0  0  0
 59 60  1  0  0  0  0
 60 61  1  0  0  0  0
 61 81  1  0  0  0  0
 62 64  1  0  0  0  0
 62 72  1  0  0  0  0
 63 74  1  0  0  0  0
 65 66  1  0  0  0  0
M  CHG  1  74   1
M  ISO  4  38 100  61 101  73 100  81 101
M  END
> <Batch ID>
0035

> <Smiles>
CNC(C)C(=O)NC(C(=O)N1Cc2cc([101O:1][101CH2:1]CCCc3ccc(C[100NH:0][100C:0](=O)N4CCCC(n5nc(-c6ccc(Oc7ccc(F)cc7F)cc6)c(C(N)=O)c5N)C4)c(C)c3)ccc2CC1C(=O)NC1CCCc2ccccc21)C(C)(C)C

> <Shape>
0.206

> <Color>
0.074

> <Negative vol penalty>
0.000

$$$$

  -OEChem-04052316533D

 83 91  0     1  0  0  0  0  0999 V2000
  -28.5993  -18.0670   19.2418 C   0  0  0  0  0  0  0  0  0  0  0  0
  -27.4647  -18.8161   18.9468 C   0  0  0  0  0  0  0  0  0  0  0  0
  -23.1257  -13.8464   20.4916 C   0  0  0  0  0  0  0  0  0  0  0  0
  -24.9549  -14.9572   21.6127 C   0  0  0  0  0  0  0  0  0  0  0  0
  -29.5166  -18.5342   20.1822 C   0  0  0  0  0  0  0  0  0  0  0  0
  -27.2462  -20.0324   19.5928 C   0  0  0  0  0  0  0  0  0  0  0  0
  -24.3921  -26.5086   18.4844 C   0  0  0  0  0  0  0  0  0  0  0  0
  -23.9361  -12.7324   20.2730 C   0  0  0  0  0  0  0  0  0  0  0  0
  -25.7654  -13.8432   21.3942 C   0  0  0  0  0  0  0  0  0  0  0  0
  -23.4774  -27.3942   19.0528 C   0  0  0  0  0  0  0  0  0  0  0  0
  -28.4249  -11.4345   20.8154 C   0  0  0  0  0  0  0  0  0  0  0  0
  -29.7242  -11.6573   20.3596 C   0  0  0  0  0  0  0  0  0  0  0  0
  -25.1704  -28.1395   20.6011 C   0  0  0  0  0  0  0  0  0  0  0  0
  -28.8462  -12.7415   18.3871 C   0  0  0  0  0  0  0  0  0  0  0  0
  -20.7815  -27.5261   23.3787 C   0  0  0  0  0  0  0  0  0  0  0  0
  -23.6351  -14.9588   21.1614 C   0  0  0  0  0  0  0  0  0  0  0  0
  -21.9696  -16.3540   22.4984 C   0  0  0  0  0  0  0  0  0  0  0  0
  -29.3141  -19.7615   20.8329 C   0  0  0  0  0  0  0  0  0  0  0  0
  -25.7018  -26.4240   18.9781 C   0  0  0  0  0  0  0  0  0  0  0  0
  -28.1610  -20.5158   20.5436 C   0  0  0  0  0  0  0  0  0  0  0  0
  -26.1005  -27.2539   20.0356 C   0  0  0  0  0  0  0  0  0  0  0  0
  -19.7212  -26.7335   22.9982 C   0  0  0  0  0  0  0  0  0  0  0  0
  -25.2559  -12.7307   20.7243 C   0  0  0  0  0  0  0  0  0  0  0  0
  -23.8657  -28.2077   20.1132 C   0  0  0  0  0  0  0  0  0  0  0  0
  -27.3362  -11.8651   20.0571 C   0  0  0  0  0  0  0  0  0  0  0  0
  -29.9348  -12.3109   19.1454 C   0  0  0  0  0  0  0  0  0  0  0  0
  -27.5469  -12.5186   18.8429 C   0  0  0  0  0  0  0  0  0  0  0  0
  -19.0667  -27.3885   21.9260 C   0  0  0  0  0  0  0  0  0  0  0  0
  -22.7986  -16.1101   21.3870 C   0  0  0  0  0  0  0  0  0  0  0  0
  -19.7471  -28.5615   21.6838 C   0  0  0  0  0  0  0  0  0  0  0  0
  -21.3922  -17.5721   22.2354 C   0  0  0  0  0  0  0  0  0  0  0  0
  -21.7420  -15.5512   23.6643 C   0  0  0  0  0  0  0  0  0  0  0  0
  -27.4475  -24.1347   20.3256 C   0  0  0  0  0  0  0  0  0  0  0  0
  -29.8142  -26.3407   20.0915 C   0  0  0  0  0  0  0  0  0  0  0  0
  -30.6967  -29.6286   19.8512 C   0  0  0  0  0  0  0  0  0  0  0  0
  -21.7666  -22.8607   20.4929 C   0  0  0  0  0  0  0  0  0  0  0  0
  -30.3096  -20.2027   21.8765 C   0  0  0  0  0  0  0  0  0  0  0  0
  -26.6841  -25.4827   18.3366 C   0  0  0  0  0  0  0  0  0  0  0  0
  -27.5008  -27.2160   20.5890 C   0  0  0  0  0  0  0  0  0  0  0  0
  -30.1943  -21.6803   22.2421 C   0  0  0  0  0  0  0  0  0  0  0  0
  -21.3425  -20.3476   18.0068 C   0  0  0  0  0  0  0  0  0  0  0  0
  -28.7355  -22.0603   22.4750 C   0  0  0  0  0  0  0  0  0  0  0  0
  -21.6211  -19.0426   18.7546 C   0  0  0  0  0  0  0  0  0  0  0  0
  -22.2445  -21.4800   18.4925 C   0  0  0  0  0  0  0  0  0  0  0  0
  -22.4966  -20.4067   20.6966 C   0  0  0  0  0  0  0  0  0  0  0  0
  -27.9015  -21.8519   21.2052 C   0  0  1  0  0  0  0  0  0  0  0  0
  -27.8441  -25.1121   19.2555 C   0  0  1  0  0  0  0  0  0  0  0  0
  -21.5727  -19.2493   20.2804 C   0  0  2  0  0  0  0  0  0  0  0  0
  -19.4983  -29.6236   20.6850 C   0  0  0  0  0  0  0  0  0  0  0  0
  -32.7076  -31.1236   19.7153 C   0  0  0  0  0  0  0  0  0  0  0  0
  -30.3060  -25.9465   23.0769 C   0  0  0  0  0  0  0  0  0  0  0  0
  -31.6149  -28.0807   23.0721 C   0  0  0  0  0  0  0  0  0  0  0  0
  -32.3810  -26.1468   21.6953 C   0  0  0  0  0  0  0  0  0  0  0  0
  -29.8873  -30.6704   17.2019 C   0  0  0  0  0  0  0  0  0  0  0  0
  -19.3520  -25.4418   23.6121 C   0  0  0  0  0  0  0  0  0  0  0  0
  -19.8029  -24.1907   22.8207 C   0  0  0  0  0  0  0  0  0  0  0  0
  -21.7962  -29.7537   22.6649 C   0  0  0  0  0  0  0  0  0  0  0  0
  -21.3101  -24.1101   22.5882 C   0  0  0  0  0  0  0  0  0  0  0  0
  -23.1412  -29.3740   22.0550 C   0  0  0  0  0  0  0  0  0  1  0  0
  -30.3356  -27.4473   20.9762 C   0  0  1  0  0  0  0  0  0  0  0  0
  -31.6638  -30.3471   18.9277 C   0  0  2  0  0  0  0  0  0  0  0  0
  -31.1324  -26.9049   22.1962 C   0  0  0  0  0  0  0  0  0  0  0  0
  -22.7544  -17.0943   20.4850 N   0  0  0  0  0  0  0  0  0  0  0  0
  -20.7876  -28.6345   22.5726 N   0  0  0  0  0  0  0  0  0  0  0  0
  -21.8907  -17.9683   21.0292 N   0  0  0  0  0  0  0  0  0  0  0  0
  -28.4227  -26.2746   19.9322 N   0  0  0  0  0  0  0  0  0  0  0  0
  -22.1510  -21.6248   19.9472 N   0  0  0  0  0  0  0  0  0  0  0  0
  -20.5117  -18.3323   22.9204 N   0  0  0  0  0  0  0  0  0  0  0  0
  -22.4163  -14.3275   23.7750 N   0  0  0  0  0  0  0  0  0  0  0  0
  -28.1269  -22.9327   20.2695 N   0  0  0  0  0  0  0  0  0  0  0  0
  -31.1017  -28.3362   20.1095 N   0  0  0  0  0  0  0  0  0  0  0  0
  -21.6969  -22.9103   21.8798 N   0  0  0  0  0  0  0  0  0  0  0  0
  -30.9297  -31.3027   18.0508 N   0  3  0  0  0  0  0  0  0  0  0  0
  -20.9512  -15.9008   24.5731 O   0  0  0  0  0  0  0  0  0  0  0  0
  -26.5898  -24.4484   21.1426 O   0  0  0  0  0  0  0  0  0  0  0  0
  -30.6125  -25.5680   19.5556 O   0  0  0  0  0  0  0  0  0  0  0  0
  -29.6851  -30.1619   20.3016 O   0  0  0  0  0  0  0  0  0  0  0  0
  -21.4999  -23.8454   19.7957 O   0  0  0  0  0  0  0  0  0  0  0  0
  -26.0469  -11.6438   20.5114 O   0  0  0  0  0  0  0  0  0  0  0  0
  -22.9748  -29.0725   20.6702 O   0  0  0  0  0  0  0  0  0  1  0  0
  -31.1826  -12.5262   18.7085 F   0  0  0  0  0  0  0  0  0  0  0  0
  -26.5050  -12.9357   18.1106 F   0  0  0  0  0  0  0  0  0  0  0  0
  -17.6916  -26.8117   21.1086 Cl  0  0  0  0  0  0  0  0  0  0  0  0
  1  2  1  0  0  0  0
  1  5  2  0  0  0  0
  2  6  2  0  0  0  0
  3  8  2  0  0  0  0
  3 16  1  0  0  0  0
  4  9  1  0  0  0  0
  4 16  2  0  0  0  0
  5 18  1  0  0  0  0
  6 20  1  0  0  0  0
  7 10  2  0  0  0  0
  7 19  1  0  0  0  0
  8 23  1  0  0  0  0
  9 23  2  0  0  0  0
 10 24  1  0  0  0  0
 11 12  2  0  0  0  0
 11 25  1  0  0  0  0
 12 26  1  0  0  0  0
 13 21  1  0  0  0  0
 13 24  2  0  0  0  0
 14 26  2  0  0  0  0
 14 27  1  0  0  0  0
 15 22  2  0  0  0  0
 15 64  1  0  0  0  0
 16 29  1  0  0  0  0
 17 29  1  0  0  0  0
 17 31  2  0  0  0  0
 17 32  1  0  0  0  0
 18 20  2  0  0  0  0
 18 37  1  0  0  0  0
 19 21  2  0  0  0  0
 19 38  1  0  0  0  0
 20 46  1  0  0  0  0
 21 39  1  0  0  0  0
 22 28  1  0  0  0  0
 22 55  1  0  0  0  0
 23 79  1  0  0  0  0
 24 80  1  0  0  0  0
 25 27  2  0  0  0  0
 25 79  1  0  0  0  0
 26 81  1  0  0  0  0
 27 82  1  0  0  0  0
 28 30  2  0  0  0  0
 28 83  1  0  0  0  0
 29 63  2  0  0  0  0
 30 49  1  0  0  0  0
 30 64  1  0  0  0  0
 31 65  1  0  0  0  0
 31 68  1  0  0  0  0
 32 69  1  0  0  0  0
 32 74  2  0  0  0  0
 33 47  1  0  0  0  0
 33 70  1  0  0  0  0
 33 75  2  0  0  0  0
 34 60  1  0  0  0  0
 34 66  1  0  0  0  0
 34 76  2  0  0  0  0
 35 61  1  0  0  0  0
 35 71  1  0  0  0  0
 35 77  2  0  0  0  0
 36 67  1  0  0  0  0
 36 72  1  0  0  0  0
 36 78  2  0  0  0  0
 37 40  1  0  0  0  0
 38 47  1  0  0  0  0
 39 66  1  0  0  0  0
 40 42  1  0  0  0  0
 41 43  1  0  0  0  0
 41 44  1  0  0  0  0
 42 46  1  0  0  0  0
 43 48  1  0  0  0  0
 44 67  1  0  0  0  0
 45 48  1  0  0  0  0
 45 67  1  0  0  0  0
 46 70  1  0  0  0  0
 47 66  1  0  0  0  0
 48 65  1  0  0  0  0
 50 61  1  0  0  0  0
 51 62  1  0  0  0  0
 52 62  1  0  0  0  0
 53 62  1  0  0  0  0
 54 73  1  0  0  0  0
 55 56  1  0  0  0  0
 56 58  1  0  0  0  0
 57 59  1  0  0  0  0
 57 64  1  0  0  0  0
 58 72  1  0  0  0  0
 59 80  1  0  0  0  0
 60 62  1  0  0  0  0
 60 71  1  0  0  0  0
 61 73  1  0  0  0  0
 63 65  1  0  0  0  0
M  CHG  1  73   1
M  ISO  4  36 100  59 101  72 100  80 101
M  END
> <Batch ID>
0035

> <Smiles>
CNC(C)C(=O)NC(C(=O)N1Cc2cc([101O:1][101CH2:1]Cn3cc(CCC[100NH:0][100C:0](=O)N4CCCC(n5nc(-c6ccc(Oc7ccc(F)cc7F)cc6)c(C(N)=O)c5N)C4)c(Cl)c3C)ccc2CC1C(=O)NC1CCCc2ccccc21)C(C)(C)C

> <Shape>
0.254

> <Color>
0.064

> <Negative vol penalty>
0.000

$$$$

  -OEChem-04052316533D

 82 90  0     1  0  0  0  0  0999 V2000
  -18.7802  -33.4729   21.4515 C   0  0  0  0  0  0  0  0  0  0  0  0
  -20.1043  -33.2830   21.0693 C   0  0  0  0  0  0  0  0  0  0  0  0
  -26.7946  -18.0679   21.2736 C   0  0  0  0  0  0  0  0  0  0  0  0
  -28.9654  -17.6111   22.2307 C   0  0  0  0  0  0  0  0  0  0  0  0
  -18.2278  -32.6865   22.4615 C   0  0  0  0  0  0  0  0  0  0  0  0
  -20.8771  -32.3072   21.6978 C   0  0  0  0  0  0  0  0  0  0  0  0
  -25.2480  -28.8619   19.1422 C   0  0  0  0  0  0  0  0  0  0  0  0
  -32.6308  -28.8400   17.9590 C   0  0  0  0  0  0  0  0  0  0  0  0
  -33.3555  -27.6568   18.1020 C   0  0  0  0  0  0  0  0  0  0  0  0
  -26.3839  -16.7721   21.5867 C   0  0  0  0  0  0  0  0  0  0  0  0
  -28.5547  -16.3154   22.5438 C   0  0  0  0  0  0  0  0  0  0  0  0
  -26.6379  -28.9702   19.1255 C   0  0  0  0  0  0  0  0  0  0  0  0
  -24.8828  -13.4676   21.8113 C   0  0  0  0  0  0  0  0  0  0  0  0
  -24.1904  -12.7514   20.8350 C   0  0  0  0  0  0  0  0  0  0  0  0
  -26.7733  -27.4402   20.9857 C   0  0  0  0  0  0  0  0  0  0  0  0
  -26.0869  -12.9422   19.3503 C   0  0  0  0  0  0  0  0  0  0  0  0
  -28.0854  -18.4873   21.5955 C   0  0  0  0  0  0  0  0  0  0  0  0
  -28.3958  -20.9727   22.0797 C   0  0  0  0  0  0  0  0  0  0  0  0
  -18.9913  -31.6940   23.0961 C   0  0  0  0  0  0  0  0  0  0  0  0
  -24.6087  -28.0490   20.0893 C   0  0  0  0  0  0  0  0  0  0  0  0
  -20.3348  -31.5077   22.7182 C   0  0  0  0  0  0  0  0  0  0  0  0
  -25.3754  -27.3213   21.0106 C   0  0  0  0  0  0  0  0  0  0  0  0
  -31.7852  -29.2680   18.9825 C   0  0  0  0  0  0  0  0  0  0  0  0
  -33.2345  -26.9015   19.2684 C   0  0  0  0  0  0  0  0  0  0  0  0
  -32.3889  -27.3295   20.2919 C   0  0  0  0  0  0  0  0  0  0  0  0
  -31.6643  -28.5127   20.1489 C   0  0  0  0  0  0  0  0  0  0  0  0
  -27.2639  -15.8959   22.2218 C   0  0  0  0  0  0  0  0  0  0  0  0
  -27.4006  -28.2616   20.0492 C   0  0  0  0  0  0  0  0  0  0  0  0
  -26.1771  -13.9213   21.5571 C   0  0  0  0  0  0  0  0  0  0  0  0
  -24.7925  -12.4886   19.6045 C   0  0  0  0  0  0  0  0  0  0  0  0
  -26.7792  -13.6585   20.3266 C   0  0  0  0  0  0  0  0  0  0  0  0
  -28.5104  -19.8255   21.2718 C   0  0  0  0  0  0  0  0  0  0  0  0
  -28.9421  -21.9809   21.3238 C   0  0  0  0  0  0  0  0  0  0  0  0
  -27.8448  -21.1142   23.3958 C   0  0  0  0  0  0  0  0  0  0  0  0
  -22.5412  -28.5559   22.4498 C   0  0  0  0  0  0  0  0  0  0  0  0
  -22.5481  -25.3170   22.6286 C   0  0  0  0  0  0  0  0  0  0  0  0
  -24.1851  -22.3853   22.0187 C   0  0  0  0  0  0  0  0  0  0  0  0
  -32.9538  -23.9156   17.9609 C   0  0  0  0  0  0  0  0  0  0  0  0
  -18.3646  -30.9006   24.2152 C   0  0  0  0  0  0  0  0  0  0  0  0
  -23.1100  -27.9221   20.0769 C   0  0  0  0  0  0  0  0  0  0  0  0
  -24.7386  -26.4192   22.0349 C   0  0  0  0  0  0  0  0  0  0  0  0
  -19.1395  -29.6349   24.5727 C   0  0  0  0  0  0  0  0  0  0  0  0
  -30.3041  -22.0763   16.4532 C   0  0  0  0  0  0  0  0  0  0  0  0
  -20.6300  -29.9370   24.6909 C   0  0  0  0  0  0  0  0  0  0  0  0
  -29.5962  -21.4169   17.6381 C   0  0  0  0  0  0  0  0  0  0  0  0
  -31.8154  -22.1393   16.6626 C   0  0  0  0  0  0  0  0  0  0  0  0
  -31.5319  -22.1120   19.1106 C   0  0  0  0  0  0  0  0  0  0  0  0
  -21.1978  -30.4425   23.3592 C   0  0  1  0  0  0  0  0  0  0  0  0
  -22.5379  -27.4660   21.4156 C   0  0  1  0  0  0  0  0  0  0  0  0
  -30.0005  -22.0761   18.9705 C   0  0  2  0  0  0  0  0  0  0  0  0
  -31.0209  -30.5390   18.8040 C   0  0  0  0  0  0  0  0  0  0  0  0
  -32.2593  -26.5173   21.5416 C   0  0  0  0  0  0  0  0  0  0  0  0
  -23.9556  -19.9034   22.3103 C   0  0  0  0  0  0  0  0  0  0  0  0
  -23.2070  -25.6069   25.5937 C   0  0  0  0  0  0  0  0  0  0  0  0
  -23.8913  -23.1987   25.6056 C   0  0  0  0  0  0  0  0  0  0  0  0
  -21.5370  -23.8218   25.0658 C   0  0  0  0  0  0  0  0  0  0  0  0
  -24.2997  -21.9148   19.0991 C   0  0  0  0  0  0  0  0  0  0  0  0
  -30.7495  -28.9790   21.2553 C   0  0  0  0  0  0  0  0  0  0  0  0
  -34.0203  -25.6373   19.3952 C   0  0  0  0  0  0  0  0  0  0  0  0
  -29.4334  -28.2094   21.2825 C   0  0  0  0  0  0  0  0  0  1  0  0
  -23.3609  -24.2895   23.3786 C   0  0  1  0  0  0  0  0  0  0  0  0
  -23.7223  -21.0865   21.3836 C   0  0  2  0  0  0  0  0  0  0  0  0
  -23.0112  -24.2476   24.8930 C   0  0  0  0  0  0  0  0  0  0  0  0
  -29.0843  -20.0803   20.0930 N   0  0  0  0  0  0  0  0  0  0  0  0
  -29.3352  -21.3991   20.1545 N   0  0  0  0  0  0  0  0  0  0  0  0
  -23.2696  -26.3334   21.9865 N   0  0  0  0  0  0  0  0  0  0  0  0
  -32.1316  -22.7768   17.9431 N   0  0  0  0  0  0  0  0  0  0  0  0
  -29.1198  -23.2996   21.5519 N   0  0  0  0  0  0  0  0  0  0  0  0
  -27.3256  -19.9765   24.0286 N   0  0  0  0  0  0  0  0  0  0  0  0
  -21.4026  -29.3390   22.4456 N   0  0  0  0  0  0  0  0  0  0  0  0
  -23.1590  -23.0228   22.6835 N   0  0  0  0  0  0  0  0  0  0  0  0
  -33.1984  -24.4613   19.2151 N   0  0  0  0  0  0  0  0  0  0  0  0
  -24.4596  -20.8400   20.1122 N   0  3  0  0  0  0  0  0  0  0  0  0
  -27.7989  -22.2200   23.9863 O   0  0  0  0  0  0  0  0  0  0  0  0
  -23.5046  -28.6765   23.1974 O   0  0  0  0  0  0  0  0  0  0  0  0
  -21.3188  -25.2174   22.6071 O   0  0  0  0  0  0  0  0  0  0  0  0
  -25.3421  -22.7917   21.9367 O   0  0  0  0  0  0  0  0  0  0  0  0
  -33.4298  -24.4125   16.9345 O   0  0  0  0  0  0  0  0  0  0  0  0
  -26.8634  -14.6316   22.5277 O   0  0  0  0  0  0  0  0  0  0  0  0
  -28.7574  -28.3660   20.0356 O   0  0  0  0  0  0  0  0  0  1  0  0
  -24.1281  -11.7994   18.6676 F   0  0  0  0  0  0  0  0  0  0  0  0
  -28.0228  -14.0907   20.0770 F   0  0  0  0  0  0  0  0  0  0  0  0
  1  2  1  0  0  0  0
  1  5  2  0  0  0  0
  2  6  2  0  0  0  0
  3 10  2  0  0  0  0
  3 17  1  0  0  0  0
  4 11  1  0  0  0  0
  4 17  2  0  0  0  0
  5 19  1  0  0  0  0
  6 21  1  0  0  0  0
  7 12  2  0  0  0  0
  7 20  1  0  0  0  0
  8  9  1  0  0  0  0
  8 23  2  0  0  0  0
  9 24  2  0  0  0  0
 10 27  1  0  0  0  0
 11 27  2  0  0  0  0
 12 28  1  0  0  0  0
 13 14  2  0  0  0  0
 13 29  1  0  0  0  0
 14 30  1  0  0  0  0
 15 22  1  0  0  0  0
 15 28  2  0  0  0  0
 16 30  2  0  0  0  0
 16 31  1  0  0  0  0
 17 32  1  0  0  0  0
 18 32  1  0  0  0  0
 18 33  2  0  0  0  0
 18 34  1  0  0  0  0
 19 21  2  0  0  0  0
 19 39  1  0  0  0  0
 20 22  2  0  0  0  0
 20 40  1  0  0  0  0
 21 48  1  0  0  0  0
 22 41  1  0  0  0  0
 23 26  1  0  0  0  0
 23 51  1  0  0  0  0
 24 25  1  0  0  0  0
 24 59  1  0  0  0  0
 25 26  2  0  0  0  0
 25 52  1  0  0  0  0
 26 58  1  0  0  0  0
 27 79  1  0  0  0  0
 28 80  1  0  0  0  0
 29 31  2  0  0  0  0
 29 79  1  0  0  0  0
 30 81  1  0  0  0  0
 31 82  1  0  0  0  0
 32 64  2  0  0  0  0
 33 65  1  0  0  0  0
 33 68  1  0  0  0  0
 34 69  1  0  0  0  0
 34 74  2  0  0  0  0
 35 49  1  0  0  0  0
 35 70  1  0  0  0  0
 35 75  2  0  0  0  0
 36 61  1  0  0  0  0
 36 66  1  0  0  0  0
 36 76  2  0  0  0  0
 37 62  1  0  0  0  0
 37 71  1  0  0  0  0
 37 77  2  0  0  0  0
 38 67  1  0  0  0  0
 38 72  1  0  0  0  0
 38 78  2  0  0  0  0
 39 42  1  0  0  0  0
 40 49  1  0  0  0  0
 41 66  1  0  0  0  0
 42 44  1  0  0  0  0
 43 45  1  0  0  0  0
 43 46  1  0  0  0  0
 44 48  1  0  0  0  0
 45 50  1  0  0  0  0
 46 67  1  0  0  0  0
 47 50  1  0  0  0  0
 47 67  1  0  0  0  0
 48 70  1  0  0  0  0
 49 66  1  0  0  0  0
 50 65  1  0  0  0  0
 53 62  1  0  0  0  0
 54 63  1  0  0  0  0
 55 63  1  0  0  0  0
 56 63  1  0  0  0  0
 57 73  1  0  0  0  0
 58 60  1  0  0  0  0
 59 72  1  0  0  0  0
 60 80  1  0  0  0  0
 61 63  1  0  0  0  0
 61 71  1  0  0  0  0
 62 73  1  0  0  0  0
 64 65  1  0  0  0  0
M  CHG  1  73   1
M  ISO  4  38 100  60 101  72 100  80 101
M  END
> <Batch ID>
0035

> <Smiles>
CNC(C)C(=O)NC(C(=O)N1Cc2cc([101O:1][101CH2:1]Cc3c(C)ccc(C[100NH:0][100C:0](=O)N4CCCC(n5nc(-c6ccc(Oc7ccc(F)cc7F)cc6)c(C(N)=O)c5N)C4)c3C)ccc2CC1C(=O)NC1CCCc2ccccc21)C(C)(C)C

> <Shape>
0.173

> <Color>
0.091

> <Negative vol penalty>
0.000

$$$$

  -OEChem-04052316533D

 82 90  0     1  0  0  0  0  0999 V2000
  -28.6487   -9.7017   16.7021 C   0  0  0  0  0  0  0  0  0  0  0  0
  -27.4840  -10.4596   16.6337 C   0  0  0  0  0  0  0  0  0  0  0  0
  -27.1104  -31.3509   21.7327 C   0  0  0  0  0  0  0  0  0  0  0  0
  -26.2658  -29.7868   23.3690 C   0  0  0  0  0  0  0  0  0  0  0  0
  -29.5755   -9.9401   17.7161 C   0  0  0  0  0  0  0  0  0  0  0  0
  -27.2450  -11.4555   17.5800 C   0  0  0  0  0  0  0  0  0  0  0  0
  -24.4107  -16.8055   16.6583 C   0  0  0  0  0  0  0  0  0  0  0  0
  -27.5083  -32.2087   22.7581 C   0  0  0  0  0  0  0  0  0  0  0  0
  -26.6639  -30.6446   24.3944 C   0  0  0  0  0  0  0  0  0  0  0  0
  -23.1034  -17.2276   16.8962 C   0  0  0  0  0  0  0  0  0  0  0  0
  -28.4225  -34.9740   24.9355 C   0  0  0  0  0  0  0  0  0  0  0  0
  -28.1352  -36.3317   24.7954 C   0  0  0  0  0  0  0  0  0  0  0  0
  -23.7971  -18.1662   19.0074 C   0  0  0  0  0  0  0  0  0  0  0  0
  -18.9970  -18.6174   20.4682 C   0  0  0  0  0  0  0  0  0  0  0  0
  -25.7764  -35.8211   24.6841 C   0  0  0  0  0  0  0  0  0  0  0  0
  -17.9254  -20.6487   18.9947 C   0  0  0  0  0  0  0  0  0  0  0  0
  -26.4890  -30.1400   22.0382 C   0  0  0  0  0  0  0  0  0  0  0  0
  -26.8355  -28.2255   20.3883 C   0  0  0  0  0  0  0  0  0  0  0  0
  -29.3524  -10.9459   18.6695 C   0  0  0  0  0  0  0  0  0  0  0  0
  -25.4205  -17.0514   17.5997 C   0  0  0  0  0  0  0  0  0  0  0  0
  -28.1692  -11.7066   18.6084 C   0  0  0  0  0  0  0  0  0  0  0  0
  -25.1169  -17.7484   18.7779 C   0  0  0  0  0  0  0  0  0  0  0  0
  -19.8181  -19.3507   19.6188 C   0  0  0  0  0  0  0  0  0  0  0  0
  -19.2799  -20.3874   18.8646 C   0  0  0  0  0  0  0  0  0  0  0  0
  -27.2851  -31.8556   24.0889 C   0  0  0  0  0  0  0  0  0  0  0  0
  -22.7958  -17.9056   18.0722 C   0  0  0  0  0  0  0  0  0  0  0  0
  -27.3868  -34.0398   24.9498 C   0  0  0  0  0  0  0  0  0  0  0  0
  -26.8122  -36.7553   24.6697 C   0  0  0  0  0  0  0  0  0  0  0  0
  -26.0637  -34.4634   24.8241 C   0  0  0  0  0  0  0  0  0  0  0  0
  -26.0772  -29.2537   20.9795 C   0  0  0  0  0  0  0  0  0  0  0  0
  -17.6553  -18.9581   20.5267 C   0  0  0  0  0  0  0  0  0  0  0  0
  -26.0008  -27.6842   19.4413 C   0  0  0  0  0  0  0  0  0  0  0  0
  -28.1747  -27.7978   20.6700 C   0  0  0  0  0  0  0  0  0  0  0  0
  -27.3382  -15.2276   19.3603 C   0  0  0  0  0  0  0  0  0  0  0  0
  -28.6671  -18.0759   20.1624 C   0  0  0  0  0  0  0  0  0  0  0  0
  -28.3091  -21.4559   20.4697 C   0  0  0  0  0  0  0  0  0  0  0  0
  -20.9813  -25.8128   17.8768 C   0  0  0  0  0  0  0  0  0  0  0  0
  -30.3608  -11.1350   19.7749 C   0  0  0  0  0  0  0  0  0  0  0  0
  -26.8311  -16.6131   17.3160 C   0  0  0  0  0  0  0  0  0  0  0  0
  -26.1688  -18.0552   19.8112 C   0  0  0  0  0  0  0  0  0  0  0  0
  -30.2094  -12.4601   20.5175 C   0  0  0  0  0  0  0  0  0  0  0  0
  -21.5637  -29.3175   17.6438 C   0  0  0  0  0  0  0  0  0  0  0  0
  -28.7462  -12.7119   20.8673 C   0  0  0  0  0  0  0  0  0  0  0  0
  -22.8483  -29.5290   18.4469 C   0  0  0  0  0  0  0  0  0  0  0  0
  -20.6791  -28.2402   18.2675 C   0  0  0  0  0  0  0  0  0  0  0  0
  -22.6348  -27.1599   19.3076 C   0  0  0  0  0  0  0  0  0  0  0  0
  -27.8859  -12.8125   19.6018 C   0  0  1  0  0  0  0  0  0  0  0  0
  -27.6759  -16.4649   18.5776 C   0  0  1  0  0  0  0  0  0  0  0  0
  -23.5854  -28.1977   18.6865 C   0  0  2  0  0  0  0  0  0  0  0  0
  -16.7443  -18.1924   21.4271 C   0  0  0  0  0  0  0  0  0  0  0  0
  -29.5568  -23.5118   21.1865 C   0  0  0  0  0  0  0  0  0  0  0  0
  -28.2617  -17.2999   23.0853 C   0  0  0  0  0  0  0  0  0  0  0  0
  -28.6207  -19.7003   23.6999 C   0  0  0  0  0  0  0  0  0  0  0  0
  -30.4478  -18.4109   22.5945 C   0  0  0  0  0  0  0  0  0  0  0  0
  -28.0906  -22.6678   17.7785 C   0  0  0  0  0  0  0  0  0  0  0  0
  -20.1136  -21.2039   17.9392 C   0  0  0  0  0  0  0  0  0  0  0  0
  -21.2762  -19.0072   19.5327 C   0  0  0  0  0  0  0  0  0  1  0  0
  -20.5307  -22.5795   18.4985 C   0  0  0  0  0  0  0  0  0  0  0  0
  -21.4263  -23.3912   17.5651 C   0  0  0  0  0  0  0  0  0  0  0  0
  -28.4256  -19.1017   21.2434 C   0  0  1  0  0  0  0  0  0  0  0  0
  -29.1906  -22.6072   20.0202 C   0  0  2  0  0  0  0  0  0  0  0  0
  -28.9185  -18.6209   22.6374 C   0  0  0  0  0  0  0  0  0  0  0  0
  -17.0963  -19.9583   19.8092 N   0  0  0  0  0  0  0  0  0  0  0  0
  -24.8547  -29.3613   20.4521 N   0  0  0  0  0  0  0  0  0  0  0  0
  -24.8386  -28.3937   19.5196 N   0  0  0  0  0  0  0  0  0  0  0  0
  -27.5319  -17.6004   19.4908 N   0  0  0  0  0  0  0  0  0  0  0  0
  -21.4377  -27.0030   18.4668 N   0  0  0  0  0  0  0  0  0  0  0  0
  -26.1549  -26.6754   18.5576 N   0  0  0  0  0  0  0  0  0  0  0  0
  -28.8911  -28.4628   21.6744 N   0  0  0  0  0  0  0  0  0  0  0  0
  -28.0529  -14.1081   18.9789 N   0  0  0  0  0  0  0  0  0  0  0  0
  -29.0510  -20.3362   20.7816 N   0  0  0  0  0  0  0  0  0  0  0  0
  -21.7624  -24.6876   18.1103 N   0  0  0  0  0  0  0  0  0  0  0  0
  -28.4884  -23.4265   18.9923 N   0  3  0  0  0  0  0  0  0  0  0  0
  -28.7257  -26.8646   20.0382 O   0  0  0  0  0  0  0  0  0  0  0  0
  -26.4930  -15.2847   20.2457 O   0  0  0  0  0  0  0  0  0  0  0  0
  -29.8211  -17.7152   19.9179 O   0  0  0  0  0  0  0  0  0  0  0  0
  -27.0852  -21.5424   20.5408 O   0  0  0  0  0  0  0  0  0  0  0  0
  -19.9567  -25.7581   17.1882 O   0  0  0  0  0  0  0  0  0  0  0  0
  -27.6736  -32.6923   25.0897 O   0  0  0  0  0  0  0  0  0  0  0  0
  -21.5205  -18.3181   18.3072 O   0  0  0  0  0  0  0  0  0  1  0  0
  -26.5364  -38.0593   24.5368 F   0  0  0  0  0  0  0  0  0  0  0  0
  -25.0644  -33.5707   24.8384 F   0  0  0  0  0  0  0  0  0  0  0  0
  1  2  1  0  0  0  0
  1  5  2  0  0  0  0
  2  6  2  0  0  0  0
  3  8  2  0  0  0  0
  3 17  1  0  0  0  0
  4  9  1  0  0  0  0
  4 17  2  0  0  0  0
  5 19  1  0  0  0  0
  6 21  1  0  0  0  0
  7 10  2  0  0  0  0
  7 20  1  0  0  0  0
  8 25  1  0  0  0  0
  9 25  2  0  0  0  0
 10 26  1  0  0  0  0
 11 12  2  0  0  0  0
 11 27  1  0  0  0  0
 12 28  1  0  0  0  0
 13 22  1  0  0  0  0
 13 26  2  0  0  0  0
 14 23  1  0  0  0  0
 14 31  2  0  0  0  0
 15 28  2  0  0  0  0
 15 29  1  0  0  0  0
 16 24  1  0  0  0  0
 16 63  2  0  0  0  0
 17 30  1  0  0  0  0
 18 30  1  0  0  0  0
 18 32  2  0  0  0  0
 18 33  1  0  0  0  0
 19 21  2  0  0  0  0
 19 38  1  0  0  0  0
 20 22  2  0  0  0  0
 20 39  1  0  0  0  0
 21 47  1  0  0  0  0
 22 40  1  0  0  0  0
 23 24  2  0  0  0  0
 23 57  1  0  0  0  0
 24 56  1  0  0  0  0
 25 79  1  0  0  0  0
 26 80  1  0  0  0  0
 27 29  2  0  0  0  0
 27 79  1  0  0  0  0
 28 81  1  0  0  0  0
 29 82  1  0  0  0  0
 30 64  2  0  0  0  0
 31 50  1  0  0  0  0
 31 63  1  0  0  0  0
 32 65  1  0  0  0  0
 32 68  1  0  0  0  0
 33 69  1  0  0  0  0
 33 74  2  0  0  0  0
 34 48  1  0  0  0  0
 34 70  1  0  0  0  0
 34 75  2  0  0  0  0
 35 60  1  0  0  0  0
 35 66  1  0  0  0  0
 35 76  2  0  0  0  0
 36 61  1  0  0  0  0
 36 71  1  0  0  0  0
 36 77  2  0  0  0  0
 37 67  1  0  0  0  0
 37 72  1  0  0  0  0
 37 78  2  0  0  0  0
 38 41  1  0  0  0  0
 39 48  1  0  0  0  0
 40 66  1  0  0  0  0
 41 43  1  0  0  0  0
 42 44  1  0  0  0  0
 42 45  1  0  0  0  0
 43 47  1  0  0  0  0
 44 49  1  0  0  0  0
 45 67  1  0  0  0  0
 46 49  1  0  0  0  0
 46 67  1  0  0  0  0
 47 70  1  0  0  0  0
 48 66  1  0  0  0  0
 49 65  1  0  0  0  0
 51 61  1  0  0  0  0
 52 62  1  0  0  0  0
 53 62  1  0  0  0  0
 54 62  1  0  0  0  0
 55 73  1  0  0  0  0
 56 58  1  0  0  0  0
 57 80  1  0  0  0  0
 58 59  1  0  0  0  0
 59 72  1  0  0  0  0
 60 62  1  0  0  0  0
 60 71  1  0  0  0  0
 61 73  1  0  0  0  0
 64 65  1  0  0  0  0
M  CHG  1  73   1
M  ISO  4  37 100  57 101  72 100  80 101
M  END
> <Batch ID>
0035

> <Smiles>
CNC(C)C(=O)NC(C(=O)N1Cc2cc([101O:1][101CH2:1]c3cc(C)ncc3CCC[100NH:0][100C:0](=O)N3CCCC(n4nc(-c5ccc(Oc6ccc(F)cc6F)cc5)c(C(N)=O)c4N)C3)ccc2CC1C(=O)NC1CCCc2ccccc21)C(C)(C)C

> <Shape>
0.248

> <Color>
0.063

> <Negative vol penalty>
0.000

$$$$

  -OEChem-04052316533D

 86 94  0     1  0  0  0  0  0999 V2000
  -27.5456  -35.4093   22.9045 C   0  0  0  0  0  0  0  0  0  0  0  0
  -27.8452  -34.0637   22.7171 C   0  0  0  0  0  0  0  0  0  0  0  0
  -25.0706  -16.5459   24.1466 C   0  0  0  0  0  0  0  0  0  0  0  0
  -24.8864  -18.2627   22.4567 C   0  0  0  0  0  0  0  0  0  0  0  0
  -26.3115  -35.7799   23.4370 C   0  0  0  0  0  0  0  0  0  0  0  0
  -26.9111  -33.0879   23.0632 C   0  0  0  0  0  0  0  0  0  0  0  0
  -26.4492  -29.4981   19.5213 C   0  0  0  0  0  0  0  0  0  0  0  0
  -24.8141  -17.4937   25.1373 C   0  0  0  0  0  0  0  0  0  0  0  0
  -24.6299  -19.2105   23.4474 C   0  0  0  0  0  0  0  0  0  0  0  0
  -27.4418  -28.5204   19.4724 C   0  0  0  0  0  0  0  0  0  0  0  0
  -26.4025  -20.9951   25.7066 C   0  0  0  0  0  0  0  0  0  0  0  0
  -27.0740  -22.2150   25.6258 C   0  0  0  0  0  0  0  0  0  0  0  0
  -25.9986  -27.0038   20.6709 C   0  0  0  0  0  0  0  0  0  0  0  0
  -24.9572  -23.3704   25.4787 C   0  0  0  0  0  0  0  0  0  0  0  0
  -31.7551  -23.9927   20.2575 C   0  0  0  0  0  0  0  0  0  0  0  0
  -25.1068  -16.9305   22.8062 C   0  0  0  0  0  0  0  0  0  0  0  0
  -24.4293  -15.1693   21.0896 C   0  0  0  0  0  0  0  0  0  0  0  0
  -25.3581  -34.8085   23.7807 C   0  0  0  0  0  0  0  0  0  0  0  0
  -25.2258  -29.2393   20.1559 C   0  0  0  0  0  0  0  0  0  0  0  0
  -25.6636  -33.4458   23.6020 C   0  0  0  0  0  0  0  0  0  0  0  0
  -24.9911  -27.9791   20.7242 C   0  0  0  0  0  0  0  0  0  0  0  0
  -31.5771  -23.6567   18.9336 C   0  0  0  0  0  0  0  0  0  0  0  0
  -30.6727  -24.5944   18.3770 C   0  0  0  0  0  0  0  0  0  0  0  0
  -24.5937  -18.8259   24.7878 C   0  0  0  0  0  0  0  0  0  0  0  0
  -27.2178  -27.2740   20.0498 C   0  0  0  0  0  0  0  0  0  0  0  0
  -25.0084  -20.9628   25.6733 C   0  0  0  0  0  0  0  0  0  0  0  0
  -26.3513  -23.4027   25.5119 C   0  0  0  0  0  0  0  0  0  0  0  0
  -24.2857  -22.1504   25.5593 C   0  0  0  0  0  0  0  0  0  0  0  0
  -25.3722  -15.9521   21.7823 C   0  0  0  0  0  0  0  0  0  0  0  0
  -30.3257  -25.4751   19.3777 C   0  0  0  0  0  0  0  0  0  0  0  0
  -25.1815  -14.4057   20.2307 C   0  0  0  0  0  0  0  0  0  0  0  0
  -23.0011  -15.1354   21.2115 C   0  0  0  0  0  0  0  0  0  0  0  0
  -23.6858  -30.4743   22.6473 C   0  0  0  0  0  0  0  0  0  0  0  0
  -21.3215  -28.4741   21.6820 C   0  0  0  0  0  0  0  0  0  0  0  0
  -20.4297  -25.6400   20.0029 C   0  0  0  0  0  0  0  0  0  0  0  0
  -30.5862  -15.1654   17.7684 C   0  0  0  0  0  0  0  0  0  0  0  0
  -24.0561  -35.2554   24.3971 C   0  0  0  0  0  0  0  0  0  0  0  0
  -24.1552  -30.2956   20.1767 C   0  0  0  0  0  0  0  0  0  0  0  0
  -23.6873  -27.6441   21.3997 C   0  0  0  0  0  0  0  0  0  0  0  0
  -22.9762  -34.1764   24.3887 C   0  0  0  0  0  0  0  0  0  0  0  0
  -29.5202  -12.4372   19.7927 C   0  0  0  0  0  0  0  0  0  0  0  0
  -23.5470  -32.8461   24.8694 C   0  0  0  0  0  0  0  0  0  0  0  0
  -28.2512  -12.9580   20.4696 C   0  0  0  0  0  0  0  0  0  0  0  0
  -30.5678  -13.5371   19.6352 C   0  0  0  0  0  0  0  0  0  0  0  0
  -28.8209  -15.2754   19.6307 C   0  0  0  0  0  0  0  0  0  0  0  0
  -24.6670  -32.3589   23.9420 C   0  0  1  0  0  0  0  0  0  0  0  0
  -23.1411  -30.0964   21.2989 C   0  0  1  0  0  0  0  0  0  0  0  0
  -27.7134  -14.2158   19.7610 C   0  0  2  0  0  0  0  0  0  0  0  0
  -30.1892  -24.6245   16.9812 C   0  0  0  0  0  0  0  0  0  0  0  0
  -30.0226  -25.0030   22.7785 C   0  0  0  0  0  0  0  0  0  0  0  0
  -18.4282  -24.2431   19.4200 C   0  0  0  0  0  0  0  0  0  0  0  0
  -21.2720  -27.3635   24.5235 C   0  0  0  0  0  0  0  0  0  0  0  0
  -19.9873  -25.3967   23.6579 C   0  0  0  0  0  0  0  0  0  0  0  0
  -19.0175  -27.6889   23.4912 C   0  0  0  0  0  0  0  0  0  0  0  0
  -20.8459  -26.0470   17.1012 C   0  0  0  0  0  0  0  0  0  0  0  0
  -32.2164  -22.5243   18.2342 C   0  0  0  0  0  0  0  0  0  0  0  0
  -29.4058  -26.6601   19.3486 C   0  0  0  0  0  0  0  0  0  1  0  0
  -31.4988  -17.9525   16.2103 C   0  0  0  0  0  0  0  0  0  0  0  0
  -30.9295  -19.1189   17.0265 C   0  0  0  0  0  0  0  0  0  0  0  0
  -30.9079  -25.7577   21.8017 C   0  0  0  0  0  0  0  0  0  0  0  0
  -30.4655  -16.8583   15.9578 C   0  0  0  0  0  0  0  0  0  0  0  0
  -31.9236  -20.2563   17.2296 C   0  0  0  0  0  0  0  0  0  0  0  0
  -20.9414  -27.0444   21.9829 C   0  0  1  0  0  0  0  0  0  0  0  0
  -19.3409  -25.3766   18.9785 C   0  0  2  0  0  0  0  0  0  0  0  0
  -20.3300  -26.8800   23.4029 C   0  0  0  0  0  0  0  0  0  0  0  0
  -26.6276  -15.7081   21.3970 N   0  0  0  0  0  0  0  0  0  0  0  0
  -30.9899  -25.0998   20.5162 N   0  0  0  0  0  0  0  0  0  0  0  0
  -26.4788  -14.7634   20.4529 N   0  0  0  0  0  0  0  0  0  0  0  0
  -22.6741  -28.7123   21.3996 N   0  0  0  0  0  0  0  0  0  0  0  0
  -29.9944  -14.7006   18.9545 N   0  0  0  0  0  0  0  0  0  0  0  0
  -24.8532  -13.4699   19.3148 N   0  0  0  0  0  0  0  0  0  0  0  0
  -22.3897  -15.9857   22.1429 N   0  0  0  0  0  0  0  0  0  0  0  0
  -24.1105  -31.7863   22.7350 N   0  0  0  0  0  0  0  0  0  0  0  0
  -20.0606  -26.6197   20.9002 N   0  0  0  0  0  0  0  0  0  0  0  0
  -29.9765  -16.2688   17.1842 N   0  0  0  0  0  0  0  0  0  0  0  0
  -19.9428  -25.0109   17.6651 N   0  3  0  0  0  0  0  0  0  0  0  0
  -31.2984  -21.3716   17.9823 N   0  3  0  0  0  0  0  0  0  0  0  0
  -22.2895  -14.3620   20.5266 O   0  0  0  0  0  0  0  0  0  0  0  0
  -23.7171  -29.6379   23.5423 O   0  0  0  0  0  0  0  0  0  0  0  0
  -20.4492  -29.3462   21.6900 O   0  0  0  0  0  0  0  0  0  0  0  0
  -21.4992  -25.0344   20.0090 O   0  0  0  0  0  0  0  0  0  0  0  0
  -31.5809  -14.6329   17.2644 O   0  0  0  0  0  0  0  0  0  0  0  0
  -24.3432  -19.7509   25.7543 O   0  0  0  0  0  0  0  0  0  0  0  0
  -28.1852  -26.3181   20.0040 O   0  0  0  0  0  0  0  0  0  1  0  0
  -26.9962  -24.5742   25.4360 F   0  0  0  0  0  0  0  0  0  0  0  0
  -22.9463  -22.1258   25.5280 F   0  0  0  0  0  0  0  0  0  0  0  0
  1  2  1  0  0  0  0
  1  5  2  0  0  0  0
  2  6  2  0  0  0  0
  3  8  2  0  0  0  0
  3 16  1  0  0  0  0
  4  9  1  0  0  0  0
  4 16  2  0  0  0  0
  5 18  1  0  0  0  0
  6 20  1  0  0  0  0
  7 10  2  0  0  0  0
  7 19  1  0  0  0  0
  8 24  1  0  0  0  0
  9 24  2  0  0  0  0
 10 25  1  0  0  0  0
 11 12  2  0  0  0  0
 11 26  1  0  0  0  0
 12 27  1  0  0  0  0
 13 21  1  0  0  0  0
 13 25  2  0  0  0  0
 14 27  2  0  0  0  0
 14 28  1  0  0  0  0
 15 22  2  0  0  0  0
 15 67  1  0  0  0  0
 16 29  1  0  0  0  0
 17 29  1  0  0  0  0
 17 31  2  0  0  0  0
 17 32  1  0  0  0  0
 18 20  2  0  0  0  0
 18 37  1  0  0  0  0
 19 21  2  0  0  0  0
 19 38  1  0  0  0  0
 20 46  1  0  0  0  0
 21 39  1  0  0  0  0
 22 23  1  0  0  0  0
 22 56  1  0  0  0  0
 23 30  2  0  0  0  0
 23 49  1  0  0  0  0
 24 83  1  0  0  0  0
 25 84  1  0  0  0  0
 26 28  2  0  0  0  0
 26 83  1  0  0  0  0
 27 85  1  0  0  0  0
 28 86  1  0  0  0  0
 29 66  2  0  0  0  0
 30 57  1  0  0  0  0
 30 67  1  0  0  0  0
 31 68  1  0  0  0  0
 31 71  1  0  0  0  0
 32 72  1  0  0  0  0
 32 78  2  0  0  0  0
 33 47  1  0  0  0  0
 33 73  1  0  0  0  0
 33 79  2  0  0  0  0
 34 63  1  0  0  0  0
 34 69  1  0  0  0  0
 34 80  2  0  0  0  0
 35 64  1  0  0  0  0
 35 74  1  0  0  0  0
 35 81  2  0  0  0  0
 36 70  1  0  0  0  0
 36 75  1  0  0  0  0
 36 82  2  0  0  0  0
 37 40  1  0  0  0  0
 38 47  1  0  0  0  0
 39 69  1  0  0  0  0
 40 42  1  0  0  0  0
 41 43  1  0  0  0  0
 41 44  1  0  0  0  0
 42 46  1  0  0  0  0
 43 48  1  0  0  0  0
 44 70  1  0  0  0  0
 45 48  1  0  0  0  0
 45 70  1  0  0  0  0
 46 73  1  0  0  0  0
 47 69  1  0  0  0  0
 48 68  1  0  0  0  0
 50 60  1  0  0  0  0
 51 64  1  0  0  0  0
 52 65  1  0  0  0  0
 53 65  1  0  0  0  0
 54 65  1  0  0  0  0
 55 76  1  0  0  0  0
 56 77  1  0  0  0  0
 57 84  1  0  0  0  0
 58 59  1  0  0  0  0
 58 61  1  0  0  0  0
 59 62  1  0  0  0  0
 60 67  1  0  0  0  0
 61 75  1  0  0  0  0
 62 77  1  0  0  0  0
 63 65  1  0  0  0  0
 63 74  1  0  0  0  0
 64 76  1  0  0  0  0
 66 68  1  0  0  0  0
M  CHG  2  76   1  77   1
M  ISO  4  36 100  57 101  75 100  84 101
M  END
> <Batch ID>
0035

> <Smiles>
CCn1cc(CNCCCC[100NH:0][100C:0](=O)N2CCCC(n3nc(-c4ccc(Oc5ccc(F)cc5F)cc4)c(C(N)=O)c3N)C2)c(C)c1[101CH2:1][101O:1]c1ccc2c(c1)CN(C(=O)C(NC(=O)C(C)NC)C(C)(C)C)C(C(=O)NC1CCCc3ccccc31)C2

> <Shape>
0.248

> <Color>
0.071

> <Negative vol penalty>
0.000

$$$$

  -OEChem-04052316533D

 84 92  0     1  0  0  0  0  0999 V2000
  -21.8014   -8.9103   21.0705 C   0  0  0  0  0  0  0  0  0  0  0  0
  -22.0755  -10.1328   21.6752 C   0  0  0  0  0  0  0  0  0  0  0  0
  -26.4368  -28.7276   21.9755 C   0  0  0  0  0  0  0  0  0  0  0  0
  -25.0054  -27.7556   20.2893 C   0  0  0  0  0  0  0  0  0  0  0  0
  -22.8474   -8.1111   20.6110 C   0  0  0  0  0  0  0  0  0  0  0  0
  -23.3959  -10.5564   21.8219 C   0  0  0  0  0  0  0  0  0  0  0  0
  -24.0277  -15.4198   20.5598 C   0  0  0  0  0  0  0  0  0  0  0  0
  -27.5561  -28.2097   21.3239 C   0  0  0  0  0  0  0  0  0  0  0  0
  -26.1247  -27.2377   19.6377 C   0  0  0  0  0  0  0  0  0  0  0  0
  -23.6250  -16.3766   21.4905 C   0  0  0  0  0  0  0  0  0  0  0  0
  -28.2291  -24.6168   20.0027 C   0  0  0  0  0  0  0  0  0  0  0  0
  -28.1701  -23.2934   19.5660 C   0  0  0  0  0  0  0  0  0  0  0  0
  -25.9161  -16.6457   22.1960 C   0  0  0  0  0  0  0  0  0  0  0  0
  -28.5189  -24.0285   17.2911 C   0  0  0  0  0  0  0  0  0  0  0  0
  -25.1614  -28.5005   21.4582 C   0  0  0  0  0  0  0  0  0  0  0  0
  -23.4021  -30.2893   21.9194 C   0  0  0  0  0  0  0  0  0  0  0  0
  -24.1808   -8.5295   20.7434 C   0  0  0  0  0  0  0  0  0  0  0  0
  -25.3784  -15.0603   20.4476 C   0  0  0  0  0  0  0  0  0  0  0  0
  -24.4608   -9.7614   21.3649 C   0  0  0  0  0  0  0  0  0  0  0  0
  -26.3336  -15.6860   21.2614 C   0  0  0  0  0  0  0  0  0  0  0  0
  -27.4000  -27.4647   20.1550 C   0  0  0  0  0  0  0  0  0  0  0  0
  -24.5689  -16.9877   22.3108 C   0  0  0  0  0  0  0  0  0  0  0  0
  -28.4329  -25.6461   19.0836 C   0  0  0  0  0  0  0  0  0  0  0  0
  -28.3150  -22.9992   18.2103 C   0  0  0  0  0  0  0  0  0  0  0  0
  -28.5779  -25.3519   17.7278 C   0  0  0  0  0  0  0  0  0  0  0  0
  -24.0048  -29.0348   22.1312 C   0  0  0  0  0  0  0  0  0  0  0  0
  -22.3471  -30.3160   22.7985 C   0  0  0  0  0  0  0  0  0  0  0  0
  -23.7635  -31.3366   21.0095 C   0  0  0  0  0  0  0  0  0  0  0  0
  -27.0252  -12.3719   20.8530 C   0  0  0  0  0  0  0  0  0  0  0  0
  -29.4768  -14.1597   19.7059 C   0  0  0  0  0  0  0  0  0  0  0  0
  -30.8226  -17.2577   19.2177 C   0  0  0  0  0  0  0  0  0  0  0  0
  -19.4330  -25.5927   25.3940 C   0  0  0  0  0  0  0  0  0  0  0  0
  -25.2802   -7.6098   20.2739 C   0  0  0  0  0  0  0  0  0  0  0  0
  -25.8000  -14.0458   19.4202 C   0  0  0  0  0  0  0  0  0  0  0  0
  -27.7988  -15.3501   21.1662 C   0  0  0  0  0  0  0  0  0  0  0  0
  -26.6332   -8.3018   20.1300 C   0  0  0  0  0  0  0  0  0  0  0  0
  -20.9236  -28.5694   27.0124 C   0  0  0  0  0  0  0  0  0  0  0  0
  -26.9273   -9.1596   21.3566 C   0  0  0  0  0  0  0  0  0  0  0  0
  -22.3210  -22.4353   23.4821 C   0  0  0  0  0  0  0  0  0  0  0  0
  -21.1169  -23.3385   23.2338 C   0  0  0  0  0  0  0  0  0  0  0  0
  -21.8845  -29.0843   25.9422 C   0  0  0  0  0  0  0  0  0  0  0  0
  -20.7734  -20.5423   24.0916 C   0  0  0  0  0  0  0  0  0  0  0  0
  -20.7137  -27.0618   26.9083 C   0  0  0  0  0  0  0  0  0  0  0  0
  -21.2333  -27.1216   24.4916 C   0  0  0  0  0  0  0  0  0  0  0  0
  -25.8788  -10.2667   21.5198 C   0  0  1  0  0  0  0  0  0  0  0  0
  -27.1348  -13.3834   19.7473 C   0  0  1  0  0  0  0  0  0  0  0  0
  -21.9766  -20.9634   23.2393 C   0  0  2  0  0  0  0  0  0  0  0  0
  -19.9024  -22.9290   24.0832 C   0  0  2  0  0  0  0  0  0  0  0  0
  -19.5474  -21.4407   23.8475 C   0  0  2  0  0  0  0  0  0  0  0  0
  -21.4303  -28.6442   24.5396 C   0  0  2  0  0  0  0  0  0  0  0  0
  -18.3891  -20.9672   24.7304 C   0  0  0  0  0  0  0  0  0  0  0  0
  -16.9017  -27.5511   21.9149 C   0  0  0  0  0  0  0  0  0  0  0  0
  -32.4354  -18.9910   18.3860 C   0  0  0  0  0  0  0  0  0  0  0  0
  -31.0608  -13.3525   22.1857 C   0  0  0  0  0  0  0  0  0  0  0  0
  -32.6512  -15.2223   21.6931 C   0  0  0  0  0  0  0  0  0  0  0  0
  -32.3795  -13.3556   20.0608 C   0  0  0  0  0  0  0  0  0  0  0  0
  -29.3683  -17.5493   16.6567 C   0  0  0  0  0  0  0  0  0  0  0  0
  -23.1753  -20.0782   23.5292 C   0  0  0  0  0  0  0  0  0  0  0  0
  -18.7314  -23.8676   23.7780 C   0  0  0  0  0  0  0  0  0  0  0  0
  -17.2587  -26.5582   23.0122 C   0  0  0  0  0  0  0  0  0  0  0  0
  -18.7449  -26.2220   23.0417 C   0  0  0  0  0  0  0  0  0  0  0  0
  -23.0289  -18.7025   22.8970 C   0  0  0  0  0  0  0  0  0  1  0  0
  -30.5257  -15.0551   20.3200 C   0  0  1  0  0  0  0  0  0  0  0  0
  -31.4480  -17.9028   17.9941 C   0  0  2  0  0  0  0  0  0  0  0  0
  -31.6265  -14.2515   21.0683 C   0  0  0  0  0  0  0  0  0  0  0  0
  -23.3844  -28.3167   23.0711 N   0  0  0  0  0  0  0  0  0  0  0  0
  -22.3809  -29.1226   23.4578 N   0  0  0  0  0  0  0  0  0  0  0  0
  -28.1604  -14.3475   20.1506 N   0  0  0  0  0  0  0  0  0  0  0  0
  -20.3247  -26.6660   25.5543 N   0  0  0  0  0  0  0  0  0  0  0  0
  -21.4031  -31.2438   23.0640 N   0  0  0  0  0  0  0  0  0  0  0  0
  -24.8750  -31.1449   20.1775 N   0  0  0  0  0  0  0  0  0  0  0  0
  -26.1359  -11.3470   20.5918 N   0  0  0  0  0  0  0  0  0  0  0  0
  -31.0297  -15.8946   19.2385 N   0  0  0  0  0  0  0  0  0  0  0  0
  -19.0745  -25.2496   24.0815 N   0  0  0  0  0  0  0  0  0  0  0  0
  -30.3942  -18.5119   17.1341 N   0  3  0  0  0  0  0  0  0  0  0  0
  -23.1297  -32.4174   20.9479 O   0  0  0  0  0  0  0  0  0  0  0  0
  -27.6988  -12.5102   21.8673 O   0  0  0  0  0  0  0  0  0  0  0  0
  -29.8119  -13.3293   18.8575 O   0  0  0  0  0  0  0  0  0  0  0  0
  -30.2147  -17.8993   20.0717 O   0  0  0  0  0  0  0  0  0  0  0  0
  -18.9756  -24.9824   26.3688 O   0  0  0  0  0  0  0  0  0  0  0  0
  -28.4920  -26.9594   19.5188 O   0  0  0  0  0  0  0  0  0  0  0  0
  -24.1785  -17.9214   23.2205 O   0  0  0  0  0  0  0  0  0  1  0  0
  -28.2599  -21.7281   17.7913 F   0  0  0  0  0  0  0  0  0  0  0  0
  -28.7751  -26.3364   16.8403 F   0  0  0  0  0  0  0  0  0  0  0  0
  1  2  1  0  0  0  0
  1  5  2  0  0  0  0
  2  6  2  0  0  0  0
  3  8  2  0  0  0  0
  3 15  1  0  0  0  0
  4  9  1  0  0  0  0
  4 15  2  0  0  0  0
  5 17  1  0  0  0  0
  6 19  1  0  0  0  0
  7 10  2  0  0  0  0
  7 18  1  0  0  0  0
  8 21  1  0  0  0  0
  9 21  2  0  0  0  0
 10 22  1  0  0  0  0
 11 12  2  0  0  0  0
 11 23  1  0  0  0  0
 12 24  1  0  0  0  0
 13 20  1  0  0  0  0
 13 22  2  0  0  0  0
 14 24  2  0  0  0  0
 14 25  1  0  0  0  0
 15 26  1  0  0  0  0
 16 26  1  0  0  0  0
 16 27  2  0  0  0  0
 16 28  1  0  0  0  0
 17 19  2  0  0  0  0
 17 33  1  0  0  0  0
 18 20  2  0  0  0  0
 18 34  1  0  0  0  0
 19 45  1  0  0  0  0
 20 35  1  0  0  0  0
 21 81  1  0  0  0  0
 22 82  1  0  0  0  0
 23 25  2  0  0  0  0
 23 81  1  0  0  0  0
 24 83  1  0  0  0  0
 25 84  1  0  0  0  0
 26 66  2  0  0  0  0
 27 67  1  0  0  0  0
 27 70  1  0  0  0  0
 28 71  1  0  0  0  0
 28 76  2  0  0  0  0
 29 46  1  0  0  0  0
 29 72  1  0  0  0  0
 29 77  2  0  0  0  0
 30 63  1  0  0  0  0
 30 68  1  0  0  0  0
 30 78  2  0  0  0  0
 31 64  1  0  0  0  0
 31 73  1  0  0  0  0
 31 79  2  0  0  0  0
 32 69  1  0  0  0  0
 32 74  1  0  0  0  0
 32 80  2  0  0  0  0
 33 36  1  0  0  0  0
 34 46  1  0  0  0  0
 35 68  1  0  0  0  0
 36 38  1  0  0  0  0
 37 41  1  0  0  0  0
 37 43  1  0  0  0  0
 38 45  1  0  0  0  0
 39 40  1  0  0  0  0
 39 47  1  0  0  0  0
 40 48  1  0  0  0  0
 41 50  1  0  0  0  0
 42 47  1  0  0  0  0
 42 49  1  0  0  0  0
 43 69  1  0  0  0  0
 44 50  1  0  0  0  0
 44 69  1  0  0  0  0
 45 72  1  0  0  0  0
 46 68  1  0  0  0  0
 47 58  1  0  0  0  0
 48 49  1  0  0  0  0
 48 59  1  0  0  0  0
 49 51  1  0  0  0  0
 50 67  1  0  0  0  0
 52 60  1  0  0  0  0
 53 64  1  0  0  0  0
 54 65  1  0  0  0  0
 55 65  1  0  0  0  0
 56 65  1  0  0  0  0
 57 75  1  0  0  0  0
 58 62  1  0  0  0  0
 59 74  1  0  0  0  0
 60 61  1  0  0  0  0
 61 74  1  0  0  0  0
 62 82  1  0  0  0  0
 63 65  1  0  0  0  0
 63 73  1  0  0  0  0
 64 75  1  0  0  0  0
 66 67  1  0  0  0  0
M  CHG  1  75   1
M  ISO  4  32 100  62 101  74 100  82 101
M  END
> <Batch ID>
0035

> <Smiles>
CCC[100N:0](CC1CCC(C[101CH2:1][101O:1]c2ccc3c(c2)CN(C(=O)C(NC(=O)C(C)NC)C(C)(C)C)C(C(=O)NC2CCCc4ccccc42)C3)CC1C)[100C:0](=O)N1CCCC(n2nc(-c3ccc(Oc4ccc(F)cc4F)cc3)c(C(N)=O)c2N)C1

> <Shape>
0.232

> <Color>
0.080

> <Negative vol penalty>
0.000

$$$$

  -OEChem-04052316533D

 84 92  0     1  0  0  0  0  0999 V2000
  -26.4153  -35.3494   22.7019 C   0  0  0  0  0  0  0  0  0  0  0  0
  -26.8930  -34.0510   22.5553 C   0  0  0  0  0  0  0  0  0  0  0  0
  -21.3052  -17.3668   23.7547 C   0  0  0  0  0  0  0  0  0  0  0  0
  -22.3792  -19.1621   22.5463 C   0  0  0  0  0  0  0  0  0  0  0  0
  -25.1319  -35.5665   23.2013 C   0  0  0  0  0  0  0  0  0  0  0  0
  -26.0878  -32.9690   22.9091 C   0  0  0  0  0  0  0  0  0  0  0  0
  -26.1789  -29.2678   19.4540 C   0  0  0  0  0  0  0  0  0  0  0  0
  -21.0019  -18.2472   24.7932 C   0  0  0  0  0  0  0  0  0  0  0  0
  -22.0758  -20.0426   23.5847 C   0  0  0  0  0  0  0  0  0  0  0  0
  -27.2922  -28.4285   19.4492 C   0  0  0  0  0  0  0  0  0  0  0  0
  -19.6281  -20.1028   27.6011 C   0  0  0  0  0  0  0  0  0  0  0  0
  -18.3406  -20.0562   28.1356 C   0  0  0  0  0  0  0  0  0  0  0  0
  -26.0346  -26.7634   20.6596 C   0  0  0  0  0  0  0  0  0  0  0  0
  -29.3111  -19.9769   17.3790 C   0  0  0  0  0  0  0  0  0  0  0  0
  -30.3409  -19.6429   19.5388 C   0  0  0  0  0  0  0  0  0  0  0  0
  -17.4214  -20.6026   25.9691 C   0  0  0  0  0  0  0  0  0  0  0  0
  -21.9939  -17.8242   22.6312 C   0  0  0  0  0  0  0  0  0  0  0  0
  -21.5183  -16.6277   20.4290 C   0  0  0  0  0  0  0  0  0  0  0  0
  -24.3069  -34.4863   23.5524 C   0  0  0  0  0  0  0  0  0  0  0  0
  -24.9865  -28.8649   20.0722 C   0  0  0  0  0  0  0  0  0  0  0  0
  -24.7925  -33.1719   23.4150 C   0  0  0  0  0  0  0  0  0  0  0  0
  -24.9068  -27.5984   20.6686 C   0  0  0  0  0  0  0  0  0  0  0  0
  -29.9297  -20.4972   18.5157 C   0  0  0  0  0  0  0  0  0  0  0  0
  -29.1037  -18.6022   17.2653 C   0  0  0  0  0  0  0  0  0  0  0  0
  -29.5149  -17.7479   18.2884 C   0  0  0  0  0  0  0  0  0  0  0  0
  -21.3872  -19.5851   24.7082 C   0  0  0  0  0  0  0  0  0  0  0  0
  -27.2210  -27.1773   20.0546 C   0  0  0  0  0  0  0  0  0  0  0  0
  -19.8123  -20.3994   26.2506 C   0  0  0  0  0  0  0  0  0  0  0  0
  -17.2372  -20.3060   27.3196 C   0  0  0  0  0  0  0  0  0  0  0  0
  -18.7090  -20.6492   25.4346 C   0  0  0  0  0  0  0  0  0  0  0  0
  -30.1335  -18.2682   19.4251 C   0  0  0  0  0  0  0  0  0  0  0  0
  -22.3080  -16.9151   21.5584 C   0  0  0  0  0  0  0  0  0  0  0  0
  -22.2547  -15.7107   19.7195 C   0  0  0  0  0  0  0  0  0  0  0  0
  -20.2339  -17.1434   20.0548 C   0  0  0  0  0  0  0  0  0  0  0  0
  -23.2433  -29.9442   22.5012 C   0  0  0  0  0  0  0  0  0  0  0  0
  -21.1839  -27.6279   21.5444 C   0  0  0  0  0  0  0  0  0  0  0  0
  -20.7089  -24.6625   19.9233 C   0  0  0  0  0  0  0  0  0  0  0  0
  -28.1157  -14.5156   19.4539 C   0  0  0  0  0  0  0  0  0  0  0  0
  -22.9443  -34.7720   24.1324 C   0  0  0  0  0  0  0  0  0  0  0  0
  -23.7863  -29.7711   20.0454 C   0  0  0  0  0  0  0  0  0  0  0  0
  -23.6437  -27.1105   21.3281 C   0  0  0  0  0  0  0  0  0  0  0  0
  -22.0159  -33.5603   24.1319 C   0  0  0  0  0  0  0  0  0  0  0  0
  -25.5061  -12.2519   20.3156 C   0  0  0  0  0  0  0  0  0  0  0  0
  -22.7457  -32.3283   24.6577 C   0  0  0  0  0  0  0  0  0  0  0  0
  -24.3193  -13.1644   20.6299 C   0  0  0  0  0  0  0  0  0  0  0  0
  -26.8268  -12.8646   20.7766 C   0  0  0  0  0  0  0  0  0  0  0  0
  -25.8986  -15.1400   20.5900 C   0  0  0  0  0  0  0  0  0  0  0  0
  -23.9399  -31.9714   23.7645 C   0  0  1  0  0  0  0  0  0  0  0  0
  -22.7827  -29.4664   21.1532 C   0  0  1  0  0  0  0  0  0  0  0  0
  -24.5506  -14.5899   20.0935 C   0  0  2  0  0  0  0  0  0  0  0  0
  -28.4375  -18.0729   16.0373 C   0  0  0  0  0  0  0  0  0  0  0  0
  -18.9213  -23.0008   19.3396 C   0  0  0  0  0  0  0  0  0  0  0  0
  -21.2181  -26.5872   24.4124 C   0  0  0  0  0  0  0  0  0  0  0  0
  -20.2220  -24.4485   23.5745 C   0  0  0  0  0  0  0  0  0  0  0  0
  -18.9636  -26.5885   23.3300 C   0  0  0  0  0  0  0  0  0  0  0  0
  -21.1317  -25.0528   17.0203 C   0  0  0  0  0  0  0  0  0  0  0  0
  -30.1545  -21.9833   18.6374 C   0  0  0  0  0  0  0  0  0  0  0  0
  -29.2843  -16.2751   18.1509 C   0  0  0  0  0  0  0  0  0  0  0  0
  -28.9962  -22.7321   19.3058 C   0  0  0  0  0  0  0  0  0  0  0  0
  -29.2085  -24.2460   19.3506 C   0  0  0  0  0  0  0  0  0  0  0  0
  -28.0579  -24.9512   20.0559 C   0  0  0  0  0  0  0  0  0  1  0  0
  -20.9882  -26.1680   21.8752 C   0  0  1  0  0  0  0  0  0  0  0  0
  -19.6868  -24.2340   18.8859 C   0  0  2  0  0  0  0  0  0  0  0  0
  -20.3725  -25.9577   23.2874 C   0  0  0  0  0  0  0  0  0  0  0  0
  -23.4579  -16.2357   21.5700 N   0  0  0  0  0  0  0  0  0  0  0  0
  -23.3961  -15.5122   20.4391 N   0  0  0  0  0  0  0  0  0  0  0  0
  -22.4993  -28.0355   21.2812 N   0  0  0  0  0  0  0  0  0  0  0  0
  -26.9855  -14.2153   20.2320 N   0  0  0  0  0  0  0  0  0  0  0  0
  -22.0306  -15.0629   18.5565 N   0  0  0  0  0  0  0  0  0  0  0  0
  -19.6179  -18.0784   20.8978 N   0  0  0  0  0  0  0  0  0  0  0  0
  -23.4901  -31.3024   22.5626 N   0  0  0  0  0  0  0  0  0  0  0  0
  -20.1947  -25.6058   20.7877 N   0  0  0  0  0  0  0  0  0  0  0  0
  -28.1854  -15.8167   18.9714 N   0  0  0  0  0  0  0  0  0  0  0  0
  -20.3603  -23.9203   17.5940 N   0  3  0  0  0  0  0  0  0  0  0  0
  -19.6425  -16.7735   19.0122 O   0  0  0  0  0  0  0  0  0  0  0  0
  -23.3645  -29.1403   23.4182 O   0  0  0  0  0  0  0  0  0  0  0  0
  -20.2046  -28.3774   21.5133 O   0  0  0  0  0  0  0  0  0  0  0  0
  -21.8482  -24.2034   19.9652 O   0  0  0  0  0  0  0  0  0  0  0  0
  -28.9948  -13.6841   19.2031 O   0  0  0  0  0  0  0  0  0  0  0  0
  -21.0911  -20.4445   25.7213 O   0  0  0  0  0  0  0  0  0  0  0  0
  -28.3064  -26.3564   20.0519 O   0  0  0  0  0  0  0  0  0  1  0  0
  -16.0008  -20.2597   27.8327 F   0  0  0  0  0  0  0  0  0  0  0  0
  -18.8796  -20.9335   24.1362 F   0  0  0  0  0  0  0  0  0  0  0  0
  -30.6584  -17.2439   20.7122 Cl  0  0  0  0  0  0  0  0  0  0  0  0
  1  2  1  0  0  0  0
  1  5  2  0  0  0  0
  2  6  2  0  0  0  0
  3  8  2  0  0  0  0
  3 17  1  0  0  0  0
  4  9  1  0  0  0  0
  4 17  2  0  0  0  0
  5 19  1  0  0  0  0
  6 21  1  0  0  0  0
  7 10  2  0  0  0  0
  7 20  1  0  0  0  0
  8 26  1  0  0  0  0
  9 26  2  0  0  0  0
 10 27  1  0  0  0  0
 11 12  2  0  0  0  0
 11 28  1  0  0  0  0
 12 29  1  0  0  0  0
 13 22  1  0  0  0  0
 13 27  2  0  0  0  0
 14 23  1  0  0  0  0
 14 24  2  0  0  0  0
 15 23  2  0  0  0  0
 15 31  1  0  0  0  0
 16 29  2  0  0  0  0
 16 30  1  0  0  0  0
 17 32  1  0  0  0  0
 18 32  1  0  0  0  0
 18 33  2  0  0  0  0
 18 34  1  0  0  0  0
 19 21  2  0  0  0  0
 19 39  1  0  0  0  0
 20 22  2  0  0  0  0
 20 40  1  0  0  0  0
 21 48  1  0  0  0  0
 22 41  1  0  0  0  0
 23 57  1  0  0  0  0
 24 25  1  0  0  0  0
 24 51  1  0  0  0  0
 25 31  2  0  0  0  0
 25 58  1  0  0  0  0
 26 80  1  0  0  0  0
 27 81  1  0  0  0  0
 28 30  2  0  0  0  0
 28 80  1  0  0  0  0
 29 82  1  0  0  0  0
 30 83  1  0  0  0  0
 31 84  1  0  0  0  0
 32 65  2  0  0  0  0
 33 66  1  0  0  0  0
 33 69  1  0  0  0  0
 34 70  1  0  0  0  0
 34 75  2  0  0  0  0
 35 49  1  0  0  0  0
 35 71  1  0  0  0  0
 35 76  2  0  0  0  0
 36 62  1  0  0  0  0
 36 67  1  0  0  0  0
 36 77  2  0  0  0  0
 37 63  1  0  0  0  0
 37 72  1  0  0  0  0
 37 78  2  0  0  0  0
 38 68  1  0  0  0  0
 38 73  1  0  0  0  0
 38 79  2  0  0  0  0
 39 42  1  0  0  0  0
 40 49  1  0  0  0  0
 41 67  1  0  0  0  0
 42 44  1  0  0  0  0
 43 45  1  0  0  0  0
 43 46  1  0  0  0  0
 44 48  1  0  0  0  0
 45 50  1  0  0  0  0
 46 68  1  0  0  0  0
 47 50  1  0  0  0  0
 47 68  1  0  0  0  0
 48 71  1  0  0  0  0
 49 67  1  0  0  0  0
 50 66  1  0  0  0  0
 52 63  1  0  0  0  0
 53 64  1  0  0  0  0
 54 64  1  0  0  0  0
 55 64  1  0  0  0  0
 56 74  1  0  0  0  0
 57 59  1  0  0  0  0
 58 73  1  0  0  0  0
 59 60  1  0  0  0  0
 60 61  1  0  0  0  0
 61 81  1  0  0  0  0
 62 64  1  0  0  0  0
 62 72  1  0  0  0  0
 63 74  1  0  0  0  0
 65 66  1  0  0  0  0
M  CHG  1  74   1
M  ISO  4  38 100  61 101  73 100  81 101
M  END
> <Batch ID>
0035

> <Smiles>
CNC(C)C(=O)NC(C(=O)N1Cc2cc([101O:1][101CH2:1]CCCc3cc(C)c(C[100NH:0][100C:0](=O)N4CCCC(n5nc(-c6ccc(Oc7ccc(F)cc7F)cc6)c(C(N)=O)c5N)C4)c(Cl)c3)ccc2CC1C(=O)NC1CCCc2ccccc21)C(C)(C)C

> <Shape>
0.224

> <Color>
0.059

> <Negative vol penalty>
0.000

$$$$

  -OEChem-04052316533D

 81 89  0     1  0  0  0  0  0999 V2000
  -18.4225  -26.7253   22.4783 C   0  0  0  0  0  0  0  0  0  0  0  0
  -19.2120  -26.6175   21.3379 C   0  0  0  0  0  0  0  0  0  0  0  0
  -26.4017  -14.0983   21.9201 C   0  0  0  0  0  0  0  0  0  0  0  0
  -26.1597  -13.7603   19.5402 C   0  0  0  0  0  0  0  0  0  0  0  0
  -18.8999  -27.4140   23.5926 C   0  0  0  0  0  0  0  0  0  0  0  0
  -20.4790  -27.1993   21.3108 C   0  0  0  0  0  0  0  0  0  0  0  0
  -23.9854  -24.1275   19.3324 C   0  0  0  0  0  0  0  0  0  0  0  0
  -25.5397  -13.0282   22.1598 C   0  0  0  0  0  0  0  0  0  0  0  0
  -25.2977  -12.6901   19.7798 C   0  0  0  0  0  0  0  0  0  0  0  0
  -24.0179  -24.0094   17.9436 C   0  0  0  0  0  0  0  0  0  0  0  0
  -22.0550  -12.2444   20.6267 C   0  0  0  0  0  0  0  0  0  0  0  0
  -20.8852  -12.1727   19.8705 C   0  0  0  0  0  0  0  0  0  0  0  0
  -25.8628  -25.5614   17.8608 C   0  0  0  0  0  0  0  0  0  0  0  0
  -21.5775  -10.0266   19.0033 C   0  0  0  0  0  0  0  0  0  0  0  0
  -27.6203  -22.0461   14.3033 C   0  0  0  0  0  0  0  0  0  0  0  0
  -26.7117  -14.4644   20.6103 C   0  0  0  0  0  0  0  0  0  0  0  0
  -29.0019  -15.5204   20.2265 C   0  0  0  0  0  0  0  0  0  0  0  0
  -20.1772  -27.9962   23.5826 C   0  0  0  0  0  0  0  0  0  0  0  0
  -24.8858  -24.9733   19.9960 C   0  0  0  0  0  0  0  0  0  0  0  0
  -20.9734  -27.8976   22.4256 C   0  0  0  0  0  0  0  0  0  0  0  0
  -25.8414  -25.6865   19.2582 C   0  0  0  0  0  0  0  0  0  0  0  0
  -24.9877  -12.3241   21.0896 C   0  0  0  0  0  0  0  0  0  0  0  0
  -24.9548  -24.7286   17.2073 C   0  0  0  0  0  0  0  0  0  0  0  0
  -22.9862  -11.2073   20.5712 C   0  0  0  0  0  0  0  0  0  0  0  0
  -20.6464  -11.0638   19.0588 C   0  0  0  0  0  0  0  0  0  0  0  0
  -22.7474  -10.0984   19.7595 C   0  0  0  0  0  0  0  0  0  0  0  0
  -27.6016  -15.5701   20.3621 C   0  0  0  0  0  0  0  0  0  0  0  0
  -28.9021  -22.6278   14.3252 C   0  0  0  0  0  0  0  0  0  0  0  0
  -26.7685  -23.1006   14.0822 C   0  0  0  0  0  0  0  0  0  0  0  0
  -29.3717  -16.8241   20.0029 C   0  0  0  0  0  0  0  0  0  0  0  0
  -29.8891  -14.3962   20.2965 C   0  0  0  0  0  0  0  0  0  0  0  0
  -24.6036  -27.5557   21.8277 C   0  0  0  0  0  0  0  0  0  0  0  0
  -27.8055  -27.1760   22.1826 C   0  0  0  0  0  0  0  0  0  0  0  0
  -30.7311  -25.9338   20.9398 C   0  0  0  0  0  0  0  0  0  0  0  0
  -28.6149  -21.7276   17.4479 C   0  0  0  0  0  0  0  0  0  0  0  0
  -20.6312  -28.7712   24.7942 C   0  0  0  0  0  0  0  0  0  0  0  0
  -24.8552  -25.0691   21.4968 C   0  0  0  0  0  0  0  0  0  0  0  0
  -26.8433  -26.5924   19.9245 C   0  0  0  0  0  0  0  0  0  0  0  0
  -22.1340  -29.0380   24.8187 C   0  0  0  0  0  0  0  0  0  0  0  0
  -26.7189  -21.1128   20.3982 C   0  0  0  0  0  0  0  0  0  0  0  0
  -22.6091  -29.5412   23.4593 C   0  0  0  0  0  0  0  0  0  0  0  0
  -26.8900  -19.6115   20.6367 C   0  0  0  0  0  0  0  0  0  0  0  0
  -26.6352  -21.4418   18.9093 C   0  0  0  0  0  0  0  0  0  0  0  0
  -27.9210  -19.4193   18.3348 C   0  0  0  0  0  0  0  0  0  0  0  0
  -22.3630  -28.4939   22.3666 C   0  0  1  0  0  0  0  0  0  0  0  0
  -25.4839  -26.3543   22.0264 C   0  0  1  0  0  0  0  0  0  0  0  0
  -28.0664  -19.0444   19.8196 C   0  0  2  0  0  0  0  0  0  0  0  0
  -33.1885  -25.8150   21.4341 C   0  0  0  0  0  0  0  0  0  0  0  0
  -28.1216  -30.0786   21.2967 C   0  0  0  0  0  0  0  0  0  0  0  0
  -30.5498  -29.6188   20.8957 C   0  0  0  0  0  0  0  0  0  0  0  0
  -29.6035  -29.3995   23.1933 C   0  0  0  0  0  0  0  0  0  0  0  0
  -27.1302  -25.5660   13.7576 C   0  0  0  0  0  0  0  0  0  0  0  0
  -30.6786  -22.9779   21.0769 C   0  0  0  0  0  0  0  0  0  0  0  0
  -30.1924  -21.9486   14.5311 C   0  0  0  0  0  0  0  0  0  0  0  0
  -25.2655  -23.1505   13.9519 C   0  0  0  0  0  0  0  0  0  0  0  0
  -30.6305  -21.8553   16.0056 C   0  0  0  0  0  0  0  0  0  0  0  0
  -24.5742  -23.3694   15.2933 C   0  0  0  0  0  0  0  0  0  1  0  0
  -29.0284  -27.6658   21.4453 C   0  0  1  0  0  0  0  0  0  0  0  0
  -31.8407  -25.1282   21.5911 C   0  0  2  0  0  0  0  0  0  0  0  0
  -29.3058  -29.1752   21.6947 C   0  0  0  0  0  0  0  0  0  0  0  0
  -27.1149  -16.8074   20.2353 N   0  0  0  0  0  0  0  0  0  0  0  0
  -28.8720  -23.9493   14.1332 N   0  0  0  0  0  0  0  0  0  0  0  0
  -27.5609  -24.2067   13.9884 N   0  0  0  0  0  0  0  0  0  0  0  0
  -28.2155  -17.5473   20.0178 N   0  0  0  0  0  0  0  0  0  0  0  0
  -26.7691  -26.6574   21.3935 N   0  0  0  0  0  0  0  0  0  0  0  0
  -27.7808  -20.8770   18.1921 N   0  0  0  0  0  0  0  0  0  0  0  0
  -30.5699  -17.4110   19.7970 N   0  0  0  0  0  0  0  0  0  0  0  0
  -29.3426  -13.1275   20.5330 N   0  0  0  0  0  0  0  0  0  0  0  0
  -23.3647  -27.4514   22.4308 N   0  0  0  0  0  0  0  0  0  0  0  0
  -30.1223  -26.7842   21.8384 N   0  0  0  0  0  0  0  0  0  0  0  0
  -29.6813  -21.1121   16.8041 N   0  0  0  0  0  0  0  0  0  0  0  0
  -31.9284  -23.7744   20.9743 N   0  3  0  0  0  0  0  0  0  0  0  0
  -31.1314  -14.5157   20.1698 O   0  0  0  0  0  0  0  0  0  0  0  0
  -25.0182  -28.5075   21.1767 O   0  0  0  0  0  0  0  0  0  0  0  0
  -27.7740  -27.2443   23.4139 O   0  0  0  0  0  0  0  0  0  0  0  0
  -30.4364  -25.8228   19.7518 O   0  0  0  0  0  0  0  0  0  0  0  0
  -28.4264  -22.9463   17.3679 O   0  0  0  0  0  0  0  0  0  0  0  0
  -24.1468  -11.2797   21.3231 O   0  0  0  0  0  0  0  0  0  0  0  0
  -24.9883  -24.6156   15.8516 O   0  0  0  0  0  0  0  0  0  1  0  0
  -19.5222  -10.9943   18.3339 F   0  0  0  0  0  0  0  0  0  0  0  0
  -23.6376   -9.0984   19.7029 F   0  0  0  0  0  0  0  0  0  0  0  0
  1  2  1  0  0  0  0
  1  5  2  0  0  0  0
  2  6  2  0  0  0  0
  3  8  2  0  0  0  0
  3 16  1  0  0  0  0
  4  9  1  0  0  0  0
  4 16  2  0  0  0  0
  5 18  1  0  0  0  0
  6 20  1  0  0  0  0
  7 10  2  0  0  0  0
  7 19  1  0  0  0  0
  8 22  1  0  0  0  0
  9 22  2  0  0  0  0
 10 23  1  0  0  0  0
 11 12  2  0  0  0  0
 11 24  1  0  0  0  0
 12 25  1  0  0  0  0
 13 21  1  0  0  0  0
 13 23  2  0  0  0  0
 14 25  2  0  0  0  0
 14 26  1  0  0  0  0
 15 28  1  0  0  0  0
 15 29  2  0  0  0  0
 16 27  1  0  0  0  0
 17 27  1  0  0  0  0
 17 30  2  0  0  0  0
 17 31  1  0  0  0  0
 18 20  2  0  0  0  0
 18 36  1  0  0  0  0
 19 21  2  0  0  0  0
 19 37  1  0  0  0  0
 20 45  1  0  0  0  0
 21 38  1  0  0  0  0
 22 78  1  0  0  0  0
 23 79  1  0  0  0  0
 24 26  2  0  0  0  0
 24 78  1  0  0  0  0
 25 80  1  0  0  0  0
 26 81  1  0  0  0  0
 27 61  2  0  0  0  0
 28 54  1  0  0  0  0
 28 62  2  0  0  0  0
 29 55  1  0  0  0  0
 29 63  1  0  0  0  0
 30 64  1  0  0  0  0
 30 67  1  0  0  0  0
 31 68  1  0  0  0  0
 31 73  2  0  0  0  0
 32 46  1  0  0  0  0
 32 69  1  0  0  0  0
 32 74  2  0  0  0  0
 33 58  1  0  0  0  0
 33 65  1  0  0  0  0
 33 75  2  0  0  0  0
 34 59  1  0  0  0  0
 34 70  1  0  0  0  0
 34 76  2  0  0  0  0
 35 66  1  0  0  0  0
 35 71  1  0  0  0  0
 35 77  2  0  0  0  0
 36 39  1  0  0  0  0
 37 46  1  0  0  0  0
 38 65  1  0  0  0  0
 39 41  1  0  0  0  0
 40 42  1  0  0  0  0
 40 43  1  0  0  0  0
 41 45  1  0  0  0  0
 42 47  1  0  0  0  0
 43 66  1  0  0  0  0
 44 47  1  0  0  0  0
 44 66  1  0  0  0  0
 45 69  1  0  0  0  0
 46 65  1  0  0  0  0
 47 64  1  0  0  0  0
 48 59  1  0  0  0  0
 49 60  1  0  0  0  0
 50 60  1  0  0  0  0
 51 60  1  0  0  0  0
 52 63  1  0  0  0  0
 53 72  1  0  0  0  0
 54 56  1  0  0  0  0
 55 57  1  0  0  0  0
 56 71  1  0  0  0  0
 57 79  1  0  0  0  0
 58 60  1  0  0  0  0
 58 70  1  0  0  0  0
 59 72  1  0  0  0  0
 61 64  1  0  0  0  0
 62 63  1  0  0  0  0
M  CHG  1  72   1
M  ISO  4  35 100  57 101  71 100  79 101
M  END
> <Batch ID>
0035

> <Smiles>
CNC(C)C(=O)NC(C(=O)N1Cc2cc([101O:1][101CH2:1]Cc3cc(CC[100NH:0][100C:0](=O)N4CCCC(n5nc(-c6ccc(Oc7ccc(F)cc7F)cc6)c(C(N)=O)c5N)C4)nn3C)ccc2CC1C(=O)NC1CCCc2ccccc21)C(C)(C)C

> <Shape>
0.217

> <Color>
0.066

> <Negative vol penalty>
0.000

$$$$

  -OEChem-04052316533D

 90 98  0     1  0  0  0  0  0999 V2000
  -29.4148  -16.7251   21.5527 C   0  0  0  0  0  0  0  0  0  0  0  0
  -28.7953  -17.8485   22.0885 C   0  0  0  0  0  0  0  0  0  0  0  0
  -23.2706   -9.7198   19.9990 C   0  0  0  0  0  0  0  0  0  0  0  0
  -23.7309   -9.9527   22.3593 C   0  0  0  0  0  0  0  0  0  0  0  0
  -30.6878  -16.8343   20.9969 C   0  0  0  0  0  0  0  0  0  0  0  0
  -29.4435  -19.0837   22.0579 C   0  0  0  0  0  0  0  0  0  0  0  0
  -26.8571  -23.0018   23.5286 C   0  0  0  0  0  0  0  0  0  0  0  0
  -22.5483   -8.5543   20.2549 C   0  0  0  0  0  0  0  0  0  0  0  0
  -23.0085   -8.7872   22.6152 C   0  0  0  0  0  0  0  0  0  0  0  0
  -26.5287  -23.2301   24.8642 C   0  0  0  0  0  0  0  0  0  0  0  0
  -19.7649   -7.8770   22.8814 C   0  0  0  0  0  0  0  0  0  0  0  0
  -18.8671   -7.8940   23.9487 C   0  0  0  0  0  0  0  0  0  0  0  0
  -28.2579  -24.9069   24.9965 C   0  0  0  0  0  0  0  0  0  0  0  0
  -31.5697  -19.5207   26.4280 C   0  0  0  0  0  0  0  0  0  0  0  0
  -32.3266  -19.0628   28.6761 C   0  0  0  0  0  0  0  0  0  0  0  0
  -20.0819   -6.0892   24.9994 C   0  0  0  0  0  0  0  0  0  0  0  0
  -23.8619  -10.4190   21.0512 C   0  0  0  0  0  0  0  0  0  0  0  0
  -24.1136  -12.9401   20.7542 C   0  0  0  0  0  0  0  0  0  0  0  0
  -31.3563  -18.0693   20.9712 C   0  0  0  0  0  0  0  0  0  0  0  0
  -27.8974  -23.7178   22.9190 C   0  0  0  0  0  0  0  0  0  0  0  0
  -30.7187  -19.2192   21.4798 C   0  0  0  0  0  0  0  0  0  0  0  0
  -28.5958  -24.6876   23.6523 C   0  0  0  0  0  0  0  0  0  0  0  0
  -32.5373  -19.0182   27.2980 C   0  0  0  0  0  0  0  0  0  0  0  0
  -30.3915  -20.0679   26.9361 C   0  0  0  0  0  0  0  0  0  0  0  0
  -31.1484  -19.6099   29.1843 C   0  0  0  0  0  0  0  0  0  0  0  0
  -30.1809  -20.1125   28.3143 C   0  0  0  0  0  0  0  0  0  0  0  0
  -22.4172   -8.0880   21.5629 C   0  0  0  0  0  0  0  0  0  0  0  0
  -27.2311  -24.1807   25.5992 C   0  0  0  0  0  0  0  0  0  0  0  0
  -20.8213   -6.9660   22.8730 C   0  0  0  0  0  0  0  0  0  0  0  0
  -19.0256   -7.0001   25.0077 C   0  0  0  0  0  0  0  0  0  0  0  0
  -20.9798   -6.0722   23.9320 C   0  0  0  0  0  0  0  0  0  0  0  0
  -24.6087  -11.6227   20.7875 C   0  0  0  0  0  0  0  0  0  0  0  0
  -25.2119  -13.7124   20.4647 C   0  0  0  0  0  0  0  0  0  0  0  0
  -22.7802  -13.4227   20.9662 C   0  0  0  0  0  0  0  0  0  0  0  0
  -30.6813  -22.9404   21.5965 C   0  0  0  0  0  0  0  0  0  0  0  0
  -30.7467  -26.0885   20.8168 C   0  0  0  0  0  0  0  0  0  0  0  0
  -29.6844  -29.2618   21.4866 C   0  0  0  0  0  0  0  0  0  0  0  0
  -31.0886  -12.9166   21.2910 C   0  0  0  0  0  0  0  0  0  0  0  0
  -32.7296  -18.1323   20.3504 C   0  0  0  0  0  0  0  0  0  0  0  0
  -28.2216  -23.4787   21.4698 C   0  0  0  0  0  0  0  0  0  0  0  0
  -29.7076  -25.4975   23.0386 C   0  0  0  0  0  0  0  0  0  0  0  0
  -33.5113  -19.3758   20.7613 C   0  0  0  0  0  0  0  0  0  0  0  0
  -29.4248  -13.5330   18.2041 C   0  0  0  0  0  0  0  0  0  0  0  0
  -32.6504  -20.6162   20.5746 C   0  0  0  0  0  0  0  0  0  0  0  0
  -27.9572  -13.2322   18.5132 C   0  0  0  0  0  0  0  0  0  0  0  0
  -30.3637  -12.5840   18.9457 C   0  0  0  0  0  0  0  0  0  0  0  0
  -28.6856  -12.2179   20.7130 C   0  0  0  0  0  0  0  0  0  0  0  0
  -31.4170  -20.5670   21.4853 C   0  0  1  0  0  0  0  0  0  0  0  0
  -29.6394  -23.9011   21.0972 C   0  0  1  0  0  0  0  0  0  0  0  0
  -27.7022  -13.1849   20.0317 C   0  0  2  0  0  0  0  0  0  0  0  0
  -29.3707  -20.5983   25.9830 C   0  0  0  0  0  0  0  0  0  0  0  0
  -30.9470  -19.6457   30.6641 C   0  0  0  0  0  0  0  0  0  0  0  0
  -29.9384  -31.6313   20.7003 C   0  0  0  0  0  0  0  0  0  0  0  0
  -33.4925  -26.2306   22.1399 C   0  0  0  0  0  0  0  0  0  0  0  0
  -33.2691  -28.7240   22.1754 C   0  0  0  0  0  0  0  0  0  0  0  0
  -33.2992  -27.5072   19.9980 C   0  0  0  0  0  0  0  0  0  0  0  0
  -26.8012  -29.4844   20.8572 C   0  0  0  0  0  0  0  0  0  0  0  0
  -33.7972  -18.4339   26.7547 C   0  0  0  0  0  0  0  0  0  0  0  0
  -28.9134  -20.7006   28.8605 C   0  0  0  0  0  0  0  0  0  0  0  0
  -33.7265  -16.9222   26.4709 C   0  0  0  0  0  0  0  0  0  0  0  0
  -32.6924  -16.5674   25.3978 C   0  0  0  0  0  0  0  0  0  0  0  0
  -32.6704  -15.0612   25.1254 C   0  0  0  0  0  0  0  0  0  0  0  0
  -31.6646  -14.7114   24.0248 C   0  0  0  0  0  0  0  0  0  0  0  0
  -27.6875  -24.3147   29.1715 C   0  0  0  0  0  0  0  0  0  0  0  0
  -31.6599  -13.2243   23.6864 C   0  0  0  0  0  0  0  0  0  0  0  0
  -27.6186  -22.7979   29.2653 C   0  0  0  0  0  0  0  0  0  0  0  0
  -27.9679  -24.8300   27.7652 C   0  0  0  0  0  0  0  0  0  1  0  0
  -31.2581  -27.3440   21.4811 C   0  0  1  0  0  0  0  0  0  0  0  0
  -29.1285  -30.3493   20.5851 C   0  0  2  0  0  0  0  0  0  0  0  0
  -32.8101  -27.4350   21.4610 C   0  0  0  0  0  0  0  0  0  0  0  0
  -25.9194  -11.5580   20.5388 N   0  0  0  0  0  0  0  0  0  0  0  0
  -26.2573  -12.8444   20.3464 N   0  0  0  0  0  0  0  0  0  0  0  0
  -29.9914  -25.2226   21.6204 N   0  0  0  0  0  0  0  0  0  0  0  0
  -30.0706  -12.5871   20.3809 N   0  0  0  0  0  0  0  0  0  0  0  0
  -25.3758  -15.0425   20.3022 N   0  0  0  0  0  0  0  0  0  0  0  0
  -21.7713  -12.4934   21.2539 N   0  0  0  0  0  0  0  0  0  0  0  0
  -30.5250  -21.6489   21.1307 N   0  0  0  0  0  0  0  0  0  0  0  0
  -30.5856  -28.4578   20.8212 N   0  0  0  0  0  0  0  0  0  0  0  0
  -30.7246  -12.9017   22.6319 N   0  0  0  0  0  0  0  0  0  0  0  0
  -27.7154  -30.6517   20.9491 N   0  3  0  0  0  0  0  0  0  0  0  0
  -28.8833  -22.1879   28.7920 N   0  3  0  0  0  0  0  0  0  0  0  0
  -22.4889  -14.6401   20.8861 O   0  0  0  0  0  0  0  0  0  0  0  0
  -31.5626  -23.3416   22.3474 O   0  0  0  0  0  0  0  0  0  0  0  0
  -31.0017  -25.8870   19.6269 O   0  0  0  0  0  0  0  0  0  0  0  0
  -29.3552  -29.1401   22.6645 O   0  0  0  0  0  0  0  0  0  0  0  0
  -32.2353  -13.2080   20.9345 O   0  0  0  0  0  0  0  0  0  0  0  0
  -21.7122   -6.9509   21.8130 O   0  0  0  0  0  0  0  0  0  0  0  0
  -26.9130  -24.4050   26.9032 O   0  0  0  0  0  0  0  0  0  1  0  0
  -18.1642   -7.0176   26.0333 F   0  0  0  0  0  0  0  0  0  0  0  0
  -21.9933   -5.1955   23.9301 F   0  0  0  0  0  0  0  0  0  0  0  0
  1  2  1  0  0  0  0
  1  5  2  0  0  0  0
  2  6  2  0  0  0  0
  3  8  2  0  0  0  0
  3 17  1  0  0  0  0
  4  9  1  0  0  0  0
  4 17  2  0  0  0  0
  5 19  1  0  0  0  0
  6 21  1  0  0  0  0
  7 10  2  0  0  0  0
  7 20  1  0  0  0  0
  8 27  1  0  0  0  0
  9 27  2  0  0  0  0
 10 28  1  0  0  0  0
 11 12  2  0  0  0  0
 11 29  1  0  0  0  0
 12 30  1  0  0  0  0
 13 22  1  0  0  0  0
 13 28  2  0  0  0  0
 14 23  1  0  0  0  0
 14 24  2  0  0  0  0
 15 23  2  0  0  0  0
 15 25  1  0  0  0  0
 16 30  2  0  0  0  0
 16 31  1  0  0  0  0
 17 32  1  0  0  0  0
 18 32  1  0  0  0  0
 18 33  2  0  0  0  0
 18 34  1  0  0  0  0
 19 21  2  0  0  0  0
 19 39  1  0  0  0  0
 20 22  2  0  0  0  0
 20 40  1  0  0  0  0
 21 48  1  0  0  0  0
 22 41  1  0  0  0  0
 23 58  1  0  0  0  0
 24 26  1  0  0  0  0
 24 51  1  0  0  0  0
 25 26  2  0  0  0  0
 25 52  1  0  0  0  0
 26 59  1  0  0  0  0
 27 87  1  0  0  0  0
 28 88  1  0  0  0  0
 29 31  2  0  0  0  0
 29 87  1  0  0  0  0
 30 89  1  0  0  0  0
 31 90  1  0  0  0  0
 32 71  2  0  0  0  0
 33 72  1  0  0  0  0
 33 75  1  0  0  0  0
 34 76  1  0  0  0  0
 34 82  2  0  0  0  0
 35 49  1  0  0  0  0
 35 77  1  0  0  0  0
 35 83  2  0  0  0  0
 36 68  1  0  0  0  0
 36 73  1  0  0  0  0
 36 84  2  0  0  0  0
 37 69  1  0  0  0  0
 37 78  1  0  0  0  0
 37 85  2  0  0  0  0
 38 74  1  0  0  0  0
 38 79  1  0  0  0  0
 38 86  2  0  0  0  0
 39 42  1  0  0  0  0
 40 49  1  0  0  0  0
 41 73  1  0  0  0  0
 42 44  1  0  0  0  0
 43 45  1  0  0  0  0
 43 46  1  0  0  0  0
 44 48  1  0  0  0  0
 45 50  1  0  0  0  0
 46 74  1  0  0  0  0
 47 50  1  0  0  0  0
 47 74  1  0  0  0  0
 48 77  1  0  0  0  0
 49 73  1  0  0  0  0
 50 72  1  0  0  0  0
 53 69  1  0  0  0  0
 54 70  1  0  0  0  0
 55 70  1  0  0  0  0
 56 70  1  0  0  0  0
 57 80  1  0  0  0  0
 58 60  1  0  0  0  0
 59 81  1  0  0  0  0
 60 61  1  0  0  0  0
 61 62  1  0  0  0  0
 62 63  1  0  0  0  0
 63 65  1  0  0  0  0
 64 66  1  0  0  0  0
 64 67  1  0  0  0  0
 65 79  1  0  0  0  0
 66 81  1  0  0  0  0
 67 88  1  0  0  0  0
 68 70  1  0  0  0  0
 68 78  1  0  0  0  0
 69 80  1  0  0  0  0
 71 72  1  0  0  0  0
M  CHG  2  80   1  81   1
M  ISO  4  38 100  67 101  79 100  88 101
M  END
> <Batch ID>
0035

> <Smiles>
CNC(C)C(=O)NC(C(=O)N1Cc2cc([101O:1][101CH2:1]CCNCc3c(C)cc(CCCCCC[100NH:0][100C:0](=O)N4CCCC(n5nc(-c6ccc(Oc7ccc(F)cc7F)cc6)c(C(N)=O)c5N)C4)cc3C)ccc2CC1C(=O)NC1CCCc2ccccc21)C(C)(C)C

> <Shape>
0.212

> <Color>
0.184

> <Negative vol penalty>
0.000

$$$$

  -OEChem-04052316533D

 85 93  0     1  0  0  0  0  0999 V2000
  -18.4816  -26.5365   20.6182 C   0  0  0  0  0  0  0  0  0  0  0  0
  -19.6349  -27.2147   20.9996 C   0  0  0  0  0  0  0  0  0  0  0  0
  -26.2198  -13.5467   23.3116 C   0  0  0  0  0  0  0  0  0  0  0  0
  -26.1944  -14.9204   21.3243 C   0  0  0  0  0  0  0  0  0  0  0  0
  -18.4807  -25.1435   20.5595 C   0  0  0  0  0  0  0  0  0  0  0  0
  -20.7876  -26.5001   21.3235 C   0  0  0  0  0  0  0  0  0  0  0  0
  -24.9538  -28.4850   19.2383 C   0  0  0  0  0  0  0  0  0  0  0  0
  -25.9714  -12.4162   22.5333 C   0  0  0  0  0  0  0  0  0  0  0  0
  -25.9460  -13.7898   20.5460 C   0  0  0  0  0  0  0  0  0  0  0  0
  -25.4932  -29.6171   19.8474 C   0  0  0  0  0  0  0  0  0  0  0  0
  -23.3179  -10.9667   21.0226 C   0  0  0  0  0  0  0  0  0  0  0  0
  -22.3515  -10.0687   21.4754 C   0  0  0  0  0  0  0  0  0  0  0  0
  -27.1442  -28.2368   20.9374 C   0  0  0  0  0  0  0  0  0  0  0  0
  -25.2071  -29.6757   24.2671 C   0  0  0  0  0  0  0  0  0  0  0  0
  -24.0168   -8.3205   21.5628 C   0  0  0  0  0  0  0  0  0  0  0  0
  -23.4094  -31.2279   25.6106 C   0  0  0  0  0  0  0  0  0  0  0  0
  -26.3313  -14.7989   22.7071 C   0  0  0  0  0  0  0  0  0  0  0  0
  -27.8426  -16.4989   23.8618 C   0  0  0  0  0  0  0  0  0  0  0  0
  -19.6368  -24.4119   20.8735 C   0  0  0  0  0  0  0  0  0  0  0  0
  -25.4997  -27.2167   19.4832 C   0  0  0  0  0  0  0  0  0  0  0  0
  -20.8018  -25.0959   21.2702 C   0  0  0  0  0  0  0  0  0  0  0  0
  -26.6115  -27.0904   20.3282 C   0  0  0  0  0  0  0  0  0  0  0  0
  -25.5141  -31.0071   24.5252 C   0  0  0  0  0  0  0  0  0  0  0  0
  -25.8345  -12.5377   21.1506 C   0  0  0  0  0  0  0  0  0  0  0  0
  -26.5868  -29.4928   20.6994 C   0  0  0  0  0  0  0  0  0  0  0  0
  -24.6338  -10.5417   20.8397 C   0  0  0  0  0  0  0  0  0  0  0  0
  -22.7009   -8.7456   21.7456 C   0  0  0  0  0  0  0  0  0  0  0  0
  -24.9833   -9.2186   21.1099 C   0  0  0  0  0  0  0  0  0  0  0  0
  -24.6035  -31.8048   25.2092 C   0  0  0  0  0  0  0  0  0  0  0  0
  -26.5873  -15.9672   23.5105 C   0  0  0  0  0  0  0  0  0  0  0  0
  -23.9861  -29.1941   24.7109 C   0  0  0  0  0  0  0  0  0  0  0  0
  -27.5469  -17.6010   24.6263 C   0  0  0  0  0  0  0  0  0  0  0  0
  -29.1582  -16.0380   23.5268 C   0  0  0  0  0  0  0  0  0  0  0  0
  -24.4164  -24.5180   20.7666 C   0  0  0  0  0  0  0  0  0  0  0  0
  -27.2905  -23.3633   19.8030 C   0  0  0  0  0  0  0  0  0  0  0  0
  -30.5379  -24.0020   18.9706 C   0  0  0  0  0  0  0  0  0  0  0  0
  -24.6967  -22.2016   25.4378 C   0  0  0  0  0  0  0  0  0  0  0  0
  -19.5737  -22.9053   20.8411 C   0  0  0  0  0  0  0  0  0  0  0  0
  -24.9230  -26.0086   18.7975 C   0  0  0  0  0  0  0  0  0  0  0  0
  -27.2472  -25.7540   20.6080 C   0  0  0  0  0  0  0  0  0  0  0  0
  -20.9467  -22.2381   20.8381 C   0  0  0  0  0  0  0  0  0  0  0  0
  -23.1630  -19.1455   26.6232 C   0  0  0  0  0  0  0  0  0  0  0  0
  -21.8490  -22.8688   21.8940 C   0  0  0  0  0  0  0  0  0  0  0  0
  -24.0299  -18.0856   25.9411 C   0  0  0  0  0  0  0  0  0  0  0  0
  -22.9407  -20.3484   25.7113 C   0  0  0  0  0  0  0  0  0  0  0  0
  -25.0611  -19.9248   24.5290 C   0  0  0  0  0  0  0  0  0  0  0  0
  -22.0793  -24.3571   21.6051 C   0  0  1  0  0  0  0  0  0  0  0  0
  -25.2375  -24.7033   19.5220 C   0  0  1  0  0  0  0  0  0  0  0  0
  -25.3414  -18.6925   25.4083 C   0  0  2  0  0  0  0  0  0  0  0  0
  -32.6529  -22.8517   18.2630 C   0  0  0  0  0  0  0  0  0  0  0  0
  -27.7263  -22.4075   22.6677 C   0  0  0  0  0  0  0  0  0  0  0  0
  -30.1586  -22.1443   22.1359 C   0  0  0  0  0  0  0  0  0  0  0  0
  -28.4613  -20.7920   20.9057 C   0  0  0  0  0  0  0  0  0  0  0  0
  -30.6213  -25.4797   16.4077 C   0  0  0  0  0  0  0  0  0  0  0  0
  -26.8378  -31.5485   24.0474 C   0  0  0  0  0  0  0  0  0  0  0  0
  -23.6233  -27.7697   24.4526 C   0  0  0  0  0  0  0  0  0  0  0  0
  -26.7297  -32.4263   22.7987 C   0  0  0  0  0  0  0  0  0  0  0  0
  -24.0800  -26.8394   25.5868 C   0  0  0  0  0  0  0  0  0  0  0  0
  -23.7350  -25.3765   25.2925 C   0  0  0  0  0  0  0  0  0  0  0  0
  -24.1911  -24.4322   26.3999 C   0  0  0  0  0  0  0  0  0  0  0  0
  -26.2220  -31.6741   21.5740 C   0  0  0  0  0  0  0  0  0  1  0  0
  -28.6646  -23.2649   20.4203 C   0  0  1  0  0  0  0  0  0  0  0  0
  -31.3845  -23.5480   17.7952 C   0  0  2  0  0  0  0  0  0  0  0  0
  -28.7397  -22.1773   21.5289 C   0  0  0  0  0  0  0  0  0  0  0  0
  -23.0760  -29.9385   25.3782 N   0  0  0  0  0  0  0  0  0  0  0  0
  -25.5699  -16.6732   24.0110 N   0  0  0  0  0  0  0  0  0  0  0  0
  -26.1855  -17.6599   24.6846 N   0  0  0  0  0  0  0  0  0  0  0  0
  -26.6433  -24.6017   19.9188 N   0  0  0  0  0  0  0  0  0  0  0  0
  -24.2282  -20.8900   25.2540 N   0  0  0  0  0  0  0  0  0  0  0  0
  -28.3211  -18.5157   25.2478 N   0  0  0  0  0  0  0  0  0  0  0  0
  -29.2819  -14.8899   22.7326 N   0  0  0  0  0  0  0  0  0  0  0  0
  -23.0522  -24.5219   20.5464 N   0  0  0  0  0  0  0  0  0  0  0  0
  -29.5945  -23.0574   19.3156 N   0  0  0  0  0  0  0  0  0  0  0  0
  -23.8447  -23.0548   26.1282 N   0  0  0  0  0  0  0  0  0  0  0  0
  -31.7722  -24.7159   16.9545 N   0  3  0  0  0  0  0  0  0  0  0  0
  -30.1937  -16.6173   23.9339 O   0  0  0  0  0  0  0  0  0  0  0  0
  -24.9789  -24.3802   21.8466 O   0  0  0  0  0  0  0  0  0  0  0  0
  -26.8120  -22.3798   19.2325 O   0  0  0  0  0  0  0  0  0  0  0  0
  -30.7000  -25.0846   19.5295 O   0  0  0  0  0  0  0  0  0  0  0  0
  -25.7961  -22.5829   25.0218 O   0  0  0  0  0  0  0  0  0  0  0  0
  -25.5923  -11.4347   20.3908 O   0  0  0  0  0  0  0  0  0  0  0  0
  -27.1148  -30.5962   21.2957 O   0  0  0  0  0  0  0  0  0  1  0  0
  -21.7731   -7.8837   22.1819 F   0  0  0  0  0  0  0  0  0  0  0  0
  -26.2461   -8.8047   20.9372 F   0  0  0  0  0  0  0  0  0  0  0  0
  -24.9150  -33.4590   25.5610 Cl  0  0  0  0  0  0  0  0  0  0  0  0
  1  2  1  0  0  0  0
  1  5  2  0  0  0  0
  2  6  2  0  0  0  0
  3  8  2  0  0  0  0
  3 17  1  0  0  0  0
  4  9  1  0  0  0  0
  4 17  2  0  0  0  0
  5 19  1  0  0  0  0
  6 21  1  0  0  0  0
  7 10  2  0  0  0  0
  7 20  1  0  0  0  0
  8 24  1  0  0  0  0
  9 24  2  0  0  0  0
 10 25  1  0  0  0  0
 11 12  2  0  0  0  0
 11 26  1  0  0  0  0
 12 27  1  0  0  0  0
 13 22  1  0  0  0  0
 13 25  2  0  0  0  0
 14 23  1  0  0  0  0
 14 31  2  0  0  0  0
 15 27  2  0  0  0  0
 15 28  1  0  0  0  0
 16 29  1  0  0  0  0
 16 65  2  0  0  0  0
 17 30  1  0  0  0  0
 18 30  1  0  0  0  0
 18 32  2  0  0  0  0
 18 33  1  0  0  0  0
 19 21  2  0  0  0  0
 19 38  1  0  0  0  0
 20 22  2  0  0  0  0
 20 39  1  0  0  0  0
 21 47  1  0  0  0  0
 22 40  1  0  0  0  0
 23 29  2  0  0  0  0
 23 55  1  0  0  0  0
 24 81  1  0  0  0  0
 25 82  1  0  0  0  0
 26 28  2  0  0  0  0
 26 81  1  0  0  0  0
 27 83  1  0  0  0  0
 28 84  1  0  0  0  0
 29 85  1  0  0  0  0
 30 66  2  0  0  0  0
 31 56  1  0  0  0  0
 31 65  1  0  0  0  0
 32 67  1  0  0  0  0
 32 70  1  0  0  0  0
 33 71  1  0  0  0  0
 33 76  2  0  0  0  0
 34 48  1  0  0  0  0
 34 72  1  0  0  0  0
 34 77  2  0  0  0  0
 35 62  1  0  0  0  0
 35 68  1  0  0  0  0
 35 78  2  0  0  0  0
 36 63  1  0  0  0  0
 36 73  1  0  0  0  0
 36 79  2  0  0  0  0
 37 69  1  0  0  0  0
 37 74  1  0  0  0  0
 37 80  2  0  0  0  0
 38 41  1  0  0  0  0
 39 48  1  0  0  0  0
 40 68  1  0  0  0  0
 41 43  1  0  0  0  0
 42 44  1  0  0  0  0
 42 45  1  0  0  0  0
 43 47  1  0  0  0  0
 44 49  1  0  0  0  0
 45 69  1  0  0  0  0
 46 49  1  0  0  0  0
 46 69  1  0  0  0  0
 47 72  1  0  0  0  0
 48 68  1  0  0  0  0
 49 67  1  0  0  0  0
 50 63  1  0  0  0  0
 51 64  1  0  0  0  0
 52 64  1  0  0  0  0
 53 64  1  0  0  0  0
 54 75  1  0  0  0  0
 55 57  1  0  0  0  0
 56 58  1  0  0  0  0
 57 61  1  0  0  0  0
 58 59  1  0  0  0  0
 59 60  1  0  0  0  0
 60 74  1  0  0  0  0
 61 82  1  0  0  0  0
 62 64  1  0  0  0  0
 62 73  1  0  0  0  0
 63 75  1  0  0  0  0
 66 67  1  0  0  0  0
M  CHG  1  75   1
M  ISO  4  37 100  61 101  74 100  82 101
M  END
> <Batch ID>
0035

> <Smiles>
CNC(C)C(=O)NC(C(=O)N1Cc2cc([101O:1][101CH2:1]CCc3cc(CCCC[100NH:0][100C:0](=O)N4CCCC(n5nc(-c6ccc(Oc7ccc(F)cc7F)cc6)c(C(N)=O)c5N)C4)ncc3Cl)ccc2CC1C(=O)NC1CCCc2ccccc21)C(C)(C)C

> <Shape>
0.218

> <Color>
0.067

> <Negative vol penalty>
0.000

$$$$

  -OEChem-04052316533D

 85 93  0     1  0  0  0  0  0999 V2000
  -28.4224  -11.1296   21.5228 C   0  0  0  0  0  0  0  0  0  0  0  0
  -28.9088  -12.3922   21.1994 C   0  0  0  0  0  0  0  0  0  0  0  0
  -19.9083  -28.3106   23.7983 C   0  0  0  0  0  0  0  0  0  0  0  0
  -20.8663  -27.0992   21.9403 C   0  0  0  0  0  0  0  0  0  0  0  0
  -27.0834  -10.8188   21.2893 C   0  0  0  0  0  0  0  0  0  0  0  0
  -28.0568  -13.3445   20.6412 C   0  0  0  0  0  0  0  0  0  0  0  0
  -28.2001  -19.3986   21.5540 C   0  0  0  0  0  0  0  0  0  0  0  0
  -18.6311  -27.9251   23.3911 C   0  0  0  0  0  0  0  0  0  0  0  0
  -19.5891  -26.7137   21.5332 C   0  0  0  0  0  0  0  0  0  0  0  0
  -28.7365  -20.4472   20.8080 C   0  0  0  0  0  0  0  0  0  0  0  0
  -16.9823  -28.0871   19.8751 C   0  0  0  0  0  0  0  0  0  0  0  0
  -16.6768  -28.1878   18.5179 C   0  0  0  0  0  0  0  0  0  0  0  0
  -26.5757  -20.8325   19.8072 C   0  0  0  0  0  0  0  0  0  0  0  0
  -29.1978  -26.7425   17.9984 C   0  0  0  0  0  0  0  0  0  0  0  0
  -30.6901  -24.3898   18.1407 C   0  0  0  0  0  0  0  0  0  0  0  0
  -16.2518  -25.8108   18.4373 C   0  0  0  0  0  0  0  0  0  0  0  0
  -21.0259  -27.8977   23.0729 C   0  0  0  0  0  0  0  0  0  0  0  0
  -23.1986  -27.6113   24.3787 C   0  0  0  0  0  0  0  0  0  0  0  0
  -26.2122  -11.7709   20.7369 C   0  0  0  0  0  0  0  0  0  0  0  0
  -26.8477  -19.0514   21.4239 C   0  0  0  0  0  0  0  0  0  0  0  0
  -26.7052  -13.0457   20.3988 C   0  0  0  0  0  0  0  0  0  0  0  0
  -26.0240  -19.7807   20.5546 C   0  0  0  0  0  0  0  0  0  0  0  0
  -28.6787  -25.5551   17.4825 C   0  0  0  0  0  0  0  0  0  0  0  0
  -31.2093  -25.5772   18.6566 C   0  0  0  0  0  0  0  0  0  0  0  0
  -30.4632  -26.7536   18.5854 C   0  0  0  0  0  0  0  0  0  0  0  0
  -29.4248  -24.3787   17.5537 C   0  0  0  0  0  0  0  0  0  0  0  0
  -18.4715  -27.1267   22.2586 C   0  0  0  0  0  0  0  0  0  0  0  0
  -27.9249  -21.1624   19.9323 C   0  0  0  0  0  0  0  0  0  0  0  0
  -16.9226  -26.8483   20.5135 C   0  0  0  0  0  0  0  0  0  0  0  0
  -16.3115  -27.0496   17.7989 C   0  0  0  0  0  0  0  0  0  0  0  0
  -16.5573  -25.7101   19.7945 C   0  0  0  0  0  0  0  0  0  0  0  0
  -22.3455  -28.2961   23.4926 C   0  0  0  0  0  0  0  0  0  0  0  0
  -24.3241  -28.3955   24.4466 C   0  0  0  0  0  0  0  0  0  0  0  0
  -22.9921  -26.3767   25.0778 C   0  0  0  0  0  0  0  0  0  0  0  0
  -25.2798  -16.4538   20.4764 C   0  0  0  0  0  0  0  0  0  0  0  0
  -22.6848  -18.1420   21.4448 C   0  0  0  0  0  0  0  0  0  0  0  0
  -21.2810  -21.1874   22.0785 C   0  0  0  0  0  0  0  0  0  0  0  0
  -28.2545  -31.4921   21.9750 C   0  0  0  0  0  0  0  0  0  0  0  0
  -24.7842  -11.3733   20.4589 C   0  0  0  0  0  0  0  0  0  0  0  0
  -26.2783  -17.9349   22.2555 C   0  0  0  0  0  0  0  0  0  0  0  0
  -24.5610  -19.4609   20.3934 C   0  0  0  0  0  0  0  0  0  0  0  0
  -23.8583  -12.5614   20.2113 C   0  0  0  0  0  0  0  0  0  0  0  0
  -25.1723  -33.0899   22.7643 C   0  0  0  0  0  0  0  0  0  0  0  0
  -24.5020  -13.5467   19.2410 C   0  0  0  0  0  0  0  0  0  0  0  0
  -24.2314  -31.9288   23.0909 C   0  0  0  0  0  0  0  0  0  0  0  0
  -26.1379  -32.7337   21.6362 C   0  0  0  0  0  0  0  0  0  0  0  0
  -25.9704  -30.3351   22.1773 C   0  0  0  0  0  0  0  0  0  0  0  0
  -25.8062  -14.1137   19.8147 C   0  0  1  0  0  0  0  0  0  0  0  0
  -25.0070  -17.3360   21.6616 C   0  0  1  0  0  0  0  0  0  0  0  0
  -25.0149  -30.6273   23.3468 C   0  0  2  0  0  0  0  0  0  0  0  0
  -27.3215  -25.5674   16.8593 C   0  0  0  0  0  0  0  0  0  0  0  0
  -32.5665  -25.5649   19.2797 C   0  0  0  0  0  0  0  0  0  0  0  0
  -19.5623  -22.8430   22.8549 C   0  0  0  0  0  0  0  0  0  0  0  0
  -21.4870  -17.6459   18.6827 C   0  0  0  0  0  0  0  0  0  0  0  0
  -19.8408  -19.4748   19.1448 C   0  0  0  0  0  0  0  0  0  0  0  0
  -19.8671  -17.4318   20.5761 C   0  0  0  0  0  0  0  0  0  0  0  0
  -22.3385  -21.1644   24.8425 C   0  0  0  0  0  0  0  0  0  0  0  0
  -30.9986  -28.0370   19.1302 C   0  0  0  0  0  0  0  0  0  0  0  0
  -28.8837  -23.0818   17.0029 C   0  0  0  0  0  0  0  0  0  0  0  0
  -30.3731  -28.3969   20.4860 C   0  0  0  0  0  0  0  0  0  0  0  0
  -30.9029  -29.7326   21.0160 C   0  0  0  0  0  0  0  0  0  0  0  0
  -30.2857  -30.1180   22.3564 C   0  0  0  0  0  0  0  0  0  0  0  0
  -27.8549  -22.4428   17.9293 C   0  0  0  0  0  0  0  0  0  1  0  0
  -21.7387  -19.1183   20.7886 C   0  0  1  0  0  0  0  0  0  0  0  0
  -20.4807  -21.7011   23.2617 C   0  0  2  0  0  0  0  0  0  0  0  0
  -20.7614  -18.4227   19.7994 C   0  0  0  0  0  0  0  0  0  0  0  0
  -22.8830  -29.4283   23.0309 N   0  0  0  0  0  0  0  0  0  0  0  0
  -24.0859  -29.4610   23.6292 N   0  0  0  0  0  0  0  0  0  0  0  0
  -24.0526  -18.3565   21.2237 N   0  0  0  0  0  0  0  0  0  0  0  0
  -26.8503  -31.4906   21.9417 N   0  0  0  0  0  0  0  0  0  0  0  0
  -25.4844  -28.2708   25.1252 N   0  0  0  0  0  0  0  0  0  0  0  0
  -21.7786  -25.6999   24.8944 N   0  0  0  0  0  0  0  0  0  0  0  0
  -25.5229  -15.1331   20.8021 N   0  0  0  0  0  0  0  0  0  0  0  0
  -21.0794  -19.8390   21.8723 N   0  0  0  0  0  0  0  0  0  0  0  0
  -28.8503  -30.2740   22.2785 N   0  0  0  0  0  0  0  0  0  0  0  0
  -21.3948  -22.1916   24.3316 N   0  3  0  0  0  0  0  0  0  0  0  0
  -23.8515  -25.8965   25.8552 O   0  0  0  0  0  0  0  0  0  0  0  0
  -25.2690  -16.9353   19.3495 O   0  0  0  0  0  0  0  0  0  0  0  0
  -22.2274  -17.2271   22.1343 O   0  0  0  0  0  0  0  0  0  0  0  0
  -22.0090  -21.9108   21.4023 O   0  0  0  0  0  0  0  0  0  0  0  0
  -28.9274  -32.5051   21.7561 O   0  0  0  0  0  0  0  0  0  0  0  0
  -17.2254  -26.7501   21.8612 O   0  0  0  0  0  0  0  0  0  0  0  0
  -28.4461  -22.1860   19.2025 O   0  0  0  0  0  0  0  0  0  1  0  0
  -16.0167  -27.1467   16.4959 F   0  0  0  0  0  0  0  0  0  0  0  0
  -16.4970  -24.5175   20.4026 F   0  0  0  0  0  0  0  0  0  0  0  0
  1  2  1  0  0  0  0
  1  5  2  0  0  0  0
  2  6  2  0  0  0  0
  3  8  2  0  0  0  0
  3 17  1  0  0  0  0
  4  9  1  0  0  0  0
  4 17  2  0  0  0  0
  5 19  1  0  0  0  0
  6 21  1  0  0  0  0
  7 10  2  0  0  0  0
  7 20  1  0  0  0  0
  8 27  1  0  0  0  0
  9 27  2  0  0  0  0
 10 28  1  0  0  0  0
 11 12  2  0  0  0  0
 11 29  1  0  0  0  0
 12 30  1  0  0  0  0
 13 22  1  0  0  0  0
 13 28  2  0  0  0  0
 14 23  1  0  0  0  0
 14 25  2  0  0  0  0
 15 24  2  0  0  0  0
 15 26  1  0  0  0  0
 16 30  2  0  0  0  0
 16 31  1  0  0  0  0
 17 32  1  0  0  0  0
 18 32  1  0  0  0  0
 18 33  2  0  0  0  0
 18 34  1  0  0  0  0
 19 21  2  0  0  0  0
 19 39  1  0  0  0  0
 20 22  2  0  0  0  0
 20 40  1  0  0  0  0
 21 48  1  0  0  0  0
 22 41  1  0  0  0  0
 23 26  2  0  0  0  0
 23 51  1  0  0  0  0
 24 25  1  0  0  0  0
 24 52  1  0  0  0  0
 25 58  1  0  0  0  0
 26 59  1  0  0  0  0
 27 82  1  0  0  0  0
 28 83  1  0  0  0  0
 29 31  2  0  0  0  0
 29 82  1  0  0  0  0
 30 84  1  0  0  0  0
 31 85  1  0  0  0  0
 32 67  2  0  0  0  0
 33 68  1  0  0  0  0
 33 71  1  0  0  0  0
 34 72  1  0  0  0  0
 34 77  2  0  0  0  0
 35 49  1  0  0  0  0
 35 73  1  0  0  0  0
 35 78  2  0  0  0  0
 36 64  1  0  0  0  0
 36 69  1  0  0  0  0
 36 79  2  0  0  0  0
 37 65  1  0  0  0  0
 37 74  1  0  0  0  0
 37 80  2  0  0  0  0
 38 70  1  0  0  0  0
 38 75  1  0  0  0  0
 38 81  2  0  0  0  0
 39 42  1  0  0  0  0
 40 49  1  0  0  0  0
 41 69  1  0  0  0  0
 42 44  1  0  0  0  0
 43 45  1  0  0  0  0
 43 46  1  0  0  0  0
 44 48  1  0  0  0  0
 45 50  1  0  0  0  0
 46 70  1  0  0  0  0
 47 50  1  0  0  0  0
 47 70  1  0  0  0  0
 48 73  1  0  0  0  0
 49 69  1  0  0  0  0
 50 68  1  0  0  0  0
 53 65  1  0  0  0  0
 54 66  1  0  0  0  0
 55 66  1  0  0  0  0
 56 66  1  0  0  0  0
 57 76  1  0  0  0  0
 58 60  1  0  0  0  0
 59 63  1  0  0  0  0
 60 61  1  0  0  0  0
 61 62  1  0  0  0  0
 62 75  1  0  0  0  0
 63 83  1  0  0  0  0
 64 66  1  0  0  0  0
 64 74  1  0  0  0  0
 65 76  1  0  0  0  0
 67 68  1  0  0  0  0
M  CHG  1  76   1
M  ISO  4  38 100  63 101  75 100  83 101
M  END
> <Batch ID>
0035

> <Smiles>
CNC(C)C(=O)NC(C(=O)N1Cc2cc([101O:1][101CH2:1]Cc3cc(C)c(CCCC[100NH:0][100C:0](=O)N4CCCC(n5nc(-c6ccc(Oc7ccc(F)cc7F)cc6)c(C(N)=O)c5N)C4)cc3C)ccc2CC1C(=O)NC1CCCc2ccccc21)C(C)(C)C

> <Shape>
0.215

> <Color>
0.065

> <Negative vol penalty>
0.000

$$$$

  -OEChem-04052316533D

 87 95  0     1  0  0  0  0  0999 V2000
  -20.0957  -25.5269   17.4391 C   0  0  0  0  0  0  0  0  0  0  0  0
  -21.0388  -25.0942   18.3658 C   0  0  0  0  0  0  0  0  0  0  0  0
  -22.9284  -10.1545   20.0335 C   0  0  0  0  0  0  0  0  0  0  0  0
  -24.1110   -9.4763   22.0281 C   0  0  0  0  0  0  0  0  0  0  0  0
  -20.0750  -26.8623   17.0390 C   0  0  0  0  0  0  0  0  0  0  0  0
  -21.9625  -25.9965   18.8921 C   0  0  0  0  0  0  0  0  0  0  0  0
  -22.4989  -25.5255   23.9056 C   0  0  0  0  0  0  0  0  0  0  0  0
  -22.1861   -8.9743   20.0722 C   0  0  0  0  0  0  0  0  0  0  0  0
  -23.3686   -8.2960   22.0669 C   0  0  0  0  0  0  0  0  0  0  0  0
  -23.2814  -24.4672   24.3656 C   0  0  0  0  0  0  0  0  0  0  0  0
  -20.2771   -7.3304   23.0315 C   0  0  0  0  0  0  0  0  0  0  0  0
  -19.7562   -6.9343   24.2633 C   0  0  0  0  0  0  0  0  0  0  0  0
  -25.1324  -25.9814   24.6820 C   0  0  0  0  0  0  0  0  0  0  0  0
  -26.7961  -23.5065   21.8364 C   0  0  0  0  0  0  0  0  0  0  0  0
  -21.0114   -4.8741   24.1316 C   0  0  0  0  0  0  0  0  0  0  0  0
  -23.8909  -10.4055   21.0114 C   0  0  0  0  0  0  0  0  0  0  0  0
  -24.3362  -12.8521   21.5804 C   0  0  0  0  0  0  0  0  0  0  0  0
  -20.9928  -27.7835   17.5679 C   0  0  0  0  0  0  0  0  0  0  0  0
  -23.0316  -26.8198   23.8199 C   0  0  0  0  0  0  0  0  0  0  0  0
  -21.9550  -27.3452   18.4976 C   0  0  0  0  0  0  0  0  0  0  0  0
  -24.3539  -27.0548   24.2230 C   0  0  0  0  0  0  0  0  0  0  0  0
  -27.1547  -22.2725   22.3671 C   0  0  0  0  0  0  0  0  0  0  0  0
  -27.2048  -21.1549   21.5414 C   0  0  0  0  0  0  0  0  0  0  0  0
  -22.4062   -8.0450   21.0889 C   0  0  0  0  0  0  0  0  0  0  0  0
  -24.5992  -24.6945   24.7512 C   0  0  0  0  0  0  0  0  0  0  0  0
  -21.1650   -6.4983   22.3496 C   0  0  0  0  0  0  0  0  0  0  0  0
  -20.1234   -5.7062   24.8134 C   0  0  0  0  0  0  0  0  0  0  0  0
  -21.5322   -5.2702   22.8997 C   0  0  0  0  0  0  0  0  0  0  0  0
  -24.6584  -11.6243   20.9716 C   0  0  0  0  0  0  0  0  0  0  0  0
  -26.4991  -23.5695   20.4845 C   0  0  0  0  0  0  0  0  0  0  0  0
  -26.8893  -21.3231   20.2028 C   0  0  0  0  0  0  0  0  0  0  0  0
  -25.3771  -13.6841   21.2472 C   0  0  0  0  0  0  0  0  0  0  0  0
  -23.1979  -13.2086   22.3759 C   0  0  0  0  0  0  0  0  0  0  0  0
  -23.5537  -28.8785   21.4550 C   0  0  0  0  0  0  0  0  0  0  0  0
  -24.3707  -30.8646   23.8861 C   0  0  0  0  0  0  0  0  0  0  0  0
  -25.4671  -31.2124   27.0992 C   0  0  0  0  0  0  0  0  0  0  0  0
  -30.8421  -14.6390   20.6413 C   0  0  0  0  0  0  0  0  0  0  0  0
  -20.9620  -29.2067   17.0694 C   0  0  0  0  0  0  0  0  0  0  0  0
  -22.1662  -27.9555   23.3468 C   0  0  0  0  0  0  0  0  0  0  0  0
  -24.9669  -28.4295   24.1693 C   0  0  0  0  0  0  0  0  0  0  0  0
  -21.7351  -30.1795   17.9561 C   0  0  0  0  0  0  0  0  0  0  0  0
  -29.1462  -13.0754   17.9291 C   0  0  0  0  0  0  0  0  0  0  0  0
  -23.1009  -29.6035   18.3163 C   0  0  0  0  0  0  0  0  0  0  0  0
  -27.8042  -12.6545   18.5307 C   0  0  0  0  0  0  0  0  0  0  0  0
  -30.2858  -12.9311   18.9354 C   0  0  0  0  0  0  0  0  0  0  0  0
  -28.7245  -13.1970   20.8236 C   0  0  0  0  0  0  0  0  0  0  0  0
  -22.9577  -28.2991   19.1098 C   0  0  1  0  0  0  0  0  0  0  0  0
  -22.9702  -29.1380   22.8151 C   0  0  1  0  0  0  0  0  0  0  0  0
  -27.5359  -13.3780   19.8641 C   0  0  2  0  0  0  0  0  0  0  0  0
  -26.1115  -24.8778   19.8802 C   0  0  0  0  0  0  0  0  0  0  0  0
  -26.9267  -20.1599   19.2662 C   0  0  0  0  0  0  0  0  0  0  0  0
  -26.0758  -32.9595   28.7946 C   0  0  0  0  0  0  0  0  0  0  0  0
  -27.0148  -31.3428   22.4405 C   0  0  0  0  0  0  0  0  0  0  0  0
  -27.9275  -32.2914   24.5702 C   0  0  0  0  0  0  0  0  0  0  0  0
  -25.9906  -33.3906   23.4465 C   0  0  0  0  0  0  0  0  0  0  0  0
  -23.3513  -30.3089   28.9609 C   0  0  0  0  0  0  0  0  0  0  0  0
  -27.4807  -22.1730   23.8360 C   0  0  0  0  0  0  0  0  0  0  0  0
  -27.5886  -19.8187   22.0824 C   0  0  0  0  0  0  0  0  0  0  0  0
  -26.3640  -21.5462   24.6736 C   0  0  0  0  0  0  0  0  0  0  0  0
  -29.0338  -19.4403   21.7250 C   0  0  0  0  0  0  0  0  0  0  0  0
  -29.4037  -18.0518   22.2508 C   0  0  0  0  0  0  0  0  0  0  0  0
  -30.8583  -17.7029   21.9221 C   0  0  0  0  0  0  0  0  0  0  0  0
  -31.2558  -16.3178   22.4216 C   0  0  0  0  0  0  0  0  0  0  0  0
  -25.0792  -22.3664   24.6777 C   0  0  0  0  0  0  0  0  0  1  0  0
  -25.6486  -31.1803   24.6252 C   0  0  1  0  0  0  0  0  0  0  0  0
  -24.9685  -32.0731   28.2460 C   0  0  2  0  0  0  0  0  0  0  0  0
  -26.6347  -32.0249   23.7699 C   0  0  0  0  0  0  0  0  0  0  0  0
  -25.8135  -11.6680   20.3024 N   0  0  0  0  0  0  0  0  0  0  0  0
  -26.5366  -22.5058   19.6510 N   0  0  0  0  0  0  0  0  0  0  0  0
  -26.2262  -12.9334   20.4885 N   0  0  0  0  0  0  0  0  0  0  0  0
  -24.0824  -29.5060   23.6937 N   0  0  0  0  0  0  0  0  0  0  0  0
  -29.9692  -13.6412   20.1770 N   0  0  0  0  0  0  0  0  0  0  0  0
  -25.6396  -14.9773   21.5322 N   0  0  0  0  0  0  0  0  0  0  0  0
  -22.2224  -12.2328   22.6215 N   0  0  0  0  0  0  0  0  0  0  0  0
  -22.6136  -28.5806   20.4870 N   0  0  0  0  0  0  0  0  0  0  0  0
  -25.2500  -31.8138   25.8775 N   0  0  0  0  0  0  0  0  0  0  0  0
  -30.4643  -15.2668   21.8219 N   0  0  0  0  0  0  0  0  0  0  0  0
  -24.4603  -31.2158   29.3540 N   0  3  0  0  0  0  0  0  0  0  0  0
  -23.0422  -14.3631   22.8410 O   0  0  0  0  0  0  0  0  0  0  0  0
  -24.7668  -28.9453   21.2952 O   0  0  0  0  0  0  0  0  0  0  0  0
  -23.6511  -31.7892   23.5002 O   0  0  0  0  0  0  0  0  0  0  0  0
  -25.9995  -30.1180   27.2702 O   0  0  0  0  0  0  0  0  0  0  0  0
  -31.8783  -14.9511   20.0449 O   0  0  0  0  0  0  0  0  0  0  0  0
  -21.6819   -6.8933   21.1271 O   0  0  0  0  0  0  0  0  0  0  0  0
  -25.3654  -23.6633   25.1999 O   0  0  0  0  0  0  0  0  0  1  0  0
  -19.6243   -5.3267   25.9971 F   0  0  0  0  0  0  0  0  0  0  0  0
  -22.3857   -4.4671   22.2499 F   0  0  0  0  0  0  0  0  0  0  0  0
  1  2  1  0  0  0  0
  1  5  2  0  0  0  0
  2  6  2  0  0  0  0
  3  8  2  0  0  0  0
  3 16  1  0  0  0  0
  4  9  1  0  0  0  0
  4 16  2  0  0  0  0
  5 18  1  0  0  0  0
  6 20  1  0  0  0  0
  7 10  2  0  0  0  0
  7 19  1  0  0  0  0
  8 24  1  0  0  0  0
  9 24  2  0  0  0  0
 10 25  1  0  0  0  0
 11 12  2  0  0  0  0
 11 26  1  0  0  0  0
 12 27  1  0  0  0  0
 13 21  1  0  0  0  0
 13 25  2  0  0  0  0
 14 22  1  0  0  0  0
 14 30  2  0  0  0  0
 15 27  2  0  0  0  0
 15 28  1  0  0  0  0
 16 29  1  0  0  0  0
 17 29  1  0  0  0  0
 17 32  2  0  0  0  0
 17 33  1  0  0  0  0
 18 20  2  0  0  0  0
 18 38  1  0  0  0  0
 19 21  2  0  0  0  0
 19 39  1  0  0  0  0
 20 47  1  0  0  0  0
 21 40  1  0  0  0  0
 22 23  2  0  0  0  0
 22 57  1  0  0  0  0
 23 31  1  0  0  0  0
 23 58  1  0  0  0  0
 24 84  1  0  0  0  0
 25 85  1  0  0  0  0
 26 28  2  0  0  0  0
 26 84  1  0  0  0  0
 27 86  1  0  0  0  0
 28 87  1  0  0  0  0
 29 68  2  0  0  0  0
 30 50  1  0  0  0  0
 30 69  1  0  0  0  0
 31 51  1  0  0  0  0
 31 69  2  0  0  0  0
 32 70  1  0  0  0  0
 32 73  1  0  0  0  0
 33 74  1  0  0  0  0
 33 79  2  0  0  0  0
 34 48  1  0  0  0  0
 34 75  1  0  0  0  0
 34 80  2  0  0  0  0
 35 65  1  0  0  0  0
 35 71  1  0  0  0  0
 35 81  2  0  0  0  0
 36 66  1  0  0  0  0
 36 76  1  0  0  0  0
 36 82  2  0  0  0  0
 37 72  1  0  0  0  0
 37 77  1  0  0  0  0
 37 83  2  0  0  0  0
 38 41  1  0  0  0  0
 39 48  1  0  0  0  0
 40 71  1  0  0  0  0
 41 43  1  0  0  0  0
 42 44  1  0  0  0  0
 42 45  1  0  0  0  0
 43 47  1  0  0  0  0
 44 49  1  0  0  0  0
 45 72  1  0  0  0  0
 46 49  1  0  0  0  0
 46 72  1  0  0  0  0
 47 75  1  0  0  0  0
 48 71  1  0  0  0  0
 49 70  1  0  0  0  0
 52 66  1  0  0  0  0
 53 67  1  0  0  0  0
 54 67  1  0  0  0  0
 55 67  1  0  0  0  0
 56 78  1  0  0  0  0
 57 59  1  0  0  0  0
 58 60  1  0  0  0  0
 59 64  1  0  0  0  0
 60 61  1  0  0  0  0
 61 62  1  0  0  0  0
 62 63  1  0  0  0  0
 63 77  1  0  0  0  0
 64 85  1  0  0  0  0
 65 67  1  0  0  0  0
 65 76  1  0  0  0  0
 66 78  1  0  0  0  0
 68 70  1  0  0  0  0
M  CHG  1  78   1
M  ISO  4  37 100  64 101  77 100  85 101
M  END
> <Batch ID>
0035

> <Smiles>
CNC(C)C(=O)NC(C(=O)N1Cc2cc([101O:1][101CH2:1]CCc3cc(C)nc(C)c3CCCCC[100NH:0][100C:0](=O)N3CCCC(n4nc(-c5ccc(Oc6ccc(F)cc6F)cc5)c(C(N)=O)c4N)C3)ccc2CC1C(=O)NC1CCCc2ccccc21)C(C)(C)C

> <Shape>
0.294

> <Color>
0.154

> <Negative vol penalty>
0.000

$$$$

  -OEChem-04052316533D

 87 96  0     1  0  0  0  0  0999 V2000
  -23.0831  -34.1647   28.0638 C   0  0  0  0  0  0  0  0  0  0  0  0
  -22.5099  -32.8971   28.0686 C   0  0  0  0  0  0  0  0  0  0  0  0
  -24.2023   -9.1961   21.2029 C   0  0  0  0  0  0  0  0  0  0  0  0
  -25.4081   -9.9821   23.1433 C   0  0  0  0  0  0  0  0  0  0  0  0
  -23.7264  -34.6332   26.9189 C   0  0  0  0  0  0  0  0  0  0  0  0
  -22.5787  -32.0976   26.9283 C   0  0  0  0  0  0  0  0  0  0  0  0
  -23.0634  -25.2312   24.9450 C   0  0  0  0  0  0  0  0  0  0  0  0
  -23.9773   -7.9746   21.8375 C   0  0  0  0  0  0  0  0  0  0  0  0
  -25.1831   -8.7605   23.7780 C   0  0  0  0  0  0  0  0  0  0  0  0
  -22.4350  -24.3025   24.1164 C   0  0  0  0  0  0  0  0  0  0  0  0
  -22.7752   -4.7793   23.0866 C   0  0  0  0  0  0  0  0  0  0  0  0
  -21.4917   -4.2380   23.0149 C   0  0  0  0  0  0  0  0  0  0  0  0
  -24.8417  -19.3511   21.3137 C   0  0  0  0  0  0  0  0  0  0  0  0
  -23.6407  -25.1852   22.2227 C   0  0  0  0  0  0  0  0  0  0  0  0
  -24.6780  -21.1468   22.9152 C   0  0  0  0  0  0  0  0  0  0  0  0
  -20.6045   -6.1950   24.1195 C   0  0  0  0  0  0  0  0  0  0  0  0
  -24.9178  -10.1999   21.8558 C   0  0  0  0  0  0  0  0  0  0  0  0
  -24.1813  -12.3708   20.7367 C   0  0  0  0  0  0  0  0  0  0  0  0
  -23.8116  -33.8353   25.7671 C   0  0  0  0  0  0  0  0  0  0  0  0
  -23.9785  -26.1526   24.4158 C   0  0  0  0  0  0  0  0  0  0  0  0
  -23.2226  -32.5564   25.7665 C   0  0  0  0  0  0  0  0  0  0  0  0
  -26.1952  -19.1636   21.6358 C   0  0  0  0  0  0  0  0  0  0  0  0
  -24.2813  -26.1229   23.0471 C   0  0  0  0  0  0  0  0  0  0  0  0
  -26.7964  -19.9974   22.5958 C   0  0  0  0  0  0  0  0  0  0  0  0
  -24.0878  -20.3356   21.9511 C   0  0  0  0  0  0  0  0  0  0  0  0
  -26.0237  -20.9771   23.2384 C   0  0  0  0  0  0  0  0  0  0  0  0
  -24.4677   -7.7567   23.1250 C   0  0  0  0  0  0  0  0  0  0  0  0
  -22.7215  -24.2813   22.7546 C   0  0  0  0  0  0  0  0  0  0  0  0
  -22.9734   -6.0285   23.6749 C   0  0  0  0  0  0  0  0  0  0  0  0
  -20.4063   -4.9458   23.5313 C   0  0  0  0  0  0  0  0  0  0  0  0
  -21.8880   -6.7363   24.1913 C   0  0  0  0  0  0  0  0  0  0  0  0
  -25.1510  -11.4618   21.2006 C   0  0  0  0  0  0  0  0  0  0  0  0
  -24.9089  -13.4032   20.1969 C   0  0  0  0  0  0  0  0  0  0  0  0
  -22.7508  -12.2893   20.7890 C   0  0  0  0  0  0  0  0  0  0  0  0
  -29.1792  -16.9980   20.5599 C   0  0  0  0  0  0  0  0  0  0  0  0
  -24.1079  -29.3222   24.2144 C   0  0  0  0  0  0  0  0  0  0  0  0
  -27.0733  -28.7369   23.0369 C   0  0  0  0  0  0  0  0  0  0  0  0
  -29.4273  -26.8816   21.0285 C   0  0  0  0  0  0  0  0  0  0  0  0
  -24.4759  -34.4033   24.5380 C   0  0  0  0  0  0  0  0  0  0  0  0
  -24.6678  -27.1304   25.3274 C   0  0  0  0  0  0  0  0  0  0  0  0
  -26.9770  -18.1005   20.8980 C   0  0  0  0  0  0  0  0  0  0  0  0
  -28.2389  -19.8270   22.9977 C   0  0  0  0  0  0  0  0  0  0  0  0
  -25.2714  -27.0773   22.4330 C   0  0  0  0  0  0  0  0  0  0  0  0
  -24.8316  -33.3471   23.4948 C   0  0  0  0  0  0  0  0  0  0  0  0
  -29.0572  -19.0464   21.9693 C   0  0  0  0  0  0  0  0  0  0  0  0
  -29.8343  -13.7727   19.1428 C   0  0  0  0  0  0  0  0  0  0  0  0
  -23.6557  -32.4019   23.2696 C   0  0  0  0  0  0  0  0  0  0  0  0
  -28.6089  -12.9506   19.5396 C   0  0  0  0  0  0  0  0  0  0  0  0
  -30.2102  -14.7749   20.2297 C   0  0  0  0  0  0  0  0  0  0  0  0
  -27.8688  -14.8675   21.0238 C   0  0  0  0  0  0  0  0  0  0  0  0
  -23.2981  -31.6497   24.5572 C   0  0  1  0  0  0  0  0  0  0  0  0
  -25.1971  -28.3595   24.5947 C   0  0  1  0  0  0  0  0  0  0  0  0
  -27.4367  -13.8638   19.9401 C   0  0  2  0  0  0  0  0  0  0  0  0
  -28.3317  -17.7738   21.5366 C   0  0  2  0  0  0  0  0  0  0  0  0
  -27.4489  -24.1845   24.8466 C   0  0  0  0  0  0  0  0  0  0  0  0
  -31.9052  -27.1597   20.7451 C   0  0  0  0  0  0  0  0  0  0  0  0
  -26.3136  -30.4391   20.6212 C   0  0  0  0  0  0  0  0  0  0  0  0
  -28.2694  -29.4593   19.4034 C   0  0  0  0  0  0  0  0  0  0  0  0
  -28.6373  -30.8089   21.4688 C   0  0  0  0  0  0  0  0  0  0  0  0
  -29.9475  -24.0706   21.7945 C   0  0  0  0  0  0  0  0  0  0  0  0
  -22.6339  -20.5197   21.5964 C   0  0  0  0  0  0  0  0  0  0  0  0
  -26.6041  -21.8640   24.2943 C   0  0  0  0  0  0  0  0  0  0  0  0
  -26.8901  -23.2752   23.7637 C   0  0  0  0  0  0  0  0  0  0  0  0
  -22.3988  -21.5147   20.4579 C   0  0  0  0  0  0  0  0  0  0  0  0
  -22.8358  -22.9350   20.7974 C   0  0  0  0  0  0  0  0  0  1  0  0
  -27.6485  -28.4902   21.6631 C   0  0  1  0  0  0  0  0  0  0  0  0
  -30.8000  -26.3938   21.4555 C   0  0  2  0  0  0  0  0  0  0  0  0
  -27.6971  -29.7825   20.8001 C   0  0  0  0  0  0  0  0  0  0  0  0
  -26.3994  -11.8799   20.9751 N   0  0  0  0  0  0  0  0  0  0  0  0
  -26.2191  -13.0629   20.3636 N   0  0  0  0  0  0  0  0  0  0  0  0
  -29.0643  -15.6083   20.5980 N   0  0  0  0  0  0  0  0  0  0  0  0
  -25.9145  -28.0187   23.3645 N   0  0  0  0  0  0  0  0  0  0  0  0
  -24.5493  -14.5598   19.6007 N   0  0  0  0  0  0  0  0  0  0  0  0
  -22.0920  -12.8179   21.9074 N   0  0  0  0  0  0  0  0  0  0  0  0
  -24.2356  -30.5720   24.7898 N   0  0  0  0  0  0  0  0  0  0  0  0
  -28.9486  -27.8618   21.8718 N   0  0  0  0  0  0  0  0  0  0  0  0
  -30.9556  -24.9452   21.1419 N   0  3  0  0  0  0  0  0  0  0  0  0
  -22.0780  -11.7486   19.8789 O   0  0  0  0  0  0  0  0  0  0  0  0
  -29.9183  -17.6107   19.7850 O   0  0  0  0  0  0  0  0  0  0  0  0
  -23.2185  -28.9585   23.4540 O   0  0  0  0  0  0  0  0  0  0  0  0
  -27.6355  -29.5320   23.7941 O   0  0  0  0  0  0  0  0  0  0  0  0
  -28.8403  -26.4401   20.0431 O   0  0  0  0  0  0  0  0  0  0  0  0
  -28.1660  -16.9186   22.6614 O   0  0  0  0  0  0  0  0  0  0  0  0
  -24.2481   -6.5649   23.7447 O   0  0  0  0  0  0  0  0  0  0  0  0
  -22.1091  -23.3763   21.9435 O   0  0  0  0  0  0  0  0  0  1  0  0
  -19.1736   -4.4265   23.4610 F   0  0  0  0  0  0  0  0  0  0  0  0
  -22.0721   -7.9373   24.7566 F   0  0  0  0  0  0  0  0  0  0  0  0
  1  2  1  0  0  0  0
  1  5  2  0  0  0  0
  2  6  2  0  0  0  0
  3  8  2  0  0  0  0
  3 17  1  0  0  0  0
  4  9  1  0  0  0  0
  4 17  2  0  0  0  0
  5 19  1  0  0  0  0
  6 21  1  0  0  0  0
  7 10  2  0  0  0  0
  7 20  1  0  0  0  0
  8 27  1  0  0  0  0
  9 27  2  0  0  0  0
 10 28  1  0  0  0  0
 11 12  2  0  0  0  0
 11 29  1  0  0  0  0
 12 30  1  0  0  0  0
 13 22  2  0  0  0  0
 13 25  1  0  0  0  0
 14 23  1  0  0  0  0
 14 28  2  0  0  0  0
 15 25  2  0  0  0  0
 15 26  1  0  0  0  0
 16 30  2  0  0  0  0
 16 31  1  0  0  0  0
 17 32  1  0  0  0  0
 18 32  1  0  0  0  0
 18 33  2  0  0  0  0
 18 34  1  0  0  0  0
 19 21  2  0  0  0  0
 19 39  1  0  0  0  0
 20 23  2  0  0  0  0
 20 40  1  0  0  0  0
 21 51  1  0  0  0  0
 22 24  1  0  0  0  0
 22 41  1  0  0  0  0
 23 43  1  0  0  0  0
 24 26  2  0  0  0  0
 24 42  1  0  0  0  0
 25 61  1  0  0  0  0
 26 62  1  0  0  0  0
 27 84  1  0  0  0  0
 28 85  1  0  0  0  0
 29 31  2  0  0  0  0
 29 84  1  0  0  0  0
 30 86  1  0  0  0  0
 31 87  1  0  0  0  0
 32 69  2  0  0  0  0
 33 70  1  0  0  0  0
 33 73  1  0  0  0  0
 34 74  1  0  0  0  0
 34 78  2  0  0  0  0
 35 54  1  0  0  0  0
 35 71  1  0  0  0  0
 35 79  2  0  0  0  0
 36 52  1  0  0  0  0
 36 75  1  0  0  0  0
 36 80  2  0  0  0  0
 37 66  1  0  0  0  0
 37 72  1  0  0  0  0
 37 81  2  0  0  0  0
 38 67  1  0  0  0  0
 38 76  1  0  0  0  0
 38 82  2  0  0  0  0
 39 44  1  0  0  0  0
 40 52  1  0  0  0  0
 41 54  1  0  0  0  0
 42 45  1  0  0  0  0
 43 72  1  0  0  0  0
 44 47  1  0  0  0  0
 45 54  1  0  0  0  0
 46 48  1  0  0  0  0
 46 49  1  0  0  0  0
 47 51  1  0  0  0  0
 48 53  1  0  0  0  0
 49 71  1  0  0  0  0
 50 53  1  0  0  0  0
 50 71  1  0  0  0  0
 51 75  1  0  0  0  0
 52 72  1  0  0  0  0
 53 70  1  0  0  0  0
 54 83  1  0  0  0  0
 55 63  1  0  0  0  0
 56 67  1  0  0  0  0
 57 68  1  0  0  0  0
 58 68  1  0  0  0  0
 59 68  1  0  0  0  0
 60 77  1  0  0  0  0
 61 64  1  0  0  0  0
 62 63  1  0  0  0  0
 64 65  1  0  0  0  0
 65 85  1  0  0  0  0
 66 68  1  0  0  0  0
 66 76  1  0  0  0  0
 67 77  1  0  0  0  0
 69 70  1  0  0  0  0
M  CHG  1  77   1
M  ISO  4  35 100  54 100  65 101  85 101
M  END
> <Batch ID>
0035

> <Smiles>
CCCc1cc(CC[101CH2:1][101O:1]c2ccc3c(c2)CN(C(=O)C(NC(=O)C(C)NC)C(C)(C)C)C(C(=O)NC2CCCc4ccccc42)C3)cc2c1CC[100C:0](O)([100C:0](=O)N1CCCC(n3nc(-c4ccc(Oc5ccc(F)cc5F)cc4)c(C(N)=O)c3N)C1)C2

> <Shape>
0.227

> <Color>
0.127

> <Negative vol penalty>
0.000

$$$$

  -OEChem-04052316533D

 83 91  0     1  0  0  0  0  0999 V2000
  -16.8532  -31.2857   21.5201 C   0  0  0  0  0  0  0  0  0  0  0  0
  -18.0720  -31.6070   20.9312 C   0  0  0  0  0  0  0  0  0  0  0  0
  -26.2768  -12.8948   21.3237 C   0  0  0  0  0  0  0  0  0  0  0  0
  -26.1445  -13.1903   18.9295 C   0  0  0  0  0  0  0  0  0  0  0  0
  -16.8224  -30.5020   22.6728 C   0  0  0  0  0  0  0  0  0  0  0  0
  -19.2608  -31.1456   21.4954 C   0  0  0  0  0  0  0  0  0  0  0  0
  -25.8466  -29.0029   19.6644 C   0  0  0  0  0  0  0  0  0  0  0  0
  -25.0656  -12.2033   21.3053 C   0  0  0  0  0  0  0  0  0  0  0  0
  -24.9333  -12.4988   18.9110 C   0  0  0  0  0  0  0  0  0  0  0  0
  -27.1842  -29.2551   19.9663 C   0  0  0  0  0  0  0  0  0  0  0  0
  -23.9832   -9.0954   20.5293 C   0  0  0  0  0  0  0  0  0  0  0  0
  -23.8993   -7.9152   21.2680 C   0  0  0  0  0  0  0  0  0  0  0  0
  -27.0046  -27.8426   21.9136 C   0  0  0  0  0  0  0  0  0  0  0  0
  -32.0275  -25.4356   19.6164 C   0  0  0  0  0  0  0  0  0  0  0  0
  -29.8049  -26.2700   19.1684 C   0  0  0  0  0  0  0  0  0  0  0  0
  -22.1048   -8.8632   22.5788 C   0  0  0  0  0  0  0  0  0  0  0  0
  -26.8163  -13.3884   20.1358 C   0  0  0  0  0  0  0  0  0  0  0  0
  -29.3586  -13.5605   20.0156 C   0  0  0  0  0  0  0  0  0  0  0  0
  -18.0109  -30.0228   23.2460 C   0  0  0  0  0  0  0  0  0  0  0  0
  -25.0737  -28.1760   20.4922 C   0  0  0  0  0  0  0  0  0  0  0  0
  -19.2459  -30.3559   22.6576 C   0  0  0  0  0  0  0  0  0  0  0  0
  -25.6582  -27.5794   21.6185 C   0  0  0  0  0  0  0  0  0  0  0  0
  -31.1001  -26.4771   19.6432 C   0  0  0  0  0  0  0  0  0  0  0  0
  -31.6599  -24.1870   19.1148 C   0  0  0  0  0  0  0  0  0  0  0  0
  -30.3647  -23.9799   18.6400 C   0  0  0  0  0  0  0  0  0  0  0  0
  -24.3939  -12.0052   20.0989 C   0  0  0  0  0  0  0  0  0  0  0  0
  -27.7626  -28.6772   21.0927 C   0  0  0  0  0  0  0  0  0  0  0  0
  -23.1280  -10.1595   20.8154 C   0  0  0  0  0  0  0  0  0  0  0  0
  -22.9601   -7.7991   22.2927 C   0  0  0  0  0  0  0  0  0  0  0  0
  -22.1888  -10.0435   21.8401 C   0  0  0  0  0  0  0  0  0  0  0  0
  -29.4373  -25.0214   18.6668 C   0  0  0  0  0  0  0  0  0  0  0  0
  -28.0671  -14.1033   20.1542 C   0  0  0  0  0  0  0  0  0  0  0  0
  -30.1978  -14.6444   20.1022 C   0  0  0  0  0  0  0  0  0  0  0  0
  -29.7636  -12.1983   19.8256 C   0  0  0  0  0  0  0  0  0  0  0  0
  -22.4620  -28.5810   22.2581 C   0  0  0  0  0  0  0  0  0  0  0  0
  -22.7163  -25.3736   22.6709 C   0  0  0  0  0  0  0  0  0  0  0  0
  -24.7081  -22.6024   22.6791 C   0  0  0  0  0  0  0  0  0  0  0  0
  -29.3716  -20.3644   18.8965 C   0  0  0  0  0  0  0  0  0  0  0  0
  -17.9300  -29.2184   24.5192 C   0  0  0  0  0  0  0  0  0  0  0  0
  -23.6397  -27.8925   20.1380 C   0  0  0  0  0  0  0  0  0  0  0  0
  -24.8772  -26.6679   22.5283 C   0  0  0  0  0  0  0  0  0  0  0  0
  -19.2133  -28.4571   24.8413 C   0  0  0  0  0  0  0  0  0  0  0  0
  -30.4950  -19.0035   22.0561 C   0  0  0  0  0  0  0  0  0  0  0  0
  -20.4284  -29.3639   24.6734 C   0  0  0  0  0  0  0  0  0  0  0  0
  -30.1161  -17.5292   21.9041 C   0  0  0  0  0  0  0  0  0  0  0  0
  -29.4454  -19.9120   21.4228 C   0  0  0  0  0  0  0  0  0  0  0  0
  -28.7833  -18.1474   19.8350 C   0  0  0  0  0  0  0  0  0  0  0  0
  -20.5555  -29.8536   23.2259 C   0  0  1  0  0  0  0  0  0  0  0  0
  -22.8055  -27.4464   21.3348 C   0  0  1  0  0  0  0  0  0  0  0  0
  -29.8161  -17.1763   20.4352 C   0  0  2  0  0  0  0  0  0  0  0  0
  -32.6742  -23.0903   19.0969 C   0  0  0  0  0  0  0  0  0  0  0  0
  -24.6388  -20.1279   23.0902 C   0  0  0  0  0  0  0  0  0  0  0  0
  -22.6134  -25.8786   25.6783 C   0  0  0  0  0  0  0  0  0  0  0  0
  -23.4880  -23.5587   26.0273 C   0  0  0  0  0  0  0  0  0  0  0  0
  -21.2866  -23.9043   24.9060 C   0  0  0  0  0  0  0  0  0  0  0  0
  -25.5639  -22.0013   19.9105 C   0  0  0  0  0  0  0  0  0  0  0  0
  -31.4979  -27.8261   20.1866 C   0  0  0  0  0  0  0  0  0  0  0  0
  -29.9866  -22.6341   18.1043 C   0  0  0  0  0  0  0  0  0  0  0  0
  -31.2543  -27.9811   21.6893 C   0  0  0  0  0  0  0  0  0  0  0  0
  -29.7821  -27.8938   22.0744 C   0  0  0  0  0  0  0  0  0  1  0  0
  -23.4134  -24.4754   23.6640 C   0  0  1  0  0  0  0  0  0  0  0  0
  -24.5303  -21.2322   22.0503 C   0  0  2  0  0  0  0  0  0  0  0  0
  -22.7148  -24.4729   25.0530 C   0  0  0  0  0  0  0  0  0  0  0  0
  -28.0797  -15.4290   20.3167 N   0  0  0  0  0  0  0  0  0  0  0  0
  -29.3894  -15.7283   20.2808 N   0  0  0  0  0  0  0  0  0  0  0  0
  -23.4769  -26.4265   22.1431 N   0  0  0  0  0  0  0  0  0  0  0  0
  -29.2201  -19.5352   20.0202 N   0  0  0  0  0  0  0  0  0  0  0  0
  -31.5409  -14.7665   20.0424 N   0  0  0  0  0  0  0  0  0  0  0  0
  -28.7724  -11.2096   19.7590 N   0  0  0  0  0  0  0  0  0  0  0  0
  -21.1055  -28.8112   22.3860 N   0  0  0  0  0  0  0  0  0  0  0  0
  -23.4992  -23.1615   23.0359 N   0  0  0  0  0  0  0  0  0  0  0  0
  -29.7815  -21.6659   19.1587 N   0  0  0  0  0  0  0  0  0  0  0  0
  -25.5710  -21.0011   21.0090 N   0  3  0  0  0  0  0  0  0  0  0  0
  -30.9696  -11.8656   19.7343 O   0  0  0  0  0  0  0  0  0  0  0  0
  -23.3610  -29.2006   22.8144 O   0  0  0  0  0  0  0  0  0  0  0  0
  -21.5423  -25.1449   22.3690 O   0  0  0  0  0  0  0  0  0  0  0  0
  -25.8096  -23.1231   22.8411 O   0  0  0  0  0  0  0  0  0  0  0  0
  -29.1623  -19.9723   17.7434 O   0  0  0  0  0  0  0  0  0  0  0  0
  -23.2120  -11.3303   20.0806 O   0  0  0  0  0  0  0  0  0  0  0  0
  -29.0677  -28.9222   21.3900 O   0  0  0  0  0  0  0  0  0  1  0  0
  -22.8785   -6.6651   23.0009 F   0  0  0  0  0  0  0  0  0  0  0  0
  -21.3637  -11.0620   22.1187 F   0  0  0  0  0  0  0  0  0  0  0  0
  -27.8243  -24.8047   18.0901 Cl  0  0  0  0  0  0  0  0  0  0  0  0
  1  2  1  0  0  0  0
  1  5  2  0  0  0  0
  2  6  2  0  0  0  0
  3  8  2  0  0  0  0
  3 17  1  0  0  0  0
  4  9  1  0  0  0  0
  4 17  2  0  0  0  0
  5 19  1  0  0  0  0
  6 21  1  0  0  0  0
  7 10  2  0  0  0  0
  7 20  1  0  0  0  0
  8 26  1  0  0  0  0
  9 26  2  0  0  0  0
 10 27  1  0  0  0  0
 11 12  2  0  0  0  0
 11 28  1  0  0  0  0
 12 29  1  0  0  0  0
 13 22  1  0  0  0  0
 13 27  2  0  0  0  0
 14 23  1  0  0  0  0
 14 24  2  0  0  0  0
 15 23  2  0  0  0  0
 15 31  1  0  0  0  0
 16 29  2  0  0  0  0
 16 30  1  0  0  0  0
 17 32  1  0  0  0  0
 18 32  1  0  0  0  0
 18 33  2  0  0  0  0
 18 34  1  0  0  0  0
 19 21  2  0  0  0  0
 19 39  1  0  0  0  0
 20 22  2  0  0  0  0
 20 40  1  0  0  0  0
 21 48  1  0  0  0  0
 22 41  1  0  0  0  0
 23 57  1  0  0  0  0
 24 25  1  0  0  0  0
 24 51  1  0  0  0  0
 25 31  2  0  0  0  0
 25 58  1  0  0  0  0
 26 79  1  0  0  0  0
 27 80  1  0  0  0  0
 28 30  2  0  0  0  0
 28 79  1  0  0  0  0
 29 81  1  0  0  0  0
 30 82  1  0  0  0  0
 31 83  1  0  0  0  0
 32 64  2  0  0  0  0
 33 65  1  0  0  0  0
 33 68  1  0  0  0  0
 34 69  1  0  0  0  0
 34 74  2  0  0  0  0
 35 49  1  0  0  0  0
 35 70  1  0  0  0  0
 35 75  2  0  0  0  0
 36 61  1  0  0  0  0
 36 66  1  0  0  0  0
 36 76  2  0  0  0  0
 37 62  1  0  0  0  0
 37 71  1  0  0  0  0
 37 77  2  0  0  0  0
 38 67  1  0  0  0  0
 38 72  1  0  0  0  0
 38 78  2  0  0  0  0
 39 42  1  0  0  0  0
 40 49  1  0  0  0  0
 41 66  1  0  0  0  0
 42 44  1  0  0  0  0
 43 45  1  0  0  0  0
 43 46  1  0  0  0  0
 44 48  1  0  0  0  0
 45 50  1  0  0  0  0
 46 67  1  0  0  0  0
 47 50  1  0  0  0  0
 47 67  1  0  0  0  0
 48 70  1  0  0  0  0
 49 66  1  0  0  0  0
 50 65  1  0  0  0  0
 52 62  1  0  0  0  0
 53 63  1  0  0  0  0
 54 63  1  0  0  0  0
 55 63  1  0  0  0  0
 56 73  1  0  0  0  0
 57 59  1  0  0  0  0
 58 72  1  0  0  0  0
 59 60  1  0  0  0  0
 60 80  1  0  0  0  0
 61 63  1  0  0  0  0
 61 71  1  0  0  0  0
 62 73  1  0  0  0  0
 64 65  1  0  0  0  0
M  CHG  1  73   1
M  ISO  4  38 100  60 101  72 100  80 101
M  END
> <Batch ID>
0035

> <Smiles>
CNC(C)C(=O)NC(C(=O)N1Cc2cc([101O:1][101CH2:1]CCc3cc(C)c(C[100NH:0][100C:0](=O)N4CCCC(n5nc(-c6ccc(Oc7ccc(F)cc7F)cc6)c(C(N)=O)c5N)C4)c(Cl)c3)ccc2CC1C(=O)NC1CCCc2ccccc21)C(C)(C)C

> <Shape>
0.292

> <Color>
0.091

> <Negative vol penalty>
0.000

$$$$

  -OEChem-04052316533D

 82 90  0     1  0  0  0  0  0999 V2000
  -24.7333  -25.2895   23.3165 C   0  0  0  0  0  0  0  0  0  0  0  0
  -25.1896  -24.5334   22.2416 C   0  0  0  0  0  0  0  0  0  0  0  0
  -26.2127  -27.9857   18.9003 C   0  0  0  0  0  0  0  0  0  0  0  0
  -26.4351  -27.6867   21.2874 C   0  0  0  0  0  0  0  0  0  0  0  0
  -24.5412  -24.6874   24.5592 C   0  0  0  0  0  0  0  0  0  0  0  0
  -25.4551  -23.1748   22.4091 C   0  0  0  0  0  0  0  0  0  0  0  0
  -25.2237  -16.9610   18.8520 C   0  0  0  0  0  0  0  0  0  0  0  0
  -25.0961  -28.7959   19.1058 C   0  0  0  0  0  0  0  0  0  0  0  0
  -25.3184  -28.4970   21.4929 C   0  0  0  0  0  0  0  0  0  0  0  0
  -26.0322  -15.8700   18.5363 C   0  0  0  0  0  0  0  0  0  0  0  0
  -21.9555  -28.1962   21.3160 C   0  0  0  0  0  0  0  0  0  0  0  0
  -20.9991  -27.7611   22.2333 C   0  0  0  0  0  0  0  0  0  0  0  0
  -25.5882  -14.9199   20.7087 C   0  0  0  0  0  0  0  0  0  0  0  0
  -29.5861  -15.5431   20.7904 C   0  0  0  0  0  0  0  0  0  0  0  0
  -21.3529  -29.7565   23.5487 C   0  0  0  0  0  0  0  0  0  0  0  0
  -32.2634  -15.8104   20.3364 C   0  0  0  0  0  0  0  0  0  0  0  0
  -26.8822  -27.4310   19.9911 C   0  0  0  0  0  0  0  0  0  0  0  0
  -29.3805  -27.0019   19.7055 C   0  0  0  0  0  0  0  0  0  0  0  0
  -24.7952  -23.3186   24.7396 C   0  0  0  0  0  0  0  0  0  0  0  0
  -24.5991  -17.0451   20.1047 C   0  0  0  0  0  0  0  0  0  0  0  0
  -25.2675  -22.5540   23.6558 C   0  0  0  0  0  0  0  0  0  0  0  0
  -24.7702  -16.0118   21.0369 C   0  0  0  0  0  0  0  0  0  0  0  0
  -30.2035  -16.7618   21.0493 C   0  0  0  0  0  0  0  0  0  0  0  0
  -31.5673  -16.9062   20.8207 C   0  0  0  0  0  0  0  0  0  0  0  0
  -24.6489  -29.0516   20.4021 C   0  0  0  0  0  0  0  0  0  0  0  0
  -26.2169  -14.8506   19.4657 C   0  0  0  0  0  0  0  0  0  0  0  0
  -22.6108  -29.4114   21.5150 C   0  0  0  0  0  0  0  0  0  0  0  0
  -20.6977  -28.5412   23.3496 C   0  0  0  0  0  0  0  0  0  0  0  0
  -22.3094  -30.1916   22.6314 C   0  0  0  0  0  0  0  0  0  0  0  0
  -28.0354  -26.5935   19.7795 C   0  0  0  0  0  0  0  0  0  0  0  0
  -30.3708  -14.5084   20.3073 C   0  0  0  0  0  0  0  0  0  0  0  0
  -30.0812  -25.8394   19.4955 C   0  0  0  0  0  0  0  0  0  0  0  0
  -29.9461  -28.3147   19.8168 C   0  0  0  0  0  0  0  0  0  0  0  0
  -24.7473  -19.0657   22.5540 C   0  0  0  0  0  0  0  0  0  0  0  0
  -22.3155  -17.2483   23.6966 C   0  0  0  0  0  0  0  0  0  0  0  0
  -20.6957  -14.2444   23.6964 C   0  0  0  0  0  0  0  0  0  0  0  0
  -28.8847  -20.2231   20.8668 C   0  0  0  0  0  0  0  0  0  0  0  0
  -24.6179  -22.7223   26.1135 C   0  0  0  0  0  0  0  0  0  0  0  0
  -23.7086  -18.2157   20.4199 C   0  0  0  0  0  0  0  0  0  0  0  0
  -24.1055  -16.0446   22.3881 C   0  0  0  0  0  0  0  0  0  0  0  0
  -24.5648  -21.1967   26.1131 C   0  0  0  0  0  0  0  0  0  0  0  0
  -29.6209  -21.4877   17.5568 C   0  0  0  0  0  0  0  0  0  0  0  0
  -25.6854  -20.6238   25.2512 C   0  0  0  0  0  0  0  0  0  0  0  0
  -29.4221  -22.9915   17.7546 C   0  0  0  0  0  0  0  0  0  0  0  0
  -28.5995  -20.6851   18.3573 C   0  0  0  0  0  0  0  0  0  0  0  0
  -28.3810  -22.4954   20.0151 C   0  0  0  0  0  0  0  0  0  0  0  0
  -25.5429  -21.0722   23.7917 C   0  0  1  0  0  0  0  0  0  0  0  0
  -23.5345  -18.4477   21.9177 C   0  0  1  0  0  0  0  0  0  0  0  0
  -29.3976  -23.3617   19.2495 C   0  0  2  0  0  0  0  0  0  0  0  0
  -32.2786  -18.1885   21.0814 C   0  0  0  0  0  0  0  0  0  0  0  0
  -18.7641  -13.0479   24.7615 C   0  0  0  0  0  0  0  0  0  0  0  0
  -23.9463  -16.8945   26.2511 C   0  0  0  0  0  0  0  0  0  0  0  0
  -22.4519  -14.9793   26.8570 C   0  0  0  0  0  0  0  0  0  0  0  0
  -21.5017  -17.2733   26.6181 C   0  0  0  0  0  0  0  0  0  0  0  0
  -19.3485  -13.8566   21.0899 C   0  0  0  0  0  0  0  0  0  0  0  0
  -29.3857  -17.8969   21.5702 C   0  0  0  0  0  0  0  0  0  0  0  0
  -29.7354  -13.1725   20.0155 C   0  0  0  0  0  0  0  0  0  0  0  0
  -29.2122  -13.0389   18.5837 C   0  0  0  0  0  0  0  0  0  0  0  0
  -28.0876  -14.0149   18.2582 C   0  0  0  0  0  0  0  0  0  1  0  0
  -22.2182  -16.0071   24.5504 C   0  0  1  0  0  0  0  0  0  0  0  0
  -19.2229  -13.8942   23.5842 C   0  0  2  0  0  0  0  0  0  0  0  0
  -22.5437  -16.2886   26.0445 C   0  0  0  0  0  0  0  0  0  0  0  0
  -31.6983  -14.6110   20.0729 N   0  0  0  0  0  0  0  0  0  0  0  0
  -27.8878  -25.2746   19.6285 N   0  0  0  0  0  0  0  0  0  0  0  0
  -29.1494  -24.8442   19.4575 N   0  0  0  0  0  0  0  0  0  0  0  0
  -23.2495  -17.2131   22.6516 N   0  0  0  0  0  0  0  0  0  0  0  0
  -28.6402  -21.0720   19.7746 N   0  0  0  0  0  0  0  0  0  0  0  0
  -31.3974  -25.5816   19.3413 N   0  0  0  0  0  0  0  0  0  0  0  0
  -29.0833  -29.3979   20.0321 N   0  0  0  0  0  0  0  0  0  0  0  0
  -24.5148  -20.3026   23.1245 N   0  0  0  0  0  0  0  0  0  0  0  0
  -20.8858  -15.4582   24.3224 N   0  0  0  0  0  0  0  0  0  0  0  0
  -29.1139  -18.8888   20.5538 N   0  0  0  0  0  0  0  0  0  0  0  0
  -18.9656  -13.1326   22.3294 N   0  3  0  0  0  0  0  0  0  0  0  0
  -31.1786  -28.5230   19.7116 O   0  0  0  0  0  0  0  0  0  0  0  0
  -25.8147  -18.4641   22.5306 O   0  0  0  0  0  0  0  0  0  0  0  0
  -21.5845  -18.2108   23.9432 O   0  0  0  0  0  0  0  0  0  0  0  0
  -21.5884  -13.5126   23.2745 O   0  0  0  0  0  0  0  0  0  0  0  0
  -28.9027  -20.6255   22.0351 O   0  0  0  0  0  0  0  0  0  0  0  0
  -23.5595  -29.8424   20.6030 O   0  0  0  0  0  0  0  0  0  0  0  0
  -27.0060  -13.7849   19.1603 O   0  0  0  0  0  0  0  0  0  1  0  0
  -19.7781  -28.1240   24.2296 F   0  0  0  0  0  0  0  0  0  0  0  0
  -22.9347  -31.3605   22.8273 F   0  0  0  0  0  0  0  0  0  0  0  0
  1  2  1  0  0  0  0
  1  5  2  0  0  0  0
  2  6  2  0  0  0  0
  3  8  2  0  0  0  0
  3 17  1  0  0  0  0
  4  9  1  0  0  0  0
  4 17  2  0  0  0  0
  5 19  1  0  0  0  0
  6 21  1  0  0  0  0
  7 10  2  0  0  0  0
  7 20  1  0  0  0  0
  8 25  1  0  0  0  0
  9 25  2  0  0  0  0
 10 26  1  0  0  0  0
 11 12  2  0  0  0  0
 11 27  1  0  0  0  0
 12 28  1  0  0  0  0
 13 22  1  0  0  0  0
 13 26  2  0  0  0  0
 14 23  2  0  0  0  0
 14 31  1  0  0  0  0
 15 28  2  0  0  0  0
 15 29  1  0  0  0  0
 16 24  2  0  0  0  0
 16 63  1  0  0  0  0
 17 30  1  0  0  0  0
 18 30  1  0  0  0  0
 18 32  2  0  0  0  0
 18 33  1  0  0  0  0
 19 21  2  0  0  0  0
 19 38  1  0  0  0  0
 20 22  2  0  0  0  0
 20 39  1  0  0  0  0
 21 47  1  0  0  0  0
 22 40  1  0  0  0  0
 23 24  1  0  0  0  0
 23 56  1  0  0  0  0
 24 50  1  0  0  0  0
 25 79  1  0  0  0  0
 26 80  1  0  0  0  0
 27 29  2  0  0  0  0
 27 79  1  0  0  0  0
 28 81  1  0  0  0  0
 29 82  1  0  0  0  0
 30 64  2  0  0  0  0
 31 57  1  0  0  0  0
 31 63  2  0  0  0  0
 32 65  1  0  0  0  0
 32 68  1  0  0  0  0
 33 69  1  0  0  0  0
 33 74  2  0  0  0  0
 34 48  1  0  0  0  0
 34 70  1  0  0  0  0
 34 75  2  0  0  0  0
 35 60  1  0  0  0  0
 35 66  1  0  0  0  0
 35 76  2  0  0  0  0
 36 61  1  0  0  0  0
 36 71  1  0  0  0  0
 36 77  2  0  0  0  0
 37 67  1  0  0  0  0
 37 72  1  0  0  0  0
 37 78  2  0  0  0  0
 38 41  1  0  0  0  0
 39 48  1  0  0  0  0
 40 66  1  0  0  0  0
 41 43  1  0  0  0  0
 42 44  1  0  0  0  0
 42 45  1  0  0  0  0
 43 47  1  0  0  0  0
 44 49  1  0  0  0  0
 45 67  1  0  0  0  0
 46 49  1  0  0  0  0
 46 67  1  0  0  0  0
 47 70  1  0  0  0  0
 48 66  1  0  0  0  0
 49 65  1  0  0  0  0
 51 61  1  0  0  0  0
 52 62  1  0  0  0  0
 53 62  1  0  0  0  0
 54 62  1  0  0  0  0
 55 73  1  0  0  0  0
 56 72  1  0  0  0  0
 57 58  1  0  0  0  0
 58 59  1  0  0  0  0
 59 80  1  0  0  0  0
 60 62  1  0  0  0  0
 60 71  1  0  0  0  0
 61 73  1  0  0  0  0
 64 65  1  0  0  0  0
M  CHG  1  73   1
M  ISO  4  37 100  59 101  72 100  80 101
M  END
> <Batch ID>
0035

> <Smiles>
CNC(C)C(=O)NC(C(=O)N1Cc2cc([101O:1][101CH2:1]CCc3cc(C[100NH:0][100C:0](=O)N4CCCC(n5nc(-c6ccc(Oc7ccc(F)cc7F)cc6)c(C(N)=O)c5N)C4)c(C)cn3)ccc2CC1C(=O)NC1CCCc2ccccc21)C(C)(C)C

> <Shape>
0.232

> <Color>
0.050

> <Negative vol penalty>
0.000

$$$$

  -OEChem-04052316533D

 83 91  0     1  0  0  0  0  0999 V2000
  -19.8286   -8.3875   21.4131 C   0  0  0  0  0  0  0  0  0  0  0  0
  -19.1603   -9.6060   21.4765 C   0  0  0  0  0  0  0  0  0  0  0  0
  -29.2683  -26.6954   18.0515 C   0  0  0  0  0  0  0  0  0  0  0  0
  -28.8792  -25.5543   20.1452 C   0  0  0  0  0  0  0  0  0  0  0  0
  -21.1498   -8.2949   21.8485 C   0  0  0  0  0  0  0  0  0  0  0  0
  -19.8125  -10.7325   21.9766 C   0  0  0  0  0  0  0  0  0  0  0  0
  -19.0987  -16.5257   20.1232 C   0  0  0  0  0  0  0  0  0  0  0  0
  -18.4676  -26.3763   23.6630 C   0  0  0  0  0  0  0  0  0  0  0  0
  -19.0952  -27.6107   23.8301 C   0  0  0  0  0  0  0  0  0  0  0  0
  -30.5563  -26.1625   18.0005 C   0  0  0  0  0  0  0  0  0  0  0  0
  -30.1672  -25.0213   20.0941 C   0  0  0  0  0  0  0  0  0  0  0  0
  -18.3482  -17.5865   20.6285 C   0  0  0  0  0  0  0  0  0  0  0  0
  -31.7565  -22.5001   18.5010 C   0  0  0  0  0  0  0  0  0  0  0  0
  -31.9081  -21.1459   18.7988 C   0  0  0  0  0  0  0  0  0  0  0  0
  -20.2930  -18.3940   21.8052 C   0  0  0  0  0  0  0  0  0  0  0  0
  -18.9003  -26.4777   21.2882 C   0  0  0  0  0  0  0  0  0  0  0  0
  -33.3762  -21.7134   20.6318 C   0  0  0  0  0  0  0  0  0  0  0  0
  -28.4297  -26.3913   19.1240 C   0  0  0  0  0  0  0  0  0  0  0  0
  -25.9231  -26.3758   18.6506 C   0  0  0  0  0  0  0  0  0  0  0  0
  -21.8218   -9.4230   22.3451 C   0  0  0  0  0  0  0  0  0  0  0  0
  -20.4515  -16.3848   20.4645 C   0  0  0  0  0  0  0  0  0  0  0  0
  -21.1436  -10.6546   22.4203 C   0  0  0  0  0  0  0  0  0  0  0  0
  -21.0591  -17.3321   21.3009 C   0  0  0  0  0  0  0  0  0  0  0  0
  -18.3702  -25.8097   22.3921 C   0  0  0  0  0  0  0  0  0  0  0  0
  -19.6252  -28.2787   22.7262 C   0  0  0  0  0  0  0  0  0  0  0  0
  -31.0058  -25.3255   19.0217 C   0  0  0  0  0  0  0  0  0  0  0  0
  -18.9445  -18.5192   21.4719 C   0  0  0  0  0  0  0  0  0  0  0  0
  -32.4147  -23.4610   19.2686 C   0  0  0  0  0  0  0  0  0  0  0  0
  -32.7180  -20.7525   19.8642 C   0  0  0  0  0  0  0  0  0  0  0  0
  -33.2245  -23.0676   20.3340 C   0  0  0  0  0  0  0  0  0  0  0  0
  -19.5278  -27.7122   21.4553 C   0  0  0  0  0  0  0  0  0  0  0  0
  -27.0993  -26.9419   19.1776 C   0  0  0  0  0  0  0  0  0  0  0  0
  -24.9374  -27.2804   18.9614 C   0  0  0  0  0  0  0  0  0  0  0  0
  -25.7380  -25.1424   17.9434 C   0  0  0  0  0  0  0  0  0  0  0  0
  -22.1639  -14.1789   21.9827 C   0  0  0  0  0  0  0  0  0  0  0  0
  -24.6551  -16.0486   21.0767 C   0  0  0  0  0  0  0  0  0  0  0  0
  -25.7720  -19.1367   20.1476 C   0  0  0  0  0  0  0  0  0  0  0  0
  -22.4666  -30.7327   22.5838 C   0  0  0  0  0  0  0  0  0  0  0  0
  -23.2346   -9.2634   22.8482 C   0  0  0  0  0  0  0  0  0  0  0  0
  -21.2541  -15.2500   19.8896 C   0  0  0  0  0  0  0  0  0  0  0  0
  -22.5133  -17.2372   21.6814 C   0  0  0  0  0  0  0  0  0  0  0  0
  -23.9749  -10.5878   23.0156 C   0  0  0  0  0  0  0  0  0  0  0  0
  -25.2469  -31.9996   20.7558 C   0  0  0  0  0  0  0  0  0  0  0  0
  -23.0953  -11.6034   23.7381 C   0  0  0  0  0  0  0  0  0  0  0  0
  -25.8827  -30.7499   20.1444 C   0  0  0  0  0  0  0  0  0  0  0  0
  -24.6947  -31.7258   22.1530 C   0  0  0  0  0  0  0  0  0  0  0  0
  -24.3982  -29.3365   21.6267 C   0  0  0  0  0  0  0  0  0  0  0  0
  -21.8252  -11.9046   22.9333 C   0  0  1  0  0  0  0  0  0  0  0  0
  -22.4927  -14.9159   20.7152 C   0  0  1  0  0  0  0  0  0  0  0  0
  -24.9195  -29.5486   20.1951 C   0  0  2  0  0  0  0  0  0  0  0  0
  -27.8651  -20.3639   19.5073 C   0  0  0  0  0  0  0  0  0  0  0  0
  -25.5131  -16.1076   24.0042 C   0  0  0  0  0  0  0  0  0  0  0  0
  -26.9852  -18.0585   23.4611 C   0  0  0  0  0  0  0  0  0  0  0  0
  -27.3904  -15.8512   22.3719 C   0  0  0  0  0  0  0  0  0  0  0  0
  -24.7012  -19.8024   17.4701 C   0  0  0  0  0  0  0  0  0  0  0  0
  -17.6917  -24.4752   22.2114 C   0  0  0  0  0  0  0  0  0  0  0  0
  -20.2888  -29.5995   22.9473 C   0  0  0  0  0  0  0  0  0  0  0  0
  -18.6398  -23.2771   22.3327 C   0  0  0  0  0  0  0  0  0  0  0  0
  -17.9490  -21.9381   22.0704 C   0  0  0  0  0  0  0  0  0  0  0  0
  -18.9114  -20.7702   22.2388 C   0  0  0  0  0  0  0  0  0  1  0  0
  -25.3837  -17.2249   21.6803 C   0  0  1  0  0  0  0  0  0  0  0  0
  -26.6620  -19.5832   19.0017 C   0  0  2  0  0  0  0  0  0  0  0  0
  -26.2902  -16.8116   22.8740 C   0  0  0  0  0  0  0  0  0  0  0  0
  -26.8827  -28.1155   19.7775 N   0  0  0  0  0  0  0  0  0  0  0  0
  -25.5590  -28.2941   19.6294 N   0  0  0  0  0  0  0  0  0  0  0  0
  -23.2543  -16.1063   21.0988 N   0  0  0  0  0  0  0  0  0  0  0  0
  -23.7872  -30.5760   22.1318 N   0  0  0  0  0  0  0  0  0  0  0  0
  -23.6083  -27.2997   18.7257 N   0  0  0  0  0  0  0  0  0  0  0  0
  -26.8573  -24.3321   17.7090 N   0  0  0  0  0  0  0  0  0  0  0  0
  -22.1215  -12.8051   21.8398 N   0  0  0  0  0  0  0  0  0  0  0  0
  -26.0975  -17.8695   20.5832 N   0  0  0  0  0  0  0  0  0  0  0  0
  -21.6713  -29.5948   22.5238 N   0  0  0  0  0  0  0  0  0  0  0  0
  -25.8991  -20.4521   18.0616 N   0  3  0  0  0  0  0  0  0  0  0  0
  -24.6160  -24.7776   17.5172 O   0  0  0  0  0  0  0  0  0  0  0  0
  -21.9650  -14.8098   23.0142 O   0  0  0  0  0  0  0  0  0  0  0  0
  -25.3048  -15.1163   20.5968 O   0  0  0  0  0  0  0  0  0  0  0  0
  -24.8799  -19.8428   20.6124 O   0  0  0  0  0  0  0  0  0  0  0  0
  -22.0271  -31.8083   23.0044 O   0  0  0  0  0  0  0  0  0  0  0  0
  -32.2625  -24.8051   18.9721 O   0  0  0  0  0  0  0  0  0  0  0  0
  -18.2141  -19.5551   21.9671 O   0  0  0  0  0  0  0  0  0  1  0  0
  -32.8623  -19.4521   20.1511 F   0  0  0  0  0  0  0  0  0  0  0  0
  -33.8585  -23.9862   21.0757 F   0  0  0  0  0  0  0  0  0  0  0  0
  -20.1710  -28.5103   20.0665 Cl  0  0  0  0  0  0  0  0  0  0  0  0
  1  2  1  0  0  0  0
  1  5  2  0  0  0  0
  2  6  2  0  0  0  0
  3 10  2  0  0  0  0
  3 18  1  0  0  0  0
  4 11  1  0  0  0  0
  4 18  2  0  0  0  0
  5 20  1  0  0  0  0
  6 22  1  0  0  0  0
  7 12  2  0  0  0  0
  7 21  1  0  0  0  0
  8  9  2  0  0  0  0
  8 24  1  0  0  0  0
  9 25  1  0  0  0  0
 10 26  1  0  0  0  0
 11 26  2  0  0  0  0
 12 27  1  0  0  0  0
 13 14  2  0  0  0  0
 13 28  1  0  0  0  0
 14 29  1  0  0  0  0
 15 23  1  0  0  0  0
 15 27  2  0  0  0  0
 16 24  2  0  0  0  0
 16 31  1  0  0  0  0
 17 29  2  0  0  0  0
 17 30  1  0  0  0  0
 18 32  1  0  0  0  0
 19 32  1  0  0  0  0
 19 33  2  0  0  0  0
 19 34  1  0  0  0  0
 20 22  2  0  0  0  0
 20 39  1  0  0  0  0
 21 23  2  0  0  0  0
 21 40  1  0  0  0  0
 22 48  1  0  0  0  0
 23 41  1  0  0  0  0
 24 56  1  0  0  0  0
 25 31  2  0  0  0  0
 25 57  1  0  0  0  0
 26 79  1  0  0  0  0
 27 80  1  0  0  0  0
 28 30  2  0  0  0  0
 28 79  1  0  0  0  0
 29 81  1  0  0  0  0
 30 82  1  0  0  0  0
 31 83  1  0  0  0  0
 32 64  2  0  0  0  0
 33 65  1  0  0  0  0
 33 68  1  0  0  0  0
 34 69  1  0  0  0  0
 34 74  2  0  0  0  0
 35 49  1  0  0  0  0
 35 70  1  0  0  0  0
 35 75  2  0  0  0  0
 36 61  1  0  0  0  0
 36 66  1  0  0  0  0
 36 76  2  0  0  0  0
 37 62  1  0  0  0  0
 37 71  1  0  0  0  0
 37 77  2  0  0  0  0
 38 67  1  0  0  0  0
 38 72  1  0  0  0  0
 38 78  2  0  0  0  0
 39 42  1  0  0  0  0
 40 49  1  0  0  0  0
 41 66  1  0  0  0  0
 42 44  1  0  0  0  0
 43 45  1  0  0  0  0
 43 46  1  0  0  0  0
 44 48  1  0  0  0  0
 45 50  1  0  0  0  0
 46 67  1  0  0  0  0
 47 50  1  0  0  0  0
 47 67  1  0  0  0  0
 48 70  1  0  0  0  0
 49 66  1  0  0  0  0
 50 65  1  0  0  0  0
 51 62  1  0  0  0  0
 52 63  1  0  0  0  0
 53 63  1  0  0  0  0
 54 63  1  0  0  0  0
 55 73  1  0  0  0  0
 56 58  1  0  0  0  0
 57 72  1  0  0  0  0
 58 59  1  0  0  0  0
 59 60  1  0  0  0  0
 60 80  1  0  0  0  0
 61 63  1  0  0  0  0
 61 71  1  0  0  0  0
 62 73  1  0  0  0  0
 64 65  1  0  0  0  0
M  CHG  1  73   1
M  ISO  4  38 100  60 101  72 100  80 101
M  END
> <Batch ID>
0035

> <Smiles>
CNC(C)C(=O)NC(C(=O)N1Cc2cc([101O:1][101CH2:1]CCCc3ccc(C[100NH:0][100C:0](=O)N4CCCC(n5nc(-c6ccc(Oc7ccc(F)cc7F)cc6)c(C(N)=O)c5N)C4)c(Cl)c3)ccc2CC1C(=O)NC1CCCc2ccccc21)C(C)(C)C

> <Shape>
0.195

> <Color>
0.091

> <Negative vol penalty>
0.000

$$$$

  -OEChem-04052316533D

 93101  0     1  0  0  0  0  0999 V2000
  -24.0130   -6.8768   24.3359 C   0  0  0  0  0  0  0  0  0  0  0  0
  -25.2484   -7.4287   24.0123 C   0  0  0  0  0  0  0  0  0  0  0  0
  -25.3868  -32.0341   24.2576 C   0  0  0  0  0  0  0  0  0  0  0  0
  -24.3752  -32.4819   22.1097 C   0  0  0  0  0  0  0  0  0  0  0  0
  -22.8785   -7.2360   23.6095 C   0  0  0  0  0  0  0  0  0  0  0  0
  -25.3501   -8.3394   22.9612 C   0  0  0  0  0  0  0  0  0  0  0  0
  -29.1118  -13.1599   22.6176 C   0  0  0  0  0  0  0  0  0  0  0  0
  -24.9012  -30.7272   24.2138 C   0  0  0  0  0  0  0  0  0  0  0  0
  -23.8897  -31.1750   22.0659 C   0  0  0  0  0  0  0  0  0  0  0  0
  -30.3412  -13.3472   21.9875 C   0  0  0  0  0  0  0  0  0  0  0  0
  -21.3296  -29.4221   23.4091 C   0  0  0  0  0  0  0  0  0  0  0  0
  -20.0053  -29.2357   23.0129 C   0  0  0  0  0  0  0  0  0  0  0  0
  -29.2138  -14.3219   20.0907 C   0  0  0  0  0  0  0  0  0  0  0  0
  -20.7511  -27.8791   21.1580 C   0  0  0  0  0  0  0  0  0  0  0  0
  -25.1237  -32.9115   23.2056 C   0  0  0  0  0  0  0  0  0  0  0  0
  -25.3396  -35.2423   24.2196 C   0  0  0  0  0  0  0  0  0  0  0  0
  -22.9647   -8.1589   22.5551 C   0  0  0  0  0  0  0  0  0  0  0  0
  -27.9212  -13.5429   21.9833 C   0  0  0  0  0  0  0  0  0  0  0  0
  -24.2159   -8.7102   22.2191 C   0  0  0  0  0  0  0  0  0  0  0  0
  -27.9707  -14.1407   20.7159 C   0  0  0  0  0  0  0  0  0  0  0  0
  -24.1527  -30.2977   23.1180 C   0  0  0  0  0  0  0  0  0  0  0  0
  -30.3922  -13.9257   20.7226 C   0  0  0  0  0  0  0  0  0  0  0  0
  -22.3648  -28.8370   22.6797 C   0  0  0  0  0  0  0  0  0  0  0  0
  -19.7160  -28.4642   21.8874 C   0  0  0  0  0  0  0  0  0  0  0  0
  -22.0755  -28.0655   21.5542 C   0  0  0  0  0  0  0  0  0  0  0  0
  -25.6245  -34.2618   23.2505 C   0  0  0  0  0  0  0  0  0  0  0  0
  -26.0540  -36.3432   23.8145 C   0  0  0  0  0  0  0  0  0  0  0  0
  -24.5039  -35.1649   25.3821 C   0  0  0  0  0  0  0  0  0  0  0  0
  -25.3186  -12.0144   20.9864 C   0  0  0  0  0  0  0  0  0  0  0  0
  -24.2645  -15.0194   20.3690 C   0  0  0  0  0  0  0  0  0  0  0  0
  -25.0287  -18.2787   19.7061 C   0  0  0  0  0  0  0  0  0  0  0  0
  -30.9849  -37.0044   20.4829 C   0  0  0  0  0  0  0  0  0  0  0  0
  -21.7189   -8.4804   21.7682 C   0  0  0  0  0  0  0  0  0  0  0  0
  -26.6051  -13.3585   22.6877 C   0  0  0  0  0  0  0  0  0  0  0  0
  -26.7229  -14.5879   20.0008 C   0  0  0  0  0  0  0  0  0  0  0  0
  -21.8476   -9.7366   20.9105 C   0  0  0  0  0  0  0  0  0  0  0  0
  -27.7848  -38.4437   19.8796 C   0  0  0  0  0  0  0  0  0  0  0  0
  -23.1657   -9.7262   20.1428 C   0  0  0  0  0  0  0  0  0  0  0  0
  -26.8425  -37.6236   20.7626 C   0  0  0  0  0  0  0  0  0  0  0  0
  -33.7310  -17.2061   20.1306 C   0  0  0  0  0  0  0  0  0  0  0  0
  -32.6330  -16.9595   17.8602 C   0  0  0  0  0  0  0  0  0  0  0  0
  -33.2277  -15.8185   20.5211 C   0  0  0  0  0  0  0  0  0  0  0  0
  -32.1319  -15.5727   18.2564 C   0  0  0  0  0  0  0  0  0  0  0  0
  -28.8948  -37.5803   19.2845 C   0  0  0  0  0  0  0  0  0  0  0  0
  -28.7263  -35.9810   21.1520 C   0  0  0  0  0  0  0  0  0  0  0  0
  -24.3625   -9.7202   21.1016 C   0  0  1  0  0  0  0  0  0  0  0  0
  -25.4168  -13.3152   21.7319 C   0  0  1  0  0  0  0  0  0  0  0  0
  -27.6228  -36.8193   21.8197 C   0  0  2  0  0  0  0  0  0  0  0  0
  -33.9116  -17.3117   18.6177 C   0  0  0  0  0  0  0  0  0  0  0  0
  -31.9496  -15.4494   19.7694 C   0  0  0  0  0  0  0  0  0  1  0  0
  -23.9553  -20.4921   19.2102 C   0  0  0  0  0  0  0  0  0  0  0  0
  -23.6765  -14.0936   17.5217 C   0  0  0  0  0  0  0  0  0  0  0  0
  -23.5246  -16.4993   16.8452 C   0  0  0  0  0  0  0  0  0  0  0  0
  -21.9248  -15.5731   18.5202 C   0  0  0  0  0  0  0  0  0  0  0  0
  -26.2048  -19.5212   22.1211 C   0  0  0  0  0  0  0  0  0  0  0  0
  -34.8970  -27.8711   19.5537 C   0  0  0  0  0  0  0  0  0  0  0  0
  -34.0666  -28.8936   20.3313 C   0  0  0  0  0  0  0  0  0  0  0  0
  -34.4559  -26.4408   19.8688 C   0  0  0  0  0  0  0  0  0  0  0  0
  -34.5298  -30.3222   20.0413 C   0  0  0  0  0  0  0  0  0  0  0  0
  -35.2646  -25.4194   19.0657 C   0  0  0  0  0  0  0  0  0  0  0  0
  -33.7216  -31.3435   20.8452 C   0  0  0  0  0  0  0  0  0  0  0  0
  -34.8433  -23.9881   19.4061 C   0  0  0  0  0  0  0  0  0  0  0  0
  -34.2084  -32.7689   20.5773 C   0  0  0  0  0  0  0  0  0  0  0  0
  -35.6310  -22.9231   18.6375 C   0  0  0  0  0  0  0  0  0  0  0  0
  -33.3757  -33.8410   21.2866 C   0  0  0  0  0  0  0  0  0  0  0  0
  -35.2266  -21.4904   18.9955 C   0  0  0  0  0  0  0  0  0  0  0  0
  -33.7853  -35.2937   21.0154 C   0  0  0  0  0  0  0  0  0  0  0  0
  -36.0322  -20.4713   18.1830 C   0  0  0  0  0  0  0  0  0  0  0  0
  -32.9886  -36.3404   21.7882 C   0  0  0  0  0  0  0  0  0  0  0  0
  -35.7257  -19.0247   18.5511 C   0  0  0  0  0  0  0  0  0  0  0  0
  -24.3338  -15.9547   19.1861 C   0  0  1  0  0  0  0  0  0  0  0  0
  -24.5031  -19.5761   20.2935 C   0  0  2  0  0  0  0  0  0  0  0  0
  -23.3885  -15.5201   18.0307 C   0  0  0  0  0  0  0  0  0  0  0  0
  -26.4550  -34.7011   22.3012 N   0  0  0  0  0  0  0  0  0  0  0  0
  -26.6980  -35.9698   22.6717 N   0  0  0  0  0  0  0  0  0  0  0  0
  -25.4597  -14.3805   20.7281 N   0  0  0  0  0  0  0  0  0  0  0  0
  -29.5968  -36.8451   20.3394 N   0  0  0  0  0  0  0  0  0  0  0  0
  -26.1877  -37.5846   24.3279 N   0  0  0  0  0  0  0  0  0  0  0  0
  -23.1509  -35.5084   25.2564 N   0  0  0  0  0  0  0  0  0  0  0  0
  -24.5841  -11.0445   21.6416 N   0  0  0  0  0  0  0  0  0  0  0  0
  -24.0664  -17.2912   19.7062 N   0  0  0  0  0  0  0  0  0  0  0  0
  -31.5708  -36.2765   21.5113 N   0  0  0  0  0  0  0  0  0  0  0  0
  -34.3053  -18.7042   18.2759 N   0  3  0  0  0  0  0  0  0  0  0  0
  -25.5910  -20.2972   21.0129 N   0  3  0  0  0  0  0  0  0  0  0  0
  -24.9476  -34.8176   26.5028 O   0  0  0  0  0  0  0  0  0  0  0  0
  -25.8672  -11.8996   19.8967 O   0  0  0  0  0  0  0  0  0  0  0  0
  -23.1910  -14.8669   20.9573 O   0  0  0  0  0  0  0  0  0  0  0  0
  -26.1769  -18.1549   19.2856 O   0  0  0  0  0  0  0  0  0  0  0  0
  -31.6519  -37.7449   19.7523 O   0  0  0  0  0  0  0  0  0  0  0  0
  -23.6790  -29.0224   23.0748 O   0  0  0  0  0  0  0  0  0  0  0  0
  -31.5987  -14.1102   20.1010 O   0  0  0  0  0  0  0  0  0  1  0  0
  -18.4441  -28.2840   21.5080 F   0  0  0  0  0  0  0  0  0  0  0  0
  -23.0656  -27.5000   20.8502 F   0  0  0  0  0  0  0  0  0  0  0  0
  1  2  1  0  0  0  0
  1  5  2  0  0  0  0
  2  6  2  0  0  0  0
  3  8  2  0  0  0  0
  3 15  1  0  0  0  0
  4  9  1  0  0  0  0
  4 15  2  0  0  0  0
  5 17  1  0  0  0  0
  6 19  1  0  0  0  0
  7 10  2  0  0  0  0
  7 18  1  0  0  0  0
  8 21  1  0  0  0  0
  9 21  2  0  0  0  0
 10 22  1  0  0  0  0
 11 12  2  0  0  0  0
 11 23  1  0  0  0  0
 12 24  1  0  0  0  0
 13 20  1  0  0  0  0
 13 22  2  0  0  0  0
 14 24  2  0  0  0  0
 14 25  1  0  0  0  0
 15 26  1  0  0  0  0
 16 26  1  0  0  0  0
 16 27  2  0  0  0  0
 16 28  1  0  0  0  0
 17 19  2  0  0  0  0
 17 33  1  0  0  0  0
 18 20  2  0  0  0  0
 18 34  1  0  0  0  0
 19 46  1  0  0  0  0
 20 35  1  0  0  0  0
 21 90  1  0  0  0  0
 22 91  1  0  0  0  0
 23 25  2  0  0  0  0
 23 90  1  0  0  0  0
 24 92  1  0  0  0  0
 25 93  1  0  0  0  0
 26 74  2  0  0  0  0
 27 75  1  0  0  0  0
 27 78  1  0  0  0  0
 28 79  1  0  0  0  0
 28 85  2  0  0  0  0
 29 47  1  0  0  0  0
 29 80  1  0  0  0  0
 29 86  2  0  0  0  0
 30 71  1  0  0  0  0
 30 76  1  0  0  0  0
 30 87  2  0  0  0  0
 31 72  1  0  0  0  0
 31 81  1  0  0  0  0
 31 88  2  0  0  0  0
 32 77  1  0  0  0  0
 32 82  1  0  0  0  0
 32 89  2  0  0  0  0
 33 36  1  0  0  0  0
 34 47  1  0  0  0  0
 35 76  1  0  0  0  0
 36 38  1  0  0  0  0
 37 39  1  0  0  0  0
 37 44  1  0  0  0  0
 38 46  1  0  0  0  0
 39 48  1  0  0  0  0
 40 42  1  0  0  0  0
 40 49  1  0  0  0  0
 41 43  1  0  0  0  0
 41 49  1  0  0  0  0
 42 50  1  0  0  0  0
 43 50  1  0  0  0  0
 44 77  1  0  0  0  0
 45 48  1  0  0  0  0
 45 77  1  0  0  0  0
 46 80  1  0  0  0  0
 47 76  1  0  0  0  0
 48 75  1  0  0  0  0
 49 83  1  0  0  0  0
 50 91  1  0  0  0  0
 51 72  1  0  0  0  0
 52 73  1  0  0  0  0
 53 73  1  0  0  0  0
 54 73  1  0  0  0  0
 55 84  1  0  0  0  0
 56 57  1  0  0  0  0
 56 58  1  0  0  0  0
 57 59  1  0  0  0  0
 58 60  1  0  0  0  0
 59 61  1  0  0  0  0
 60 62  1  0  0  0  0
 61 63  1  0  0  0  0
 62 64  1  0  0  0  0
 63 65  1  0  0  0  0
 64 66  1  0  0  0  0
 65 67  1  0  0  0  0
 66 68  1  0  0  0  0
 67 69  1  0  0  0  0
 68 70  1  0  0  0  0
 69 82  1  0  0  0  0
 70 83  1  0  0  0  0
 71 73  1  0  0  0  0
 71 81  1  0  0  0  0
 72 84  1  0  0  0  0
 74 75  1  0  0  0  0
M  CHG  2  83   1  84   1
M  ISO  4  32 100  50 101  82 100  91 101
M  END
> <Batch ID>
0035

> <Smiles>
CNC(C)C(=O)NC(C(=O)N1Cc2cc([101O:1][101CH:1]3CCC(NCCCCCCCCCCCCCCC[100NH:0][100C:0](=O)N4CCCC(n5nc(-c6ccc(Oc7ccc(F)cc7F)cc6)c(C(N)=O)c5N)C4)CC3)ccc2CC1C(=O)NC1CCCc2ccccc21)C(C)(C)C

> <Shape>
0.218

> <Color>
0.102

> <Negative vol penalty>
0.000

$$$$

  -OEChem-04052316533D

 85 93  0     1  0  0  0  0  0999 V2000
  -27.7622  -34.0486   25.7829 C   0  0  0  0  0  0  0  0  0  0  0  0
  -27.9822  -32.8250   25.1587 C   0  0  0  0  0  0  0  0  0  0  0  0
  -25.8253  -13.8179   22.0966 C   0  0  0  0  0  0  0  0  0  0  0  0
  -26.0045  -12.7585   19.9327 C   0  0  0  0  0  0  0  0  0  0  0  0
  -26.4741  -34.4065   26.1785 C   0  0  0  0  0  0  0  0  0  0  0  0
  -26.9142  -31.9579   24.9307 C   0  0  0  0  0  0  0  0  0  0  0  0
  -26.9861  -29.9699   20.2737 C   0  0  0  0  0  0  0  0  0  0  0  0
  -25.3969  -12.6121   22.6515 C   0  0  0  0  0  0  0  0  0  0  0  0
  -25.5760  -11.5526   20.4876 C   0  0  0  0  0  0  0  0  0  0  0  0
  -27.8765  -28.9223   20.0422 C   0  0  0  0  0  0  0  0  0  0  0  0
  -22.6510  -10.1454   21.4336 C   0  0  0  0  0  0  0  0  0  0  0  0
  -21.6869   -9.4176   20.7364 C   0  0  0  0  0  0  0  0  0  0  0  0
  -26.0713  -27.3414   20.2886 C   0  0  0  0  0  0  0  0  0  0  0  0
  -23.2176   -7.5564   20.5626 C   0  0  0  0  0  0  0  0  0  0  0  0
  -30.9359  -25.1417   18.1723 C   0  0  0  0  0  0  0  0  0  0  0  0
  -26.1291  -13.8912   20.7371 C   0  0  0  0  0  0  0  0  0  0  0  0
  -27.8967  -15.5964   20.0477 C   0  0  0  0  0  0  0  0  0  0  0  0
  -25.3882  -33.5476   25.9465 C   0  0  0  0  0  0  0  0  0  0  0  0
  -25.6313  -29.7099   20.5256 C   0  0  0  0  0  0  0  0  0  0  0  0
  -25.6105  -32.3041   25.3247 C   0  0  0  0  0  0  0  0  0  0  0  0
  -25.1652  -28.3875   20.5204 C   0  0  0  0  0  0  0  0  0  0  0  0
  -25.2723  -11.4794   21.8470 C   0  0  0  0  0  0  0  0  0  0  0  0
  -27.4197  -27.6077   20.0526 C   0  0  0  0  0  0  0  0  0  0  0  0
  -23.8985   -9.5789   21.6952 C   0  0  0  0  0  0  0  0  0  0  0  0
  -21.9701   -8.1230   20.3009 C   0  0  0  0  0  0  0  0  0  0  0  0
  -24.1818   -8.2844   21.2597 C   0  0  0  0  0  0  0  0  0  0  0  0
  -26.5711  -15.1367   20.1632 C   0  0  0  0  0  0  0  0  0  0  0  0
  -31.5759  -23.9544   18.5754 C   0  0  0  0  0  0  0  0  0  0  0  0
  -30.4351  -25.6737   19.3353 C   0  0  0  0  0  0  0  0  0  0  0  0
  -27.7832  -16.8217   19.4375 C   0  0  0  0  0  0  0  0  0  0  0  0
  -29.1211  -14.9717   20.4554 C   0  0  0  0  0  0  0  0  0  0  0  0
  -23.6646  -30.2267   22.9686 C   0  0  0  0  0  0  0  0  0  0  0  0
  -21.4289  -29.1119   20.8995 C   0  0  0  0  0  0  0  0  0  0  0  0
  -20.7153  -27.2367   18.1389 C   0  0  0  0  0  0  0  0  0  0  0  0
  -25.5758  -20.1180   15.5124 C   0  0  0  0  0  0  0  0  0  0  0  0
  -24.0213  -33.9575   26.4345 C   0  0  0  0  0  0  0  0  0  0  0  0
  -24.6785  -30.8526   20.7469 C   0  0  0  0  0  0  0  0  0  0  0  0
  -23.7165  -28.0563   20.7656 C   0  0  0  0  0  0  0  0  0  0  0  0
  -22.8856  -33.1440   25.8190 C   0  0  0  0  0  0  0  0  0  0  0  0
  -23.7097  -19.6741   18.5119 C   0  0  0  0  0  0  0  0  0  0  0  0
  -23.2143  -31.6549   25.8565 C   0  0  0  0  0  0  0  0  0  0  0  0
  -24.3931  -18.4886   19.1958 C   0  0  0  0  0  0  0  0  0  0  0  0
  -23.6849  -19.5122   16.9937 C   0  0  0  0  0  0  0  0  0  0  0  0
  -25.6833  -18.0714   17.0604 C   0  0  0  0  0  0  0  0  0  0  0  0
  -24.4738  -31.3472   25.0376 C   0  0  1  0  0  0  0  0  0  0  0  0
  -23.4182  -30.4419   21.5021 C   0  0  1  0  0  0  0  0  0  0  0  0
  -25.7824  -18.2157   18.5887 C   0  0  2  0  0  0  0  0  0  0  0  0
  -29.3600  -24.0167   22.1644 C   0  0  0  0  0  0  0  0  0  0  0  0
  -18.7932  -26.4839   16.7119 C   0  0  0  0  0  0  0  0  0  0  0  0
  -20.6264  -27.0983   23.0469 C   0  0  0  0  0  0  0  0  0  0  0  0
  -19.4164  -25.8014   21.2799 C   0  0  0  0  0  0  0  0  0  0  0  0
  -18.7095  -28.1324   21.8179 C   0  0  0  0  0  0  0  0  0  0  0  0
  -21.8275  -28.5627   15.7380 C   0  0  0  0  0  0  0  0  0  0  0  0
  -32.2843  -22.9834   17.7245 C   0  0  0  0  0  0  0  0  0  0  0  0
  -29.6508  -26.9277   19.5879 C   0  0  0  0  0  0  0  0  0  1  0  0
  -31.4030  -21.8453   17.1564 C   0  0  0  0  0  0  0  0  0  0  0  0
  -30.2917  -22.3650   16.2388 C   0  0  0  0  0  0  0  0  0  0  0  0
  -29.4559  -21.2138   15.6736 C   0  0  0  0  0  0  0  0  0  0  0  0
  -28.3699  -21.7306   14.7253 C   0  0  0  0  0  0  0  0  0  0  0  0
  -30.4962  -24.9288   21.7344 C   0  0  0  0  0  0  0  0  0  0  0  0
  -27.5558  -20.6041   14.0974 C   0  0  0  0  0  0  0  0  0  0  0  0
  -20.8697  -27.7512   20.5608 C   0  0  1  0  0  0  0  0  0  0  0  0
  -19.8761  -27.5333   16.9091 C   0  0  2  0  0  0  0  0  0  0  0  0
  -19.9332  -27.2016   21.6736 C   0  0  0  0  0  0  0  0  0  0  0  0
  -25.6809  -15.9997   19.6665 N   0  0  0  0  0  0  0  0  0  0  0  0
  -31.4911  -23.7443   19.8917 N   0  0  0  0  0  0  0  0  0  0  0  0
  -30.7920  -24.8067   20.3258 N   0  0  0  0  0  0  0  0  0  0  0  0
  -26.4486  -17.0140   19.2329 N   0  0  0  0  0  0  0  0  0  0  0  0
  -22.8252  -29.2078   20.9831 N   0  0  0  0  0  0  0  0  0  0  0  0
  -25.0334  -19.2575   16.4810 N   0  0  0  0  0  0  0  0  0  0  0  0
  -28.6959  -17.7425   19.0614 N   0  0  0  0  0  0  0  0  0  0  0  0
  -29.0572  -13.7124   21.0674 N   0  0  0  0  0  0  0  0  0  0  0  0
  -24.1667  -31.3352   23.6234 N   0  0  0  0  0  0  0  0  0  0  0  0
  -20.2320  -27.8853   19.2555 N   0  0  0  0  0  0  0  0  0  0  0  0
  -26.8613  -19.8088   15.0852 N   0  0  0  0  0  0  0  0  0  0  0  0
  -20.7337  -27.5585   15.6905 N   0  3  0  0  0  0  0  0  0  0  0  0
  -30.2375  -15.5213   20.2970 O   0  0  0  0  0  0  0  0  0  0  0  0
  -23.4160  -29.1363   23.4694 O   0  0  0  0  0  0  0  0  0  0  0  0
  -20.6556  -30.0567   21.0761 O   0  0  0  0  0  0  0  0  0  0  0  0
  -21.6988  -26.5002   18.1123 O   0  0  0  0  0  0  0  0  0  0  0  0
  -24.9621  -21.0930   15.0655 O   0  0  0  0  0  0  0  0  0  0  0  0
  -24.8544  -10.3025   22.3882 O   0  0  0  0  0  0  0  0  0  0  0  0
  -28.2869  -26.5833   19.8276 O   0  0  0  0  0  0  0  0  0  1  0  0
  -21.0435   -7.4236   19.6327 F   0  0  0  0  0  0  0  0  0  0  0  0
  -25.3780   -7.7343   21.5092 F   0  0  0  0  0  0  0  0  0  0  0  0
  1  2  1  0  0  0  0
  1  5  2  0  0  0  0
  2  6  2  0  0  0  0
  3  8  2  0  0  0  0
  3 16  1  0  0  0  0
  4  9  1  0  0  0  0
  4 16  2  0  0  0  0
  5 18  1  0  0  0  0
  6 20  1  0  0  0  0
  7 10  2  0  0  0  0
  7 19  1  0  0  0  0
  8 22  1  0  0  0  0
  9 22  2  0  0  0  0
 10 23  1  0  0  0  0
 11 12  2  0  0  0  0
 11 24  1  0  0  0  0
 12 25  1  0  0  0  0
 13 21  1  0  0  0  0
 13 23  2  0  0  0  0
 14 25  2  0  0  0  0
 14 26  1  0  0  0  0
 15 28  1  0  0  0  0
 15 29  2  0  0  0  0
 16 27  1  0  0  0  0
 17 27  1  0  0  0  0
 17 30  2  0  0  0  0
 17 31  1  0  0  0  0
 18 20  2  0  0  0  0
 18 36  1  0  0  0  0
 19 21  2  0  0  0  0
 19 37  1  0  0  0  0
 20 45  1  0  0  0  0
 21 38  1  0  0  0  0
 22 82  1  0  0  0  0
 23 83  1  0  0  0  0
 24 26  2  0  0  0  0
 24 82  1  0  0  0  0
 25 84  1  0  0  0  0
 26 85  1  0  0  0  0
 27 65  2  0  0  0  0
 28 54  1  0  0  0  0
 28 66  2  0  0  0  0
 29 55  1  0  0  0  0
 29 67  1  0  0  0  0
 30 68  1  0  0  0  0
 30 71  1  0  0  0  0
 31 72  1  0  0  0  0
 31 77  2  0  0  0  0
 32 46  1  0  0  0  0
 32 73  1  0  0  0  0
 32 78  2  0  0  0  0
 33 62  1  0  0  0  0
 33 69  1  0  0  0  0
 33 79  2  0  0  0  0
 34 63  1  0  0  0  0
 34 74  1  0  0  0  0
 34 80  2  0  0  0  0
 35 70  1  0  0  0  0
 35 75  1  0  0  0  0
 35 81  2  0  0  0  0
 36 39  1  0  0  0  0
 37 46  1  0  0  0  0
 38 69  1  0  0  0  0
 39 41  1  0  0  0  0
 40 42  1  0  0  0  0
 40 43  1  0  0  0  0
 41 45  1  0  0  0  0
 42 47  1  0  0  0  0
 43 70  1  0  0  0  0
 44 47  1  0  0  0  0
 44 70  1  0  0  0  0
 45 73  1  0  0  0  0
 46 69  1  0  0  0  0
 47 68  1  0  0  0  0
 48 60  1  0  0  0  0
 49 63  1  0  0  0  0
 50 64  1  0  0  0  0
 51 64  1  0  0  0  0
 52 64  1  0  0  0  0
 53 76  1  0  0  0  0
 54 56  1  0  0  0  0
 55 83  1  0  0  0  0
 56 57  1  0  0  0  0
 57 58  1  0  0  0  0
 58 59  1  0  0  0  0
 59 61  1  0  0  0  0
 60 67  1  0  0  0  0
 61 75  1  0  0  0  0
 62 64  1  0  0  0  0
 62 74  1  0  0  0  0
 63 76  1  0  0  0  0
 65 68  1  0  0  0  0
 66 67  1  0  0  0  0
M  CHG  1  76   1
M  ISO  4  35 100  55 101  75 100  83 101
M  END
> <Batch ID>
0035

> <Smiles>
CCn1nc(CCCCCC[100NH:0][100C:0](=O)N2CCCC(n3nc(-c4ccc(Oc5ccc(F)cc5F)cc4)c(C(N)=O)c3N)C2)cc1[101CH2:1][101O:1]c1ccc2c(c1)CN(C(=O)C(NC(=O)C(C)NC)C(C)(C)C)C(C(=O)NC1CCCc3ccccc31)C2

> <Shape>
0.281

> <Color>
0.091

> <Negative vol penalty>
0.000

$$$$

  -OEChem-04052316533D

 84 92  0     1  0  0  0  0  0999 V2000
  -28.3714  -29.2723   27.6557 C   0  0  0  0  0  0  0  0  0  0  0  0
  -28.0337  -27.9679   27.3096 C   0  0  0  0  0  0  0  0  0  0  0  0
  -29.9317  -23.6869   19.3094 C   0  0  0  0  0  0  0  0  0  0  0  0
  -28.5549  -23.7205   21.2944 C   0  0  0  0  0  0  0  0  0  0  0  0
  -27.3734  -30.2356   27.7968 C   0  0  0  0  0  0  0  0  0  0  0  0
  -26.6974  -27.6257   27.1054 C   0  0  0  0  0  0  0  0  0  0  0  0
  -24.5099  -23.5771   23.0644 C   0  0  0  0  0  0  0  0  0  0  0  0
  -29.7156  -25.0540   19.1364 C   0  0  0  0  0  0  0  0  0  0  0  0
  -28.3388  -25.0876   21.1214 C   0  0  0  0  0  0  0  0  0  0  0  0
  -24.1146  -22.2461   23.1904 C   0  0  0  0  0  0  0  0  0  0  0  0
  -27.1305  -28.5134   21.0014 C   0  0  0  0  0  0  0  0  0  0  0  0
  -25.8280  -28.9883   21.1545 C   0  0  0  0  0  0  0  0  0  0  0  0
  -21.8234  -22.9569   23.4440 C   0  0  0  0  0  0  0  0  0  0  0  0
  -20.5602  -16.6629   25.9951 C   0  0  0  0  0  0  0  0  0  0  0  0
  -20.3617  -18.0591   24.0335 C   0  0  0  0  0  0  0  0  0  0  0  0
  -25.0938  -27.5555   19.3530 C   0  0  0  0  0  0  0  0  0  0  0  0
  -29.3513  -23.0201   20.3885 C   0  0  0  0  0  0  0  0  0  0  0  0
  -30.6107  -20.9964   21.2973 C   0  0  0  0  0  0  0  0  0  0  0  0
  -26.0251  -29.9073   27.5848 C   0  0  0  0  0  0  0  0  0  0  0  0
  -23.5647  -24.6104   23.1383 C   0  0  0  0  0  0  0  0  0  0  0  0
  -25.6802  -28.5852   27.2451 C   0  0  0  0  0  0  0  0  0  0  0  0
  -22.2089  -24.3001   23.3161 C   0  0  0  0  0  0  0  0  0  0  0  0
  -19.7921  -17.4834   25.1691 C   0  0  0  0  0  0  0  0  0  0  0  0
  -21.8982  -16.4183   25.6856 C   0  0  0  0  0  0  0  0  0  0  0  0
  -21.6997  -17.8145   23.7239 C   0  0  0  0  0  0  0  0  0  0  0  0
  -22.4679  -16.9940   24.5500 C   0  0  0  0  0  0  0  0  0  0  0  0
  -28.9191  -25.7544   20.0423 C   0  0  0  0  0  0  0  0  0  0  0  0
  -22.7716  -21.9360   23.3831 C   0  0  0  0  0  0  0  0  0  0  0  0
  -27.4147  -27.5595   20.0241 C   0  0  0  0  0  0  0  0  0  0  0  0
  -24.8096  -28.5094   20.3304 C   0  0  0  0  0  0  0  0  0  0  0  0
  -26.3964  -27.0806   19.1999 C   0  0  0  0  0  0  0  0  0  0  0  0
  -29.5738  -21.6079   20.5675 C   0  0  0  0  0  0  0  0  0  0  0  0
  -30.3790  -19.6495   21.1604 C   0  0  0  0  0  0  0  0  0  0  0  0
  -31.6871  -21.5926   22.0333 C   0  0  0  0  0  0  0  0  0  0  0  0
  -23.0907  -27.0822   25.0798 C   0  0  0  0  0  0  0  0  0  0  0  0
  -20.7753  -27.8251   22.9329 C   0  0  0  0  0  0  0  0  0  0  0  0
  -18.6173  -26.7586   20.5137 C   0  0  0  0  0  0  0  0  0  0  0  0
  -25.9984  -15.8795   20.8252 C   0  0  0  0  0  0  0  0  0  0  0  0
  -24.9771  -30.9714   27.7951 C   0  0  0  0  0  0  0  0  0  0  0  0
  -24.0038  -26.0396   22.9738 C   0  0  0  0  0  0  0  0  0  0  0  0
  -21.1523  -25.3713   23.3823 C   0  0  0  0  0  0  0  0  0  0  0  0
  -23.6193  -30.6162   27.1948 C   0  0  0  0  0  0  0  0  0  0  0  0
  -27.8604  -16.8559   17.9518 C   0  0  0  0  0  0  0  0  0  0  0  0
  -23.2332  -29.1856   27.5572 C   0  0  0  0  0  0  0  0  0  0  0  0
  -28.5884  -18.1240   18.4012 C   0  0  0  0  0  0  0  0  0  0  0  0
  -26.4618  -16.7633   18.5579 C   0  0  0  0  0  0  0  0  0  0  0  0
  -27.1422  -18.1525   20.4764 C   0  0  0  0  0  0  0  0  0  0  0  0
  -24.2441  -28.1811   26.9910 C   0  0  1  0  0  0  0  0  0  0  0  0
  -23.0234  -27.0393   23.5794 C   0  0  1  0  0  0  0  0  0  0  0  0
  -28.5781  -18.2626   19.9355 C   0  0  2  0  0  0  0  0  0  0  0  0
  -18.3618  -17.7455   25.5004 C   0  0  0  0  0  0  0  0  0  0  0  0
  -22.6987  -15.5350   26.5860 C   0  0  0  0  0  0  0  0  0  0  0  0
  -16.9044  -26.9179   18.6868 C   0  0  0  0  0  0  0  0  0  0  0  0
  -18.8212  -27.9524   25.2728 C   0  0  0  0  0  0  0  0  0  0  0  0
  -16.9437  -27.8352   23.6207 C   0  0  0  0  0  0  0  0  0  0  0  0
  -18.5289  -29.7606   23.5700 C   0  0  0  0  0  0  0  0  0  0  0  0
  -20.6970  -27.0852   18.4335 C   0  0  0  0  0  0  0  0  0  0  0  0
  -22.2921  -18.4495   22.4894 C   0  0  0  0  0  0  0  0  0  0  0  0
  -23.9023  -16.7312   24.2182 C   0  0  0  0  0  0  0  0  0  0  0  0
  -24.1580  -15.3701   23.5450 C   0  0  0  0  0  0  0  0  0  0  0  0
  -25.6144  -15.1229   23.1574 C   0  0  0  0  0  0  0  0  0  0  0  0
  -23.1606  -19.6586   22.8191 C   0  0  0  0  0  0  0  0  0  1  0  0
  -19.3113  -27.4898   22.7805 C   0  0  1  0  0  0  0  0  0  0  0  0
  -18.3079  -27.3005   19.1298 C   0  0  2  0  0  0  0  0  0  0  0  0
  -18.4212  -28.2392   23.8117 C   0  0  0  0  0  0  0  0  0  0  0  0
  -28.7450  -20.7221   20.0083 N   0  0  0  0  0  0  0  0  0  0  0  0
  -29.2611  -19.5404   20.3867 N   0  0  0  0  0  0  0  0  0  0  0  0
  -21.6323  -26.7539   23.2223 N   0  0  0  0  0  0  0  0  0  0  0  0
  -26.5221  -16.9006   20.0151 N   0  0  0  0  0  0  0  0  0  0  0  0
  -31.0245  -18.5598   21.6275 N   0  0  0  0  0  0  0  0  0  0  0  0
  -31.7769  -22.9907   22.0710 N   0  0  0  0  0  0  0  0  0  0  0  0
  -24.0175  -27.9790   25.5760 N   0  0  0  0  0  0  0  0  0  0  0  0
  -18.9726  -27.7638   21.3881 N   0  0  0  0  0  0  0  0  0  0  0  0
  -26.1017  -16.0861   22.1954 N   0  0  0  0  0  0  0  0  0  0  0  0
  -19.2779  -26.7630   18.1343 N   0  3  0  0  0  0  0  0  0  0  0  0
  -32.5533  -20.9055   22.6259 O   0  0  0  0  0  0  0  0  0  0  0  0
  -22.3552  -26.3564   25.7386 O   0  0  0  0  0  0  0  0  0  0  0  0
  -21.1459  -28.9934   22.7931 O   0  0  0  0  0  0  0  0  0  0  0  0
  -18.5470  -25.5636   20.7922 O   0  0  0  0  0  0  0  0  0  0  0  0
  -25.4822  -14.8569   20.3617 O   0  0  0  0  0  0  0  0  0  0  0  0
  -28.7082  -27.0884   19.8739 O   0  0  0  0  0  0  0  0  0  0  0  0
  -22.3831  -20.6376   23.5070 O   0  0  0  0  0  0  0  0  0  1  0  0
  -23.5586  -28.9644   20.4785 F   0  0  0  0  0  0  0  0  0  0  0  0
  -26.6631  -26.1634   18.2600 F   0  0  0  0  0  0  0  0  0  0  0  0
  1  2  1  0  0  0  0
  1  5  2  0  0  0  0
  2  6  2  0  0  0  0
  3  8  2  0  0  0  0
  3 17  1  0  0  0  0
  4  9  1  0  0  0  0
  4 17  2  0  0  0  0
  5 19  1  0  0  0  0
  6 21  1  0  0  0  0
  7 10  2  0  0  0  0
  7 20  1  0  0  0  0
  8 27  1  0  0  0  0
  9 27  2  0  0  0  0
 10 28  1  0  0  0  0
 11 12  2  0  0  0  0
 11 29  1  0  0  0  0
 12 30  1  0  0  0  0
 13 22  1  0  0  0  0
 13 28  2  0  0  0  0
 14 23  1  0  0  0  0
 14 24  2  0  0  0  0
 15 23  2  0  0  0  0
 15 25  1  0  0  0  0
 16 30  2  0  0  0  0
 16 31  1  0  0  0  0
 17 32  1  0  0  0  0
 18 32  1  0  0  0  0
 18 33  2  0  0  0  0
 18 34  1  0  0  0  0
 19 21  2  0  0  0  0
 19 39  1  0  0  0  0
 20 22  2  0  0  0  0
 20 40  1  0  0  0  0
 21 48  1  0  0  0  0
 22 41  1  0  0  0  0
 23 51  1  0  0  0  0
 24 26  1  0  0  0  0
 24 52  1  0  0  0  0
 25 26  2  0  0  0  0
 25 58  1  0  0  0  0
 26 59  1  0  0  0  0
 27 81  1  0  0  0  0
 28 82  1  0  0  0  0
 29 31  2  0  0  0  0
 29 81  1  0  0  0  0
 30 83  1  0  0  0  0
 31 84  1  0  0  0  0
 32 66  2  0  0  0  0
 33 67  1  0  0  0  0
 33 70  1  0  0  0  0
 34 71  1  0  0  0  0
 34 76  2  0  0  0  0
 35 49  1  0  0  0  0
 35 72  1  0  0  0  0
 35 77  2  0  0  0  0
 36 63  1  0  0  0  0
 36 68  1  0  0  0  0
 36 78  2  0  0  0  0
 37 64  1  0  0  0  0
 37 73  1  0  0  0  0
 37 79  2  0  0  0  0
 38 69  1  0  0  0  0
 38 74  1  0  0  0  0
 38 80  2  0  0  0  0
 39 42  1  0  0  0  0
 40 49  1  0  0  0  0
 41 68  1  0  0  0  0
 42 44  1  0  0  0  0
 43 45  1  0  0  0  0
 43 46  1  0  0  0  0
 44 48  1  0  0  0  0
 45 50  1  0  0  0  0
 46 69  1  0  0  0  0
 47 50  1  0  0  0  0
 47 69  1  0  0  0  0
 48 72  1  0  0  0  0
 49 68  1  0  0  0  0
 50 67  1  0  0  0  0
 53 64  1  0  0  0  0
 54 65  1  0  0  0  0
 55 65  1  0  0  0  0
 56 65  1  0  0  0  0
 57 75  1  0  0  0  0
 58 62  1  0  0  0  0
 59 60  1  0  0  0  0
 60 61  1  0  0  0  0
 61 74  1  0  0  0  0
 62 82  1  0  0  0  0
 63 65  1  0  0  0  0
 63 73  1  0  0  0  0
 64 75  1  0  0  0  0
 66 67  1  0  0  0  0
M  CHG  1  75   1
M  ISO  4  38 100  62 101  74 100  82 101
M  END
> <Batch ID>
0035

> <Smiles>
CNC(C)C(=O)NC(C(=O)N1Cc2cc([101O:1][101CH2:1]Cc3cc(C)cc(C)c3CCC[100NH:0][100C:0](=O)N3CCCC(n4nc(-c5ccc(Oc6ccc(F)cc6F)cc5)c(C(N)=O)c4N)C3)ccc2CC1C(=O)NC1CCCc2ccccc21)C(C)(C)C

> <Shape>
0.192

> <Color>
0.065

> <Negative vol penalty>
0.000

$$$$

  -OEChem-04052316533D

 90100  0     1  0  0  0  0  0999 V2000
  -17.8650  -10.3478   22.8406 C   0  0  0  0  0  0  0  0  0  0  0  0
  -18.5602  -11.5274   23.0871 C   0  0  0  0  0  0  0  0  0  0  0  0
  -23.7281  -32.9150   22.2842 C   0  0  0  0  0  0  0  0  0  0  0  0
  -25.1767  -31.6414   23.7390 C   0  0  0  0  0  0  0  0  0  0  0  0
  -18.5637   -9.1663   22.5963 C   0  0  0  0  0  0  0  0  0  0  0  0
  -19.9546  -11.5258   23.0904 C   0  0  0  0  0  0  0  0  0  0  0  0
  -23.6457  -16.0338   21.2037 C   0  0  0  0  0  0  0  0  0  0  0  0
  -23.7069  -33.9539   23.2148 C   0  0  0  0  0  0  0  0  0  0  0  0
  -25.1556  -32.6803   24.6696 C   0  0  0  0  0  0  0  0  0  0  0  0
  -24.3322  -17.0337   21.8912 C   0  0  0  0  0  0  0  0  0  0  0  0
  -25.7319  -36.4903   24.1629 C   0  0  0  0  0  0  0  0  0  0  0  0
  -25.8993  -37.7906   23.6867 C   0  0  0  0  0  0  0  0  0  0  0  0
  -29.1162  -18.7543   22.2497 C   0  0  0  0  0  0  0  0  0  0  0  0
  -26.3147  -15.6594   21.8982 C   0  0  0  0  0  0  0  0  0  0  0  0
  -23.7328  -38.3931   24.5701 C   0  0  0  0  0  0  0  0  0  0  0  0
  -24.4629  -31.7587   22.5464 C   0  0  0  0  0  0  0  0  0  0  0  0
  -23.3836  -29.9496   21.1077 C   0  0  0  0  0  0  0  0  0  0  0  0
  -19.9674   -9.1522   22.5870 C   0  0  0  0  0  0  0  0  0  0  0  0
  -24.2865  -14.8327   20.8673 C   0  0  0  0  0  0  0  0  0  0  0  0
  -20.6728  -10.3427   22.8470 C   0  0  0  0  0  0  0  0  0  0  0  0
  -30.1978  -18.4798   21.4033 C   0  0  0  0  0  0  0  0  0  0  0  0
  -25.6349  -14.6469   21.2041 C   0  0  0  0  0  0  0  0  0  0  0  0
  -28.2719  -19.8263   21.9905 C   0  0  0  0  0  0  0  0  0  0  0  0
  -24.4207  -33.8366   24.4074 C   0  0  0  0  0  0  0  0  0  0  0  0
  -25.6661  -16.8455   22.2411 C   0  0  0  0  0  0  0  0  0  0  0  0
  -24.5649  -36.1413   24.8427 C   0  0  0  0  0  0  0  0  0  0  0  0
  -24.8998  -38.7420   23.8903 C   0  0  0  0  0  0  0  0  0  0  0  0
  -23.5654  -37.0928   25.0463 C   0  0  0  0  0  0  0  0  0  0  0  0
  -24.4847  -30.6850   21.5858 C   0  0  0  0  0  0  0  0  0  0  0  0
  -30.3824  -19.3188   20.3017 C   0  0  0  0  0  0  0  0  0  0  0  0
  -28.5389  -20.5991   20.8783 C   0  0  0  0  0  0  0  0  0  0  0  0
  -23.9283  -29.0533   20.2209 C   0  0  0  0  0  0  0  0  0  0  0  0
  -21.9928  -30.0664   21.4358 C   0  0  0  0  0  0  0  0  0  0  0  0
  -23.8447  -11.7721   21.6028 C   0  0  0  0  0  0  0  0  0  0  0  0
  -26.2003  -11.3110   19.4208 C   0  0  0  0  0  0  0  0  0  0  0  0
  -28.8897  -12.5825   17.7483 C   0  0  0  0  0  0  0  0  0  0  0  0
  -27.7570  -25.4456   18.6891 C   0  0  0  0  0  0  0  0  0  0  0  0
  -20.6787   -7.8410   22.3647 C   0  0  0  0  0  0  0  0  0  0  0  0
  -23.5398  -13.7748   20.1021 C   0  0  0  0  0  0  0  0  0  0  0  0
  -31.1074  -17.3161   21.6960 C   0  0  0  0  0  0  0  0  0  0  0  0
  -26.3744  -13.3840   20.8483 C   0  0  0  0  0  0  0  0  0  0  0  0
  -31.5147  -19.1074   19.3334 C   0  0  0  0  0  0  0  0  0  0  0  0
  -22.1560   -8.0011   22.0152 C   0  0  0  0  0  0  0  0  0  0  0  0
  -32.8871  -19.2927   19.9765 C   0  0  0  0  0  0  0  0  0  0  0  0
  -28.5638  -28.7758   18.2343 C   0  0  0  0  0  0  0  0  0  0  0  0
  -22.8229   -8.9972   22.9585 C   0  0  0  0  0  0  0  0  0  0  0  0
  -33.3723  -18.0773   20.7683 C   0  0  0  0  0  0  0  0  0  0  0  0
  -27.4874  -29.5214   19.0227 C   0  0  0  0  0  0  0  0  0  0  0  0
  -28.1192  -23.0708   21.2477 C   0  0  0  0  0  0  0  0  0  0  0  0
  -27.5533  -22.0115   19.0191 C   0  0  0  0  0  0  0  0  0  0  0  0
  -29.0393  -27.5419   18.9924 C   0  0  0  0  0  0  0  0  0  0  0  0
  -27.2440  -24.2707   20.8748 C   0  0  0  0  0  0  0  0  0  0  0  0
  -26.6737  -23.2197   18.7108 C   0  0  0  0  0  0  0  0  0  0  0  0
  -26.8574  -27.3231   20.1369 C   0  0  0  0  0  0  0  0  0  0  0  0
  -22.1854  -10.3864   22.8345 C   0  0  1  0  0  0  0  0  0  0  0  0
  -27.6565  -21.7854   20.5383 C   0  0  0  0  0  0  0  0  0  0  0  0
  -24.1433  -12.3830   20.2629 C   0  0  1  0  0  0  0  0  0  0  0  0
  -32.5486  -17.7451   22.0248 C   0  0  2  0  0  0  0  0  0  0  0  0
  -26.3341  -28.5793   19.4112 C   0  0  1  0  0  0  0  0  0  0  0  0
  -33.2512  -16.6218   22.7980 C   0  0  0  0  0  0  0  0  0  0  0  0
  -30.6340  -11.9554   16.0568 C   0  0  0  0  0  0  0  0  0  0  0  0
  -27.6922   -9.7183   21.5533 C   0  0  0  0  0  0  0  0  0  0  0  0
  -29.7657   -9.9379   20.1674 C   0  0  0  0  0  0  0  0  0  0  0  0
  -27.7823   -8.7285   19.2585 C   0  0  0  0  0  0  0  0  0  0  0  0
  -27.9734  -14.6679   15.8587 C   0  0  0  0  0  0  0  0  0  0  0  0
  -27.1257  -20.1099   22.8980 C   0  0  0  0  0  0  0  0  0  0  0  0
  -25.9374  -19.1677   22.6763 C   0  0  0  0  0  0  0  0  0  1  0  0
  -27.7077  -11.2466   19.4724 C   0  0  1  0  0  0  0  0  0  0  0  0
  -29.2593  -12.5677   16.2760 C   0  0  2  0  0  0  0  0  0  0  0  0
  -28.2228   -9.9309   20.1215 C   0  0  0  0  0  0  0  0  0  0  0  0
  -25.6415  -30.2900   21.0475 N   0  0  0  0  0  0  0  0  0  0  0  0
  -29.5673  -20.3724   20.0335 N   0  0  0  0  0  0  0  0  0  0  0  0
  -25.2703  -29.2966   20.2219 N   0  0  0  0  0  0  0  0  0  0  0  0
  -25.5991  -12.3766   20.1056 N   0  0  0  0  0  0  0  0  0  0  0  0
  -27.9153  -26.6751   19.3462 N   0  0  0  0  0  0  0  0  0  0  0  0
  -27.1490  -24.4103   19.4150 N   0  0  0  0  0  0  0  0  0  0  0  0
  -23.3855  -28.0887   19.4481 N   0  0  0  0  0  0  0  0  0  0  0  0
  -21.4918  -29.3068   22.5018 N   0  0  0  0  0  0  0  0  0  0  0  0
  -22.6629  -11.0572   21.6444 N   0  0  0  0  0  0  0  0  0  0  0  0
  -28.1724  -11.4606   18.1062 N   0  0  0  0  0  0  0  0  0  0  0  0
  -29.2702  -13.9546   15.7307 N   0  3  0  0  0  0  0  0  0  0  0  0
  -21.2138  -30.8094   20.7920 O   0  0  0  0  0  0  0  0  0  0  0  0
  -24.6292  -11.9359   22.5298 O   0  0  0  0  0  0  0  0  0  0  0  0
  -25.5795  -10.4517   18.7901 O   0  0  0  0  0  0  0  0  0  0  0  0
  -29.2088  -13.4961   18.5060 O   0  0  0  0  0  0  0  0  0  0  0  0
  -28.1355  -25.2820   17.5224 O   0  0  0  0  0  0  0  0  0  0  0  0
  -24.4005  -34.8502   25.3155 O   0  0  0  0  0  0  0  0  0  0  0  0
  -26.3430  -17.8264   22.9175 O   0  0  0  0  0  0  0  0  0  1  0  0
  -25.0614  -39.9910   23.4344 F   0  0  0  0  0  0  0  0  0  0  0  0
  -22.4425  -36.7637   25.6997 F   0  0  0  0  0  0  0  0  0  0  0  0
  1  2  1  0  0  0  0
  1  5  2  0  0  0  0
  2  6  2  0  0  0  0
  3  8  2  0  0  0  0
  3 16  1  0  0  0  0
  4  9  1  0  0  0  0
  4 16  2  0  0  0  0
  5 18  1  0  0  0  0
  6 20  1  0  0  0  0
  7 10  2  0  0  0  0
  7 19  1  0  0  0  0
  8 24  1  0  0  0  0
  9 24  2  0  0  0  0
 10 25  1  0  0  0  0
 11 12  2  0  0  0  0
 11 26  1  0  0  0  0
 12 27  1  0  0  0  0
 13 21  2  0  0  0  0
 13 23  1  0  0  0  0
 14 22  1  0  0  0  0
 14 25  2  0  0  0  0
 15 27  2  0  0  0  0
 15 28  1  0  0  0  0
 16 29  1  0  0  0  0
 17 29  1  0  0  0  0
 17 32  2  0  0  0  0
 17 33  1  0  0  0  0
 18 20  2  0  0  0  0
 18 38  1  0  0  0  0
 19 22  2  0  0  0  0
 19 39  1  0  0  0  0
 20 55  1  0  0  0  0
 21 30  1  0  0  0  0
 21 40  1  0  0  0  0
 22 41  1  0  0  0  0
 23 31  2  0  0  0  0
 23 66  1  0  0  0  0
 24 87  1  0  0  0  0
 25 88  1  0  0  0  0
 26 28  2  0  0  0  0
 26 87  1  0  0  0  0
 27 89  1  0  0  0  0
 28 90  1  0  0  0  0
 29 71  2  0  0  0  0
 30 42  1  0  0  0  0
 30 72  2  0  0  0  0
 31 56  1  0  0  0  0
 31 72  1  0  0  0  0
 32 73  1  0  0  0  0
 32 77  1  0  0  0  0
 33 78  1  0  0  0  0
 33 82  2  0  0  0  0
 34 57  1  0  0  0  0
 34 79  1  0  0  0  0
 34 83  2  0  0  0  0
 35 68  1  0  0  0  0
 35 74  1  0  0  0  0
 35 84  2  0  0  0  0
 36 69  1  0  0  0  0
 36 80  1  0  0  0  0
 36 85  2  0  0  0  0
 37 75  1  0  0  0  0
 37 76  1  0  0  0  0
 37 86  2  0  0  0  0
 38 43  1  0  0  0  0
 39 57  1  0  0  0  0
 40 58  1  0  0  0  0
 41 74  1  0  0  0  0
 42 44  1  0  0  0  0
 43 46  1  0  0  0  0
 44 47  1  0  0  0  0
 45 48  1  0  0  0  0
 45 51  1  0  0  0  0
 46 55  1  0  0  0  0
 47 58  1  0  0  0  0
 48 59  1  0  0  0  0
 49 52  1  0  0  0  0
 49 56  1  0  0  0  0
 50 53  1  0  0  0  0
 50 56  1  0  0  0  0
 51 75  1  0  0  0  0
 52 76  1  0  0  0  0
 53 76  1  0  0  0  0
 54 59  1  0  0  0  0
 54 75  1  0  0  0  0
 55 79  1  0  0  0  0
 57 74  1  0  0  0  0
 58 60  1  0  0  0  0
 59 73  1  0  0  0  0
 61 69  1  0  0  0  0
 62 70  1  0  0  0  0
 63 70  1  0  0  0  0
 64 70  1  0  0  0  0
 65 81  1  0  0  0  0
 66 67  1  0  0  0  0
 67 88  1  0  0  0  0
 68 70  1  0  0  0  0
 68 80  1  0  0  0  0
 69 81  1  0  0  0  0
 71 73  1  0  0  0  0
M  CHG  1  81   1
M  ISO  4  37 100  67 101  76 100  88 101
M  END
> <Batch ID>
0035

> <Smiles>
CNC(C)C(=O)NC(C(=O)N1Cc2cc([101O:1][101CH2:1]Cc3cc4c(nc3C3CC[100N:0]([100C:0](=O)N5CCCC(n6nc(-c7ccc(Oc8ccc(F)cc8F)cc7)c(C(N)=O)c6N)C5)CC3)CCCC(C)C4)ccc2CC1C(=O)NC1CCCc2ccccc21)C(C)(C)C

> <Shape>
0.271

> <Color>
0.062

> <Negative vol penalty>
0.000

$$$$

  -OEChem-04052316533D

 83 91  0     1  0  0  0  0  0999 V2000
  -21.5343  -11.4636   20.1136 C   0  0  0  0  0  0  0  0  0  0  0  0
  -21.3724  -12.7118   20.7064 C   0  0  0  0  0  0  0  0  0  0  0  0
  -25.1891  -26.6638   19.3198 C   0  0  0  0  0  0  0  0  0  0  0  0
  -25.8427  -25.1784   21.1096 C   0  0  0  0  0  0  0  0  0  0  0  0
  -22.8141  -10.9446   19.9227 C   0  0  0  0  0  0  0  0  0  0  0  0
  -22.4903  -13.4411   21.1096 C   0  0  0  0  0  0  0  0  0  0  0  0
  -23.1543  -19.5281   20.9895 C   0  0  0  0  0  0  0  0  0  0  0  0
  -26.4880  -27.1691   19.2647 C   0  0  0  0  0  0  0  0  0  0  0  0
  -27.1417  -25.6836   21.0544 C   0  0  0  0  0  0  0  0  0  0  0  0
  -23.0181  -20.5061   21.9737 C   0  0  0  0  0  0  0  0  0  0  0  0
  -29.7547  -26.9733   17.9090 C   0  0  0  0  0  0  0  0  0  0  0  0
  -30.6587  -26.3432   17.0539 C   0  0  0  0  0  0  0  0  0  0  0  0
  -25.3977  -20.4364   22.3637 C   0  0  0  0  0  0  0  0  0  0  0  0
  -21.8348  -22.0992   25.9208 C   0  0  0  0  0  0  0  0  0  0  0  0
  -20.8275  -20.3512   27.2499 C   0  0  0  0  0  0  0  0  0  0  0  0
  -23.2190  -20.6889   27.3108 C   0  0  0  0  0  0  0  0  0  0  0  0
  -31.3142  -24.8568   18.8422 C   0  0  0  0  0  0  0  0  0  0  0  0
  -24.8664  -25.6685   20.2423 C   0  0  0  0  0  0  0  0  0  0  0  0
  -23.0063  -24.0526   19.5816 C   0  0  0  0  0  0  0  0  0  0  0  0
  -23.9487  -11.6722   20.3150 C   0  0  0  0  0  0  0  0  0  0  0  0
  -24.4139  -18.9881   20.6921 C   0  0  0  0  0  0  0  0  0  0  0  0
  -23.7865  -12.9308   20.9250 C   0  0  0  0  0  0  0  0  0  0  0  0
  -25.5475  -19.4535   21.3735 C   0  0  0  0  0  0  0  0  0  0  0  0
  -20.7019  -21.4040   26.3435 C   0  0  0  0  0  0  0  0  0  0  0  0
  -23.0934  -21.7417   26.4044 C   0  0  0  0  0  0  0  0  0  0  0  0
  -27.4643  -26.6789   20.1320 C   0  0  0  0  0  0  0  0  0  0  0  0
  -24.1395  -20.9583   22.6630 C   0  0  0  0  0  0  0  0  0  0  0  0
  -29.6305  -26.5453   19.2308 C   0  0  0  0  0  0  0  0  0  0  0  0
  -31.4384  -25.2849   17.5205 C   0  0  0  0  0  0  0  0  0  0  0  0
  -30.4102  -25.4871   19.6974 C   0  0  0  0  0  0  0  0  0  0  0  0
  -22.0860  -19.9937   27.7336 C   0  0  0  0  0  0  0  0  0  0  0  0
  -23.5246  -25.1466   20.3001 C   0  0  0  0  0  0  0  0  0  0  0  0
  -21.6972  -23.9643   19.9876 C   0  0  0  0  0  0  0  0  0  0  0  0
  -23.6507  -23.1929   18.6322 C   0  0  0  0  0  0  0  0  0  0  0  0
  -25.7050  -16.0878   20.8489 C   0  0  0  0  0  0  0  0  0  0  0  0
  -28.2087  -17.5491   19.3937 C   0  0  0  0  0  0  0  0  0  0  0  0
  -29.9001  -20.4429   18.7516 C   0  0  0  0  0  0  0  0  0  0  0  0
  -18.8452  -25.6920   24.9607 C   0  0  0  0  0  0  0  0  0  0  0  0
  -25.3099  -11.0493   20.1312 C   0  0  0  0  0  0  0  0  0  0  0  0
  -24.5476  -17.9530   19.6090 C   0  0  0  0  0  0  0  0  0  0  0  0
  -26.9249  -18.9208   21.0776 C   0  0  0  0  0  0  0  0  0  0  0  0
  -26.4578  -12.0491   20.2454 C   0  0  0  0  0  0  0  0  0  0  0  0
  -18.0925  -26.6556   21.6168 C   0  0  0  0  0  0  0  0  0  0  0  0
  -26.2670  -12.9437   21.4662 C   0  0  0  0  0  0  0  0  0  0  0  0
  -19.3526  -26.2794   20.8353 C   0  0  0  0  0  0  0  0  0  0  0  0
  -18.4279  -27.1682   23.0156 C   0  0  0  0  0  0  0  0  0  0  0  0
  -20.5355  -25.8909   23.0373 C   0  0  0  0  0  0  0  0  0  0  0  0
  -24.9757  -13.7630   21.3533 C   0  0  1  0  0  0  0  0  0  0  0  0
  -25.8074  -17.1036   19.7466 C   0  0  1  0  0  0  0  0  0  0  0  0
  -20.2449  -25.3157   21.6405 C   0  0  2  0  0  0  0  0  0  0  0  0
  -31.9309  -21.3155   17.5634 C   0  0  0  0  0  0  0  0  0  0  0  0
  -29.9797  -16.4642   21.6290 C   0  0  0  0  0  0  0  0  0  0  0  0
  -31.7375  -18.1084   20.9396 C   0  0  0  0  0  0  0  0  0  0  0  0
  -30.9905  -16.3417   19.3447 C   0  0  0  0  0  0  0  0  0  0  0  0
  -28.2676  -22.1605   16.9785 C   0  0  0  0  0  0  0  0  0  0  0  0
  -19.3563  -21.7879   25.8271 C   0  0  0  0  0  0  0  0  0  0  0  0
  -24.3185  -22.4959   25.9476 C   0  0  0  0  0  0  0  0  0  0  0  0
  -18.6283  -22.8517   26.6723 C   0  0  0  0  0  0  0  0  0  0  0  0
  -19.3982  -24.1608   26.8338 C   0  0  0  0  0  0  0  0  0  0  0  0
  -24.9459  -21.8820   24.7008 C   0  0  0  0  0  0  0  0  0  1  0  0
  -29.4457  -18.2739   19.8666 C   0  0  1  0  0  0  0  0  0  0  0  0
  -30.4412  -21.0279   17.4595 C   0  0  2  0  0  0  0  0  0  0  0  0
  -30.5123  -17.3059   20.4522 C   0  0  0  0  0  0  0  0  0  0  0  0
  -22.6186  -25.7129   21.1016 N   0  0  0  0  0  0  0  0  0  0  0  0
  -21.5178  -24.9718   20.8892 N   0  0  0  0  0  0  0  0  0  0  0  0
  -27.0031  -17.9053   20.0145 N   0  0  0  0  0  0  0  0  0  0  0  0
  -19.2748  -26.2074   23.7267 N   0  0  0  0  0  0  0  0  0  0  0  0
  -20.6935  -23.1240   19.6577 N   0  0  0  0  0  0  0  0  0  0  0  0
  -24.9997  -23.4235   18.3299 N   0  0  0  0  0  0  0  0  0  0  0  0
  -25.1630  -14.8801   20.4525 N   0  0  0  0  0  0  0  0  0  0  0  0
  -29.9141  -19.0643   18.7333 N   0  0  0  0  0  0  0  0  0  0  0  0
  -19.7045  -24.7824   25.5647 N   0  0  0  0  0  0  0  0  0  0  0  0
  -29.7384  -22.3009   17.1330 N   0  3  0  0  0  0  0  0  0  0  0  0
  -23.0436  -22.2584   18.0563 O   0  0  0  0  0  0  0  0  0  0  0  0
  -26.0905  -16.3776   21.9754 O   0  0  0  0  0  0  0  0  0  0  0  0
  -28.3075  -16.7034   18.5011 O   0  0  0  0  0  0  0  0  0  0  0  0
  -29.5079  -21.1393   19.6853 O   0  0  0  0  0  0  0  0  0  0  0  0
  -17.7726  -26.0145   25.4828 O   0  0  0  0  0  0  0  0  0  0  0  0
  -28.7320  -27.1715   20.0783 O   0  0  0  0  0  0  0  0  0  0  0  0
  -24.0093  -21.9124   23.6246 O   0  0  0  0  0  0  0  0  0  1  0  0
  -32.3054  -24.6788   16.6987 F   0  0  0  0  0  0  0  0  0  0  0  0
  -30.2945  -25.0707   20.9659 F   0  0  0  0  0  0  0  0  0  0  0  0
  -22.2411  -18.6939   28.8510 Cl  0  0  0  0  0  0  0  0  0  0  0  0
  1  2  1  0  0  0  0
  1  5  2  0  0  0  0
  2  6  2  0  0  0  0
  3  8  2  0  0  0  0
  3 18  1  0  0  0  0
  4  9  1  0  0  0  0
  4 18  2  0  0  0  0
  5 20  1  0  0  0  0
  6 22  1  0  0  0  0
  7 10  2  0  0  0  0
  7 21  1  0  0  0  0
  8 26  1  0  0  0  0
  9 26  2  0  0  0  0
 10 27  1  0  0  0  0
 11 12  2  0  0  0  0
 11 28  1  0  0  0  0
 12 29  1  0  0  0  0
 13 23  1  0  0  0  0
 13 27  2  0  0  0  0
 14 24  1  0  0  0  0
 14 25  2  0  0  0  0
 15 24  2  0  0  0  0
 15 31  1  0  0  0  0
 16 25  1  0  0  0  0
 16 31  2  0  0  0  0
 17 29  2  0  0  0  0
 17 30  1  0  0  0  0
 18 32  1  0  0  0  0
 19 32  1  0  0  0  0
 19 33  2  0  0  0  0
 19 34  1  0  0  0  0
 20 22  2  0  0  0  0
 20 39  1  0  0  0  0
 21 23  2  0  0  0  0
 21 40  1  0  0  0  0
 22 48  1  0  0  0  0
 23 41  1  0  0  0  0
 24 56  1  0  0  0  0
 25 57  1  0  0  0  0
 26 79  1  0  0  0  0
 27 80  1  0  0  0  0
 28 30  2  0  0  0  0
 28 79  1  0  0  0  0
 29 81  1  0  0  0  0
 30 82  1  0  0  0  0
 31 83  1  0  0  0  0
 32 64  2  0  0  0  0
 33 65  1  0  0  0  0
 33 68  1  0  0  0  0
 34 69  1  0  0  0  0
 34 74  2  0  0  0  0
 35 49  1  0  0  0  0
 35 70  1  0  0  0  0
 35 75  2  0  0  0  0
 36 61  1  0  0  0  0
 36 66  1  0  0  0  0
 36 76  2  0  0  0  0
 37 62  1  0  0  0  0
 37 71  1  0  0  0  0
 37 77  2  0  0  0  0
 38 67  1  0  0  0  0
 38 72  1  0  0  0  0
 38 78  2  0  0  0  0
 39 42  1  0  0  0  0
 40 49  1  0  0  0  0
 41 66  1  0  0  0  0
 42 44  1  0  0  0  0
 43 45  1  0  0  0  0
 43 46  1  0  0  0  0
 44 48  1  0  0  0  0
 45 50  1  0  0  0  0
 46 67  1  0  0  0  0
 47 50  1  0  0  0  0
 47 67  1  0  0  0  0
 48 70  1  0  0  0  0
 49 66  1  0  0  0  0
 50 65  1  0  0  0  0
 51 62  1  0  0  0  0
 52 63  1  0  0  0  0
 53 63  1  0  0  0  0
 54 63  1  0  0  0  0
 55 73  1  0  0  0  0
 56 58  1  0  0  0  0
 57 60  1  0  0  0  0
 58 59  1  0  0  0  0
 59 72  1  0  0  0  0
 60 80  1  0  0  0  0
 61 63  1  0  0  0  0
 61 71  1  0  0  0  0
 62 73  1  0  0  0  0
 64 65  1  0  0  0  0
M  CHG  1  73   1
M  ISO  4  38 100  60 101  72 100  80 101
M  END
> <Batch ID>
0035

> <Smiles>
CNC(C)C(=O)NC(C(=O)N1Cc2cc([101O:1][101CH2:1]Cc3cc(Cl)cc(CCC[100NH:0][100C:0](=O)N4CCCC(n5nc(-c6ccc(Oc7ccc(F)cc7F)cc6)c(C(N)=O)c5N)C4)c3)ccc2CC1C(=O)NC1CCCc2ccccc21)C(C)(C)C

> <Shape>
0.190

> <Color>
0.064

> <Negative vol penalty>
0.000

$$$$

  -OEChem-04052316533D

 83 91  0     1  0  0  0  0  0999 V2000
  -25.3217  -18.9188   18.8770 C   0  0  0  0  0  0  0  0  0  0  0  0
  -25.6981  -20.2357   19.1204 C   0  0  0  0  0  0  0  0  0  0  0  0
  -26.2784  -13.4457   21.9926 C   0  0  0  0  0  0  0  0  0  0  0  0
  -24.8123  -15.0080   20.8760 C   0  0  0  0  0  0  0  0  0  0  0  0
  -24.0148  -18.6293   18.4868 C   0  0  0  0  0  0  0  0  0  0  0  0
  -24.7681  -21.2642   18.9727 C   0  0  0  0  0  0  0  0  0  0  0  0
  -24.9167  -24.5816   22.7960 C   0  0  0  0  0  0  0  0  0  0  0  0
  -25.2269  -12.5356   22.1000 C   0  0  0  0  0  0  0  0  0  0  0  0
  -23.7607  -14.0979   20.9835 C   0  0  0  0  0  0  0  0  0  0  0  0
  -25.9467  -25.5211   22.7841 C   0  0  0  0  0  0  0  0  0  0  0  0
  -23.0203   -9.6571   22.3463 C   0  0  0  0  0  0  0  0  0  0  0  0
  -23.2815   -8.3240   22.0299 C   0  0  0  0  0  0  0  0  0  0  0  0
  -24.4242  -27.1703   21.9003 C   0  0  0  0  0  0  0  0  0  0  0  0
  -31.0464  -27.2573   19.8477 C   0  0  0  0  0  0  0  0  0  0  0  0
  -23.9036   -8.9779   19.7887 C   0  0  0  0  0  0  0  0  0  0  0  0
  -26.0711  -14.6819   21.3806 C   0  0  0  0  0  0  0  0  0  0  0  0
  -28.0804  -15.7344   20.2132 C   0  0  0  0  0  0  0  0  0  0  0  0
  -23.0658  -19.6537   18.3436 C   0  0  0  0  0  0  0  0  0  0  0  0
  -23.6332  -24.9270   22.3491 C   0  0  0  0  0  0  0  0  0  0  0  0
  -23.4477  -20.9883   18.5789 C   0  0  0  0  0  0  0  0  0  0  0  0
  -23.3790  -26.2341   21.9099 C   0  0  0  0  0  0  0  0  0  0  0  0
  -30.2978  -28.3087   20.3469 C   0  0  0  0  0  0  0  0  0  0  0  0
  -23.9680  -12.8617   21.5955 C   0  0  0  0  0  0  0  0  0  0  0  0
  -25.7013  -26.8149   22.3335 C   0  0  0  0  0  0  0  0  0  0  0  0
  -23.2007  -10.6506   21.3840 C   0  0  0  0  0  0  0  0  0  0  0  0
  -23.7232   -7.9844   20.7511 C   0  0  0  0  0  0  0  0  0  0  0  0
  -23.6423  -10.3110   20.1052 C   0  0  0  0  0  0  0  0  0  0  0  0
  -27.1569  -15.6227   21.2698 C   0  0  0  0  0  0  0  0  0  0  0  0
  -30.3804  -26.1016   19.4922 C   0  0  0  0  0  0  0  0  0  0  0  0
  -28.9328  -28.1349   20.4572 C   0  0  0  0  0  0  0  0  0  0  0  0
  -28.9018  -16.7711   20.5833 C   0  0  0  0  0  0  0  0  0  0  0  0
  -28.1861  -14.9696   19.0051 C   0  0  0  0  0  0  0  0  0  0  0  0
  -21.7341  -23.9373   20.0001 C   0  0  0  0  0  0  0  0  0  0  0  0
  -29.5189  -21.9306   22.6542 C   0  0  0  0  0  0  0  0  0  0  0  0
  -19.5990  -25.9298   21.4122 C   0  0  0  0  0  0  0  0  0  0  0  0
  -19.0495  -28.6518   23.3959 C   0  0  0  0  0  0  0  0  0  0  0  0
  -21.6777  -19.2968   17.8739 C   0  0  0  0  0  0  0  0  0  0  0  0
  -22.5263  -23.9095   22.3933 C   0  0  0  0  0  0  0  0  0  0  0  0
  -22.0136  -26.6610   21.4388 C   0  0  0  0  0  0  0  0  0  0  0  0
  -20.6533  -20.4051   18.1034 C   0  0  0  0  0  0  0  0  0  0  0  0
  -29.3604  -19.2108   24.9817 C   0  0  0  0  0  0  0  0  0  0  0  0
  -21.2114  -21.7502   17.6495 C   0  0  0  0  0  0  0  0  0  0  0  0
  -28.8204  -18.0524   24.1440 C   0  0  0  0  0  0  0  0  0  0  0  0
  -28.7526  -20.5421   24.5513 C   0  0  0  0  0  0  0  0  0  0  0  0
  -28.3832  -19.6890   22.2584 C   0  0  0  0  0  0  0  0  0  0  0  0
  -22.4610  -22.1288   18.4536 C   0  0  1  0  0  0  0  0  0  0  0  0
  -21.3845  -24.2265   21.4325 C   0  0  1  0  0  0  0  0  0  0  0  0
  -28.9948  -18.3294   22.6403 C   0  0  2  0  0  0  0  0  0  0  0  0
  -30.9675  -29.5783   20.7449 C   0  0  0  0  0  0  0  0  0  0  0  0
  -17.1995  -30.0613   24.3383 C   0  0  0  0  0  0  0  0  0  0  0  0
  -19.2278  -27.2580   18.6904 C   0  0  0  0  0  0  0  0  0  0  0  0
  -18.1481  -29.1911   19.8589 C   0  0  0  0  0  0  0  0  0  0  0  0
  -17.1144  -26.9243   19.9853 C   0  0  0  0  0  0  0  0  0  0  0  0
  -19.8207  -28.0086   26.1798 C   0  0  0  0  0  0  0  0  0  0  0  0
  -31.1402  -24.9398   18.9499 C   0  0  0  0  0  0  0  0  0  0  0  0
  -28.0517  -29.2367   20.9938 C   0  0  0  0  0  0  0  0  0  0  0  0
  -29.6590  -22.0792   21.1601 C   0  0  0  0  0  0  0  0  0  0  0  0
  -30.4733  -23.5973   19.2901 C   0  0  0  0  0  0  0  0  0  0  0  0
  -30.3284  -23.4025   20.8027 C   0  0  0  0  0  0  0  0  0  0  0  0
  -26.6443  -28.7476   21.3180 C   0  0  0  0  0  0  0  0  0  1  0  0
  -19.2423  -27.3896   21.2689 C   0  0  1  0  0  0  0  0  0  0  0  0
  -18.1142  -28.8690   24.5717 C   0  0  2  0  0  0  0  0  0  0  0  0
  -18.4595  -27.6825   19.9579 C   0  0  0  0  0  0  0  0  0  0  0  0
  -27.3711  -16.5168   22.2386 N   0  0  0  0  0  0  0  0  0  0  0  0
  -29.0433  -25.9593   19.6110 N   0  0  0  0  0  0  0  0  0  0  0  0
  -28.3076  -26.9928   20.1012 N   0  0  0  0  0  0  0  0  0  0  0  0
  -28.4387  -17.2003   21.7922 N   0  0  0  0  0  0  0  0  0  0  0  0
  -20.9658  -25.6283   21.4952 N   0  0  0  0  0  0  0  0  0  0  0  0
  -28.9192  -20.7576   23.1129 N   0  0  0  0  0  0  0  0  0  0  0  0
  -29.9679  -17.3483   19.9894 N   0  0  0  0  0  0  0  0  0  0  0  0
  -27.2607  -13.9409   18.7824 N   0  0  0  0  0  0  0  0  0  0  0  0
  -22.0895  -22.6234   19.7619 N   0  0  0  0  0  0  0  0  0  0  0  0
  -18.5273  -27.7565   22.4865 N   0  0  0  0  0  0  0  0  0  0  0  0
  -18.8957  -29.1129   25.8170 N   0  3  0  0  0  0  0  0  0  0  0  0
  -29.0850  -15.1812   18.1561 O   0  0  0  0  0  0  0  0  0  0  0  0
  -21.6836  -24.8392   19.1719 O   0  0  0  0  0  0  0  0  0  0  0  0
  -29.9334  -22.8300   23.3901 O   0  0  0  0  0  0  0  0  0  0  0  0
  -18.6979  -25.0886   21.4562 O   0  0  0  0  0  0  0  0  0  0  0  0
  -20.1332  -29.2224   23.2925 O   0  0  0  0  0  0  0  0  0  0  0  0
  -22.9417  -11.9738   21.6999 O   0  0  0  0  0  0  0  0  0  0  0  0
  -26.7051  -27.7336   22.3203 O   0  0  0  0  0  0  0  0  0  1  0  0
  -23.9754   -6.7043   20.4478 F   0  0  0  0  0  0  0  0  0  0  0  0
  -23.8186  -11.2612   19.1768 F   0  0  0  0  0  0  0  0  0  0  0  0
  1  2  1  0  0  0  0
  1  5  2  0  0  0  0
  2  6  2  0  0  0  0
  3  8  2  0  0  0  0
  3 16  1  0  0  0  0
  4  9  1  0  0  0  0
  4 16  2  0  0  0  0
  5 18  1  0  0  0  0
  6 20  1  0  0  0  0
  7 10  2  0  0  0  0
  7 19  1  0  0  0  0
  8 23  1  0  0  0  0
  9 23  2  0  0  0  0
 10 24  1  0  0  0  0
 11 12  2  0  0  0  0
 11 25  1  0  0  0  0
 12 26  1  0  0  0  0
 13 21  1  0  0  0  0
 13 24  2  0  0  0  0
 14 22  1  0  0  0  0
 14 29  2  0  0  0  0
 15 26  2  0  0  0  0
 15 27  1  0  0  0  0
 16 28  1  0  0  0  0
 17 28  1  0  0  0  0
 17 31  2  0  0  0  0
 17 32  1  0  0  0  0
 18 20  2  0  0  0  0
 18 37  1  0  0  0  0
 19 21  2  0  0  0  0
 19 38  1  0  0  0  0
 20 46  1  0  0  0  0
 21 39  1  0  0  0  0
 22 30  2  0  0  0  0
 22 49  1  0  0  0  0
 23 80  1  0  0  0  0
 24 81  1  0  0  0  0
 25 27  2  0  0  0  0
 25 80  1  0  0  0  0
 26 82  1  0  0  0  0
 27 83  1  0  0  0  0
 28 64  2  0  0  0  0
 29 55  1  0  0  0  0
 29 65  1  0  0  0  0
 30 56  1  0  0  0  0
 30 66  1  0  0  0  0
 31 67  1  0  0  0  0
 31 70  1  0  0  0  0
 32 71  1  0  0  0  0
 32 75  2  0  0  0  0
 33 47  1  0  0  0  0
 33 72  1  0  0  0  0
 33 76  2  0  0  0  0
 34 57  1  0  0  0  0
 34 69  1  0  0  0  0
 34 77  2  0  0  0  0
 35 61  1  0  0  0  0
 35 68  1  0  0  0  0
 35 78  2  0  0  0  0
 36 62  1  0  0  0  0
 36 73  1  0  0  0  0
 36 79  2  0  0  0  0
 37 40  1  0  0  0  0
 38 47  1  0  0  0  0
 39 68  1  0  0  0  0
 40 42  1  0  0  0  0
 41 43  1  0  0  0  0
 41 44  1  0  0  0  0
 42 46  1  0  0  0  0
 43 48  1  0  0  0  0
 44 69  1  0  0  0  0
 45 48  1  0  0  0  0
 45 69  1  0  0  0  0
 46 72  1  0  0  0  0
 47 68  1  0  0  0  0
 48 67  1  0  0  0  0
 50 62  1  0  0  0  0
 51 63  1  0  0  0  0
 52 63  1  0  0  0  0
 53 63  1  0  0  0  0
 54 74  1  0  0  0  0
 55 58  1  0  0  0  0
 56 60  1  0  0  0  0
 57 59  1  0  0  0  0
 58 59  1  0  0  0  0
 60 81  1  0  0  0  0
 61 63  1  0  0  0  0
 61 73  1  0  0  0  0
 62 74  1  0  0  0  0
 64 67  1  0  0  0  0
 65 66  2  0  0  0  0
M  CHG  1  74   1
M  ISO  4  34 100  57 100  60 101  81 101
M  END
> <Batch ID>
0035

> <Smiles>
CNC(C)C(=O)NC(C(=O)N1Cc2cc([101O:1][101CH2:1]Cc3nnc(CCC[100CH2:0][100C:0](=O)N4CCCC(n5nc(-c6ccc(Oc7ccc(F)cc7F)cc6)c(C(N)=O)c5N)C4)cc3C)ccc2CC1C(=O)NC1CCCc2ccccc21)C(C)(C)C

> <Shape>
0.212

> <Color>
0.058

> <Negative vol penalty>
0.000

$$$$

  -OEChem-04052316533D

 80 88  0     1  0  0  0  0  0999 V2000
  -22.3207  -20.2320   24.2908 C   0  0  0  0  0  0  0  0  0  0  0  0
  -23.4551  -21.0137   24.4784 C   0  0  0  0  0  0  0  0  0  0  0  0
  -24.0056  -14.4269   20.7585 C   0  0  0  0  0  0  0  0  0  0  0  0
  -25.8388  -14.4036   19.1851 C   0  0  0  0  0  0  0  0  0  0  0  0
  -21.3632  -20.6137   23.3534 C   0  0  0  0  0  0  0  0  0  0  0  0
  -23.6265  -22.1834   23.7374 C   0  0  0  0  0  0  0  0  0  0  0  0
  -28.2942  -26.0948   23.5333 C   0  0  0  0  0  0  0  0  0  0  0  0
  -24.3048  -13.1153   21.1267 C   0  0  0  0  0  0  0  0  0  0  0  0
  -26.1381  -13.0919   19.5533 C   0  0  0  0  0  0  0  0  0  0  0  0
  -29.4567  -26.2716   22.7843 C   0  0  0  0  0  0  0  0  0  0  0  0
  -23.7997  -10.0070   19.8987 C   0  0  0  0  0  0  0  0  0  0  0  0
  -22.7385   -9.1095   20.0159 C   0  0  0  0  0  0  0  0  0  0  0  0
  -28.5587  -23.8044   17.5236 C   0  0  0  0  0  0  0  0  0  0  0  0
  -28.3025  -27.8558   21.3781 C   0  0  0  0  0  0  0  0  0  0  0  0
  -23.2993   -8.7498   22.3383 C   0  0  0  0  0  0  0  0  0  0  0  0
  -30.4236  -22.7198   18.5250 C   0  0  0  0  0  0  0  0  0  0  0  0
  -24.7726  -15.0711   19.7876 C   0  0  0  0  0  0  0  0  0  0  0  0
  -29.1539  -22.6324   17.9771 C   0  0  0  0  0  0  0  0  0  0  0  0
  -23.2580  -16.8999   18.8554 C   0  0  0  0  0  0  0  0  0  0  0  0
  -21.5298  -21.7823   22.5921 C   0  0  0  0  0  0  0  0  0  0  0  0
  -27.1221  -26.7902   23.2032 C   0  0  0  0  0  0  0  0  0  0  0  0
  -22.6598  -22.5982   22.8036 C   0  0  0  0  0  0  0  0  0  0  0  0
  -27.1272  -27.6880   22.1261 C   0  0  0  0  0  0  0  0  0  0  0  0
  -29.2418  -25.0109   17.6304 C   0  0  0  0  0  0  0  0  0  0  0  0
  -25.3711  -12.4478   20.5242 C   0  0  0  0  0  0  0  0  0  0  0  0
  -29.4602  -27.1500   21.7047 C   0  0  0  0  0  0  0  0  0  0  0  0
  -24.6108  -10.2760   21.0012 C   0  0  0  0  0  0  0  0  0  0  0  0
  -22.4883   -8.4809   21.2357 C   0  0  0  0  0  0  0  0  0  0  0  0
  -24.3606   -9.6474   22.2210 C   0  0  0  0  0  0  0  0  0  0  0  0
  -24.4636  -16.4258   19.4064 C   0  0  0  0  0  0  0  0  0  0  0  0
  -30.5076  -24.9919   18.1938 C   0  0  0  0  0  0  0  0  0  0  0  0
  -23.4690  -18.2450   18.6741 C   0  0  0  0  0  0  0  0  0  0  0  0
  -28.4594  -21.3427   17.8797 C   0  0  0  0  0  0  0  0  0  0  0  0
  -22.0551  -16.1882   18.5360 C   0  0  0  0  0  0  0  0  0  0  0  0
  -24.1984  -25.9485   22.2827 C   0  0  0  0  0  0  0  0  0  0  0  0
  -23.6120  -29.1249   22.5815 C   0  0  0  0  0  0  0  0  0  0  0  0
  -24.8431  -32.3076   22.6161 C   0  0  0  0  0  0  0  0  0  0  0  0
  -20.4585  -22.1525   21.5969 C   0  0  0  0  0  0  0  0  0  0  0  0
  -25.8838  -26.6085   24.0376 C   0  0  0  0  0  0  0  0  0  0  0  0
  -25.9007  -28.4738   21.7430 C   0  0  0  0  0  0  0  0  0  0  0  0
  -20.9374  -23.1573   20.5541 C   0  0  0  0  0  0  0  0  0  0  0  0
  -25.9587  -21.9236   20.4441 C   0  0  0  0  0  0  0  0  0  0  0  0
  -21.6284  -24.3272   21.2385 C   0  0  0  0  0  0  0  0  0  0  0  0
  -25.1899  -20.6019   20.4236 C   0  0  0  0  0  0  0  0  0  0  0  0
  -27.4470  -21.7049   20.1894 C   0  0  0  0  0  0  0  0  0  0  0  0
  -26.9788  -19.6469   18.9015 C   0  0  0  0  0  0  0  0  0  0  0  0
  -22.8825  -23.8585   21.9872 C   0  0  1  0  0  0  0  0  0  0  0  0
  -24.6037  -26.9812   23.2961 C   0  0  1  0  0  0  0  0  0  0  0  0
  -25.4665  -19.8166   19.1283 C   0  0  1  0  0  0  0  0  0  0  0  0
  -28.6100  -26.2697   17.1463 C   0  0  0  0  0  0  0  0  0  0  0  0
  -24.1158  -34.6987   22.8429 C   0  0  0  0  0  0  0  0  0  0  0  0
  -22.5497  -29.0705   19.7217 C   0  0  0  0  0  0  0  0  0  0  0  0
  -22.7363  -31.5668   19.6790 C   0  0  0  0  0  0  0  0  0  0  0  0
  -21.2050  -30.4600   21.3078 C   0  0  0  0  0  0  0  0  0  0  0  0
  -26.4853  -32.6978   25.0471 C   0  0  0  0  0  0  0  0  0  0  0  0
  -31.2952  -26.2699   18.3348 C   0  0  0  0  0  0  0  0  0  0  0  0
  -32.2255  -26.2893   19.5495 C   0  0  0  0  0  0  0  0  0  0  0  0
  -31.4841  -26.2129   20.8791 C   0  0  0  0  0  0  0  0  0  1  0  0
  -23.7042  -30.3200   21.6639 C   0  0  1  0  0  0  0  0  0  0  0  0
  -24.6193  -33.4638   23.5740 C   0  0  2  0  0  0  0  0  0  0  0  0
  -22.5715  -30.3382   20.5989 C   0  0  0  0  0  0  0  0  0  0  0  0
  -31.1182  -23.8735   18.6455 N   0  0  0  0  0  0  0  0  0  0  0  0
  -25.3730  -17.3912   19.5647 N   0  0  0  0  0  0  0  0  0  0  0  0
  -24.7387  -18.4853   19.1103 N   0  0  0  0  0  0  0  0  0  0  0  0
  -27.6550  -20.9447   18.9504 N   0  0  0  0  0  0  0  0  0  0  0  0
  -24.7130  -28.2569   22.5855 N   0  0  0  0  0  0  0  0  0  0  0  0
  -22.6904  -19.2337   18.1856 N   0  0  0  0  0  0  0  0  0  0  0  0
  -21.9257  -15.6361   17.2543 N   0  0  0  0  0  0  0  0  0  0  0  0
  -23.3887  -24.9501   22.7897 N   0  0  0  0  0  0  0  0  0  0  0  0
  -23.7319  -31.4960   22.5268 N   0  0  0  0  0  0  0  0  0  0  0  0
  -25.8903  -33.8145   24.2686 N   0  3  0  0  0  0  0  0  0  0  0  0
  -28.6360  -20.7086   16.8405 O   0  0  0  0  0  0  0  0  0  0  0  0
  -21.1157  -16.0601   19.3573 O   0  0  0  0  0  0  0  0  0  0  0  0
  -24.5899  -26.0508   21.1260 O   0  0  0  0  0  0  0  0  0  0  0  0
  -22.6033  -28.9711   23.2747 O   0  0  0  0  0  0  0  0  0  0  0  0
  -25.8967  -32.1432   22.0052 O   0  0  0  0  0  0  0  0  0  0  0  0
  -25.6635  -11.1679   20.8834 O   0  0  0  0  0  0  0  0  0  0  0  0
  -30.5933  -27.3239   20.9715 O   0  0  0  0  0  0  0  0  0  1  0  0
  -21.4682   -7.6201   21.3486 F   0  0  0  0  0  0  0  0  0  0  0  0
  -25.1356   -9.9026   23.2840 F   0  0  0  0  0  0  0  0  0  0  0  0
  1  2  1  0  0  0  0
  1  5  2  0  0  0  0
  2  6  2  0  0  0  0
  3  8  2  0  0  0  0
  3 17  1  0  0  0  0
  4  9  1  0  0  0  0
  4 17  2  0  0  0  0
  5 20  1  0  0  0  0
  6 22  1  0  0  0  0
  7 10  2  0  0  0  0
  7 21  1  0  0  0  0
  8 25  1  0  0  0  0
  9 25  2  0  0  0  0
 10 26  1  0  0  0  0
 11 12  2  0  0  0  0
 11 27  1  0  0  0  0
 12 28  1  0  0  0  0
 13 18  2  0  0  0  0
 13 24  1  0  0  0  0
 14 23  1  0  0  0  0
 14 26  2  0  0  0  0
 15 28  2  0  0  0  0
 15 29  1  0  0  0  0
 16 18  1  0  0  0  0
 16 62  2  0  0  0  0
 17 30  1  0  0  0  0
 18 33  1  0  0  0  0
 19 30  1  0  0  0  0
 19 32  2  0  0  0  0
 19 34  1  0  0  0  0
 20 22  2  0  0  0  0
 20 38  1  0  0  0  0
 21 23  2  0  0  0  0
 21 39  1  0  0  0  0
 22 47  1  0  0  0  0
 23 40  1  0  0  0  0
 24 31  2  0  0  0  0
 24 50  1  0  0  0  0
 25 77  1  0  0  0  0
 26 78  1  0  0  0  0
 27 29  2  0  0  0  0
 27 77  1  0  0  0  0
 28 79  1  0  0  0  0
 29 80  1  0  0  0  0
 30 63  2  0  0  0  0
 31 56  1  0  0  0  0
 31 62  1  0  0  0  0
 32 64  1  0  0  0  0
 32 67  1  0  0  0  0
 33 65  1  0  0  0  0
 33 72  2  0  0  0  0
 34 68  1  0  0  0  0
 34 73  2  0  0  0  0
 35 48  1  0  0  0  0
 35 69  1  0  0  0  0
 35 74  2  0  0  0  0
 36 59  1  0  0  0  0
 36 66  1  0  0  0  0
 36 75  2  0  0  0  0
 37 60  1  0  0  0  0
 37 70  1  0  0  0  0
 37 76  2  0  0  0  0
 38 41  1  0  0  0  0
 39 48  1  0  0  0  0
 40 66  1  0  0  0  0
 41 43  1  0  0  0  0
 42 44  1  0  0  0  0
 42 45  1  0  0  0  0
 43 47  1  0  0  0  0
 44 49  1  0  0  0  0
 45 65  1  0  0  0  0
 46 49  1  0  0  0  0
 46 65  1  0  0  0  0
 47 69  1  0  0  0  0
 48 66  1  0  0  0  0
 49 64  1  0  0  0  0
 51 60  1  0  0  0  0
 52 61  1  0  0  0  0
 53 61  1  0  0  0  0
 54 61  1  0  0  0  0
 55 71  1  0  0  0  0
 56 57  1  0  0  0  0
 57 58  1  0  0  0  0
 58 78  1  0  0  0  0
 59 61  1  0  0  0  0
 59 70  1  0  0  0  0
 60 71  1  0  0  0  0
 63 64  1  0  0  0  0
M  CHG  1  71   1
M  ISO  4  18 100  33 100  58 101  78 101
M  END
> <Batch ID>
0035

> <Smiles>
CNC(C)C(=O)NC(C(=O)N1Cc2cc([101O:1][101CH2:1]CCc3nc[100c:0]([100C:0](=O)N4CCCC(n5nc(-c6ccc(Oc7ccc(F)cc7F)cc6)c(C(N)=O)c5N)C4)cc3C)ccc2CC1C(=O)NC1CCCc2ccccc21)C(C)(C)C

> <Shape>
0.224

> <Color>
0.063

> <Negative vol penalty>
0.000

$$$$

  -OEChem-04052316533D

 85 93  0     1  0  0  0  0  0999 V2000
  -16.5818  -29.8731   23.2659 C   0  0  0  0  0  0  0  0  0  0  0  0
  -17.6240  -30.6792   23.7125 C   0  0  0  0  0  0  0  0  0  0  0  0
  -28.5028  -20.5975   21.5536 C   0  0  0  0  0  0  0  0  0  0  0  0
  -30.6592  -21.6832   21.6459 C   0  0  0  0  0  0  0  0  0  0  0  0
  -16.8463  -28.5821   22.8107 C   0  0  0  0  0  0  0  0  0  0  0  0
  -18.9314  -30.1943   23.7051 C   0  0  0  0  0  0  0  0  0  0  0  0
  -25.6934  -32.3851   22.8157 C   0  0  0  0  0  0  0  0  0  0  0  0
  -32.0139  -30.8705   24.0645 C   0  0  0  0  0  0  0  0  0  0  0  0
  -33.2040  -30.9834   24.7831 C   0  0  0  0  0  0  0  0  0  0  0  0
  -28.1620  -21.3688   20.4426 C   0  0  0  0  0  0  0  0  0  0  0  0
  -30.3184  -22.4545   20.5348 C   0  0  0  0  0  0  0  0  0  0  0  0
  -26.9348  -32.3320   23.4481 C   0  0  0  0  0  0  0  0  0  0  0  0
  -30.1622  -22.0577   17.1824 C   0  0  0  0  0  0  0  0  0  0  0  0
  -31.1152  -22.1941   16.1730 C   0  0  0  0  0  0  0  0  0  0  0  0
  -27.2828  -30.1141   22.5653 C   0  0  0  0  0  0  0  0  0  0  0  0
  -31.1387  -29.3758   25.7487 C   0  0  0  0  0  0  0  0  0  0  0  0
  -31.1102  -24.5890   16.4918 C   0  0  0  0  0  0  0  0  0  0  0  0
  -29.7514  -20.7547   22.1554 C   0  0  0  0  0  0  0  0  0  0  0  0
  -30.7371  -18.7013   23.3042 C   0  0  0  0  0  0  0  0  0  0  0  0
  -18.1588  -28.0846   22.7887 C   0  0  0  0  0  0  0  0  0  0  0  0
  -25.2319  -31.2971   22.0611 C   0  0  0  0  0  0  0  0  0  0  0  0
  -19.2136  -28.8950   23.2504 C   0  0  0  0  0  0  0  0  0  0  0  0
  -26.0363  -30.1570   21.9223 C   0  0  0  0  0  0  0  0  0  0  0  0
  -30.9812  -30.0667   24.5473 C   0  0  0  0  0  0  0  0  0  0  0  0
  -33.3615  -30.2924   25.9845 C   0  0  0  0  0  0  0  0  0  0  0  0
  -32.3289  -29.4886   26.4674 C   0  0  0  0  0  0  0  0  0  0  0  0
  -29.0698  -22.2973   19.9331 C   0  0  0  0  0  0  0  0  0  0  0  0
  -27.7285  -31.1952   23.3253 C   0  0  0  0  0  0  0  0  0  0  0  0
  -29.6832  -23.1870   17.8464 C   0  0  0  0  0  0  0  0  0  0  0  0
  -31.5893  -23.4597   15.8277 C   0  0  0  0  0  0  0  0  0  0  0  0
  -30.1572  -24.4526   17.5011 C   0  0  0  0  0  0  0  0  0  0  0  0
  -30.1039  -19.9587   23.3035 C   0  0  0  0  0  0  0  0  0  0  0  0
  -30.8466  -18.3728   24.6333 C   0  0  0  0  0  0  0  0  0  0  0  0
  -31.1862  -17.9019   22.2019 C   0  0  0  0  0  0  0  0  0  0  0  0
  -22.7460  -29.3257   22.2558 C   0  0  0  0  0  0  0  0  0  0  0  0
  -23.8723  -28.2504   19.4101 C   0  0  0  0  0  0  0  0  0  0  0  0
  -26.5229  -27.8996   17.2892 C   0  0  0  0  0  0  0  0  0  0  0  0
  -31.0551  -21.6502   29.6399 C   0  0  0  0  0  0  0  0  0  0  0  0
  -18.3897  -26.6658   22.3321 C   0  0  0  0  0  0  0  0  0  0  0  0
  -23.9021  -31.3806   21.3632 C   0  0  0  0  0  0  0  0  0  0  0  0
  -25.5955  -28.9699   21.1067 C   0  0  0  0  0  0  0  0  0  0  0  0
  -19.8494  -26.3610   22.0055 C   0  0  0  0  0  0  0  0  0  0  0  0
  -28.7120  -19.0869   28.8551 C   0  0  0  0  0  0  0  0  0  0  0  0
  -20.7643  -26.8899   23.1056 C   0  0  0  0  0  0  0  0  0  0  0  0
  -28.8601  -18.9062   27.3434 C   0  0  0  0  0  0  0  0  0  0  0  0
  -28.8676  -20.5493   29.2667 C   0  0  0  0  0  0  0  0  0  0  0  0
  -30.2542  -21.0161   27.2834 C   0  0  0  0  0  0  0  0  0  0  0  0
  -20.6482  -28.4136   23.2346 C   0  0  1  0  0  0  0  0  0  0  0  0
  -23.3082  -30.0123   21.0432 C   0  0  1  0  0  0  0  0  0  0  0  0
  -30.1606  -19.5503   26.8265 C   0  0  2  0  0  0  0  0  0  0  0  0
  -34.6452  -30.4279   26.7357 C   0  0  0  0  0  0  0  0  0  0  0  0
  -27.1436  -26.9444   15.0532 C   0  0  0  0  0  0  0  0  0  0  0  0
  -23.8646  -25.4447   20.6093 C   0  0  0  0  0  0  0  0  0  0  0  0
  -25.3469  -24.7125   18.7292 C   0  0  0  0  0  0  0  0  0  0  0  0
  -23.0552  -25.5716   18.2464 C   0  0  0  0  0  0  0  0  0  0  0  0
  -27.2977  -30.5561   16.2397 C   0  0  0  0  0  0  0  0  0  0  0  0
  -32.4750  -28.7393   27.7510 C   0  0  0  0  0  0  0  0  0  0  0  0
  -29.7012  -29.9451   23.7739 C   0  0  0  0  0  0  0  0  0  1  0  0
  -32.7432  -27.2338   27.5791 C   0  0  0  0  0  0  0  0  0  0  0  0
  -32.8192  -26.4874   28.9148 C   0  0  0  0  0  0  0  0  0  0  0  0
  -33.0606  -24.9910   28.7006 C   0  0  0  0  0  0  0  0  0  0  0  0
  -33.0972  -24.2389   30.0343 C   0  0  0  0  0  0  0  0  0  0  0  0
  -33.2769  -22.7351   29.8542 C   0  0  0  0  0  0  0  0  0  0  0  0
  -24.8551  -27.1875   18.9821 C   0  0  1  0  0  0  0  0  0  0  0  0
  -26.6684  -28.1785   15.8041 C   0  0  2  0  0  0  0  0  0  0  0  0
  -24.2882  -25.7505   19.1588 C   0  0  0  0  0  0  0  0  0  0  0  0
  -29.8301  -20.3988   24.5345 N   0  0  0  0  0  0  0  0  0  0  0  0
  -30.2935  -19.4126   25.3211 N   0  0  0  0  0  0  0  0  0  0  0  0
  -24.2846  -29.0973   20.4487 N   0  0  0  0  0  0  0  0  0  0  0  0
  -30.1215  -21.0998   28.7463 N   0  0  0  0  0  0  0  0  0  0  0  0
  -31.3610  -17.2987   25.2690 N   0  0  0  0  0  0  0  0  0  0  0  0
  -30.9957  -18.3893   20.9017 N   0  0  0  0  0  0  0  0  0  0  0  0
  -21.3906  -29.0682   22.1787 N   0  0  0  0  0  0  0  0  0  0  0  0
  -25.2392  -27.5141   17.6131 N   0  0  0  0  0  0  0  0  0  0  0  0
  -32.2195  -22.1441   29.0646 N   0  0  0  0  0  0  0  0  0  0  0  0
  -27.6521  -29.2747   15.5769 N   0  3  0  0  0  0  0  0  0  0  0  0
  -31.7254  -16.7810   22.3645 O   0  0  0  0  0  0  0  0  0  0  0  0
  -23.4874  -29.0486   23.1913 O   0  0  0  0  0  0  0  0  0  0  0  0
  -22.7819  -28.3311   18.8391 O   0  0  0  0  0  0  0  0  0  0  0  0
  -27.4556  -28.0088   18.0820 O   0  0  0  0  0  0  0  0  0  0  0  0
  -30.8674  -21.6931   30.8605 O   0  0  0  0  0  0  0  0  0  0  0  0
  -28.7376  -23.0500   18.8488 O   0  0  0  0  0  0  0  0  0  0  0  0
  -28.9403  -31.1405   23.9421 O   0  0  0  0  0  0  0  0  0  1  0  0
  -32.5056  -23.5903   14.8595 F   0  0  0  0  0  0  0  0  0  0  0  0
  -29.7016  -25.5411   18.1363 F   0  0  0  0  0  0  0  0  0  0  0  0
  1  2  1  0  0  0  0
  1  5  2  0  0  0  0
  2  6  2  0  0  0  0
  3 10  2  0  0  0  0
  3 18  1  0  0  0  0
  4 11  1  0  0  0  0
  4 18  2  0  0  0  0
  5 20  1  0  0  0  0
  6 22  1  0  0  0  0
  7 12  2  0  0  0  0
  7 21  1  0  0  0  0
  8  9  2  0  0  0  0
  8 24  1  0  0  0  0
  9 25  1  0  0  0  0
 10 27  1  0  0  0  0
 11 27  2  0  0  0  0
 12 28  1  0  0  0  0
 13 14  2  0  0  0  0
 13 29  1  0  0  0  0
 14 30  1  0  0  0  0
 15 23  1  0  0  0  0
 15 28  2  0  0  0  0
 16 24  2  0  0  0  0
 16 26  1  0  0  0  0
 17 30  2  0  0  0  0
 17 31  1  0  0  0  0
 18 32  1  0  0  0  0
 19 32  1  0  0  0  0
 19 33  2  0  0  0  0
 19 34  1  0  0  0  0
 20 22  2  0  0  0  0
 20 39  1  0  0  0  0
 21 23  2  0  0  0  0
 21 40  1  0  0  0  0
 22 48  1  0  0  0  0
 23 41  1  0  0  0  0
 24 58  1  0  0  0  0
 25 26  2  0  0  0  0
 25 51  1  0  0  0  0
 26 57  1  0  0  0  0
 27 82  1  0  0  0  0
 28 83  1  0  0  0  0
 29 31  2  0  0  0  0
 29 82  1  0  0  0  0
 30 84  1  0  0  0  0
 31 85  1  0  0  0  0
 32 67  2  0  0  0  0
 33 68  1  0  0  0  0
 33 71  1  0  0  0  0
 34 72  1  0  0  0  0
 34 77  2  0  0  0  0
 35 49  1  0  0  0  0
 35 73  1  0  0  0  0
 35 78  2  0  0  0  0
 36 64  1  0  0  0  0
 36 69  1  0  0  0  0
 36 79  2  0  0  0  0
 37 65  1  0  0  0  0
 37 74  1  0  0  0  0
 37 80  2  0  0  0  0
 38 70  1  0  0  0  0
 38 75  1  0  0  0  0
 38 81  2  0  0  0  0
 39 42  1  0  0  0  0
 40 49  1  0  0  0  0
 41 69  1  0  0  0  0
 42 44  1  0  0  0  0
 43 45  1  0  0  0  0
 43 46  1  0  0  0  0
 44 48  1  0  0  0  0
 45 50  1  0  0  0  0
 46 70  1  0  0  0  0
 47 50  1  0  0  0  0
 47 70  1  0  0  0  0
 48 73  1  0  0  0  0
 49 69  1  0  0  0  0
 50 68  1  0  0  0  0
 52 65  1  0  0  0  0
 53 66  1  0  0  0  0
 54 66  1  0  0  0  0
 55 66  1  0  0  0  0
 56 76  1  0  0  0  0
 57 59  1  0  0  0  0
 58 83  1  0  0  0  0
 59 60  1  0  0  0  0
 60 61  1  0  0  0  0
 61 62  1  0  0  0  0
 62 63  1  0  0  0  0
 63 75  1  0  0  0  0
 64 66  1  0  0  0  0
 64 74  1  0  0  0  0
 65 76  1  0  0  0  0
 67 68  1  0  0  0  0
M  CHG  1  76   1
M  ISO  4  38 100  58 101  75 100  83 101
M  END
> <Batch ID>
0035

> <Smiles>
CNC(C)C(=O)NC(C(=O)N1Cc2cc([101O:1][101CH2:1]c3ccc(C)c(CCCCCC[100NH:0][100C:0](=O)N4CCCC(n5nc(-c6ccc(Oc7ccc(F)cc7F)cc6)c(C(N)=O)c5N)C4)c3)ccc2CC1C(=O)NC1CCCc2ccccc21)C(C)(C)C

> <Shape>
0.223

> <Color>
0.112

> <Negative vol penalty>
0.000

$$$$

  -OEChem-04052316533D

 87 95  0     1  0  0  0  0  0999 V2000
  -17.0813  -25.4121   24.7339 C   0  0  0  0  0  0  0  0  0  0  0  0
  -17.8880  -24.4669   24.1084 C   0  0  0  0  0  0  0  0  0  0  0  0
  -25.5941  -15.2057   21.4090 C   0  0  0  0  0  0  0  0  0  0  0  0
  -27.6230  -14.8601   20.1437 C   0  0  0  0  0  0  0  0  0  0  0  0
  -17.2458  -26.7666   24.4473 C   0  0  0  0  0  0  0  0  0  0  0  0
  -18.8590  -24.8757   23.1949 C   0  0  0  0  0  0  0  0  0  0  0  0
  -26.5538  -23.5291   23.1367 C   0  0  0  0  0  0  0  0  0  0  0  0
  -25.3180  -13.8402   21.3394 C   0  0  0  0  0  0  0  0  0  0  0  0
  -27.3469  -13.4946   20.0740 C   0  0  0  0  0  0  0  0  0  0  0  0
  -27.9479  -23.4915   23.1026 C   0  0  0  0  0  0  0  0  0  0  0  0
  -24.0670  -11.6647   19.0752 C   0  0  0  0  0  0  0  0  0  0  0  0
  -22.7638  -11.2832   18.7564 C   0  0  0  0  0  0  0  0  0  0  0  0
  -27.9840  -25.5644   21.8577 C   0  0  0  0  0  0  0  0  0  0  0  0
  -22.5898  -10.1162   20.8648 C   0  0  0  0  0  0  0  0  0  0  0  0
  -26.7466  -15.7156   20.8111 C   0  0  0  0  0  0  0  0  0  0  0  0
  -27.2205  -17.8978   22.0445 C   0  0  0  0  0  0  0  0  0  0  0  0
  -18.2258  -27.1929   23.5371 C   0  0  0  0  0  0  0  0  0  0  0  0
  -25.8693  -24.5938   22.5441 C   0  0  0  0  0  0  0  0  0  0  0  0
  -19.0359  -26.2371   22.8948 C   0  0  0  0  0  0  0  0  0  0  0  0
  -26.5881  -25.6139   21.8996 C   0  0  0  0  0  0  0  0  0  0  0  0
  -26.1944  -12.9847   20.6719 C   0  0  0  0  0  0  0  0  0  0  0  0
  -28.6612  -24.5065   22.4644 C   0  0  0  0  0  0  0  0  0  0  0  0
  -24.6318  -11.2719   20.2887 C   0  0  0  0  0  0  0  0  0  0  0  0
  -22.0252  -10.5090   19.6512 C   0  0  0  0  0  0  0  0  0  0  0  0
  -23.8931  -10.4977   21.1834 C   0  0  0  0  0  0  0  0  0  0  0  0
  -27.0320  -17.1262   20.8822 C   0  0  0  0  0  0  0  0  0  0  0  0
  -27.4623  -19.1670   21.5785 C   0  0  0  0  0  0  0  0  0  0  0  0
  -27.1807  -17.5026   23.4222 C   0  0  0  0  0  0  0  0  0  0  0  0
  -22.5592  -26.1876   21.7829 C   0  0  0  0  0  0  0  0  0  0  0  0
  -24.4815  -28.4506   22.5537 C   0  0  0  0  0  0  0  0  0  0  0  0
  -26.7884  -30.5957   23.8628 C   0  0  0  0  0  0  0  0  0  0  0  0
  -29.6215  -21.2685   16.4043 C   0  0  0  0  0  0  0  0  0  0  0  0
  -18.3345  -28.6642   23.2238 C   0  0  0  0  0  0  0  0  0  0  0  0
  -24.3660  -24.6438   22.5032 C   0  0  0  0  0  0  0  0  0  0  0  0
  -25.8083  -26.7217   21.2456 C   0  0  0  0  0  0  0  0  0  0  0  0
  -19.6379  -29.0435   22.5253 C   0  0  0  0  0  0  0  0  0  0  0  0
  -26.4817  -22.0515   17.8894 C   0  0  0  0  0  0  0  0  0  0  0  0
  -19.9367  -28.0715   21.3884 C   0  0  0  0  0  0  0  0  0  0  0  0
  -32.6500  -21.8777   21.6873 C   0  0  0  0  0  0  0  0  0  0  0  0
  -31.7288  -23.7497   20.2585 C   0  0  0  0  0  0  0  0  0  0  0  0
  -26.2837  -20.9476   18.9297 C   0  0  0  0  0  0  0  0  0  0  0  0
  -33.9505  -21.9043   20.8830 C   0  0  0  0  0  0  0  0  0  0  0  0
  -33.0299  -23.7764   19.4554 C   0  0  0  0  0  0  0  0  0  0  0  0
  -27.1680  -21.5246   16.6311 C   0  0  0  0  0  0  0  0  0  0  0  0
  -28.2411  -19.7116   17.9099 C   0  0  0  0  0  0  0  0  0  0  0  0
  -20.1168  -26.6432   21.9166 C   0  0  1  0  0  0  0  0  0  0  0  0
  -23.8067  -26.0740   22.6088 C   0  0  1  0  0  0  0  0  0  0  0  0
  -31.9547  -23.2442   21.6880 C   0  0  0  0  0  0  0  0  0  0  0  0
  -27.6031  -20.2067   19.2192 C   0  0  2  0  0  0  0  0  0  0  0  0
  -33.7697  -22.4203   19.4381 C   0  0  0  0  0  0  0  0  0  0  0  0
  -40.2787  -19.0456   17.4501 C   0  0  0  0  0  0  0  0  0  0  0  0
  -27.1223  -33.0138   24.4449 C   0  0  0  0  0  0  0  0  0  0  0  0
  -24.8612  -29.1055   19.5989 C   0  0  0  0  0  0  0  0  0  0  0  0
  -26.0831  -31.1791   20.2885 C   0  0  0  0  0  0  0  0  0  0  0  0
  -23.6883  -30.8770   20.9181 C   0  0  0  0  0  0  0  0  0  0  0  0
  -27.1972  -29.9700   26.7264 C   0  0  0  0  0  0  0  0  0  0  0  0
  -30.6330  -23.1762   22.4512 C   0  0  0  0  0  0  0  0  0  1  0  0
  -35.1575  -22.6155   18.7989 C   0  0  0  0  0  0  0  0  0  0  0  0
  -32.9975  -21.3929   18.5880 C   0  0  0  0  0  0  0  0  0  0  0  0
  -39.4974  -20.3499   17.4431 C   0  0  0  0  0  0  0  0  0  0  0  0
  -35.9629  -21.3255   18.7275 C   0  0  0  0  0  0  0  0  0  0  0  0
  -32.7870  -21.9146   17.1726 C   0  0  0  0  0  0  0  0  0  0  0  0
  -38.1085  -20.1741   18.0566 C   0  0  0  0  0  0  0  0  0  0  0  0
  -37.3380  -21.4962   18.0781 C   0  0  0  0  0  0  0  0  0  0  0  0
  -32.0724  -20.8954   16.2914 C   0  0  0  0  0  0  0  0  0  0  0  0
  -25.4591  -29.4962   22.0800 C   0  0  1  0  0  0  0  0  0  0  0  0
  -26.6814  -31.6491   24.9507 C   0  0  2  0  0  0  0  0  0  0  0  0
  -25.0317  -30.1389   20.7303 C   0  0  0  0  0  0  0  0  0  0  0  0
  -27.1442  -17.8451   19.7622 N   0  0  0  0  0  0  0  0  0  0  0  0
  -27.4058  -19.0818   20.2185 N   0  0  0  0  0  0  0  0  0  0  0  0
  -24.6989  -27.1378   22.1178 N   0  0  0  0  0  0  0  0  0  0  0  0
  -28.4135  -20.8342   16.9747 N   0  0  0  0  0  0  0  0  0  0  0  0
  -27.7155  -20.3365   22.2036 N   0  0  0  0  0  0  0  0  0  0  0  0
  -28.3696  -17.0758   24.0294 N   0  0  0  0  0  0  0  0  0  0  0  0
  -21.4256  -26.4866   22.5142 N   0  0  0  0  0  0  0  0  0  0  0  0
  -25.6017  -30.4481   23.1764 N   0  0  0  0  0  0  0  0  0  0  0  0
  -30.7557  -20.5635   16.7881 N   0  0  0  0  0  0  0  0  0  0  0  0
  -27.5363  -31.2805   26.1145 N   0  3  0  0  0  0  0  0  0  0  0  0
  -26.1190  -17.5116   24.0901 O   0  0  0  0  0  0  0  0  0  0  0  0
  -22.6197  -26.0182   20.5707 O   0  0  0  0  0  0  0  0  0  0  0  0
  -23.5464  -28.7866   23.2857 O   0  0  0  0  0  0  0  0  0  0  0  0
  -27.8224  -29.9694   23.6415 O   0  0  0  0  0  0  0  0  0  0  0  0
  -29.6852  -22.2178   15.6158 O   0  0  0  0  0  0  0  0  0  0  0  0
  -25.9255  -11.6521   20.6040 O   0  0  0  0  0  0  0  0  0  0  0  0
  -30.0223  -24.4659   22.4387 O   0  0  0  0  0  0  0  0  0  1  0  0
  -20.7731  -10.1441   19.3457 F   0  0  0  0  0  0  0  0  0  0  0  0
  -24.4298  -10.1183   22.3513 F   0  0  0  0  0  0  0  0  0  0  0  0
  1  2  1  0  0  0  0
  1  5  2  0  0  0  0
  2  6  2  0  0  0  0
  3  8  2  0  0  0  0
  3 15  1  0  0  0  0
  4  9  1  0  0  0  0
  4 15  2  0  0  0  0
  5 17  1  0  0  0  0
  6 19  1  0  0  0  0
  7 10  2  0  0  0  0
  7 18  1  0  0  0  0
  8 21  1  0  0  0  0
  9 21  2  0  0  0  0
 10 22  1  0  0  0  0
 11 12  2  0  0  0  0
 11 23  1  0  0  0  0
 12 24  1  0  0  0  0
 13 20  1  0  0  0  0
 13 22  2  0  0  0  0
 14 24  2  0  0  0  0
 14 25  1  0  0  0  0
 15 26  1  0  0  0  0
 16 26  1  0  0  0  0
 16 27  2  0  0  0  0
 16 28  1  0  0  0  0
 17 19  2  0  0  0  0
 17 33  1  0  0  0  0
 18 20  2  0  0  0  0
 18 34  1  0  0  0  0
 19 46  1  0  0  0  0
 20 35  1  0  0  0  0
 21 84  1  0  0  0  0
 22 85  1  0  0  0  0
 23 25  2  0  0  0  0
 23 84  1  0  0  0  0
 24 86  1  0  0  0  0
 25 87  1  0  0  0  0
 26 69  2  0  0  0  0
 27 70  1  0  0  0  0
 27 73  1  0  0  0  0
 28 74  1  0  0  0  0
 28 79  2  0  0  0  0
 29 47  1  0  0  0  0
 29 75  1  0  0  0  0
 29 80  2  0  0  0  0
 30 66  1  0  0  0  0
 30 71  1  0  0  0  0
 30 81  2  0  0  0  0
 31 67  1  0  0  0  0
 31 76  1  0  0  0  0
 31 82  2  0  0  0  0
 32 72  1  0  0  0  0
 32 77  1  0  0  0  0
 32 83  2  0  0  0  0
 33 36  1  0  0  0  0
 34 47  1  0  0  0  0
 35 71  1  0  0  0  0
 36 38  1  0  0  0  0
 37 41  1  0  0  0  0
 37 44  1  0  0  0  0
 38 46  1  0  0  0  0
 39 42  1  0  0  0  0
 39 48  1  0  0  0  0
 40 43  1  0  0  0  0
 40 48  1  0  0  0  0
 41 49  1  0  0  0  0
 42 50  1  0  0  0  0
 43 50  1  0  0  0  0
 44 72  1  0  0  0  0
 45 49  1  0  0  0  0
 45 72  1  0  0  0  0
 46 75  1  0  0  0  0
 47 71  1  0  0  0  0
 48 57  1  0  0  0  0
 49 70  1  0  0  0  0
 50 58  1  0  0  0  0
 50 59  1  0  0  0  0
 51 60  1  0  0  0  0
 52 67  1  0  0  0  0
 53 68  1  0  0  0  0
 54 68  1  0  0  0  0
 55 68  1  0  0  0  0
 56 78  1  0  0  0  0
 57 85  1  0  0  0  0
 58 61  1  0  0  0  0
 59 62  1  0  0  0  0
 60 63  1  0  0  0  0
 61 64  1  0  0  0  0
 62 65  1  0  0  0  0
 63 64  1  0  0  0  0
 65 77  1  0  0  0  0
 66 68  1  0  0  0  0
 66 76  1  0  0  0  0
 67 78  1  0  0  0  0
 69 70  1  0  0  0  0
M  CHG  1  78   1
M  ISO  4  32 100  57 101  77 100  85 101
M  END
> <Batch ID>
0035

> <Smiles>
CCCCCCC1(CCC[100NH:0][100C:0](=O)N2CCCC(n3nc(-c4ccc(Oc5ccc(F)cc5F)cc4)c(C(N)=O)c3N)C2)CCC([101CH2:1][101O:1]c2ccc3c(c2)CN(C(=O)C(NC(=O)C(C)NC)C(C)(C)C)C(C(=O)NC2CCCc4ccccc42)C3)CC1

> <Shape>
0.209

> <Color>
0.056

> <Negative vol penalty>
0.000

$$$$

  -OEChem-04052316533D

 82 90  0     1  0  0  0  0  0999 V2000
  -24.9384  -23.7730   19.5135 C   0  0  0  0  0  0  0  0  0  0  0  0
  -25.2549  -22.6049   18.8292 C   0  0  0  0  0  0  0  0  0  0  0  0
  -25.5907  -27.6585   20.5034 C   0  0  0  0  0  0  0  0  0  0  0  0
  -26.7583  -27.5728   22.6169 C   0  0  0  0  0  0  0  0  0  0  0  0
  -24.6832  -23.7270   20.8824 C   0  0  0  0  0  0  0  0  0  0  0  0
  -25.3047  -21.3887   19.5112 C   0  0  0  0  0  0  0  0  0  0  0  0
  -26.8870  -15.8288   17.5845 C   0  0  0  0  0  0  0  0  0  0  0  0
  -24.4399  -28.0991   21.1570 C   0  0  0  0  0  0  0  0  0  0  0  0
  -25.6075  -28.0134   23.2705 C   0  0  0  0  0  0  0  0  0  0  0  0
  -28.0425  -15.0512   17.5228 C   0  0  0  0  0  0  0  0  0  0  0  0
  -21.9446  -26.7450   22.9911 C   0  0  0  0  0  0  0  0  0  0  0  0
  -20.7326  -26.1514   22.6387 C   0  0  0  0  0  0  0  0  0  0  0  0
  -27.4119  -13.9616   19.5805 C   0  0  0  0  0  0  0  0  0  0  0  0
  -31.6363  -16.8899   21.7959 C   0  0  0  0  0  0  0  0  0  0  0  0
  -19.8742  -28.3060   21.9618 C   0  0  0  0  0  0  0  0  0  0  0  0
  -32.7711  -17.1645   19.7238 C   0  0  0  0  0  0  0  0  0  0  0  0
  -26.7499  -27.3953   21.2334 C   0  0  0  0  0  0  0  0  0  0  0  0
  -28.9692  -27.7345   20.0221 C   0  0  0  0  0  0  0  0  0  0  0  0
  -24.7424  -22.5110   21.5831 C   0  0  0  0  0  0  0  0  0  0  0  0
  -25.9891  -15.6860   18.6522 C   0  0  0  0  0  0  0  0  0  0  0  0
  -25.0269  -21.3179   20.8883 C   0  0  0  0  0  0  0  0  0  0  0  0
  -26.2444  -14.7367   19.6521 C   0  0  0  0  0  0  0  0  0  0  0  0
  -32.2763  -17.7275   20.8892 C   0  0  0  0  0  0  0  0  0  0  0  0
  -31.5124  -15.5341   21.5135 C   0  0  0  0  0  0  0  0  0  0  0  0
  -24.4483  -28.2766   22.5405 C   0  0  0  0  0  0  0  0  0  0  0  0
  -28.3066  -14.1195   18.5224 C   0  0  0  0  0  0  0  0  0  0  0  0
  -22.1215  -28.1191   22.8290 C   0  0  0  0  0  0  0  0  0  0  0  0
  -19.6974  -26.9319   22.1240 C   0  0  0  0  0  0  0  0  0  0  0  0
  -21.0863  -28.8996   22.3143 C   0  0  0  0  0  0  0  0  0  0  0  0
  -27.9388  -26.9396   20.5588 C   0  0  0  0  0  0  0  0  0  0  0  0
  -32.0412  -15.0693   20.3201 C   0  0  0  0  0  0  0  0  0  0  0  0
  -29.8598  -26.8318   19.4944 C   0  0  0  0  0  0  0  0  0  0  0  0
  -29.1089  -29.1613   20.0023 C   0  0  0  0  0  0  0  0  0  0  0  0
  -24.9246  -17.5967   20.9587 C   0  0  0  0  0  0  0  0  0  0  0  0
  -22.9725  -15.0871   21.6016 C   0  0  0  0  0  0  0  0  0  0  0  0
  -22.4042  -11.7289   21.3854 C   0  0  0  0  0  0  0  0  0  0  0  0
  -31.0189  -21.2022   20.8432 C   0  0  0  0  0  0  0  0  0  0  0  0
  -24.4497  -22.5174   23.0628 C   0  0  0  0  0  0  0  0  0  0  0  0
  -24.7337  -16.5136   18.6901 C   0  0  0  0  0  0  0  0  0  0  0  0
  -25.3022  -14.5305   20.8089 C   0  0  0  0  0  0  0  0  0  0  0  0
  -24.9586  -21.2683   23.7749 C   0  0  0  0  0  0  0  0  0  0  0  0
  -30.0597  -22.4482   17.5836 C   0  0  0  0  0  0  0  0  0  0  0  0
  -24.5112  -20.0232   23.0238 C   0  0  0  0  0  0  0  0  0  0  0  0
  -29.5019  -23.8279   17.9375 C   0  0  0  0  0  0  0  0  0  0  0  0
  -29.7016  -21.4170   18.6498 C   0  0  0  0  0  0  0  0  0  0  0  0
  -29.5726  -23.1621   20.3853 C   0  0  0  0  0  0  0  0  0  0  0  0
  -25.1169  -19.9882   21.6150 C   0  0  1  0  0  0  0  0  0  0  0  0
  -24.1476  -16.6462   20.0924 C   0  0  1  0  0  0  0  0  0  0  0  0
  -29.9201  -24.2541   19.3572 C   0  0  2  0  0  0  0  0  0  0  0  0
  -30.8294  -14.6308   22.4814 C   0  0  0  0  0  0  0  0  0  0  0  0
  -20.7404   -9.9667   22.0360 C   0  0  0  0  0  0  0  0  0  0  0  0
  -23.9802  -15.2016   24.4794 C   0  0  0  0  0  0  0  0  0  0  0  0
  -23.0491  -12.9031   24.8233 C   0  0  0  0  0  0  0  0  0  0  0  0
  -21.5238  -14.7918   24.2497 C   0  0  0  0  0  0  0  0  0  0  0  0
  -21.8985  -10.9994   18.5621 C   0  0  0  0  0  0  0  0  0  0  0  0
  -32.4244  -19.1822   21.1610 C   0  0  0  0  0  0  0  0  0  0  0  0
  -31.9357  -13.6089   19.9603 C   0  0  0  0  0  0  0  0  0  0  0  0
  -31.8333  -13.3512   18.4554 C   0  0  0  0  0  0  0  0  0  0  0  0
  -30.5735  -13.9354   17.8271 C   0  0  0  0  0  0  0  0  0  1  0  0
  -23.0628  -13.8585   22.4742 C   0  0  1  0  0  0  0  0  0  0  0  0
  -21.1812  -10.9400   20.9539 C   0  0  2  0  0  0  0  0  0  0  0  0
  -22.9229  -14.1938   23.9860 C   0  0  0  0  0  0  0  0  0  0  0  0
  -32.6696  -15.8524   19.4148 N   0  0  0  0  0  0  0  0  0  0  0  0
  -28.1536  -25.6325   20.3877 N   0  0  0  0  0  0  0  0  0  0  0  0
  -29.3292  -25.5991   19.7374 N   0  0  0  0  0  0  0  0  0  0  0  0
  -24.0913  -15.3680   20.8047 N   0  0  0  0  0  0  0  0  0  0  0  0
  -30.1433  -21.8748   19.9747 N   0  0  0  0  0  0  0  0  0  0  0  0
  -31.0372  -26.9802   18.8508 N   0  0  0  0  0  0  0  0  0  0  0  0
  -28.1018  -29.9394   20.5894 N   0  0  0  0  0  0  0  0  0  0  0  0
  -24.5081  -18.9110   20.8660 N   0  0  0  0  0  0  0  0  0  0  0  0
  -22.0579  -12.9271   21.9732 N   0  0  0  0  0  0  0  0  0  0  0  0
  -31.5094  -19.9866   20.3822 N   0  0  0  0  0  0  0  0  0  0  0  0
  -21.4753  -10.1645   19.7157 N   0  3  0  0  0  0  0  0  0  0  0  0
  -30.0894  -29.7300   19.4650 O   0  0  0  0  0  0  0  0  0  0  0  0
  -25.8337  -17.1691   21.6604 O   0  0  0  0  0  0  0  0  0  0  0  0
  -21.9443  -15.7682   21.6209 O   0  0  0  0  0  0  0  0  0  0  0  0
  -23.5520  -11.3212   21.2211 O   0  0  0  0  0  0  0  0  0  0  0  0
  -31.3441  -21.6542   21.9464 O   0  0  0  0  0  0  0  0  0  0  0  0
  -23.3256  -28.7067   23.1786 O   0  0  0  0  0  0  0  0  0  0  0  0
  -29.4341  -13.3597   18.4650 O   0  0  0  0  0  0  0  0  0  1  0  0
  -18.5340  -26.3615   21.7842 F   0  0  0  0  0  0  0  0  0  0  0  0
  -21.2507  -30.2200   22.1551 F   0  0  0  0  0  0  0  0  0  0  0  0
  1  2  1  0  0  0  0
  1  5  2  0  0  0  0
  2  6  2  0  0  0  0
  3  8  2  0  0  0  0
  3 17  1  0  0  0  0
  4  9  1  0  0  0  0
  4 17  2  0  0  0  0
  5 19  1  0  0  0  0
  6 21  1  0  0  0  0
  7 10  2  0  0  0  0
  7 20  1  0  0  0  0
  8 25  1  0  0  0  0
  9 25  2  0  0  0  0
 10 26  1  0  0  0  0
 11 12  2  0  0  0  0
 11 27  1  0  0  0  0
 12 28  1  0  0  0  0
 13 22  1  0  0  0  0
 13 26  2  0  0  0  0
 14 23  2  0  0  0  0
 14 24  1  0  0  0  0
 15 28  2  0  0  0  0
 15 29  1  0  0  0  0
 16 23  1  0  0  0  0
 16 63  2  0  0  0  0
 17 30  1  0  0  0  0
 18 30  1  0  0  0  0
 18 32  2  0  0  0  0
 18 33  1  0  0  0  0
 19 21  2  0  0  0  0
 19 38  1  0  0  0  0
 20 22  2  0  0  0  0
 20 39  1  0  0  0  0
 21 47  1  0  0  0  0
 22 40  1  0  0  0  0
 23 56  1  0  0  0  0
 24 31  2  0  0  0  0
 24 50  1  0  0  0  0
 25 79  1  0  0  0  0
 26 80  1  0  0  0  0
 27 29  2  0  0  0  0
 27 79  1  0  0  0  0
 28 81  1  0  0  0  0
 29 82  1  0  0  0  0
 30 64  2  0  0  0  0
 31 57  1  0  0  0  0
 31 63  1  0  0  0  0
 32 65  1  0  0  0  0
 32 68  1  0  0  0  0
 33 69  1  0  0  0  0
 33 74  2  0  0  0  0
 34 48  1  0  0  0  0
 34 70  1  0  0  0  0
 34 75  2  0  0  0  0
 35 60  1  0  0  0  0
 35 66  1  0  0  0  0
 35 76  2  0  0  0  0
 36 61  1  0  0  0  0
 36 71  1  0  0  0  0
 36 77  2  0  0  0  0
 37 67  1  0  0  0  0
 37 72  1  0  0  0  0
 37 78  2  0  0  0  0
 38 41  1  0  0  0  0
 39 48  1  0  0  0  0
 40 66  1  0  0  0  0
 41 43  1  0  0  0  0
 42 44  1  0  0  0  0
 42 45  1  0  0  0  0
 43 47  1  0  0  0  0
 44 49  1  0  0  0  0
 45 67  1  0  0  0  0
 46 49  1  0  0  0  0
 46 67  1  0  0  0  0
 47 70  1  0  0  0  0
 48 66  1  0  0  0  0
 49 65  1  0  0  0  0
 51 61  1  0  0  0  0
 52 62  1  0  0  0  0
 53 62  1  0  0  0  0
 54 62  1  0  0  0  0
 55 73  1  0  0  0  0
 56 72  1  0  0  0  0
 57 58  1  0  0  0  0
 58 59  1  0  0  0  0
 59 80  1  0  0  0  0
 60 62  1  0  0  0  0
 60 71  1  0  0  0  0
 61 73  1  0  0  0  0
 64 65  1  0  0  0  0
M  CHG  1  73   1
M  ISO  4  37 100  59 101  72 100  80 101
M  END
> <Batch ID>
0035

> <Smiles>
CNC(C)C(=O)NC(C(=O)N1Cc2cc([101O:1][101CH2:1]CCc3ncc(C[100NH:0][100C:0](=O)N4CCCC(n5nc(-c6ccc(Oc7ccc(F)cc7F)cc6)c(C(N)=O)c5N)C4)cc3C)ccc2CC1C(=O)NC1CCCc2ccccc21)C(C)(C)C

> <Shape>
0.233

> <Color>
0.048

> <Negative vol penalty>
0.000

$$$$

  -OEChem-04052316533D

 82 90  0     1  0  0  0  0  0999 V2000
  -26.9489  -37.7351   23.8981 C   0  0  0  0  0  0  0  0  0  0  0  0
  -27.5382  -36.8990   22.9551 C   0  0  0  0  0  0  0  0  0  0  0  0
  -23.4754   -9.9511   22.0655 C   0  0  0  0  0  0  0  0  0  0  0  0
  -24.0834  -11.3503   23.9389 C   0  0  0  0  0  0  0  0  0  0  0  0
  -26.2571  -37.1877   24.9778 C   0  0  0  0  0  0  0  0  0  0  0  0
  -27.4370  -35.5150   23.0920 C   0  0  0  0  0  0  0  0  0  0  0  0
  -26.9671  -29.5371   19.1728 C   0  0  0  0  0  0  0  0  0  0  0  0
  -22.8470   -9.0598   22.9351 C   0  0  0  0  0  0  0  0  0  0  0  0
  -23.4548  -10.4590   24.8086 C   0  0  0  0  0  0  0  0  0  0  0  0
  -27.5758  -28.2907   19.0322 C   0  0  0  0  0  0  0  0  0  0  0  0
  -19.9168   -8.8627   24.6110 C   0  0  0  0  0  0  0  0  0  0  0  0
  -18.6560   -8.3865   24.2515 C   0  0  0  0  0  0  0  0  0  0  0  0
  -26.2887  -27.4586   20.8950 C   0  0  0  0  0  0  0  0  0  0  0  0
  -19.5061   -6.1251   24.2658 C   0  0  0  0  0  0  0  0  0  0  0  0
  -27.8861  -23.0008   19.2837 C   0  0  0  0  0  0  0  0  0  0  0  0
  -29.9201  -22.3396   20.9782 C   0  0  0  0  0  0  0  0  0  0  0  0
  -24.0937  -11.0963   22.5674 C   0  0  0  0  0  0  0  0  0  0  0  0
  -24.1660  -13.1286   21.0272 C   0  0  0  0  0  0  0  0  0  0  0  0
  -26.1391  -35.7964   25.1227 C   0  0  0  0  0  0  0  0  0  0  0  0
  -26.0209  -29.7570   20.1842 C   0  0  0  0  0  0  0  0  0  0  0  0
  -26.7441  -34.9485   24.1754 C   0  0  0  0  0  0  0  0  0  0  0  0
  -25.6674  -28.7079   21.0447 C   0  0  0  0  0  0  0  0  0  0  0  0
  -29.6661  -21.5059   19.9011 C   0  0  0  0  0  0  0  0  0  0  0  0
  -22.8366   -9.3138   24.3066 C   0  0  0  0  0  0  0  0  0  0  0  0
  -27.2388  -27.2521   19.8952 C   0  0  0  0  0  0  0  0  0  0  0  0
  -20.9723   -7.9701   24.7978 C   0  0  0  0  0  0  0  0  0  0  0  0
  -18.4507   -7.0177   24.0789 C   0  0  0  0  0  0  0  0  0  0  0  0
  -20.7670   -6.6013   24.6253 C   0  0  0  0  0  0  0  0  0  0  0  0
  -28.6280  -21.8499   19.0424 C   0  0  0  0  0  0  0  0  0  0  0  0
  -24.7436  -12.0171   21.6697 C   0  0  0  0  0  0  0  0  0  0  0  0
  -28.2197  -23.7676   20.3885 C   0  0  0  0  0  0  0  0  0  0  0  0
  -25.1910  -13.6705   20.2909 C   0  0  0  0  0  0  0  0  0  0  0  0
  -22.8230  -13.6267   21.0903 C   0  0  0  0  0  0  0  0  0  0  0  0
  -25.8431  -31.6783   22.7102 C   0  0  0  0  0  0  0  0  0  0  0  0
  -30.5304  -15.2982   19.9281 C   0  0  0  0  0  0  0  0  0  0  0  0
  -22.8435  -30.4640   22.9341 C   0  0  0  0  0  0  0  0  0  0  0  0
  -20.6901  -27.9133   22.2246 C   0  0  0  0  0  0  0  0  0  0  0  0
  -25.4219  -35.2508   26.3320 C   0  0  0  0  0  0  0  0  0  0  0  0
  -25.3537  -31.0996   20.3057 C   0  0  0  0  0  0  0  0  0  0  0  0
  -24.6427  -28.8867   22.1339 C   0  0  0  0  0  0  0  0  0  0  0  0
  -25.0410  -33.7783   26.2014 C   0  0  0  0  0  0  0  0  0  0  0  0
  -29.7821  -11.8705   19.1997 C   0  0  0  0  0  0  0  0  0  0  0  0
  -26.2198  -32.9669   25.6733 C   0  0  0  0  0  0  0  0  0  0  0  0
  -28.3690  -11.6864   19.7516 C   0  0  0  0  0  0  0  0  0  0  0  0
  -30.5973  -12.8300   20.0610 C   0  0  0  0  0  0  0  0  0  0  0  0
  -28.5406  -13.9824   20.8118 C   0  0  0  0  0  0  0  0  0  0  0  0
  -26.6350  -33.4425   24.2759 C   0  0  1  0  0  0  0  0  0  0  0  0
  -24.7815  -31.3588   21.6960 C   0  0  1  0  0  0  0  0  0  0  0  0
  -27.6734  -13.0442   19.9540 C   0  0  2  0  0  0  0  0  0  0  0  0
  -18.3126  -27.1885   22.5709 C   0  0  0  0  0  0  0  0  0  0  0  0
  -23.4899  -29.7332   25.8251 C   0  0  0  0  0  0  0  0  0  0  0  0
  -21.5027  -28.2104   25.8113 C   0  0  0  0  0  0  0  0  0  0  0  0
  -21.1951  -30.6626   25.4722 C   0  0  0  0  0  0  0  0  0  0  0  0
  -20.1610  -27.8573   19.3132 C   0  0  0  0  0  0  0  0  0  0  0  0
  -30.4799  -20.2821   19.6732 C   0  0  0  0  0  0  0  0  0  0  0  0
  -27.4393  -25.0157   20.6792 C   0  0  0  0  0  0  0  0  0  1  0  0
  -29.7395  -16.5639   20.1441 C   0  0  0  0  0  0  0  0  0  0  0  0
  -30.5511  -17.7868   19.7568 C   0  0  0  0  0  0  0  0  0  0  0  0
  -22.2203  -29.2747   23.6243 C   0  0  1  0  0  0  0  0  0  0  0  0
  -19.2844  -27.9118   21.6514 C   0  0  2  0  0  0  0  0  0  0  0  0
  -22.1228  -29.4671   25.1640 C   0  0  0  0  0  0  0  0  0  0  0  0
  -29.2211  -23.4656   21.2450 N   0  0  0  0  0  0  0  0  0  0  0  0
  -26.0353  -11.8608   21.3679 N   0  0  0  0  0  0  0  0  0  0  0  0
  -26.2778  -12.8812   20.5276 N   0  0  0  0  0  0  0  0  0  0  0  0
  -24.0229  -30.2195   22.2164 N   0  0  0  0  0  0  0  0  0  0  0  0
  -29.8926  -14.0995   20.2481 N   0  0  0  0  0  0  0  0  0  0  0  0
  -25.2597  -14.7403   19.4704 N   0  0  0  0  0  0  0  0  0  0  0  0
  -21.8966  -12.9500   21.8954 N   0  0  0  0  0  0  0  0  0  0  0  0
  -25.7210  -32.9330   23.2762 N   0  0  0  0  0  0  0  0  0  0  0  0
  -20.9373  -29.0480   22.9679 N   0  0  0  0  0  0  0  0  0  0  0  0
  -19.2671  -27.2353   20.3236 N   0  3  0  0  0  0  0  0  0  0  0  0
  -29.7714  -19.0207   20.0325 N   0  3  0  0  0  0  0  0  0  0  0  0
  -22.4513  -14.6322   20.4389 O   0  0  0  0  0  0  0  0  0  0  0  0
  -26.7080  -30.8475   22.9617 O   0  0  0  0  0  0  0  0  0  0  0  0
  -31.6794  -15.3745   19.4852 O   0  0  0  0  0  0  0  0  0  0  0  0
  -22.2998  -31.5677   23.0224 O   0  0  0  0  0  0  0  0  0  0  0  0
  -21.4876  -26.9976   22.0351 O   0  0  0  0  0  0  0  0  0  0  0  0
  -22.2232   -8.4444   25.1555 O   0  0  0  0  0  0  0  0  0  0  0  0
  -27.8320  -26.0347   19.7606 O   0  0  0  0  0  0  0  0  0  1  0  0
  -17.2395   -6.5604   23.7352 F   0  0  0  0  0  0  0  0  0  0  0  0
  -21.7768   -5.7388   24.8046 F   0  0  0  0  0  0  0  0  0  0  0  0
  -28.3369  -21.0814   17.9839 F   0  0  0  0  0  0  0  0  0  0  0  0
  1  2  1  0  0  0  0
  1  5  2  0  0  0  0
  2  6  2  0  0  0  0
  3  8  2  0  0  0  0
  3 17  1  0  0  0  0
  4  9  1  0  0  0  0
  4 17  2  0  0  0  0
  5 19  1  0  0  0  0
  6 21  1  0  0  0  0
  7 10  2  0  0  0  0
  7 20  1  0  0  0  0
  8 24  1  0  0  0  0
  9 24  2  0  0  0  0
 10 25  1  0  0  0  0
 11 12  2  0  0  0  0
 11 26  1  0  0  0  0
 12 27  1  0  0  0  0
 13 22  1  0  0  0  0
 13 25  2  0  0  0  0
 14 27  2  0  0  0  0
 14 28  1  0  0  0  0
 15 29  2  0  0  0  0
 15 31  1  0  0  0  0
 16 23  2  0  0  0  0
 16 62  1  0  0  0  0
 17 30  1  0  0  0  0
 18 30  1  0  0  0  0
 18 32  2  0  0  0  0
 18 33  1  0  0  0  0
 19 21  2  0  0  0  0
 19 38  1  0  0  0  0
 20 22  2  0  0  0  0
 20 39  1  0  0  0  0
 21 47  1  0  0  0  0
 22 40  1  0  0  0  0
 23 29  1  0  0  0  0
 23 55  1  0  0  0  0
 24 78  1  0  0  0  0
 25 79  1  0  0  0  0
 26 28  2  0  0  0  0
 26 78  1  0  0  0  0
 27 80  1  0  0  0  0
 28 81  1  0  0  0  0
 29 82  1  0  0  0  0
 30 63  2  0  0  0  0
 31 56  1  0  0  0  0
 31 62  2  0  0  0  0
 32 64  1  0  0  0  0
 32 67  1  0  0  0  0
 33 68  1  0  0  0  0
 33 73  2  0  0  0  0
 34 48  1  0  0  0  0
 34 69  1  0  0  0  0
 34 74  2  0  0  0  0
 35 57  1  0  0  0  0
 35 66  1  0  0  0  0
 35 75  2  0  0  0  0
 36 59  1  0  0  0  0
 36 65  1  0  0  0  0
 36 76  2  0  0  0  0
 37 60  1  0  0  0  0
 37 70  1  0  0  0  0
 37 77  2  0  0  0  0
 38 41  1  0  0  0  0
 39 48  1  0  0  0  0
 40 65  1  0  0  0  0
 41 43  1  0  0  0  0
 42 44  1  0  0  0  0
 42 45  1  0  0  0  0
 43 47  1  0  0  0  0
 44 49  1  0  0  0  0
 45 66  1  0  0  0  0
 46 49  1  0  0  0  0
 46 66  1  0  0  0  0
 47 69  1  0  0  0  0
 48 65  1  0  0  0  0
 49 64  1  0  0  0  0
 50 60  1  0  0  0  0
 51 61  1  0  0  0  0
 52 61  1  0  0  0  0
 53 61  1  0  0  0  0
 54 71  1  0  0  0  0
 55 72  1  0  0  0  0
 56 79  1  0  0  0  0
 57 58  1  0  0  0  0
 58 72  1  0  0  0  0
 59 61  1  0  0  0  0
 59 70  1  0  0  0  0
 60 71  1  0  0  0  0
 63 64  1  0  0  0  0
M  CHG  2  71   1  72   1
M  ISO  4  35 100  56 101  57 100  79 101
M  END
> <Batch ID>
0035

> <Smiles>
CNC(C)C(=O)NC(C(=O)N1Cc2cc([101O:1][101CH2:1]c3cc(F)c(CNC[100CH2:0][100C:0](=O)N4CCCC(n5nc(-c6ccc(Oc7ccc(F)cc7F)cc6)c(C(N)=O)c5N)C4)cn3)ccc2CC1C(=O)NC1CCCc2ccccc21)C(C)(C)C

> <Shape>
0.355

> <Color>
0.164

> <Negative vol penalty>
0.000

$$$$

  -OEChem-04052316533D

 88 96  0     1  0  0  0  0  0999 V2000
  -27.2033  -36.3459   21.4897 C   0  0  0  0  0  0  0  0  0  0  0  0
  -27.6227  -35.0196   21.4702 C   0  0  0  0  0  0  0  0  0  0  0  0
  -25.0970  -15.5902   22.7921 C   0  0  0  0  0  0  0  0  0  0  0  0
  -27.3102  -16.4672   22.3803 C   0  0  0  0  0  0  0  0  0  0  0  0
  -26.0251  -36.6937   22.1492 C   0  0  0  0  0  0  0  0  0  0  0  0
  -26.8645  -34.0403   22.1111 C   0  0  0  0  0  0  0  0  0  0  0  0
  -26.3043  -29.8667   19.2983 C   0  0  0  0  0  0  0  0  0  0  0  0
  -25.2352  -14.7298   21.7030 C   0  0  0  0  0  0  0  0  0  0  0  0
  -27.4485  -15.6068   21.2912 C   0  0  0  0  0  0  0  0  0  0  0  0
  -27.3834  -28.9857   19.2443 C   0  0  0  0  0  0  0  0  0  0  0  0
  -28.1581  -12.3439   20.7710 C   0  0  0  0  0  0  0  0  0  0  0  0
  -29.3620  -11.6512   20.6430 C   0  0  0  0  0  0  0  0  0  0  0  0
  -26.3089  -27.5786   20.8828 C   0  0  0  0  0  0  0  0  0  0  0  0
  -29.7328  -12.6928   18.4948 C   0  0  0  0  0  0  0  0  0  0  0  0
  -26.1345  -16.4589   23.1308 C   0  0  0  0  0  0  0  0  0  0  0  0
  -26.3438  -17.0896   25.5937 C   0  0  0  0  0  0  0  0  0  0  0  0
  -25.2471  -35.7168   22.7902 C   0  0  0  0  0  0  0  0  0  0  0  0
  -25.2225  -29.6155   20.1545 C   0  0  0  0  0  0  0  0  0  0  0  0
  -25.6755  -34.3756   22.7809 C   0  0  0  0  0  0  0  0  0  0  0  0
  -25.2160  -28.4567   20.9439 C   0  0  0  0  0  0  0  0  0  0  0  0
  -26.4110  -14.7381   20.9525 C   0  0  0  0  0  0  0  0  0  0  0  0
  -27.3872  -27.8429   20.0388 C   0  0  0  0  0  0  0  0  0  0  0  0
  -27.7414  -13.2110   19.7609 C   0  0  0  0  0  0  0  0  0  0  0  0
  -30.1494  -11.8257   19.5049 C   0  0  0  0  0  0  0  0  0  0  0  0
  -28.5288  -13.3855   18.6228 C   0  0  0  0  0  0  0  0  0  0  0  0
  -25.9921  -17.3483   24.2554 C   0  0  0  0  0  0  0  0  0  0  0  0
  -31.0781  -30.3037   23.7839 C   0  0  0  0  0  0  0  0  0  0  0  0
  -32.0506  -28.5155   22.7417 C   0  0  0  0  0  0  0  0  0  0  0  0
  -29.8369  -29.7348   23.6019 C   0  0  0  0  0  0  0  0  0  0  0  0
  -30.8094  -27.9461   22.5604 C   0  0  0  0  0  0  0  0  0  0  0  0
  -26.0131  -18.2415   26.2646 C   0  0  0  0  0  0  0  0  0  0  0  0
  -26.9183  -15.9131   26.1783 C   0  0  0  0  0  0  0  0  0  0  0  0
  -23.9288  -31.1228   22.6360 C   0  0  0  0  0  0  0  0  0  0  0  0
  -21.6909  -28.7873   22.3906 C   0  0  0  0  0  0  0  0  0  0  0  0
  -20.8918  -25.6391   21.3434 C   0  0  0  0  0  0  0  0  0  0  0  0
  -26.0855  -23.6985   26.6683 C   0  0  0  0  0  0  0  0  0  0  0  0
  -24.0058  -36.1479   23.5304 C   0  0  0  0  0  0  0  0  0  0  0  0
  -24.0537  -30.5620   20.1813 C   0  0  0  0  0  0  0  0  0  0  0  0
  -24.0696  -28.1308   21.8647 C   0  0  0  0  0  0  0  0  0  0  0  0
  -23.0647  -34.9936   23.8656 C   0  0  0  0  0  0  0  0  0  0  0  0
  -23.3523  -22.2761   24.7699 C   0  0  0  0  0  0  0  0  0  0  0  0
  -23.8454  -33.8211   24.4509 C   0  0  0  0  0  0  0  0  0  0  0  0
  -23.8319  -20.8361   24.5785 C   0  0  0  0  0  0  0  0  0  0  0  0
  -24.5141  -23.2616   24.6852 C   0  0  0  0  0  0  0  0  0  0  0  0
  -26.1101  -21.5438   25.4438 C   0  0  0  0  0  0  0  0  0  0  0  0
  -24.8675  -33.2809   23.4435 C   0  0  1  0  0  0  0  0  0  0  0  0
  -23.2413  -30.4718   21.4693 C   0  0  1  0  0  0  0  0  0  0  0  0
  -24.9854  -20.4971   25.5411 C   0  0  2  0  0  0  0  0  0  0  0  0
  -31.2381  -31.6195   24.4654 C   0  0  0  0  0  0  0  0  0  0  0  0
  -33.2918  -27.8420   22.2646 C   0  0  0  0  0  0  0  0  0  0  0  0
  -18.9976  -23.9932   21.3173 C   0  0  0  0  0  0  0  0  0  0  0  0
  -22.1778  -28.1838   25.3417 C   0  0  0  0  0  0  0  0  0  0  0  0
  -21.0119  -25.9926   25.0141 C   0  0  0  0  0  0  0  0  0  0  0  0
  -19.7757  -28.1281   24.6479 C   0  0  0  0  0  0  0  0  0  0  0  0
  -20.8361  -25.5739   18.3851 C   0  0  0  0  0  0  0  0  0  0  0  0
  -28.5957  -30.4090   24.0779 C   0  0  0  0  0  0  0  0  0  0  0  0
  -30.6480  -26.6148   21.8711 C   0  0  0  0  0  0  0  0  0  0  0  0
  -27.4718  -29.4466   24.5047 C   0  0  0  0  0  0  0  0  0  0  0  0
  -30.7932  -26.6873   20.3496 C   0  0  0  0  0  0  0  0  0  0  0  0
  -27.8643  -28.5674   25.6964 C   0  0  0  0  0  0  0  0  0  0  0  0
  -26.7141  -27.6445   26.1070 C   0  0  0  0  0  0  0  0  0  0  0  0
  -27.0928  -26.7938   27.3229 C   0  0  0  0  0  0  0  0  0  0  0  0
  -25.9475  -25.9047   27.7956 C   0  0  0  0  0  0  0  0  0  0  0  0
  -29.7180  -27.5355   19.6802 C   0  0  0  0  0  0  0  0  0  1  0  0
  -21.5221  -27.4034   22.9695 C   0  0  1  0  0  0  0  0  0  0  0  0
  -19.7032  -25.1088   20.5620 C   0  0  2  0  0  0  0  0  0  0  0  0
  -21.1445  -27.4338   24.4775 C   0  0  0  0  0  0  0  0  0  0  0  0
  -25.4772  -18.5688   24.0844 N   0  0  0  0  0  0  0  0  0  0  0  0
  -32.2073  -29.7043   23.3570 N   0  0  0  0  0  0  0  0  0  0  0  0
  -29.6802  -28.5458   22.9869 N   0  0  0  0  0  0  0  0  0  0  0  0
  -25.5029  -19.0872   25.3240 N   0  0  0  0  0  0  0  0  0  0  0  0
  -22.9530  -29.0903   21.8602 N   0  0  0  0  0  0  0  0  0  0  0  0
  -25.5695  -22.8932   25.6394 N   0  0  0  0  0  0  0  0  0  0  0  0
  -26.1118  -18.6035   27.5614 N   0  0  0  0  0  0  0  0  0  0  0  0
  -27.1955  -14.8204   25.3455 N   0  0  0  0  0  0  0  0  0  0  0  0
  -24.2108  -32.4622   22.4470 N   0  0  0  0  0  0  0  0  0  0  0  0
  -20.5478  -26.7230   22.1232 N   0  0  0  0  0  0  0  0  0  0  0  0
  -25.5244  -24.9646   26.7816 N   0  0  0  0  0  0  0  0  0  0  0  0
  -20.1466  -24.5759   19.2428 N   0  3  0  0  0  0  0  0  0  0  0  0
  -27.1629  -15.8272   27.4056 O   0  0  0  0  0  0  0  0  0  0  0  0
  -24.1831  -30.4593   23.6345 O   0  0  0  0  0  0  0  0  0  0  0  0
  -20.7361  -29.5682   22.4019 O   0  0  0  0  0  0  0  0  0  0  0  0
  -22.0123  -25.1393   21.2721 O   0  0  0  0  0  0  0  0  0  0  0  0
  -26.9771  -23.3155   27.4334 O   0  0  0  0  0  0  0  0  0  0  0  0
  -26.5463  -13.8985   19.8898 O   0  0  0  0  0  0  0  0  0  0  0  0
  -28.4396  -26.9816   19.9885 O   0  0  0  0  0  0  0  0  0  1  0  0
  -31.3062  -11.1617   19.3828 F   0  0  0  0  0  0  0  0  0  0  0  0
  -28.1344  -14.2180   17.6496 F   0  0  0  0  0  0  0  0  0  0  0  0
  1  2  1  0  0  0  0
  1  5  2  0  0  0  0
  2  6  2  0  0  0  0
  3  8  2  0  0  0  0
  3 15  1  0  0  0  0
  4  9  1  0  0  0  0
  4 15  2  0  0  0  0
  5 17  1  0  0  0  0
  6 19  1  0  0  0  0
  7 10  2  0  0  0  0
  7 18  1  0  0  0  0
  8 21  1  0  0  0  0
  9 21  2  0  0  0  0
 10 22  1  0  0  0  0
 11 12  2  0  0  0  0
 11 23  1  0  0  0  0
 12 24  1  0  0  0  0
 13 20  1  0  0  0  0
 13 22  2  0  0  0  0
 14 24  2  0  0  0  0
 14 25  1  0  0  0  0
 15 26  1  0  0  0  0
 16 26  1  0  0  0  0
 16 31  2  0  0  0  0
 16 32  1  0  0  0  0
 17 19  2  0  0  0  0
 17 37  1  0  0  0  0
 18 20  2  0  0  0  0
 18 38  1  0  0  0  0
 19 46  1  0  0  0  0
 20 39  1  0  0  0  0
 21 85  1  0  0  0  0
 22 86  1  0  0  0  0
 23 25  2  0  0  0  0
 23 85  1  0  0  0  0
 24 87  1  0  0  0  0
 25 88  1  0  0  0  0
 26 68  2  0  0  0  0
 27 29  1  0  0  0  0
 27 49  1  0  0  0  0
 27 69  2  0  0  0  0
 28 30  2  0  0  0  0
 28 50  1  0  0  0  0
 28 69  1  0  0  0  0
 29 56  1  0  0  0  0
 29 70  2  0  0  0  0
 30 57  1  0  0  0  0
 30 70  1  0  0  0  0
 31 71  1  0  0  0  0
 31 74  1  0  0  0  0
 32 75  1  0  0  0  0
 32 80  2  0  0  0  0
 33 47  1  0  0  0  0
 33 76  1  0  0  0  0
 33 81  2  0  0  0  0
 34 65  1  0  0  0  0
 34 72  1  0  0  0  0
 34 82  2  0  0  0  0
 35 66  1  0  0  0  0
 35 77  1  0  0  0  0
 35 83  2  0  0  0  0
 36 73  1  0  0  0  0
 36 78  1  0  0  0  0
 36 84  2  0  0  0  0
 37 40  1  0  0  0  0
 38 47  1  0  0  0  0
 39 72  1  0  0  0  0
 40 42  1  0  0  0  0
 41 43  1  0  0  0  0
 41 44  1  0  0  0  0
 42 46  1  0  0  0  0
 43 48  1  0  0  0  0
 44 73  1  0  0  0  0
 45 48  1  0  0  0  0
 45 73  1  0  0  0  0
 46 76  1  0  0  0  0
 47 72  1  0  0  0  0
 48 71  1  0  0  0  0
 51 66  1  0  0  0  0
 52 67  1  0  0  0  0
 53 67  1  0  0  0  0
 54 67  1  0  0  0  0
 55 79  1  0  0  0  0
 56 58  1  0  0  0  0
 57 59  1  0  0  0  0
 58 60  1  0  0  0  0
 59 64  1  0  0  0  0
 60 61  1  0  0  0  0
 61 62  1  0  0  0  0
 62 63  1  0  0  0  0
 63 78  1  0  0  0  0
 64 86  1  0  0  0  0
 65 67  1  0  0  0  0
 65 77  1  0  0  0  0
 66 79  1  0  0  0  0
 68 71  1  0  0  0  0
M  CHG  1  79   1
M  ISO  4  36 100  64 101  78 100  86 101
M  END
> <Batch ID>
0035

> <Smiles>
CNC(C)C(=O)NC(C(=O)N1Cc2cc([101O:1][101CH2:1]CCc3nc(CCCCCC[100NH:0][100C:0](=O)N4CCCC(n5nc(-c6ccc(Oc7ccc(F)cc7F)cc6)c(C(N)=O)c5N)C4)c(C)nc3C)ccc2CC1C(=O)NC1CCCc2ccccc21)C(C)(C)C

> <Shape>
0.225

> <Color>
0.058

> <Negative vol penalty>
0.000

$$$$

  -OEChem-04052316533D

 86 94  0     1  0  0  0  0  0999 V2000
  -17.2820  -27.7246   24.4331 C   0  0  0  0  0  0  0  0  0  0  0  0
  -18.1718  -26.7484   23.9965 C   0  0  0  0  0  0  0  0  0  0  0  0
  -29.1062  -17.1191   19.8739 C   0  0  0  0  0  0  0  0  0  0  0  0
  -27.7708  -17.9804   21.6938 C   0  0  0  0  0  0  0  0  0  0  0  0
  -17.3240  -29.0030   23.8781 C   0  0  0  0  0  0  0  0  0  0  0  0
  -19.1035  -27.0497   23.0037 C   0  0  0  0  0  0  0  0  0  0  0  0
  -23.7300  -25.2970   24.0849 C   0  0  0  0  0  0  0  0  0  0  0  0
  -29.4134  -18.4223   19.4826 C   0  0  0  0  0  0  0  0  0  0  0  0
  -28.0780  -19.2835   21.3025 C   0  0  0  0  0  0  0  0  0  0  0  0
  -23.9602  -23.9376   23.8783 C   0  0  0  0  0  0  0  0  0  0  0  0
  -30.6745  -21.4257   21.6024 C   0  0  0  0  0  0  0  0  0  0  0  0
  -31.0371  -22.3315   22.5991 C   0  0  0  0  0  0  0  0  0  0  0  0
  -25.0453  -24.4457   21.7845 C   0  0  0  0  0  0  0  0  0  0  0  0
  -29.1674  -23.7395   21.9999 C   0  0  0  0  0  0  0  0  0  0  0  0
  -21.8269  -17.9267   21.1688 C   0  0  0  0  0  0  0  0  0  0  0  0
  -28.2848  -16.8982   20.9794 C   0  0  0  0  0  0  0  0  0  0  0  0
  -28.6808  -14.7456   22.2898 C   0  0  0  0  0  0  0  0  0  0  0  0
  -18.2631  -29.3228   22.8848 C   0  0  0  0  0  0  0  0  0  0  0  0
  -24.1467  -26.2418   23.1360 C   0  0  0  0  0  0  0  0  0  0  0  0
  -19.1573  -28.3331   22.4339 C   0  0  0  0  0  0  0  0  0  0  0  0
  -24.8214  -25.8167   21.9827 C   0  0  0  0  0  0  0  0  0  0  0  0
  -28.8994  -19.5044   20.1969 C   0  0  0  0  0  0  0  0  0  0  0  0
  -24.6154  -23.5115   22.7266 C   0  0  0  0  0  0  0  0  0  0  0  0
  -29.5583  -21.6768   20.8042 C   0  0  0  0  0  0  0  0  0  0  0  0
  -30.2836  -23.4884   22.7979 C   0  0  0  0  0  0  0  0  0  0  0  0
  -28.8048  -22.8337   21.0030 C   0  0  0  0  0  0  0  0  0  0  0  0
  -27.9666  -15.5523   21.3837 C   0  0  0  0  0  0  0  0  0  0  0  0
  -20.4485  -17.9180   20.8831 C   0  0  0  0  0  0  0  0  0  0  0  0
  -22.4267  -18.1791   19.9593 C   0  0  0  0  0  0  0  0  0  0  0  0
  -27.9753  -13.5678   22.3306 C   0  0  0  0  0  0  0  0  0  0  0  0
  -29.8750  -15.0350   23.0286 C   0  0  0  0  0  0  0  0  0  0  0  0
  -22.6726  -28.3740   21.2965 C   0  0  0  0  0  0  0  0  0  0  0  0
  -25.7058  -29.2534   20.5559 C   0  0  0  0  0  0  0  0  0  0  0  0
  -29.0026  -28.3955   20.3498 C   0  0  0  0  0  0  0  0  0  0  0  0
  -22.2498  -12.2041   21.2308 C   0  0  0  0  0  0  0  0  0  0  0  0
  -18.2391  -30.7047   22.2812 C   0  0  0  0  0  0  0  0  0  0  0  0
  -23.9145  -27.7066   23.3865 C   0  0  0  0  0  0  0  0  0  0  0  0
  -25.3070  -26.7924   20.9431 C   0  0  0  0  0  0  0  0  0  0  0  0
  -19.5040  -31.0500   21.4995 C   0  0  0  0  0  0  0  0  0  0  0  0
  -25.1227  -10.8168   19.6500 C   0  0  0  0  0  0  0  0  0  0  0  0
  -19.8914  -29.8996   20.5757 C   0  0  0  0  0  0  0  0  0  0  0  0
  -26.2418  -11.8004   19.9968 C   0  0  0  0  0  0  0  0  0  0  0  0
  -23.7948  -11.5331   19.4143 C   0  0  0  0  0  0  0  0  0  0  0  0
  -24.4877  -13.4075   20.8567 C   0  0  0  0  0  0  0  0  0  0  0  0
  -20.1988  -28.6285   21.3765 C   0  0  1  0  0  0  0  0  0  0  0  0
  -23.9256  -28.5403   22.1089 C   0  0  1  0  0  0  0  0  0  0  0  0
  -25.8340  -12.7270   21.1581 C   0  0  2  0  0  0  0  0  0  0  0  0
  -31.2382  -29.3128   19.6733 C   0  0  0  0  0  0  0  0  0  0  0  0
  -24.9543  -28.9121   17.6184 C   0  0  0  0  0  0  0  0  0  0  0  0
  -27.3964  -28.9018   17.0669 C   0  0  0  0  0  0  0  0  0  0  0  0
  -26.3632  -30.9194   18.1084 C   0  0  0  0  0  0  0  0  0  0  0  0
  -21.5326  -18.5714   17.6439 C   0  0  0  0  0  0  0  0  0  0  0  0
  -30.0989  -28.0512   23.0772 C   0  0  0  0  0  0  0  0  0  0  0  0
  -19.3385  -17.6902   21.8236 C   0  0  0  0  0  0  0  0  0  0  0  0
  -23.8809  -18.3141   19.5838 C   0  0  0  0  0  0  0  0  0  0  0  0
  -18.9514  -16.2011   21.9461 C   0  0  0  0  0  0  0  0  0  0  0  0
  -24.4164  -19.7466   19.6865 C   0  0  0  0  0  0  0  0  0  0  0  0
  -20.0980  -15.3419   22.4831 C   0  0  0  0  0  0  0  0  0  0  0  0
  -19.6981  -13.8654   22.5566 C   0  0  0  0  0  0  0  0  0  0  0  0
  -24.3817  -20.2979   21.1125 C   0  0  0  0  0  0  0  0  0  0  0  0
  -20.8159  -12.9820   23.1010 C   0  0  0  0  0  0  0  0  0  0  0  0
  -24.8832  -21.7345   21.1688 C   0  0  0  0  0  0  0  0  0  1  0  0
  -26.7122  -28.8431   19.5081 C   0  0  1  0  0  0  0  0  0  0  0  0
  -30.2595  -29.1059   20.8187 C   0  0  2  0  0  0  0  0  0  0  0  0
  -26.3458  -29.3753   18.0939 C   0  0  0  0  0  0  0  0  0  0  0  0
  -26.8902  -14.9388   20.8848 N   0  0  0  0  0  0  0  0  0  0  0  0
  -20.1878  -18.1468   19.5932 N   0  0  0  0  0  0  0  0  0  0  0  0
  -21.4107  -18.3018   19.0577 N   0  0  0  0  0  0  0  0  0  0  0  0
  -26.9227  -13.7341   21.4794 N   0  0  0  0  0  0  0  0  0  0  0  0
  -25.0506  -28.2134   21.2304 N   0  0  0  0  0  0  0  0  0  0  0  0
  -23.4652  -12.3942   20.5527 N   0  0  0  0  0  0  0  0  0  0  0  0
  -28.1590  -12.4165   23.0112 N   0  0  0  0  0  0  0  0  0  0  0  0
  -30.4707  -16.2935   22.8692 N   0  0  0  0  0  0  0  0  0  0  0  0
  -21.5153  -28.7122   21.9717 N   0  0  0  0  0  0  0  0  0  0  0  0
  -28.0133  -29.2882   19.9954 N   0  0  0  0  0  0  0  0  0  0  0  0
  -22.0185  -13.0585   22.3018 N   0  0  0  0  0  0  0  0  0  0  0  0
  -30.9391  -28.3100   21.8797 N   0  3  0  0  0  0  0  0  0  0  0  0
  -30.4074  -14.1963   23.7945 O   0  0  0  0  0  0  0  0  0  0  0  0
  -22.7501  -27.9704   20.1420 O   0  0  0  0  0  0  0  0  0  0  0  0
  -25.5135  -30.4523   20.7731 O   0  0  0  0  0  0  0  0  0  0  0  0
  -28.9090  -27.1710   20.2992 O   0  0  0  0  0  0  0  0  0  0  0  0
  -21.4339  -11.3336   20.9090 O   0  0  0  0  0  0  0  0  0  0  0  0
  -29.1991  -20.7762   19.8156 O   0  0  0  0  0  0  0  0  0  0  0  0
  -24.8408  -22.1851   22.5222 O   0  0  0  0  0  0  0  0  0  1  0  0
  -30.6311  -24.3574   23.7562 F   0  0  0  0  0  0  0  0  0  0  0  0
  -27.7309  -23.0797   20.2402 F   0  0  0  0  0  0  0  0  0  0  0  0
  1  2  1  0  0  0  0
  1  5  2  0  0  0  0
  2  6  2  0  0  0  0
  3  8  2  0  0  0  0
  3 16  1  0  0  0  0
  4  9  1  0  0  0  0
  4 16  2  0  0  0  0
  5 18  1  0  0  0  0
  6 20  1  0  0  0  0
  7 10  2  0  0  0  0
  7 19  1  0  0  0  0
  8 22  1  0  0  0  0
  9 22  2  0  0  0  0
 10 23  1  0  0  0  0
 11 12  2  0  0  0  0
 11 24  1  0  0  0  0
 12 25  1  0  0  0  0
 13 21  1  0  0  0  0
 13 23  2  0  0  0  0
 14 25  2  0  0  0  0
 14 26  1  0  0  0  0
 15 28  1  0  0  0  0
 15 29  2  0  0  0  0
 16 27  1  0  0  0  0
 17 27  1  0  0  0  0
 17 30  2  0  0  0  0
 17 31  1  0  0  0  0
 18 20  2  0  0  0  0
 18 36  1  0  0  0  0
 19 21  2  0  0  0  0
 19 37  1  0  0  0  0
 20 45  1  0  0  0  0
 21 38  1  0  0  0  0
 22 83  1  0  0  0  0
 23 84  1  0  0  0  0
 24 26  2  0  0  0  0
 24 83  1  0  0  0  0
 25 85  1  0  0  0  0
 26 86  1  0  0  0  0
 27 66  2  0  0  0  0
 28 54  1  0  0  0  0
 28 67  2  0  0  0  0
 29 55  1  0  0  0  0
 29 68  1  0  0  0  0
 30 69  1  0  0  0  0
 30 72  1  0  0  0  0
 31 73  1  0  0  0  0
 31 78  2  0  0  0  0
 32 46  1  0  0  0  0
 32 74  1  0  0  0  0
 32 79  2  0  0  0  0
 33 63  1  0  0  0  0
 33 70  1  0  0  0  0
 33 80  2  0  0  0  0
 34 64  1  0  0  0  0
 34 75  1  0  0  0  0
 34 81  2  0  0  0  0
 35 71  1  0  0  0  0
 35 76  1  0  0  0  0
 35 82  2  0  0  0  0
 36 39  1  0  0  0  0
 37 46  1  0  0  0  0
 38 70  1  0  0  0  0
 39 41  1  0  0  0  0
 40 42  1  0  0  0  0
 40 43  1  0  0  0  0
 41 45  1  0  0  0  0
 42 47  1  0  0  0  0
 43 71  1  0  0  0  0
 44 47  1  0  0  0  0
 44 71  1  0  0  0  0
 45 74  1  0  0  0  0
 46 70  1  0  0  0  0
 47 69  1  0  0  0  0
 48 64  1  0  0  0  0
 49 65  1  0  0  0  0
 50 65  1  0  0  0  0
 51 65  1  0  0  0  0
 52 68  1  0  0  0  0
 53 77  1  0  0  0  0
 54 56  1  0  0  0  0
 55 57  1  0  0  0  0
 56 58  1  0  0  0  0
 57 60  1  0  0  0  0
 58 59  1  0  0  0  0
 59 61  1  0  0  0  0
 60 62  1  0  0  0  0
 61 76  1  0  0  0  0
 62 84  1  0  0  0  0
 63 65  1  0  0  0  0
 63 75  1  0  0  0  0
 64 77  1  0  0  0  0
 66 69  1  0  0  0  0
 67 68  1  0  0  0  0
M  CHG  1  77   1
M  ISO  4  35 100  62 101  76 100  84 101
M  END
> <Batch ID>
0035

> <Smiles>
CNC(C)C(=O)NC(C(=O)N1Cc2cc([101O:1][101CH2:1]CCCc3cc(CCCCC[100NH:0][100C:0](=O)N4CCCC(n5nc(-c6ccc(Oc7ccc(F)cc7F)cc6)c(C(N)=O)c5N)C4)nn3C)ccc2CC1C(=O)NC1CCCc2ccccc21)C(C)(C)C

> <Shape>
0.212

> <Color>
0.072

> <Negative vol penalty>
0.000

$$$$

  -OEChem-04052316533D

 84 92  0     1  0  0  0  0  0999 V2000
  -17.4047  -29.8028   22.8664 C   0  0  0  0  0  0  0  0  0  0  0  0
  -18.7092  -30.2225   22.6265 C   0  0  0  0  0  0  0  0  0  0  0  0
  -25.6612  -15.1680   22.1868 C   0  0  0  0  0  0  0  0  0  0  0  0
  -25.7416  -16.0464   19.9376 C   0  0  0  0  0  0  0  0  0  0  0  0
  -17.1606  -28.4974   23.2910 C   0  0  0  0  0  0  0  0  0  0  0  0
  -19.7705  -29.3373   22.8121 C   0  0  0  0  0  0  0  0  0  0  0  0
  -24.9468  -29.0603   19.5509 C   0  0  0  0  0  0  0  0  0  0  0  0
  -24.3184  -14.8351   22.0089 C   0  0  0  0  0  0  0  0  0  0  0  0
  -24.3988  -15.7134   19.7596 C   0  0  0  0  0  0  0  0  0  0  0  0
  -26.2275  -29.5616   19.7797 C   0  0  0  0  0  0  0  0  0  0  0  0
  -22.5376  -12.3844   20.5070 C   0  0  0  0  0  0  0  0  0  0  0  0
  -22.1195  -11.1250   20.9367 C   0  0  0  0  0  0  0  0  0  0  0  0
  -26.8957  -27.4262   20.6814 C   0  0  0  0  0  0  0  0  0  0  0  0
  -29.6040  -27.4807   15.8992 C   0  0  0  0  0  0  0  0  0  0  0  0
  -20.5490  -12.1630   22.4510 C   0  0  0  0  0  0  0  0  0  0  0  0
  -30.7672  -29.2832   16.5831 C   0  0  0  0  0  0  0  0  0  0  0  0
  -26.3728  -15.7737   21.1512 C   0  0  0  0  0  0  0  0  0  0  0  0
  -28.8799  -15.3113   21.0593 C   0  0  0  0  0  0  0  0  0  0  0  0
  -18.2187  -27.5929   23.4726 C   0  0  0  0  0  0  0  0  0  0  0  0
  -24.6273  -27.7393   19.8963 C   0  0  0  0  0  0  0  0  0  0  0  0
  -19.5405  -28.0190   23.2408 C   0  0  0  0  0  0  0  0  0  0  0  0
  -25.6109  -26.9098   20.4537 C   0  0  0  0  0  0  0  0  0  0  0  0
  -30.2212  -28.6818   15.4707 C   0  0  0  0  0  0  0  0  0  0  0  0
  -23.6872  -15.1078   20.7953 C   0  0  0  0  0  0  0  0  0  0  0  0
  -27.2014  -28.7454   20.3477 C   0  0  0  0  0  0  0  0  0  0  0  0
  -21.9614  -13.5332   21.0494 C   0  0  0  0  0  0  0  0  0  0  0  0
  -21.1252  -11.0143   21.9087 C   0  0  0  0  0  0  0  0  0  0  0  0
  -20.9671  -13.4224   22.0214 C   0  0  0  0  0  0  0  0  0  0  0  0
  -27.7598  -16.1184   21.3346 C   0  0  0  0  0  0  0  0  0  0  0  0
  -29.7916  -27.3848   17.2605 C   0  0  0  0  0  0  0  0  0  0  0  0
  -29.9574  -16.0912   21.4014 C   0  0  0  0  0  0  0  0  0  0  0  0
  -28.9408  -13.9761   20.5405 C   0  0  0  0  0  0  0  0  0  0  0  0
  -22.5694  -26.3802   21.9017 C   0  0  0  0  0  0  0  0  0  0  0  0
  -23.6199  -23.6447   20.5104 C   0  0  0  0  0  0  0  0  0  0  0  0
  -26.0943  -22.0262   18.8062 C   0  0  0  0  0  0  0  0  0  0  0  0
  -30.7547  -22.0149   21.7558 C   0  0  0  0  0  0  0  0  0  0  0  0
  -17.9094  -26.2060   23.9783 C   0  0  0  0  0  0  0  0  0  0  0  0
  -23.2488  -27.2056   19.6185 C   0  0  0  0  0  0  0  0  0  0  0  0
  -25.3245  -25.4782   20.8236 C   0  0  0  0  0  0  0  0  0  0  0  0
  -19.0586  -25.2189   23.7904 C   0  0  0  0  0  0  0  0  0  0  0  0
  -31.2292  -19.6314   24.3579 C   0  0  0  0  0  0  0  0  0  0  0  0
  -20.3759  -25.8409   24.2427 C   0  0  0  0  0  0  0  0  0  0  0  0
  -30.4949  -18.3880   23.8533 C   0  0  0  0  0  0  0  0  0  0  0  0
  -30.5035  -20.9152   23.9613 C   0  0  0  0  0  0  0  0  0  0  0  0
  -29.4805  -19.8002   22.0160 C   0  0  0  0  0  0  0  0  0  0  0  0
  -20.7162  -27.0808   23.4070 C   0  0  1  0  0  0  0  0  0  0  0  0
  -22.8887  -26.0014   20.4832 C   0  0  1  0  0  0  0  0  0  0  0  0
  -30.2039  -18.4827   22.3434 C   0  0  2  0  0  0  0  0  0  0  0  0
  -30.2709  -29.1947   14.0883 C   0  0  0  0  0  0  0  0  0  0  0  0
  -26.6810  -19.7849   17.8419 C   0  0  0  0  0  0  0  0  0  0  0  0
  -24.2288  -22.6013   23.3123 C   0  0  0  0  0  0  0  0  0  0  0  0
  -25.6497  -20.8250   22.2664 C   0  0  0  0  0  0  0  0  0  0  0  0
  -23.2065  -20.9176   21.7714 C   0  0  0  0  0  0  0  0  0  0  0  0
  -26.2769  -23.1243   16.0640 C   0  0  0  0  0  0  0  0  0  0  0  0
  -29.3553  -26.3366   18.2061 C   0  0  0  0  0  0  0  0  0  0  0  0
  -30.3969  -25.2114   18.3698 C   0  0  0  0  0  0  0  0  0  0  0  0
  -29.9156  -24.1113   19.3206 C   0  0  0  0  0  0  0  0  0  0  0  0
  -30.4407  -30.1478   19.5910 C   0  0  0  0  0  0  0  0  0  0  0  0
  -30.9280  -28.7906   19.0786 C   0  0  0  0  0  0  0  0  0  0  0  0
  -30.9336  -22.9866   19.4792 C   0  0  0  0  0  0  0  0  0  0  0  0
  -28.9227  -30.2475   19.6872 C   0  0  0  0  0  0  0  0  0  1  0  0
  -24.7388  -22.6684   20.7822 C   0  0  1  0  0  0  0  0  0  0  0  0
  -26.0562  -21.1446   17.5709 C   0  0  2  0  0  0  0  0  0  0  0  0
  -24.4611  -21.7806   22.0280 C   0  0  0  0  0  0  0  0  0  0  0  0
  -28.0947  -17.3189   21.8149 N   0  0  0  0  0  0  0  0  0  0  0  0
  -30.4997  -28.4861   17.6653 N   0  0  0  0  0  0  0  0  0  0  0  0
  -29.4375  -17.2719   21.8440 N   0  0  0  0  0  0  0  0  0  0  0  0
  -23.9600  -25.0046   20.5383 N   0  0  0  0  0  0  0  0  0  0  0  0
  -30.2594  -20.9434   22.5171 N   0  0  0  0  0  0  0  0  0  0  0  0
  -31.2895  -15.8754   21.3640 N   0  0  0  0  0  0  0  0  0  0  0  0
  -27.7390  -13.3197   20.2421 N   0  0  0  0  0  0  0  0  0  0  0  0
  -21.2401  -26.6915   22.1153 N   0  0  0  0  0  0  0  0  0  0  0  0
  -24.9358  -21.9189   19.5462 N   0  0  0  0  0  0  0  0  0  0  0  0
  -30.4845  -21.9608   20.3939 N   0  0  0  0  0  0  0  0  0  0  0  0
  -26.7998  -21.7889   16.4516 N   0  3  0  0  0  0  0  0  0  0  0  0
  -30.0283  -13.3766   20.3628 O   0  0  0  0  0  0  0  0  0  0  0  0
  -23.4626  -26.3881   22.7407 O   0  0  0  0  0  0  0  0  0  0  0  0
  -22.4874  -23.2163   20.2748 O   0  0  0  0  0  0  0  0  0  0  0  0
  -27.0571  -22.7359   19.0886 O   0  0  0  0  0  0  0  0  0  0  0  0
  -31.3954  -22.9477   22.2522 O   0  0  0  0  0  0  0  0  0  0  0  0
  -22.3770  -14.7828   20.6212 O   0  0  0  0  0  0  0  0  0  0  0  0
  -28.4520  -29.2323   20.5726 O   0  0  0  0  0  0  0  0  0  1  0  0
  -20.7228   -9.8047   22.3201 F   0  0  0  0  0  0  0  0  0  0  0  0
  -20.4091  -14.5224   22.5453 F   0  0  0  0  0  0  0  0  0  0  0  0
  1  2  1  0  0  0  0
  1  5  2  0  0  0  0
  2  6  2  0  0  0  0
  3  8  2  0  0  0  0
  3 17  1  0  0  0  0
  4  9  1  0  0  0  0
  4 17  2  0  0  0  0
  5 19  1  0  0  0  0
  6 21  1  0  0  0  0
  7 10  2  0  0  0  0
  7 20  1  0  0  0  0
  8 24  1  0  0  0  0
  9 24  2  0  0  0  0
 10 25  1  0  0  0  0
 11 12  2  0  0  0  0
 11 26  1  0  0  0  0
 12 27  1  0  0  0  0
 13 22  1  0  0  0  0
 13 25  2  0  0  0  0
 14 23  1  0  0  0  0
 14 30  2  0  0  0  0
 15 27  2  0  0  0  0
 15 28  1  0  0  0  0
 16 23  2  0  0  0  0
 16 66  1  0  0  0  0
 17 29  1  0  0  0  0
 18 29  1  0  0  0  0
 18 31  2  0  0  0  0
 18 32  1  0  0  0  0
 19 21  2  0  0  0  0
 19 37  1  0  0  0  0
 20 22  2  0  0  0  0
 20 38  1  0  0  0  0
 21 46  1  0  0  0  0
 22 39  1  0  0  0  0
 23 49  1  0  0  0  0
 24 81  1  0  0  0  0
 25 82  1  0  0  0  0
 26 28  2  0  0  0  0
 26 81  1  0  0  0  0
 27 83  1  0  0  0  0
 28 84  1  0  0  0  0
 29 65  2  0  0  0  0
 30 55  1  0  0  0  0
 30 66  1  0  0  0  0
 31 67  1  0  0  0  0
 31 70  1  0  0  0  0
 32 71  1  0  0  0  0
 32 76  2  0  0  0  0
 33 47  1  0  0  0  0
 33 72  1  0  0  0  0
 33 77  2  0  0  0  0
 34 62  1  0  0  0  0
 34 68  1  0  0  0  0
 34 78  2  0  0  0  0
 35 63  1  0  0  0  0
 35 73  1  0  0  0  0
 35 79  2  0  0  0  0
 36 69  1  0  0  0  0
 36 74  1  0  0  0  0
 36 80  2  0  0  0  0
 37 40  1  0  0  0  0
 38 47  1  0  0  0  0
 39 68  1  0  0  0  0
 40 42  1  0  0  0  0
 41 43  1  0  0  0  0
 41 44  1  0  0  0  0
 42 46  1  0  0  0  0
 43 48  1  0  0  0  0
 44 69  1  0  0  0  0
 45 48  1  0  0  0  0
 45 69  1  0  0  0  0
 46 72  1  0  0  0  0
 47 68  1  0  0  0  0
 48 67  1  0  0  0  0
 50 63  1  0  0  0  0
 51 64  1  0  0  0  0
 52 64  1  0  0  0  0
 53 64  1  0  0  0  0
 54 75  1  0  0  0  0
 55 56  1  0  0  0  0
 56 57  1  0  0  0  0
 57 60  1  0  0  0  0
 58 59  1  0  0  0  0
 58 61  1  0  0  0  0
 59 66  1  0  0  0  0
 60 74  1  0  0  0  0
 61 82  1  0  0  0  0
 62 64  1  0  0  0  0
 62 73  1  0  0  0  0
 63 75  1  0  0  0  0
 65 67  1  0  0  0  0
M  CHG  1  75   1
M  ISO  4  36 100  61 101  74 100  82 101
M  END
> <Batch ID>
0035

> <Smiles>
CNC(C)C(=O)NC(C(=O)N1Cc2cc([101O:1][101CH2:1]CCn3cc(C)cc3CCCC[100NH:0][100C:0](=O)N3CCCC(n4nc(-c5ccc(Oc6ccc(F)cc6F)cc5)c(C(N)=O)c4N)C3)ccc2CC1C(=O)NC1CCCc2ccccc21)C(C)(C)C

> <Shape>
0.219

> <Color>
0.051

> <Negative vol penalty>
0.000

$$$$

  -OEChem-04052316533D

 84 92  0     1  0  0  0  0  0999 V2000
  -29.4407  -23.9371   17.5088 C   0  0  0  0  0  0  0  0  0  0  0  0
  -28.2276  -24.0308   18.1832 C   0  0  0  0  0  0  0  0  0  0  0  0
  -28.1052  -14.5822   19.6263 C   0  0  0  0  0  0  0  0  0  0  0  0
  -25.9324  -15.4390   20.2445 C   0  0  0  0  0  0  0  0  0  0  0  0
  -30.5405  -24.6721   17.9494 C   0  0  0  0  0  0  0  0  0  0  0  0
  -28.1138  -24.8588   19.2994 C   0  0  0  0  0  0  0  0  0  0  0  0
  -23.8783  -27.6340   19.2360 C   0  0  0  0  0  0  0  0  0  0  0  0
  -27.6612  -13.2822   19.8677 C   0  0  0  0  0  0  0  0  0  0  0  0
  -25.4884  -14.1388   20.4858 C   0  0  0  0  0  0  0  0  0  0  0  0
  -22.6931  -26.9953   19.5980 C   0  0  0  0  0  0  0  0  0  0  0  0
  -25.7697  -11.8244   22.9343 C   0  0  0  0  0  0  0  0  0  0  0  0
  -25.0413  -11.5945   24.1014 C   0  0  0  0  0  0  0  0  0  0  0  0
  -22.8527  -27.9616   21.8025 C   0  0  0  0  0  0  0  0  0  0  0  0
  -24.2153  -21.8368   22.4369 C   0  0  0  0  0  0  0  0  0  0  0  0
  -21.8243  -21.9411   22.7669 C   0  0  0  0  0  0  0  0  0  0  0  0
  -23.1012  -23.9785   22.5316 C   0  0  0  0  0  0  0  0  0  0  0  0
  -23.1627  -10.8432   22.7810 C   0  0  0  0  0  0  0  0  0  0  0  0
  -27.2408  -15.6607   19.8148 C   0  0  0  0  0  0  0  0  0  0  0  0
  -27.6331  -17.7136   18.3522 C   0  0  0  0  0  0  0  0  0  0  0  0
  -30.4375  -25.5170   19.0658 C   0  0  0  0  0  0  0  0  0  0  0  0
  -24.5665  -28.4339   20.1595 C   0  0  0  0  0  0  0  0  0  0  0  0
  -29.2136  -25.6048   19.7562 C   0  0  0  0  0  0  0  0  0  0  0  0
  -24.0451  -28.6115   21.4489 C   0  0  0  0  0  0  0  0  0  0  0  0
  -22.9927  -21.1925   22.6254 C   0  0  0  0  0  0  0  0  0  0  0  0
  -24.2696  -23.2299   22.3901 C   0  0  0  0  0  0  0  0  0  0  0  0
  -21.8785  -23.3342   22.7200 C   0  0  0  0  0  0  0  0  0  0  0  0
  -26.3529  -13.0604   20.2974 C   0  0  0  0  0  0  0  0  0  0  0  0
  -22.1816  -27.1567   20.8823 C   0  0  0  0  0  0  0  0  0  0  0  0
  -25.1946  -11.5638   21.6905 C   0  0  0  0  0  0  0  0  0  0  0  0
  -23.7378  -11.1039   24.0248 C   0  0  0  0  0  0  0  0  0  0  0  0
  -23.8911  -11.0732   21.6139 C   0  0  0  0  0  0  0  0  0  0  0  0
  -27.6989  -17.0040   19.5662 C   0  0  0  0  0  0  0  0  0  0  0  0
  -28.1945  -18.9343   18.6371 C   0  0  0  0  0  0  0  0  0  0  0  0
  -27.1111  -17.3058   17.0806 C   0  0  0  0  0  0  0  0  0  0  0  0
  -27.4434  -28.3345   21.5077 C   0  0  0  0  0  0  0  0  0  0  0  0
  -26.5503  -31.2118   22.7101 C   0  0  0  0  0  0  0  0  0  0  0  0
  -24.0188  -33.3257   23.5875 C   0  0  0  0  0  0  0  0  0  0  0  0
  -28.8108  -22.0544   23.7102 C   0  0  0  0  0  0  0  0  0  0  0  0
  -31.6667  -26.2556   19.5330 C   0  0  0  0  0  0  0  0  0  0  0  0
  -25.8297  -29.1376   19.7451 C   0  0  0  0  0  0  0  0  0  0  0  0
  -24.7350  -29.4760   22.4712 C   0  0  0  0  0  0  0  0  0  0  0  0
  -31.3608  -27.3970   20.4994 C   0  0  0  0  0  0  0  0  0  0  0  0
  -31.4096  -20.9961   21.5186 C   0  0  0  0  0  0  0  0  0  0  0  0
  -30.3807  -26.9382   21.5744 C   0  0  0  0  0  0  0  0  0  0  0  0
  -30.7474  -19.9170   20.6602 C   0  0  0  0  0  0  0  0  0  0  0  0
  -30.9030  -20.9613   22.9588 C   0  0  0  0  0  0  0  0  0  0  0  0
  -28.7742  -19.9469   22.2427 C   0  0  0  0  0  0  0  0  0  0  0  0
  -29.0439  -26.5111   20.9562 C   0  0  1  0  0  0  0  0  0  0  0  0
  -26.7184  -29.5151   20.9262 C   0  0  1  0  0  0  0  0  0  0  0  0
  -29.2119  -19.9784   20.7683 C   0  0  2  0  0  0  0  0  0  0  0  0
  -22.9352  -19.7029   22.6750 C   0  0  0  0  0  0  0  0  0  0  0  0
  -23.5996  -35.5928   24.5784 C   0  0  0  0  0  0  0  0  0  0  0  0
  -27.2252  -30.1235   25.4796 C   0  0  0  0  0  0  0  0  0  0  0  0
  -25.9221  -32.0201   26.4660 C   0  0  0  0  0  0  0  0  0  0  0  0
  -27.9453  -32.4854   25.0830 C   0  0  0  0  0  0  0  0  0  0  0  0
  -22.6344  -34.2649   21.1460 C   0  0  0  0  0  0  0  0  0  0  0  0
  -25.5767  -23.9194   22.1882 C   0  0  0  0  0  0  0  0  0  0  0  0
  -20.6153  -24.1431   22.8730 C   0  0  0  0  0  0  0  0  0  0  0  0
  -26.3294  -24.2540   23.4911 C   0  0  0  0  0  0  0  0  0  0  0  0
  -19.9062  -24.4344   21.5487 C   0  0  0  0  0  0  0  0  0  0  0  0
  -26.6323  -23.0428   24.3707 C   0  0  0  0  0  0  0  0  0  0  0  0
  -20.7320  -25.2930   20.5977 C   0  0  0  0  0  0  0  0  0  1  0  0
  -25.8329  -31.6740   23.9554 C   0  0  1  0  0  0  0  0  0  0  0  0
  -23.7889  -34.7976   23.2959 C   0  0  2  0  0  0  0  0  0  0  0  0
  -26.7192  -31.5578   25.2276 C   0  0  0  0  0  0  0  0  0  0  0  0
  -28.2582  -17.7146   20.5492 N   0  0  0  0  0  0  0  0  0  0  0  0
  -28.5490  -18.8835   19.9531 N   0  0  0  0  0  0  0  0  0  0  0  0
  -25.9702  -30.1380   22.0201 N   0  0  0  0  0  0  0  0  0  0  0  0
  -29.4398  -21.0244   22.9915 N   0  0  0  0  0  0  0  0  0  0  0  0
  -28.4147  -20.0354   17.8878 N   0  0  0  0  0  0  0  0  0  0  0  0
  -26.5705  -16.0182   16.9621 N   0  0  0  0  0  0  0  0  0  0  0  0
  -28.2549  -27.6727   20.6061 N   0  0  0  0  0  0  0  0  0  0  0  0
  -25.3618  -33.0264   23.6769 N   0  0  0  0  0  0  0  0  0  0  0  0
  -27.4216  -22.0445   23.6842 N   0  0  0  0  0  0  0  0  0  0  0  0
  -22.5750  -34.9747   22.4497 N   0  3  0  0  0  0  0  0  0  0  0  0
  -27.1385  -18.0551   16.0749 O   0  0  0  0  0  0  0  0  0  0  0  0
  -27.2798  -28.0462   22.6875 O   0  0  0  0  0  0  0  0  0  0  0  0
  -27.5833  -31.7872   22.3586 O   0  0  0  0  0  0  0  0  0  0  0  0
  -23.0988  -32.5225   23.7260 O   0  0  0  0  0  0  0  0  0  0  0  0
  -29.4407  -22.9219   24.3247 O   0  0  0  0  0  0  0  0  0  0  0  0
  -25.9193  -11.7919   20.5327 O   0  0  0  0  0  0  0  0  0  0  0  0
  -21.0253  -26.5339   21.2384 O   0  0  0  0  0  0  0  0  0  1  0  0
  -23.0390  -10.8817   25.1457 F   0  0  0  0  0  0  0  0  0  0  0  0
  -23.3336  -10.8199   20.4219 F   0  0  0  0  0  0  0  0  0  0  0  0
  1  2  1  0  0  0  0
  1  5  2  0  0  0  0
  2  6  2  0  0  0  0
  3  8  2  0  0  0  0
  3 18  1  0  0  0  0
  4  9  1  0  0  0  0
  4 18  2  0  0  0  0
  5 20  1  0  0  0  0
  6 22  1  0  0  0  0
  7 10  2  0  0  0  0
  7 21  1  0  0  0  0
  8 27  1  0  0  0  0
  9 27  2  0  0  0  0
 10 28  1  0  0  0  0
 11 12  2  0  0  0  0
 11 29  1  0  0  0  0
 12 30  1  0  0  0  0
 13 23  1  0  0  0  0
 13 28  2  0  0  0  0
 14 24  1  0  0  0  0
 14 25  2  0  0  0  0
 15 24  2  0  0  0  0
 15 26  1  0  0  0  0
 16 25  1  0  0  0  0
 16 26  2  0  0  0  0
 17 30  2  0  0  0  0
 17 31  1  0  0  0  0
 18 32  1  0  0  0  0
 19 32  1  0  0  0  0
 19 33  2  0  0  0  0
 19 34  1  0  0  0  0
 20 22  2  0  0  0  0
 20 39  1  0  0  0  0
 21 23  2  0  0  0  0
 21 40  1  0  0  0  0
 22 48  1  0  0  0  0
 23 41  1  0  0  0  0
 24 51  1  0  0  0  0
 25 57  1  0  0  0  0
 26 58  1  0  0  0  0
 27 81  1  0  0  0  0
 28 82  1  0  0  0  0
 29 31  2  0  0  0  0
 29 81  1  0  0  0  0
 30 83  1  0  0  0  0
 31 84  1  0  0  0  0
 32 66  2  0  0  0  0
 33 67  1  0  0  0  0
 33 70  1  0  0  0  0
 34 71  1  0  0  0  0
 34 76  2  0  0  0  0
 35 49  1  0  0  0  0
 35 72  1  0  0  0  0
 35 77  2  0  0  0  0
 36 63  1  0  0  0  0
 36 68  1  0  0  0  0
 36 78  2  0  0  0  0
 37 64  1  0  0  0  0
 37 73  1  0  0  0  0
 37 79  2  0  0  0  0
 38 69  1  0  0  0  0
 38 74  1  0  0  0  0
 38 80  2  0  0  0  0
 39 42  1  0  0  0  0
 40 49  1  0  0  0  0
 41 68  1  0  0  0  0
 42 44  1  0  0  0  0
 43 45  1  0  0  0  0
 43 46  1  0  0  0  0
 44 48  1  0  0  0  0
 45 50  1  0  0  0  0
 46 69  1  0  0  0  0
 47 50  1  0  0  0  0
 47 69  1  0  0  0  0
 48 72  1  0  0  0  0
 49 68  1  0  0  0  0
 50 67  1  0  0  0  0
 52 64  1  0  0  0  0
 53 65  1  0  0  0  0
 54 65  1  0  0  0  0
 55 65  1  0  0  0  0
 56 75  1  0  0  0  0
 57 59  1  0  0  0  0
 58 60  1  0  0  0  0
 59 61  1  0  0  0  0
 60 62  1  0  0  0  0
 61 74  1  0  0  0  0
 62 82  1  0  0  0  0
 63 65  1  0  0  0  0
 63 73  1  0  0  0  0
 64 75  1  0  0  0  0
 66 67  1  0  0  0  0
M  CHG  1  75   1
M  ISO  4  38 100  62 101  74 100  82 101
M  END
> <Batch ID>
0035

> <Smiles>
CNC(C)C(=O)NC(C(=O)N1Cc2cc([101O:1][101CH2:1]CCc3cc(C)cc(CCC[100NH:0][100C:0](=O)N4CCCC(n5nc(-c6ccc(Oc7ccc(F)cc7F)cc6)c(C(N)=O)c5N)C4)c3)ccc2CC1C(=O)NC1CCCc2ccccc21)C(C)(C)C

> <Shape>
0.269

> <Color>
0.065

> <Negative vol penalty>
0.000

$$$$

  -OEChem-04052316533D

 86 94  0     1  0  0  0  0  0999 V2000
  -17.5166  -18.4341   20.3929 C   0  0  0  0  0  0  0  0  0  0  0  0
  -18.7683  -18.8304   20.8529 C   0  0  0  0  0  0  0  0  0  0  0  0
  -23.1350   -9.8572   19.9740 C   0  0  0  0  0  0  0  0  0  0  0  0
  -23.5607  -10.0626   22.3433 C   0  0  0  0  0  0  0  0  0  0  0  0
  -17.4176  -17.5092   19.3543 C   0  0  0  0  0  0  0  0  0  0  0  0
  -19.9218  -18.3011   20.2752 C   0  0  0  0  0  0  0  0  0  0  0  0
  -25.2571  -21.1793   19.4052 C   0  0  0  0  0  0  0  0  0  0  0  0
  -22.3374   -8.7385   20.2142 C   0  0  0  0  0  0  0  0  0  0  0  0
  -22.7630   -8.9438   22.5836 C   0  0  0  0  0  0  0  0  0  0  0  0
  -26.4501  -21.1818   20.1267 C   0  0  0  0  0  0  0  0  0  0  0  0
  -23.0554   -5.5825   22.3664 C   0  0  0  0  0  0  0  0  0  0  0  0
  -23.5392   -4.6198   23.2522 C   0  0  0  0  0  0  0  0  0  0  0  0
  -27.3345  -19.4841   18.6589 C   0  0  0  0  0  0  0  0  0  0  0  0
  -30.2549  -20.3518   23.1907 C   0  0  0  0  0  0  0  0  0  0  0  0
  -30.8485  -18.0378   22.8299 C   0  0  0  0  0  0  0  0  0  0  0  0
  -30.1995  -18.7891   25.0325 C   0  0  0  0  0  0  0  0  0  0  0  0
  -21.6165   -4.9625   24.6746 C   0  0  0  0  0  0  0  0  0  0  0  0
  -23.7467  -10.5193   21.0385 C   0  0  0  0  0  0  0  0  0  0  0  0
  -24.1590  -13.0200   20.7487 C   0  0  0  0  0  0  0  0  0  0  0  0
  -18.5706  -16.9756   18.7571 C   0  0  0  0  0  0  0  0  0  0  0  0
  -25.0896  -20.3198   18.3099 C   0  0  0  0  0  0  0  0  0  0  0  0
  -19.8381  -17.3672   19.2286 C   0  0  0  0  0  0  0  0  0  0  0  0
  -26.1394  -19.4744   17.9235 C   0  0  0  0  0  0  0  0  0  0  0  0
  -30.6691  -19.3301   22.3363 C   0  0  0  0  0  0  0  0  0  0  0  0
  -30.0202  -20.0813   24.5389 C   0  0  0  0  0  0  0  0  0  0  0  0
  -30.6137  -17.7673   24.1780 C   0  0  0  0  0  0  0  0  0  0  0  0
  -22.1513   -8.2818   21.5190 C   0  0  0  0  0  0  0  0  0  0  0  0
  -27.4879  -20.3321   19.7554 C   0  0  0  0  0  0  0  0  0  0  0  0
  -21.8522   -6.2353   22.6347 C   0  0  0  0  0  0  0  0  0  0  0  0
  -22.8198   -4.3097   24.4063 C   0  0  0  0  0  0  0  0  0  0  0  0
  -21.1328   -5.9252   23.7887 C   0  0  0  0  0  0  0  0  0  0  0  0
  -24.5713  -11.6746   20.7910 C   0  0  0  0  0  0  0  0  0  0  0  0
  -25.3083  -13.7232   20.4821 C   0  0  0  0  0  0  0  0  0  0  0  0
  -22.8537  -13.5837   20.9339 C   0  0  0  0  0  0  0  0  0  0  0  0
  -23.1169  -17.9251   17.6188 C   0  0  0  0  0  0  0  0  0  0  0  0
  -24.5777  -18.0719   14.7263 C   0  0  0  0  0  0  0  0  0  0  0  0
  -27.3240  -18.9688   12.9097 C   0  0  0  0  0  0  0  0  0  0  0  0
  -31.1069  -12.5679   21.4270 C   0  0  0  0  0  0  0  0  0  0  0  0
  -18.4130  -15.9430   17.6692 C   0  0  0  0  0  0  0  0  0  0  0  0
  -23.8064  -20.3483   17.5256 C   0  0  0  0  0  0  0  0  0  0  0  0
  -26.0173  -18.5471   16.7429 C   0  0  0  0  0  0  0  0  0  0  0  0
  -19.6863  -15.7125   16.8592 C   0  0  0  0  0  0  0  0  0  0  0  0
  -29.5473  -13.2840   18.3075 C   0  0  0  0  0  0  0  0  0  0  0  0
  -20.8884  -15.5612   17.7860 C   0  0  0  0  0  0  0  0  0  0  0  0
  -28.0580  -13.0742   18.5864 C   0  0  0  0  0  0  0  0  0  0  0  0
  -30.4108  -12.2794   19.0672 C   0  0  0  0  0  0  0  0  0  0  0  0
  -28.6777  -12.0180   20.7998 C   0  0  0  0  0  0  0  0  0  0  0  0
  -21.1127  -16.8343   18.6109 C   0  0  1  0  0  0  0  0  0  0  0  0
  -23.5564  -19.0634   16.7420 C   0  0  1  0  0  0  0  0  0  0  0  0
  -27.7697  -13.0434   20.0994 C   0  0  2  0  0  0  0  0  0  0  0  0
  -28.2144  -21.7654   25.0456 C   0  0  0  0  0  0  0  0  0  0  0  0
  -30.6209  -22.3006   25.5724 C   0  0  0  0  0  0  0  0  0  0  0  0
  -28.2401  -18.9279   10.5738 C   0  0  0  0  0  0  0  0  0  0  0  0
  -25.1644  -15.0912   15.0111 C   0  0  0  0  0  0  0  0  0  0  0  0
  -26.8522  -15.3191   13.1760 C   0  0  0  0  0  0  0  0  0  0  0  0
  -24.4467  -15.7991   12.7224 C   0  0  0  0  0  0  0  0  0  0  0  0
  -27.5112  -21.9206   12.8073 C   0  0  0  0  0  0  0  0  0  0  0  0
  -30.9232  -19.6228   20.8775 C   0  0  0  0  0  0  0  0  0  0  0  0
  -31.2546  -14.0660   24.6569 C   0  0  0  0  0  0  0  0  0  0  0  0
  -31.2175  -15.3677   23.8571 C   0  0  0  0  0  0  0  0  0  0  0  0
  -31.6473  -12.8411   23.8338 C   0  0  0  0  0  0  0  0  0  0  0  0
  -29.6746  -19.4359   20.0225 C   0  0  0  0  0  0  0  0  0  1  0  0
  -29.5773  -21.1738   25.4524 C   0  0  0  0  0  0  0  0  0  0  0  0
  -25.7952  -17.4268   14.1095 C   0  0  1  0  0  0  0  0  0  0  0  0
  -27.4634  -19.7319   11.6048 C   0  0  2  0  0  0  0  0  0  0  0  0
  -25.5666  -15.9250   13.7782 C   0  0  0  0  0  0  0  0  0  0  0  0
  -25.8803  -11.5293   20.5689 N   0  0  0  0  0  0  0  0  0  0  0  0
  -26.3005  -12.7925   20.3844 N   0  0  0  0  0  0  0  0  0  0  0  0
  -24.7408  -18.6072   16.0118 N   0  0  0  0  0  0  0  0  0  0  0  0
  -30.0893  -12.3012   20.4962 N   0  0  0  0  0  0  0  0  0  0  0  0
  -25.5569  -15.0406   20.3240 N   0  0  0  0  0  0  0  0  0  0  0  0
  -21.7839  -12.7184   21.2003 N   0  0  0  0  0  0  0  0  0  0  0  0
  -30.7950  -16.4607   24.6771 N   0  0  0  0  0  0  0  0  0  0  0  0
  -21.7495  -17.8534   17.8045 N   0  0  0  0  0  0  0  0  0  0  0  0
  -26.1508  -18.2458   12.9557 N   0  0  0  0  0  0  0  0  0  0  0  0
  -30.7156  -12.5760   22.7603 N   0  0  0  0  0  0  0  0  0  0  0  0
  -28.1777  -21.0200   11.8318 N   0  3  0  0  0  0  0  0  0  0  0  0
  -22.6395  -14.8167   20.8489 O   0  0  0  0  0  0  0  0  0  0  0  0
  -23.9562  -17.1670   18.0907 O   0  0  0  0  0  0  0  0  0  0  0  0
  -23.5227  -18.1060   14.0880 O   0  0  0  0  0  0  0  0  0  0  0  0
  -28.1729  -19.0070   13.7976 O   0  0  0  0  0  0  0  0  0  0  0  0
  -32.2764  -12.7880   21.0942 O   0  0  0  0  0  0  0  0  0  0  0  0
  -21.3728   -7.1903   21.7538 O   0  0  0  0  0  0  0  0  0  0  0  0
  -28.6531  -20.3321   20.4583 O   0  0  0  0  0  0  0  0  0  1  0  0
  -23.2837   -3.3841   25.2561 F   0  0  0  0  0  0  0  0  0  0  0  0
  -19.9757   -6.5481   24.0512 F   0  0  0  0  0  0  0  0  0  0  0  0
  1  2  1  0  0  0  0
  1  5  2  0  0  0  0
  2  6  2  0  0  0  0
  3  8  2  0  0  0  0
  3 18  1  0  0  0  0
  4  9  1  0  0  0  0
  4 18  2  0  0  0  0
  5 20  1  0  0  0  0
  6 22  1  0  0  0  0
  7 10  2  0  0  0  0
  7 21  1  0  0  0  0
  8 27  1  0  0  0  0
  9 27  2  0  0  0  0
 10 28  1  0  0  0  0
 11 12  2  0  0  0  0
 11 29  1  0  0  0  0
 12 30  1  0  0  0  0
 13 23  1  0  0  0  0
 13 28  2  0  0  0  0
 14 24  2  0  0  0  0
 14 25  1  0  0  0  0
 15 24  1  0  0  0  0
 15 26  2  0  0  0  0
 16 25  2  0  0  0  0
 16 26  1  0  0  0  0
 17 30  2  0  0  0  0
 17 31  1  0  0  0  0
 18 32  1  0  0  0  0
 19 32  1  0  0  0  0
 19 33  2  0  0  0  0
 19 34  1  0  0  0  0
 20 22  2  0  0  0  0
 20 39  1  0  0  0  0
 21 23  2  0  0  0  0
 21 40  1  0  0  0  0
 22 48  1  0  0  0  0
 23 41  1  0  0  0  0
 24 58  1  0  0  0  0
 25 63  1  0  0  0  0
 26 73  1  0  0  0  0
 27 83  1  0  0  0  0
 28 84  1  0  0  0  0
 29 31  2  0  0  0  0
 29 83  1  0  0  0  0
 30 85  1  0  0  0  0
 31 86  1  0  0  0  0
 32 67  2  0  0  0  0
 33 68  1  0  0  0  0
 33 71  1  0  0  0  0
 34 72  1  0  0  0  0
 34 78  2  0  0  0  0
 35 49  1  0  0  0  0
 35 74  1  0  0  0  0
 35 79  2  0  0  0  0
 36 64  1  0  0  0  0
 36 69  1  0  0  0  0
 36 80  2  0  0  0  0
 37 65  1  0  0  0  0
 37 75  1  0  0  0  0
 37 81  2  0  0  0  0
 38 70  1  0  0  0  0
 38 76  1  0  0  0  0
 38 82  2  0  0  0  0
 39 42  1  0  0  0  0
 40 49  1  0  0  0  0
 41 69  1  0  0  0  0
 42 44  1  0  0  0  0
 43 45  1  0  0  0  0
 43 46  1  0  0  0  0
 44 48  1  0  0  0  0
 45 50  1  0  0  0  0
 46 70  1  0  0  0  0
 47 50  1  0  0  0  0
 47 70  1  0  0  0  0
 48 74  1  0  0  0  0
 49 69  1  0  0  0  0
 50 68  1  0  0  0  0
 51 63  1  0  0  0  0
 52 63  1  0  0  0  0
 53 65  1  0  0  0  0
 54 66  1  0  0  0  0
 55 66  1  0  0  0  0
 56 66  1  0  0  0  0
 57 77  1  0  0  0  0
 58 62  1  0  0  0  0
 59 60  1  0  0  0  0
 59 61  1  0  0  0  0
 60 73  1  0  0  0  0
 61 76  1  0  0  0  0
 62 84  1  0  0  0  0
 64 66  1  0  0  0  0
 64 75  1  0  0  0  0
 65 77  1  0  0  0  0
 67 68  1  0  0  0  0
M  CHG  1  77   1
M  ISO  4  38 100  62 101  76 100  84 101
M  END
> <Batch ID>
0035

> <Smiles>
CNC(C)C(=O)NC(C(=O)N1Cc2cc([101O:1][101CH2:1]Cc3cc(NCCC[100NH:0][100C:0](=O)N4CCCC(n5nc(-c6ccc(Oc7ccc(F)cc7F)cc6)c(C(N)=O)c5N)C4)cc(C(C)C)c3)ccc2CC1C(=O)NC1CCCc2ccccc21)C(C)(C)C

> <Shape>
0.176

> <Color>
0.190

> <Negative vol penalty>
0.000

$$$$

  -OEChem-04052316533D

 87 95  0     1  0  0  0  0  0999 V2000
  -29.7547  -12.8591   19.8645 C   0  0  0  0  0  0  0  0  0  0  0  0
  -29.5919  -14.0008   20.6426 C   0  0  0  0  0  0  0  0  0  0  0  0
  -29.2185  -22.7732   22.6210 C   0  0  0  0  0  0  0  0  0  0  0  0
  -27.8541  -22.8634   20.6292 C   0  0  0  0  0  0  0  0  0  0  0  0
  -28.8348  -12.5655   18.8587 C   0  0  0  0  0  0  0  0  0  0  0  0
  -28.5098  -14.8501   20.4146 C   0  0  0  0  0  0  0  0  0  0  0  0
  -24.0137  -19.2179   23.8822 C   0  0  0  0  0  0  0  0  0  0  0  0
  -28.8733  -21.4333   22.7968 C   0  0  0  0  0  0  0  0  0  0  0  0
  -27.5089  -21.5234   20.8050 C   0  0  0  0  0  0  0  0  0  0  0  0
  -23.5301  -20.5247   23.8343 C   0  0  0  0  0  0  0  0  0  0  0  0
  -28.6385  -17.8887   23.5690 C   0  0  0  0  0  0  0  0  0  0  0  0
  -29.6584  -16.9931   23.8903 C   0  0  0  0  0  0  0  0  0  0  0  0
  -21.9606  -19.8748   22.1215 C   0  0  0  0  0  0  0  0  0  0  0  0
  -19.0810  -28.0122   21.2843 C   0  0  0  0  0  0  0  0  0  0  0  0
  -30.7908  -17.5428   21.8281 C   0  0  0  0  0  0  0  0  0  0  0  0
  -28.7088  -23.4883   21.5372 C   0  0  0  0  0  0  0  0  0  0  0  0
  -30.1581  -25.3811   20.6290 C   0  0  0  0  0  0  0  0  0  0  0  0
  -27.7355  -13.4065   18.6246 C   0  0  0  0  0  0  0  0  0  0  0  0
  -23.4808  -18.2305   23.0410 C   0  0  0  0  0  0  0  0  0  0  0  0
  -27.5751  -14.5682   19.4039 C   0  0  0  0  0  0  0  0  0  0  0  0
  -22.4374  -18.5556   22.1625 C   0  0  0  0  0  0  0  0  0  0  0  0
  -18.4582  -26.8501   21.7259 C   0  0  0  0  0  0  0  0  0  0  0  0
  -18.7611  -26.3406   22.9837 C   0  0  0  0  0  0  0  0  0  0  0  0
  -28.0186  -20.8083   21.8888 C   0  0  0  0  0  0  0  0  0  0  0  0
  -22.5055  -20.8540   22.9518 C   0  0  0  0  0  0  0  0  0  0  0  0
  -28.6947  -18.6113   22.3771 C   0  0  0  0  0  0  0  0  0  0  0  0
  -30.7346  -16.8202   23.0199 C   0  0  0  0  0  0  0  0  0  0  0  0
  -29.7709  -18.4384   21.5068 C   0  0  0  0  0  0  0  0  0  0  0  0
  -29.0645  -24.8727   21.3554 C   0  0  0  0  0  0  0  0  0  0  0  0
  -19.9919  -28.6220   22.1318 C   0  0  0  0  0  0  0  0  0  0  0  0
  -19.6865  -27.0251   23.7550 C   0  0  0  0  0  0  0  0  0  0  0  0
  -30.0540  -26.7443   20.7610 C   0  0  0  0  0  0  0  0  0  0  0  0
  -31.1768  -24.6835   19.9001 C   0  0  0  0  0  0  0  0  0  0  0  0
  -24.6444  -16.3892   20.7260 C   0  0  0  0  0  0  0  0  0  0  0  0
  -21.6972  -15.0400   20.8509 C   0  0  0  0  0  0  0  0  0  0  0  0
  -18.3987  -15.3553   21.6678 C   0  0  0  0  0  0  0  0  0  0  0  0
  -25.4338  -30.3947   21.8471 C   0  0  0  0  0  0  0  0  0  0  0  0
  -26.7937  -13.0728   17.4949 C   0  0  0  0  0  0  0  0  0  0  0  0
  -23.9951  -16.8195   23.1237 C   0  0  0  0  0  0  0  0  0  0  0  0
  -21.8173  -17.5278   21.2528 C   0  0  0  0  0  0  0  0  0  0  0  0
  -25.4676  -13.8258   17.5648 C   0  0  0  0  0  0  0  0  0  0  0  0
  -28.4261  -30.1029   23.7544 C   0  0  0  0  0  0  0  0  0  0  0  0
  -25.7080  -15.3050   17.8493 C   0  0  0  0  0  0  0  0  0  0  0  0
  -29.0277  -28.7753   23.2903 C   0  0  0  0  0  0  0  0  0  0  0  0
  -26.9013  -30.0423   23.8115 C   0  0  0  0  0  0  0  0  0  0  0  0
  -26.8537  -28.2695   22.1001 C   0  0  0  0  0  0  0  0  0  0  0  0
  -26.4004  -15.5010   19.2034 C   0  0  1  0  0  0  0  0  0  0  0  0
  -23.7301  -16.0117   21.8570 C   0  0  1  0  0  0  0  0  0  0  0  0
  -28.3864  -28.2991   21.9730 C   0  0  2  0  0  0  0  0  0  0  0  0
  -17.4741  -26.1698   20.8328 C   0  0  0  0  0  0  0  0  0  0  0  0
  -20.0515  -26.5274   25.1154 C   0  0  0  0  0  0  0  0  0  0  0  0
  -16.2281  -14.0969   21.6189 C   0  0  0  0  0  0  0  0  0  0  0  0
  -21.4798  -15.5365   17.8482 C   0  0  0  0  0  0  0  0  0  0  0  0
  -19.0119  -15.1583   18.0348 C   0  0  0  0  0  0  0  0  0  0  0  0
  -20.6001  -13.3214   18.6056 C   0  0  0  0  0  0  0  0  0  0  0  0
  -18.1251  -15.4821   24.6120 C   0  0  0  0  0  0  0  0  0  0  0  0
  -18.0997  -25.0837   23.4903 C   0  0  0  0  0  0  0  0  0  0  0  0
  -20.6786  -29.8716   21.6915 C   0  0  0  0  0  0  0  0  0  0  0  0
  -18.6583  -23.7975   22.8715 C   0  0  0  0  0  0  0  0  0  0  0  0
  -21.9945  -29.5820   20.9532 C   0  0  0  0  0  0  0  0  0  0  0  0
  -22.7075  -30.8728   20.5397 C   0  0  0  0  0  0  0  0  0  0  0  0
  -20.1323  -23.5635   23.2055 C   0  0  0  0  0  0  0  0  0  0  0  0
  -24.0240  -30.6096   19.8160 C   0  0  0  0  0  0  0  0  0  0  0  0
  -20.6620  -22.2995   22.5420 C   0  0  0  0  0  0  0  0  0  1  0  0
  -20.3747  -15.2954   20.1691 C   0  0  1  0  0  0  0  0  0  0  0  0
  -17.4605  -14.4447   22.4393 C   0  0  2  0  0  0  0  0  0  0  0  0
  -20.3794  -14.8479   18.6801 C   0  0  0  0  0  0  0  0  0  0  0  0
  -28.3206  -25.8346   21.9079 N   0  0  0  0  0  0  0  0  0  0  0  0
  -20.3119  -28.1568   23.3601 N   0  0  0  0  0  0  0  0  0  0  0  0
  -28.9478  -26.9610   21.5288 N   0  0  0  0  0  0  0  0  0  0  0  0
  -22.3588  -16.1635   21.3664 N   0  0  0  0  0  0  0  0  0  0  0  0
  -26.3560  -29.5853   22.5309 N   0  0  0  0  0  0  0  0  0  0  0  0
  -30.8018  -27.7666   20.2942 N   0  0  0  0  0  0  0  0  0  0  0  0
  -31.1342  -23.2830   19.8668 N   0  0  0  0  0  0  0  0  0  0  0  0
  -25.4483  -15.3560   20.2836 N   0  0  0  0  0  0  0  0  0  0  0  0
  -19.3603  -14.6392   20.9870 N   0  0  0  0  0  0  0  0  0  0  0  0
  -24.9713  -29.8900   20.6379 N   0  0  0  0  0  0  0  0  0  0  0  0
  -17.0156  -15.1062   23.6984 N   0  3  0  0  0  0  0  0  0  0  0  0
  -32.1068  -25.2837   19.3100 O   0  0  0  0  0  0  0  0  0  0  0  0
  -24.6211  -17.5327   20.2862 O   0  0  0  0  0  0  0  0  0  0  0  0
  -22.1239  -13.8852   20.9296 O   0  0  0  0  0  0  0  0  0  0  0  0
  -18.2872  -16.5793   21.6662 O   0  0  0  0  0  0  0  0  0  0  0  0
  -25.0551  -31.4886   22.2793 O   0  0  0  0  0  0  0  0  0  0  0  0
  -27.6817  -19.5007   22.0599 O   0  0  0  0  0  0  0  0  0  0  0  0
  -22.0321  -22.1289   22.9026 O   0  0  0  0  0  0  0  0  0  1  0  0
  -31.7147  -15.9612   23.3293 F   0  0  0  0  0  0  0  0  0  0  0  0
  -29.8310  -19.1307   20.3609 F   0  0  0  0  0  0  0  0  0  0  0  0
  1  2  1  0  0  0  0
  1  5  2  0  0  0  0
  2  6  2  0  0  0  0
  3  8  2  0  0  0  0
  3 16  1  0  0  0  0
  4  9  1  0  0  0  0
  4 16  2  0  0  0  0
  5 18  1  0  0  0  0
  6 20  1  0  0  0  0
  7 10  2  0  0  0  0
  7 19  1  0  0  0  0
  8 24  1  0  0  0  0
  9 24  2  0  0  0  0
 10 25  1  0  0  0  0
 11 12  2  0  0  0  0
 11 26  1  0  0  0  0
 12 27  1  0  0  0  0
 13 21  1  0  0  0  0
 13 25  2  0  0  0  0
 14 22  2  0  0  0  0
 14 30  1  0  0  0  0
 15 27  2  0  0  0  0
 15 28  1  0  0  0  0
 16 29  1  0  0  0  0
 17 29  1  0  0  0  0
 17 32  2  0  0  0  0
 17 33  1  0  0  0  0
 18 20  2  0  0  0  0
 18 38  1  0  0  0  0
 19 21  2  0  0  0  0
 19 39  1  0  0  0  0
 20 47  1  0  0  0  0
 21 40  1  0  0  0  0
 22 23  1  0  0  0  0
 22 50  1  0  0  0  0
 23 31  2  0  0  0  0
 23 57  1  0  0  0  0
 24 84  1  0  0  0  0
 25 85  1  0  0  0  0
 26 28  2  0  0  0  0
 26 84  1  0  0  0  0
 27 86  1  0  0  0  0
 28 87  1  0  0  0  0
 29 68  2  0  0  0  0
 30 58  1  0  0  0  0
 30 69  2  0  0  0  0
 31 51  1  0  0  0  0
 31 69  1  0  0  0  0
 32 70  1  0  0  0  0
 32 73  1  0  0  0  0
 33 74  1  0  0  0  0
 33 79  2  0  0  0  0
 34 48  1  0  0  0  0
 34 75  1  0  0  0  0
 34 80  2  0  0  0  0
 35 65  1  0  0  0  0
 35 71  1  0  0  0  0
 35 81  2  0  0  0  0
 36 66  1  0  0  0  0
 36 76  1  0  0  0  0
 36 82  2  0  0  0  0
 37 72  1  0  0  0  0
 37 77  1  0  0  0  0
 37 83  2  0  0  0  0
 38 41  1  0  0  0  0
 39 48  1  0  0  0  0
 40 71  1  0  0  0  0
 41 43  1  0  0  0  0
 42 44  1  0  0  0  0
 42 45  1  0  0  0  0
 43 47  1  0  0  0  0
 44 49  1  0  0  0  0
 45 72  1  0  0  0  0
 46 49  1  0  0  0  0
 46 72  1  0  0  0  0
 47 75  1  0  0  0  0
 48 71  1  0  0  0  0
 49 70  1  0  0  0  0
 52 66  1  0  0  0  0
 53 67  1  0  0  0  0
 54 67  1  0  0  0  0
 55 67  1  0  0  0  0
 56 78  1  0  0  0  0
 57 59  1  0  0  0  0
 58 60  1  0  0  0  0
 59 62  1  0  0  0  0
 60 61  1  0  0  0  0
 61 63  1  0  0  0  0
 62 64  1  0  0  0  0
 63 77  1  0  0  0  0
 64 85  1  0  0  0  0
 65 67  1  0  0  0  0
 65 76  1  0  0  0  0
 66 78  1  0  0  0  0
 68 70  1  0  0  0  0
M  CHG  1  78   1
M  ISO  4  37 100  64 101  77 100  85 101
M  END
> <Batch ID>
0035

> <Smiles>
CNC(C)C(=O)NC(C(=O)N1Cc2cc([101O:1][101CH2:1]CCCc3c(C)cc(CCCC[100NH:0][100C:0](=O)N4CCCC(n5nc(-c6ccc(Oc7ccc(F)cc7F)cc6)c(C(N)=O)c5N)C4)nc3C)ccc2CC1C(=O)NC1CCCc2ccccc21)C(C)(C)C

> <Shape>
0.236

> <Color>
0.058

> <Negative vol penalty>
0.000

$$$$

  -OEChem-04052316533D

 87 95  0     1  0  0  0  0  0999 V2000
  -27.7465  -37.5203   22.2149 C   0  0  0  0  0  0  0  0  0  0  0  0
  -28.2327  -36.3044   21.7453 C   0  0  0  0  0  0  0  0  0  0  0  0
  -22.6737  -11.1550   21.8852 C   0  0  0  0  0  0  0  0  0  0  0  0
  -23.9334  -12.2467   23.6340 C   0  0  0  0  0  0  0  0  0  0  0  0
  -26.7670  -37.5417   23.2068 C   0  0  0  0  0  0  0  0  0  0  0  0
  -27.7405  -35.1091   22.2682 C   0  0  0  0  0  0  0  0  0  0  0  0
  -26.9137  -29.8388   19.2607 C   0  0  0  0  0  0  0  0  0  0  0  0
  -30.6763  -22.9775   21.3570 C   0  0  0  0  0  0  0  0  0  0  0  0
  -29.7820  -24.0334   21.5323 C   0  0  0  0  0  0  0  0  0  0  0  0
  -21.7951  -10.6411   22.8388 C   0  0  0  0  0  0  0  0  0  0  0  0
  -23.0547  -11.7328   24.5877 C   0  0  0  0  0  0  0  0  0  0  0  0
  -27.6838  -28.6802   19.1693 C   0  0  0  0  0  0  0  0  0  0  0  0
  -21.7491   -8.1045   25.0721 C   0  0  0  0  0  0  0  0  0  0  0  0
  -21.3895   -6.7612   24.9637 C   0  0  0  0  0  0  0  0  0  0  0  0
  -26.3685  -27.6748   20.9238 C   0  0  0  0  0  0  0  0  0  0  0  0
  -29.5655  -22.3785   19.2969 C   0  0  0  0  0  0  0  0  0  0  0  0
  -19.0704   -7.4002   24.7386 C   0  0  0  0  0  0  0  0  0  0  0  0
  -23.7430  -11.9578   22.2828 C   0  0  0  0  0  0  0  0  0  0  0  0
  -24.5415  -13.7133   20.6130 C   0  0  0  0  0  0  0  0  0  0  0  0
  -26.2556  -36.3460   23.7354 C   0  0  0  0  0  0  0  0  0  0  0  0
  -25.8704  -29.9283   20.1934 C   0  0  0  0  0  0  0  0  0  0  0  0
  -26.7542  -35.1146   23.2692 C   0  0  0  0  0  0  0  0  0  0  0  0
  -25.5850  -28.8347   21.0233 C   0  0  0  0  0  0  0  0  0  0  0  0
  -30.5681  -22.1500   20.2393 C   0  0  0  0  0  0  0  0  0  0  0  0
  -28.7793  -24.2618   20.5899 C   0  0  0  0  0  0  0  0  0  0  0  0
  -28.6710  -23.4344   19.4722 C   0  0  0  0  0  0  0  0  0  0  0  0
  -21.9855  -10.9300   24.1900 C   0  0  0  0  0  0  0  0  0  0  0  0
  -27.4131  -27.5990   20.0029 C   0  0  0  0  0  0  0  0  0  0  0  0
  -20.7694   -9.0957   25.0138 C   0  0  0  0  0  0  0  0  0  0  0  0
  -20.0502   -6.4090   24.7969 C   0  0  0  0  0  0  0  0  0  0  0  0
  -19.4301   -8.7435   24.8470 C   0  0  0  0  0  0  0  0  0  0  0  0
  -24.6513  -12.4885   21.2982 C   0  0  0  0  0  0  0  0  0  0  0  0
  -25.6452  -13.7500   19.7963 C   0  0  0  0  0  0  0  0  0  0  0  0
  -23.5321  -14.7273   20.7065 C   0  0  0  0  0  0  0  0  0  0  0  0
  -25.2530  -31.7872   22.6968 C   0  0  0  0  0  0  0  0  0  0  0  0
  -22.4220  -30.2037   22.6815 C   0  0  0  0  0  0  0  0  0  0  0  0
  -20.6699  -27.4098   21.8034 C   0  0  0  0  0  0  0  0  0  0  0  0
  -31.0293  -11.1480   20.0983 C   0  0  0  0  0  0  0  0  0  0  0  0
  -25.2313  -36.4201   24.8400 C   0  0  0  0  0  0  0  0  0  0  0  0
  -25.0319  -31.1751   20.2612 C   0  0  0  0  0  0  0  0  0  0  0  0
  -24.4631  -28.8727   22.0275 C   0  0  0  0  0  0  0  0  0  0  0  0
  -24.4932  -35.1048   25.0755 C   0  0  0  0  0  0  0  0  0  0  0  0
  -28.6648  -10.8742   17.4505 C   0  0  0  0  0  0  0  0  0  0  0  0
  -25.4783  -33.9412   25.1241 C   0  0  0  0  0  0  0  0  0  0  0  0
  -27.3581  -11.3674   18.0746 C   0  0  0  0  0  0  0  0  0  0  0  0
  -29.5086  -10.0905   18.4534 C   0  0  0  0  0  0  0  0  0  0  0  0
  -28.4766  -11.2910   20.3422 C   0  0  0  0  0  0  0  0  0  0  0  0
  -26.2275  -33.7966   23.7940 C   0  0  1  0  0  0  0  0  0  0  0  0
  -24.3236  -31.3468   21.6014 C   0  0  1  0  0  0  0  0  0  0  0  0
  -27.6172  -12.1347   19.3851 C   0  0  2  0  0  0  0  0  0  0  0  0
  -27.6054  -23.6596   18.4502 C   0  0  0  0  0  0  0  0  0  0  0  0
  -18.3828  -26.3888   21.9595 C   0  0  0  0  0  0  0  0  0  0  0  0
  -22.9250  -29.5316   25.6150 C   0  0  0  0  0  0  0  0  0  0  0  0
  -21.1527  -27.7715   25.4434 C   0  0  0  0  0  0  0  0  0  0  0  0
  -20.5665  -30.1688   25.0803 C   0  0  0  0  0  0  0  0  0  0  0  0
  -20.3837  -27.3164   18.8592 C   0  0  0  0  0  0  0  0  0  0  0  0
  -31.5349  -21.0082   20.0503 C   0  0  0  0  0  0  0  0  0  0  0  0
  -27.8326  -25.3978   20.7995 C   0  0  0  0  0  0  0  0  0  1  0  0
  -31.0705  -19.6918   20.6840 C   0  0  0  0  0  0  0  0  0  0  0  0
  -32.0731  -18.5484   20.4928 C   0  0  0  0  0  0  0  0  0  0  0  0
  -31.5824  -17.2648   21.1674 C   0  0  0  0  0  0  0  0  0  0  0  0
  -32.5130  -16.0683   20.9480 C   0  0  0  0  0  0  0  0  0  0  0  0
  -31.9870  -14.7672   21.5603 C   0  0  0  0  0  0  0  0  0  0  0  0
  -32.9417  -13.6008   21.2832 C   0  0  0  0  0  0  0  0  0  0  0  0
  -32.4211  -12.2705   21.8194 C   0  0  0  0  0  0  0  0  0  0  0  0
  -21.9011  -28.9388   23.3201 C   0  0  1  0  0  0  0  0  0  0  0  0
  -19.3252  -27.2374   21.1202 C   0  0  2  0  0  0  0  0  0  0  0  0
  -21.6588  -29.1024   24.8472 C   0  0  0  0  0  0  0  0  0  0  0  0
  -25.7388  -11.7970   20.9472 N   0  0  0  0  0  0  0  0  0  0  0  0
  -26.3224  -12.5899   20.0325 N   0  0  0  0  0  0  0  0  0  0  0  0
  -23.6758  -30.1163   22.0601 N   0  0  0  0  0  0  0  0  0  0  0  0
  -29.7189  -10.8744   19.6729 N   0  0  0  0  0  0  0  0  0  0  0  0
  -26.0927  -14.6611   18.9063 N   0  0  0  0  0  0  0  0  0  0  0  0
  -22.4671  -14.5298   21.5959 N   0  0  0  0  0  0  0  0  0  0  0  0
  -25.3844  -33.1584   22.8058 N   0  0  0  0  0  0  0  0  0  0  0  0
  -20.7127  -28.5592   22.5638 N   0  0  0  0  0  0  0  0  0  0  0  0
  -31.1396  -11.9023   21.2600 N   0  0  0  0  0  0  0  0  0  0  0  0
  -19.4983  -26.5772   19.7954 N   0  3  0  0  0  0  0  0  0  0  0  0
  -23.5648  -15.7698   20.0097 O   0  0  0  0  0  0  0  0  0  0  0  0
  -25.8086  -30.9453   23.3926 O   0  0  0  0  0  0  0  0  0  0  0  0
  -21.7384  -31.2295   22.7260 O   0  0  0  0  0  0  0  0  0  0  0  0
  -21.5889  -26.6034   21.6782 O   0  0  0  0  0  0  0  0  0  0  0  0
  -32.0272  -10.7540   19.4851 O   0  0  0  0  0  0  0  0  0  0  0  0
  -21.1281  -10.4289   25.1208 O   0  0  0  0  0  0  0  0  0  0  0  0
  -28.1690  -26.4591   19.9156 O   0  0  0  0  0  0  0  0  0  1  0  0
  -19.7052   -5.1191   24.6912 F   0  0  0  0  0  0  0  0  0  0  0  0
  -18.4845   -9.6914   24.7891 F   0  0  0  0  0  0  0  0  0  0  0  0
  1  2  1  0  0  0  0
  1  5  2  0  0  0  0
  2  6  2  0  0  0  0
  3 10  2  0  0  0  0
  3 18  1  0  0  0  0
  4 11  1  0  0  0  0
  4 18  2  0  0  0  0
  5 20  1  0  0  0  0
  6 22  1  0  0  0  0
  7 12  2  0  0  0  0
  7 21  1  0  0  0  0
  8  9  2  0  0  0  0
  8 24  1  0  0  0  0
  9 25  1  0  0  0  0
 10 27  1  0  0  0  0
 11 27  2  0  0  0  0
 12 28  1  0  0  0  0
 13 14  2  0  0  0  0
 13 29  1  0  0  0  0
 14 30  1  0  0  0  0
 15 23  1  0  0  0  0
 15 28  2  0  0  0  0
 16 24  2  0  0  0  0
 16 26  1  0  0  0  0
 17 30  2  0  0  0  0
 17 31  1  0  0  0  0
 18 32  1  0  0  0  0
 19 32  1  0  0  0  0
 19 33  2  0  0  0  0
 19 34  1  0  0  0  0
 20 22  2  0  0  0  0
 20 39  1  0  0  0  0
 21 23  2  0  0  0  0
 21 40  1  0  0  0  0
 22 48  1  0  0  0  0
 23 41  1  0  0  0  0
 24 57  1  0  0  0  0
 25 26  2  0  0  0  0
 25 58  1  0  0  0  0
 26 51  1  0  0  0  0
 27 84  1  0  0  0  0
 28 85  1  0  0  0  0
 29 31  2  0  0  0  0
 29 84  1  0  0  0  0
 30 86  1  0  0  0  0
 31 87  1  0  0  0  0
 32 69  2  0  0  0  0
 33 70  1  0  0  0  0
 33 73  1  0  0  0  0
 34 74  1  0  0  0  0
 34 79  2  0  0  0  0
 35 49  1  0  0  0  0
 35 75  1  0  0  0  0
 35 80  2  0  0  0  0
 36 66  1  0  0  0  0
 36 71  1  0  0  0  0
 36 81  2  0  0  0  0
 37 67  1  0  0  0  0
 37 76  1  0  0  0  0
 37 82  2  0  0  0  0
 38 72  1  0  0  0  0
 38 77  1  0  0  0  0
 38 83  2  0  0  0  0
 39 42  1  0  0  0  0
 40 49  1  0  0  0  0
 41 71  1  0  0  0  0
 42 44  1  0  0  0  0
 43 45  1  0  0  0  0
 43 46  1  0  0  0  0
 44 48  1  0  0  0  0
 45 50  1  0  0  0  0
 46 72  1  0  0  0  0
 47 50  1  0  0  0  0
 47 72  1  0  0  0  0
 48 75  1  0  0  0  0
 49 71  1  0  0  0  0
 50 70  1  0  0  0  0
 52 67  1  0  0  0  0
 53 68  1  0  0  0  0
 54 68  1  0  0  0  0
 55 68  1  0  0  0  0
 56 78  1  0  0  0  0
 57 59  1  0  0  0  0
 58 85  1  0  0  0  0
 59 60  1  0  0  0  0
 60 61  1  0  0  0  0
 61 62  1  0  0  0  0
 62 63  1  0  0  0  0
 63 64  1  0  0  0  0
 64 65  1  0  0  0  0
 65 77  1  0  0  0  0
 66 68  1  0  0  0  0
 66 76  1  0  0  0  0
 67 78  1  0  0  0  0
 69 70  1  0  0  0  0
M  CHG  1  78   1
M  ISO  4  38 100  58 101  77 100  85 101
M  END
> <Batch ID>
0035

> <Smiles>
CNC(C)C(=O)NC(C(=O)N1Cc2cc([101O:1][101CH2:1]c3ccc(CCCCCCCC[100NH:0][100C:0](=O)N4CCCC(n5nc(-c6ccc(Oc7ccc(F)cc7F)cc6)c(C(N)=O)c5N)C4)cc3C)ccc2CC1C(=O)NC1CCCc2ccccc21)C(C)(C)C

> <Shape>
0.307

> <Color>
0.096

> <Negative vol penalty>
0.000

$$$$

  -OEChem-04052316533D

 85 93  0     1  0  0  0  0  0999 V2000
  -22.1720   -8.7475   20.7054 C   0  0  0  0  0  0  0  0  0  0  0  0
  -21.7778  -10.0423   21.0271 C   0  0  0  0  0  0  0  0  0  0  0  0
  -30.0250  -27.7471   18.7339 C   0  0  0  0  0  0  0  0  0  0  0  0
  -29.6718  -26.4813   20.7612 C   0  0  0  0  0  0  0  0  0  0  0  0
  -23.4943   -8.3528   20.9046 C   0  0  0  0  0  0  0  0  0  0  0  0
  -22.7056  -10.9430   21.5492 C   0  0  0  0  0  0  0  0  0  0  0  0
  -22.3936  -15.5179   19.4004 C   0  0  0  0  0  0  0  0  0  0  0  0
  -31.3982  -27.5236   18.8336 C   0  0  0  0  0  0  0  0  0  0  0  0
  -31.0450  -26.2578   20.8609 C   0  0  0  0  0  0  0  0  0  0  0  0
  -21.3583  -16.3506   19.8230 C   0  0  0  0  0  0  0  0  0  0  0  0
  -33.3432  -24.2170   19.4560 C   0  0  0  0  0  0  0  0  0  0  0  0
  -33.7672  -22.9242   19.7634 C   0  0  0  0  0  0  0  0  0  0  0  0
  -22.9010  -17.5342   21.2507 C   0  0  0  0  0  0  0  0  0  0  0  0
  -19.0299  -24.7777   22.9895 C   0  0  0  0  0  0  0  0  0  0  0  0
  -19.7069  -25.0871   20.6911 C   0  0  0  0  0  0  0  0  0  0  0  0
  -34.8456  -23.7528   21.7603 C   0  0  0  0  0  0  0  0  0  0  0  0
  -29.1617  -27.2260   19.6977 C   0  0  0  0  0  0  0  0  0  0  0  0
  -26.7970  -26.6547   18.9301 C   0  0  0  0  0  0  0  0  0  0  0  0
  -24.4410   -9.2520   21.4203 C   0  0  0  0  0  0  0  0  0  0  0  0
  -23.6903  -15.6804   19.9088 C   0  0  0  0  0  0  0  0  0  0  0  0
  -24.0415  -10.5595   21.7567 C   0  0  0  0  0  0  0  0  0  0  0  0
  -23.9516  -16.7039   20.8310 C   0  0  0  0  0  0  0  0  0  0  0  0
  -19.2215  -24.2637   21.7071 C   0  0  0  0  0  0  0  0  0  0  0  0
  -19.3235  -26.1150   23.2560 C   0  0  0  0  0  0  0  0  0  0  0  0
  -19.8089  -26.9383   22.2401 C   0  0  0  0  0  0  0  0  0  0  0  0
  -31.9082  -26.7790   19.8970 C   0  0  0  0  0  0  0  0  0  0  0  0
  -21.6113  -17.3570   20.7504 C   0  0  0  0  0  0  0  0  0  0  0  0
  -33.6705  -25.2777   20.3007 C   0  0  0  0  0  0  0  0  0  0  0  0
  -34.5184  -22.6921   20.9155 C   0  0  0  0  0  0  0  0  0  0  0  0
  -34.4216  -25.0456   21.4528 C   0  0  0  0  0  0  0  0  0  0  0  0
  -20.0006  -26.4244   20.9576 C   0  0  0  0  0  0  0  0  0  0  0  0
  -27.7432  -27.4570   19.5956 C   0  0  0  0  0  0  0  0  0  0  0  0
  -25.6008  -27.3006   19.1260 C   0  0  0  0  0  0  0  0  0  0  0  0
  -26.9828  -25.4347   18.2002 C   0  0  0  0  0  0  0  0  0  0  0  0
  -25.6814  -13.8668   21.5971 C   0  0  0  0  0  0  0  0  0  0  0  0
  -27.7493  -16.3045   21.0459 C   0  0  0  0  0  0  0  0  0  0  0  0
  -28.2067  -19.6068   20.3164 C   0  0  0  0  0  0  0  0  0  0  0  0
  -22.0041  -29.9821   22.4455 C   0  0  0  0  0  0  0  0  0  0  0  0
  -25.8478   -8.7653   21.6624 C   0  0  0  0  0  0  0  0  0  0  0  0
  -24.8017  -14.7911   19.4227 C   0  0  0  0  0  0  0  0  0  0  0  0
  -25.3304  -16.9330   21.3919 C   0  0  0  0  0  0  0  0  0  0  0  0
  -26.8554   -9.8933   21.8691 C   0  0  0  0  0  0  0  0  0  0  0  0
  -24.6089  -31.9066   20.9664 C   0  0  0  0  0  0  0  0  0  0  0  0
  -26.3053  -10.9283   22.8452 C   0  0  0  0  0  0  0  0  0  0  0  0
  -25.5808  -30.8548   20.4289 C   0  0  0  0  0  0  0  0  0  0  0  0
  -23.9783  -31.4700   22.2869 C   0  0  0  0  0  0  0  0  0  0  0  0
  -24.3016  -29.0939   21.7180 C   0  0  0  0  0  0  0  0  0  0  0  0
  -25.0243  -11.5729   22.3020 C   0  0  1  0  0  0  0  0  0  0  0  0
  -25.9759  -14.7172   20.3939 C   0  0  1  0  0  0  0  0  0  0  0  0
  -24.9205  -29.4647   20.3594 C   0  0  2  0  0  0  0  0  0  0  0  0
  -20.4131  -26.7788   25.4145 C   0  0  0  0  0  0  0  0  0  0  0  0
  -30.0111  -21.3156   19.9676 C   0  0  0  0  0  0  0  0  0  0  0  0
  -28.2114  -16.4280   24.0594 C   0  0  0  0  0  0  0  0  0  0  0  0
  -29.2341  -18.6907   23.7396 C   0  0  0  0  0  0  0  0  0  0  0  0
  -30.2779  -16.6905   22.6755 C   0  0  0  0  0  0  0  0  0  0  0  0
  -27.3378  -20.1265   17.5354 C   0  0  0  0  0  0  0  0  0  0  0  0
  -18.9049  -22.8176   21.4200 C   0  0  0  0  0  0  0  0  0  0  0  0
  -19.1072  -26.6388   24.6384 C   0  0  0  0  0  0  0  0  0  0  0  0
  -20.1185  -28.3714   22.5427 C   0  0  0  0  0  0  0  0  0  0  0  0
  -20.0880  -21.8689   21.6418 C   0  0  0  0  0  0  0  0  0  0  0  0
  -19.7704  -20.4192   21.2722 C   0  0  0  0  0  0  0  0  0  0  0  0
  -20.9546  -19.5010   21.5429 C   0  0  0  0  0  0  0  0  0  1  0  0
  -28.1010  -17.5894   21.7562 C   0  0  1  0  0  0  0  0  0  0  0  0
  -29.0965  -20.3001   19.3005 C   0  0  2  0  0  0  0  0  0  0  0  0
  -28.9296  -17.3443   23.0488 C   0  0  0  0  0  0  0  0  0  0  0  0
  -27.1953  -28.5306   20.1711 N   0  0  0  0  0  0  0  0  0  0  0  0
  -25.8919  -28.4075   19.8677 N   0  0  0  0  0  0  0  0  0  0  0  0
  -26.3825  -16.0334   20.8904 N   0  0  0  0  0  0  0  0  0  0  0  0
  -23.3682  -30.1449   22.1527 N   0  0  0  0  0  0  0  0  0  0  0  0
  -24.3388  -27.0240   18.7343 N   0  0  0  0  0  0  0  0  0  0  0  0
  -28.2777  -24.9087   18.0966 N   0  0  0  0  0  0  0  0  0  0  0  0
  -25.3440  -12.5614   21.2945 N   0  0  0  0  0  0  0  0  0  0  0  0
  -28.7681  -18.4318   20.7694 N   0  0  0  0  0  0  0  0  0  0  0  0
  -21.5042  -28.6954   22.2863 N   0  0  0  0  0  0  0  0  0  0  0  0
  -28.2681  -21.0096   18.2849 N   0  3  0  0  0  0  0  0  0  0  0  0
  -26.0311  -24.8376   17.6422 O   0  0  0  0  0  0  0  0  0  0  0  0
  -25.7561  -14.3583   22.7172 O   0  0  0  0  0  0  0  0  0  0  0  0
  -28.6539  -15.5720   20.6377 O   0  0  0  0  0  0  0  0  0  0  0  0
  -27.1237  -20.0640   20.6751 O   0  0  0  0  0  0  0  0  0  0  0  0
  -21.2838  -30.9153   22.8160 O   0  0  0  0  0  0  0  0  0  0  0  0
  -33.2481  -26.5605   19.9945 O   0  0  0  0  0  0  0  0  0  0  0  0
  -20.6024  -18.1708   21.1651 O   0  0  0  0  0  0  0  0  0  1  0  0
  -34.9242  -21.4503   21.2114 F   0  0  0  0  0  0  0  0  0  0  0  0
  -34.7381  -26.0604   22.2688 F   0  0  0  0  0  0  0  0  0  0  0  0
  -20.6011  -27.4105   19.6738 Cl  0  0  0  0  0  0  0  0  0  0  0  0
  1  2  1  0  0  0  0
  1  5  2  0  0  0  0
  2  6  2  0  0  0  0
  3  8  2  0  0  0  0
  3 17  1  0  0  0  0
  4  9  1  0  0  0  0
  4 17  2  0  0  0  0
  5 19  1  0  0  0  0
  6 21  1  0  0  0  0
  7 10  2  0  0  0  0
  7 20  1  0  0  0  0
  8 26  1  0  0  0  0
  9 26  2  0  0  0  0
 10 27  1  0  0  0  0
 11 12  2  0  0  0  0
 11 28  1  0  0  0  0
 12 29  1  0  0  0  0
 13 22  1  0  0  0  0
 13 27  2  0  0  0  0
 14 23  2  0  0  0  0
 14 24  1  0  0  0  0
 15 23  1  0  0  0  0
 15 31  2  0  0  0  0
 16 29  2  0  0  0  0
 16 30  1  0  0  0  0
 17 32  1  0  0  0  0
 18 32  1  0  0  0  0
 18 33  2  0  0  0  0
 18 34  1  0  0  0  0
 19 21  2  0  0  0  0
 19 39  1  0  0  0  0
 20 22  2  0  0  0  0
 20 40  1  0  0  0  0
 21 48  1  0  0  0  0
 22 41  1  0  0  0  0
 23 57  1  0  0  0  0
 24 25  2  0  0  0  0
 24 58  1  0  0  0  0
 25 31  1  0  0  0  0
 25 59  1  0  0  0  0
 26 81  1  0  0  0  0
 27 82  1  0  0  0  0
 28 30  2  0  0  0  0
 28 81  1  0  0  0  0
 29 83  1  0  0  0  0
 30 84  1  0  0  0  0
 31 85  1  0  0  0  0
 32 66  2  0  0  0  0
 33 67  1  0  0  0  0
 33 70  1  0  0  0  0
 34 71  1  0  0  0  0
 34 76  2  0  0  0  0
 35 49  1  0  0  0  0
 35 72  1  0  0  0  0
 35 77  2  0  0  0  0
 36 63  1  0  0  0  0
 36 68  1  0  0  0  0
 36 78  2  0  0  0  0
 37 64  1  0  0  0  0
 37 73  1  0  0  0  0
 37 79  2  0  0  0  0
 38 69  1  0  0  0  0
 38 74  1  0  0  0  0
 38 80  2  0  0  0  0
 39 42  1  0  0  0  0
 40 49  1  0  0  0  0
 41 68  1  0  0  0  0
 42 44  1  0  0  0  0
 43 45  1  0  0  0  0
 43 46  1  0  0  0  0
 44 48  1  0  0  0  0
 45 50  1  0  0  0  0
 46 69  1  0  0  0  0
 47 50  1  0  0  0  0
 47 69  1  0  0  0  0
 48 72  1  0  0  0  0
 49 68  1  0  0  0  0
 50 67  1  0  0  0  0
 51 58  1  0  0  0  0
 52 64  1  0  0  0  0
 53 65  1  0  0  0  0
 54 65  1  0  0  0  0
 55 65  1  0  0  0  0
 56 75  1  0  0  0  0
 57 60  1  0  0  0  0
 59 74  1  0  0  0  0
 60 61  1  0  0  0  0
 61 62  1  0  0  0  0
 62 82  1  0  0  0  0
 63 65  1  0  0  0  0
 63 73  1  0  0  0  0
 64 75  1  0  0  0  0
 66 67  1  0  0  0  0
M  CHG  1  75   1
M  ISO  4  38 100  62 101  74 100  82 101
M  END
> <Batch ID>
0035

> <Smiles>
CCc1cc(CCC[101CH2:1][101O:1]c2ccc3c(c2)CN(C(=O)C(NC(=O)C(C)NC)C(C)(C)C)C(C(=O)NC2CCCc4ccccc42)C3)cc(Cl)c1C[100NH:0][100C:0](=O)N1CCCC(n2nc(-c3ccc(Oc4ccc(F)cc4F)cc3)c(C(N)=O)c2N)C1

> <Shape>
0.258

> <Color>
0.050

> <Negative vol penalty>
0.000

$$$$

  -OEChem-04052316533D

 83 91  0     1  0  0  0  0  0999 V2000
  -28.2073   -8.3300   30.3892 C   0  0  0  0  0  0  0  0  0  0  0  0
  -29.0127   -9.4109   30.0451 C   0  0  0  0  0  0  0  0  0  0  0  0
  -23.2881   -9.7998   19.9132 C   0  0  0  0  0  0  0  0  0  0  0  0
  -23.7394   -9.9398   22.2825 C   0  0  0  0  0  0  0  0  0  0  0  0
  -26.8332   -8.3851   30.1601 C   0  0  0  0  0  0  0  0  0  0  0  0
  -28.4443  -10.5474   29.4707 C   0  0  0  0  0  0  0  0  0  0  0  0
  -30.2061  -16.3562   30.2828 C   0  0  0  0  0  0  0  0  0  0  0  0
  -22.5617   -8.6272   20.1208 C   0  0  0  0  0  0  0  0  0  0  0  0
  -23.0130   -8.7672   22.4902 C   0  0  0  0  0  0  0  0  0  0  0  0
  -31.0006  -17.2108   29.5198 C   0  0  0  0  0  0  0  0  0  0  0  0
  -20.9742   -6.0068   23.6908 C   0  0  0  0  0  0  0  0  0  0  0  0
  -20.0728   -5.9812   24.7549 C   0  0  0  0  0  0  0  0  0  0  0  0
  -29.0177  -18.1441   28.5116 C   0  0  0  0  0  0  0  0  0  0  0  0
  -30.7716  -16.5533   25.1407 C   0  0  0  0  0  0  0  0  0  0  0  0
  -32.8199  -15.3435   23.6835 C   0  0  0  0  0  0  0  0  0  0  0  0
  -18.8631   -7.8286   23.7747 C   0  0  0  0  0  0  0  0  0  0  0  0
  -23.8769  -10.4561   20.9940 C   0  0  0  0  0  0  0  0  0  0  0  0
  -24.1363  -12.9861   20.7960 C   0  0  0  0  0  0  0  0  0  0  0  0
  -26.2464   -9.5266   29.5915 C   0  0  0  0  0  0  0  0  0  0  0  0
  -28.8096  -16.3816   30.1578 C   0  0  0  0  0  0  0  0  0  0  0  0
  -27.0612  -10.6173   29.2326 C   0  0  0  0  0  0  0  0  0  0  0  0
  -28.2077  -17.2906   29.2760 C   0  0  0  0  0  0  0  0  0  0  0  0
  -30.7009  -15.1943   24.8345 C   0  0  0  0  0  0  0  0  0  0  0  0
  -32.8905  -16.7025   23.9897 C   0  0  0  0  0  0  0  0  0  0  0  0
  -31.8664  -17.3074   24.7183 C   0  0  0  0  0  0  0  0  0  0  0  0
  -31.7250  -14.5894   24.1059 C   0  0  0  0  0  0  0  0  0  0  0  0
  -22.4242   -8.1109   21.4093 C   0  0  0  0  0  0  0  0  0  0  0  0
  -30.4066  -18.1029   28.6319 C   0  0  0  0  0  0  0  0  0  0  0  0
  -20.8201   -6.9433   22.6685 C   0  0  0  0  0  0  0  0  0  0  0  0
  -19.0173   -6.8921   24.7969 C   0  0  0  0  0  0  0  0  0  0  0  0
  -19.7645   -7.8542   22.7105 C   0  0  0  0  0  0  0  0  0  0  0  0
  -24.6278  -11.6670   20.7801 C   0  0  0  0  0  0  0  0  0  0  0  0
  -25.2377  -13.7661   20.5410 C   0  0  0  0  0  0  0  0  0  0  0  0
  -22.8033  -13.4637   21.0213 C   0  0  0  0  0  0  0  0  0  0  0  0
  -26.6001  -14.2834   29.2527 C   0  0  0  0  0  0  0  0  0  0  0  0
  -24.5552  -16.6199   30.1916 C   0  0  0  0  0  0  0  0  0  0  0  0
  -24.0200  -19.9398   30.7737 C   0  0  0  0  0  0  0  0  0  0  0  0
  -31.1089  -12.9228   21.3590 C   0  0  0  0  0  0  0  0  0  0  0  0
  -24.7629   -9.5212   29.3194 C   0  0  0  0  0  0  0  0  0  0  0  0
  -27.9654  -15.4718   31.0075 C   0  0  0  0  0  0  0  0  0  0  0  0
  -26.7119  -17.3714   29.1194 C   0  0  0  0  0  0  0  0  0  0  0  0
  -24.1877  -10.9096   29.0516 C   0  0  0  0  0  0  0  0  0  0  0  0
  -29.4593  -13.6630   18.2918 C   0  0  0  0  0  0  0  0  0  0  0  0
  -25.0679  -11.6709   28.0653 C   0  0  0  0  0  0  0  0  0  0  0  0
  -27.9896  -13.3544   18.5832 C   0  0  0  0  0  0  0  0  0  0  0  0
  -30.3927  -12.6834   18.9997 C   0  0  0  0  0  0  0  0  0  0  0  0
  -28.7065  -12.2536   20.7449 C   0  0  0  0  0  0  0  0  0  0  0  0
  -26.4784  -11.8774   28.6303 C   0  0  1  0  0  0  0  0  0  0  0  0
  -26.5779  -15.2255   30.4230 C   0  0  1  0  0  0  0  0  0  0  0  0
  -27.7284  -13.2490   20.0977 C   0  0  2  0  0  0  0  0  0  0  0  0
  -29.5194  -14.4071   25.2979 C   0  0  0  0  0  0  0  0  0  0  0  0
  -34.0720  -17.4898   23.5262 C   0  0  0  0  0  0  0  0  0  0  0  0
  -22.2370  -21.5504   31.4979 C   0  0  0  0  0  0  0  0  0  0  0  0
  -23.2576  -16.4179   27.4374 C   0  0  0  0  0  0  0  0  0  0  0  0
  -22.1626  -18.6278   27.8681 C   0  0  0  0  0  0  0  0  0  0  0  0
  -21.6469  -16.6758   29.3331 C   0  0  0  0  0  0  0  0  0  0  0  0
  -25.5822  -20.7848   33.1411 C   0  0  0  0  0  0  0  0  0  0  0  0
  -31.9204  -18.7749   25.0605 C   0  0  0  0  0  0  0  0  0  0  0  0
  -31.6713  -13.1359   23.7668 C   0  0  0  0  0  0  0  0  0  0  0  0
  -32.8824  -19.1058   26.2036 C   0  0  0  0  0  0  0  0  0  0  0  0
  -32.4821  -18.4740   27.5317 C   0  0  0  0  0  0  0  0  0  1  0  0
  -23.9023  -17.8031   29.5187 C   0  0  1  0  0  0  0  0  0  0  0  0
  -23.3910  -20.6679   31.9478 C   0  0  2  0  0  0  0  0  0  0  0  0
  -22.7706  -17.3785   28.5406 C   0  0  0  0  0  0  0  0  0  0  0  0
  -25.9394  -11.6084   20.5343 N   0  0  0  0  0  0  0  0  0  0  0  0
  -26.2813  -12.9004   20.3932 N   0  0  0  0  0  0  0  0  0  0  0  0
  -25.9297  -16.4569   29.9676 N   0  0  0  0  0  0  0  0  0  0  0  0
  -30.0938  -12.6316   20.4328 N   0  0  0  0  0  0  0  0  0  0  0  0
  -25.4056  -15.1010   20.4308 N   0  0  0  0  0  0  0  0  0  0  0  0
  -21.7908  -12.5267   21.2687 N   0  0  0  0  0  0  0  0  0  0  0  0
  -26.4821  -12.9512   29.6005 N   0  0  0  0  0  0  0  0  0  0  0  0
  -23.4642  -18.6914   30.5899 N   0  0  0  0  0  0  0  0  0  0  0  0
  -30.7395  -12.8569   22.6969 N   0  0  0  0  0  0  0  0  0  0  0  0
  -24.4022  -21.5266   32.6268 N   0  3  0  0  0  0  0  0  0  0  0  0
  -22.5154  -14.6841   20.9873 O   0  0  0  0  0  0  0  0  0  0  0  0
  -26.7141  -14.7319   28.1180 O   0  0  0  0  0  0  0  0  0  0  0  0
  -23.8724  -15.8721   30.8959 O   0  0  0  0  0  0  0  0  0  0  0  0
  -24.9124  -20.4309   30.0860 O   0  0  0  0  0  0  0  0  0  0  0  0
  -32.2578  -13.2247   21.0187 O   0  0  0  0  0  0  0  0  0  0  0  0
  -21.7153   -6.9669   21.6123 O   0  0  0  0  0  0  0  0  0  0  0  0
  -31.1797  -18.9378   27.8855 O   0  0  0  0  0  0  0  0  0  1  0  0
  -18.1509   -6.8664   25.8181 F   0  0  0  0  0  0  0  0  0  0  0  0
  -19.6106   -8.7554   21.7307 F   0  0  0  0  0  0  0  0  0  0  0  0
  1  2  1  0  0  0  0
  1  5  2  0  0  0  0
  2  6  2  0  0  0  0
  3  8  2  0  0  0  0
  3 17  1  0  0  0  0
  4  9  1  0  0  0  0
  4 17  2  0  0  0  0
  5 19  1  0  0  0  0
  6 21  1  0  0  0  0
  7 10  2  0  0  0  0
  7 20  1  0  0  0  0
  8 27  1  0  0  0  0
  9 27  2  0  0  0  0
 10 28  1  0  0  0  0
 11 12  2  0  0  0  0
 11 29  1  0  0  0  0
 12 30  1  0  0  0  0
 13 22  1  0  0  0  0
 13 28  2  0  0  0  0
 14 23  2  0  0  0  0
 14 25  1  0  0  0  0
 15 24  1  0  0  0  0
 15 26  2  0  0  0  0
 16 30  2  0  0  0  0
 16 31  1  0  0  0  0
 17 32  1  0  0  0  0
 18 32  1  0  0  0  0
 18 33  2  0  0  0  0
 18 34  1  0  0  0  0
 19 21  2  0  0  0  0
 19 39  1  0  0  0  0
 20 22  2  0  0  0  0
 20 40  1  0  0  0  0
 21 48  1  0  0  0  0
 22 41  1  0  0  0  0
 23 26  1  0  0  0  0
 23 51  1  0  0  0  0
 24 25  2  0  0  0  0
 24 52  1  0  0  0  0
 25 58  1  0  0  0  0
 26 59  1  0  0  0  0
 27 80  1  0  0  0  0
 28 81  1  0  0  0  0
 29 31  2  0  0  0  0
 29 80  1  0  0  0  0
 30 82  1  0  0  0  0
 31 83  1  0  0  0  0
 32 65  2  0  0  0  0
 33 66  1  0  0  0  0
 33 69  1  0  0  0  0
 34 70  1  0  0  0  0
 34 75  2  0  0  0  0
 35 49  1  0  0  0  0
 35 71  1  0  0  0  0
 35 76  2  0  0  0  0
 36 62  1  0  0  0  0
 36 67  1  0  0  0  0
 36 77  2  0  0  0  0
 37 63  1  0  0  0  0
 37 72  1  0  0  0  0
 37 78  2  0  0  0  0
 38 68  1  0  0  0  0
 38 73  1  0  0  0  0
 38 79  2  0  0  0  0
 39 42  1  0  0  0  0
 40 49  1  0  0  0  0
 41 67  1  0  0  0  0
 42 44  1  0  0  0  0
 43 45  1  0  0  0  0
 43 46  1  0  0  0  0
 44 48  1  0  0  0  0
 45 50  1  0  0  0  0
 46 68  1  0  0  0  0
 47 50  1  0  0  0  0
 47 68  1  0  0  0  0
 48 71  1  0  0  0  0
 49 67  1  0  0  0  0
 50 66  1  0  0  0  0
 53 63  1  0  0  0  0
 54 64  1  0  0  0  0
 55 64  1  0  0  0  0
 56 64  1  0  0  0  0
 57 74  1  0  0  0  0
 58 60  1  0  0  0  0
 59 73  1  0  0  0  0
 60 61  1  0  0  0  0
 61 81  1  0  0  0  0
 62 64  1  0  0  0  0
 62 72  1  0  0  0  0
 63 74  1  0  0  0  0
 65 66  1  0  0  0  0
M  CHG  1  74   1
M  ISO  4  38 100  61 101  73 100  81 101
M  END
> <Batch ID>
0035

> <Smiles>
CNC(C)C(=O)NC(C(=O)N1Cc2cc([101O:1][101CH2:1]CCc3cc(C)c(C[100NH:0][100C:0](=O)N4CCCC(n5nc(-c6ccc(Oc7ccc(F)cc7F)cc6)c(C(N)=O)c5N)C4)cc3C)ccc2CC1C(=O)NC1CCCc2ccccc21)C(C)(C)C

> <Shape>
0.131

> <Color>
0.182

> <Negative vol penalty>
0.000

$$$$

  -OEChem-04052316533D

 86 94  0     1  0  0  0  0  0999 V2000
  -26.7795  -19.2927   16.2926 C   0  0  0  0  0  0  0  0  0  0  0  0
  -25.9482  -20.4077   16.3243 C   0  0  0  0  0  0  0  0  0  0  0  0
  -24.6466  -15.0688   22.1910 C   0  0  0  0  0  0  0  0  0  0  0  0
  -25.7807  -15.8948   20.2241 C   0  0  0  0  0  0  0  0  0  0  0  0
  -27.6877  -19.0721   17.3272 C   0  0  0  0  0  0  0  0  0  0  0  0
  -26.0238  -21.3023   17.3913 C   0  0  0  0  0  0  0  0  0  0  0  0
  -25.2999  -28.2679   18.8987 C   0  0  0  0  0  0  0  0  0  0  0  0
  -25.0607  -13.7724   21.8854 C   0  0  0  0  0  0  0  0  0  0  0  0
  -26.1948  -14.5984   19.9185 C   0  0  0  0  0  0  0  0  0  0  0  0
  -24.6257  -29.1155   19.7767 C   0  0  0  0  0  0  0  0  0  0  0  0
  -27.8538  -11.5570   18.8159 C   0  0  0  0  0  0  0  0  0  0  0  0
  -29.1819  -11.3734   18.4313 C   0  0  0  0  0  0  0  0  0  0  0  0
  -26.2879  -28.6751   21.4685 C   0  0  0  0  0  0  0  0  0  0  0  0
  -21.9198  -28.3409   23.5861 C   0  0  0  0  0  0  0  0  0  0  0  0
  -19.8454  -29.9083   22.5748 C   0  0  0  0  0  0  0  0  0  0  0  0
  -29.9193  -12.2583   20.5550 C   0  0  0  0  0  0  0  0  0  0  0  0
  -25.0065  -16.1301   21.3604 C   0  0  0  0  0  0  0  0  0  0  0  0
  -25.2590  -18.4157   22.4647 C   0  0  0  0  0  0  0  0  0  0  0  0
  -27.7813  -19.9696   18.4026 C   0  0  0  0  0  0  0  0  0  0  0  0
  -26.4691  -27.6079   19.3033 C   0  0  0  0  0  0  0  0  0  0  0  0
  -26.9332  -21.0928   18.4419 C   0  0  0  0  0  0  0  0  0  0  0  0
  -26.9764  -27.8216   20.5929 C   0  0  0  0  0  0  0  0  0  0  0  0
  -20.7498  -27.7368   23.1260 C   0  0  0  0  0  0  0  0  0  0  0  0
  -22.0527  -29.7287   23.5405 C   0  0  0  0  0  0  0  0  0  0  0  0
  -19.7126  -28.5205   22.6204 C   0  0  0  0  0  0  0  0  0  0  0  0
  -25.8348  -13.5372   20.7492 C   0  0  0  0  0  0  0  0  0  0  0  0
  -25.1181  -29.3170   21.0628 C   0  0  0  0  0  0  0  0  0  0  0  0
  -27.5584  -12.0914   20.0701 C   0  0  0  0  0  0  0  0  0  0  0  0
  -21.0155  -30.5124   23.0349 C   0  0  0  0  0  0  0  0  0  0  0  0
  -30.2147  -11.7240   19.3008 C   0  0  0  0  0  0  0  0  0  0  0  0
  -28.5911  -12.4420   20.9396 C   0  0  0  0  0  0  0  0  0  0  0  0
  -24.5786  -17.4694   21.6752 C   0  0  0  0  0  0  0  0  0  0  0  0
  -24.4426  -19.5202   22.4567 C   0  0  0  0  0  0  0  0  0  0  0  0
  -26.5167  -18.3063   23.1444 C   0  0  0  0  0  0  0  0  0  0  0  0
  -27.3246  -24.5654   19.6422 C   0  0  0  0  0  0  0  0  0  0  0  0
  -30.2392  -25.8573   20.2410 C   0  0  0  0  0  0  0  0  0  0  0  0
  -32.0556  -28.5567   21.2709 C   0  0  0  0  0  0  0  0  0  0  0  0
  -21.1653  -23.1302   19.7413 C   0  0  0  0  0  0  0  0  0  0  0  0
  -28.7453  -19.6639   19.5215 C   0  0  0  0  0  0  0  0  0  0  0  0
  -27.1992  -26.7177   18.3354 C   0  0  0  0  0  0  0  0  0  0  0  0
  -28.2389  -27.1526   21.0694 C   0  0  0  0  0  0  0  0  0  0  0  0
  -29.0244  -20.8595   20.4287 C   0  0  0  0  0  0  0  0  0  0  0  0
  -19.6833  -20.0845   20.8388 C   0  0  0  0  0  0  0  0  0  0  0  0
  -27.7218  -21.5555   20.8104 C   0  0  0  0  0  0  0  0  0  0  0  0
  -20.8807  -19.2092   21.2131 C   0  0  0  0  0  0  0  0  0  0  0  0
  -19.9811  -20.9576   19.6218 C   0  0  0  0  0  0  0  0  0  0  0  0
  -22.3966  -20.9062   20.1083 C   0  0  0  0  0  0  0  0  0  0  0  0
  -27.0028  -22.0992   19.5699 C   0  0  1  0  0  0  0  0  0  0  0  0
  -28.0982  -25.6959   19.0247 C   0  0  1  0  0  0  0  0  0  0  0  0
  -22.1636  -20.0486   21.3639 C   0  0  2  0  0  0  0  0  0  0  0  0
  -18.4505  -27.8966   22.1220 C   0  0  0  0  0  0  0  0  0  0  0  0
  -34.4156  -29.2985   21.6919 C   0  0  0  0  0  0  0  0  0  0  0  0
  -30.2767  -24.2561   22.8380 C   0  0  0  0  0  0  0  0  0  0  0  0
  -32.1399  -25.7258   23.6358 C   0  0  0  0  0  0  0  0  0  0  0  0
  -32.4550  -24.3039   21.6105 C   0  0  0  0  0  0  0  0  0  0  0  0
  -31.8679  -30.6989   19.2376 C   0  0  0  0  0  0  0  0  0  0  0  0
  -20.0202  -32.5923   22.4526 C   0  0  0  0  0  0  0  0  0  0  0  0
  -20.6291  -26.2494   23.1860 C   0  0  0  0  0  0  0  0  0  0  0  0
  -23.3262  -30.3653   24.0418 C   0  0  0  0  0  0  0  0  0  0  0  0
  -20.8429  -25.5948   21.8131 C   0  0  0  0  0  0  0  0  0  0  0  0
  -22.2450  -25.8765   21.2650 C   0  0  0  0  0  0  0  0  0  0  0  0
  -22.4856  -25.2250   19.9070 C   0  0  0  0  0  0  0  0  0  0  0  0
  -24.5605  -29.8441   23.3138 C   0  0  0  0  0  0  0  0  0  1  0  0
  -30.9616  -26.3395   21.4757 C   0  0  1  0  0  0  0  0  0  0  0  0
  -33.2815  -29.2303   20.6811 C   0  0  2  0  0  0  0  0  0  0  0  0
  -31.4334  -25.1676   22.3820 C   0  0  0  0  0  0  0  0  0  0  0  0
  -23.4191  -17.9321   21.2004 N   0  0  0  0  0  0  0  0  0  0  0  0
  -23.3646  -19.1813   21.6930 N   0  0  0  0  0  0  0  0  0  0  0  0
  -28.9132  -26.2866   20.0882 N   0  0  0  0  0  0  0  0  0  0  0  0
  -21.2090  -21.7290   19.8297 N   0  0  0  0  0  0  0  0  0  0  0  0
  -24.5487  -20.7384   23.0286 N   0  0  0  0  0  0  0  0  0  0  0  0
  -27.2256  -17.1011   23.0480 N   0  0  0  0  0  0  0  0  0  0  0  0
  -27.6291  -23.3234   19.1187 N   0  0  0  0  0  0  0  0  0  0  0  0
  -32.0396  -27.2035   21.0066 N   0  0  0  0  0  0  0  0  0  0  0  0
  -22.3718  -23.7845   19.9581 N   0  0  0  0  0  0  0  0  0  0  0  0
  -32.9525  -30.6183   20.2496 N   0  3  0  0  0  0  0  0  0  0  0  0
  -26.9898  -19.2436   23.8308 O   0  0  0  0  0  0  0  0  0  0  0  0
  -26.5128  -24.8022   20.5290 O   0  0  0  0  0  0  0  0  0  0  0  0
  -30.8319  -25.1324   19.4379 O   0  0  0  0  0  0  0  0  0  0  0  0
  -31.1998  -29.1690   21.9060 O   0  0  0  0  0  0  0  0  0  0  0  0
  -20.1269  -23.7523   19.4933 O   0  0  0  0  0  0  0  0  0  0  0  0
  -26.2393  -12.2723   20.4508 O   0  0  0  0  0  0  0  0  0  0  0  0
  -21.1284  -31.8693   22.9845 O   0  0  0  0  0  0  0  0  0  0  0  0
  -24.4617  -30.1432   21.9220 O   0  0  0  0  0  0  0  0  0  1  0  0
  -31.4900  -11.5462   18.9319 F   0  0  0  0  0  0  0  0  0  0  0  0
  -28.3135  -12.9547   22.1462 F   0  0  0  0  0  0  0  0  0  0  0  0
  1  2  1  0  0  0  0
  1  5  2  0  0  0  0
  2  6  2  0  0  0  0
  3  8  2  0  0  0  0
  3 17  1  0  0  0  0
  4  9  1  0  0  0  0
  4 17  2  0  0  0  0
  5 19  1  0  0  0  0
  6 21  1  0  0  0  0
  7 10  2  0  0  0  0
  7 20  1  0  0  0  0
  8 26  1  0  0  0  0
  9 26  2  0  0  0  0
 10 27  1  0  0  0  0
 11 12  2  0  0  0  0
 11 28  1  0  0  0  0
 12 30  1  0  0  0  0
 13 22  1  0  0  0  0
 13 27  2  0  0  0  0
 14 23  2  0  0  0  0
 14 24  1  0  0  0  0
 15 25  2  0  0  0  0
 15 29  1  0  0  0  0
 16 30  2  0  0  0  0
 16 31  1  0  0  0  0
 17 32  1  0  0  0  0
 18 32  1  0  0  0  0
 18 33  2  0  0  0  0
 18 34  1  0  0  0  0
 19 21  2  0  0  0  0
 19 39  1  0  0  0  0
 20 22  2  0  0  0  0
 20 40  1  0  0  0  0
 21 48  1  0  0  0  0
 22 41  1  0  0  0  0
 23 25  1  0  0  0  0
 23 58  1  0  0  0  0
 24 29  2  0  0  0  0
 24 59  1  0  0  0  0
 25 51  1  0  0  0  0
 26 82  1  0  0  0  0
 27 84  1  0  0  0  0
 28 31  2  0  0  0  0
 28 82  1  0  0  0  0
 29 83  1  0  0  0  0
 30 85  1  0  0  0  0
 31 86  1  0  0  0  0
 32 67  2  0  0  0  0
 33 68  1  0  0  0  0
 33 71  1  0  0  0  0
 34 72  1  0  0  0  0
 34 77  2  0  0  0  0
 35 49  1  0  0  0  0
 35 73  1  0  0  0  0
 35 78  2  0  0  0  0
 36 64  1  0  0  0  0
 36 69  1  0  0  0  0
 36 79  2  0  0  0  0
 37 65  1  0  0  0  0
 37 74  1  0  0  0  0
 37 80  2  0  0  0  0
 38 70  1  0  0  0  0
 38 75  1  0  0  0  0
 38 81  2  0  0  0  0
 39 42  1  0  0  0  0
 40 49  1  0  0  0  0
 41 69  1  0  0  0  0
 42 44  1  0  0  0  0
 43 45  1  0  0  0  0
 43 46  1  0  0  0  0
 44 48  1  0  0  0  0
 45 50  1  0  0  0  0
 46 70  1  0  0  0  0
 47 50  1  0  0  0  0
 47 70  1  0  0  0  0
 48 73  1  0  0  0  0
 49 69  1  0  0  0  0
 50 68  1  0  0  0  0
 52 65  1  0  0  0  0
 53 66  1  0  0  0  0
 54 66  1  0  0  0  0
 55 66  1  0  0  0  0
 56 76  1  0  0  0  0
 57 83  1  0  0  0  0
 58 60  1  0  0  0  0
 59 63  1  0  0  0  0
 60 61  1  0  0  0  0
 61 62  1  0  0  0  0
 62 75  1  0  0  0  0
 63 84  1  0  0  0  0
 64 66  1  0  0  0  0
 64 74  1  0  0  0  0
 65 76  1  0  0  0  0
 67 68  1  0  0  0  0
M  CHG  1  76   1
M  ISO  4  38 100  63 101  75 100  84 101
M  END
> <Batch ID>
0035

> <Smiles>
CNC(C)C(=O)NC(C(=O)N1Cc2cc([101O:1][101CH2:1]Cc3cc(CCCC[100NH:0][100C:0](=O)N4CCCC(n5nc(-c6ccc(Oc7ccc(F)cc7F)cc6)c(C(N)=O)c5N)C4)c(C)cc3OC)ccc2CC1C(=O)NC1CCCc2ccccc21)C(C)(C)C

> <Shape>
0.227

> <Color>
0.057

> <Negative vol penalty>
0.000

$$$$

  -OEChem-04052316533D

 85 93  0     1  0  0  0  0  0999 V2000
  -23.7706  -19.9893   14.8847 C   0  0  0  0  0  0  0  0  0  0  0  0
  -24.1371  -19.9984   16.2268 C   0  0  0  0  0  0  0  0  0  0  0  0
  -23.1905   -9.8194   19.9318 C   0  0  0  0  0  0  0  0  0  0  0  0
  -23.5665  -10.0014   22.3114 C   0  0  0  0  0  0  0  0  0  0  0  0
  -23.0938  -21.0801   14.3407 C   0  0  0  0  0  0  0  0  0  0  0  0
  -23.8278  -21.0989   17.0254 C   0  0  0  0  0  0  0  0  0  0  0  0
  -21.9554  -19.7607   21.5363 C   0  0  0  0  0  0  0  0  0  0  0  0
  -22.4240   -8.6729   20.1406 C   0  0  0  0  0  0  0  0  0  0  0  0
  -22.7999   -8.8549   22.5202 C   0  0  0  0  0  0  0  0  0  0  0  0
  -22.8647  -19.3263   22.4997 C   0  0  0  0  0  0  0  0  0  0  0  0
  -23.2011   -5.5080   22.2588 C   0  0  0  0  0  0  0  0  0  0  0  0
  -23.6986   -4.5472   23.1392 C   0  0  0  0  0  0  0  0  0  0  0  0
  -22.8014  -21.5050   23.5333 C   0  0  0  0  0  0  0  0  0  0  0  0
  -27.4205  -18.8938   28.0632 C   0  0  0  0  0  0  0  0  0  0  0  0
  -25.2900  -19.9781   27.7136 C   0  0  0  0  0  0  0  0  0  0  0  0
  -26.7719  -19.5957   25.8442 C   0  0  0  0  0  0  0  0  0  0  0  0
  -21.7407   -4.8083   24.5305 C   0  0  0  0  0  0  0  0  0  0  0  0
  -23.7619  -10.4836   21.0172 C   0  0  0  0  0  0  0  0  0  0  0  0
  -24.1009  -13.0000   20.7721 C   0  0  0  0  0  0  0  0  0  0  0  0
  -22.7675  -22.1904   15.1354 C   0  0  0  0  0  0  0  0  0  0  0  0
  -21.4697  -21.0760   21.5578 C   0  0  0  0  0  0  0  0  0  0  0  0
  -23.1471  -22.2061   16.4912 C   0  0  0  0  0  0  0  0  0  0  0  0
  -21.8839  -21.9529   22.5705 C   0  0  0  0  0  0  0  0  0  0  0  0
  -26.2164  -19.3828   28.5698 C   0  0  0  0  0  0  0  0  0  0  0  0
  -27.6982  -19.0004   26.7003 C   0  0  0  0  0  0  0  0  0  0  0  0
  -25.5677  -20.0846   26.3508 C   0  0  0  0  0  0  0  0  0  0  0  0
  -22.2287   -8.1907   21.4348 C   0  0  0  0  0  0  0  0  0  0  0  0
  -23.2901  -20.1993   23.4967 C   0  0  0  0  0  0  0  0  0  0  0  0
  -21.9734   -6.1190   22.5143 C   0  0  0  0  0  0  0  0  0  0  0  0
  -22.9684   -4.1974   24.2750 C   0  0  0  0  0  0  0  0  0  0  0  0
  -21.2432   -5.7691   23.6501 C   0  0  0  0  0  0  0  0  0  0  0  0
  -24.5543  -11.6676   20.8022 C   0  0  0  0  0  0  0  0  0  0  0  0
  -25.2324  -13.7425   20.5374 C   0  0  0  0  0  0  0  0  0  0  0  0
  -22.7756  -13.5201   20.9413 C   0  0  0  0  0  0  0  0  0  0  0  0
  -21.6146  -23.5534   19.5716 C   0  0  0  0  0  0  0  0  0  0  0  0
  -19.5975  -24.9002   21.7257 C   0  0  0  0  0  0  0  0  0  0  0  0
  -18.4136  -24.9877   24.9253 C   0  0  0  0  0  0  0  0  0  0  0  0
  -31.0461  -12.7529   21.5728 C   0  0  0  0  0  0  0  0  0  0  0  0
  -22.0768  -23.3663   14.4913 C   0  0  0  0  0  0  0  0  0  0  0  0
  -20.4687  -21.5212   20.5271 C   0  0  0  0  0  0  0  0  0  0  0  0
  -21.3769  -23.3689   22.6499 C   0  0  0  0  0  0  0  0  0  0  0  0
  -21.4558  -24.3332   15.4962 C   0  0  0  0  0  0  0  0  0  0  0  0
  -29.5218  -13.4682   18.4358 C   0  0  0  0  0  0  0  0  0  0  0  0
  -22.4409  -24.6414   16.6193 C   0  0  0  0  0  0  0  0  0  0  0  0
  -28.0349  -13.2081   18.6838 C   0  0  0  0  0  0  0  0  0  0  0  0
  -30.4023  -12.4793   19.1965 C   0  0  0  0  0  0  0  0  0  0  0  0
  -28.6471  -12.1378   20.8925 C   0  0  0  0  0  0  0  0  0  0  0  0
  -22.8075  -23.3708   17.3957 C   0  0  1  0  0  0  0  0  0  0  0  0
  -20.4339  -23.0352   20.3430 C   0  0  1  0  0  0  0  0  0  0  0  0
  -27.7204  -13.1451   20.1906 C   0  0  2  0  0  0  0  0  0  0  0  0
  -25.9198  -19.2682   30.0270 C   0  0  0  0  0  0  0  0  0  0  0  0
  -16.7954  -26.2213   26.3939 C   0  0  0  0  0  0  0  0  0  0  0  0
  -21.5377  -27.2497   21.8857 C   0  0  0  0  0  0  0  0  0  0  0  0
  -20.3966  -27.9580   23.9986 C   0  0  0  0  0  0  0  0  0  0  0  0
  -19.1211  -27.8926   21.8558 C   0  0  0  0  0  0  0  0  0  0  0  0
  -16.8481  -22.5335   25.4593 C   0  0  0  0  0  0  0  0  0  0  0  0
  -28.9855  -18.4774   26.1580 C   0  0  0  0  0  0  0  0  0  0  0  0
  -24.5710  -20.7252   25.4302 C   0  0  0  0  0  0  0  0  0  1  0  0
  -28.9346  -17.0061   25.7074 C   0  0  0  0  0  0  0  0  0  0  0  0
  -30.2911  -16.4872   25.2199 C   0  0  0  0  0  0  0  0  0  0  0  0
  -30.2058  -15.0159   24.8062 C   0  0  0  0  0  0  0  0  0  0  0  0
  -31.5706  -14.4865   24.3561 C   0  0  0  0  0  0  0  0  0  0  0  0
  -31.5340  -13.0057   23.9930 C   0  0  0  0  0  0  0  0  0  0  0  0
  -19.7672  -25.7224   22.9804 C   0  0  1  0  0  0  0  0  0  0  0  0
  -16.9992  -25.0266   25.4752 C   0  0  2  0  0  0  0  0  0  0  0  0
  -20.2169  -27.1796   22.6778 C   0  0  0  0  0  0  0  0  0  0  0  0
  -25.8710  -11.5663   20.6023 N   0  0  0  0  0  0  0  0  0  0  0  0
  -26.2548  -12.8445   20.4444 N   0  0  0  0  0  0  0  0  0  0  0  0
  -20.4044  -23.7589   21.6157 N   0  0  0  0  0  0  0  0  0  0  0  0
  -30.0544  -12.4692   20.6194 N   0  0  0  0  0  0  0  0  0  0  0  0
  -25.4425  -15.0692   20.4034 N   0  0  0  0  0  0  0  0  0  0  0  0
  -21.7286  -12.6181   21.1749 N   0  0  0  0  0  0  0  0  0  0  0  0
  -21.7428  -23.0106   18.3073 N   0  0  0  0  0  0  0  0  0  0  0  0
  -18.5052  -25.6249   23.7059 N   0  0  0  0  0  0  0  0  0  0  0  0
  -30.6306  -12.7284   22.8985 N   0  0  0  0  0  0  0  0  0  0  0  0
  -16.7092  -23.7853   26.2472 N   0  3  0  0  0  0  0  0  0  0  0  0
  -22.5245  -14.7471   20.8705 O   0  0  0  0  0  0  0  0  0  0  0  0
  -22.3537  -24.3853   20.0848 O   0  0  0  0  0  0  0  0  0  0  0  0
  -18.7743  -25.2537   20.8778 O   0  0  0  0  0  0  0  0  0  0  0  0
  -19.3449  -24.4493   25.5198 O   0  0  0  0  0  0  0  0  0  0  0  0
  -32.2140  -13.0142   21.2651 O   0  0  0  0  0  0  0  0  0  0  0  0
  -21.4805   -7.0721   21.6389 O   0  0  0  0  0  0  0  0  0  0  0  0
  -24.1781  -19.7780   24.4378 O   0  0  0  0  0  0  0  0  0  1  0  0
  -23.4455   -3.2736   25.1195 F   0  0  0  0  0  0  0  0  0  0  0  0
  -20.0626   -6.3518   23.9002 F   0  0  0  0  0  0  0  0  0  0  0  0
  1  2  1  0  0  0  0
  1  5  2  0  0  0  0
  2  6  2  0  0  0  0
  3  8  2  0  0  0  0
  3 18  1  0  0  0  0
  4  9  1  0  0  0  0
  4 18  2  0  0  0  0
  5 20  1  0  0  0  0
  6 22  1  0  0  0  0
  7 10  2  0  0  0  0
  7 21  1  0  0  0  0
  8 27  1  0  0  0  0
  9 27  2  0  0  0  0
 10 28  1  0  0  0  0
 11 12  2  0  0  0  0
 11 29  1  0  0  0  0
 12 30  1  0  0  0  0
 13 23  1  0  0  0  0
 13 28  2  0  0  0  0
 14 24  1  0  0  0  0
 14 25  2  0  0  0  0
 15 24  2  0  0  0  0
 15 26  1  0  0  0  0
 16 25  1  0  0  0  0
 16 26  2  0  0  0  0
 17 30  2  0  0  0  0
 17 31  1  0  0  0  0
 18 32  1  0  0  0  0
 19 32  1  0  0  0  0
 19 33  2  0  0  0  0
 19 34  1  0  0  0  0
 20 22  2  0  0  0  0
 20 39  1  0  0  0  0
 21 23  2  0  0  0  0
 21 40  1  0  0  0  0
 22 48  1  0  0  0  0
 23 41  1  0  0  0  0
 24 51  1  0  0  0  0
 25 57  1  0  0  0  0
 26 58  1  0  0  0  0
 27 82  1  0  0  0  0
 28 83  1  0  0  0  0
 29 31  2  0  0  0  0
 29 82  1  0  0  0  0
 30 84  1  0  0  0  0
 31 85  1  0  0  0  0
 32 67  2  0  0  0  0
 33 68  1  0  0  0  0
 33 71  1  0  0  0  0
 34 72  1  0  0  0  0
 34 77  2  0  0  0  0
 35 49  1  0  0  0  0
 35 73  1  0  0  0  0
 35 78  2  0  0  0  0
 36 64  1  0  0  0  0
 36 69  1  0  0  0  0
 36 79  2  0  0  0  0
 37 65  1  0  0  0  0
 37 74  1  0  0  0  0
 37 80  2  0  0  0  0
 38 70  1  0  0  0  0
 38 75  1  0  0  0  0
 38 81  2  0  0  0  0
 39 42  1  0  0  0  0
 40 49  1  0  0  0  0
 41 69  1  0  0  0  0
 42 44  1  0  0  0  0
 43 45  1  0  0  0  0
 43 46  1  0  0  0  0
 44 48  1  0  0  0  0
 45 50  1  0  0  0  0
 46 70  1  0  0  0  0
 47 50  1  0  0  0  0
 47 70  1  0  0  0  0
 48 73  1  0  0  0  0
 49 69  1  0  0  0  0
 50 68  1  0  0  0  0
 52 65  1  0  0  0  0
 53 66  1  0  0  0  0
 54 66  1  0  0  0  0
 55 66  1  0  0  0  0
 56 76  1  0  0  0  0
 57 59  1  0  0  0  0
 58 83  1  0  0  0  0
 59 60  1  0  0  0  0
 60 61  1  0  0  0  0
 61 62  1  0  0  0  0
 62 63  1  0  0  0  0
 63 75  1  0  0  0  0
 64 66  1  0  0  0  0
 64 74  1  0  0  0  0
 65 76  1  0  0  0  0
 67 68  1  0  0  0  0
M  CHG  1  76   1
M  ISO  4  38 100  58 101  75 100  83 101
M  END
> <Batch ID>
0035

> <Smiles>
CNC(C)C(=O)NC(C(=O)N1Cc2cc([101O:1][101CH2:1]c3cc(C)cc(CCCCCC[100NH:0][100C:0](=O)N4CCCC(n5nc(-c6ccc(Oc7ccc(F)cc7F)cc6)c(C(N)=O)c5N)C4)c3)ccc2CC1C(=O)NC1CCCc2ccccc21)C(C)(C)C

> <Shape>
0.180

> <Color>
0.186

> <Negative vol penalty>
0.000

$$$$

  -OEChem-04052316533D

 85 93  0     1  0  0  0  0  0999 V2000
  -26.4303  -34.7165   22.4264 C   0  0  0  0  0  0  0  0  0  0  0  0
  -26.9101  -33.4114   22.3831 C   0  0  0  0  0  0  0  0  0  0  0  0
  -24.6766  -10.9334   23.7815 C   0  0  0  0  0  0  0  0  0  0  0  0
  -23.7716  -10.1346   21.6887 C   0  0  0  0  0  0  0  0  0  0  0  0
  -25.1184  -34.9626   22.8294 C   0  0  0  0  0  0  0  0  0  0  0  0
  -26.0787  -32.3517   22.7438 C   0  0  0  0  0  0  0  0  0  0  0  0
  -26.3738  -28.4638   19.5124 C   0  0  0  0  0  0  0  0  0  0  0  0
  -24.6451   -9.6353   24.2906 C   0  0  0  0  0  0  0  0  0  0  0  0
  -23.7401   -8.8364   22.1978 C   0  0  0  0  0  0  0  0  0  0  0  0
  -27.4810  -27.6242   19.6258 C   0  0  0  0  0  0  0  0  0  0  0  0
  -21.7737   -7.0158   24.2593 C   0  0  0  0  0  0  0  0  0  0  0  0
  -20.6217   -6.2609   24.0388 C   0  0  0  0  0  0  0  0  0  0  0  0
  -26.1403  -26.0306   20.8433 C   0  0  0  0  0  0  0  0  0  0  0  0
  -21.9289   -4.6135   22.8495 C   0  0  0  0  0  0  0  0  0  0  0  0
  -28.3318  -21.7074   17.4156 C   0  0  0  0  0  0  0  0  0  0  0  0
  -24.2398  -11.1832   22.4805 C   0  0  0  0  0  0  0  0  0  0  0  0
  -25.3304  -13.1403   21.2608 C   0  0  0  0  0  0  0  0  0  0  0  0
  -24.2675  -33.9046   23.1860 C   0  0  0  0  0  0  0  0  0  0  0  0
  -25.1422  -28.0974   20.0740 C   0  0  0  0  0  0  0  0  0  0  0  0
  -24.7546  -32.5840   23.1533 C   0  0  0  0  0  0  0  0  0  0  0  0
  -25.0183  -26.8662   20.7334 C   0  0  0  0  0  0  0  0  0  0  0  0
  -27.5114  -21.1432   18.3711 C   0  0  0  0  0  0  0  0  0  0  0  0
  -24.1769   -8.5867   23.4988 C   0  0  0  0  0  0  0  0  0  0  0  0
  -27.3651  -26.4087   20.2939 C   0  0  0  0  0  0  0  0  0  0  0  0
  -23.0033   -6.5696   23.7748 C   0  0  0  0  0  0  0  0  0  0  0  0
  -20.6993   -5.0598   23.3339 C   0  0  0  0  0  0  0  0  0  0  0  0
  -23.0809   -5.3684   23.0700 C   0  0  0  0  0  0  0  0  0  0  0  0
  -24.2715  -12.5241   21.9541 C   0  0  0  0  0  0  0  0  0  0  0  0
  -27.6093  -21.6840   19.6368 C   0  0  0  0  0  0  0  0  0  0  0  0
  -24.8676  -14.4022   20.9783 C   0  0  0  0  0  0  0  0  0  0  0  0
  -29.1887  -23.1619   18.9379 C   0  0  0  0  0  0  0  0  0  0  0  0
  -26.6174  -12.6186   20.9039 C   0  0  0  0  0  0  0  0  0  0  0  0
  -23.2518  -29.3123   22.3222 C   0  0  0  0  0  0  0  0  0  0  0  0
  -21.2470  -26.9488   21.3647 C   0  0  0  0  0  0  0  0  0  0  0  0
  -20.8629  -23.8984   19.8835 C   0  0  0  0  0  0  0  0  0  0  0  0
  -20.8227  -17.8222   19.2211 C   0  0  0  0  0  0  0  0  0  0  0  0
  -22.8719  -34.2238   23.6604 C   0  0  0  0  0  0  0  0  0  0  0  0
  -23.9505  -29.0022   19.9197 C   0  0  0  0  0  0  0  0  0  0  0  0
  -23.7132  -26.4172   21.3363 C   0  0  0  0  0  0  0  0  0  0  0  0
  -21.9395  -33.0151   23.6673 C   0  0  0  0  0  0  0  0  0  0  0  0
  -20.7722  -16.8571   22.6479 C   0  0  0  0  0  0  0  0  0  0  0  0
  -22.6282  -31.8134   24.3066 C   0  0  0  0  0  0  0  0  0  0  0  0
  -21.7602  -15.6912   22.7141 C   0  0  0  0  0  0  0  0  0  0  0  0
  -19.9825  -16.8541   21.3408 C   0  0  0  0  0  0  0  0  0  0  0  0
  -21.7955  -15.6495   20.1851 C   0  0  0  0  0  0  0  0  0  0  0  0
  -23.8756  -31.4059   23.5132 C   0  0  1  0  0  0  0  0  0  0  0  0
  -22.8764  -28.7608   20.9759 C   0  0  1  0  0  0  0  0  0  0  0  0
  -22.6549  -15.6426   21.4609 C   0  0  2  0  0  0  0  0  0  0  0  0
  -26.7691  -21.1533   20.7512 C   0  0  0  0  0  0  0  0  0  0  0  0
  -19.1085  -22.2089   19.2791 C   0  0  0  0  0  0  0  0  0  0  0  0
  -21.0921  -26.0694   24.2824 C   0  0  0  0  0  0  0  0  0  0  0  0
  -20.1416  -23.8886   23.5020 C   0  0  0  0  0  0  0  0  0  0  0  0
  -18.9118  -26.0131   23.0587 C   0  0  0  0  0  0  0  0  0  0  0  0
  -21.4730  -24.1260   16.9965 C   0  0  0  0  0  0  0  0  0  0  0  0
  -26.5921  -20.0269   18.0330 C   0  0  0  0  0  0  0  0  0  0  0  0
  -30.1310  -24.2972   19.2565 C   0  0  0  0  0  0  0  0  0  0  0  0
  -25.1331  -20.4917   17.8830 C   0  0  0  0  0  0  0  0  0  0  0  0
  -24.1891  -19.3275   17.5755 C   0  0  0  0  0  0  0  0  0  0  0  0
  -22.7488  -19.8144   17.3908 C   0  0  0  0  0  0  0  0  0  0  0  0
  -21.7786  -18.6752   17.0956 C   0  0  0  0  0  0  0  0  0  0  0  0
  -29.4108  -25.6374   19.3577 C   0  0  0  0  0  0  0  0  0  1  0  0
  -21.0235  -25.5099   21.7628 C   0  0  1  0  0  0  0  0  0  0  0  0
  -19.9075  -23.4141   18.8078 C   0  0  2  0  0  0  0  0  0  0  0  0
  -20.3175  -25.3793   23.1419 C   0  0  0  0  0  0  0  0  0  0  0  0
  -29.1857  -22.7218   17.6652 N   0  0  0  0  0  0  0  0  0  0  0  0
  -23.2156  -13.3283   22.1032 N   0  0  0  0  0  0  0  0  0  0  0  0
  -28.4405  -22.6975   19.9568 N   0  0  0  0  0  0  0  0  0  0  0  0
  -23.6087  -14.4629   21.4996 N   0  0  0  0  0  0  0  0  0  0  0  0
  -22.5786  -27.3396   21.1646 N   0  0  0  0  0  0  0  0  0  0  0  0
  -20.8895  -16.8088   20.1914 N   0  0  0  0  0  0  0  0  0  0  0  0
  -25.4187  -15.4548   20.3373 N   0  0  0  0  0  0  0  0  0  0  0  0
  -26.9304  -11.3029   21.2716 N   0  0  0  0  0  0  0  0  0  0  0  0
  -23.5006  -30.6716   22.3239 N   0  0  0  0  0  0  0  0  0  0  0  0
  -20.2988  -24.8889   20.6593 N   0  0  0  0  0  0  0  0  0  0  0  0
  -21.7218  -17.7070   18.1680 N   0  0  0  0  0  0  0  0  0  0  0  0
  -20.6610  -23.0281   17.5814 N   0  3  0  0  0  0  0  0  0  0  0  0
  -27.4708  -13.3046   20.2918 O   0  0  0  0  0  0  0  0  0  0  0  0
  -23.3100  -28.5606   23.2882 O   0  0  0  0  0  0  0  0  0  0  0  0
  -20.2754  -27.6967   21.2292 O   0  0  0  0  0  0  0  0  0  0  0  0
  -21.9949  -23.4409   20.0240 O   0  0  0  0  0  0  0  0  0  0  0  0
  -20.0247  -18.7631   19.2911 O   0  0  0  0  0  0  0  0  0  0  0  0
  -24.1463   -7.3198   23.9953 O   0  0  0  0  0  0  0  0  0  0  0  0
  -28.4445  -25.5876   20.4066 O   0  0  0  0  0  0  0  0  0  1  0  0
  -19.5932   -4.3342   23.1236 F   0  0  0  0  0  0  0  0  0  0  0  0
  -24.2595   -4.9340   22.6032 F   0  0  0  0  0  0  0  0  0  0  0  0
  1  2  1  0  0  0  0
  1  5  2  0  0  0  0
  2  6  2  0  0  0  0
  3  8  2  0  0  0  0
  3 16  1  0  0  0  0
  4  9  1  0  0  0  0
  4 16  2  0  0  0  0
  5 18  1  0  0  0  0
  6 20  1  0  0  0  0
  7 10  2  0  0  0  0
  7 19  1  0  0  0  0
  8 23  1  0  0  0  0
  9 23  2  0  0  0  0
 10 24  1  0  0  0  0
 11 12  2  0  0  0  0
 11 25  1  0  0  0  0
 12 26  1  0  0  0  0
 13 21  1  0  0  0  0
 13 24  2  0  0  0  0
 14 26  2  0  0  0  0
 14 27  1  0  0  0  0
 15 22  1  0  0  0  0
 15 65  2  0  0  0  0
 16 28  1  0  0  0  0
 17 28  1  0  0  0  0
 17 30  2  0  0  0  0
 17 32  1  0  0  0  0
 18 20  2  0  0  0  0
 18 37  1  0  0  0  0
 19 21  2  0  0  0  0
 19 38  1  0  0  0  0
 20 46  1  0  0  0  0
 21 39  1  0  0  0  0
 22 29  2  0  0  0  0
 22 55  1  0  0  0  0
 23 82  1  0  0  0  0
 24 83  1  0  0  0  0
 25 27  2  0  0  0  0
 25 82  1  0  0  0  0
 26 84  1  0  0  0  0
 27 85  1  0  0  0  0
 28 66  2  0  0  0  0
 29 49  1  0  0  0  0
 29 67  1  0  0  0  0
 30 68  1  0  0  0  0
 30 71  1  0  0  0  0
 31 56  1  0  0  0  0
 31 65  1  0  0  0  0
 31 67  2  0  0  0  0
 32 72  1  0  0  0  0
 32 77  2  0  0  0  0
 33 47  1  0  0  0  0
 33 73  1  0  0  0  0
 33 78  2  0  0  0  0
 34 62  1  0  0  0  0
 34 69  1  0  0  0  0
 34 79  2  0  0  0  0
 35 63  1  0  0  0  0
 35 74  1  0  0  0  0
 35 80  2  0  0  0  0
 36 70  1  0  0  0  0
 36 75  1  0  0  0  0
 36 81  2  0  0  0  0
 37 40  1  0  0  0  0
 38 47  1  0  0  0  0
 39 69  1  0  0  0  0
 40 42  1  0  0  0  0
 41 43  1  0  0  0  0
 41 44  1  0  0  0  0
 42 46  1  0  0  0  0
 43 48  1  0  0  0  0
 44 70  1  0  0  0  0
 45 48  1  0  0  0  0
 45 70  1  0  0  0  0
 46 73  1  0  0  0  0
 47 69  1  0  0  0  0
 48 68  1  0  0  0  0
 50 63  1  0  0  0  0
 51 64  1  0  0  0  0
 52 64  1  0  0  0  0
 53 64  1  0  0  0  0
 54 76  1  0  0  0  0
 55 57  1  0  0  0  0
 56 61  1  0  0  0  0
 57 58  1  0  0  0  0
 58 59  1  0  0  0  0
 59 60  1  0  0  0  0
 60 75  1  0  0  0  0
 61 83  1  0  0  0  0
 62 64  1  0  0  0  0
 62 74  1  0  0  0  0
 63 76  1  0  0  0  0
 66 68  1  0  0  0  0
M  CHG  1  76   1
M  ISO  4  36 100  61 101  75 100  83 101
M  END
> <Batch ID>
0035

> <Smiles>
CNC(C)C(=O)NC(C(=O)N1Cc2cc([101O:1][101CH2:1]Cc3ncc(CCCCC[100NH:0][100C:0](=O)N4CCCC(n5nc(-c6ccc(Oc7ccc(F)cc7F)cc6)c(C(N)=O)c5N)C4)c(C)n3)ccc2CC1C(=O)NC1CCCc2ccccc21)C(C)(C)C

> <Shape>
0.246

> <Color>
0.086

> <Negative vol penalty>
0.000

$$$$

  -OEChem-04052316533D

 83 91  0     1  0  0  0  0  0999 V2000
  -17.5560  -30.2396   23.4265 C   0  0  0  0  0  0  0  0  0  0  0  0
  -18.8868  -30.4135   23.0602 C   0  0  0  0  0  0  0  0  0  0  0  0
  -25.1708  -16.3571   21.5361 C   0  0  0  0  0  0  0  0  0  0  0  0
  -25.2137  -16.0467   19.1405 C   0  0  0  0  0  0  0  0  0  0  0  0
  -17.0862  -28.9701   23.7604 C   0  0  0  0  0  0  0  0  0  0  0  0
  -19.7489  -29.3179   23.0285 C   0  0  0  0  0  0  0  0  0  0  0  0
  -24.3699  -28.3814   19.1202 C   0  0  0  0  0  0  0  0  0  0  0  0
  -32.0709  -27.7697   15.0254 C   0  0  0  0  0  0  0  0  0  0  0  0
  -32.1462  -26.6046   14.2622 C   0  0  0  0  0  0  0  0  0  0  0  0
  -23.9348  -15.7136   21.5974 C   0  0  0  0  0  0  0  0  0  0  0  0
  -23.9776  -15.4031   19.2018 C   0  0  0  0  0  0  0  0  0  0  0  0
  -25.7449  -28.5858   19.2271 C   0  0  0  0  0  0  0  0  0  0  0  0
  -20.9372  -13.8327   22.4291 C   0  0  0  0  0  0  0  0  0  0  0  0
  -20.7509  -12.8802   23.4309 C   0  0  0  0  0  0  0  0  0  0  0  0
  -26.0352  -26.2711   19.8412 C   0  0  0  0  0  0  0  0  0  0  0  0
  -32.2563  -26.4581   17.0459 C   0  0  0  0  0  0  0  0  0  0  0  0
  -22.5865  -11.5855   22.5413 C   0  0  0  0  0  0  0  0  0  0  0  0
  -25.8102  -16.5238   20.3076 C   0  0  0  0  0  0  0  0  0  0  0  0
  -28.3599  -16.5966   20.3430 C   0  0  0  0  0  0  0  0  0  0  0  0
  -17.9406  -27.8568   23.7234 C   0  0  0  0  0  0  0  0  0  0  0  0
  -23.8151  -27.1208   19.3840 C   0  0  0  0  0  0  0  0  0  0  0  0
  -19.2904  -28.0325   23.3634 C   0  0  0  0  0  0  0  0  0  0  0  0
  -24.6532  -26.0527   19.7344 C   0  0  0  0  0  0  0  0  0  0  0  0
  -32.1260  -27.6965   16.4173 C   0  0  0  0  0  0  0  0  0  0  0  0
  -32.2765  -25.3663   14.8908 C   0  0  0  0  0  0  0  0  0  0  0  0
  -32.3315  -25.2930   16.2827 C   0  0  0  0  0  0  0  0  0  0  0  0
  -23.3382  -15.2366   20.4302 C   0  0  0  0  0  0  0  0  0  0  0  0
  -26.5774  -27.5314   19.5904 C   0  0  0  0  0  0  0  0  0  0  0  0
  -21.9481  -13.6615   21.4833 C   0  0  0  0  0  0  0  0  0  0  0  0
  -21.5755  -11.7567   23.4871 C   0  0  0  0  0  0  0  0  0  0  0  0
  -22.7727  -12.5379   21.5394 C   0  0  0  0  0  0  0  0  0  0  0  0
  -27.0867  -17.1889   20.2436 C   0  0  0  0  0  0  0  0  0  0  0  0
  -29.2374  -17.6463   20.2218 C   0  0  0  0  0  0  0  0  0  0  0  0
  -28.7175  -15.2205   20.5281 C   0  0  0  0  0  0  0  0  0  0  0  0
  -21.7406  -25.9828   21.5066 C   0  0  0  0  0  0  0  0  0  0  0  0
  -22.0302  -23.2691   19.7531 C   0  0  0  0  0  0  0  0  0  0  0  0
  -23.9073  -21.3920   17.6084 C   0  0  0  0  0  0  0  0  0  0  0  0
  -30.8885  -22.1951   17.6667 C   0  0  0  0  0  0  0  0  0  0  0  0
  -17.3988  -26.5118   24.1384 C   0  0  0  0  0  0  0  0  0  0  0  0
  -22.3330  -26.9100   19.2382 C   0  0  0  0  0  0  0  0  0  0  0  0
  -24.1096  -24.6750   20.0084 C   0  0  0  0  0  0  0  0  0  0  0  0
  -18.2847  -25.3421   23.7175 C   0  0  0  0  0  0  0  0  0  0  0  0
  -28.4296  -22.6397   20.2846 C   0  0  0  0  0  0  0  0  0  0  0  0
  -19.7448  -25.6312   24.0512 C   0  0  0  0  0  0  0  0  0  0  0  0
  -27.9658  -21.2001   20.5140 C   0  0  0  0  0  0  0  0  0  0  0  0
  -28.6998  -22.9046   18.8064 C   0  0  0  0  0  0  0  0  0  0  0  0
  -29.2122  -20.5271   18.4084 C   0  0  0  0  0  0  0  0  0  0  0  0
  -20.2503  -26.8646   23.2932 C   0  0  1  0  0  0  0  0  0  0  0  0
  -21.8190  -25.7120   20.0307 C   0  0  1  0  0  0  0  0  0  0  0  0
  -28.9441  -20.1896   19.8863 C   0  0  2  0  0  0  0  0  0  0  0  0
  -32.3539  -24.1325   14.0527 C   0  0  0  0  0  0  0  0  0  0  0  0
  -23.8972  -19.2036   16.3803 C   0  0  0  0  0  0  0  0  0  0  0  0
  -22.6980  -21.8118   22.3494 C   0  0  0  0  0  0  0  0  0  0  0  0
  -23.5884  -19.9176   20.9756 C   0  0  0  0  0  0  0  0  0  0  0  0
  -21.1824  -20.5547   20.8076 C   0  0  0  0  0  0  0  0  0  0  0  0
  -24.0263  -22.7369   14.9747 C   0  0  0  0  0  0  0  0  0  0  0  0
  -32.0441  -28.9561   17.2422 C   0  0  0  0  0  0  0  0  0  0  0  0
  -32.4704  -23.9783   16.9776 C   0  0  0  0  0  0  0  0  0  0  0  0
  -30.6146  -29.3510   17.6291 C   0  0  0  0  0  0  0  0  0  0  0  0
  -29.9284  -28.3159   18.5216 C   0  0  0  0  0  0  0  0  0  0  0  0
  -28.4988  -28.7227   18.8522 C   0  0  0  0  0  0  0  0  0  1  0  0
  -22.9381  -22.0635   19.7911 C   0  0  1  0  0  0  0  0  0  0  0  0
  -23.5509  -20.6830   16.3143 C   0  0  2  0  0  0  0  0  0  0  0  0
  -22.6121  -21.1132   20.9777 C   0  0  0  0  0  0  0  0  0  0  0  0
  -27.1457  -18.5123   20.0727 N   0  0  0  0  0  0  0  0  0  0  0  0
  -28.4665  -18.7602   20.0637 N   0  0  0  0  0  0  0  0  0  0  0  0
  -22.6531  -24.5208   19.8588 N   0  0  0  0  0  0  0  0  0  0  0  0
  -29.6525  -21.9197   18.2749 N   0  0  0  0  0  0  0  0  0  0  0  0
  -30.5855  -17.7159   20.2362 N   0  0  0  0  0  0  0  0  0  0  0  0
  -27.6911  -14.2719   20.6334 N   0  0  0  0  0  0  0  0  0  0  0  0
  -20.5386  -26.5281   21.9155 N   0  0  0  0  0  0  0  0  0  0  0  0
  -22.8381  -21.4358   18.4779 N   0  0  0  0  0  0  0  0  0  0  0  0
  -31.2279  -23.5393   17.5730 N   0  0  0  0  0  0  0  0  0  0  0  0
  -24.2911  -21.2883   15.1712 N   0  3  0  0  0  0  0  0  0  0  0  0
  -29.9114  -14.8455   20.6146 O   0  0  0  0  0  0  0  0  0  0  0  0
  -22.6992  -25.7153   22.2216 O   0  0  0  0  0  0  0  0  0  0  0  0
  -20.8140  -23.1065   19.6270 O   0  0  0  0  0  0  0  0  0  0  0  0
  -25.0237  -21.8570   17.8276 O   0  0  0  0  0  0  0  0  0  0  0  0
  -31.6373  -21.3080   17.2430 O   0  0  0  0  0  0  0  0  0  0  0  0
  -22.1322  -14.6084   20.4897 O   0  0  0  0  0  0  0  0  0  0  0  0
  -27.9198  -27.7283   19.6962 O   0  0  0  0  0  0  0  0  0  1  0  0
  -21.3975  -10.8429   24.4502 F   0  0  0  0  0  0  0  0  0  0  0  0
  -23.7463  -12.3686   20.6343 F   0  0  0  0  0  0  0  0  0  0  0  0
  1  2  1  0  0  0  0
  1  5  2  0  0  0  0
  2  6  2  0  0  0  0
  3 10  2  0  0  0  0
  3 18  1  0  0  0  0
  4 11  1  0  0  0  0
  4 18  2  0  0  0  0
  5 20  1  0  0  0  0
  6 22  1  0  0  0  0
  7 12  2  0  0  0  0
  7 21  1  0  0  0  0
  8  9  2  0  0  0  0
  8 24  1  0  0  0  0
  9 25  1  0  0  0  0
 10 27  1  0  0  0  0
 11 27  2  0  0  0  0
 12 28  1  0  0  0  0
 13 14  2  0  0  0  0
 13 29  1  0  0  0  0
 14 30  1  0  0  0  0
 15 23  1  0  0  0  0
 15 28  2  0  0  0  0
 16 24  2  0  0  0  0
 16 26  1  0  0  0  0
 17 30  2  0  0  0  0
 17 31  1  0  0  0  0
 18 32  1  0  0  0  0
 19 32  1  0  0  0  0
 19 33  2  0  0  0  0
 19 34  1  0  0  0  0
 20 22  2  0  0  0  0
 20 39  1  0  0  0  0
 21 23  2  0  0  0  0
 21 40  1  0  0  0  0
 22 48  1  0  0  0  0
 23 41  1  0  0  0  0
 24 57  1  0  0  0  0
 25 26  2  0  0  0  0
 25 51  1  0  0  0  0
 26 58  1  0  0  0  0
 27 80  1  0  0  0  0
 28 81  1  0  0  0  0
 29 31  2  0  0  0  0
 29 80  1  0  0  0  0
 30 82  1  0  0  0  0
 31 83  1  0  0  0  0
 32 65  2  0  0  0  0
 33 66  1  0  0  0  0
 33 69  1  0  0  0  0
 34 70  1  0  0  0  0
 34 75  2  0  0  0  0
 35 49  1  0  0  0  0
 35 71  1  0  0  0  0
 35 76  2  0  0  0  0
 36 62  1  0  0  0  0
 36 67  1  0  0  0  0
 36 77  2  0  0  0  0
 37 63  1  0  0  0  0
 37 72  1  0  0  0  0
 37 78  2  0  0  0  0
 38 68  1  0  0  0  0
 38 73  1  0  0  0  0
 38 79  2  0  0  0  0
 39 42  1  0  0  0  0
 40 49  1  0  0  0  0
 41 67  1  0  0  0  0
 42 44  1  0  0  0  0
 43 45  1  0  0  0  0
 43 46  1  0  0  0  0
 44 48  1  0  0  0  0
 45 50  1  0  0  0  0
 46 68  1  0  0  0  0
 47 50  1  0  0  0  0
 47 68  1  0  0  0  0
 48 71  1  0  0  0  0
 49 67  1  0  0  0  0
 50 66  1  0  0  0  0
 52 63  1  0  0  0  0
 53 64  1  0  0  0  0
 54 64  1  0  0  0  0
 55 64  1  0  0  0  0
 56 74  1  0  0  0  0
 57 59  1  0  0  0  0
 58 73  1  0  0  0  0
 59 60  1  0  0  0  0
 60 61  1  0  0  0  0
 61 81  1  0  0  0  0
 62 64  1  0  0  0  0
 62 72  1  0  0  0  0
 63 74  1  0  0  0  0
 65 66  1  0  0  0  0
M  CHG  1  74   1
M  ISO  4  38 100  61 101  73 100  81 101
M  END
> <Batch ID>
0035

> <Smiles>
CNC(C)C(=O)NC(C(=O)N1Cc2cc([101O:1][101CH2:1]CCCc3ccc(C)c(C[100NH:0][100C:0](=O)N4CCCC(n5nc(-c6ccc(Oc7ccc(F)cc7F)cc6)c(C(N)=O)c5N)C4)c3)ccc2CC1C(=O)NC1CCCc2ccccc21)C(C)(C)C

> <Shape>
0.208

> <Color>
0.058

> <Negative vol penalty>
0.000

$$$$

  -OEChem-04052316533D

 85 93  0     1  0  0  0  0  0999 V2000
  -29.7571  -35.7920   17.3309 C   0  0  0  0  0  0  0  0  0  0  0  0
  -29.7170  -34.4064   17.4491 C   0  0  0  0  0  0  0  0  0  0  0  0
  -22.8894  -10.2693   19.9917 C   0  0  0  0  0  0  0  0  0  0  0  0
  -23.9987   -9.5418   22.0109 C   0  0  0  0  0  0  0  0  0  0  0  0
  -29.2312  -36.5924   18.3441 C   0  0  0  0  0  0  0  0  0  0  0  0
  -29.1519  -33.8204   18.5812 C   0  0  0  0  0  0  0  0  0  0  0  0
  -25.9944  -28.5787   18.8265 C   0  0  0  0  0  0  0  0  0  0  0  0
  -22.0689   -9.1421   20.0363 C   0  0  0  0  0  0  0  0  0  0  0  0
  -23.1783   -8.4146   22.0556 C   0  0  0  0  0  0  0  0  0  0  0  0
  -26.3578  -27.2805   19.1822 C   0  0  0  0  0  0  0  0  0  0  0  0
  -20.0170   -7.6725   22.9917 C   0  0  0  0  0  0  0  0  0  0  0  0
  -19.4555   -7.3299   24.2217 C   0  0  0  0  0  0  0  0  0  0  0  0
  -25.5353  -27.6689   21.4165 C   0  0  0  0  0  0  0  0  0  0  0  0
  -20.5707   -5.1884   24.1343 C   0  0  0  0  0  0  0  0  0  0  0  0
  -23.8543  -10.4691   20.9790 C   0  0  0  0  0  0  0  0  0  0  0  0
  -24.4561  -12.8881   21.5209 C   0  0  0  0  0  0  0  0  0  0  0  0
  -28.6507  -36.0159   19.4848 C   0  0  0  0  0  0  0  0  0  0  0  0
  -25.4077  -29.4368   19.7678 C   0  0  0  0  0  0  0  0  0  0  0  0
  -28.6189  -34.6139   19.6113 C   0  0  0  0  0  0  0  0  0  0  0  0
  -25.1630  -28.9766   21.0695 C   0  0  0  0  0  0  0  0  0  0  0  0
  -22.2133   -8.2148   21.0683 C   0  0  0  0  0  0  0  0  0  0  0  0
  -26.1309  -26.8264   20.4781 C   0  0  0  0  0  0  0  0  0  0  0  0
  -20.8554   -6.7730   22.3330 C   0  0  0  0  0  0  0  0  0  0  0  0
  -19.7323   -6.0879   24.7930 C   0  0  0  0  0  0  0  0  0  0  0  0
  -21.1323   -5.5310   22.9043 C   0  0  0  0  0  0  0  0  0  0  0  0
  -24.7025  -11.6329   20.9331 C   0  0  0  0  0  0  0  0  0  0  0  0
  -27.0362  -21.8610   22.0503 C   0  0  0  0  0  0  0  0  0  0  0  0
  -28.2153  -22.5098   19.7446 C   0  0  0  0  0  0  0  0  0  0  0  0
  -27.8769  -20.9782   21.4087 C   0  0  0  0  0  0  0  0  0  0  0  0
  -27.3741  -23.3923   20.3857 C   0  0  0  0  0  0  0  0  0  0  0  0
  -25.5546  -13.6436   21.1906 C   0  0  0  0  0  0  0  0  0  0  0  0
  -23.3346  -13.3315   22.2963 C   0  0  0  0  0  0  0  0  0  0  0  0
  -26.2123  -32.2212   21.0728 C   0  0  0  0  0  0  0  0  0  0  0  0
  -23.2532  -32.0177   22.3859 C   0  0  0  0  0  0  0  0  0  0  0  0
  -20.6497  -30.0426   23.3699 C   0  0  0  0  0  0  0  0  0  0  0  0
  -31.0786  -14.2209   20.6448 C   0  0  0  0  0  0  0  0  0  0  0  0
  -28.1377  -36.9226   20.5754 C   0  0  0  0  0  0  0  0  0  0  0  0
  -24.9970  -30.8254   19.3609 C   0  0  0  0  0  0  0  0  0  0  0  0
  -24.5175  -29.8516   22.1117 C   0  0  0  0  0  0  0  0  0  0  0  0
  -27.2191  -36.2187   21.5709 C   0  0  0  0  0  0  0  0  0  0  0  0
  -29.3151  -12.7361   17.9315 C   0  0  0  0  0  0  0  0  0  0  0  0
  -27.8241  -34.8880   22.0069 C   0  0  0  0  0  0  0  0  0  0  0  0
  -27.9405  -12.4148   18.5207 C   0  0  0  0  0  0  0  0  0  0  0  0
  -30.4299  -12.5301   18.9547 C   0  0  0  0  0  0  0  0  0  0  0  0
  -28.8667  -12.9270   20.8182 C   0  0  0  0  0  0  0  0  0  0  0  0
  -27.9918  -33.9406   20.8128 C   0  0  1  0  0  0  0  0  0  0  0  0
  -24.8765  -31.7831   20.5423 C   0  0  1  0  0  0  0  0  0  0  0  0
  -27.7049  -13.1736   19.8406 C   0  0  2  0  0  0  0  0  0  0  0  0
  -26.3742  -21.5077   23.3381 C   0  0  0  0  0  0  0  0  0  0  0  0
  -28.8777  -22.8628   18.4570 C   0  0  0  0  0  0  0  0  0  0  0  0
  -18.3849  -30.1595   24.4442 C   0  0  0  0  0  0  0  0  0  0  0  0
  -24.5681  -32.4396   25.1068 C   0  0  0  0  0  0  0  0  0  0  0  0
  -22.4612  -31.6111   26.1757 C   0  0  0  0  0  0  0  0  0  0  0  0
  -22.4208  -33.6798   24.7823 C   0  0  0  0  0  0  0  0  0  0  0  0
  -19.3296  -28.8977   20.9813 C   0  0  0  0  0  0  0  0  0  0  0  0
  -28.1631  -19.6284   21.9724 C   0  0  0  0  0  0  0  0  0  0  0  0
  -27.0850  -24.7506   19.8174 C   0  0  0  0  0  0  0  0  0  1  0  0
  -29.5841  -19.1477   21.6398 C   0  0  0  0  0  0  0  0  0  0  0  0
  -29.8532  -17.7451   22.1891 C   0  0  0  0  0  0  0  0  0  0  0  0
  -31.2850  -17.2949   21.8846 C   0  0  0  0  0  0  0  0  0  0  0  0
  -31.5822  -15.8935   22.4078 C   0  0  0  0  0  0  0  0  0  0  0  0
  -22.6851  -31.4318   23.6560 C   0  0  1  0  0  0  0  0  0  0  0  0
  -19.1546  -30.1547   23.1326 C   0  0  2  0  0  0  0  0  0  0  0  0
  -23.0478  -32.2745   24.9113 C   0  0  0  0  0  0  0  0  0  0  0  0
  -25.8661  -11.5895   20.2787 N   0  0  0  0  0  0  0  0  0  0  0  0
  -28.4817  -21.2868   20.2446 N   0  0  0  0  0  0  0  0  0  0  0  0
  -26.7695  -23.0838   21.5501 N   0  0  0  0  0  0  0  0  0  0  0  0
  -26.3606  -12.8269   20.4534 N   0  0  0  0  0  0  0  0  0  0  0  0
  -24.1397  -31.2033   21.6671 N   0  0  0  0  0  0  0  0  0  0  0  0
  -30.1464  -13.2774   20.1823 N   0  0  0  0  0  0  0  0  0  0  0  0
  -25.9000  -14.9202   21.4616 N   0  0  0  0  0  0  0  0  0  0  0  0
  -22.2926  -12.4269   22.5420 N   0  0  0  0  0  0  0  0  0  0  0  0
  -26.7208  -33.3480   20.4554 N   0  0  0  0  0  0  0  0  0  0  0  0
  -21.2515  -31.2817   23.4308 N   0  0  0  0  0  0  0  0  0  0  0  0
  -30.7293  -14.8895   21.8118 N   0  0  0  0  0  0  0  0  0  0  0  0
  -18.6734  -29.0093   22.3095 N   0  3  0  0  0  0  0  0  0  0  0  0
  -23.2511  -14.5004   22.7438 O   0  0  0  0  0  0  0  0  0  0  0  0
  -26.7417  -31.5850   21.9765 O   0  0  0  0  0  0  0  0  0  0  0  0
  -22.9170  -33.1531   22.0406 O   0  0  0  0  0  0  0  0  0  0  0  0
  -21.2256  -28.9638   23.4930 O   0  0  0  0  0  0  0  0  0  0  0  0
  -32.1408  -14.4543   20.0582 O   0  0  0  0  0  0  0  0  0  0  0  0
  -21.4127   -7.1150   21.1123 O   0  0  0  0  0  0  0  0  0  0  0  0
  -26.4852  -25.5600   20.8281 O   0  0  0  0  0  0  0  0  0  1  0  0
  -19.1943   -5.7596   25.9749 F   0  0  0  0  0  0  0  0  0  0  0  0
  -21.9379   -4.6633   22.2768 F   0  0  0  0  0  0  0  0  0  0  0  0
  1  2  1  0  0  0  0
  1  5  2  0  0  0  0
  2  6  2  0  0  0  0
  3  8  2  0  0  0  0
  3 15  1  0  0  0  0
  4  9  1  0  0  0  0
  4 15  2  0  0  0  0
  5 17  1  0  0  0  0
  6 19  1  0  0  0  0
  7 10  2  0  0  0  0
  7 18  1  0  0  0  0
  8 21  1  0  0  0  0
  9 21  2  0  0  0  0
 10 22  1  0  0  0  0
 11 12  2  0  0  0  0
 11 23  1  0  0  0  0
 12 24  1  0  0  0  0
 13 20  1  0  0  0  0
 13 22  2  0  0  0  0
 14 24  2  0  0  0  0
 14 25  1  0  0  0  0
 15 26  1  0  0  0  0
 16 26  1  0  0  0  0
 16 31  2  0  0  0  0
 16 32  1  0  0  0  0
 17 19  2  0  0  0  0
 17 37  1  0  0  0  0
 18 20  2  0  0  0  0
 18 38  1  0  0  0  0
 19 46  1  0  0  0  0
 20 39  1  0  0  0  0
 21 82  1  0  0  0  0
 22 83  1  0  0  0  0
 23 25  2  0  0  0  0
 23 82  1  0  0  0  0
 24 84  1  0  0  0  0
 25 85  1  0  0  0  0
 26 65  2  0  0  0  0
 27 29  1  0  0  0  0
 27 49  1  0  0  0  0
 27 67  2  0  0  0  0
 28 30  2  0  0  0  0
 28 50  1  0  0  0  0
 28 66  1  0  0  0  0
 29 56  1  0  0  0  0
 29 66  2  0  0  0  0
 30 57  1  0  0  0  0
 30 67  1  0  0  0  0
 31 68  1  0  0  0  0
 31 71  1  0  0  0  0
 32 72  1  0  0  0  0
 32 77  2  0  0  0  0
 33 47  1  0  0  0  0
 33 73  1  0  0  0  0
 33 78  2  0  0  0  0
 34 62  1  0  0  0  0
 34 69  1  0  0  0  0
 34 79  2  0  0  0  0
 35 63  1  0  0  0  0
 35 74  1  0  0  0  0
 35 80  2  0  0  0  0
 36 70  1  0  0  0  0
 36 75  1  0  0  0  0
 36 81  2  0  0  0  0
 37 40  1  0  0  0  0
 38 47  1  0  0  0  0
 39 69  1  0  0  0  0
 40 42  1  0  0  0  0
 41 43  1  0  0  0  0
 41 44  1  0  0  0  0
 42 46  1  0  0  0  0
 43 48  1  0  0  0  0
 44 70  1  0  0  0  0
 45 48  1  0  0  0  0
 45 70  1  0  0  0  0
 46 73  1  0  0  0  0
 47 69  1  0  0  0  0
 48 68  1  0  0  0  0
 51 63  1  0  0  0  0
 52 64  1  0  0  0  0
 53 64  1  0  0  0  0
 54 64  1  0  0  0  0
 55 76  1  0  0  0  0
 56 58  1  0  0  0  0
 57 83  1  0  0  0  0
 58 59  1  0  0  0  0
 59 60  1  0  0  0  0
 60 61  1  0  0  0  0
 61 75  1  0  0  0  0
 62 64  1  0  0  0  0
 62 74  1  0  0  0  0
 63 76  1  0  0  0  0
 65 68  1  0  0  0  0
M  CHG  1  76   1
M  ISO  4  36 100  57 101  75 100  83 101
M  END
> <Batch ID>
0035

> <Smiles>
CNC(C)C(=O)NC(C(=O)N1Cc2cc([101O:1][101CH2:1]c3nc(C)c(CCCCC[100NH:0][100C:0](=O)N4CCCC(n5nc(-c6ccc(Oc7ccc(F)cc7F)cc6)c(C(N)=O)c5N)C4)nc3C)ccc2CC1C(=O)NC1CCCc2ccccc21)C(C)(C)C

> <Shape>
0.327

> <Color>
0.176

> <Negative vol penalty>
0.000

$$$$

  -OEChem-04052316533D

 85 93  0     1  0  0  0  0  0999 V2000
  -22.2097  -20.2959   22.1026 C   0  0  0  0  0  0  0  0  0  0  0  0
  -23.1711  -19.5841   22.8128 C   0  0  0  0  0  0  0  0  0  0  0  0
  -23.1540   -9.8654   19.9611 C   0  0  0  0  0  0  0  0  0  0  0  0
  -23.8226   -9.9644   22.2806 C   0  0  0  0  0  0  0  0  0  0  0  0
  -21.0726  -20.7709   22.7548 C   0  0  0  0  0  0  0  0  0  0  0  0
  -22.9965  -19.3478   24.1759 C   0  0  0  0  0  0  0  0  0  0  0  0
  -24.0730  -14.5726   25.4734 C   0  0  0  0  0  0  0  0  0  0  0  0
  -22.4405   -8.6945   20.2167 C   0  0  0  0  0  0  0  0  0  0  0  0
  -23.1091   -8.7934   22.5363 C   0  0  0  0  0  0  0  0  0  0  0  0
  -25.4200  -14.2339   25.5945 C   0  0  0  0  0  0  0  0  0  0  0  0
  -23.5343   -5.4692   22.0898 C   0  0  0  0  0  0  0  0  0  0  0  0
  -24.1556   -4.4870   22.8610 C   0  0  0  0  0  0  0  0  0  0  0  0
  -25.2543  -14.4569   27.9908 C   0  0  0  0  0  0  0  0  0  0  0  0
  -29.3090  -16.7435   26.5925 C   0  0  0  0  0  0  0  0  0  0  0  0
  -30.1847  -17.1256   24.3735 C   0  0  0  0  0  0  0  0  0  0  0  0
  -22.3836   -4.6493   24.4953 C   0  0  0  0  0  0  0  0  0  0  0  0
  -23.8451  -10.5004   20.9931 C   0  0  0  0  0  0  0  0  0  0  0  0
  -24.1054  -13.0315   20.8109 C   0  0  0  0  0  0  0  0  0  0  0  0
  -20.8794  -20.5321   24.1245 C   0  0  0  0  0  0  0  0  0  0  0  0
  -23.3080  -14.8671   26.6111 C   0  0  0  0  0  0  0  0  0  0  0  0
  -21.8565  -19.8212   24.8473 C   0  0  0  0  0  0  0  0  0  0  0  0
  -23.8972  -14.7965   27.8815 C   0  0  0  0  0  0  0  0  0  0  0  0
  -29.5209  -17.5939   25.5074 C   0  0  0  0  0  0  0  0  0  0  0  0
  -29.7610  -15.4247   26.5437 C   0  0  0  0  0  0  0  0  0  0  0  0
  -30.6366  -15.8068   24.3247 C   0  0  0  0  0  0  0  0  0  0  0  0
  -30.4247  -14.9564   25.4098 C   0  0  0  0  0  0  0  0  0  0  0  0
  -22.4180   -8.1585   21.5043 C   0  0  0  0  0  0  0  0  0  0  0  0
  -26.0116  -14.1788   26.8531 C   0  0  0  0  0  0  0  0  0  0  0  0
  -22.3377   -6.0416   22.5213 C   0  0  0  0  0  0  0  0  0  0  0  0
  -23.5803   -4.0770   24.0638 C   0  0  0  0  0  0  0  0  0  0  0  0
  -21.7623   -5.6316   23.7241 C   0  0  0  0  0  0  0  0  0  0  0  0
  -24.5828  -11.7097   20.7295 C   0  0  0  0  0  0  0  0  0  0  0  0
  -25.1849  -13.8082   20.4675 C   0  0  0  0  0  0  0  0  0  0  0  0
  -22.8027  -13.5142   21.1654 C   0  0  0  0  0  0  0  0  0  0  0  0
  -21.7350  -17.4238   27.6563 C   0  0  0  0  0  0  0  0  0  0  0  0
  -20.7583  -15.3881   29.9853 C   0  0  0  0  0  0  0  0  0  0  0  0
  -21.3430  -12.5456   31.7812 C   0  0  0  0  0  0  0  0  0  0  0  0
  -30.9413  -13.9732   21.0600 C   0  0  0  0  0  0  0  0  0  0  0  0
  -19.6571  -21.1061   24.7962 C   0  0  0  0  0  0  0  0  0  0  0  0
  -21.8495  -15.2046   26.4655 C   0  0  0  0  0  0  0  0  0  0  0  0
  -23.1144  -15.0839   29.1358 C   0  0  0  0  0  0  0  0  0  0  0  0
  -19.3670  -20.4902   26.1625 C   0  0  0  0  0  0  0  0  0  0  0  0
  -29.3947  -13.0259   17.9961 C   0  0  0  0  0  0  0  0  0  0  0  0
  -20.6422  -20.4158   26.9962 C   0  0  0  0  0  0  0  0  0  0  0  0
  -27.9519  -12.7128   18.3962 C   0  0  0  0  0  0  0  0  0  0  0  0
  -30.3855  -12.5975   19.0763 C   0  0  0  0  0  0  0  0  0  0  0  0
  -28.6602  -12.8172   20.8223 C   0  0  0  0  0  0  0  0  0  0  0  0
  -21.6910  -19.5233   26.3218 C   0  0  1  0  0  0  0  0  0  0  0  0
  -21.2959  -15.9869   27.6525 C   0  0  1  0  0  0  0  0  0  0  0  0
  -27.6200  -13.2820   19.7887 C   0  0  2  0  0  0  0  0  0  0  0  0
  -27.6167  -19.1516   25.0238 C   0  0  0  0  0  0  0  0  0  0  0  0
  -32.6609  -11.8983   26.1532 C   0  0  0  0  0  0  0  0  0  0  0  0
  -20.3872  -11.1597   33.6421 C   0  0  0  0  0  0  0  0  0  0  0  0
  -21.7562  -17.4333   32.0179 C   0  0  0  0  0  0  0  0  0  0  0  0
  -21.6609  -15.6412   33.7636 C   0  0  0  0  0  0  0  0  0  0  0  0
  -19.5738  -16.3609   32.6023 C   0  0  0  0  0  0  0  0  0  0  0  0
  -21.0256  -10.1892   30.0190 C   0  0  0  0  0  0  0  0  0  0  0  0
  -29.0384  -19.0040   25.5598 C   0  0  0  0  0  0  0  0  0  0  0  0
  -29.5179  -14.5248   27.7309 C   0  0  0  0  0  0  0  0  0  0  0  0
  -30.9087  -13.5423   25.3576 C   0  0  0  0  0  0  0  0  0  0  0  0
  -31.3446  -15.3297   23.0987 C   0  0  0  0  0  0  0  0  0  0  0  0
  -32.1889  -13.3434   26.1804 C   0  0  0  0  0  0  0  0  0  0  0  0
  -28.0375  -14.4092   28.0773 C   0  0  0  0  0  0  0  0  0  1  0  0
  -21.2819  -14.9867   31.3431 C   0  0  1  0  0  0  0  0  0  0  0  0
  -20.4429  -11.3764   32.1379 C   0  0  2  0  0  0  0  0  0  0  0  0
  -21.0837  -16.1019   32.4081 C   0  0  0  0  0  0  0  0  0  0  0  0
  -25.8657  -11.6464   20.3630 N   0  0  0  0  0  0  0  0  0  0  0  0
  -26.2035  -12.9383   20.2109 N   0  0  0  0  0  0  0  0  0  0  0  0
  -21.6933  -15.4155   28.9408 N   0  0  0  0  0  0  0  0  0  0  0  0
  -30.0151  -13.1723   20.3718 N   0  0  0  0  0  0  0  0  0  0  0  0
  -25.3527  -15.1436   20.3629 N   0  0  0  0  0  0  0  0  0  0  0  0
  -21.8098  -12.5800   21.4907 N   0  0  0  0  0  0  0  0  0  0  0  0
  -21.3710  -18.1264   26.5235 N   0  0  0  0  0  0  0  0  0  0  0  0
  -20.6328  -13.7226   31.6736 N   0  0  0  0  0  0  0  0  0  0  0  0
  -30.5077  -14.4836   22.2774 N   0  0  0  0  0  0  0  0  0  0  0  0
  -20.9422  -10.1251   31.5009 N   0  3  0  0  0  0  0  0  0  0  0  0
  -22.5227  -14.7369   21.1769 O   0  0  0  0  0  0  0  0  0  0  0  0
  -22.3568  -17.8630   28.6166 O   0  0  0  0  0  0  0  0  0  0  0  0
  -19.5622  -15.6602   29.8547 O   0  0  0  0  0  0  0  0  0  0  0  0
  -22.5554  -12.4274   31.6183 O   0  0  0  0  0  0  0  0  0  0  0  0
  -32.0691  -14.2199   20.6194 O   0  0  0  0  0  0  0  0  0  0  0  0
  -21.7216   -7.0160   21.7541 O   0  0  0  0  0  0  0  0  0  0  0  0
  -27.3263  -13.8492   26.9742 O   0  0  0  0  0  0  0  0  0  1  0  0
  -24.1762   -3.1327   24.8035 F   0  0  0  0  0  0  0  0  0  0  0  0
  -20.6122   -6.1769   24.1432 F   0  0  0  0  0  0  0  0  0  0  0  0
  1  2  1  0  0  0  0
  1  5  2  0  0  0  0
  2  6  2  0  0  0  0
  3  8  2  0  0  0  0
  3 17  1  0  0  0  0
  4  9  1  0  0  0  0
  4 17  2  0  0  0  0
  5 19  1  0  0  0  0
  6 21  1  0  0  0  0
  7 10  2  0  0  0  0
  7 20  1  0  0  0  0
  8 27  1  0  0  0  0
  9 27  2  0  0  0  0
 10 28  1  0  0  0  0
 11 12  2  0  0  0  0
 11 29  1  0  0  0  0
 12 30  1  0  0  0  0
 13 22  1  0  0  0  0
 13 28  2  0  0  0  0
 14 23  2  0  0  0  0
 14 24  1  0  0  0  0
 15 23  1  0  0  0  0
 15 25  2  0  0  0  0
 16 30  2  0  0  0  0
 16 31  1  0  0  0  0
 17 32  1  0  0  0  0
 18 32  1  0  0  0  0
 18 33  2  0  0  0  0
 18 34  1  0  0  0  0
 19 21  2  0  0  0  0
 19 39  1  0  0  0  0
 20 22  2  0  0  0  0
 20 40  1  0  0  0  0
 21 48  1  0  0  0  0
 22 41  1  0  0  0  0
 23 58  1  0  0  0  0
 24 26  2  0  0  0  0
 24 59  1  0  0  0  0
 25 26  1  0  0  0  0
 25 61  1  0  0  0  0
 26 60  1  0  0  0  0
 27 82  1  0  0  0  0
 28 83  1  0  0  0  0
 29 31  2  0  0  0  0
 29 82  1  0  0  0  0
 30 84  1  0  0  0  0
 31 85  1  0  0  0  0
 32 67  2  0  0  0  0
 33 68  1  0  0  0  0
 33 71  1  0  0  0  0
 34 72  1  0  0  0  0
 34 77  2  0  0  0  0
 35 49  1  0  0  0  0
 35 73  1  0  0  0  0
 35 78  2  0  0  0  0
 36 64  1  0  0  0  0
 36 69  1  0  0  0  0
 36 79  2  0  0  0  0
 37 65  1  0  0  0  0
 37 74  1  0  0  0  0
 37 80  2  0  0  0  0
 38 70  1  0  0  0  0
 38 75  1  0  0  0  0
 38 81  2  0  0  0  0
 39 42  1  0  0  0  0
 40 49  1  0  0  0  0
 41 69  1  0  0  0  0
 42 44  1  0  0  0  0
 43 45  1  0  0  0  0
 43 46  1  0  0  0  0
 44 48  1  0  0  0  0
 45 50  1  0  0  0  0
 46 70  1  0  0  0  0
 47 50  1  0  0  0  0
 47 70  1  0  0  0  0
 48 73  1  0  0  0  0
 49 69  1  0  0  0  0
 50 68  1  0  0  0  0
 51 58  1  0  0  0  0
 52 62  1  0  0  0  0
 53 65  1  0  0  0  0
 54 66  1  0  0  0  0
 55 66  1  0  0  0  0
 56 66  1  0  0  0  0
 57 76  1  0  0  0  0
 59 63  1  0  0  0  0
 60 62  1  0  0  0  0
 61 75  1  0  0  0  0
 63 83  1  0  0  0  0
 64 66  1  0  0  0  0
 64 74  1  0  0  0  0
 65 76  1  0  0  0  0
 67 68  1  0  0  0  0
M  CHG  1  76   1
M  ISO  4  38 100  63 101  75 100  83 101
M  END
> <Batch ID>
0035

> <Smiles>
CCCc1c(C[100NH:0][100C:0](=O)N2CCCC(n3nc(-c4ccc(Oc5ccc(F)cc5F)cc4)c(C(N)=O)c3N)C2)cc(CC)cc1C[101CH2:1][101O:1]c1ccc2c(c1)CN(C(=O)C(NC(=O)C(C)NC)C(C)(C)C)C(C(=O)NC1CCCc3ccccc31)C2

> <Shape>
0.154

> <Color>
0.187

> <Negative vol penalty>
0.000

$$$$

  -OEChem-04052316533D

 84 92  0     1  0  0  0  0  0999 V2000
  -17.7187  -31.2224   21.3907 C   0  0  0  0  0  0  0  0  0  0  0  0
  -19.0893  -31.4604   21.3728 C   0  0  0  0  0  0  0  0  0  0  0  0
  -25.8285  -14.7576   21.6413 C   0  0  0  0  0  0  0  0  0  0  0  0
  -24.8922  -16.1804   19.9278 C   0  0  0  0  0  0  0  0  0  0  0  0
  -17.2330  -29.9823   21.8030 C   0  0  0  0  0  0  0  0  0  0  0  0
  -19.9749  -30.4586   21.7683 C   0  0  0  0  0  0  0  0  0  0  0  0
  -25.5488  -29.3590   19.4816 C   0  0  0  0  0  0  0  0  0  0  0  0
  -24.6424  -14.0247   21.6809 C   0  0  0  0  0  0  0  0  0  0  0  0
  -23.7061  -15.4474   19.9673 C   0  0  0  0  0  0  0  0  0  0  0  0
  -26.8268  -29.7050   19.9183 C   0  0  0  0  0  0  0  0  0  0  0  0
  -23.1488  -11.6027   19.8543 C   0  0  0  0  0  0  0  0  0  0  0  0
  -23.2469  -10.2115   19.8748 C   0  0  0  0  0  0  0  0  0  0  0  0
  -27.0387  -27.5518   20.9851 C   0  0  0  0  0  0  0  0  0  0  0  0
  -30.1865  -24.1791   17.6714 C   0  0  0  0  0  0  0  0  0  0  0  0
  -31.3790  -25.7692   19.0448 C   0  0  0  0  0  0  0  0  0  0  0  0
  -22.0893  -10.1611   21.9948 C   0  0  0  0  0  0  0  0  0  0  0  0
  -25.9534  -15.8355   20.7648 C   0  0  0  0  0  0  0  0  0  0  0  0
  -28.3007  -16.3516   19.9095 C   0  0  0  0  0  0  0  0  0  0  0  0
  -18.1135  -28.9615   22.1945 C   0  0  0  0  0  0  0  0  0  0  0  0
  -25.0009  -28.1088   19.8031 C   0  0  0  0  0  0  0  0  0  0  0  0
  -19.5005  -29.2040   22.1875 C   0  0  0  0  0  0  0  0  0  0  0  0
  -25.7545  -27.1913   20.5490 C   0  0  0  0  0  0  0  0  0  0  0  0
  -31.0835  -24.4491   18.7049 C   0  0  0  0  0  0  0  0  0  0  0  0
  -29.5851  -25.2293   16.9777 C   0  0  0  0  0  0  0  0  0  0  0  0
  -29.8806  -26.5494   17.3176 C   0  0  0  0  0  0  0  0  0  0  0  0
  -23.5812  -14.3696   20.8438 C   0  0  0  0  0  0  0  0  0  0  0  0
  -27.5708  -28.8025   20.6726 C   0  0  0  0  0  0  0  0  0  0  0  0
  -22.5210  -12.2732   20.9041 C   0  0  0  0  0  0  0  0  0  0  0  0
  -30.7776  -26.8194   18.3512 C   0  0  0  0  0  0  0  0  0  0  0  0
  -22.7171   -9.4907   20.9450 C   0  0  0  0  0  0  0  0  0  0  0  0
  -21.9913  -11.5524   21.9744 C   0  0  0  0  0  0  0  0  0  0  0  0
  -27.1782  -16.5934   20.7239 C   0  0  0  0  0  0  0  0  0  0  0  0
  -29.1893  -17.3433   20.2463 C   0  0  0  0  0  0  0  0  0  0  0  0
  -28.5205  -15.3225   18.9356 C   0  0  0  0  0  0  0  0  0  0  0  0
  -22.4668  -27.1274   21.4521 C   0  0  0  0  0  0  0  0  0  0  0  0
  -23.3642  -24.2124   20.3476 C   0  0  0  0  0  0  0  0  0  0  0  0
  -25.8546  -22.2071   19.1544 C   0  0  0  0  0  0  0  0  0  0  0  0
  -30.3134  -22.6901   21.3834 C   0  0  0  0  0  0  0  0  0  0  0  0
  -17.5394  -27.6532   22.6774 C   0  0  0  0  0  0  0  0  0  0  0  0
  -23.6314  -27.7406   19.3018 C   0  0  0  0  0  0  0  0  0  0  0  0
  -25.2199  -25.8287   20.9038 C   0  0  0  0  0  0  0  0  0  0  0  0
  -18.5611  -26.5199   22.7240 C   0  0  0  0  0  0  0  0  0  0  0  0
  -29.1250  -20.6654   24.0602 C   0  0  0  0  0  0  0  0  0  0  0  0
  -19.8528  -26.9924   23.3836 C   0  0  0  0  0  0  0  0  0  0  0  0
  -28.5998  -19.4091   23.3632 C   0  0  0  0  0  0  0  0  0  0  0  0
  -28.8577  -21.9221   23.2348 C   0  0  0  0  0  0  0  0  0  0  0  0
  -28.8245  -20.6106   21.1486 C   0  0  0  0  0  0  0  0  0  0  0  0
  -20.4940  -28.1342   22.5856 C   0  0  1  0  0  0  0  0  0  0  0  0
  -22.9707  -26.6382   20.1237 C   0  0  1  0  0  0  0  0  0  0  0  0
  -29.1206  -19.3111   21.9167 C   0  0  2  0  0  0  0  0  0  0  0  0
  -28.6291  -24.9137   15.8742 C   0  0  0  0  0  0  0  0  0  0  0  0
  -29.2380  -27.6791   16.5779 C   0  0  0  0  0  0  0  0  0  0  0  0
  -26.9283  -20.1643   18.1687 C   0  0  0  0  0  0  0  0  0  0  0  0
  -23.3391  -23.2467   23.2419 C   0  0  0  0  0  0  0  0  0  0  0  0
  -24.6673  -21.2528   22.5150 C   0  0  0  0  0  0  0  0  0  0  0  0
  -22.3797  -21.6286   21.5939 C   0  0  0  0  0  0  0  0  0  0  0  0
  -25.3588  -23.1386   16.3894 C   0  0  0  0  0  0  0  0  0  0  0  0
  -31.7273  -23.3260   19.4455 C   0  0  0  0  0  0  0  0  0  0  0  0
  -31.0531  -29.7688   20.4455 C   0  0  0  0  0  0  0  0  0  0  0  0
  -29.5653  -30.0380   20.2833 C   0  0  0  0  0  0  0  0  0  1  0  0
  -31.4188  -28.3441   20.0600 C   0  0  0  0  0  0  0  0  0  0  0  0
  -24.2791  -23.1175   20.8407 C   0  0  1  0  0  0  0  0  0  0  0  0
  -25.9108  -21.2747   17.9578 C   0  0  2  0  0  0  0  0  0  0  0  0
  -23.6759  -22.3378   22.0430 C   0  0  0  0  0  0  0  0  0  0  0  0
  -27.3367  -17.6554   21.5183 N   0  0  0  0  0  0  0  0  0  0  0  0
  -28.5692  -18.0896   21.2048 N   0  0  0  0  0  0  0  0  0  0  0  0
  -23.8735  -25.5178   20.3958 N   0  0  0  0  0  0  0  0  0  0  0  0
  -29.3776  -21.7648   21.8743 N   0  0  0  0  0  0  0  0  0  0  0  0
  -30.4327  -17.6410   19.8130 N   0  0  0  0  0  0  0  0  0  0  0  0
  -27.5032  -14.3844   18.7136 N   0  0  0  0  0  0  0  0  0  0  0  0
  -21.1744  -27.6153   21.4185 N   0  0  0  0  0  0  0  0  0  0  0  0
  -24.5827  -22.2860   19.6810 N   0  0  0  0  0  0  0  0  0  0  0  0
  -30.7595  -22.4642   20.0870 N   0  0  0  0  0  0  0  0  0  0  0  0
  -26.2876  -22.0303   16.7297 N   0  3  0  0  0  0  0  0  0  0  0  0
  -29.5939  -15.2277   18.2934 O   0  0  0  0  0  0  0  0  0  0  0  0
  -23.1961  -27.0653   22.4350 O   0  0  0  0  0  0  0  0  0  0  0  0
  -22.2417  -23.9193   19.9282 O   0  0  0  0  0  0  0  0  0  0  0  0
  -26.8411  -22.8027   19.5817 O   0  0  0  0  0  0  0  0  0  0  0  0
  -30.7250  -23.6437   22.0529 O   0  0  0  0  0  0  0  0  0  0  0  0
  -22.4238  -13.6544   20.8820 O   0  0  0  0  0  0  0  0  0  0  0  0
  -28.8183  -29.1379   21.1007 O   0  0  0  0  0  0  0  0  0  1  0  0
  -31.0794  -28.1101   18.6999 O   0  0  0  0  0  0  0  0  0  0  0  0
  -22.8100   -8.1546   20.9638 F   0  0  0  0  0  0  0  0  0  0  0  0
  -21.3860  -12.1909   22.9852 F   0  0  0  0  0  0  0  0  0  0  0  0
  1  2  1  0  0  0  0
  1  5  2  0  0  0  0
  2  6  2  0  0  0  0
  3  8  2  0  0  0  0
  3 17  1  0  0  0  0
  4  9  1  0  0  0  0
  4 17  2  0  0  0  0
  5 19  1  0  0  0  0
  6 21  1  0  0  0  0
  7 10  2  0  0  0  0
  7 20  1  0  0  0  0
  8 26  1  0  0  0  0
  9 26  2  0  0  0  0
 10 27  1  0  0  0  0
 11 12  2  0  0  0  0
 11 28  1  0  0  0  0
 12 30  1  0  0  0  0
 13 22  1  0  0  0  0
 13 27  2  0  0  0  0
 14 23  1  0  0  0  0
 14 24  2  0  0  0  0
 15 23  2  0  0  0  0
 15 29  1  0  0  0  0
 16 30  2  0  0  0  0
 16 31  1  0  0  0  0
 17 32  1  0  0  0  0
 18 32  1  0  0  0  0
 18 33  2  0  0  0  0
 18 34  1  0  0  0  0
 19 21  2  0  0  0  0
 19 39  1  0  0  0  0
 20 22  2  0  0  0  0
 20 40  1  0  0  0  0
 21 48  1  0  0  0  0
 22 41  1  0  0  0  0
 23 58  1  0  0  0  0
 24 25  1  0  0  0  0
 24 51  1  0  0  0  0
 25 29  2  0  0  0  0
 25 52  1  0  0  0  0
 26 80  1  0  0  0  0
 27 81  1  0  0  0  0
 28 31  2  0  0  0  0
 28 80  1  0  0  0  0
 29 82  1  0  0  0  0
 30 83  1  0  0  0  0
 31 84  1  0  0  0  0
 32 65  2  0  0  0  0
 33 66  1  0  0  0  0
 33 69  1  0  0  0  0
 34 70  1  0  0  0  0
 34 75  2  0  0  0  0
 35 49  1  0  0  0  0
 35 71  1  0  0  0  0
 35 76  2  0  0  0  0
 36 62  1  0  0  0  0
 36 67  1  0  0  0  0
 36 77  2  0  0  0  0
 37 63  1  0  0  0  0
 37 72  1  0  0  0  0
 37 78  2  0  0  0  0
 38 68  1  0  0  0  0
 38 73  1  0  0  0  0
 38 79  2  0  0  0  0
 39 42  1  0  0  0  0
 40 49  1  0  0  0  0
 41 67  1  0  0  0  0
 42 44  1  0  0  0  0
 43 45  1  0  0  0  0
 43 46  1  0  0  0  0
 44 48  1  0  0  0  0
 45 50  1  0  0  0  0
 46 68  1  0  0  0  0
 47 50  1  0  0  0  0
 47 68  1  0  0  0  0
 48 71  1  0  0  0  0
 49 67  1  0  0  0  0
 50 66  1  0  0  0  0
 53 63  1  0  0  0  0
 54 64  1  0  0  0  0
 55 64  1  0  0  0  0
 56 64  1  0  0  0  0
 57 74  1  0  0  0  0
 58 73  1  0  0  0  0
 59 60  1  0  0  0  0
 59 61  1  0  0  0  0
 60 81  1  0  0  0  0
 61 82  1  0  0  0  0
 62 64  1  0  0  0  0
 62 72  1  0  0  0  0
 63 74  1  0  0  0  0
 65 66  1  0  0  0  0
M  CHG  1  74   1
M  ISO  4  38 100  60 101  73 100  81 101
M  END
> <Batch ID>
0035

> <Smiles>
CNC(C)C(=O)NC(C(=O)N1Cc2cc([101O:1][101CH2:1]CCOc3cc(C[100NH:0][100C:0](=O)N4CCCC(n5nc(-c6ccc(Oc7ccc(F)cc7F)cc6)c(C(N)=O)c5N)C4)cc(C)c3C)ccc2CC1C(=O)NC1CCCc2ccccc21)C(C)(C)C

> <Shape>
0.242

> <Color>
0.062

> <Negative vol penalty>
0.000

$$$$

  -OEChem-04052316533D

 82 90  0     1  0  0  0  0  0999 V2000
  -19.9160  -28.7910   25.8934 C   0  0  0  0  0  0  0  0  0  0  0  0
  -21.2377  -28.3629   25.8218 C   0  0  0  0  0  0  0  0  0  0  0  0
  -24.5760  -14.3151   21.3546 C   0  0  0  0  0  0  0  0  0  0  0  0
  -26.9675  -13.9752   21.3065 C   0  0  0  0  0  0  0  0  0  0  0  0
  -19.0866  -28.6783   24.7783 C   0  0  0  0  0  0  0  0  0  0  0  0
  -21.7306  -27.8208   24.6354 C   0  0  0  0  0  0  0  0  0  0  0  0
  -27.4066  -28.3888   22.4070 C   0  0  0  0  0  0  0  0  0  0  0  0
  -24.3839  -13.0389   20.8254 C   0  0  0  0  0  0  0  0  0  0  0  0
  -26.7754  -12.6989   20.7773 C   0  0  0  0  0  0  0  0  0  0  0  0
  -28.5179  -27.5478   22.4454 C   0  0  0  0  0  0  0  0  0  0  0  0
  -24.4056   -9.8487   21.9455 C   0  0  0  0  0  0  0  0  0  0  0  0
  -23.4226   -9.0473   22.5262 C   0  0  0  0  0  0  0  0  0  0  0  0
  -27.9417  -26.6965   20.2631 C   0  0  0  0  0  0  0  0  0  0  0  0
  -32.7284  -23.5182   22.7308 C   0  0  0  0  0  0  0  0  0  0  0  0
  -31.7208  -23.4838   20.5353 C   0  0  0  0  0  0  0  0  0  0  0  0
  -22.2674   -8.9292   20.4076 C   0  0  0  0  0  0  0  0  0  0  0  0
  -25.8678  -14.7833   21.5951 C   0  0  0  0  0  0  0  0  0  0  0  0
  -26.1448  -16.4555   23.5015 C   0  0  0  0  0  0  0  0  0  0  0  0
  -19.5723  -28.1435   23.5747 C   0  0  0  0  0  0  0  0  0  0  0  0
  -26.5469  -28.3821   21.2991 C   0  0  0  0  0  0  0  0  0  0  0  0
  -20.9065  -27.6996   23.5036 C   0  0  0  0  0  0  0  0  0  0  0  0
  -26.8216  -27.5402   20.2119 C   0  0  0  0  0  0  0  0  0  0  0  0
  -32.2391  -24.1981   21.6155 C   0  0  0  0  0  0  0  0  0  0  0  0
  -32.6997  -22.1241   22.7658 C   0  0  0  0  0  0  0  0  0  0  0  0
  -31.6920  -22.0897   20.5703 C   0  0  0  0  0  0  0  0  0  0  0  0
  -32.1814  -21.4098   21.6856 C   0  0  0  0  0  0  0  0  0  0  0  0
  -25.4836  -12.2308   20.5368 C   0  0  0  0  0  0  0  0  0  0  0  0
  -28.7840  -26.6994   21.3747 C   0  0  0  0  0  0  0  0  0  0  0  0
  -24.3194  -10.1904   20.5959 C   0  0  0  0  0  0  0  0  0  0  0  0
  -22.3535   -8.5876   21.7573 C   0  0  0  0  0  0  0  0  0  0  0  0
  -23.2503   -9.7306   19.8269 C   0  0  0  0  0  0  0  0  0  0  0  0
  -26.0669  -16.1017   22.1412 C   0  0  0  0  0  0  0  0  0  0  0  0
  -26.3387  -17.8152   23.4921 C   0  0  0  0  0  0  0  0  0  0  0  0
  -26.0503  -15.6290   24.6693 C   0  0  0  0  0  0  0  0  0  0  0  0
  -23.4752  -27.7007   20.8475 C   0  0  0  0  0  0  0  0  0  0  0  0
  -24.0805  -28.7724   17.8462 C   0  0  0  0  0  0  0  0  0  0  0  0
  -26.3701  -29.3452   15.3812 C   0  0  0  0  0  0  0  0  0  0  0  0
  -28.6608  -21.5747   19.4517 C   0  0  0  0  0  0  0  0  0  0  0  0
  -18.6248  -27.9982   22.4103 C   0  0  0  0  0  0  0  0  0  0  0  0
  -25.3674  -29.3146   21.2614 C   0  0  0  0  0  0  0  0  0  0  0  0
  -25.9411  -27.5097   18.9903 C   0  0  0  0  0  0  0  0  0  0  0  0
  -19.3297  -27.7581   21.0777 C   0  0  0  0  0  0  0  0  0  0  0  0
  -25.4025  -21.7130   20.8803 C   0  0  0  0  0  0  0  0  0  0  0  0
  -20.4071  -26.6890   21.2287 C   0  0  0  0  0  0  0  0  0  0  0  0
  -25.2103  -20.3225   21.4882 C   0  0  0  0  0  0  0  0  0  0  0  0
  -26.1878  -21.6534   19.5719 C   0  0  0  0  0  0  0  0  0  0  0  0
  -27.2900  -19.5612   20.2659 C   0  0  0  0  0  0  0  0  0  0  0  0
  -21.4849  -27.1290   22.2269 C   0  0  1  0  0  0  0  0  0  0  0  0
  -24.2717  -28.8537   20.3052 C   0  0  1  0  0  0  0  0  0  0  0  0
  -26.5518  -19.5759   21.6154 C   0  0  2  0  0  0  0  0  0  0  0  0
  -33.2290  -21.4201   23.9725 C   0  0  0  0  0  0  0  0  0  0  0  0
  -32.1503  -19.9150   21.7237 C   0  0  0  0  0  0  0  0  0  0  0  0
  -26.5594  -30.1923   13.0266 C   0  0  0  0  0  0  0  0  0  0  0  0
  -22.9334  -26.1417   16.8102 C   0  0  0  0  0  0  0  0  0  0  0  0
  -23.9995  -26.6286   14.5978 C   0  0  0  0  0  0  0  0  0  0  0  0
  -22.2534  -28.1627   15.5036 C   0  0  0  0  0  0  0  0  0  0  0  0
  -28.1577  -31.5581   16.1977 C   0  0  0  0  0  0  0  0  0  0  0  0
  -32.2708  -25.7067   21.5773 C   0  0  0  0  0  0  0  0  0  0  0  0
  -31.1317  -21.3482   19.4007 C   0  0  0  0  0  0  0  0  0  0  0  0
  -31.0015  -26.3281   22.1498 C   0  0  0  0  0  0  0  0  0  1  0  0
  -24.5506  -28.1386   16.5592 C   0  0  1  0  0  0  0  0  0  0  0  0
  -26.6216  -30.5568   14.5017 C   0  0  2  0  0  0  0  0  0  0  0  0
  -23.4499  -27.2668   15.8914 C   0  0  0  0  0  0  0  0  0  0  0  0
  -26.2003  -17.1519   21.3268 N   0  0  0  0  0  0  0  0  0  0  0  0
  -26.3638  -18.1790   22.1779 N   0  0  0  0  0  0  0  0  0  0  0  0
  -24.7965  -28.4354   19.0037 N   0  0  0  0  0  0  0  0  0  0  0  0
  -27.4498  -20.9340   19.7613 N   0  0  0  0  0  0  0  0  0  0  0  0
  -26.4884  -18.7232   24.4798 N   0  0  0  0  0  0  0  0  0  0  0  0
  -25.8505  -14.2523   24.4990 N   0  0  0  0  0  0  0  0  0  0  0  0
  -22.3870  -28.0783   21.6108 N   0  0  0  0  0  0  0  0  0  0  0  0
  -25.0391  -29.2289   15.7219 N   0  0  0  0  0  0  0  0  0  0  0  0
  -29.8104  -20.8243   19.6663 N   0  0  0  0  0  0  0  0  0  0  0  0
  -27.9656  -31.1339   14.7870 N   0  3  0  0  0  0  0  0  0  0  0  0
  -26.1241  -16.0998   25.8296 O   0  0  0  0  0  0  0  0  0  0  0  0
  -23.8215  -26.5535   20.5911 O   0  0  0  0  0  0  0  0  0  0  0  0
  -23.1182  -29.5438   17.8242 O   0  0  0  0  0  0  0  0  0  0  0  0
  -27.2643  -28.5767   15.7279 O   0  0  0  0  0  0  0  0  0  0  0  0
  -28.7140  -22.7318   19.0213 O   0  0  0  0  0  0  0  0  0  0  0  0
  -25.2965  -10.9854   20.0206 O   0  0  0  0  0  0  0  0  0  0  0  0
  -29.8677  -25.8770   21.4100 O   0  0  0  0  0  0  0  0  0  1  0  0
  -21.4105   -7.8168   22.3147 F   0  0  0  0  0  0  0  0  0  0  0  0
  -23.1628  -10.0546   18.5296 F   0  0  0  0  0  0  0  0  0  0  0  0
  1  2  1  0  0  0  0
  1  5  2  0  0  0  0
  2  6  2  0  0  0  0
  3  8  2  0  0  0  0
  3 17  1  0  0  0  0
  4  9  1  0  0  0  0
  4 17  2  0  0  0  0
  5 19  1  0  0  0  0
  6 21  1  0  0  0  0
  7 10  2  0  0  0  0
  7 20  1  0  0  0  0
  8 27  1  0  0  0  0
  9 27  2  0  0  0  0
 10 28  1  0  0  0  0
 11 12  2  0  0  0  0
 11 29  1  0  0  0  0
 12 30  1  0  0  0  0
 13 22  1  0  0  0  0
 13 28  2  0  0  0  0
 14 23  1  0  0  0  0
 14 24  2  0  0  0  0
 15 23  2  0  0  0  0
 15 25  1  0  0  0  0
 16 30  2  0  0  0  0
 16 31  1  0  0  0  0
 17 32  1  0  0  0  0
 18 32  1  0  0  0  0
 18 33  2  0  0  0  0
 18 34  1  0  0  0  0
 19 21  2  0  0  0  0
 19 39  1  0  0  0  0
 20 22  2  0  0  0  0
 20 40  1  0  0  0  0
 21 48  1  0  0  0  0
 22 41  1  0  0  0  0
 23 58  1  0  0  0  0
 24 26  1  0  0  0  0
 24 51  1  0  0  0  0
 25 26  2  0  0  0  0
 25 59  1  0  0  0  0
 26 52  1  0  0  0  0
 27 79  1  0  0  0  0
 28 80  1  0  0  0  0
 29 31  2  0  0  0  0
 29 79  1  0  0  0  0
 30 81  1  0  0  0  0
 31 82  1  0  0  0  0
 32 64  2  0  0  0  0
 33 65  1  0  0  0  0
 33 68  1  0  0  0  0
 34 69  1  0  0  0  0
 34 74  2  0  0  0  0
 35 49  1  0  0  0  0
 35 70  1  0  0  0  0
 35 75  2  0  0  0  0
 36 61  1  0  0  0  0
 36 66  1  0  0  0  0
 36 76  2  0  0  0  0
 37 62  1  0  0  0  0
 37 71  1  0  0  0  0
 37 77  2  0  0  0  0
 38 67  1  0  0  0  0
 38 72  1  0  0  0  0
 38 78  2  0  0  0  0
 39 42  1  0  0  0  0
 40 49  1  0  0  0  0
 41 66  1  0  0  0  0
 42 44  1  0  0  0  0
 43 45  1  0  0  0  0
 43 46  1  0  0  0  0
 44 48  1  0  0  0  0
 45 50  1  0  0  0  0
 46 67  1  0  0  0  0
 47 50  1  0  0  0  0
 47 67  1  0  0  0  0
 48 70  1  0  0  0  0
 49 66  1  0  0  0  0
 50 65  1  0  0  0  0
 53 62  1  0  0  0  0
 54 63  1  0  0  0  0
 55 63  1  0  0  0  0
 56 63  1  0  0  0  0
 57 73  1  0  0  0  0
 58 60  1  0  0  0  0
 59 72  1  0  0  0  0
 60 80  1  0  0  0  0
 61 63  1  0  0  0  0
 61 71  1  0  0  0  0
 62 73  1  0  0  0  0
 64 65  1  0  0  0  0
M  CHG  1  73   1
M  ISO  4  38 100  60 101  72 100  80 101
M  END
> <Batch ID>
0035

> <Smiles>
CNC(C)C(=O)NC(C(=O)N1Cc2cc([101O:1][101CH2:1]Cc3cc(C)c(C)c(C[100NH:0][100C:0](=O)N4CCCC(n5nc(-c6ccc(Oc7ccc(F)cc7F)cc6)c(C(N)=O)c5N)C4)c3)ccc2CC1C(=O)NC1CCCc2ccccc21)C(C)(C)C

> <Shape>
0.199

> <Color>
0.078

> <Negative vol penalty>
0.000

$$$$

  -OEChem-04052316533D

 88 96  0     1  0  0  0  0  0999 V2000
  -29.8002  -13.1185   19.2532 C   0  0  0  0  0  0  0  0  0  0  0  0
  -29.3540  -14.3965   18.9321 C   0  0  0  0  0  0  0  0  0  0  0  0
  -26.4207  -28.8492   18.9235 C   0  0  0  0  0  0  0  0  0  0  0  0
  -26.5010  -28.4960   21.3122 C   0  0  0  0  0  0  0  0  0  0  0  0
  -28.8895  -12.1465   19.6653 C   0  0  0  0  0  0  0  0  0  0  0  0
  -27.9966  -14.7029   19.0220 C   0  0  0  0  0  0  0  0  0  0  0  0
  -25.5337  -20.0621   20.6709 C   0  0  0  0  0  0  0  0  0  0  0  0
  -25.2509  -29.5940   19.0729 C   0  0  0  0  0  0  0  0  0  0  0  0
  -25.3312  -29.2409   21.4616 C   0  0  0  0  0  0  0  0  0  0  0  0
  -25.0189  -21.1252   19.9303 C   0  0  0  0  0  0  0  0  0  0  0  0
  -22.0084  -28.7701   21.0514 C   0  0  0  0  0  0  0  0  0  0  0  0
  -21.0184  -28.2603   21.8914 C   0  0  0  0  0  0  0  0  0  0  0  0
  -22.7958  -20.2280   20.1988 C   0  0  0  0  0  0  0  0  0  0  0  0
  -22.2618  -23.4599   22.1154 C   0  0  0  0  0  0  0  0  0  0  0  0
  -21.1766  -30.2342   23.2757 C   0  0  0  0  0  0  0  0  0  0  0  0
  -23.8661  -24.5825   20.7653 C   0  0  0  0  0  0  0  0  0  0  0  0
  -27.0457  -28.3001   20.0431 C   0  0  0  0  0  0  0  0  0  0  0  0
  -29.5770  -28.0100   19.9160 C   0  0  0  0  0  0  0  0  0  0  0  0
  -27.5216  -12.4439   19.7696 C   0  0  0  0  0  0  0  0  0  0  0  0
  -24.6832  -19.0664   21.1726 C   0  0  0  0  0  0  0  0  0  0  0  0
  -27.0667  -13.7336   19.4347 C   0  0  0  0  0  0  0  0  0  0  0  0
  -23.3020  -19.1546   20.9476 C   0  0  0  0  0  0  0  0  0  0  0  0
  -22.7845  -23.7210   20.8537 C   0  0  0  0  0  0  0  0  0  0  0  0
  -22.8286  -24.0599   23.2343 C   0  0  0  0  0  0  0  0  0  0  0  0
  -24.7061  -29.7899   20.3419 C   0  0  0  0  0  0  0  0  0  0  0  0
  -23.6502  -21.2068   19.6917 C   0  0  0  0  0  0  0  0  0  0  0  0
  -22.5826  -30.0118   21.3235 C   0  0  0  0  0  0  0  0  0  0  0  0
  -20.6024  -28.9924   23.0035 C   0  0  0  0  0  0  0  0  0  0  0  0
  -22.1666  -30.7439   22.4356 C   0  0  0  0  0  0  0  0  0  0  0  0
  -28.2538  -27.5301   19.8893 C   0  0  0  0  0  0  0  0  0  0  0  0
  -23.9083  -24.9061   23.0394 C   0  0  0  0  0  0  0  0  0  0  0  0
  -30.3517  -26.8920   19.7255 C   0  0  0  0  0  0  0  0  0  0  0  0
  -30.0624  -29.3469   20.0969 C   0  0  0  0  0  0  0  0  0  0  0  0
  -24.3949  -15.9316   20.7320 C   0  0  0  0  0  0  0  0  0  0  0  0
  -22.1961  -16.1945   23.1024 C   0  0  0  0  0  0  0  0  0  0  0  0
  -19.9978  -18.1698   24.8089 C   0  0  0  0  0  0  0  0  0  0  0  0
  -29.4312  -21.0679   20.7666 C   0  0  0  0  0  0  0  0  0  0  0  0
  -26.5690  -11.3469   20.1742 C   0  0  0  0  0  0  0  0  0  0  0  0
  -25.2511  -17.9403   21.9923 C   0  0  0  0  0  0  0  0  0  0  0  0
  -22.3441  -18.1222   21.4815 C   0  0  0  0  0  0  0  0  0  0  0  0
  -25.1965  -11.8595   20.6029 C   0  0  0  0  0  0  0  0  0  0  0  0
  -30.2590  -22.5812   17.6520 C   0  0  0  0  0  0  0  0  0  0  0  0
  -24.6775  -12.8923   19.6075 C   0  0  0  0  0  0  0  0  0  0  0  0
  -29.9584  -24.0645   17.8746 C   0  0  0  0  0  0  0  0  0  0  0  0
  -29.2540  -21.6870   18.3746 C   0  0  0  0  0  0  0  0  0  0  0  0
  -28.8004  -23.4484   20.0375 C   0  0  0  0  0  0  0  0  0  0  0  0
  -25.6053  -14.1115   19.5434 C   0  0  1  0  0  0  0  0  0  0  0  0
  -24.3525  -16.7077   22.0180 C   0  0  1  0  0  0  0  0  0  0  0  0
  -29.8203  -24.3897   19.3741 C   0  0  2  0  0  0  0  0  0  0  0  0
  -22.2722  -23.7860   24.5889 C   0  0  0  0  0  0  0  0  0  0  0  0
  -21.7015  -24.1217   18.6155 C   0  0  0  0  0  0  0  0  0  0  0  0
  -18.3152  -18.0935   26.6692 C   0  0  0  0  0  0  0  0  0  0  0  0
  -20.2171  -14.7915   21.2516 C   0  0  0  0  0  0  0  0  0  0  0  0
  -18.3683  -15.5838   22.7423 C   0  0  0  0  0  0  0  0  0  0  0  0
  -20.1196  -14.0498   23.6379 C   0  0  0  0  0  0  0  0  0  0  0  0
  -21.5006  -20.1574   26.4057 C   0  0  0  0  0  0  0  0  0  0  0  0
  -24.5580  -25.5778   24.2049 C   0  0  0  0  0  0  0  0  0  0  0  0
  -25.1089  -24.6107   25.2675 C   0  0  0  0  0  0  0  0  0  0  0  0
  -26.1878  -23.6727   24.7153 C   0  0  0  0  0  0  0  0  0  0  0  0
  -26.7305  -22.7500   25.8096 C   0  0  0  0  0  0  0  0  0  0  0  0
  -27.7631  -21.7411   25.2979 C   0  0  0  0  0  0  0  0  0  0  0  0
  -27.2386  -20.8536   24.1659 C   0  0  0  0  0  0  0  0  0  0  0  0
  -28.3219  -19.8875   23.6742 C   0  0  0  0  0  0  0  0  0  0  0  0
  -29.5826  -20.6047   23.2001 C   0  0  0  0  0  0  0  0  0  0  0  0
  -22.1923  -23.0843   19.6173 C   0  0  1  0  0  0  0  0  0  1  0  0
  -20.7111  -16.4606   23.1584 C   0  0  1  0  0  0  0  0  0  0  0  0
  -19.7642  -18.3653   26.2961 C   0  0  2  0  0  0  0  0  0  0  0  0
  -19.8720  -15.2400   22.6857 C   0  0  0  0  0  0  0  0  0  0  0  0
  -24.4435  -25.1839   21.8295 N   0  0  0  0  0  0  0  0  0  0  0  0
  -28.1879  -26.2100   19.6969 N   0  0  0  0  0  0  0  0  0  0  0  0
  -29.4794  -25.8509   19.6008 N   0  0  0  0  0  0  0  0  0  0  0  0
  -22.9485  -17.0370   22.2718 N   0  0  0  0  0  0  0  0  0  0  0  0
  -29.1718  -22.0460   19.7925 N   0  0  0  0  0  0  0  0  0  0  0  0
  -31.6871  -26.7076   19.6541 N   0  0  0  0  0  0  0  0  0  0  0  0
  -29.1300  -30.3773   20.2798 N   0  0  0  0  0  0  0  0  0  0  0  0
  -25.3884  -14.9723   20.6864 N   0  0  0  0  0  0  0  0  0  0  0  0
  -20.4247  -16.8903   24.5229 N   0  0  0  0  0  0  0  0  0  0  0  0
  -29.3379  -21.4934   22.0861 N   0  0  0  0  0  0  0  0  0  0  0  0
  -20.0977  -19.7624   26.6936 N   0  3  0  0  0  0  0  0  0  0  0  0
  -31.2861  -29.6222   20.0800 O   0  0  0  0  0  0  0  0  0  0  0  0
  -23.5852  -16.1835   19.8474 O   0  0  0  0  0  0  0  0  0  0  0  0
  -22.6720  -15.2775   23.7764 O   0  0  0  0  0  0  0  0  0  0  0  0
  -19.8159  -19.0617   23.9832 O   0  0  0  0  0  0  0  0  0  0  0  0
  -29.7295  -19.9031   20.4816 O   0  0  0  0  0  0  0  0  0  0  0  0
  -23.5648  -30.5169   20.4882 O   0  0  0  0  0  0  0  0  0  0  0  0
  -23.1451  -22.2431   18.9686 O   0  0  0  0  0  0  0  0  0  1  0  0
  -19.6506  -28.5034   23.8093 F   0  0  0  0  0  0  0  0  0  0  0  0
  -22.7137  -31.9380   22.7015 F   0  0  0  0  0  0  0  0  0  0  0  0
  1  2  1  0  0  0  0
  1  5  2  0  0  0  0
  2  6  2  0  0  0  0
  3  8  2  0  0  0  0
  3 17  1  0  0  0  0
  4  9  1  0  0  0  0
  4 17  2  0  0  0  0
  5 19  1  0  0  0  0
  6 21  1  0  0  0  0
  7 10  2  0  0  0  0
  7 20  1  0  0  0  0
  8 25  1  0  0  0  0
  9 25  2  0  0  0  0
 10 26  1  0  0  0  0
 11 12  2  0  0  0  0
 11 27  1  0  0  0  0
 12 28  1  0  0  0  0
 13 22  1  0  0  0  0
 13 26  2  0  0  0  0
 14 23  2  0  0  0  0
 14 24  1  0  0  0  0
 15 28  2  0  0  0  0
 15 29  1  0  0  0  0
 16 23  1  0  0  0  0
 16 69  2  0  0  0  0
 17 30  1  0  0  0  0
 18 30  1  0  0  0  0
 18 32  2  0  0  0  0
 18 33  1  0  0  0  0
 19 21  2  0  0  0  0
 19 38  1  0  0  0  0
 20 22  2  0  0  0  0
 20 39  1  0  0  0  0
 21 47  1  0  0  0  0
 22 40  1  0  0  0  0
 23 65  1  0  0  0  0
 24 31  2  0  0  0  0
 24 50  1  0  0  0  0
 25 85  1  0  0  0  0
 26 86  1  0  0  0  0
 27 29  2  0  0  0  0
 27 85  1  0  0  0  0
 28 87  1  0  0  0  0
 29 88  1  0  0  0  0
 30 70  2  0  0  0  0
 31 57  1  0  0  0  0
 31 69  1  0  0  0  0
 32 71  1  0  0  0  0
 32 74  1  0  0  0  0
 33 75  1  0  0  0  0
 33 80  2  0  0  0  0
 34 48  1  0  0  0  0
 34 76  1  0  0  0  0
 34 81  2  0  0  0  0
 35 66  1  0  0  0  0
 35 72  1  0  0  0  0
 35 82  2  0  0  0  0
 36 67  1  0  0  0  0
 36 77  1  0  0  0  0
 36 83  2  0  0  0  0
 37 73  1  0  0  0  0
 37 78  1  0  0  0  0
 37 84  2  0  0  0  0
 38 41  1  0  0  0  0
 39 48  1  0  0  0  0
 40 72  1  0  0  0  0
 41 43  1  0  0  0  0
 42 44  1  0  0  0  0
 42 45  1  0  0  0  0
 43 47  1  0  0  0  0
 44 49  1  0  0  0  0
 45 73  1  0  0  0  0
 46 49  1  0  0  0  0
 46 73  1  0  0  0  0
 47 76  1  0  0  0  0
 48 72  1  0  0  0  0
 49 71  1  0  0  0  0
 51 65  1  0  0  0  0
 52 67  1  0  0  0  0
 53 68  1  0  0  0  0
 54 68  1  0  0  0  0
 55 68  1  0  0  0  0
 56 79  1  0  0  0  0
 57 58  1  0  0  0  0
 58 59  1  0  0  0  0
 59 60  1  0  0  0  0
 60 61  1  0  0  0  0
 61 62  1  0  0  0  0
 62 63  1  0  0  0  0
 63 64  1  0  0  0  0
 64 78  1  0  0  0  0
 65 86  1  0  0  0  0
 66 68  1  0  0  0  0
 66 77  1  0  0  0  0
 67 79  1  0  0  0  0
 70 71  1  0  0  0  0
M  CHG  1  79   1
M  ISO  4  37 100  65 101  78 100  86 101
M  END
> <Batch ID>
0035

> <Smiles>
CNC(C)C(=O)NC(C(=O)N1Cc2cc([101O:1][101CH:1](C)c3cnc(CCCCCCCC[100NH:0][100C:0](=O)N4CCCC(n5nc(-c6ccc(Oc7ccc(F)cc7F)cc6)c(C(N)=O)c5N)C4)c(C)c3)ccc2CC1C(=O)NC1CCCc2ccccc21)C(C)(C)C

> <Shape>
0.213

> <Color>
0.065

> <Negative vol penalty>
0.000

$$$$

  -OEChem-04052316533D

 81 89  0     1  0  0  0  0  0999 V2000
  -18.5835  -30.8480   26.3664 C   0  0  0  0  0  0  0  0  0  0  0  0
  -19.9466  -30.5707   26.3869 C   0  0  0  0  0  0  0  0  0  0  0  0
  -22.0358  -15.5228   22.0441 C   0  0  0  0  0  0  0  0  0  0  0  0
  -24.1825  -14.9235   21.1115 C   0  0  0  0  0  0  0  0  0  0  0  0
  -17.7922  -30.3726   25.3216 C   0  0  0  0  0  0  0  0  0  0  0  0
  -20.5190  -29.8167   25.3631 C   0  0  0  0  0  0  0  0  0  0  0  0
  -26.6136  -29.1502   21.6580 C   0  0  0  0  0  0  0  0  0  0  0  0
  -21.5228  -14.2841   21.6593 C   0  0  0  0  0  0  0  0  0  0  0  0
  -23.6695  -13.6848   20.7267 C   0  0  0  0  0  0  0  0  0  0  0  0
  -27.5476  -28.1844   21.2857 C   0  0  0  0  0  0  0  0  0  0  0  0
  -22.9731  -10.7171   22.1855 C   0  0  0  0  0  0  0  0  0  0  0  0
  -23.7512   -9.5877   22.4400 C   0  0  0  0  0  0  0  0  0  0  0  0
  -26.0972  -27.4825   19.4905 C   0  0  0  0  0  0  0  0  0  0  0  0
  -29.2857  -23.8608   18.3596 C   0  0  0  0  0  0  0  0  0  0  0  0
  -23.8059   -9.0928   20.0758 C   0  0  0  0  0  0  0  0  0  0  0  0
  -30.8676  -22.4367   20.0670 C   0  0  0  0  0  0  0  0  0  0  0  0
  -23.3656  -15.8425   21.7702 C   0  0  0  0  0  0  0  0  0  0  0  0
  -24.5167  -17.4432   23.3890 C   0  0  0  0  0  0  0  0  0  0  0  0
  -18.3569  -29.6205   24.2794 C   0  0  0  0  0  0  0  0  0  0  0  0
  -25.4075  -29.2824   20.9549 C   0  0  0  0  0  0  0  0  0  0  0  0
  -19.7343  -29.3296   24.3040 C   0  0  0  0  0  0  0  0  0  0  0  0
  -25.1506  -28.4525   19.8543 C   0  0  0  0  0  0  0  0  0  0  0  0
  -29.1289  -22.4819   18.4448 C   0  0  0  0  0  0  0  0  0  0  0  0
  -22.3396  -13.3651   21.0006 C   0  0  0  0  0  0  0  0  0  0  0  0
  -27.2882  -27.3484   20.2036 C   0  0  0  0  0  0  0  0  0  0  0  0
  -22.6113  -11.0343   20.8762 C   0  0  0  0  0  0  0  0  0  0  0  0
  -24.1676   -8.7756   21.3851 C   0  0  0  0  0  0  0  0  0  0  0  0
  -23.0278  -10.2221   19.8214 C   0  0  0  0  0  0  0  0  0  0  0  0
  -29.9309  -21.7489   19.3124 C   0  0  0  0  0  0  0  0  0  0  0  0
  -23.8960  -17.1222   22.1670 C   0  0  0  0  0  0  0  0  0  0  0  0
  -30.2511  -24.4541   19.1570 C   0  0  0  0  0  0  0  0  0  0  0  0
  -24.8381  -18.7734   23.2719 C   0  0  0  0  0  0  0  0  0  0  0  0
  -24.7793  -16.6132   24.5282 C   0  0  0  0  0  0  0  0  0  0  0  0
  -22.3322  -28.9804   21.6998 C   0  0  0  0  0  0  0  0  0  0  0  0
  -21.8940  -30.0776   18.6788 C   0  0  0  0  0  0  0  0  0  0  0  0
  -23.1445  -30.4644   15.5271 C   0  0  0  0  0  0  0  0  0  0  0  0
  -25.8630  -22.3207   18.5583 C   0  0  0  0  0  0  0  0  0  0  0  0
  -17.4529  -29.0880   23.1960 C   0  0  0  0  0  0  0  0  0  0  0  0
  -24.4222  -30.3470   21.3526 C   0  0  0  0  0  0  0  0  0  0  0  0
  -23.8799  -28.5673   19.0540 C   0  0  0  0  0  0  0  0  0  0  0  0
  -18.2040  -28.6138   21.9545 C   0  0  0  0  0  0  0  0  0  0  0  0
  -23.4151  -22.7922   21.1004 C   0  0  0  0  0  0  0  0  0  0  0  0
  -19.3939  -27.7451   22.3498 C   0  0  0  0  0  0  0  0  0  0  0  0
  -23.3168  -21.4215   21.7723 C   0  0  0  0  0  0  0  0  0  0  0  0
  -23.6402  -22.6680   19.5951 C   0  0  0  0  0  0  0  0  0  0  0  0
  -24.6901  -20.4566   19.8797 C   0  0  0  0  0  0  0  0  0  0  0  0
  -20.3965  -28.5360   23.1987 C   0  0  1  0  0  0  0  0  0  0  0  0
  -23.0009  -30.0506   20.8842 C   0  0  1  0  0  0  0  0  0  0  0  0
  -24.5190  -20.5303   21.4067 C   0  0  2  0  0  0  0  0  0  0  0  0
  -22.5389  -31.3647   13.2643 C   0  0  0  0  0  0  0  0  0  0  0  0
  -20.1326  -27.6363   18.1815 C   0  0  0  0  0  0  0  0  0  0  0  0
  -20.3426  -28.0719   15.7250 C   0  0  0  0  0  0  0  0  0  0  0  0
  -19.2629  -29.7670   17.2027 C   0  0  0  0  0  0  0  0  0  0  0  0
  -25.3618  -32.4237   15.5850 C   0  0  0  0  0  0  0  0  0  0  0  0
  -28.0939  -21.8254   17.5904 C   0  0  0  0  0  0  0  0  0  0  0  0
  -30.4489  -25.9490   19.0917 C   0  0  0  0  0  0  0  0  0  0  0  0
  -29.5719  -26.6941   20.0922 C   0  0  0  0  0  0  0  0  0  1  0  0
  -21.7671  -29.4383   17.3171 C   0  0  1  0  0  0  0  0  0  0  0  0
  -23.1929  -31.6680   14.6033 C   0  0  2  0  0  0  0  0  0  0  0  0
  -20.3995  -28.7246   17.1227 C   0  0  0  0  0  0  0  0  0  0  0  0
  -31.0490  -23.7752   20.0114 N   0  0  0  0  0  0  0  0  0  0  0  0
  -23.8260  -18.1645   21.3347 N   0  0  0  0  0  0  0  0  0  0  0  0
  -24.4068  -19.1535   22.0351 N   0  0  0  0  0  0  0  0  0  0  0  0
  -22.9449  -29.6193   19.4859 N   0  0  0  0  0  0  0  0  0  0  0  0
  -24.7955  -21.8117   19.3162 N   0  0  0  0  0  0  0  0  0  0  0  0
  -25.4446  -19.6433   24.1072 N   0  0  0  0  0  0  0  0  0  0  0  0
  -24.3831  -15.2696   24.4815 N   0  0  0  0  0  0  0  0  0  0  0  0
  -21.1947  -29.4043   22.3599 N   0  0  0  0  0  0  0  0  0  0  0  0
  -22.0346  -30.4925   16.3447 N   0  0  0  0  0  0  0  0  0  0  0  0
  -26.9210  -21.4453   18.3458 N   0  0  0  0  0  0  0  0  0  0  0  0
  -24.6052  -32.0740   14.3553 N   0  3  0  0  0  0  0  0  0  0  0  0
  -25.3338  -17.0541   25.5634 O   0  0  0  0  0  0  0  0  0  0  0  0
  -22.8120  -27.8531   21.7271 O   0  0  0  0  0  0  0  0  0  0  0  0
  -21.0947  -30.9563   19.0112 O   0  0  0  0  0  0  0  0  0  0  0  0
  -24.0032  -29.5851   15.5211 O   0  0  0  0  0  0  0  0  0  0  0  0
  -25.8749  -23.4718   18.1092 O   0  0  0  0  0  0  0  0  0  0  0  0
  -21.8394  -12.1562   20.6252 O   0  0  0  0  0  0  0  0  0  0  0  0
  -28.1979  -26.4045   19.8384 O   0  0  0  0  0  0  0  0  0  1  0  0
  -24.9161   -7.6920   21.6295 F   0  0  0  0  0  0  0  0  0  0  0  0
  -22.6844  -10.5224   18.5613 F   0  0  0  0  0  0  0  0  0  0  0  0
  -29.7941  -20.0417   19.4680 Cl  0  0  0  0  0  0  0  0  0  0  0  0
  1  2  1  0  0  0  0
  1  5  2  0  0  0  0
  2  6  2  0  0  0  0
  3  8  2  0  0  0  0
  3 17  1  0  0  0  0
  4  9  1  0  0  0  0
  4 17  2  0  0  0  0
  5 19  1  0  0  0  0
  6 21  1  0  0  0  0
  7 10  2  0  0  0  0
  7 20  1  0  0  0  0
  8 24  1  0  0  0  0
  9 24  2  0  0  0  0
 10 25  1  0  0  0  0
 11 12  2  0  0  0  0
 11 26  1  0  0  0  0
 12 27  1  0  0  0  0
 13 22  1  0  0  0  0
 13 25  2  0  0  0  0
 14 23  2  0  0  0  0
 14 31  1  0  0  0  0
 15 27  2  0  0  0  0
 15 28  1  0  0  0  0
 16 29  2  0  0  0  0
 16 61  1  0  0  0  0
 17 30  1  0  0  0  0
 18 30  1  0  0  0  0
 18 32  2  0  0  0  0
 18 33  1  0  0  0  0
 19 21  2  0  0  0  0
 19 38  1  0  0  0  0
 20 22  2  0  0  0  0
 20 39  1  0  0  0  0
 21 47  1  0  0  0  0
 22 40  1  0  0  0  0
 23 29  1  0  0  0  0
 23 55  1  0  0  0  0
 24 77  1  0  0  0  0
 25 78  1  0  0  0  0
 26 28  2  0  0  0  0
 26 77  1  0  0  0  0
 27 79  1  0  0  0  0
 28 80  1  0  0  0  0
 29 81  1  0  0  0  0
 30 62  2  0  0  0  0
 31 56  1  0  0  0  0
 31 61  2  0  0  0  0
 32 63  1  0  0  0  0
 32 66  1  0  0  0  0
 33 67  1  0  0  0  0
 33 72  2  0  0  0  0
 34 48  1  0  0  0  0
 34 68  1  0  0  0  0
 34 73  2  0  0  0  0
 35 58  1  0  0  0  0
 35 64  1  0  0  0  0
 35 74  2  0  0  0  0
 36 59  1  0  0  0  0
 36 69  1  0  0  0  0
 36 75  2  0  0  0  0
 37 65  1  0  0  0  0
 37 70  1  0  0  0  0
 37 76  2  0  0  0  0
 38 41  1  0  0  0  0
 39 48  1  0  0  0  0
 40 64  1  0  0  0  0
 41 43  1  0  0  0  0
 42 44  1  0  0  0  0
 42 45  1  0  0  0  0
 43 47  1  0  0  0  0
 44 49  1  0  0  0  0
 45 65  1  0  0  0  0
 46 49  1  0  0  0  0
 46 65  1  0  0  0  0
 47 68  1  0  0  0  0
 48 64  1  0  0  0  0
 49 63  1  0  0  0  0
 50 59  1  0  0  0  0
 51 60  1  0  0  0  0
 52 60  1  0  0  0  0
 53 60  1  0  0  0  0
 54 71  1  0  0  0  0
 55 70  1  0  0  0  0
 56 57  1  0  0  0  0
 57 78  1  0  0  0  0
 58 60  1  0  0  0  0
 58 69  1  0  0  0  0
 59 71  1  0  0  0  0
 62 63  1  0  0  0  0
M  CHG  1  71   1
M  ISO  4  37 100  57 101  70 100  78 101
M  END
> <Batch ID>
0035

> <Smiles>
CNC(C)C(=O)NC(C(=O)N1Cc2cc([101O:1][101CH2:1]Cc3cc(C[100NH:0][100C:0](=O)N4CCCC(n5nc(-c6ccc(Oc7ccc(F)cc7F)cc6)c(C(N)=O)c5N)C4)c(Cl)cn3)ccc2CC1C(=O)NC1CCCc2ccccc21)C(C)(C)C

> <Shape>
0.216

> <Color>
0.074

> <Negative vol penalty>
0.000

$$$$

  -OEChem-04052316533D

 82 90  0     1  0  0  0  0  0999 V2000
  -16.7513  -29.3998   24.2999 C   0  0  0  0  0  0  0  0  0  0  0  0
  -17.8938  -29.8622   24.9451 C   0  0  0  0  0  0  0  0  0  0  0  0
  -26.2234  -17.6295   21.7315 C   0  0  0  0  0  0  0  0  0  0  0  0
  -28.4892  -17.7018   20.8961 C   0  0  0  0  0  0  0  0  0  0  0  0
  -16.8676  -28.5284   23.2178 C   0  0  0  0  0  0  0  0  0  0  0  0
  -19.1534  -29.4524   24.5092 C   0  0  0  0  0  0  0  0  0  0  0  0
  -25.8971  -31.7985   23.9308 C   0  0  0  0  0  0  0  0  0  0  0  0
  -26.0071  -16.4367   21.0416 C   0  0  0  0  0  0  0  0  0  0  0  0
  -28.2729  -16.5089   20.2062 C   0  0  0  0  0  0  0  0  0  0  0  0
  -27.1986  -31.4290   24.2673 C   0  0  0  0  0  0  0  0  0  0  0  0
  -28.4309  -13.2942   18.5154 C   0  0  0  0  0  0  0  0  0  0  0  0
  -29.4204  -12.3139   18.5875 C   0  0  0  0  0  0  0  0  0  0  0  0
  -27.2808  -29.9836   22.3378 C   0  0  0  0  0  0  0  0  0  0  0  0
  -33.4737  -27.5274   22.3929 C   0  0  0  0  0  0  0  0  0  0  0  0
  -32.7457  -25.6287   21.0883 C   0  0  0  0  0  0  0  0  0  0  0  0
  -31.7660  -27.8039   20.7064 C   0  0  0  0  0  0  0  0  0  0  0  0
  -29.1562  -12.2238   20.9873 C   0  0  0  0  0  0  0  0  0  0  0  0
  -27.4645  -18.2621   21.6587 C   0  0  0  0  0  0  0  0  0  0  0  0
  -28.1687  -19.6415   23.6858 C   0  0  0  0  0  0  0  0  0  0  0  0
  -18.1296  -28.1153   22.7624 C   0  0  0  0  0  0  0  0  0  0  0  0
  -25.2727  -31.2541   22.7994 C   0  0  0  0  0  0  0  0  0  0  0  0
  -19.2866  -28.5735   23.4209 C   0  0  0  0  0  0  0  0  0  0  0  0
  -25.9722  -30.3498   21.9876 C   0  0  0  0  0  0  0  0  0  0  0  0
  -33.5576  -26.1694   22.0853 C   0  0  0  0  0  0  0  0  0  0  0  0
  -32.5778  -28.3446   21.7035 C   0  0  0  0  0  0  0  0  0  0  0  0
  -31.8498  -26.4460   20.3988 C   0  0  0  0  0  0  0  0  0  0  0  0
  -27.0318  -15.8764   20.2790 C   0  0  0  0  0  0  0  0  0  0  0  0
  -27.8896  -30.5192   23.4724 C   0  0  0  0  0  0  0  0  0  0  0  0
  -27.8040  -13.7395   19.6792 C   0  0  0  0  0  0  0  0  0  0  0  0
  -29.7831  -11.7786   19.8235 C   0  0  0  0  0  0  0  0  0  0  0  0
  -28.1667  -13.2042   20.9152 C   0  0  0  0  0  0  0  0  0  0  0  0
  -27.6883  -19.4946   22.3707 C   0  0  0  0  0  0  0  0  0  0  0  0
  -28.2015  -20.9993   23.8897 C   0  0  0  0  0  0  0  0  0  0  0  0
  -28.5512  -18.6400   24.6379 C   0  0  0  0  0  0  0  0  0  0  0  0
  -22.6955  -29.4605   22.3046 C   0  0  0  0  0  0  0  0  0  0  0  0
  -23.3931  -30.0069   19.1842 C   0  0  0  0  0  0  0  0  0  0  0  0
  -25.7382  -30.8030   16.8361 C   0  0  0  0  0  0  0  0  0  0  0  0
  -28.6546  -25.6711   20.1721 C   0  0  0  0  0  0  0  0  0  0  0  0
  -18.2034  -27.1350   21.6186 C   0  0  0  0  0  0  0  0  0  0  0  0
  -23.8779  -31.6833   22.4350 C   0  0  0  0  0  0  0  0  0  0  0  0
  -25.3540  -29.7520   20.7511 C   0  0  0  0  0  0  0  0  0  0  0  0
  -19.5881  -27.0443   20.9825 C   0  0  0  0  0  0  0  0  0  0  0  0
  -26.0485  -25.0451   22.5159 C   0  0  0  0  0  0  0  0  0  0  0  0
  -20.6635  -26.9321   22.0585 C   0  0  0  0  0  0  0  0  0  0  0  0
  -26.2166  -23.5649   22.8631 C   0  0  0  0  0  0  0  0  0  0  0  0
  -26.3639  -25.3196   21.0472 C   0  0  0  0  0  0  0  0  0  0  0  0
  -27.8508  -23.3569   20.9435 C   0  0  0  0  0  0  0  0  0  0  0  0
  -20.6714  -28.1712   22.9619 C   0  0  1  0  0  0  0  0  0  0  0  0
  -23.1548  -30.6745   21.5479 C   0  0  1  0  0  0  0  0  0  0  0  0
  -27.5979  -23.0400   22.4274 C   0  0  2  0  0  0  0  0  0  0  0  0
  -34.5159  -25.2962   22.8226 C   0  0  0  0  0  0  0  0  0  0  0  0
  -26.0168  -31.1374   14.3647 C   0  0  0  0  0  0  0  0  0  0  0  0
  -23.3317  -26.9844   18.7708 C   0  0  0  0  0  0  0  0  0  0  0  0
  -24.5220  -27.3279   16.5951 C   0  0  0  0  0  0  0  0  0  0  0  0
  -22.2552  -28.3094   16.9432 C   0  0  0  0  0  0  0  0  0  0  0  0
  -26.5667  -33.6217   17.1935 C   0  0  0  0  0  0  0  0  0  0  0  0
  -32.4870  -29.8127   22.0353 C   0  0  0  0  0  0  0  0  0  0  0  0
  -30.9818  -25.8674   19.3328 C   0  0  0  0  0  0  0  0  0  0  0  0
  -31.4624  -30.1356   23.1250 C   0  0  0  0  0  0  0  0  0  0  0  0
  -30.0301  -29.8006   22.7254 C   0  0  0  0  0  0  0  0  0  1  0  0
  -24.2399  -29.3179   18.1415 C   0  0  1  0  0  0  0  0  0  0  0  0
  -25.7235  -31.8075   15.6980 C   0  0  2  0  0  0  0  0  0  0  0  0
  -23.5985  -27.9945   17.6370 C   0  0  0  0  0  0  0  0  0  0  0  0
  -27.4340  -20.6657   21.7809 N   0  0  0  0  0  0  0  0  0  0  0  0
  -27.7558  -21.5614   22.7297 N   0  0  0  0  0  0  0  0  0  0  0  0
  -23.9859  -30.1982   20.4403 N   0  0  0  0  0  0  0  0  0  0  0  0
  -27.6879  -24.7986   20.6989 N   0  0  0  0  0  0  0  0  0  0  0  0
  -28.5677  -21.7555   24.9464 N   0  0  0  0  0  0  0  0  0  0  0  0
  -28.4559  -17.2924   24.2648 N   0  0  0  0  0  0  0  0  0  0  0  0
  -21.3258  -29.2774   22.2966 N   0  0  0  0  0  0  0  0  0  0  0  0
  -24.4788  -30.3039   17.0931 N   0  0  0  0  0  0  0  0  0  0  0  0
  -29.8847  -25.0973   19.8750 N   0  0  0  0  0  0  0  0  0  0  0  0
  -26.7477  -32.8655   15.9277 N   0  3  0  0  0  0  0  0  0  0  0  0
  -28.9497  -18.9310   25.7912 O   0  0  0  0  0  0  0  0  0  0  0  0
  -23.5225  -28.7421   22.8538 O   0  0  0  0  0  0  0  0  0  0  0  0
  -22.2504  -30.3686   18.8927 O   0  0  0  0  0  0  0  0  0  0  0  0
  -26.7648  -30.4896   17.4347 O   0  0  0  0  0  0  0  0  0  0  0  0
  -28.4391  -26.8735   19.9858 O   0  0  0  0  0  0  0  0  0  0  0  0
  -26.8212  -14.7123   19.6058 O   0  0  0  0  0  0  0  0  0  0  0  0
  -29.1599  -30.1563   23.7990 O   0  0  0  0  0  0  0  0  0  1  0  0
  -30.7323  -10.8360   19.8924 F   0  0  0  0  0  0  0  0  0  0  0  0
  -27.5671  -13.6271   22.0366 F   0  0  0  0  0  0  0  0  0  0  0  0
  1  2  1  0  0  0  0
  1  5  2  0  0  0  0
  2  6  2  0  0  0  0
  3  8  2  0  0  0  0
  3 18  1  0  0  0  0
  4  9  1  0  0  0  0
  4 18  2  0  0  0  0
  5 20  1  0  0  0  0
  6 22  1  0  0  0  0
  7 10  2  0  0  0  0
  7 21  1  0  0  0  0
  8 27  1  0  0  0  0
  9 27  2  0  0  0  0
 10 28  1  0  0  0  0
 11 12  2  0  0  0  0
 11 29  1  0  0  0  0
 12 30  1  0  0  0  0
 13 23  1  0  0  0  0
 13 28  2  0  0  0  0
 14 24  2  0  0  0  0
 14 25  1  0  0  0  0
 15 24  1  0  0  0  0
 15 26  2  0  0  0  0
 16 25  2  0  0  0  0
 16 26  1  0  0  0  0
 17 30  2  0  0  0  0
 17 31  1  0  0  0  0
 18 32  1  0  0  0  0
 19 32  1  0  0  0  0
 19 33  2  0  0  0  0
 19 34  1  0  0  0  0
 20 22  2  0  0  0  0
 20 39  1  0  0  0  0
 21 23  2  0  0  0  0
 21 40  1  0  0  0  0
 22 48  1  0  0  0  0
 23 41  1  0  0  0  0
 24 51  1  0  0  0  0
 25 57  1  0  0  0  0
 26 58  1  0  0  0  0
 27 79  1  0  0  0  0
 28 80  1  0  0  0  0
 29 31  2  0  0  0  0
 29 79  1  0  0  0  0
 30 81  1  0  0  0  0
 31 82  1  0  0  0  0
 32 64  2  0  0  0  0
 33 65  1  0  0  0  0
 33 68  1  0  0  0  0
 34 69  1  0  0  0  0
 34 74  2  0  0  0  0
 35 49  1  0  0  0  0
 35 70  1  0  0  0  0
 35 75  2  0  0  0  0
 36 61  1  0  0  0  0
 36 66  1  0  0  0  0
 36 76  2  0  0  0  0
 37 62  1  0  0  0  0
 37 71  1  0  0  0  0
 37 77  2  0  0  0  0
 38 67  1  0  0  0  0
 38 72  1  0  0  0  0
 38 78  2  0  0  0  0
 39 42  1  0  0  0  0
 40 49  1  0  0  0  0
 41 66  1  0  0  0  0
 42 44  1  0  0  0  0
 43 45  1  0  0  0  0
 43 46  1  0  0  0  0
 44 48  1  0  0  0  0
 45 50  1  0  0  0  0
 46 67  1  0  0  0  0
 47 50  1  0  0  0  0
 47 67  1  0  0  0  0
 48 70  1  0  0  0  0
 49 66  1  0  0  0  0
 50 65  1  0  0  0  0
 52 62  1  0  0  0  0
 53 63  1  0  0  0  0
 54 63  1  0  0  0  0
 55 63  1  0  0  0  0
 56 73  1  0  0  0  0
 57 59  1  0  0  0  0
 58 72  1  0  0  0  0
 59 60  1  0  0  0  0
 60 80  1  0  0  0  0
 61 63  1  0  0  0  0
 61 71  1  0  0  0  0
 62 73  1  0  0  0  0
 64 65  1  0  0  0  0
M  CHG  1  73   1
M  ISO  4  38 100  60 101  72 100  80 101
M  END
> <Batch ID>
0035

> <Smiles>
CNC(C)C(=O)NC(C(=O)N1Cc2cc([101O:1][101CH2:1]CCc3cc(C)cc(C[100NH:0][100C:0](=O)N4CCCC(n5nc(-c6ccc(Oc7ccc(F)cc7F)cc6)c(C(N)=O)c5N)C4)c3)ccc2CC1C(=O)NC1CCCc2ccccc21)C(C)(C)C

> <Shape>
0.257

> <Color>
0.121

> <Negative vol penalty>
0.000

$$$$

  -OEChem-04052316533D

 88 96  0     1  0  0  0  0  0999 V2000
  -16.7020  -29.9408   24.4074 C   0  0  0  0  0  0  0  0  0  0  0  0
  -16.7029  -28.6925   23.7933 C   0  0  0  0  0  0  0  0  0  0  0  0
  -28.3891  -13.9751   21.2257 C   0  0  0  0  0  0  0  0  0  0  0  0
  -28.4598  -12.9076   19.0594 C   0  0  0  0  0  0  0  0  0  0  0  0
  -17.7270  -30.8478   24.1417 C   0  0  0  0  0  0  0  0  0  0  0  0
  -17.7283  -28.3509   22.9122 C   0  0  0  0  0  0  0  0  0  0  0  0
  -19.4935  -23.6713   23.7063 C   0  0  0  0  0  0  0  0  0  0  0  0
  -29.7297  -14.3361   21.0915 C   0  0  0  0  0  0  0  0  0  0  0  0
  -29.8004  -13.2687   18.9253 C   0  0  0  0  0  0  0  0  0  0  0  0
  -18.7305  -22.6116   23.2178 C   0  0  0  0  0  0  0  0  0  0  0  0
  -31.5212  -16.7089   19.4811 C   0  0  0  0  0  0  0  0  0  0  0  0
  -31.8785  -18.0133   19.8223 C   0  0  0  0  0  0  0  0  0  0  0  0
  -20.1976  -22.4426   21.3103 C   0  0  0  0  0  0  0  0  0  0  0  0
  -16.5871  -18.0764   22.0848 C   0  0  0  0  0  0  0  0  0  0  0  0
  -33.3908  -17.1597   21.5020 C   0  0  0  0  0  0  0  0  0  0  0  0
  -27.7541  -13.2608   20.2097 C   0  0  0  0  0  0  0  0  0  0  0  0
  -25.2440  -13.6303   19.9447 C   0  0  0  0  0  0  0  0  0  0  0  0
  -18.7707  -30.5135   23.2644 C   0  0  0  0  0  0  0  0  0  0  0  0
  -20.6098  -24.1325   22.9938 C   0  0  0  0  0  0  0  0  0  0  0  0
  -18.7675  -29.2548   22.6335 C   0  0  0  0  0  0  0  0  0  0  0  0
  -20.9745  -23.5066   21.7932 C   0  0  0  0  0  0  0  0  0  0  0  0
  -15.8164  -17.2411   21.2256 C   0  0  0  0  0  0  0  0  0  0  0  0
  -30.4354  -13.9830   19.9413 C   0  0  0  0  0  0  0  0  0  0  0  0
  -19.0808  -21.9989   22.0182 C   0  0  0  0  0  0  0  0  0  0  0  0
  -32.0986  -15.6298   20.1504 C   0  0  0  0  0  0  0  0  0  0  0  0
  -32.8133  -18.2387   20.8327 C   0  0  0  0  0  0  0  0  0  0  0  0
  -33.0334  -15.8552   21.1608 C   0  0  0  0  0  0  0  0  0  0  0  0
  -26.3695  -12.8870   20.3479 C   0  0  0  0  0  0  0  0  0  0  0  0
  -16.5473  -19.3970   21.6948 C   0  0  0  0  0  0  0  0  0  0  0  0
  -15.2165  -17.9552   20.2116 C   0  0  0  0  0  0  0  0  0  0  0  0
  -24.1716  -12.8468   20.2948 C   0  0  0  0  0  0  0  0  0  0  0  0
  -25.1741  -14.9141   19.3102 C   0  0  0  0  0  0  0  0  0  0  0  0
  -21.4140  -26.8838   21.6200 C   0  0  0  0  0  0  0  0  0  0  0  0
  -24.2502  -25.3775   21.1621 C   0  0  0  0  0  0  0  0  0  0  0  0
  -25.9521  -22.4350   20.8588 C   0  0  0  0  0  0  0  0  0  0  0  0
  -21.6510   -7.8735   20.5370 C   0  0  0  0  0  0  0  0  0  0  0  0
  -19.8316  -31.5448   22.9719 C   0  0  0  0  0  0  0  0  0  0  0  0
  -21.4380  -25.2592   23.5477 C   0  0  0  0  0  0  0  0  0  0  0  0
  -22.1757  -23.9508   21.0004 C   0  0  0  0  0  0  0  0  0  0  0  0
  -21.0810  -30.9640   22.3148 C   0  0  0  0  0  0  0  0  0  0  0  0
  -23.9332   -8.6774   23.1489 C   0  0  0  0  0  0  0  0  0  0  0  0
  -20.6974  -30.0255   21.1750 C   0  0  0  0  0  0  0  0  0  0  0  0
  -24.6814   -9.9011   22.6172 C   0  0  0  0  0  0  0  0  0  0  0  0
  -23.6147   -7.6825   22.0350 C   0  0  0  0  0  0  0  0  0  0  0  0
  -23.6471   -9.4786   20.3477 C   0  0  0  0  0  0  0  0  0  0  0  0
  -19.8757  -28.8381   21.6909 C   0  0  1  0  0  0  0  0  0  0  0  0
  -22.2535  -25.9822   22.4802 C   0  0  1  0  0  0  0  0  0  0  0  0
  -23.9411  -10.5366   21.4250 C   0  0  2  0  0  0  0  0  0  0  0  0
  -14.3430  -17.4659   19.1212 C   0  0  0  0  0  0  0  0  0  0  0  0
  -28.2547  -21.5241   20.4518 C   0  0  0  0  0  0  0  0  0  0  0  0
  -24.0002  -26.0748   18.2022 C   0  0  0  0  0  0  0  0  0  0  0  0
  -25.7702  -24.3703   17.7227 C   0  0  0  0  0  0  0  0  0  0  0  0
  -26.2992  -26.3482   19.1478 C   0  0  0  0  0  0  0  0  0  0  0  0
  -25.9932  -21.0514   23.4747 C   0  0  0  0  0  0  0  0  0  0  0  0
  -17.2106  -20.5614   22.3209 C   0  0  0  0  0  0  0  0  0  1  0  0
  -17.6823  -11.2344   20.2942 C   0  0  0  0  0  0  0  0  0  0  0  0
  -17.8055  -12.7500   20.1226 C   0  0  0  0  0  0  0  0  0  0  0  0
  -18.7680  -10.4474   19.5548 C   0  0  0  0  0  0  0  0  0  0  0  0
  -16.6792  -13.4837   20.8550 C   0  0  0  0  0  0  0  0  0  0  0  0
  -18.6306   -8.9316   19.7058 C   0  0  0  0  0  0  0  0  0  0  0  0
  -16.7816  -14.9993   20.6561 C   0  0  0  0  0  0  0  0  0  0  0  0
  -19.7509   -8.2004   18.9744 C   0  0  0  0  0  0  0  0  0  0  0  0
  -24.8356  -24.5075   20.0761 C   0  0  1  0  0  0  0  0  0  0  0  0
  -27.2369  -21.9437   21.5009 C   0  0  2  0  0  0  0  0  0  0  0  0
  -15.6816  -15.7496   21.4150 C   0  0  0  0  0  0  0  0  0  0  0  0
  -25.2025  -25.3179   18.8009 C   0  0  0  0  0  0  0  0  0  0  0  0
  -26.0425  -11.7209   20.9113 N   0  0  0  0  0  0  0  0  0  0  0  0
  -24.6994  -11.7256   20.8646 N   0  0  0  0  0  0  0  0  0  0  0  0
  -22.9500  -25.0605   21.5804 N   0  0  0  0  0  0  0  0  0  0  0  0
  -22.9114   -8.3483   20.9358 N   0  0  0  0  0  0  0  0  0  0  0  0
  -22.8381  -13.0144   20.1679 N   0  0  0  0  0  0  0  0  0  0  0  0
  -26.3716  -15.5824   19.0208 N   0  0  0  0  0  0  0  0  0  0  0  0
  -20.7383  -27.8629   22.3229 N   0  0  0  0  0  0  0  0  0  0  0  0
  -25.9608  -23.8023   20.6802 N   0  0  0  0  0  0  0  0  0  0  0  0
  -21.0506   -8.5654   19.4922 N   0  0  0  0  0  0  0  0  0  0  0  0
  -26.9612  -20.7741   22.3824 N   0  3  0  0  0  0  0  0  0  0  0  0
  -24.0817  -15.4601   19.0238 O   0  0  0  0  0  0  0  0  0  0  0  0
  -21.3827  -26.7052   20.4080 O   0  0  0  0  0  0  0  0  0  0  0  0
  -24.9244  -26.2998   21.6274 O   0  0  0  0  0  0  0  0  0  0  0  0
  -25.0343  -21.6809   20.5435 O   0  0  0  0  0  0  0  0  0  0  0  0
  -21.0991   -6.9081   21.0759 O   0  0  0  0  0  0  0  0  0  0  0  0
  -31.7435  -14.3354   19.8100 O   0  0  0  0  0  0  0  0  0  0  0  0
  -18.3333  -20.9590   21.5361 O   0  0  0  0  0  0  0  0  0  1  0  0
  -33.1575  -19.4913   21.1592 F   0  0  0  0  0  0  0  0  0  0  0  0
  -33.5924  -14.8226   21.8066 F   0  0  0  0  0  0  0  0  0  0  0  0
  -14.4719  -15.2869   20.9827 F   0  0  0  0  0  0  0  0  0  0  0  0
  -15.7502  -15.3927   22.7311 F   0  0  0  0  0  0  0  0  0  0  0  0
  -15.5834  -19.6255   20.2980 S   0  0  0  0  0  0  0  0  0  0  0  0
  1  2  1  0  0  0  0
  1  5  2  0  0  0  0
  2  6  2  0  0  0  0
  3  8  2  0  0  0  0
  3 16  1  0  0  0  0
  4  9  1  0  0  0  0
  4 16  2  0  0  0  0
  5 18  1  0  0  0  0
  6 20  1  0  0  0  0
  7 10  2  0  0  0  0
  7 19  1  0  0  0  0
  8 23  1  0  0  0  0
  9 23  2  0  0  0  0
 10 24  1  0  0  0  0
 11 12  2  0  0  0  0
 11 25  1  0  0  0  0
 12 26  1  0  0  0  0
 13 21  1  0  0  0  0
 13 24  2  0  0  0  0
 14 22  1  0  0  0  0
 14 29  2  0  0  0  0
 15 26  2  0  0  0  0
 15 27  1  0  0  0  0
 16 28  1  0  0  0  0
 17 28  1  0  0  0  0
 17 31  2  0  0  0  0
 17 32  1  0  0  0  0
 18 20  2  0  0  0  0
 18 37  1  0  0  0  0
 19 21  2  0  0  0  0
 19 38  1  0  0  0  0
 20 46  1  0  0  0  0
 21 39  1  0  0  0  0
 22 30  2  0  0  0  0
 22 65  1  0  0  0  0
 23 82  1  0  0  0  0
 24 83  1  0  0  0  0
 25 27  2  0  0  0  0
 25 82  1  0  0  0  0
 26 84  1  0  0  0  0
 27 85  1  0  0  0  0
 28 67  2  0  0  0  0
 29 55  1  0  0  0  0
 29 88  1  0  0  0  0
 30 49  1  0  0  0  0
 30 88  1  0  0  0  0
 31 68  1  0  0  0  0
 31 71  1  0  0  0  0
 32 72  1  0  0  0  0
 32 77  2  0  0  0  0
 33 47  1  0  0  0  0
 33 73  1  0  0  0  0
 33 78  2  0  0  0  0
 34 63  1  0  0  0  0
 34 69  1  0  0  0  0
 34 79  2  0  0  0  0
 35 64  1  0  0  0  0
 35 74  1  0  0  0  0
 35 80  2  0  0  0  0
 36 70  1  0  0  0  0
 36 75  1  0  0  0  0
 36 81  2  0  0  0  0
 37 40  1  0  0  0  0
 38 47  1  0  0  0  0
 39 69  1  0  0  0  0
 40 42  1  0  0  0  0
 41 43  1  0  0  0  0
 41 44  1  0  0  0  0
 42 46  1  0  0  0  0
 43 48  1  0  0  0  0
 44 70  1  0  0  0  0
 45 48  1  0  0  0  0
 45 70  1  0  0  0  0
 46 73  1  0  0  0  0
 47 69  1  0  0  0  0
 48 68  1  0  0  0  0
 50 64  1  0  0  0  0
 51 66  1  0  0  0  0
 52 66  1  0  0  0  0
 53 66  1  0  0  0  0
 54 76  1  0  0  0  0
 55 83  1  0  0  0  0
 56 57  1  0  0  0  0
 56 58  1  0  0  0  0
 57 59  1  0  0  0  0
 58 60  1  0  0  0  0
 59 61  1  0  0  0  0
 60 62  1  0  0  0  0
 61 65  1  0  0  0  0
 62 75  1  0  0  0  0
 63 66  1  0  0  0  0
 63 74  1  0  0  0  0
 64 76  1  0  0  0  0
 65 86  1  0  0  0  0
 65 87  1  0  0  0  0
 67 68  1  0  0  0  0
M  CHG  1  76   1
M  ISO  4  36 100  55 101  75 100  83 101
M  END
> <Batch ID>
0035

> <Smiles>
CNC(C)C(=O)NC(C(=O)N1Cc2cc([101O:1][101CH2:1]c3cc(C(F)(F)CCCCCCC[100NH:0][100C:0](=O)N4CCCC(n5nc(-c6ccc(Oc7ccc(F)cc7F)cc6)c(C(N)=O)c5N)C4)c(C)s3)ccc2CC1C(=O)NC1CCCc2ccccc21)C(C)(C)C

> <Shape>
0.201

> <Color>
0.106

> <Negative vol penalty>
0.000

$$$$

  -OEChem-04052316533D

 83 91  0     1  0  0  0  0  0999 V2000
  -19.8286   -8.3875   21.4131 C   0  0  0  0  0  0  0  0  0  0  0  0
  -19.1603   -9.6060   21.4765 C   0  0  0  0  0  0  0  0  0  0  0  0
  -29.2683  -26.6954   18.0515 C   0  0  0  0  0  0  0  0  0  0  0  0
  -28.8792  -25.5543   20.1452 C   0  0  0  0  0  0  0  0  0  0  0  0
  -21.1498   -8.2949   21.8485 C   0  0  0  0  0  0  0  0  0  0  0  0
  -19.8125  -10.7325   21.9766 C   0  0  0  0  0  0  0  0  0  0  0  0
  -19.0987  -16.5257   20.1232 C   0  0  0  0  0  0  0  0  0  0  0  0
  -18.4676  -26.3763   23.6630 C   0  0  0  0  0  0  0  0  0  0  0  0
  -19.0952  -27.6107   23.8301 C   0  0  0  0  0  0  0  0  0  0  0  0
  -30.5563  -26.1625   18.0005 C   0  0  0  0  0  0  0  0  0  0  0  0
  -30.1672  -25.0213   20.0941 C   0  0  0  0  0  0  0  0  0  0  0  0
  -18.3482  -17.5865   20.6285 C   0  0  0  0  0  0  0  0  0  0  0  0
  -31.7565  -22.5001   18.5010 C   0  0  0  0  0  0  0  0  0  0  0  0
  -31.9081  -21.1459   18.7988 C   0  0  0  0  0  0  0  0  0  0  0  0
  -20.2930  -18.3940   21.8052 C   0  0  0  0  0  0  0  0  0  0  0  0
  -18.9003  -26.4777   21.2882 C   0  0  0  0  0  0  0  0  0  0  0  0
  -33.3762  -21.7134   20.6318 C   0  0  0  0  0  0  0  0  0  0  0  0
  -28.4297  -26.3913   19.1240 C   0  0  0  0  0  0  0  0  0  0  0  0
  -25.9231  -26.3758   18.6506 C   0  0  0  0  0  0  0  0  0  0  0  0
  -21.8218   -9.4230   22.3451 C   0  0  0  0  0  0  0  0  0  0  0  0
  -20.4515  -16.3848   20.4645 C   0  0  0  0  0  0  0  0  0  0  0  0
  -21.1436  -10.6546   22.4203 C   0  0  0  0  0  0  0  0  0  0  0  0
  -21.0591  -17.3321   21.3009 C   0  0  0  0  0  0  0  0  0  0  0  0
  -18.3702  -25.8097   22.3921 C   0  0  0  0  0  0  0  0  0  0  0  0
  -19.6252  -28.2787   22.7262 C   0  0  0  0  0  0  0  0  0  0  0  0
  -31.0058  -25.3255   19.0217 C   0  0  0  0  0  0  0  0  0  0  0  0
  -18.9445  -18.5192   21.4719 C   0  0  0  0  0  0  0  0  0  0  0  0
  -32.4147  -23.4610   19.2686 C   0  0  0  0  0  0  0  0  0  0  0  0
  -32.7180  -20.7525   19.8642 C   0  0  0  0  0  0  0  0  0  0  0  0
  -33.2245  -23.0676   20.3340 C   0  0  0  0  0  0  0  0  0  0  0  0
  -19.5278  -27.7122   21.4553 C   0  0  0  0  0  0  0  0  0  0  0  0
  -27.0993  -26.9419   19.1776 C   0  0  0  0  0  0  0  0  0  0  0  0
  -24.9374  -27.2804   18.9614 C   0  0  0  0  0  0  0  0  0  0  0  0
  -25.7380  -25.1424   17.9434 C   0  0  0  0  0  0  0  0  0  0  0  0
  -22.1639  -14.1789   21.9827 C   0  0  0  0  0  0  0  0  0  0  0  0
  -24.6551  -16.0486   21.0767 C   0  0  0  0  0  0  0  0  0  0  0  0
  -25.7720  -19.1367   20.1476 C   0  0  0  0  0  0  0  0  0  0  0  0
  -22.4666  -30.7327   22.5838 C   0  0  0  0  0  0  0  0  0  0  0  0
  -23.2346   -9.2634   22.8482 C   0  0  0  0  0  0  0  0  0  0  0  0
  -21.2541  -15.2500   19.8896 C   0  0  0  0  0  0  0  0  0  0  0  0
  -22.5133  -17.2372   21.6814 C   0  0  0  0  0  0  0  0  0  0  0  0
  -23.9749  -10.5878   23.0156 C   0  0  0  0  0  0  0  0  0  0  0  0
  -25.2469  -31.9996   20.7558 C   0  0  0  0  0  0  0  0  0  0  0  0
  -23.0953  -11.6034   23.7381 C   0  0  0  0  0  0  0  0  0  0  0  0
  -25.8827  -30.7499   20.1444 C   0  0  0  0  0  0  0  0  0  0  0  0
  -24.6947  -31.7258   22.1530 C   0  0  0  0  0  0  0  0  0  0  0  0
  -24.3982  -29.3365   21.6267 C   0  0  0  0  0  0  0  0  0  0  0  0
  -21.8252  -11.9046   22.9333 C   0  0  1  0  0  0  0  0  0  0  0  0
  -22.4927  -14.9159   20.7152 C   0  0  1  0  0  0  0  0  0  0  0  0
  -24.9195  -29.5486   20.1951 C   0  0  2  0  0  0  0  0  0  0  0  0
  -27.8651  -20.3639   19.5073 C   0  0  0  0  0  0  0  0  0  0  0  0
  -25.5131  -16.1076   24.0042 C   0  0  0  0  0  0  0  0  0  0  0  0
  -26.9852  -18.0585   23.4611 C   0  0  0  0  0  0  0  0  0  0  0  0
  -27.3904  -15.8512   22.3719 C   0  0  0  0  0  0  0  0  0  0  0  0
  -24.7012  -19.8024   17.4701 C   0  0  0  0  0  0  0  0  0  0  0  0
  -17.6917  -24.4752   22.2114 C   0  0  0  0  0  0  0  0  0  0  0  0
  -20.2888  -29.5995   22.9473 C   0  0  0  0  0  0  0  0  0  0  0  0
  -18.6398  -23.2771   22.3327 C   0  0  0  0  0  0  0  0  0  0  0  0
  -17.9490  -21.9381   22.0704 C   0  0  0  0  0  0  0  0  0  0  0  0
  -18.9114  -20.7702   22.2388 C   0  0  0  0  0  0  0  0  0  1  0  0
  -25.3837  -17.2249   21.6803 C   0  0  1  0  0  0  0  0  0  0  0  0
  -26.6620  -19.5832   19.0017 C   0  0  2  0  0  0  0  0  0  0  0  0
  -26.2902  -16.8116   22.8740 C   0  0  0  0  0  0  0  0  0  0  0  0
  -26.8827  -28.1155   19.7775 N   0  0  0  0  0  0  0  0  0  0  0  0
  -25.5590  -28.2941   19.6294 N   0  0  0  0  0  0  0  0  0  0  0  0
  -23.2543  -16.1063   21.0988 N   0  0  0  0  0  0  0  0  0  0  0  0
  -23.7872  -30.5760   22.1318 N   0  0  0  0  0  0  0  0  0  0  0  0
  -23.6083  -27.2997   18.7257 N   0  0  0  0  0  0  0  0  0  0  0  0
  -26.8573  -24.3321   17.7090 N   0  0  0  0  0  0  0  0  0  0  0  0
  -22.1215  -12.8051   21.8398 N   0  0  0  0  0  0  0  0  0  0  0  0
  -26.0975  -17.8695   20.5832 N   0  0  0  0  0  0  0  0  0  0  0  0
  -21.6713  -29.5948   22.5238 N   0  0  0  0  0  0  0  0  0  0  0  0
  -25.8991  -20.4521   18.0616 N   0  3  0  0  0  0  0  0  0  0  0  0
  -24.6160  -24.7776   17.5172 O   0  0  0  0  0  0  0  0  0  0  0  0
  -21.9650  -14.8098   23.0142 O   0  0  0  0  0  0  0  0  0  0  0  0
  -25.3048  -15.1163   20.5968 O   0  0  0  0  0  0  0  0  0  0  0  0
  -24.8799  -19.8428   20.6124 O   0  0  0  0  0  0  0  0  0  0  0  0
  -22.0271  -31.8083   23.0044 O   0  0  0  0  0  0  0  0  0  0  0  0
  -32.2625  -24.8051   18.9721 O   0  0  0  0  0  0  0  0  0  0  0  0
  -18.2141  -19.5551   21.9671 O   0  0  0  0  0  0  0  0  0  1  0  0
  -32.8623  -19.4521   20.1511 F   0  0  0  0  0  0  0  0  0  0  0  0
  -33.8585  -23.9862   21.0757 F   0  0  0  0  0  0  0  0  0  0  0  0
  -20.1710  -28.5103   20.0665 Cl  0  0  0  0  0  0  0  0  0  0  0  0
  1  2  1  0  0  0  0
  1  5  2  0  0  0  0
  2  6  2  0  0  0  0
  3 10  2  0  0  0  0
  3 18  1  0  0  0  0
  4 11  1  0  0  0  0
  4 18  2  0  0  0  0
  5 20  1  0  0  0  0
  6 22  1  0  0  0  0
  7 12  2  0  0  0  0
  7 21  1  0  0  0  0
  8  9  2  0  0  0  0
  8 24  1  0  0  0  0
  9 25  1  0  0  0  0
 10 26  1  0  0  0  0
 11 26  2  0  0  0  0
 12 27  1  0  0  0  0
 13 14  2  0  0  0  0
 13 28  1  0  0  0  0
 14 29  1  0  0  0  0
 15 23  1  0  0  0  0
 15 27  2  0  0  0  0
 16 24  2  0  0  0  0
 16 31  1  0  0  0  0
 17 29  2  0  0  0  0
 17 30  1  0  0  0  0
 18 32  1  0  0  0  0
 19 32  1  0  0  0  0
 19 33  2  0  0  0  0
 19 34  1  0  0  0  0
 20 22  2  0  0  0  0
 20 39  1  0  0  0  0
 21 23  2  0  0  0  0
 21 40  1  0  0  0  0
 22 48  1  0  0  0  0
 23 41  1  0  0  0  0
 24 56  1  0  0  0  0
 25 31  2  0  0  0  0
 25 57  1  0  0  0  0
 26 79  1  0  0  0  0
 27 80  1  0  0  0  0
 28 30  2  0  0  0  0
 28 79  1  0  0  0  0
 29 81  1  0  0  0  0
 30 82  1  0  0  0  0
 31 83  1  0  0  0  0
 32 64  2  0  0  0  0
 33 65  1  0  0  0  0
 33 68  1  0  0  0  0
 34 69  1  0  0  0  0
 34 74  2  0  0  0  0
 35 49  1  0  0  0  0
 35 70  1  0  0  0  0
 35 75  2  0  0  0  0
 36 61  1  0  0  0  0
 36 66  1  0  0  0  0
 36 76  2  0  0  0  0
 37 62  1  0  0  0  0
 37 71  1  0  0  0  0
 37 77  2  0  0  0  0
 38 67  1  0  0  0  0
 38 72  1  0  0  0  0
 38 78  2  0  0  0  0
 39 42  1  0  0  0  0
 40 49  1  0  0  0  0
 41 66  1  0  0  0  0
 42 44  1  0  0  0  0
 43 45  1  0  0  0  0
 43 46  1  0  0  0  0
 44 48  1  0  0  0  0
 45 50  1  0  0  0  0
 46 67  1  0  0  0  0
 47 50  1  0  0  0  0
 47 67  1  0  0  0  0
 48 70  1  0  0  0  0
 49 66  1  0  0  0  0
 50 65  1  0  0  0  0
 51 62  1  0  0  0  0
 52 63  1  0  0  0  0
 53 63  1  0  0  0  0
 54 63  1  0  0  0  0
 55 73  1  0  0  0  0
 56 58  1  0  0  0  0
 57 72  1  0  0  0  0
 58 59  1  0  0  0  0
 59 60  1  0  0  0  0
 60 80  1  0  0  0  0
 61 63  1  0  0  0  0
 61 71  1  0  0  0  0
 62 73  1  0  0  0  0
 64 65  1  0  0  0  0
M  CHG  1  73   1
M  ISO  4  38 100  60 101  72 100  80 101
M  END
> <Batch ID>
0035

> <Smiles>
CNC(C)C(=O)NC(C(=O)N1Cc2cc([101O:1][101CH2:1]CCCc3ccc(C[100NH:0][100C:0](=O)N4CCCC(n5nc(-c6ccc(Oc7ccc(F)cc7F)cc6)c(C(N)=O)c5N)C4)c(Cl)c3)ccc2CC1C(=O)NC1CCCc2ccccc21)C(C)(C)C

> <Shape>
0.195

> <Color>
0.091

> <Negative vol penalty>
0.000

$$$$

  -OEChem-04052316533D

 91100  0     1  0  0  0  0  0999 V2000
  -16.8079  -29.6053   24.2951 C   0  0  0  0  0  0  0  0  0  0  0  0
  -17.1782  -28.5017   23.5332 C   0  0  0  0  0  0  0  0  0  0  0  0
  -25.8268  -15.1226   21.4188 C   0  0  0  0  0  0  0  0  0  0  0  0
  -24.8980  -16.8602   20.0205 C   0  0  0  0  0  0  0  0  0  0  0  0
  -17.5351  -30.7912   24.2016 C   0  0  0  0  0  0  0  0  0  0  0  0
  -18.2754  -28.5838   22.6765 C   0  0  0  0  0  0  0  0  0  0  0  0
  -22.2453  -24.1161   21.3403 C   0  0  0  0  0  0  0  0  0  0  0  0
  -34.4057  -21.7822   16.9267 C   0  0  0  0  0  0  0  0  0  0  0  0
  -34.0466  -21.7978   15.5790 C   0  0  0  0  0  0  0  0  0  0  0  0
  -24.5860  -14.4862   21.4522 C   0  0  0  0  0  0  0  0  0  0  0  0
  -23.6572  -16.2238   20.0539 C   0  0  0  0  0  0  0  0  0  0  0  0
  -22.3415  -23.2385   20.2612 C   0  0  0  0  0  0  0  0  0  0  0  0
  -21.7533  -12.2133   21.6087 C   0  0  0  0  0  0  0  0  0  0  0  0
  -21.7278  -10.8316   21.4194 C   0  0  0  0  0  0  0  0  0  0  0  0
  -32.1290  -21.2409   17.5272 C   0  0  0  0  0  0  0  0  0  0  0  0
  -23.9304  -24.7170   19.2083 C   0  0  0  0  0  0  0  0  0  0  0  0
  -22.7259  -11.1122   19.2372 C   0  0  0  0  0  0  0  0  0  0  0  0
  -25.9828  -16.3096   20.7029 C   0  0  0  0  0  0  0  0  0  0  0  0
  -28.2974  -16.7681   19.7336 C   0  0  0  0  0  0  0  0  0  0  0  0
  -18.6475  -30.8848   23.3505 C   0  0  0  0  0  0  0  0  0  0  0  0
  -22.9839  -25.3080   21.3565 C   0  0  0  0  0  0  0  0  0  0  0  0
  -19.0173  -29.7725   22.5705 C   0  0  0  0  0  0  0  0  0  0  0  0
  -31.7698  -21.2566   16.1794 C   0  0  0  0  0  0  0  0  0  0  0  0
  -23.8437  -25.6068   20.2900 C   0  0  0  0  0  0  0  0  0  0  0  0
  -33.4470  -21.5037   17.9008 C   0  0  0  0  0  0  0  0  0  0  0  0
  -32.7286  -21.5350   15.2053 C   0  0  0  0  0  0  0  0  0  0  0  0
  -23.5012  -15.0368   20.7698 C   0  0  0  0  0  0  0  0  0  0  0  0
  -23.1819  -23.5403   19.1937 C   0  0  0  0  0  0  0  0  0  0  0  0
  -22.2650  -13.0445   20.6122 C   0  0  0  0  0  0  0  0  0  0  0  0
  -22.2141  -10.2810   20.2336 C   0  0  0  0  0  0  0  0  0  0  0  0
  -22.7514  -12.4939   19.4265 C   0  0  0  0  0  0  0  0  0  0  0  0
  -27.2641  -16.9678   20.6685 C   0  0  0  0  0  0  0  0  0  0  0  0
  -29.2935  -17.6245   20.1346 C   0  0  0  0  0  0  0  0  0  0  0  0
  -28.3520  -15.8873   18.6035 C   0  0  0  0  0  0  0  0  0  0  0  0
  -22.2512  -28.4002   21.4251 C   0  0  0  0  0  0  0  0  0  0  0  0
  -25.4600  -28.7545   21.7419 C   0  0  0  0  0  0  0  0  0  0  0  0
  -28.5802  -27.4643   21.2457 C   0  0  0  0  0  0  0  0  0  0  0  0
  -30.9722  -22.6295   21.9449 C   0  0  0  0  0  0  0  0  0  0  0  0
  -19.3740  -32.2025   23.2477 C   0  0  0  0  0  0  0  0  0  0  0  0
  -22.8892  -26.2311   22.5403 C   0  0  0  0  0  0  0  0  0  0  0  0
  -24.6734  -26.8636   20.2684 C   0  0  0  0  0  0  0  0  0  0  0  0
  -20.7499  -32.0903   22.5962 C   0  0  0  0  0  0  0  0  0  0  0  0
  -29.8078  -20.3150   24.3871 C   0  0  0  0  0  0  0  0  0  0  0  0
  -20.6734  -31.2434   21.3298 C   0  0  0  0  0  0  0  0  0  0  0  0
  -29.1224  -19.2253   23.5608 C   0  0  0  0  0  0  0  0  0  0  0  0
  -29.9549  -19.5572   16.2537 C   0  0  0  0  0  0  0  0  0  0  0  0
  -29.4155  -22.0202   16.4264 C   0  0  0  0  0  0  0  0  0  0  0  0
  -29.5939  -21.7006   23.7818 C   0  0  0  0  0  0  0  0  0  0  0  0
  -29.2900  -20.7322   21.5360 C   0  0  0  0  0  0  0  0  0  0  0  0
  -28.4890  -19.2668   15.9581 C   0  0  0  0  0  0  0  0  0  0  0  0
  -27.9538  -21.7109   16.1292 C   0  0  0  0  0  0  0  0  0  0  0  0
  -30.3515  -20.9723   15.8028 C   0  0  0  0  0  0  0  0  0  0  0  0
  -20.2164  -29.8147   21.6483 C   0  0  1  0  0  0  0  0  0  0  0  0
  -23.2970  -27.6646   22.2142 C   0  0  1  0  0  0  0  0  0  0  0  0
  -29.5244  -19.3111   22.0761 C   0  0  2  0  0  0  0  0  0  0  0  0
  -32.3675  -21.5585   13.7563 C   0  0  0  0  0  0  0  0  0  0  0  0
  -31.0800  -27.2963   21.3874 C   0  0  0  0  0  0  0  0  0  0  0  0
  -25.3598  -30.6540   19.3562 C   0  0  0  0  0  0  0  0  0  0  0  0
  -27.8417  -30.4037   19.1415 C   0  0  0  0  0  0  0  0  0  0  0  0
  -26.8640  -31.3903   21.2136 C   0  0  0  0  0  0  0  0  0  0  0  0
  -28.4528  -26.0132   23.8220 C   0  0  0  0  0  0  0  0  0  0  0  0
  -33.8311  -21.4876   19.3417 C   0  0  0  0  0  0  0  0  0  0  0  0
  -33.6958  -22.8482   20.0535 C   0  0  0  0  0  0  0  0  0  0  0  0
  -25.3748  -20.7998   17.4934 C   0  0  0  0  0  0  0  0  0  0  0  0
  -23.8838  -20.4826   17.4070 C   0  0  0  0  0  0  0  0  0  0  0  0
  -32.2908  -23.4448   20.0070 C   0  0  0  0  0  0  0  0  0  0  0  0
  -26.1625  -20.0088   16.4598 C   0  0  0  0  0  0  0  0  0  0  0  0
  -23.0764  -21.2986   18.4066 C   0  0  0  0  0  0  0  0  0  1  0  0
  -26.6179  -28.9107   20.7860 C   0  0  1  0  0  0  0  0  0  0  0  0
  -29.7773  -27.3391   22.1708 C   0  0  2  0  0  0  0  0  0  0  0  0
  -26.6539  -30.3169   20.1235 C   0  0  0  0  0  0  0  0  0  0  0  0
  -27.5750  -17.8793   21.5939 N   0  0  0  0  0  0  0  0  0  0  0  0
  -28.8150  -18.2600   21.2424 N   0  0  0  0  0  0  0  0  0  0  0  0
  -24.5414  -27.7374   21.4459 N   0  0  0  0  0  0  0  0  0  0  0  0
  -29.9960  -21.7148   22.3733 N   0  0  0  0  0  0  0  0  0  0  0  0
  -30.5233  -17.8882   19.6443 N   0  0  0  0  0  0  0  0  0  0  0  0
  -27.2413  -15.0760   18.3345 N   0  0  0  0  0  0  0  0  0  0  0  0
  -21.3098  -29.0463   22.2035 N   0  0  0  0  0  0  0  0  0  0  0  0
  -27.8196  -28.5755   21.5422 N   0  0  0  0  0  0  0  0  0  0  0  0
  -31.2997  -22.5720   20.5958 N   0  0  0  0  0  0  0  0  0  0  0  0
  -27.6056  -20.3142   16.6110 N   0  3  0  0  0  0  0  0  0  0  0  0
  -29.6762  -26.0938   22.9831 N   0  3  0  0  0  0  0  0  0  0  0  0
  -29.3624  -15.8097   17.8642 O   0  0  0  0  0  0  0  0  0  0  0  0
  -22.2958  -28.3842   20.2005 O   0  0  0  0  0  0  0  0  0  0  0  0
  -25.3775  -29.5025   22.7193 O   0  0  0  0  0  0  0  0  0  0  0  0
  -28.3455  -26.6590   20.3474 O   0  0  0  0  0  0  0  0  0  0  0  0
  -31.5157  -23.4340   22.7094 O   0  0  0  0  0  0  0  0  0  0  0  0
  -22.2904  -14.4160   20.8020 O   0  0  0  0  0  0  0  0  0  0  0  0
  -23.2772  -22.6858   18.1389 O   0  0  0  0  0  0  0  0  0  1  0  0
  -22.1910   -8.9541   20.0526 F   0  0  0  0  0  0  0  0  0  0  0  0
  -23.2453  -13.2873   18.4660 F   0  0  0  0  0  0  0  0  0  0  0  0
  1  2  1  0  0  0  0
  1  5  2  0  0  0  0
  2  6  2  0  0  0  0
  3 10  2  0  0  0  0
  3 18  1  0  0  0  0
  4 11  1  0  0  0  0
  4 18  2  0  0  0  0
  5 20  1  0  0  0  0
  6 22  1  0  0  0  0
  7 12  2  0  0  0  0
  7 21  1  0  0  0  0
  8  9  2  0  0  0  0
  8 25  1  0  0  0  0
  9 26  1  0  0  0  0
 10 27  1  0  0  0  0
 11 27  2  0  0  0  0
 12 28  1  0  0  0  0
 13 14  2  0  0  0  0
 13 29  1  0  0  0  0
 14 30  1  0  0  0  0
 15 23  1  0  0  0  0
 15 25  2  0  0  0  0
 16 24  1  0  0  0  0
 16 28  2  0  0  0  0
 17 30  2  0  0  0  0
 17 31  1  0  0  0  0
 18 32  1  0  0  0  0
 19 32  1  0  0  0  0
 19 33  2  0  0  0  0
 19 34  1  0  0  0  0
 20 22  2  0  0  0  0
 20 39  1  0  0  0  0
 21 24  2  0  0  0  0
 21 40  1  0  0  0  0
 22 53  1  0  0  0  0
 23 26  2  0  0  0  0
 23 52  1  0  0  0  0
 24 41  1  0  0  0  0
 25 62  1  0  0  0  0
 26 56  1  0  0  0  0
 27 88  1  0  0  0  0
 28 89  1  0  0  0  0
 29 31  2  0  0  0  0
 29 88  1  0  0  0  0
 30 90  1  0  0  0  0
 31 91  1  0  0  0  0
 32 72  2  0  0  0  0
 33 73  1  0  0  0  0
 33 76  1  0  0  0  0
 34 77  1  0  0  0  0
 34 83  2  0  0  0  0
 35 54  1  0  0  0  0
 35 78  1  0  0  0  0
 35 84  2  0  0  0  0
 36 69  1  0  0  0  0
 36 74  1  0  0  0  0
 36 85  2  0  0  0  0
 37 70  1  0  0  0  0
 37 79  1  0  0  0  0
 37 86  2  0  0  0  0
 38 75  1  0  0  0  0
 38 80  1  0  0  0  0
 38 87  2  0  0  0  0
 39 42  1  0  0  0  0
 40 54  1  0  0  0  0
 41 74  1  0  0  0  0
 42 44  1  0  0  0  0
 43 45  1  0  0  0  0
 43 48  1  0  0  0  0
 44 53  1  0  0  0  0
 45 55  1  0  0  0  0
 46 50  1  0  0  0  0
 46 52  1  0  0  0  0
 47 51  1  0  0  0  0
 47 52  1  0  0  0  0
 48 75  1  0  0  0  0
 49 55  1  0  0  0  0
 49 75  1  0  0  0  0
 50 81  1  0  0  0  0
 51 81  1  0  0  0  0
 53 78  1  0  0  0  0
 54 74  1  0  0  0  0
 55 73  1  0  0  0  0
 57 70  1  0  0  0  0
 58 71  1  0  0  0  0
 59 71  1  0  0  0  0
 60 71  1  0  0  0  0
 61 82  1  0  0  0  0
 62 63  1  0  0  0  0
 63 66  1  0  0  0  0
 64 65  1  0  0  0  0
 64 67  1  0  0  0  0
 65 68  1  0  0  0  0
 66 80  1  0  0  0  0
 67 81  1  0  0  0  0
 68 89  1  0  0  0  0
 69 71  1  0  0  0  0
 69 79  1  0  0  0  0
 70 82  1  0  0  0  0
 72 73  1  0  0  0  0
M  CHG  2  81   1  82   1
M  ISO  4  38 100  68 101  80 100  89 101
M  END
> <Batch ID>
0035

> <Smiles>
CNC(C)C(=O)NC(C(=O)N1Cc2cc([101O:1][101CH2:1]CCCN3CCC(c4cc(CCC[100NH:0][100C:0](=O)N5CCCC(n6nc(-c7ccc(Oc8ccc(F)cc8F)cc7)c(C(N)=O)c6N)C5)ccc4C)CC3)ccc2CC1C(=O)NC1CCCc2ccccc21)C(C)(C)C

> <Shape>
0.195

> <Color>
0.085

> <Negative vol penalty>
0.000

$$$$

  -OEChem-04052316533D

 88 97  0     1  0  0  0  0  0999 V2000
  -31.4389  -28.0895   17.7988 C   0  0  0  0  0  0  0  0  0  0  0  0
  -30.6269  -26.9684   17.9377 C   0  0  0  0  0  0  0  0  0  0  0  0
  -24.2356   -9.4013   19.9756 C   0  0  0  0  0  0  0  0  0  0  0  0
  -24.4423   -9.7897   22.3512 C   0  0  0  0  0  0  0  0  0  0  0  0
  -31.4792  -29.0491   18.8095 C   0  0  0  0  0  0  0  0  0  0  0  0
  -29.8556  -26.8058   19.0879 C   0  0  0  0  0  0  0  0  0  0  0  0
  -25.1216  -25.3299   18.0600 C   0  0  0  0  0  0  0  0  0  0  0  0
  -23.8299   -8.0903   20.2251 C   0  0  0  0  0  0  0  0  0  0  0  0
  -24.0366   -8.4786   22.6008 C   0  0  0  0  0  0  0  0  0  0  0  0
  -24.9275  -23.9850   17.7483 C   0  0  0  0  0  0  0  0  0  0  0  0
  -21.1382   -6.7429   22.6834 C   0  0  0  0  0  0  0  0  0  0  0  0
  -20.1914   -6.5391   23.6873 C   0  0  0  0  0  0  0  0  0  0  0  0
  -27.6603  -19.1692   20.3775 C   0  0  0  0  0  0  0  0  0  0  0  0
  -24.1707  -23.5781   20.0024 C   0  0  0  0  0  0  0  0  0  0  0  0
  -21.7588   -5.1413   24.8817 C   0  0  0  0  0  0  0  0  0  0  0  0
  -28.0545  -21.2335   19.2639 C   0  0  0  0  0  0  0  0  0  0  0  0
  -24.5418  -10.2510   21.0386 C   0  0  0  0  0  0  0  0  0  0  0  0
  -24.1398  -12.7426   20.6671 C   0  0  0  0  0  0  0  0  0  0  0  0
  -30.7007  -28.9030   19.9684 C   0  0  0  0  0  0  0  0  0  0  0  0
  -24.8517  -25.8077   19.3504 C   0  0  0  0  0  0  0  0  0  0  0  0
  -29.8866  -27.7637   20.1156 C   0  0  0  0  0  0  0  0  0  0  0  0
  -27.3690  -20.0310   19.3259 C   0  0  0  0  0  0  0  0  0  0  0  0
  -24.3598  -24.9301   20.3272 C   0  0  0  0  0  0  0  0  0  0  0  0
  -28.6146  -19.5312   21.3216 C   0  0  0  0  0  0  0  0  0  0  0  0
  -23.7304   -7.6290   21.5377 C   0  0  0  0  0  0  0  0  0  0  0  0
  -24.4547  -23.1082   18.7204 C   0  0  0  0  0  0  0  0  0  0  0  0
  -22.3952   -6.1459   22.7787 C   0  0  0  0  0  0  0  0  0  0  0  0
  -20.5017   -5.7383   24.7864 C   0  0  0  0  0  0  0  0  0  0  0  0
  -22.7055   -5.3451   23.8778 C   0  0  0  0  0  0  0  0  0  0  0  0
  -24.9614  -11.6052   20.7814 C   0  0  0  0  0  0  0  0  0  0  0  0
  -29.2445  -20.7560   21.1702 C   0  0  0  0  0  0  0  0  0  0  0  0
  -25.0133  -13.7741   20.4234 C   0  0  0  0  0  0  0  0  0  0  0  0
  -22.7144  -12.8566   20.7721 C   0  0  0  0  0  0  0  0  0  0  0  0
  -26.5836  -27.1490   21.6537 C   0  0  0  0  0  0  0  0  0  0  0  0
  -23.6958  -27.4884   23.0917 C   0  0  0  0  0  0  0  0  0  0  0  0
  -20.4696  -26.4195   23.4005 C   0  0  0  0  0  0  0  0  0  0  0  0
  -29.7730  -16.4794   21.5059 C   0  0  0  0  0  0  0  0  0  0  0  0
  -30.8134  -29.9431   21.0546 C   0  0  0  0  0  0  0  0  0  0  0  0
  -25.0409  -27.2667   19.6631 C   0  0  0  0  0  0  0  0  0  0  0  0
  -24.0355  -25.3971   21.7219 C   0  0  0  0  0  0  0  0  0  0  0  0
  -29.6807  -29.8823   22.0762 C   0  0  0  0  0  0  0  0  0  0  0  0
  -29.9377  -13.7147   19.2685 C   0  0  0  0  0  0  0  0  0  0  0  0
  -26.0961  -18.2126   16.1647 C   0  0  0  0  0  0  0  0  0  0  0  0
  -26.8392  -18.4369   17.4807 C   0  0  0  0  0  0  0  0  0  0  0  0
  -29.4394  -28.4432   22.5206 C   0  0  0  0  0  0  0  0  0  0  0  0
  -28.5931  -13.0103   19.4579 C   0  0  0  0  0  0  0  0  0  0  0  0
  -30.4648  -14.2874   20.5823 C   0  0  0  0  0  0  0  0  0  0  0  0
  -28.1784  -14.4662   21.4845 C   0  0  0  0  0  0  0  0  0  0  0  0
  -24.8340  -17.3726   16.2693 C   0  0  0  0  0  0  0  0  0  0  0  0
  -23.8297  -19.0246   17.9124 C   0  0  0  0  0  0  0  0  0  0  0  0
  -26.3263  -19.6632   18.2709 C   0  0  1  0  0  0  0  0  0  0  0  0
  -29.0164  -27.5640   21.3376 C   0  0  1  0  0  0  0  0  0  0  0  0
  -25.2219  -27.5399   21.1531 C   0  0  1  0  0  0  0  0  0  0  0  0
  -24.9056  -19.5133   18.8928 C   0  0  1  0  0  0  0  0  0  0  0  0
  -27.5795  -13.9208   20.1768 C   0  0  2  0  0  0  0  0  0  0  0  0
  -30.6216  -22.6764   22.0083 C   0  0  0  0  0  0  0  0  0  0  0  0
  -18.3605  -26.8670   24.6846 C   0  0  0  0  0  0  0  0  0  0  0  0
  -24.8835  -26.0852   25.5269 C   0  0  0  0  0  0  0  0  0  0  0  0
  -22.5529  -25.7148   26.3631 C   0  0  0  0  0  0  0  0  0  0  0  0
  -23.4135  -28.0366   26.0612 C   0  0  0  0  0  0  0  0  0  0  0  0
  -18.9740  -27.0896   20.9362 C   0  0  0  0  0  0  0  0  0  0  0  0
  -28.9302  -18.6134   22.4518 C   0  0  0  0  0  0  0  0  0  0  0  0
  -30.2788  -21.1970   22.1538 C   0  0  0  0  0  0  0  0  0  0  0  0
  -24.4285  -20.8548   19.4802 C   0  0  0  0  0  0  0  0  0  1  0  0
  -22.8601  -26.6452   24.0241 C   0  0  1  0  0  0  0  0  0  0  0  0
  -19.1551  -27.1783   23.4258 C   0  0  2  0  0  0  0  0  0  0  0  0
  -23.4354  -26.6109   25.4682 C   0  0  0  0  0  0  0  0  0  0  0  0
  -28.9881  -21.6196   20.1622 N   0  0  0  0  0  0  0  0  0  0  0  0
  -26.2573  -11.8872   20.6230 N   0  0  0  0  0  0  0  0  0  0  0  0
  -26.2566  -13.2136   20.4067 N   0  0  0  0  0  0  0  0  0  0  0  0
  -24.2432  -26.8315   21.9805 N   0  0  0  0  0  0  0  0  0  0  0  0
  -29.4563  -15.1428   21.2125 N   0  0  0  0  0  0  0  0  0  0  0  0
  -24.8316  -15.0968   20.2237 N   0  0  0  0  0  0  0  0  0  0  0  0
  -21.9684  -11.6975   21.0257 N   0  0  0  0  0  0  0  0  0  0  0  0
  -27.6249  -27.7911   21.0112 N   0  0  0  0  0  0  0  0  0  0  0  0
  -21.4996  -27.1642   23.9350 N   0  0  0  0  0  0  0  0  0  0  0  0
  -28.7583  -17.2224   22.0967 N   0  0  0  0  0  0  0  0  0  0  0  0
  -24.0775  -17.6062   17.5261 N   0  3  0  0  0  0  0  0  0  0  0  0
  -18.3241  -26.8144   22.2435 N   0  3  0  0  0  0  0  0  0  0  0  0
  -22.1186  -13.9510   20.6284 O   0  0  0  0  0  0  0  0  0  0  0  0
  -26.6822  -26.3268   22.5570 O   0  0  0  0  0  0  0  0  0  0  0  0
  -23.8511  -28.6875   23.3362 O   0  0  0  0  0  0  0  0  0  0  0  0
  -20.5717  -25.2786   22.9549 O   0  0  0  0  0  0  0  0  0  0  0  0
  -30.8766  -16.9755   21.2547 O   0  0  0  0  0  0  0  0  0  0  0  0
  -23.3344   -6.3498   21.7816 O   0  0  0  0  0  0  0  0  0  0  0  0
  -24.2650  -21.7948   18.4190 O   0  0  0  0  0  0  0  0  0  1  0  0
  -19.5930   -5.5439   25.7511 F   0  0  0  0  0  0  0  0  0  0  0  0
  -23.9119   -4.7699   23.9755 F   0  0  0  0  0  0  0  0  0  0  0  0
  1  2  1  0  0  0  0
  1  5  2  0  0  0  0
  2  6  2  0  0  0  0
  3  8  2  0  0  0  0
  3 17  1  0  0  0  0
  4  9  1  0  0  0  0
  4 17  2  0  0  0  0
  5 19  1  0  0  0  0
  6 21  1  0  0  0  0
  7 10  2  0  0  0  0
  7 20  1  0  0  0  0
  8 25  1  0  0  0  0
  9 25  2  0  0  0  0
 10 26  1  0  0  0  0
 11 12  2  0  0  0  0
 11 27  1  0  0  0  0
 12 28  1  0  0  0  0
 13 22  2  0  0  0  0
 13 24  1  0  0  0  0
 14 23  1  0  0  0  0
 14 26  2  0  0  0  0
 15 28  2  0  0  0  0
 15 29  1  0  0  0  0
 16 22  1  0  0  0  0
 16 68  2  0  0  0  0
 17 30  1  0  0  0  0
 18 30  1  0  0  0  0
 18 32  2  0  0  0  0
 18 33  1  0  0  0  0
 19 21  2  0  0  0  0
 19 38  1  0  0  0  0
 20 23  2  0  0  0  0
 20 39  1  0  0  0  0
 21 52  1  0  0  0  0
 22 51  1  0  0  0  0
 23 40  1  0  0  0  0
 24 31  2  0  0  0  0
 24 62  1  0  0  0  0
 25 85  1  0  0  0  0
 26 86  1  0  0  0  0
 27 29  2  0  0  0  0
 27 85  1  0  0  0  0
 28 87  1  0  0  0  0
 29 88  1  0  0  0  0
 30 69  2  0  0  0  0
 31 63  1  0  0  0  0
 31 68  1  0  0  0  0
 32 70  1  0  0  0  0
 32 73  1  0  0  0  0
 33 74  1  0  0  0  0
 33 80  2  0  0  0  0
 34 53  1  0  0  0  0
 34 75  1  0  0  0  0
 34 81  2  0  0  0  0
 35 65  1  0  0  0  0
 35 71  1  0  0  0  0
 35 82  2  0  0  0  0
 36 66  1  0  0  0  0
 36 76  1  0  0  0  0
 36 83  2  0  0  0  0
 37 72  1  0  0  0  0
 37 77  1  0  0  0  0
 37 84  2  0  0  0  0
 38 41  1  0  0  0  0
 39 53  1  0  0  0  0
 40 71  1  0  0  0  0
 41 45  1  0  0  0  0
 42 46  1  0  0  0  0
 42 47  1  0  0  0  0
 43 44  1  0  0  0  0
 43 49  1  0  0  0  0
 44 51  1  0  0  0  0
 45 52  1  0  0  0  0
 46 55  1  0  0  0  0
 47 72  1  0  0  0  0
 48 55  1  0  0  0  0
 48 72  1  0  0  0  0
 49 78  1  0  0  0  0
 50 54  1  0  0  0  0
 50 78  1  0  0  0  0
 51 54  1  0  0  0  0
 52 75  1  0  0  0  0
 53 71  1  0  0  0  0
 54 64  1  0  0  0  0
 55 70  1  0  0  0  0
 56 63  1  0  0  0  0
 57 66  1  0  0  0  0
 58 67  1  0  0  0  0
 59 67  1  0  0  0  0
 60 67  1  0  0  0  0
 61 79  1  0  0  0  0
 62 77  1  0  0  0  0
 64 86  1  0  0  0  0
 65 67  1  0  0  0  0
 65 76  1  0  0  0  0
 66 79  1  0  0  0  0
 69 70  1  0  0  0  0
M  CHG  2  78   1  79   1
M  ISO  4  37 100  64 101  77 100  86 101
M  END
> <Batch ID>
0035

> <Smiles>
CCc1ncc(C2CCCNCC2[101CH2:1][101O:1]c2ccc3c(c2)CN(C(=O)C(NC(=O)C(C)NC)C(C)(C)C)C(C(=O)NC2CCCc4ccccc42)C3)cc1C[100NH:0][100C:0](=O)N1CCCC(n2nc(-c3ccc(Oc4ccc(F)cc4F)cc3)c(C(N)=O)c2N)C1

> <Shape>
0.275

> <Color>
0.116

> <Negative vol penalty>
0.000

$$$$

  -OEChem-04052316533D

 89 97  0     1  0  0  0  0  0999 V2000
  -24.2296  -38.1926   22.4840 C   0  0  0  0  0  0  0  0  0  0  0  0
  -25.0208  -37.4239   21.6363 C   0  0  0  0  0  0  0  0  0  0  0  0
  -22.3692  -11.5542   21.3727 C   0  0  0  0  0  0  0  0  0  0  0  0
  -23.4585  -12.7156   23.1897 C   0  0  0  0  0  0  0  0  0  0  0  0
  -23.7364  -37.6412   23.6658 C   0  0  0  0  0  0  0  0  0  0  0  0
  -25.3202  -36.1037   21.9706 C   0  0  0  0  0  0  0  0  0  0  0  0
  -26.5247  -29.7174   18.9569 C   0  0  0  0  0  0  0  0  0  0  0  0
  -30.8315  -23.2957   18.3409 C   0  0  0  0  0  0  0  0  0  0  0  0
  -30.0094  -24.4160   18.2210 C   0  0  0  0  0  0  0  0  0  0  0  0
  -21.2635  -11.3147   22.1886 C   0  0  0  0  0  0  0  0  0  0  0  0
  -22.3528  -12.4761   24.0056 C   0  0  0  0  0  0  0  0  0  0  0  0
  -27.4618  -28.6852   18.9588 C   0  0  0  0  0  0  0  0  0  0  0  0
  -20.4104   -9.1746   24.6618 C   0  0  0  0  0  0  0  0  0  0  0  0
  -19.8625   -7.8920   24.6494 C   0  0  0  0  0  0  0  0  0  0  0  0
  -26.4892  -27.8140   20.9872 C   0  0  0  0  0  0  0  0  0  0  0  0
  -32.0317  -24.3691   20.1422 C   0  0  0  0  0  0  0  0  0  0  0  0
  -17.7553   -8.7994   23.8922 C   0  0  0  0  0  0  0  0  0  0  0  0
  -23.4667  -12.2546   21.8732 C   0  0  0  0  0  0  0  0  0  0  0  0
  -24.8234  -13.6125   20.1930 C   0  0  0  0  0  0  0  0  0  0  0  0
  -24.0219  -36.3105   24.0100 C   0  0  0  0  0  0  0  0  0  0  0  0
  -25.5681  -29.8122   19.9779 C   0  0  0  0  0  0  0  0  0  0  0  0
  -24.8315  -35.5344   23.1588 C   0  0  0  0  0  0  0  0  0  0  0  0
  -25.5394  -28.8470   20.9946 C   0  0  0  0  0  0  0  0  0  0  0  0
  -31.8427  -23.2721   19.3016 C   0  0  0  0  0  0  0  0  0  0  0  0
  -30.1984  -25.5130   19.0617 C   0  0  0  0  0  0  0  0  0  0  0  0
  -31.2095  -25.4895   20.0223 C   0  0  0  0  0  0  0  0  0  0  0  0
  -21.2553  -11.7757   23.5051 C   0  0  0  0  0  0  0  0  0  0  0  0
  -27.4460  -27.7349   19.9756 C   0  0  0  0  0  0  0  0  0  0  0  0
  -19.6308  -10.2697   24.2894 C   0  0  0  0  0  0  0  0  0  0  0  0
  -18.5349   -7.7044   24.2646 C   0  0  0  0  0  0  0  0  0  0  0  0
  -18.3032  -10.0821   23.9046 C   0  0  0  0  0  0  0  0  0  0  0  0
  -24.6094  -12.5017   21.0311 C   0  0  0  0  0  0  0  0  0  0  0  0
  -26.0457  -13.3748   19.6133 C   0  0  0  0  0  0  0  0  0  0  0  0
  -23.9918  -14.7568   19.9596 C   0  0  0  0  0  0  0  0  0  0  0  0
  -24.8819  -31.9619   22.2165 C   0  0  0  0  0  0  0  0  0  0  0  0
  -22.3562  -30.0035   22.7716 C   0  0  0  0  0  0  0  0  0  0  0  0
  -21.0107  -26.8755   22.5444 C   0  0  0  0  0  0  0  0  0  0  0  0
  -30.7954  -10.1395   21.2937 C   0  0  0  0  0  0  0  0  0  0  0  0
  -23.5055  -35.7730   25.3211 C   0  0  0  0  0  0  0  0  0  0  0  0
  -24.5473  -30.9164   19.9469 C   0  0  0  0  0  0  0  0  0  0  0  0
  -24.5202  -28.8923   22.1026 C   0  0  0  0  0  0  0  0  0  0  0  0
  -23.5587  -34.2505   25.4185 C   0  0  0  0  0  0  0  0  0  0  0  0
  -28.9261   -9.7936   18.2833 C   0  0  0  0  0  0  0  0  0  0  0  0
  -24.9131  -33.7324   24.9453 C   0  0  0  0  0  0  0  0  0  0  0  0
  -27.6271  -10.5486   18.5705 C   0  0  0  0  0  0  0  0  0  0  0  0
  -29.4398   -9.0628   19.5219 C   0  0  0  0  0  0  0  0  0  0  0  0
  -28.2976  -10.6640   21.0069 C   0  0  0  0  0  0  0  0  0  0  0  0
  -25.1577  -34.0908   23.4745 C   0  0  1  0  0  0  0  0  0  0  0  0
  -23.9427  -31.2098   21.3165 C   0  0  1  0  0  0  0  0  0  0  0  0
  -27.7704  -11.4625   19.8024 C   0  0  2  0  0  0  0  0  0  0  0  0
  -31.4307  -26.6523   20.9331 C   0  0  0  0  0  0  0  0  0  0  0  0
  -18.9434  -25.5739   23.1181 C   0  0  0  0  0  0  0  0  0  0  0  0
  -23.2209  -29.9240   25.6967 C   0  0  0  0  0  0  0  0  0  0  0  0
  -21.7505  -27.9213   26.0046 C   0  0  0  0  0  0  0  0  0  0  0  0
  -20.7521  -30.1096   25.3434 C   0  0  0  0  0  0  0  0  0  0  0  0
  -20.4827  -26.2389   19.7028 C   0  0  0  0  0  0  0  0  0  0  0  0
  -32.7272  -22.0671   19.4300 C   0  0  0  0  0  0  0  0  0  0  0  0
  -29.3064  -26.7017   18.9139 C   0  0  0  0  0  0  0  0  0  1  0  0
  -32.8530  -14.8846   21.8048 C   0  0  0  0  0  0  0  0  0  0  0  0
  -32.0451  -16.1807   21.7058 C   0  0  0  0  0  0  0  0  0  0  0  0
  -32.0349  -13.7670   22.4552 C   0  0  0  0  0  0  0  0  0  0  0  0
  -32.8521  -17.2853   21.0201 C   0  0  0  0  0  0  0  0  0  0  0  0
  -32.8313  -12.4603   22.5173 C   0  0  0  0  0  0  0  0  0  0  0  0
  -32.0643  -18.5847   20.8330 C   0  0  0  0  0  0  0  0  0  0  0  0
  -32.0229  -11.3090   23.1061 C   0  0  0  0  0  0  0  0  0  0  0  0
  -32.8817  -19.6886   20.1767 C   0  0  0  0  0  0  0  0  0  0  0  0
  -22.1069  -28.8045   23.6543 C   0  0  1  0  0  0  0  0  0  0  0  0
  -19.6567  -26.3945   22.0549 C   0  0  2  0  0  0  0  0  0  0  0  0
  -21.9782  -29.1898   25.1551 C   0  0  0  0  0  0  0  0  0  0  0  0
  -25.6150  -11.6236   20.9901 N   0  0  0  0  0  0  0  0  0  0  0  0
  -26.4726  -12.1824   20.1193 N   0  0  0  0  0  0  0  0  0  0  0  0
  -23.5471  -29.9949   22.0317 N   0  0  0  0  0  0  0  0  0  0  0  0
  -29.5546   -9.9858   20.6536 N   0  0  0  0  0  0  0  0  0  0  0  0
  -26.7860  -14.0714   18.7251 N   0  0  0  0  0  0  0  0  0  0  0  0
  -22.7680  -14.8429   20.6373 N   0  0  0  0  0  0  0  0  0  0  0  0
  -24.4142  -33.2021   22.6074 N   0  0  0  0  0  0  0  0  0  0  0  0
  -20.9336  -28.1319   23.1073 N   0  0  0  0  0  0  0  0  0  0  0  0
  -30.8186  -11.0385   22.3529 N   0  0  0  0  0  0  0  0  0  0  0  0
  -19.8161  -25.5497   20.8376 N   0  3  0  0  0  0  0  0  0  0  0  0
  -32.0525  -20.9161   20.0892 N   0  3  0  0  0  0  0  0  0  0  0  0
  -24.3166  -15.6679   19.1608 O   0  0  0  0  0  0  0  0  0  0  0  0
  -25.9510  -31.4540   22.5340 O   0  0  0  0  0  0  0  0  0  0  0  0
  -21.5216  -30.9111   22.7345 O   0  0  0  0  0  0  0  0  0  0  0  0
  -22.0339  -26.2023   22.4414 O   0  0  0  0  0  0  0  0  0  0  0  0
  -31.8088   -9.5252   20.9436 O   0  0  0  0  0  0  0  0  0  0  0  0
  -20.1765  -11.5424   24.3015 O   0  0  0  0  0  0  0  0  0  0  0  0
  -28.3664  -26.7195   19.9802 O   0  0  0  0  0  0  0  0  0  1  0  0
  -18.0093   -6.4724   24.2513 F   0  0  0  0  0  0  0  0  0  0  0  0
  -17.5497  -11.1302   23.5447 F   0  0  0  0  0  0  0  0  0  0  0  0
  1  2  1  0  0  0  0
  1  5  2  0  0  0  0
  2  6  2  0  0  0  0
  3 10  2  0  0  0  0
  3 18  1  0  0  0  0
  4 11  1  0  0  0  0
  4 18  2  0  0  0  0
  5 20  1  0  0  0  0
  6 22  1  0  0  0  0
  7 12  2  0  0  0  0
  7 21  1  0  0  0  0
  8  9  2  0  0  0  0
  8 24  1  0  0  0  0
  9 25  1  0  0  0  0
 10 27  1  0  0  0  0
 11 27  2  0  0  0  0
 12 28  1  0  0  0  0
 13 14  2  0  0  0  0
 13 29  1  0  0  0  0
 14 30  1  0  0  0  0
 15 23  1  0  0  0  0
 15 28  2  0  0  0  0
 16 24  2  0  0  0  0
 16 26  1  0  0  0  0
 17 30  2  0  0  0  0
 17 31  1  0  0  0  0
 18 32  1  0  0  0  0
 19 32  1  0  0  0  0
 19 33  2  0  0  0  0
 19 34  1  0  0  0  0
 20 22  2  0  0  0  0
 20 39  1  0  0  0  0
 21 23  2  0  0  0  0
 21 40  1  0  0  0  0
 22 48  1  0  0  0  0
 23 41  1  0  0  0  0
 24 57  1  0  0  0  0
 25 26  2  0  0  0  0
 25 58  1  0  0  0  0
 26 51  1  0  0  0  0
 27 86  1  0  0  0  0
 28 87  1  0  0  0  0
 29 31  2  0  0  0  0
 29 86  1  0  0  0  0
 30 88  1  0  0  0  0
 31 89  1  0  0  0  0
 32 70  2  0  0  0  0
 33 71  1  0  0  0  0
 33 74  1  0  0  0  0
 34 75  1  0  0  0  0
 34 81  2  0  0  0  0
 35 49  1  0  0  0  0
 35 76  1  0  0  0  0
 35 82  2  0  0  0  0
 36 67  1  0  0  0  0
 36 72  1  0  0  0  0
 36 83  2  0  0  0  0
 37 68  1  0  0  0  0
 37 77  1  0  0  0  0
 37 84  2  0  0  0  0
 38 73  1  0  0  0  0
 38 78  1  0  0  0  0
 38 85  2  0  0  0  0
 39 42  1  0  0  0  0
 40 49  1  0  0  0  0
 41 72  1  0  0  0  0
 42 44  1  0  0  0  0
 43 45  1  0  0  0  0
 43 46  1  0  0  0  0
 44 48  1  0  0  0  0
 45 50  1  0  0  0  0
 46 73  1  0  0  0  0
 47 50  1  0  0  0  0
 47 73  1  0  0  0  0
 48 76  1  0  0  0  0
 49 72  1  0  0  0  0
 50 71  1  0  0  0  0
 52 68  1  0  0  0  0
 53 69  1  0  0  0  0
 54 69  1  0  0  0  0
 55 69  1  0  0  0  0
 56 79  1  0  0  0  0
 57 80  1  0  0  0  0
 58 87  1  0  0  0  0
 59 60  1  0  0  0  0
 59 61  1  0  0  0  0
 60 62  1  0  0  0  0
 61 63  1  0  0  0  0
 62 64  1  0  0  0  0
 63 65  1  0  0  0  0
 64 66  1  0  0  0  0
 65 78  1  0  0  0  0
 66 80  1  0  0  0  0
 67 69  1  0  0  0  0
 67 77  1  0  0  0  0
 68 79  1  0  0  0  0
 70 71  1  0  0  0  0
M  CHG  2  79   1  80   1
M  ISO  4  38 100  58 101  78 100  87 101
M  END
> <Batch ID>
0035

> <Smiles>
CNC(C)C(=O)NC(C(=O)N1Cc2cc([101O:1][101CH2:1]c3ccc(CNCCCCCCCC[100NH:0][100C:0](=O)N4CCCC(n5nc(-c6ccc(Oc7ccc(F)cc7F)cc6)c(C(N)=O)c5N)C4)cc3C)ccc2CC1C(=O)NC1CCCc2ccccc21)C(C)(C)C

> <Shape>
0.272

> <Color>
0.082

> <Negative vol penalty>
0.000

$$$$

  -OEChem-04052316533D

 83 91  0     1  0  0  0  0  0999 V2000
  -17.6186  -30.2031   23.4342 C   0  0  0  0  0  0  0  0  0  0  0  0
  -18.9513  -30.3734   23.0731 C   0  0  0  0  0  0  0  0  0  0  0  0
  -25.1671  -16.3598   21.5356 C   0  0  0  0  0  0  0  0  0  0  0  0
  -25.2175  -16.0414   19.1412 C   0  0  0  0  0  0  0  0  0  0  0  0
  -17.1412  -28.9329   23.7543 C   0  0  0  0  0  0  0  0  0  0  0  0
  -19.8076  -29.2736   23.0330 C   0  0  0  0  0  0  0  0  0  0  0  0
  -24.4340  -28.3507   19.1278 C   0  0  0  0  0  0  0  0  0  0  0  0
  -32.1430  -27.7381   15.0476 C   0  0  0  0  0  0  0  0  0  0  0  0
  -23.9280  -15.7221   21.5944 C   0  0  0  0  0  0  0  0  0  0  0  0
  -23.9784  -15.4036   19.2000 C   0  0  0  0  0  0  0  0  0  0  0  0
  -25.8098  -28.5467   19.2404 C   0  0  0  0  0  0  0  0  0  0  0  0
  -20.9189  -13.8574   22.4209 C   0  0  0  0  0  0  0  0  0  0  0  0
  -20.7245  -12.9091   23.4252 C   0  0  0  0  0  0  0  0  0  0  0  0
  -32.2143  -26.5803   14.2731 C   0  0  0  0  0  0  0  0  0  0  0  0
  -26.0861  -26.2246   19.8325 C   0  0  0  0  0  0  0  0  0  0  0  0
  -32.3156  -26.4056   17.0555 C   0  0  0  0  0  0  0  0  0  0  0  0
  -22.5575  -11.6032   22.5467 C   0  0  0  0  0  0  0  0  0  0  0  0
  -25.8119  -16.5195   20.3090 C   0  0  0  0  0  0  0  0  0  0  0  0
  -28.3617  -16.5810   20.3537 C   0  0  0  0  0  0  0  0  0  0  0  0
  -17.9897  -27.8155   23.7087 C   0  0  0  0  0  0  0  0  0  0  0  0
  -23.8718  -27.0906   19.3779 C   0  0  0  0  0  0  0  0  0  0  0  0
  -19.3414  -27.9875   23.3541 C   0  0  0  0  0  0  0  0  0  0  0  0
  -24.7033  -26.0146   19.7200 C   0  0  0  0  0  0  0  0  0  0  0  0
  -32.1937  -27.6508   16.4389 C   0  0  0  0  0  0  0  0  0  0  0  0
  -32.3870  -25.2477   16.2810 C   0  0  0  0  0  0  0  0  0  0  0  0
  -23.3336  -15.2439   20.4266 C   0  0  0  0  0  0  0  0  0  0  0  0
  -26.6357  -27.4843   19.5956 C   0  0  0  0  0  0  0  0  0  0  0  0
  -21.9325  -13.6786   21.4795 C   0  0  0  0  0  0  0  0  0  0  0  0
  -21.5438  -11.7820   23.4881 C   0  0  0  0  0  0  0  0  0  0  0  0
  -22.7518  -12.5515   21.5424 C   0  0  0  0  0  0  0  0  0  0  0  0
  -32.3363  -25.3351   14.8897 C   0  0  0  0  0  0  0  0  0  0  0  0
  -27.0916  -17.1788   20.2477 C   0  0  0  0  0  0  0  0  0  0  0  0
  -29.2444  -17.6263   20.2324 C   0  0  0  0  0  0  0  0  0  0  0  0
  -28.7124  -15.2039   20.5447 C   0  0  0  0  0  0  0  0  0  0  0  0
  -21.7856  -25.9429   21.4837 C   0  0  0  0  0  0  0  0  0  0  0  0
  -22.0655  -23.2450   19.7045 C   0  0  0  0  0  0  0  0  0  0  0  0
  -23.9383  -21.3790   17.5464 C   0  0  0  0  0  0  0  0  0  0  0  0
  -30.9256  -22.1593   17.6688 C   0  0  0  0  0  0  0  0  0  0  0  0
  -17.4396  -26.4695   24.1090 C   0  0  0  0  0  0  0  0  0  0  0  0
  -22.3890  -26.8892   19.2261 C   0  0  0  0  0  0  0  0  0  0  0  0
  -24.1516  -24.6373   19.9790 C   0  0  0  0  0  0  0  0  0  0  0  0
  -18.3204  -25.2992   23.6791 C   0  0  0  0  0  0  0  0  0  0  0  0
  -28.4589  -22.6236   20.2760 C   0  0  0  0  0  0  0  0  0  0  0  0
  -19.7812  -25.5772   24.0195 C   0  0  0  0  0  0  0  0  0  0  0  0
  -27.9878  -21.1868   20.5082 C   0  0  0  0  0  0  0  0  0  0  0  0
  -28.7358  -22.8824   18.7980 C   0  0  0  0  0  0  0  0  0  0  0  0
  -29.2390  -20.5013   18.4096 C   0  0  0  0  0  0  0  0  0  0  0  0
  -20.2952  -26.8152   23.2749 C   0  0  1  0  0  0  0  0  0  0  0  0
  -21.8665  -25.6862   20.0054 C   0  0  1  0  0  0  0  0  0  0  0  0
  -28.9638  -20.1698   19.8876 C   0  0  2  0  0  0  0  0  0  0  0  0
  -23.9198  -19.2029   16.2969 C   0  0  0  0  0  0  0  0  0  0  0  0
  -22.7185  -21.7589   22.2881 C   0  0  0  0  0  0  0  0  0  0  0  0
  -23.6025  -19.8735   20.8981 C   0  0  0  0  0  0  0  0  0  0  0  0
  -21.2004  -20.5251   20.7300 C   0  0  0  0  0  0  0  0  0  0  0  0
  -24.0716  -22.7489   14.9264 C   0  0  0  0  0  0  0  0  0  0  0  0
  -32.1163  -28.9027   17.2758 C   0  0  0  0  0  0  0  0  0  0  0  0
  -32.5181  -23.9331   16.9799 C   0  0  0  0  0  0  0  0  0  0  0  0
  -30.6878  -29.3014   17.6629 C   0  0  0  0  0  0  0  0  0  0  0  0
  -29.9937  -28.2613   18.5433 C   0  0  0  0  0  0  0  0  0  0  0  0
  -28.5654  -28.6725   18.8741 C   0  0  0  0  0  0  0  0  0  1  0  0
  -22.9668  -22.0343   19.7330 C   0  0  1  0  0  0  0  0  0  0  0  0
  -23.5817  -20.6846   16.2445 C   0  0  2  0  0  0  0  0  0  0  0  0
  -22.6326  -21.0742   20.9094 C   0  0  0  0  0  0  0  0  0  0  0  0
  -27.1572  -18.5013   20.0726 N   0  0  0  0  0  0  0  0  0  0  0  0
  -28.4791  -18.7432   20.0679 N   0  0  0  0  0  0  0  0  0  0  0  0
  -22.6947  -24.4923   19.8241 N   0  0  0  0  0  0  0  0  0  0  0  0
  -29.6861  -21.8915   18.2732 N   0  0  0  0  0  0  0  0  0  0  0  0
  -30.5927  -17.6899   20.2517 N   0  0  0  0  0  0  0  0  0  0  0  0
  -27.6814  -14.2603   20.6492 N   0  0  0  0  0  0  0  0  0  0  0  0
  -20.5854  -26.4907   21.8947 N   0  0  0  0  0  0  0  0  0  0  0  0
  -22.8670  -21.4200   18.4135 N   0  0  0  0  0  0  0  0  0  0  0  0
  -31.2714  -23.5016   17.5720 N   0  0  0  0  0  0  0  0  0  0  0  0
  -24.3281  -21.2971   15.1093 N   0  3  0  0  0  0  0  0  0  0  0  0
  -29.9042  -14.8238   20.6369 O   0  0  0  0  0  0  0  0  0  0  0  0
  -22.7408  -25.6633   22.1986 O   0  0  0  0  0  0  0  0  0  0  0  0
  -20.8487  -23.0902   19.5736 O   0  0  0  0  0  0  0  0  0  0  0  0
  -25.0565  -21.8359   17.7731 O   0  0  0  0  0  0  0  0  0  0  0  0
  -31.6719  -21.2675   17.2508 O   0  0  0  0  0  0  0  0  0  0  0  0
  -22.1246  -14.6214   20.4835 O   0  0  0  0  0  0  0  0  0  0  0  0
  -27.9788  -27.6731   19.7068 O   0  0  0  0  0  0  0  0  0  1  0  0
  -21.3581  -10.8722   24.4534 F   0  0  0  0  0  0  0  0  0  0  0  0
  -23.7280  -12.3748   20.6414 F   0  0  0  0  0  0  0  0  0  0  0  0
  -32.4221  -23.9240   13.8995 Cl  0  0  0  0  0  0  0  0  0  0  0  0
  1  2  1  0  0  0  0
  1  5  2  0  0  0  0
  2  6  2  0  0  0  0
  3  9  2  0  0  0  0
  3 18  1  0  0  0  0
  4 10  1  0  0  0  0
  4 18  2  0  0  0  0
  5 20  1  0  0  0  0
  6 22  1  0  0  0  0
  7 11  2  0  0  0  0
  7 21  1  0  0  0  0
  8 14  2  0  0  0  0
  8 24  1  0  0  0  0
  9 26  1  0  0  0  0
 10 26  2  0  0  0  0
 11 27  1  0  0  0  0
 12 13  2  0  0  0  0
 12 28  1  0  0  0  0
 13 29  1  0  0  0  0
 14 31  1  0  0  0  0
 15 23  1  0  0  0  0
 15 27  2  0  0  0  0
 16 24  2  0  0  0  0
 16 25  1  0  0  0  0
 17 29  2  0  0  0  0
 17 30  1  0  0  0  0
 18 32  1  0  0  0  0
 19 32  1  0  0  0  0
 19 33  2  0  0  0  0
 19 34  1  0  0  0  0
 20 22  2  0  0  0  0
 20 39  1  0  0  0  0
 21 23  2  0  0  0  0
 21 40  1  0  0  0  0
 22 48  1  0  0  0  0
 23 41  1  0  0  0  0
 24 56  1  0  0  0  0
 25 31  2  0  0  0  0
 25 57  1  0  0  0  0
 26 79  1  0  0  0  0
 27 80  1  0  0  0  0
 28 30  2  0  0  0  0
 28 79  1  0  0  0  0
 29 81  1  0  0  0  0
 30 82  1  0  0  0  0
 31 83  1  0  0  0  0
 32 64  2  0  0  0  0
 33 65  1  0  0  0  0
 33 68  1  0  0  0  0
 34 69  1  0  0  0  0
 34 74  2  0  0  0  0
 35 49  1  0  0  0  0
 35 70  1  0  0  0  0
 35 75  2  0  0  0  0
 36 61  1  0  0  0  0
 36 66  1  0  0  0  0
 36 76  2  0  0  0  0
 37 62  1  0  0  0  0
 37 71  1  0  0  0  0
 37 77  2  0  0  0  0
 38 67  1  0  0  0  0
 38 72  1  0  0  0  0
 38 78  2  0  0  0  0
 39 42  1  0  0  0  0
 40 49  1  0  0  0  0
 41 66  1  0  0  0  0
 42 44  1  0  0  0  0
 43 45  1  0  0  0  0
 43 46  1  0  0  0  0
 44 48  1  0  0  0  0
 45 50  1  0  0  0  0
 46 67  1  0  0  0  0
 47 50  1  0  0  0  0
 47 67  1  0  0  0  0
 48 70  1  0  0  0  0
 49 66  1  0  0  0  0
 50 65  1  0  0  0  0
 51 62  1  0  0  0  0
 52 63  1  0  0  0  0
 53 63  1  0  0  0  0
 54 63  1  0  0  0  0
 55 73  1  0  0  0  0
 56 58  1  0  0  0  0
 57 72  1  0  0  0  0
 58 59  1  0  0  0  0
 59 60  1  0  0  0  0
 60 80  1  0  0  0  0
 61 63  1  0  0  0  0
 61 71  1  0  0  0  0
 62 73  1  0  0  0  0
 64 65  1  0  0  0  0
M  CHG  1  73   1
M  ISO  4  38 100  60 101  72 100  80 101
M  END
> <Batch ID>
0035

> <Smiles>
CNC(C)C(=O)NC(C(=O)N1Cc2cc([101O:1][101CH2:1]CCCc3ccc(Cl)c(C[100NH:0][100C:0](=O)N4CCCC(n5nc(-c6ccc(Oc7ccc(F)cc7F)cc6)c(C(N)=O)c5N)C4)c3)ccc2CC1C(=O)NC1CCCc2ccccc21)C(C)(C)C

> <Shape>
0.207

> <Color>
0.058

> <Negative vol penalty>
0.000

$$$$

  -OEChem-04052316533D

 84 92  0     1  0  0  0  0  0999 V2000
  -18.9377  -28.4295   25.5841 C   0  0  0  0  0  0  0  0  0  0  0  0
  -20.2584  -28.0517   25.8040 C   0  0  0  0  0  0  0  0  0  0  0  0
  -23.3033  -10.4253   22.3306 C   0  0  0  0  0  0  0  0  0  0  0  0
  -22.4155  -10.4544   20.0838 C   0  0  0  0  0  0  0  0  0  0  0  0
  -18.3608  -28.2446   24.3283 C   0  0  0  0  0  0  0  0  0  0  0  0
  -21.0027  -27.4877   24.7685 C   0  0  0  0  0  0  0  0  0  0  0  0
  -27.6995  -27.1526   22.2470 C   0  0  0  0  0  0  0  0  0  0  0  0
  -22.8664   -9.1098   22.4862 C   0  0  0  0  0  0  0  0  0  0  0  0
  -21.9786   -9.1389   20.2394 C   0  0  0  0  0  0  0  0  0  0  0  0
  -28.6581  -26.2183   21.8572 C   0  0  0  0  0  0  0  0  0  0  0  0
  -19.9596   -7.5112   23.1338 C   0  0  0  0  0  0  0  0  0  0  0  0
  -19.3119   -7.1806   24.3241 C   0  0  0  0  0  0  0  0  0  0  0  0
  -27.5817  -26.0197   19.7075 C   0  0  0  0  0  0  0  0  0  0  0  0
  -27.1775  -20.5968   20.4935 C   0  0  0  0  0  0  0  0  0  0  0  0
  -27.8724  -21.1381   18.2438 C   0  0  0  0  0  0  0  0  0  0  0  0
  -21.0162   -5.5340   24.7942 C   0  0  0  0  0  0  0  0  0  0  0  0
  -23.0778  -11.0976   21.1294 C   0  0  0  0  0  0  0  0  0  0  0  0
  -24.7770  -12.8862   20.4803 C   0  0  0  0  0  0  0  0  0  0  0  0
  -19.1015  -27.6870   23.2742 C   0  0  0  0  0  0  0  0  0  0  0  0
  -26.6667  -27.5199   21.3724 C   0  0  0  0  0  0  0  0  0  0  0  0
  -20.4349  -27.2940   23.4978 C   0  0  0  0  0  0  0  0  0  0  0  0
  -26.6127  -26.9608   20.0876 C   0  0  0  0  0  0  0  0  0  0  0  0
  -26.9617  -20.5424   19.1165 C   0  0  0  0  0  0  0  0  0  0  0  0
  -28.3039  -21.2469   20.9979 C   0  0  0  0  0  0  0  0  0  0  0  0
  -28.9988  -21.7882   18.7482 C   0  0  0  0  0  0  0  0  0  0  0  0
  -29.2145  -21.8425   20.1252 C   0  0  0  0  0  0  0  0  0  0  0  0
  -22.2041   -8.4666   21.4406 C   0  0  0  0  0  0  0  0  0  0  0  0
  -28.5977  -25.6495   20.5883 C   0  0  0  0  0  0  0  0  0  0  0  0
  -21.1356   -6.8530   22.7736 C   0  0  0  0  0  0  0  0  0  0  0  0
  -19.8402   -6.1921   25.1543 C   0  0  0  0  0  0  0  0  0  0  0  0
  -21.6639   -5.8645   23.6039 C   0  0  0  0  0  0  0  0  0  0  0  0
  -23.5283  -12.4567   20.9683 C   0  0  0  0  0  0  0  0  0  0  0  0
  -24.7096  -14.2573   20.5238 C   0  0  0  0  0  0  0  0  0  0  0  0
  -25.8976  -12.1146   20.0280 C   0  0  0  0  0  0  0  0  0  0  0  0
  -23.4960  -27.3023   21.4285 C   0  0  0  0  0  0  0  0  0  0  0  0
  -23.7178  -29.0377   18.6969 C   0  0  0  0  0  0  0  0  0  0  0  0
  -25.5956  -29.9802   16.0076 C   0  0  0  0  0  0  0  0  0  0  0  0
  -21.9520  -19.0253   19.6253 C   0  0  0  0  0  0  0  0  0  0  0  0
  -18.4203  -27.4631   21.9473 C   0  0  0  0  0  0  0  0  0  0  0  0
  -25.6558  -28.5491   21.7983 C   0  0  0  0  0  0  0  0  0  0  0  0
  -25.5360  -27.3365   19.1038 C   0  0  0  0  0  0  0  0  0  0  0  0
  -19.3928  -27.2040   20.7995 C   0  0  0  0  0  0  0  0  0  0  0  0
  -21.3122  -17.3195   22.6843 C   0  0  0  0  0  0  0  0  0  0  0  0
  -20.4487  -26.1843   21.2143 C   0  0  0  0  0  0  0  0  0  0  0  0
  -21.9290  -15.9365   22.4678 C   0  0  0  0  0  0  0  0  0  0  0  0
  -20.6800  -17.8621   21.4045 C   0  0  0  0  0  0  0  0  0  0  0  0
  -22.1910  -16.4980   20.0153 C   0  0  0  0  0  0  0  0  0  0  0  0
  -21.2824  -26.7017   22.3928 C   0  0  1  0  0  0  0  0  0  0  0  0
  -24.3509  -28.4658   21.0124 C   0  0  1  0  0  0  0  0  0  0  0  0
  -22.8901  -15.9334   21.2639 C   0  0  2  0  0  0  0  0  0  0  0  0
  -28.5123  -21.2899   22.4765 C   0  0  0  0  0  0  0  0  0  0  0  0
  -29.9589  -22.4180   17.7925 C   0  0  0  0  0  0  0  0  0  0  0  0
  -25.4929  -31.3776   13.9258 C   0  0  0  0  0  0  0  0  0  0  0  0
  -22.0168  -26.8951   17.3456 C   0  0  0  0  0  0  0  0  0  0  0  0
  -22.7366  -27.8183   15.1325 C   0  0  0  0  0  0  0  0  0  0  0  0
  -21.4338  -29.2432   16.7121 C   0  0  0  0  0  0  0  0  0  0  0  0
  -27.8167  -31.7104   16.9200 C   0  0  0  0  0  0  0  0  0  0  0  0
  -25.7572  -19.8480   18.5773 C   0  0  0  0  0  0  0  0  0  0  0  0
  -30.4335  -22.5455   20.6712 C   0  0  0  0  0  0  0  0  0  0  0  0
  -24.5195  -20.7521   18.4129 C   0  0  0  0  0  0  0  0  0  0  0  0
  -23.3033  -20.0496   17.8131 C   0  0  0  0  0  0  0  0  0  0  0  0
  -30.1052  -23.9257   21.2301 C   0  0  0  0  0  0  0  0  0  1  0  0
  -23.8503  -28.7092   17.2294 C   0  0  1  0  0  0  0  0  0  0  0  0
  -25.8700  -31.3434   15.3986 C   0  0  2  0  0  0  0  0  0  0  0  0
  -22.5287  -28.1577   16.6239 C   0  0  0  0  0  0  0  0  0  0  0  0
  -22.7264  -13.4728   21.2979 N   0  0  0  0  0  0  0  0  0  0  0  0
  -23.4729  -14.5542   21.0165 N   0  0  0  0  0  0  0  0  0  0  0  0
  -24.5670  -28.3424   19.5694 N   0  0  0  0  0  0  0  0  0  0  0  0
  -21.6441  -17.8335   20.3019 N   0  0  0  0  0  0  0  0  0  0  0  0
  -25.5881  -15.2259   20.1885 N   0  0  0  0  0  0  0  0  0  0  0  0
  -25.7988  -10.7167   20.0497 N   0  0  0  0  0  0  0  0  0  0  0  0
  -22.2622  -27.6634   21.9350 N   0  0  0  0  0  0  0  0  0  0  0  0
  -24.3440  -29.9203   16.5830 N   0  0  0  0  0  0  0  0  0  0  0  0
  -22.8799  -18.9109   18.5974 N   0  0  0  0  0  0  0  0  0  0  0  0
  -27.3155  -31.6843   15.5217 N   0  3  0  0  0  0  0  0  0  0  0  0
  -26.9614  -12.6488   19.6321 O   0  0  0  0  0  0  0  0  0  0  0  0
  -23.9236  -26.1613   21.2981 O   0  0  0  0  0  0  0  0  0  0  0  0
  -22.8963  -29.8853   19.0551 O   0  0  0  0  0  0  0  0  0  0  0  0
  -26.4088  -29.0592   15.9728 O   0  0  0  0  0  0  0  0  0  0  0  0
  -21.4420  -20.1118   19.9192 O   0  0  0  0  0  0  0  0  0  0  0  0
  -21.7778   -7.1829   21.5919 O   0  0  0  0  0  0  0  0  0  0  0  0
  -29.5317  -24.7369   20.2056 O   0  0  0  0  0  0  0  0  0  1  0  0
  -19.2190   -5.8759   26.2981 F   0  0  0  0  0  0  0  0  0  0  0  0
  -22.7940   -5.2296   23.2638 F   0  0  0  0  0  0  0  0  0  0  0  0
  1  2  1  0  0  0  0
  1  5  2  0  0  0  0
  2  6  2  0  0  0  0
  3  8  2  0  0  0  0
  3 17  1  0  0  0  0
  4  9  1  0  0  0  0
  4 17  2  0  0  0  0
  5 19  1  0  0  0  0
  6 21  1  0  0  0  0
  7 10  2  0  0  0  0
  7 20  1  0  0  0  0
  8 27  1  0  0  0  0
  9 27  2  0  0  0  0
 10 28  1  0  0  0  0
 11 12  2  0  0  0  0
 11 29  1  0  0  0  0
 12 30  1  0  0  0  0
 13 22  1  0  0  0  0
 13 28  2  0  0  0  0
 14 23  1  0  0  0  0
 14 24  2  0  0  0  0
 15 23  2  0  0  0  0
 15 25  1  0  0  0  0
 16 30  2  0  0  0  0
 16 31  1  0  0  0  0
 17 32  1  0  0  0  0
 18 32  1  0  0  0  0
 18 33  2  0  0  0  0
 18 34  1  0  0  0  0
 19 21  2  0  0  0  0
 19 39  1  0  0  0  0
 20 22  2  0  0  0  0
 20 40  1  0  0  0  0
 21 48  1  0  0  0  0
 22 41  1  0  0  0  0
 23 58  1  0  0  0  0
 24 26  1  0  0  0  0
 24 51  1  0  0  0  0
 25 26  2  0  0  0  0
 25 52  1  0  0  0  0
 26 59  1  0  0  0  0
 27 81  1  0  0  0  0
 28 82  1  0  0  0  0
 29 31  2  0  0  0  0
 29 81  1  0  0  0  0
 30 83  1  0  0  0  0
 31 84  1  0  0  0  0
 32 66  2  0  0  0  0
 33 67  1  0  0  0  0
 33 70  1  0  0  0  0
 34 71  1  0  0  0  0
 34 76  2  0  0  0  0
 35 49  1  0  0  0  0
 35 72  1  0  0  0  0
 35 77  2  0  0  0  0
 36 63  1  0  0  0  0
 36 68  1  0  0  0  0
 36 78  2  0  0  0  0
 37 64  1  0  0  0  0
 37 73  1  0  0  0  0
 37 79  2  0  0  0  0
 38 69  1  0  0  0  0
 38 74  1  0  0  0  0
 38 80  2  0  0  0  0
 39 42  1  0  0  0  0
 40 49  1  0  0  0  0
 41 68  1  0  0  0  0
 42 44  1  0  0  0  0
 43 45  1  0  0  0  0
 43 46  1  0  0  0  0
 44 48  1  0  0  0  0
 45 50  1  0  0  0  0
 46 69  1  0  0  0  0
 47 50  1  0  0  0  0
 47 69  1  0  0  0  0
 48 72  1  0  0  0  0
 49 68  1  0  0  0  0
 50 67  1  0  0  0  0
 53 64  1  0  0  0  0
 54 65  1  0  0  0  0
 55 65  1  0  0  0  0
 56 65  1  0  0  0  0
 57 75  1  0  0  0  0
 58 60  1  0  0  0  0
 59 62  1  0  0  0  0
 60 61  1  0  0  0  0
 61 74  1  0  0  0  0
 62 82  1  0  0  0  0
 63 65  1  0  0  0  0
 63 73  1  0  0  0  0
 64 75  1  0  0  0  0
 66 67  1  0  0  0  0
M  CHG  1  75   1
M  ISO  4  38 100  62 101  74 100  82 101
M  END
> <Batch ID>
0035

> <Smiles>
CNC(C)C(=O)NC(C(=O)N1Cc2cc([101O:1][101CH2:1]Cc3c(C)cc(CCC[100NH:0][100C:0](=O)N4CCCC(n5nc(-c6ccc(Oc7ccc(F)cc7F)cc6)c(C(N)=O)c5N)C4)cc3C)ccc2CC1C(=O)NC1CCCc2ccccc21)C(C)(C)C

> <Shape>
0.246

> <Color>
0.099

> <Negative vol penalty>
0.000

$$$$

  -OEChem-04052316533D

 83 91  0     1  0  0  0  0  0999 V2000
  -29.5796  -32.7840   21.0746 C   0  0  0  0  0  0  0  0  0  0  0  0
  -29.3240  -31.4353   21.3006 C   0  0  0  0  0  0  0  0  0  0  0  0
  -22.9064  -10.0939   19.9813 C   0  0  0  0  0  0  0  0  0  0  0  0
  -24.0517   -9.4462   22.0077 C   0  0  0  0  0  0  0  0  0  0  0  0
  -28.5851  -33.7308   21.3162 C   0  0  0  0  0  0  0  0  0  0  0  0
  -28.0740  -31.0328   21.7695 C   0  0  0  0  0  0  0  0  0  0  0  0
  -26.2845  -26.9878   19.3036 C   0  0  0  0  0  0  0  0  0  0  0  0
  -22.1641   -8.9138   20.0237 C   0  0  0  0  0  0  0  0  0  0  0  0
  -23.3093   -8.2661   22.0501 C   0  0  0  0  0  0  0  0  0  0  0  0
  -26.8086  -25.7445   19.6550 C   0  0  0  0  0  0  0  0  0  0  0  0
  -19.4779   -7.7193   21.6943 C   0  0  0  0  0  0  0  0  0  0  0  0
  -18.1060   -7.8077   21.4585 C   0  0  0  0  0  0  0  0  0  0  0  0
  -24.8628  -25.3153   21.0146 C   0  0  0  0  0  0  0  0  0  0  0  0
  -28.4993  -19.6034   20.3457 C   0  0  0  0  0  0  0  0  0  0  0  0
  -29.0406  -20.4983   22.5235 C   0  0  0  0  0  0  0  0  0  0  0  0
  -18.3368   -6.3286   19.5621 C   0  0  0  0  0  0  0  0  0  0  0  0
  -23.8503  -10.3601   20.9733 C   0  0  0  0  0  0  0  0  0  0  0  0
  -24.2838  -12.8152   21.5140 C   0  0  0  0  0  0  0  0  0  0  0  0
  -27.3192  -33.3388   21.7791 C   0  0  0  0  0  0  0  0  0  0  0  0
  -25.0486  -27.4093   19.8145 C   0  0  0  0  0  0  0  0  0  0  0  0
  -27.0620  -31.9754   22.0188 C   0  0  0  0  0  0  0  0  0  0  0  0
  -24.3240  -26.5632   20.6661 C   0  0  0  0  0  0  0  0  0  0  0  0
  -28.9436  -19.4120   21.6540 C   0  0  0  0  0  0  0  0  0  0  0  0
  -28.1522  -20.8811   19.9069 C   0  0  0  0  0  0  0  0  0  0  0  0
  -28.6935  -21.7761   22.0848 C   0  0  0  0  0  0  0  0  0  0  0  0
  -28.2493  -21.9675   20.7764 C   0  0  0  0  0  0  0  0  0  0  0  0
  -22.3655   -7.9999   21.0581 C   0  0  0  0  0  0  0  0  0  0  0  0
  -26.0991  -24.9093   20.5129 C   0  0  0  0  0  0  0  0  0  0  0  0
  -20.2793   -6.9357   20.8640 C   0  0  0  0  0  0  0  0  0  0  0  0
  -17.5354   -7.1123   20.3924 C   0  0  0  0  0  0  0  0  0  0  0  0
  -19.7087   -6.2403   19.7979 C   0  0  0  0  0  0  0  0  0  0  0  0
  -24.6179  -11.5787   20.9298 C   0  0  0  0  0  0  0  0  0  0  0  0
  -25.3302  -13.6429   21.1881 C   0  0  0  0  0  0  0  0  0  0  0  0
  -23.1306  -13.1826   22.2827 C   0  0  0  0  0  0  0  0  0  0  0  0
  -24.0839  -29.8199   21.6482 C   0  0  0  0  0  0  0  0  0  0  0  0
  -21.1365  -28.6575   20.9527 C   0  0  0  0  0  0  0  0  0  0  0  0
  -19.2215  -25.9981   20.0001 C   0  0  0  0  0  0  0  0  0  0  0  0
  -30.8052  -14.5927   20.6704 C   0  0  0  0  0  0  0  0  0  0  0  0
  -26.2913  -34.4032   22.0709 C   0  0  0  0  0  0  0  0  0  0  0  0
  -24.4845  -28.7421   19.4046 C   0  0  0  0  0  0  0  0  0  0  0  0
  -22.9833  -26.9604   21.2258 C   0  0  0  0  0  0  0  0  0  0  0  0
  -24.8723  -33.8577   22.2102 C   0  0  0  0  0  0  0  0  0  0  0  0
  -29.1611  -12.9877   17.9506 C   0  0  0  0  0  0  0  0  0  0  0  0
  -24.8606  -32.6227   23.1053 C   0  0  0  0  0  0  0  0  0  0  0  0
  -27.8083  -12.5749   18.5331 C   0  0  0  0  0  0  0  0  0  0  0  0
  -30.2818  -12.8593   18.9800 C   0  0  0  0  0  0  0  0  0  0  0  0
  -28.6853  -13.1520   20.8345 C   0  0  0  0  0  0  0  0  0  0  0  0
  -25.7106  -31.4971   22.5035 C   0  0  1  0  0  0  0  0  0  0  0  0
  -23.4563  -29.2850   20.3922 C   0  0  1  0  0  0  0  0  0  0  0  0
  -27.5147  -13.3178   19.8503 C   0  0  2  0  0  0  0  0  0  0  0  0
  -27.6783  -21.0590   18.5014 C   0  0  0  0  0  0  0  0  0  0  0  0
  -28.8062  -22.9228   23.0356 C   0  0  0  0  0  0  0  0  0  0  0  0
  -16.8400  -25.3447   19.5542 C   0  0  0  0  0  0  0  0  0  0  0  0
  -20.6037  -28.5595   23.9555 C   0  0  0  0  0  0  0  0  0  0  0  0
  -18.6587  -27.0530   23.4907 C   0  0  0  0  0  0  0  0  0  0  0  0
  -18.6805  -29.3756   22.5808 C   0  0  0  0  0  0  0  0  0  0  0  0
  -19.8127  -25.3238   17.1797 C   0  0  0  0  0  0  0  0  0  0  0  0
  -29.3153  -18.0460   22.1229 C   0  0  0  0  0  0  0  0  0  0  0  0
  -27.8754  -23.3417   20.3043 C   0  0  0  0  0  0  0  0  0  1  0  0
  -30.7964  -17.6778   21.9057 C   0  0  0  0  0  0  0  0  0  0  0  0
  -31.1848  -16.2981   22.4330 C   0  0  0  0  0  0  0  0  0  0  0  0
  -20.2156  -27.6363   21.5757 C   0  0  1  0  0  0  0  0  0  0  0  0
  -18.1346  -25.8647   18.9488 C   0  0  2  0  0  0  0  0  0  0  0  0
  -19.5658  -28.1491   22.8918 C   0  0  0  0  0  0  0  0  0  0  0  0
  -25.7852  -11.6133   20.2816 N   0  0  0  0  0  0  0  0  0  0  0  0
  -26.1938  -12.8816   20.4566 N   0  0  0  0  0  0  0  0  0  0  0  0
  -22.4770  -28.2758   20.8005 N   0  0  0  0  0  0  0  0  0  0  0  0
  -29.9417  -13.5875   20.2047 N   0  0  0  0  0  0  0  0  0  0  0  0
  -25.5868  -14.9403   21.4586 N   0  0  0  0  0  0  0  0  0  0  0  0
  -22.1511  -12.2098   22.5245 N   0  0  0  0  0  0  0  0  0  0  0  0
  -24.9926  -30.8385   21.4334 N   0  0  0  0  0  0  0  0  0  0  0  0
  -19.2565  -27.2661   20.5405 N   0  0  0  0  0  0  0  0  0  0  0  0
  -30.4051  -15.2378   21.8343 N   0  0  0  0  0  0  0  0  0  0  0  0
  -18.5637  -24.9227   17.8767 N   0  3  0  0  0  0  0  0  0  0  0  0
  -22.9656  -14.3438   22.7276 O   0  0  0  0  0  0  0  0  0  0  0  0
  -23.7661  -29.3447   22.7321 O   0  0  0  0  0  0  0  0  0  0  0  0
  -20.6816  -29.7508   20.6071 O   0  0  0  0  0  0  0  0  0  0  0  0
  -19.9628  -25.0691   20.3134 O   0  0  0  0  0  0  0  0  0  0  0  0
  -31.8523  -14.8967   20.0890 O   0  0  0  0  0  0  0  0  0  0  0  0
  -21.6411   -6.8483   21.0999 O   0  0  0  0  0  0  0  0  0  0  0  0
  -26.6087  -23.6956   20.8580 O   0  0  0  0  0  0  0  0  0  1  0  0
  -16.2177   -7.1960   20.1670 F   0  0  0  0  0  0  0  0  0  0  0  0
  -20.4733   -5.4849   18.9975 F   0  0  0  0  0  0  0  0  0  0  0  0
  1  2  1  0  0  0  0
  1  5  2  0  0  0  0
  2  6  2  0  0  0  0
  3  8  2  0  0  0  0
  3 17  1  0  0  0  0
  4  9  1  0  0  0  0
  4 17  2  0  0  0  0
  5 19  1  0  0  0  0
  6 21  1  0  0  0  0
  7 10  2  0  0  0  0
  7 20  1  0  0  0  0
  8 27  1  0  0  0  0
  9 27  2  0  0  0  0
 10 28  1  0  0  0  0
 11 12  2  0  0  0  0
 11 29  1  0  0  0  0
 12 30  1  0  0  0  0
 13 22  1  0  0  0  0
 13 28  2  0  0  0  0
 14 23  1  0  0  0  0
 14 24  2  0  0  0  0
 15 23  2  0  0  0  0
 15 25  1  0  0  0  0
 16 30  2  0  0  0  0
 16 31  1  0  0  0  0
 17 32  1  0  0  0  0
 18 32  1  0  0  0  0
 18 33  2  0  0  0  0
 18 34  1  0  0  0  0
 19 21  2  0  0  0  0
 19 39  1  0  0  0  0
 20 22  2  0  0  0  0
 20 40  1  0  0  0  0
 21 48  1  0  0  0  0
 22 41  1  0  0  0  0
 23 58  1  0  0  0  0
 24 26  1  0  0  0  0
 24 51  1  0  0  0  0
 25 26  2  0  0  0  0
 25 52  1  0  0  0  0
 26 59  1  0  0  0  0
 27 80  1  0  0  0  0
 28 81  1  0  0  0  0
 29 31  2  0  0  0  0
 29 80  1  0  0  0  0
 30 82  1  0  0  0  0
 31 83  1  0  0  0  0
 32 65  2  0  0  0  0
 33 66  1  0  0  0  0
 33 69  1  0  0  0  0
 34 70  1  0  0  0  0
 34 75  2  0  0  0  0
 35 49  1  0  0  0  0
 35 71  1  0  0  0  0
 35 76  2  0  0  0  0
 36 62  1  0  0  0  0
 36 67  1  0  0  0  0
 36 77  2  0  0  0  0
 37 63  1  0  0  0  0
 37 72  1  0  0  0  0
 37 78  2  0  0  0  0
 38 68  1  0  0  0  0
 38 73  1  0  0  0  0
 38 79  2  0  0  0  0
 39 42  1  0  0  0  0
 40 49  1  0  0  0  0
 41 67  1  0  0  0  0
 42 44  1  0  0  0  0
 43 45  1  0  0  0  0
 43 46  1  0  0  0  0
 44 48  1  0  0  0  0
 45 50  1  0  0  0  0
 46 68  1  0  0  0  0
 47 50  1  0  0  0  0
 47 68  1  0  0  0  0
 48 71  1  0  0  0  0
 49 67  1  0  0  0  0
 50 66  1  0  0  0  0
 53 63  1  0  0  0  0
 54 64  1  0  0  0  0
 55 64  1  0  0  0  0
 56 64  1  0  0  0  0
 57 74  1  0  0  0  0
 58 60  1  0  0  0  0
 59 81  1  0  0  0  0
 60 61  1  0  0  0  0
 61 73  1  0  0  0  0
 62 64  1  0  0  0  0
 62 72  1  0  0  0  0
 63 74  1  0  0  0  0
 65 66  1  0  0  0  0
M  CHG  1  74   1
M  ISO  4  38 100  59 101  73 100  81 101
M  END
> <Batch ID>
0035

> <Smiles>
CNC(C)C(=O)NC(C(=O)N1Cc2cc([101O:1][101CH2:1]c3c(C)cc(CCC[100NH:0][100C:0](=O)N4CCCC(n5nc(-c6ccc(Oc7ccc(F)cc7F)cc6)c(C(N)=O)c5N)C4)cc3C)ccc2CC1C(=O)NC1CCCc2ccccc21)C(C)(C)C

> <Shape>
0.329

> <Color>
0.152

> <Negative vol penalty>
0.000

$$$$

  -OEChem-04052316533D

 83 91  0     1  0  0  0  0  0999 V2000
  -29.4026  -23.8641   29.8757 C   0  0  0  0  0  0  0  0  0  0  0  0
  -29.4139  -23.3489   28.5834 C   0  0  0  0  0  0  0  0  0  0  0  0
  -23.1732   -9.7739   19.9926 C   0  0  0  0  0  0  0  0  0  0  0  0
  -23.8307   -9.9535   22.3105 C   0  0  0  0  0  0  0  0  0  0  0  0
  -28.2892  -24.5664   30.3352 C   0  0  0  0  0  0  0  0  0  0  0  0
  -28.3113  -23.5349   27.7502 C   0  0  0  0  0  0  0  0  0  0  0  0
  -29.6309  -24.9256   23.0631 C   0  0  0  0  0  0  0  0  0  0  0  0
  -22.4636   -8.6090   20.2841 C   0  0  0  0  0  0  0  0  0  0  0  0
  -23.1210   -8.7885   22.6020 C   0  0  0  0  0  0  0  0  0  0  0  0
  -30.0977  -23.9265   22.2101 C   0  0  0  0  0  0  0  0  0  0  0  0
  -20.1814   -5.7866   20.4869 C   0  0  0  0  0  0  0  0  0  0  0  0
  -18.9013   -5.6553   19.9489 C   0  0  0  0  0  0  0  0  0  0  0  0
  -27.9260  -23.8110   21.1664 C   0  0  0  0  0  0  0  0  0  0  0  0
  -28.1188  -19.9862   22.6905 C   0  0  0  0  0  0  0  0  0  0  0  0
  -18.2049   -7.6513   21.1186 C   0  0  0  0  0  0  0  0  0  0  0  0
  -23.8568  -10.4461   21.0058 C   0  0  0  0  0  0  0  0  0  0  0  0
  -24.1070  -12.9709   20.7401 C   0  0  0  0  0  0  0  0  0  0  0  0
  -27.1764  -24.7694   29.5040 C   0  0  0  0  0  0  0  0  0  0  0  0
  -28.3027  -25.3681   22.9812 C   0  0  0  0  0  0  0  0  0  0  0  0
  -27.1815  -24.2395   28.1995 C   0  0  0  0  0  0  0  0  0  0  0  0
  -27.4454  -24.8177   22.0177 C   0  0  0  0  0  0  0  0  0  0  0  0
  -28.9884  -19.1807   21.9636 C   0  0  0  0  0  0  0  0  0  0  0  0
  -29.6057  -18.0989   22.5816 C   0  0  0  0  0  0  0  0  0  0  0  0
  -22.4375   -8.1163   21.5888 C   0  0  0  0  0  0  0  0  0  0  0  0
  -29.2445  -23.3670   21.2636 C   0  0  0  0  0  0  0  0  0  0  0  0
  -20.4733   -6.8503   21.3409 C   0  0  0  0  0  0  0  0  0  0  0  0
  -17.9130   -6.5876   20.2647 C   0  0  0  0  0  0  0  0  0  0  0  0
  -19.4850   -7.7826   21.6567 C   0  0  0  0  0  0  0  0  0  0  0  0
  -24.5905  -11.6492   20.7052 C   0  0  0  0  0  0  0  0  0  0  0  0
  -27.9019  -19.6699   24.0220 C   0  0  0  0  0  0  0  0  0  0  0  0
  -29.3224  -17.8672   23.9180 C   0  0  0  0  0  0  0  0  0  0  0  0
  -25.1847  -13.7405   20.3757 C   0  0  0  0  0  0  0  0  0  0  0  0
  -22.8006  -13.4593   21.0724 C   0  0  0  0  0  0  0  0  0  0  0  0
  -25.8153  -25.3768   24.9603 C   0  0  0  0  0  0  0  0  0  0  0  0
  -24.4292  -27.0995   22.5868 C   0  0  0  0  0  0  0  0  0  0  0  0
  -24.3330  -27.9132   19.2739 C   0  0  0  0  0  0  0  0  0  0  0  0
  -30.6120  -14.9923   20.7265 C   0  0  0  0  0  0  0  0  0  0  0  0
  -25.9768  -25.4943   30.0610 C   0  0  0  0  0  0  0  0  0  0  0  0
  -27.8220  -26.4655   23.8906 C   0  0  0  0  0  0  0  0  0  0  0  0
  -26.0165  -25.2719   21.8756 C   0  0  0  0  0  0  0  0  0  0  0  0
  -25.0007  -25.9705   28.9884 C   0  0  0  0  0  0  0  0  0  0  0  0
  -29.6723  -12.4205   18.4507 C   0  0  0  0  0  0  0  0  0  0  0  0
  -24.7285  -24.8570   27.9820 C   0  0  0  0  0  0  0  0  0  0  0  0
  -28.2294  -12.0956   18.8413 C   0  0  0  0  0  0  0  0  0  0  0  0
  -30.5266  -12.7523   19.6722 C   0  0  0  0  0  0  0  0  0  0  0  0
  -28.5392  -13.4894   20.9294 C   0  0  0  0  0  0  0  0  0  0  0  0
  -26.0146  -24.4418   27.2574 C   0  0  1  0  0  0  0  0  0  0  0  0
  -26.3063  -26.4776   24.0631 C   0  0  1  0  0  0  0  0  0  0  0  0
  -27.6251  -13.2028   19.7258 C   0  0  2  0  0  0  0  0  0  0  0  0
  -26.9739  -20.5116   24.8326 C   0  0  0  0  0  0  0  0  0  0  0  0
  -29.9539  -16.7194   24.6359 C   0  0  0  0  0  0  0  0  0  0  0  0
  -23.0659  -29.3201   17.6270 C   0  0  0  0  0  0  0  0  0  0  0  0
  -22.1360  -25.0874   22.6360 C   0  0  0  0  0  0  0  0  0  0  0  0
  -21.4122  -25.9630   20.4049 C   0  0  0  0  0  0  0  0  0  0  0  0
  -21.4258  -27.4727   22.3907 C   0  0  0  0  0  0  0  0  0  0  0  0
  -26.7465  -29.4782   18.5777 C   0  0  0  0  0  0  0  0  0  0  0  0
  -29.2459  -19.5024   20.5132 C   0  0  0  0  0  0  0  0  0  0  0  0
  -30.5412  -17.2160   21.8262 C   0  0  0  0  0  0  0  0  0  0  0  0
  -30.5978  -20.1736   20.2618 C   0  0  0  0  0  0  0  0  0  0  0  0
  -30.7276  -21.5383   20.9282 C   0  0  0  0  0  0  0  0  0  1  0  0
  -23.6216  -26.7665   21.3556 C   0  0  1  0  0  0  0  0  0  0  0  0
  -24.2588  -29.2551   18.5680 C   0  0  2  0  0  0  0  0  0  0  0  0
  -22.1752  -26.3123   21.7005 C   0  0  0  0  0  0  0  0  0  0  0  0
  -25.8753  -11.5795   20.3467 N   0  0  0  0  0  0  0  0  0  0  0  0
  -28.4833  -18.6275   24.6567 N   0  0  0  0  0  0  0  0  0  0  0  0
  -26.2082  -12.8670   20.1530 N   0  0  0  0  0  0  0  0  0  0  0  0
  -25.5917  -26.3431   22.7920 N   0  0  0  0  0  0  0  0  0  0  0  0
  -29.8988  -13.8103   20.4675 N   0  0  0  0  0  0  0  0  0  0  0  0
  -25.3472  -15.0724   20.2272 N   0  0  0  0  0  0  0  0  0  0  0  0
  -21.8102  -12.5321   21.4243 N   0  0  0  0  0  0  0  0  0  0  0  0
  -26.3519  -25.4071   26.2333 N   0  0  0  0  0  0  0  0  0  0  0  0
  -23.6894  -27.9411   20.4930 N   0  0  0  0  0  0  0  0  0  0  0  0
  -29.9413  -15.9461   21.4824 N   0  0  0  0  0  0  0  0  0  0  0  0
  -25.4974  -29.4917   17.7737 N   0  3  0  0  0  0  0  0  0  0  0  0
  -22.5152  -14.6804   21.0417 O   0  0  0  0  0  0  0  0  0  0  0  0
  -25.0083  -24.5613   24.5299 O   0  0  0  0  0  0  0  0  0  0  0  0
  -24.0465  -28.0025   23.3350 O   0  0  0  0  0  0  0  0  0  0  0  0
  -24.9017  -26.9367   18.7904 O   0  0  0  0  0  0  0  0  0  0  0  0
  -31.7593  -15.1857   20.3103 O   0  0  0  0  0  0  0  0  0  0  0  0
  -21.7450   -6.9797   21.8737 O   0  0  0  0  0  0  0  0  0  0  0  0
  -29.6975  -22.3911   20.4303 O   0  0  0  0  0  0  0  0  0  1  0  0
  -16.6841   -6.4622   19.7467 F   0  0  0  0  0  0  0  0  0  0  0  0
  -19.7598   -8.8072   22.4755 F   0  0  0  0  0  0  0  0  0  0  0  0
  1  2  1  0  0  0  0
  1  5  2  0  0  0  0
  2  6  2  0  0  0  0
  3  8  2  0  0  0  0
  3 16  1  0  0  0  0
  4  9  1  0  0  0  0
  4 16  2  0  0  0  0
  5 18  1  0  0  0  0
  6 20  1  0  0  0  0
  7 10  2  0  0  0  0
  7 19  1  0  0  0  0
  8 24  1  0  0  0  0
  9 24  2  0  0  0  0
 10 25  1  0  0  0  0
 11 12  2  0  0  0  0
 11 26  1  0  0  0  0
 12 27  1  0  0  0  0
 13 21  1  0  0  0  0
 13 25  2  0  0  0  0
 14 22  1  0  0  0  0
 14 30  2  0  0  0  0
 15 27  2  0  0  0  0
 15 28  1  0  0  0  0
 16 29  1  0  0  0  0
 17 29  1  0  0  0  0
 17 32  2  0  0  0  0
 17 33  1  0  0  0  0
 18 20  2  0  0  0  0
 18 38  1  0  0  0  0
 19 21  2  0  0  0  0
 19 39  1  0  0  0  0
 20 47  1  0  0  0  0
 21 40  1  0  0  0  0
 22 23  2  0  0  0  0
 22 57  1  0  0  0  0
 23 31  1  0  0  0  0
 23 58  1  0  0  0  0
 24 80  1  0  0  0  0
 25 81  1  0  0  0  0
 26 28  2  0  0  0  0
 26 80  1  0  0  0  0
 27 82  1  0  0  0  0
 28 83  1  0  0  0  0
 29 64  2  0  0  0  0
 30 50  1  0  0  0  0
 30 65  1  0  0  0  0
 31 51  1  0  0  0  0
 31 65  2  0  0  0  0
 32 66  1  0  0  0  0
 32 69  1  0  0  0  0
 33 70  1  0  0  0  0
 33 75  2  0  0  0  0
 34 48  1  0  0  0  0
 34 71  1  0  0  0  0
 34 76  2  0  0  0  0
 35 61  1  0  0  0  0
 35 67  1  0  0  0  0
 35 77  2  0  0  0  0
 36 62  1  0  0  0  0
 36 72  1  0  0  0  0
 36 78  2  0  0  0  0
 37 68  1  0  0  0  0
 37 73  1  0  0  0  0
 37 79  2  0  0  0  0
 38 41  1  0  0  0  0
 39 48  1  0  0  0  0
 40 67  1  0  0  0  0
 41 43  1  0  0  0  0
 42 44  1  0  0  0  0
 42 45  1  0  0  0  0
 43 47  1  0  0  0  0
 44 49  1  0  0  0  0
 45 68  1  0  0  0  0
 46 49  1  0  0  0  0
 46 68  1  0  0  0  0
 47 71  1  0  0  0  0
 48 67  1  0  0  0  0
 49 66  1  0  0  0  0
 52 62  1  0  0  0  0
 53 63  1  0  0  0  0
 54 63  1  0  0  0  0
 55 63  1  0  0  0  0
 56 74  1  0  0  0  0
 57 59  1  0  0  0  0
 58 73  1  0  0  0  0
 59 60  1  0  0  0  0
 60 81  1  0  0  0  0
 61 63  1  0  0  0  0
 61 72  1  0  0  0  0
 62 74  1  0  0  0  0
 64 66  1  0  0  0  0
M  CHG  1  74   1
M  ISO  4  37 100  60 101  73 100  81 101
M  END
> <Batch ID>
0035

> <Smiles>
CNC(C)C(=O)NC(C(=O)N1Cc2cc([101O:1][101CH2:1]CCc3cc(C)nc(C)c3C[100NH:0][100C:0](=O)N3CCCC(n4nc(-c5ccc(Oc6ccc(F)cc6F)cc5)c(C(N)=O)c4N)C3)ccc2CC1C(=O)NC1CCCc2ccccc21)C(C)(C)C

> <Shape>
0.215

> <Color>
0.199

> <Negative vol penalty>
0.000

$$$$

  -OEChem-04052316533D

 88 96  0     1  0  0  0  0  0999 V2000
  -34.5836  -17.4692   29.3863 C   0  0  0  0  0  0  0  0  0  0  0  0
  -33.7295  -17.5512   28.2912 C   0  0  0  0  0  0  0  0  0  0  0  0
  -23.2885   -9.7989   19.9143 C   0  0  0  0  0  0  0  0  0  0  0  0
  -23.7391   -9.9413   22.2836 C   0  0  0  0  0  0  0  0  0  0  0  0
  -34.5158  -18.4292   30.3952 C   0  0  0  0  0  0  0  0  0  0  0  0
  -32.8063  -18.5926   28.2049 C   0  0  0  0  0  0  0  0  0  0  0  0
  -30.9191  -21.4269   23.1146 C   0  0  0  0  0  0  0  0  0  0  0  0
  -22.5620   -8.6266   20.1229 C   0  0  0  0  0  0  0  0  0  0  0  0
  -23.0126   -8.7690   22.4922 C   0  0  0  0  0  0  0  0  0  0  0  0
  -29.7824  -21.2734   22.3221 C   0  0  0  0  0  0  0  0  0  0  0  0
  -19.7655   -7.8583   22.7100 C   0  0  0  0  0  0  0  0  0  0  0  0
  -18.8630   -7.8375   23.7734 C   0  0  0  0  0  0  0  0  0  0  0  0
  -28.7187  -23.0853   23.5074 C   0  0  0  0  0  0  0  0  0  0  0  0
  -24.5680  -18.5090   23.5258 C   0  0  0  0  0  0  0  0  0  0  0  0
  -26.3352  -19.9099   24.3616 C   0  0  0  0  0  0  0  0  0  0  0  0
  -20.0686   -5.9910   24.7604 C   0  0  0  0  0  0  0  0  0  0  0  0
  -23.8771  -10.4562   20.9947 C   0  0  0  0  0  0  0  0  0  0  0  0
  -24.1366  -12.9861   20.7941 C   0  0  0  0  0  0  0  0  0  0  0  0
  -33.5979  -19.4884   30.3164 C   0  0  0  0  0  0  0  0  0  0  0  0
  -30.9601  -22.4052   24.1184 C   0  0  0  0  0  0  0  0  0  0  0  0
  -32.7253  -19.5669   29.2143 C   0  0  0  0  0  0  0  0  0  0  0  0
  -29.8581  -23.2509   24.3096 C   0  0  0  0  0  0  0  0  0  0  0  0
  -25.3091  -19.6830   23.4512 C   0  0  0  0  0  0  0  0  0  0  0  0
  -22.4240   -8.1116   21.4118 C   0  0  0  0  0  0  0  0  0  0  0  0
  -28.6809  -22.1007   22.5203 C   0  0  0  0  0  0  0  0  0  0  0  0
  -20.8194   -6.9454   22.6718 C   0  0  0  0  0  0  0  0  0  0  0  0
  -19.0145   -6.9038   24.7985 C   0  0  0  0  0  0  0  0  0  0  0  0
  -20.9710   -6.0118   23.6970 C   0  0  0  0  0  0  0  0  0  0  0  0
  -24.6281  -11.6670   20.7798 C   0  0  0  0  0  0  0  0  0  0  0  0
  -24.8901  -17.6009   24.5215 C   0  0  0  0  0  0  0  0  0  0  0  0
  -26.5781  -18.9392   25.3200 C   0  0  0  0  0  0  0  0  0  0  0  0
  -25.2381  -13.7657   20.5386 C   0  0  0  0  0  0  0  0  0  0  0  0
  -22.8036  -13.4639   21.0184 C   0  0  0  0  0  0  0  0  0  0  0  0
  -31.2752  -22.3621   27.2811 C   0  0  0  0  0  0  0  0  0  0  0  0
  -31.3925  -25.5840   26.9231 C   0  0  0  0  0  0  0  0  0  0  0  0
  -30.6019  -28.3209   25.0440 C   0  0  0  0  0  0  0  0  0  0  0  0
  -31.1090  -12.9230   21.3594 C   0  0  0  0  0  0  0  0  0  0  0  0
  -33.5293  -20.4756   31.4545 C   0  0  0  0  0  0  0  0  0  0  0  0
  -32.2038  -22.5756   24.9470 C   0  0  0  0  0  0  0  0  0  0  0  0
  -29.8594  -24.3299   25.3603 C   0  0  0  0  0  0  0  0  0  0  0  0
  -32.7789  -21.7579   31.1042 C   0  0  0  0  0  0  0  0  0  0  0  0
  -29.4604  -13.6601   18.2910 C   0  0  0  0  0  0  0  0  0  0  0  0
  -31.4695  -21.4326   30.3924 C   0  0  0  0  0  0  0  0  0  0  0  0
  -27.9907  -13.3519   18.5821 C   0  0  0  0  0  0  0  0  0  0  0  0
  -30.3936  -12.6812   19.0001 C   0  0  0  0  0  0  0  0  0  0  0  0
  -28.7068  -12.2533   20.7452 C   0  0  0  0  0  0  0  0  0  0  0  0
  -31.7273  -20.6957   29.0726 C   0  0  1  0  0  0  0  0  0  0  0  0
  -31.9422  -23.2652   26.2825 C   0  0  1  0  0  0  0  0  0  0  0  0
  -27.7289  -13.2481   20.0967 C   0  0  2  0  0  0  0  0  0  0  0  0
  -24.1170  -16.3293   24.6308 C   0  0  0  0  0  0  0  0  0  0  0  0
  -30.7961  -30.8228   25.0287 C   0  0  0  0  0  0  0  0  0  0  0  0
  -29.1448  -25.7686   28.9783 C   0  0  0  0  0  0  0  0  0  0  0  0
  -28.7444  -28.1227   28.2259 C   0  0  0  0  0  0  0  0  0  0  0  0
  -30.9373  -27.4936   29.2349 C   0  0  0  0  0  0  0  0  0  0  0  0
  -32.2024  -28.2973   22.5547 C   0  0  0  0  0  0  0  0  0  0  0  0
  -25.0020  -20.7056   22.3864 C   0  0  0  0  0  0  0  0  0  0  0  0
  -27.6706  -19.1506   26.3143 C   0  0  0  0  0  0  0  0  0  0  0  0
  -25.7824  -20.4953   21.0871 C   0  0  0  0  0  0  0  0  0  0  0  0
  -29.0436  -18.6116   25.8713 C   0  0  0  0  0  0  0  0  0  0  0  0
  -29.0120  -17.1160   25.5380 C   0  0  0  0  0  0  0  0  0  0  0  0
  -30.3556  -16.5786   25.0350 C   0  0  0  0  0  0  0  0  0  0  0  0
  -30.3067  -15.1026   24.6320 C   0  0  0  0  0  0  0  0  0  0  0  0
  -31.6810  -14.6114   24.1648 C   0  0  0  0  0  0  0  0  0  0  0  0
  -31.6707  -13.1386   23.7672 C   0  0  0  0  0  0  0  0  0  0  0  0
  -27.2900  -20.6423   21.2577 C   0  0  0  0  0  0  0  0  0  1  0  0
  -30.3710  -26.6954   26.9038 C   0  0  1  0  0  0  0  0  0  0  0  0
  -31.4326  -29.5105   24.5978 C   0  0  2  0  0  0  0  0  0  0  0  0
  -29.7983  -26.9986   28.3171 C   0  0  0  0  0  0  0  0  0  0  0  0
  -25.9397  -11.6080   20.5344 N   0  0  0  0  0  0  0  0  0  0  0  0
  -25.8796  -17.7864   25.4238 N   0  0  0  0  0  0  0  0  0  0  0  0
  -26.2817  -12.8999   20.3921 N   0  0  0  0  0  0  0  0  0  0  0  0
  -31.0963  -24.4530   26.1492 N   0  0  0  0  0  0  0  0  0  0  0  0
  -30.0942  -12.6309   20.4332 N   0  0  0  0  0  0  0  0  0  0  0  0
  -25.4062  -15.1005   20.4272 N   0  0  0  0  0  0  0  0  0  0  0  0
  -21.7909  -12.5273   21.2666 N   0  0  0  0  0  0  0  0  0  0  0  0
  -32.1561  -21.6256   28.0499 N   0  0  0  0  0  0  0  0  0  0  0  0
  -31.0199  -27.8351   26.2649 N   0  0  0  0  0  0  0  0  0  0  0  0
  -30.7392  -12.8585   22.6973 N   0  0  0  0  0  0  0  0  0  0  0  0
  -31.5693  -29.5194   23.1138 N   0  3  0  0  0  0  0  0  0  0  0  0
  -22.5157  -14.6844   20.9832 O   0  0  0  0  0  0  0  0  0  0  0  0
  -30.0520  -22.3366   27.3501 O   0  0  0  0  0  0  0  0  0  0  0  0
  -32.4188  -25.7175   27.5943 O   0  0  0  0  0  0  0  0  0  0  0  0
  -29.6725  -27.8701   24.3780 O   0  0  0  0  0  0  0  0  0  0  0  0
  -32.2581  -13.2245   21.0191 O   0  0  0  0  0  0  0  0  0  0  0  0
  -21.7150   -6.9678   21.6158 O   0  0  0  0  0  0  0  0  0  0  0  0
  -27.5698  -21.9526   21.7486 O   0  0  0  0  0  0  0  0  0  1  0  0
  -18.1487   -6.8850   25.8204 F   0  0  0  0  0  0  0  0  0  0  0  0
  -21.9823   -5.1330   23.6663 F   0  0  0  0  0  0  0  0  0  0  0  0
  1  2  1  0  0  0  0
  1  5  2  0  0  0  0
  2  6  2  0  0  0  0
  3  8  2  0  0  0  0
  3 17  1  0  0  0  0
  4  9  1  0  0  0  0
  4 17  2  0  0  0  0
  5 19  1  0  0  0  0
  6 21  1  0  0  0  0
  7 10  2  0  0  0  0
  7 20  1  0  0  0  0
  8 24  1  0  0  0  0
  9 24  2  0  0  0  0
 10 25  1  0  0  0  0
 11 12  2  0  0  0  0
 11 26  1  0  0  0  0
 12 27  1  0  0  0  0
 13 22  1  0  0  0  0
 13 25  2  0  0  0  0
 14 23  1  0  0  0  0
 14 30  2  0  0  0  0
 15 23  2  0  0  0  0
 15 31  1  0  0  0  0
 16 27  2  0  0  0  0
 16 28  1  0  0  0  0
 17 29  1  0  0  0  0
 18 29  1  0  0  0  0
 18 32  2  0  0  0  0
 18 33  1  0  0  0  0
 19 21  2  0  0  0  0
 19 38  1  0  0  0  0
 20 22  2  0  0  0  0
 20 39  1  0  0  0  0
 21 47  1  0  0  0  0
 22 40  1  0  0  0  0
 23 56  1  0  0  0  0
 24 85  1  0  0  0  0
 25 86  1  0  0  0  0
 26 28  2  0  0  0  0
 26 85  1  0  0  0  0
 27 87  1  0  0  0  0
 28 88  1  0  0  0  0
 29 69  2  0  0  0  0
 30 50  1  0  0  0  0
 30 70  1  0  0  0  0
 31 57  1  0  0  0  0
 31 70  2  0  0  0  0
 32 71  1  0  0  0  0
 32 74  1  0  0  0  0
 33 75  1  0  0  0  0
 33 80  2  0  0  0  0
 34 48  1  0  0  0  0
 34 76  1  0  0  0  0
 34 81  2  0  0  0  0
 35 66  1  0  0  0  0
 35 72  1  0  0  0  0
 35 82  2  0  0  0  0
 36 67  1  0  0  0  0
 36 77  1  0  0  0  0
 36 83  2  0  0  0  0
 37 73  1  0  0  0  0
 37 78  1  0  0  0  0
 37 84  2  0  0  0  0
 38 41  1  0  0  0  0
 39 48  1  0  0  0  0
 40 72  1  0  0  0  0
 41 43  1  0  0  0  0
 42 44  1  0  0  0  0
 42 45  1  0  0  0  0
 43 47  1  0  0  0  0
 44 49  1  0  0  0  0
 45 73  1  0  0  0  0
 46 49  1  0  0  0  0
 46 73  1  0  0  0  0
 47 76  1  0  0  0  0
 48 72  1  0  0  0  0
 49 71  1  0  0  0  0
 51 67  1  0  0  0  0
 52 68  1  0  0  0  0
 53 68  1  0  0  0  0
 54 68  1  0  0  0  0
 55 79  1  0  0  0  0
 56 58  1  0  0  0  0
 57 59  1  0  0  0  0
 58 65  1  0  0  0  0
 59 60  1  0  0  0  0
 60 61  1  0  0  0  0
 61 62  1  0  0  0  0
 62 63  1  0  0  0  0
 63 64  1  0  0  0  0
 64 78  1  0  0  0  0
 65 86  1  0  0  0  0
 66 68  1  0  0  0  0
 66 77  1  0  0  0  0
 67 79  1  0  0  0  0
 69 71  1  0  0  0  0
M  CHG  1  79   1
M  ISO  4  37 100  65 101  78 100  86 101
M  END
> <Batch ID>
0035

> <Smiles>
CNC(C)C(=O)NC(C(=O)N1Cc2cc([101O:1][101CH2:1]CCc3cc(C)nc(CCCCCCC[100NH:0][100C:0](=O)N4CCCC(n5nc(-c6ccc(Oc7ccc(F)cc7F)cc6)c(C(N)=O)c5N)C4)c3)ccc2CC1C(=O)NC1CCCc2ccccc21)C(C)(C)C

> <Shape>
0.145

> <Color>
0.170

> <Negative vol penalty>
0.000

$$$$

  -OEChem-04052316533D

 90 99  0     1  0  0  0  0  0999 V2000
  -33.5366  -25.7428   12.9222 C   0  0  0  0  0  0  0  0  0  0  0  0
  -32.4982  -26.2753   13.6797 C   0  0  0  0  0  0  0  0  0  0  0  0
  -30.4268  -18.5681   21.0504 C   0  0  0  0  0  0  0  0  0  0  0  0
  -28.3334  -18.0108   19.9807 C   0  0  0  0  0  0  0  0  0  0  0  0
  -34.2674  -24.6593   13.4077 C   0  0  0  0  0  0  0  0  0  0  0  0
  -32.1895  -25.7239   14.9226 C   0  0  0  0  0  0  0  0  0  0  0  0
  -30.1954  -28.7116   19.8828 C   0  0  0  0  0  0  0  0  0  0  0  0
  -30.9763  -17.3677   20.6003 C   0  0  0  0  0  0  0  0  0  0  0  0
  -28.8829  -16.8104   19.5305 C   0  0  0  0  0  0  0  0  0  0  0  0
  -28.9212  -28.8948   20.4183 C   0  0  0  0  0  0  0  0  0  0  0  0
  -29.6214  -13.4349   18.4035 C   0  0  0  0  0  0  0  0  0  0  0  0
  -28.8517  -12.2793   18.5363 C   0  0  0  0  0  0  0  0  0  0  0  0
  -21.5641  -28.8012   21.9598 C   0  0  0  0  0  0  0  0  0  0  0  0
  -29.2870  -27.0343   21.9096 C   0  0  0  0  0  0  0  0  0  0  0  0
  -21.9358  -26.9765   20.4258 C   0  0  0  0  0  0  0  0  0  0  0  0
  -28.7926  -12.5940   20.9310 C   0  0  0  0  0  0  0  0  0  0  0  0
  -29.1053  -18.8896   20.7407 C   0  0  0  0  0  0  0  0  0  0  0  0
  -28.5455  -21.3705   20.5418 C   0  0  0  0  0  0  0  0  0  0  0  0
  -33.9737  -24.1004   14.6615 C   0  0  0  0  0  0  0  0  0  0  0  0
  -31.0221  -27.6797   20.3499 C   0  0  0  0  0  0  0  0  0  0  0  0
  -32.9162  -24.6310   15.4248 C   0  0  0  0  0  0  0  0  0  0  0  0
  -20.3176  -28.2664   22.3187 C   0  0  0  0  0  0  0  0  0  0  0  0
  -30.5722  -26.8417   21.3802 C   0  0  0  0  0  0  0  0  0  0  0  0
  -19.8701  -27.0833   21.7020 C   0  0  0  0  0  0  0  0  0  0  0  0
  -22.3694  -28.1577   21.0206 C   0  0  0  0  0  0  0  0  0  0  0  0
  -20.6943  -26.4402   20.7662 C   0  0  0  0  0  0  0  0  0  0  0  0
  -30.2044  -16.4888   19.8403 C   0  0  0  0  0  0  0  0  0  0  0  0
  -28.4657  -28.0544   21.4298 C   0  0  0  0  0  0  0  0  0  0  0  0
  -29.9768  -14.1700   19.5344 C   0  0  0  0  0  0  0  0  0  0  0  0
  -28.4372  -11.8589   19.8001 C   0  0  0  0  0  0  0  0  0  0  0  0
  -29.5624  -13.7496   20.7981 C   0  0  0  0  0  0  0  0  0  0  0  0
  -28.5368  -20.1292   21.2058 C   0  0  0  0  0  0  0  0  0  0  0  0
  -27.8831  -22.2202   21.3937 C   0  0  0  0  0  0  0  0  0  0  0  0
  -29.1025  -21.7238   19.2688 C   0  0  0  0  0  0  0  0  0  0  0  0
  -32.3460  -25.1013   19.0451 C   0  0  0  0  0  0  0  0  0  0  0  0
  -33.7967  -24.8615   21.9365 C   0  0  0  0  0  0  0  0  0  0  0  0
  -33.7589  -25.6037   25.2673 C   0  0  0  0  0  0  0  0  0  0  0  0
  -23.7958  -21.3299   25.6776 C   0  0  0  0  0  0  0  0  0  0  0  0
  -34.7608  -22.8997   15.1235 C   0  0  0  0  0  0  0  0  0  0  0  0
  -32.4041  -27.5121   19.7804 C   0  0  0  0  0  0  0  0  0  0  0  0
  -19.4612  -29.0093   23.3137 C   0  0  0  0  0  0  0  0  0  0  0  0
  -18.5491  -26.4542   22.0687 C   0  0  0  0  0  0  0  0  0  0  0  0
  -31.4286  -25.7319   21.9308 C   0  0  0  0  0  0  0  0  0  0  0  0
  -34.6134  -22.6119   16.6154 C   0  0  0  0  0  0  0  0  0  0  0  0
  -18.3347  -28.1569   23.8948 C   0  0  0  0  0  0  0  0  0  0  0  0
  -17.6016  -27.4148   22.7848 C   0  0  0  0  0  0  0  0  0  0  0  0
  -26.9696  -22.9023   26.0403 C   0  0  0  0  0  0  0  0  0  0  0  0
  -33.1467  -22.6770   17.0292 C   0  0  0  0  0  0  0  0  0  0  0  0
  -27.7319  -22.4819   24.7825 C   0  0  0  0  0  0  0  0  0  0  0  0
  -26.0680  -21.7822   26.5546 C   0  0  0  0  0  0  0  0  0  0  0  0
  -25.8978  -20.8089   24.2968 C   0  0  0  0  0  0  0  0  0  0  0  0
  -32.5671  -24.0761   16.7887 C   0  0  1  0  0  0  0  0  0  0  0  0
  -32.9642  -26.1064   19.9752 C   0  0  1  0  0  0  0  0  0  0  0  0
  -26.7781  -21.9249   23.7086 C   0  0  2  0  0  0  0  0  0  0  0  0
  -35.0602  -25.2387   27.3817 C   0  0  0  0  0  0  0  0  0  0  0  0
  -32.7442  -22.0016   22.0876 C   0  0  0  0  0  0  0  0  0  0  0  0
  -33.2374  -22.0238   24.5421 C   0  0  0  0  0  0  0  0  0  0  0  0
  -35.0927  -22.2930   22.8964 C   0  0  0  0  0  0  0  0  0  0  0  0
  -34.2059  -28.5067   25.6306 C   0  0  0  0  0  0  0  0  0  0  0  0
  -23.7096  -28.7412   20.6504 C   0  0  0  0  0  0  0  0  0  0  0  0
  -20.2825  -25.1607   20.1094 C   0  0  0  0  0  0  0  0  0  0  0  0
  -24.8617  -28.2413   21.5245 C   0  0  0  0  0  0  0  0  0  0  0  0
  -20.9754  -23.9095   20.6742 C   0  0  0  0  0  0  0  0  0  0  0  0
  -20.6438  -23.6602   22.1490 C   0  0  0  0  0  0  0  0  0  0  0  0
  -21.3308  -22.3934   22.6652 C   0  0  0  0  0  0  0  0  0  0  0  0
  -20.9678  -22.1227   24.1283 C   0  0  0  0  0  0  0  0  0  0  0  0
  -21.5885  -20.8341   24.6573 C   0  0  0  0  0  0  0  0  0  0  0  0
  -26.2235  -28.7699   21.0890 C   0  0  0  0  0  0  0  0  0  1  0  0
  -33.4624  -24.1932   23.2482 C   0  0  1  0  0  0  0  0  0  0  0  0
  -34.8323  -26.1541   26.1889 C   0  0  2  0  0  0  0  0  0  0  0  0
  -33.6171  -22.6475   23.1821 C   0  0  0  0  0  0  0  0  0  0  0  0
  -27.9181  -20.1814   22.3884 N   0  0  0  0  0  0  0  0  0  0  0  0
  -27.5319  -21.4657   22.4742 N   0  0  0  0  0  0  0  0  0  0  0  0
  -32.7697  -25.6042   21.3369 N   0  0  0  0  0  0  0  0  0  0  0  0
  -25.1873  -21.2996   25.4881 N   0  0  0  0  0  0  0  0  0  0  0  0
  -27.5727  -23.5317   21.3164 N   0  0  0  0  0  0  0  0  0  0  0  0
  -29.7492  -20.7288   18.5231 N   0  0  0  0  0  0  0  0  0  0  0  0
  -32.9941  -24.9859   17.8301 N   0  0  0  0  0  0  0  0  0  0  0  0
  -34.2978  -24.8347   24.2577 N   0  0  0  0  0  0  0  0  0  0  0  0
  -23.0336  -20.8602   24.6150 N   0  0  0  0  0  0  0  0  0  0  0  0
  -34.4392  -27.4989   26.6968 N   0  3  0  0  0  0  0  0  0  0  0  0
  -29.0432  -22.8912   18.8135 O   0  0  0  0  0  0  0  0  0  0  0  0
  -31.3552  -24.4756   19.4037 O   0  0  0  0  0  0  0  0  0  0  0  0
  -34.9296  -24.7354   21.4649 O   0  0  0  0  0  0  0  0  0  0  0  0
  -32.5618  -25.8301   25.4292 O   0  0  0  0  0  0  0  0  0  0  0  0
  -23.2714  -21.7499   26.7148 O   0  0  0  0  0  0  0  0  0  0  0  0
  -30.7404  -15.3175   19.4007 O   0  0  0  0  0  0  0  0  0  0  0  0
  -27.2222  -28.2306   21.9538 O   0  0  0  0  0  0  0  0  0  1  0  0
  -27.6967  -10.7500   19.9274 F   0  0  0  0  0  0  0  0  0  0  0  0
  -29.8997  -14.4524   21.8882 F   0  0  0  0  0  0  0  0  0  0  0  0
  1  2  1  0  0  0  0
  1  5  2  0  0  0  0
  2  6  2  0  0  0  0
  3  8  2  0  0  0  0
  3 17  1  0  0  0  0
  4  9  1  0  0  0  0
  4 17  2  0  0  0  0
  5 19  1  0  0  0  0
  6 21  1  0  0  0  0
  7 10  2  0  0  0  0
  7 20  1  0  0  0  0
  8 27  1  0  0  0  0
  9 27  2  0  0  0  0
 10 28  1  0  0  0  0
 11 12  2  0  0  0  0
 11 29  1  0  0  0  0
 12 30  1  0  0  0  0
 13 22  1  0  0  0  0
 13 25  2  0  0  0  0
 14 23  1  0  0  0  0
 14 28  2  0  0  0  0
 15 25  1  0  0  0  0
 15 26  2  0  0  0  0
 16 30  2  0  0  0  0
 16 31  1  0  0  0  0
 17 32  1  0  0  0  0
 18 32  1  0  0  0  0
 18 33  2  0  0  0  0
 18 34  1  0  0  0  0
 19 21  2  0  0  0  0
 19 39  1  0  0  0  0
 20 23  2  0  0  0  0
 20 40  1  0  0  0  0
 21 52  1  0  0  0  0
 22 24  2  0  0  0  0
 22 41  1  0  0  0  0
 23 43  1  0  0  0  0
 24 26  1  0  0  0  0
 24 42  1  0  0  0  0
 25 60  1  0  0  0  0
 26 61  1  0  0  0  0
 27 87  1  0  0  0  0
 28 88  1  0  0  0  0
 29 31  2  0  0  0  0
 29 87  1  0  0  0  0
 30 89  1  0  0  0  0
 31 90  1  0  0  0  0
 32 72  2  0  0  0  0
 33 73  1  0  0  0  0
 33 76  1  0  0  0  0
 34 77  1  0  0  0  0
 34 82  2  0  0  0  0
 35 53  1  0  0  0  0
 35 78  1  0  0  0  0
 35 83  2  0  0  0  0
 36 69  1  0  0  0  0
 36 74  1  0  0  0  0
 36 84  2  0  0  0  0
 37 70  1  0  0  0  0
 37 79  1  0  0  0  0
 37 85  2  0  0  0  0
 38 75  1  0  0  0  0
 38 80  1  0  0  0  0
 38 86  2  0  0  0  0
 39 44  1  0  0  0  0
 40 53  1  0  0  0  0
 41 45  1  0  0  0  0
 42 46  1  0  0  0  0
 43 74  1  0  0  0  0
 44 48  1  0  0  0  0
 45 46  1  0  0  0  0
 47 49  1  0  0  0  0
 47 50  1  0  0  0  0
 48 52  1  0  0  0  0
 49 54  1  0  0  0  0
 50 75  1  0  0  0  0
 51 54  1  0  0  0  0
 51 75  1  0  0  0  0
 52 78  1  0  0  0  0
 53 74  1  0  0  0  0
 54 73  1  0  0  0  0
 55 70  1  0  0  0  0
 56 71  1  0  0  0  0
 57 71  1  0  0  0  0
 58 71  1  0  0  0  0
 59 81  1  0  0  0  0
 60 62  1  0  0  0  0
 61 63  1  0  0  0  0
 62 68  1  0  0  0  0
 63 64  1  0  0  0  0
 64 65  1  0  0  0  0
 65 66  1  0  0  0  0
 66 67  1  0  0  0  0
 67 80  1  0  0  0  0
 68 88  1  0  0  0  0
 69 71  1  0  0  0  0
 69 79  1  0  0  0  0
 70 81  1  0  0  0  0
 72 73  1  0  0  0  0
M  CHG  1  81   1
M  ISO  4  38 100  68 101  80 100  88 101
M  END
> <Batch ID>
0035

> <Smiles>
CNC(C)C(=O)NC(C(=O)N1Cc2cc([101O:1][101CH2:1]CCc3cc(CCCCCC[100NH:0][100C:0](=O)N4CCCC(n5nc(-c6ccc(Oc7ccc(F)cc7F)cc6)c(C(N)=O)c5N)C4)c4c(c3)CCCC4)ccc2CC1C(=O)NC1CCCc2ccccc21)C(C)(C)C

> <Shape>
0.205

> <Color>
0.062

> <Negative vol penalty>
0.000

$$$$

  -OEChem-04052316533D

 82 90  0     1  0  0  0  0  0999 V2000
  -25.8450  -13.4195   25.8042 C   0  0  0  0  0  0  0  0  0  0  0  0
  -26.6833  -13.0028   24.7751 C   0  0  0  0  0  0  0  0  0  0  0  0
  -23.1614   -9.8526   19.9154 C   0  0  0  0  0  0  0  0  0  0  0  0
  -23.8315   -9.9039   22.2361 C   0  0  0  0  0  0  0  0  0  0  0  0
  -26.2621  -14.4218   26.6789 C   0  0  0  0  0  0  0  0  0  0  0  0
  -27.9389  -13.5890   24.6195 C   0  0  0  0  0  0  0  0  0  0  0  0
  -34.6023  -12.0340   22.4987 C   0  0  0  0  0  0  0  0  0  0  0  0
  -35.5953  -17.2558   17.9333 C   0  0  0  0  0  0  0  0  0  0  0  0
  -22.4336   -8.6864   20.1513 C   0  0  0  0  0  0  0  0  0  0  0  0
  -23.1036   -8.7376   22.4720 C   0  0  0  0  0  0  0  0  0  0  0  0
  -35.5899  -12.4920   21.6278 C   0  0  0  0  0  0  0  0  0  0  0  0
  -19.4492   -7.8421   21.4980 C   0  0  0  0  0  0  0  0  0  0  0  0
  -18.1635   -7.7611   20.9634 C   0  0  0  0  0  0  0  0  0  0  0  0
  -34.2558  -17.5320   17.6593 C   0  0  0  0  0  0  0  0  0  0  0  0
  -36.2361  -14.1593   23.2470 C   0  0  0  0  0  0  0  0  0  0  0  0
  -34.9728  -16.3851   20.0993 C   0  0  0  0  0  0  0  0  0  0  0  0
  -18.8160   -5.8152   19.6887 C   0  0  0  0  0  0  0  0  0  0  0  0
  -23.8604  -10.4614   20.9578 C   0  0  0  0  0  0  0  0  0  0  0  0
  -24.1519  -12.9919   20.8187 C   0  0  0  0  0  0  0  0  0  0  0  0
  -27.5273  -15.0139   26.5399 C   0  0  0  0  0  0  0  0  0  0  0  0
  -34.4167  -12.6432   23.7480 C   0  0  0  0  0  0  0  0  0  0  0  0
  -28.3728  -14.6012   25.4924 C   0  0  0  0  0  0  0  0  0  0  0  0
  -35.2471  -13.7054   24.1330 C   0  0  0  0  0  0  0  0  0  0  0  0
  -35.9538  -16.6823   19.1532 C   0  0  0  0  0  0  0  0  0  0  0  0
  -33.6333  -16.6614   19.8254 C   0  0  0  0  0  0  0  0  0  0  0  0
  -22.4046   -8.1289   21.4296 C   0  0  0  0  0  0  0  0  0  0  0  0
  -36.4051  -13.5567   22.0006 C   0  0  0  0  0  0  0  0  0  0  0  0
  -20.4185   -6.9097   21.1279 C   0  0  0  0  0  0  0  0  0  0  0  0
  -17.8468   -6.7477   20.0588 C   0  0  0  0  0  0  0  0  0  0  0  0
  -20.1018   -5.8962   20.2233 C   0  0  0  0  0  0  0  0  0  0  0  0
  -33.2748  -17.2348   18.6054 C   0  0  0  0  0  0  0  0  0  0  0  0
  -24.6129  -11.6658   20.7147 C   0  0  0  0  0  0  0  0  0  0  0  0
  -25.2408  -13.7610   20.4882 C   0  0  0  0  0  0  0  0  0  0  0  0
  -22.8552  -13.4844   21.1817 C   0  0  0  0  0  0  0  0  0  0  0  0
  -32.0307  -14.2092   25.1477 C   0  0  0  0  0  0  0  0  0  0  0  0
  -33.9985  -14.1157   27.7248 C   0  0  0  0  0  0  0  0  0  0  0  0
  -37.1791  -13.8521   28.9334 C   0  0  0  0  0  0  0  0  0  0  0  0
  -30.5627  -14.9343   20.9854 C   0  0  0  0  0  0  0  0  0  0  0  0
  -27.9154  -16.1268   27.4810 C   0  0  0  0  0  0  0  0  0  0  0  0
  -33.3645  -12.1200   24.6870 C   0  0  0  0  0  0  0  0  0  0  0  0
  -35.1019  -14.3807   25.4715 C   0  0  0  0  0  0  0  0  0  0  0  0
  -29.4105  -16.4348   27.4763 C   0  0  0  0  0  0  0  0  0  0  0  0
  -29.7007  -12.4676   18.4814 C   0  0  0  0  0  0  0  0  0  0  0  0
  -29.9322  -16.5268   26.0459 C   0  0  0  0  0  0  0  0  0  0  0  0
  -28.2516  -12.1495   18.8541 C   0  0  0  0  0  0  0  0  0  0  0  0
  -30.5539  -12.6970   19.7255 C   0  0  0  0  0  0  0  0  0  0  0  0
  -28.5882  -13.4366   21.0151 C   0  0  0  0  0  0  0  0  0  0  0  0
  -29.7520  -15.1956   25.3063 C   0  0  1  0  0  0  0  0  0  0  0  0
  -32.9248  -13.1483   25.7246 C   0  0  1  0  0  0  0  0  0  0  0  0
  -27.6691  -13.2164   19.7999 C   0  0  2  0  0  0  0  0  0  0  0  0
  -38.4760  -13.8471   31.0818 C   0  0  0  0  0  0  0  0  0  0  0  0
  -33.6777  -17.1436   27.9226 C   0  0  0  0  0  0  0  0  0  0  0  0
  -35.6804  -17.1877   29.4244 C   0  0  0  0  0  0  0  0  0  0  0  0
  -33.6317  -15.9441   30.1166 C   0  0  0  0  0  0  0  0  0  0  0  0
  -38.1866  -11.1110   28.4539 C   0  0  0  0  0  0  0  0  0  0  0  0
  -37.4020  -16.3840   19.4490 C   0  0  0  0  0  0  0  0  0  0  0  0
  -32.6126  -16.3272   20.8648 C   0  0  0  0  0  0  0  0  0  0  0  0
  -37.8441  -14.9852   19.0138 C   0  0  0  0  0  0  0  0  0  0  0  0
  -37.1211  -13.8659   19.7539 C   0  0  0  0  0  0  0  0  0  1  0  0
  -35.0860  -15.0081   28.2724 C   0  0  1  0  0  0  0  0  0  0  0  0
  -37.7687  -12.9953   30.0392 C   0  0  2  0  0  0  0  0  0  0  0  0
  -34.5206  -16.3096   28.9080 C   0  0  0  0  0  0  0  0  0  0  0  0
  -25.8949  -11.5931   20.3467 N   0  0  0  0  0  0  0  0  0  0  0  0
  -26.2486  -12.8830   20.2166 N   0  0  0  0  0  0  0  0  0  0  0  0
  -34.0547  -13.8369   26.3519 N   0  0  0  0  0  0  0  0  0  0  0  0
  -29.9543  -13.7369   20.5737 N   0  0  0  0  0  0  0  0  0  0  0  0
  -25.4250  -15.0958   20.4063 N   0  0  0  0  0  0  0  0  0  0  0  0
  -21.8509  -12.5571   21.4914 N   0  0  0  0  0  0  0  0  0  0  0  0
  -30.7700  -14.2503   25.7119 N   0  0  0  0  0  0  0  0  0  0  0  0
  -35.8659  -14.1849   29.1903 N   0  0  0  0  0  0  0  0  0  0  0  0
  -31.8593  -15.1393   20.5298 N   0  0  0  0  0  0  0  0  0  0  0  0
  -38.7529  -12.0282   29.4762 N   0  3  0  0  0  0  0  0  0  0  0  0
  -22.5903  -14.7101   21.2142 O   0  0  0  0  0  0  0  0  0  0  0  0
  -32.4539  -14.9375   24.2576 O   0  0  0  0  0  0  0  0  0  0  0  0
  -33.1351  -13.6762   28.4884 O   0  0  0  0  0  0  0  0  0  0  0  0
  -37.8206  -14.1952   27.9427 O   0  0  0  0  0  0  0  0  0  0  0  0
  -29.9906  -15.7626   21.7022 O   0  0  0  0  0  0  0  0  0  0  0  0
  -21.6943   -6.9910   21.6602 O   0  0  0  0  0  0  0  0  0  0  0  0
  -37.3694  -14.0062   21.1522 O   0  0  0  0  0  0  0  0  0  1  0  0
  -16.6116   -6.6691   19.5467 F   0  0  0  0  0  0  0  0  0  0  0  0
  -21.0284   -4.9969   19.8649 F   0  0  0  0  0  0  0  0  0  0  0  0
  -31.6276  -17.5903   18.2319 Cl  0  0  0  0  0  0  0  0  0  0  0  0
  1  2  1  0  0  0  0
  1  5  2  0  0  0  0
  2  6  2  0  0  0  0
  3  9  2  0  0  0  0
  3 18  1  0  0  0  0
  4 10  1  0  0  0  0
  4 18  2  0  0  0  0
  5 20  1  0  0  0  0
  6 22  1  0  0  0  0
  7 11  2  0  0  0  0
  7 21  1  0  0  0  0
  8 14  2  0  0  0  0
  8 24  1  0  0  0  0
  9 26  1  0  0  0  0
 10 26  2  0  0  0  0
 11 27  1  0  0  0  0
 12 13  2  0  0  0  0
 12 28  1  0  0  0  0
 13 29  1  0  0  0  0
 14 31  1  0  0  0  0
 15 23  1  0  0  0  0
 15 27  2  0  0  0  0
 16 24  2  0  0  0  0
 16 25  1  0  0  0  0
 17 29  2  0  0  0  0
 17 30  1  0  0  0  0
 18 32  1  0  0  0  0
 19 32  1  0  0  0  0
 19 33  2  0  0  0  0
 19 34  1  0  0  0  0
 20 22  2  0  0  0  0
 20 39  1  0  0  0  0
 21 23  2  0  0  0  0
 21 40  1  0  0  0  0
 22 48  1  0  0  0  0
 23 41  1  0  0  0  0
 24 56  1  0  0  0  0
 25 31  2  0  0  0  0
 25 57  1  0  0  0  0
 26 78  1  0  0  0  0
 27 79  1  0  0  0  0
 28 30  2  0  0  0  0
 28 78  1  0  0  0  0
 29 80  1  0  0  0  0
 30 81  1  0  0  0  0
 31 82  1  0  0  0  0
 32 63  2  0  0  0  0
 33 64  1  0  0  0  0
 33 67  1  0  0  0  0
 34 68  1  0  0  0  0
 34 73  2  0  0  0  0
 35 49  1  0  0  0  0
 35 69  1  0  0  0  0
 35 74  2  0  0  0  0
 36 60  1  0  0  0  0
 36 65  1  0  0  0  0
 36 75  2  0  0  0  0
 37 61  1  0  0  0  0
 37 70  1  0  0  0  0
 37 76  2  0  0  0  0
 38 66  1  0  0  0  0
 38 71  1  0  0  0  0
 38 77  2  0  0  0  0
 39 42  1  0  0  0  0
 40 49  1  0  0  0  0
 41 65  1  0  0  0  0
 42 44  1  0  0  0  0
 43 45  1  0  0  0  0
 43 46  1  0  0  0  0
 44 48  1  0  0  0  0
 45 50  1  0  0  0  0
 46 66  1  0  0  0  0
 47 50  1  0  0  0  0
 47 66  1  0  0  0  0
 48 69  1  0  0  0  0
 49 65  1  0  0  0  0
 50 64  1  0  0  0  0
 51 61  1  0  0  0  0
 52 62  1  0  0  0  0
 53 62  1  0  0  0  0
 54 62  1  0  0  0  0
 55 72  1  0  0  0  0
 56 58  1  0  0  0  0
 57 71  1  0  0  0  0
 58 59  1  0  0  0  0
 59 79  1  0  0  0  0
 60 62  1  0  0  0  0
 60 70  1  0  0  0  0
 61 72  1  0  0  0  0
 63 64  1  0  0  0  0
M  CHG  1  72   1
M  ISO  4  38 100  59 101  71 100  79 101
M  END
> <Batch ID>
0035

> <Smiles>
CNC(C)C(=O)NC(C(=O)N1Cc2cc([101O:1][101CH2:1]CCc3ccc(Cl)c(C[100NH:0][100C:0](=O)N4CCCC(n5nc(-c6ccc(Oc7ccc(F)cc7F)cc6)c(C(N)=O)c5N)C4)c3)ccc2CC1C(=O)NC1CCCc2ccccc21)C(C)(C)C

> <Shape>
0.136

> <Color>
0.178

> <Negative vol penalty>
0.000

$$$$

  -OEChem-04052316533D

 84 92  0     1  0  0  0  0  0999 V2000
  -26.0168  -22.2924   25.9025 C   0  0  0  0  0  0  0  0  0  0  0  0
  -25.3681  -23.2802   25.1685 C   0  0  0  0  0  0  0  0  0  0  0  0
  -28.7759  -17.5212   18.9824 C   0  0  0  0  0  0  0  0  0  0  0  0
  -29.6775  -18.1010   21.1476 C   0  0  0  0  0  0  0  0  0  0  0  0
  -26.2533  -21.0429   25.3310 C   0  0  0  0  0  0  0  0  0  0  0  0
  -24.9564  -23.0194   23.8620 C   0  0  0  0  0  0  0  0  0  0  0  0
  -20.2588  -24.6703   22.9391 C   0  0  0  0  0  0  0  0  0  0  0  0
  -28.4710  -16.2435   19.4514 C   0  0  0  0  0  0  0  0  0  0  0  0
  -29.3725  -16.8232   21.6167 C   0  0  0  0  0  0  0  0  0  0  0  0
  -20.0974  -26.0359   22.7097 C   0  0  0  0  0  0  0  0  0  0  0  0
  -30.1140  -13.3491   20.0405 C   0  0  0  0  0  0  0  0  0  0  0  0
  -30.4351  -12.2656   19.2229 C   0  0  0  0  0  0  0  0  0  0  0  0
  -20.0213  -25.6217   20.3344 C   0  0  0  0  0  0  0  0  0  0  0  0
  -24.7150  -31.2959   21.6189 C   0  0  0  0  0  0  0  0  0  0  0  0
  -23.9463  -29.0216   21.3481 C   0  0  0  0  0  0  0  0  0  0  0  0
  -28.1061  -11.6267   19.1549 C   0  0  0  0  0  0  0  0  0  0  0  0
  -29.3792  -18.4500   19.8304 C   0  0  0  0  0  0  0  0  0  0  0  0
  -30.5482  -20.1015   18.2768 C   0  0  0  0  0  0  0  0  0  0  0  0
  -25.8357  -20.7634   24.0202 C   0  0  0  0  0  0  0  0  0  0  0  0
  -20.3137  -23.7697   21.8656 C   0  0  0  0  0  0  0  0  0  0  0  0
  -25.1887  -21.7654   23.2719 C   0  0  0  0  0  0  0  0  0  0  0  0
  -20.1809  -24.2448   20.5531 C   0  0  0  0  0  0  0  0  0  0  0  0
  -23.8293  -30.2721   21.9549 C   0  0  0  0  0  0  0  0  0  0  0  0
  -25.7178  -31.0693   20.6761 C   0  0  0  0  0  0  0  0  0  0  0  0
  -24.9491  -28.7949   20.4053 C   0  0  0  0  0  0  0  0  0  0  0  0
  -25.8348  -29.8188   20.0693 C   0  0  0  0  0  0  0  0  0  0  0  0
  -28.7693  -15.8945   20.7686 C   0  0  0  0  0  0  0  0  0  0  0  0
  -19.9815  -26.5122   21.4070 C   0  0  0  0  0  0  0  0  0  0  0  0
  -28.7889  -13.5713   20.4155 C   0  0  0  0  0  0  0  0  0  0  0  0
  -29.4312  -11.4044   18.7800 C   0  0  0  0  0  0  0  0  0  0  0  0
  -27.7850  -12.7101   19.9726 C   0  0  0  0  0  0  0  0  0  0  0  0
  -29.6949  -19.7698   19.3463 C   0  0  0  0  0  0  0  0  0  0  0  0
  -30.5111  -21.4733   18.2207 C   0  0  0  0  0  0  0  0  0  0  0  0
  -31.3064  -19.2460   17.4114 C   0  0  0  0  0  0  0  0  0  0  0  0
  -22.4935  -21.7462   20.7444 C   0  0  0  0  0  0  0  0  0  0  0  0
  -20.0909  -20.8747   18.7468 C   0  0  0  0  0  0  0  0  0  0  0  0
  -17.1704  -21.7090   17.1908 C   0  0  0  0  0  0  0  0  0  0  0  0
  -26.4036  -25.3690   19.8964 C   0  0  0  0  0  0  0  0  0  0  0  0
  -26.1557  -19.4135   23.4286 C   0  0  0  0  0  0  0  0  0  0  0  0
  -20.4613  -22.2966   22.1312 C   0  0  0  0  0  0  0  0  0  0  0  0
  -20.2130  -23.3172   19.3669 C   0  0  0  0  0  0  0  0  0  0  0  0
  -25.3541  -19.0950   22.1691 C   0  0  0  0  0  0  0  0  0  0  0  0
  -29.8519  -25.3182   20.9938 C   0  0  0  0  0  0  0  0  0  0  0  0
  -25.3619  -20.2859   21.2160 C   0  0  0  0  0  0  0  0  0  0  0  0
  -30.2798  -23.9070   20.5870 C   0  0  0  0  0  0  0  0  0  0  0  0
  -28.4114  -25.3358   21.4965 C   0  0  0  0  0  0  0  0  0  0  0  0
  -27.8431  -23.3651   20.1302 C   0  0  0  0  0  0  0  0  0  0  0  0
  -24.7050  -21.5125   21.8605 C   0  0  1  0  0  0  0  0  0  0  0  0
  -21.0196  -21.5273   20.9380 C   0  0  1  0  0  0  0  0  0  0  0  0
  -29.2830  -23.2843   19.5916 C   0  0  2  0  0  0  0  0  0  0  0  0
  -26.6542  -32.1821   20.3349 C   0  0  0  0  0  0  0  0  0  0  0  0
  -26.9103  -29.5759   19.0588 C   0  0  0  0  0  0  0  0  0  0  0  0
  -15.4633  -20.8043   15.5894 C   0  0  0  0  0  0  0  0  0  0  0  0
  -22.0094  -21.3688   16.4262 C   0  0  0  0  0  0  0  0  0  0  0  0
  -20.0344  -21.3822   14.8876 C   0  0  0  0  0  0  0  0  0  0  0  0
  -20.5870  -19.3258   16.1869 C   0  0  0  0  0  0  0  0  0  0  0  0
  -15.0087  -21.9066   19.2025 C   0  0  0  0  0  0  0  0  0  0  0  0
  -22.7449  -30.5173   22.9736 C   0  0  0  0  0  0  0  0  0  0  0  0
  -25.0532  -27.4468   19.7700 C   0  0  0  0  0  0  0  0  0  0  0  0
  -21.4336  -31.0327   22.3701 C   0  0  0  0  0  0  0  0  0  0  0  0
  -20.7810  -30.0334   21.4139 C   0  0  0  0  0  0  0  0  0  0  0  0
  -20.4129  -28.7381   22.1248 C   0  0  0  0  0  0  0  0  0  1  0  0
  -19.6136  -21.3264   17.3878 C   0  0  1  0  0  0  0  0  0  0  0  0
  -15.8554  -20.9638   17.0501 C   0  0  2  0  0  0  0  0  0  0  0  0
  -20.5624  -20.8688   16.2442 C   0  0  0  0  0  0  0  0  0  0  0  0
  -29.1554  -20.8444   19.9278 N   0  0  0  0  0  0  0  0  0  0  0  0
  -29.6710  -21.8648   19.2213 N   0  0  0  0  0  0  0  0  0  0  0  0
  -20.3656  -21.8863   19.6779 N   0  0  0  0  0  0  0  0  0  0  0  0
  -27.5116  -24.7465   20.4950 N   0  0  0  0  0  0  0  0  0  0  0  0
  -31.1157  -22.3709   17.4137 N   0  0  0  0  0  0  0  0  0  0  0  0
  -32.6130  -18.9048   17.7865 N   0  0  0  0  0  0  0  0  0  0  0  0
  -23.2635  -21.3864   21.8340 N   0  0  0  0  0  0  0  0  0  0  0  0
  -18.2429  -20.8448   17.2557 N   0  0  0  0  0  0  0  0  0  0  0  0
  -26.1540  -26.6745   20.3016 N   0  0  0  0  0  0  0  0  0  0  0  0
  -14.7656  -21.6992   17.7517 N   0  3  0  0  0  0  0  0  0  0  0  0
  -30.8448  -18.8107   16.3293 O   0  0  0  0  0  0  0  0  0  0  0  0
  -22.9020  -22.2059   19.6845 O   0  0  0  0  0  0  0  0  0  0  0  0
  -20.2086  -19.6684   18.9762 O   0  0  0  0  0  0  0  0  0  0  0  0
  -17.2397  -22.9353   17.2347 O   0  0  0  0  0  0  0  0  0  0  0  0
  -25.6921  -24.8048   19.0582 O   0  0  0  0  0  0  0  0  0  0  0  0
  -28.4716  -14.6479   21.2267 O   0  0  0  0  0  0  0  0  0  0  0  0
  -19.8246  -27.8448   21.1802 O   0  0  0  0  0  0  0  0  0  1  0  0
  -29.7395  -10.3649   17.9936 F   0  0  0  0  0  0  0  0  0  0  0  0
  -26.5101  -12.9192   20.3285 F   0  0  0  0  0  0  0  0  0  0  0  0
  1  2  1  0  0  0  0
  1  5  2  0  0  0  0
  2  6  2  0  0  0  0
  3  8  2  0  0  0  0
  3 17  1  0  0  0  0
  4  9  1  0  0  0  0
  4 17  2  0  0  0  0
  5 19  1  0  0  0  0
  6 21  1  0  0  0  0
  7 10  2  0  0  0  0
  7 20  1  0  0  0  0
  8 27  1  0  0  0  0
  9 27  2  0  0  0  0
 10 28  1  0  0  0  0
 11 12  2  0  0  0  0
 11 29  1  0  0  0  0
 12 30  1  0  0  0  0
 13 22  1  0  0  0  0
 13 28  2  0  0  0  0
 14 23  1  0  0  0  0
 14 24  2  0  0  0  0
 15 23  2  0  0  0  0
 15 25  1  0  0  0  0
 16 30  2  0  0  0  0
 16 31  1  0  0  0  0
 17 32  1  0  0  0  0
 18 32  1  0  0  0  0
 18 33  2  0  0  0  0
 18 34  1  0  0  0  0
 19 21  2  0  0  0  0
 19 39  1  0  0  0  0
 20 22  2  0  0  0  0
 20 40  1  0  0  0  0
 21 48  1  0  0  0  0
 22 41  1  0  0  0  0
 23 58  1  0  0  0  0
 24 26  1  0  0  0  0
 24 51  1  0  0  0  0
 25 26  2  0  0  0  0
 25 59  1  0  0  0  0
 26 52  1  0  0  0  0
 27 81  1  0  0  0  0
 28 82  1  0  0  0  0
 29 31  2  0  0  0  0
 29 81  1  0  0  0  0
 30 83  1  0  0  0  0
 31 84  1  0  0  0  0
 32 66  2  0  0  0  0
 33 67  1  0  0  0  0
 33 70  1  0  0  0  0
 34 71  1  0  0  0  0
 34 76  2  0  0  0  0
 35 49  1  0  0  0  0
 35 72  1  0  0  0  0
 35 77  2  0  0  0  0
 36 63  1  0  0  0  0
 36 68  1  0  0  0  0
 36 78  2  0  0  0  0
 37 64  1  0  0  0  0
 37 73  1  0  0  0  0
 37 79  2  0  0  0  0
 38 69  1  0  0  0  0
 38 74  1  0  0  0  0
 38 80  2  0  0  0  0
 39 42  1  0  0  0  0
 40 49  1  0  0  0  0
 41 68  1  0  0  0  0
 42 44  1  0  0  0  0
 43 45  1  0  0  0  0
 43 46  1  0  0  0  0
 44 48  1  0  0  0  0
 45 50  1  0  0  0  0
 46 69  1  0  0  0  0
 47 50  1  0  0  0  0
 47 69  1  0  0  0  0
 48 72  1  0  0  0  0
 49 68  1  0  0  0  0
 50 67  1  0  0  0  0
 53 64  1  0  0  0  0
 54 65  1  0  0  0  0
 55 65  1  0  0  0  0
 56 65  1  0  0  0  0
 57 75  1  0  0  0  0
 58 60  1  0  0  0  0
 59 74  1  0  0  0  0
 60 61  1  0  0  0  0
 61 62  1  0  0  0  0
 62 82  1  0  0  0  0
 63 65  1  0  0  0  0
 63 73  1  0  0  0  0
 64 75  1  0  0  0  0
 66 67  1  0  0  0  0
M  CHG  1  75   1
M  ISO  4  38 100  62 101  74 100  82 101
M  END
> <Batch ID>
0035

> <Smiles>
CNC(C)C(=O)NC(C(=O)N1Cc2cc([101O:1][101CH2:1]CCCc3cc(C)c(C)c(C[100NH:0][100C:0](=O)N4CCCC(n5nc(-c6ccc(Oc7ccc(F)cc7F)cc6)c(C(N)=O)c5N)C4)c3)ccc2CC1C(=O)NC1CCCc2ccccc21)C(C)(C)C

> <Shape>
0.211

> <Color>
0.053

> <Negative vol penalty>
0.000

$$$$

  -OEChem-04052316533D

 87 95  0     1  0  0  0  0  0999 V2000
  -29.1342   -9.5427   26.9429 C   0  0  0  0  0  0  0  0  0  0  0  0
  -28.0640  -10.4133   26.7636 C   0  0  0  0  0  0  0  0  0  0  0  0
  -30.1234  -24.0563   19.8457 C   0  0  0  0  0  0  0  0  0  0  0  0
  -27.9004  -23.5743   19.0315 C   0  0  0  0  0  0  0  0  0  0  0  0
  -30.1725   -9.5155   26.0128 C   0  0  0  0  0  0  0  0  0  0  0  0
  -28.0320  -11.2580   25.6546 C   0  0  0  0  0  0  0  0  0  0  0  0
  -23.0775  -13.0453   22.5298 C   0  0  0  0  0  0  0  0  0  0  0  0
  -30.3480  -22.6934   20.0393 C   0  0  0  0  0  0  0  0  0  0  0  0
  -28.1250  -22.2113   19.2250 C   0  0  0  0  0  0  0  0  0  0  0  0
  -22.3098  -14.2083   22.5739 C   0  0  0  0  0  0  0  0  0  0  0  0
  -28.1375  -20.0307   21.8087 C   0  0  0  0  0  0  0  0  0  0  0  0
  -27.1271  -19.2876   22.4192 C   0  0  0  0  0  0  0  0  0  0  0  0
  -23.5749  -15.1063   20.7267 C   0  0  0  0  0  0  0  0  0  0  0  0
  -21.6380  -21.0608   24.8860 C   0  0  0  0  0  0  0  0  0  0  0  0
  -26.9701  -17.8883   20.4559 C   0  0  0  0  0  0  0  0  0  0  0  0
  -19.4264  -21.0118   24.0124 C   0  0  0  0  0  0  0  0  0  0  0  0
  -28.8995  -24.4968   19.3419 C   0  0  0  0  0  0  0  0  0  0  0  0
  -28.9300  -26.6534   17.9795 C   0  0  0  0  0  0  0  0  0  0  0  0
  -30.1485  -10.3534   24.8867 C   0  0  0  0  0  0  0  0  0  0  0  0
  -24.1086  -12.9084   21.5893 C   0  0  0  0  0  0  0  0  0  0  0  0
  -29.0716  -11.2429   24.7093 C   0  0  0  0  0  0  0  0  0  0  0  0
  -24.3526  -13.9395   20.6710 C   0  0  0  0  0  0  0  0  0  0  0  0
  -20.5585  -20.3218   24.4150 C   0  0  0  0  0  0  0  0  0  0  0  0
  -29.3489  -21.7709   19.7289 C   0  0  0  0  0  0  0  0  0  0  0  0
  -22.5603  -15.2401   21.6741 C   0  0  0  0  0  0  0  0  0  0  0  0
  -28.5641  -19.7026   20.5218 C   0  0  0  0  0  0  0  0  0  0  0  0
  -26.5435  -18.2164   21.7428 C   0  0  0  0  0  0  0  0  0  0  0  0
  -27.9805  -18.6314   19.8455 C   0  0  0  0  0  0  0  0  0  0  0  0
  -21.5536  -22.4477   24.9392 C   0  0  0  0  0  0  0  0  0  0  0  0
  -28.6667  -25.9047   19.1422 C   0  0  0  0  0  0  0  0  0  0  0  0
  -20.3771  -23.0425   24.5129 C   0  0  0  0  0  0  0  0  0  0  0  0
  -28.5360  -27.9303   18.2969 C   0  0  0  0  0  0  0  0  0  0  0  0
  -29.4813  -26.2323   16.7248 C   0  0  0  0  0  0  0  0  0  0  0  0
  -27.2596  -12.5246   21.7552 C   0  0  0  0  0  0  0  0  0  0  0  0
  -26.9946  -12.1757   18.5411 C   0  0  0  0  0  0  0  0  0  0  0  0
  -25.2183  -12.8030   15.6954 C   0  0  0  0  0  0  0  0  0  0  0  0
  -24.6040  -30.1217   22.2451 C   0  0  0  0  0  0  0  0  0  0  0  0
  -31.3168  -10.3219   23.9335 C   0  0  0  0  0  0  0  0  0  0  0  0
  -24.9102  -11.6367   21.5373 C   0  0  0  0  0  0  0  0  0  0  0  0
  -25.4346  -13.8336   19.6286 C   0  0  0  0  0  0  0  0  0  0  0  0
  -31.0238  -10.9826   22.5888 C   0  0  0  0  0  0  0  0  0  0  0  0
  -28.0743  -30.8879   22.0292 C   0  0  0  0  0  0  0  0  0  0  0  0
  -30.3361  -12.3286   22.7940 C   0  0  0  0  0  0  0  0  0  0  0  0
  -28.6434  -29.7652   21.1599 C   0  0  0  0  0  0  0  0  0  0  0  0
  -26.9648  -30.3825   22.9487 C   0  0  0  0  0  0  0  0  0  0  0  0
  -26.4421  -28.5416   21.3958 C   0  0  0  0  0  0  0  0  0  0  0  0
  -28.9888  -12.1570   23.5060 C   0  0  1  0  0  0  0  0  0  0  0  0
  -26.2717  -11.8153   20.8728 C   0  0  1  0  0  0  0  0  0  0  0  0
  -27.5257  -29.0141   20.4116 C   0  0  2  0  0  0  0  0  0  0  0  0
  -25.2724  -12.4232   13.2155 C   0  0  0  0  0  0  0  0  0  0  0  0
  -29.1106  -14.3554   18.2558 C   0  0  0  0  0  0  0  0  0  0  0  0
  -28.4389  -14.5963   15.8560 C   0  0  0  0  0  0  0  0  0  0  0  0
  -29.3729  -12.4338   16.6768 C   0  0  0  0  0  0  0  0  0  0  0  0
  -22.6897  -11.2664   15.7586 C   0  0  0  0  0  0  0  0  0  0  0  0
  -20.6177  -18.8167   24.3452 C   0  0  0  0  0  0  0  0  0  0  0  0
  -20.2146  -24.5278   24.5422 C   0  0  0  0  0  0  0  0  0  0  0  0
  -21.1538  -18.2825   23.0153 C   0  0  0  0  0  0  0  0  0  0  0  0
  -20.9503  -25.2674   23.4117 C   0  0  0  0  0  0  0  0  0  0  0  0
  -20.8184  -26.7904   23.5131 C   0  0  0  0  0  0  0  0  0  0  0  0
  -21.5847  -27.4894   22.3873 C   0  0  0  0  0  0  0  0  0  0  0  0
  -21.4853  -29.0127   22.5116 C   0  0  0  0  0  0  0  0  0  0  0  0
  -22.2877  -29.7417   21.4390 C   0  0  0  0  0  0  0  0  0  0  0  0
  -21.2905  -16.7646   22.9854 C   0  0  0  0  0  0  0  0  0  1  0  0
  -27.0342  -13.1116   17.3572 C   0  0  1  0  0  0  0  0  0  0  0  0
  -24.7868  -11.8964   14.5569 C   0  0  2  0  0  0  0  0  0  0  0  0
  -28.4700  -13.6274   17.0572 C   0  0  0  0  0  0  0  0  0  0  0  0
  -19.3075  -22.3579   24.0493 N   0  0  0  0  0  0  0  0  0  0  0  0
  -28.1458  -26.6443   20.1249 N   0  0  0  0  0  0  0  0  0  0  0  0
  -28.0788  -27.8712   19.5805 N   0  0  0  0  0  0  0  0  0  0  0  0
  -26.1952  -12.5731   19.6222 N   0  0  0  0  0  0  0  0  0  0  0  0
  -25.9360  -29.6812   22.1769 N   0  0  0  0  0  0  0  0  0  0  0  0
  -28.5396  -29.0867   17.6004 N   0  0  0  0  0  0  0  0  0  0  0  0
  -29.8319  -24.8844   16.5678 N   0  0  0  0  0  0  0  0  0  0  0  0
  -27.9837  -11.6837   22.5786 N   0  0  0  0  0  0  0  0  0  0  0  0
  -26.4132  -12.3944   16.2489 N   0  0  0  0  0  0  0  0  0  0  0  0
  -23.6935  -29.4053   21.4779 N   0  0  0  0  0  0  0  0  0  0  0  0
  -23.3007  -11.7936   14.5113 N   0  3  0  0  0  0  0  0  0  0  0  0
  -29.6731  -27.0310   15.7768 O   0  0  0  0  0  0  0  0  0  0  0  0
  -27.3587  -13.7444   21.6924 O   0  0  0  0  0  0  0  0  0  0  0  0
  -27.6433  -11.1271   18.5049 O   0  0  0  0  0  0  0  0  0  0  0  0
  -24.5629  -13.7786   16.0551 O   0  0  0  0  0  0  0  0  0  0  0  0
  -24.2531  -31.0855   22.9342 O   0  0  0  0  0  0  0  0  0  0  0  0
  -29.5678  -20.4408   19.9174 O   0  0  0  0  0  0  0  0  0  0  0  0
  -21.8129  -16.3766   21.7154 O   0  0  0  0  0  0  0  0  0  1  0  0
  -25.5743  -17.5020   22.3297 F   0  0  0  0  0  0  0  0  0  0  0  0
  -28.3870  -18.3107   18.6094 F   0  0  0  0  0  0  0  0  0  0  0  0
  -22.8910  -23.3598   25.5215 Cl  0  0  0  0  0  0  0  0  0  0  0  0
  1  2  1  0  0  0  0
  1  5  2  0  0  0  0
  2  6  2  0  0  0  0
  3  8  2  0  0  0  0
  3 17  1  0  0  0  0
  4  9  1  0  0  0  0
  4 17  2  0  0  0  0
  5 19  1  0  0  0  0
  6 21  1  0  0  0  0
  7 10  2  0  0  0  0
  7 20  1  0  0  0  0
  8 24  1  0  0  0  0
  9 24  2  0  0  0  0
 10 25  1  0  0  0  0
 11 12  2  0  0  0  0
 11 26  1  0  0  0  0
 12 27  1  0  0  0  0
 13 22  1  0  0  0  0
 13 25  2  0  0  0  0
 14 23  2  0  0  0  0
 14 29  1  0  0  0  0
 15 27  2  0  0  0  0
 15 28  1  0  0  0  0
 16 23  1  0  0  0  0
 16 67  2  0  0  0  0
 17 30  1  0  0  0  0
 18 30  1  0  0  0  0
 18 32  2  0  0  0  0
 18 33  1  0  0  0  0
 19 21  2  0  0  0  0
 19 38  1  0  0  0  0
 20 22  2  0  0  0  0
 20 39  1  0  0  0  0
 21 47  1  0  0  0  0
 22 40  1  0  0  0  0
 23 55  1  0  0  0  0
 24 83  1  0  0  0  0
 25 84  1  0  0  0  0
 26 28  2  0  0  0  0
 26 83  1  0  0  0  0
 27 85  1  0  0  0  0
 28 86  1  0  0  0  0
 29 31  2  0  0  0  0
 29 87  1  0  0  0  0
 30 68  2  0  0  0  0
 31 56  1  0  0  0  0
 31 67  1  0  0  0  0
 32 69  1  0  0  0  0
 32 72  1  0  0  0  0
 33 73  1  0  0  0  0
 33 78  2  0  0  0  0
 34 48  1  0  0  0  0
 34 74  1  0  0  0  0
 34 79  2  0  0  0  0
 35 64  1  0  0  0  0
 35 70  1  0  0  0  0
 35 80  2  0  0  0  0
 36 65  1  0  0  0  0
 36 75  1  0  0  0  0
 36 81  2  0  0  0  0
 37 71  1  0  0  0  0
 37 76  1  0  0  0  0
 37 82  2  0  0  0  0
 38 41  1  0  0  0  0
 39 48  1  0  0  0  0
 40 70  1  0  0  0  0
 41 43  1  0  0  0  0
 42 44  1  0  0  0  0
 42 45  1  0  0  0  0
 43 47  1  0  0  0  0
 44 49  1  0  0  0  0
 45 71  1  0  0  0  0
 46 49  1  0  0  0  0
 46 71  1  0  0  0  0
 47 74  1  0  0  0  0
 48 70  1  0  0  0  0
 49 69  1  0  0  0  0
 50 65  1  0  0  0  0
 51 66  1  0  0  0  0
 52 66  1  0  0  0  0
 53 66  1  0  0  0  0
 54 77  1  0  0  0  0
 55 57  1  0  0  0  0
 56 58  1  0  0  0  0
 57 63  1  0  0  0  0
 58 59  1  0  0  0  0
 59 60  1  0  0  0  0
 60 61  1  0  0  0  0
 61 62  1  0  0  0  0
 62 76  1  0  0  0  0
 63 84  1  0  0  0  0
 64 66  1  0  0  0  0
 64 75  1  0  0  0  0
 65 77  1  0  0  0  0
 68 69  1  0  0  0  0
M  CHG  1  77   1
M  ISO  4  37 100  63 101  76 100  84 101
M  END
> <Batch ID>
0035

> <Smiles>
CNC(C)C(=O)NC(C(=O)N1Cc2cc([101O:1][101CH2:1]CCc3cnc(CCCCCC[100NH:0][100C:0](=O)N4CCCC(n5nc(-c6ccc(Oc7ccc(F)cc7F)cc6)c(C(N)=O)c5N)C4)c(Cl)c3)ccc2CC1C(=O)NC1CCCc2ccccc21)C(C)(C)C

> <Shape>
0.215

> <Color>
0.056

> <Negative vol penalty>
0.000

$$$$

  -OEChem-04052316533D

 81 89  0     1  0  0  0  0  0999 V2000
  -19.9119  -28.7910   25.8937 C   0  0  0  0  0  0  0  0  0  0  0  0
  -21.2335  -28.3624   25.8225 C   0  0  0  0  0  0  0  0  0  0  0  0
  -24.5744  -14.3127   21.3531 C   0  0  0  0  0  0  0  0  0  0  0  0
  -26.9660  -13.9735   21.3074 C   0  0  0  0  0  0  0  0  0  0  0  0
  -19.0831  -28.6797   24.7780 C   0  0  0  0  0  0  0  0  0  0  0  0
  -21.7268  -27.8212   24.6359 C   0  0  0  0  0  0  0  0  0  0  0  0
  -27.4044  -28.3889   22.4113 C   0  0  0  0  0  0  0  0  0  0  0  0
  -32.7242  -23.5161   22.7339 C   0  0  0  0  0  0  0  0  0  0  0  0
  -32.6948  -22.1220   22.7679 C   0  0  0  0  0  0  0  0  0  0  0  0
  -24.3833  -13.0362   20.8243 C   0  0  0  0  0  0  0  0  0  0  0  0
  -26.7749  -12.6970   20.7787 C   0  0  0  0  0  0  0  0  0  0  0  0
  -28.5153  -27.5475   22.4496 C   0  0  0  0  0  0  0  0  0  0  0  0
  -24.4050   -9.8464   21.9458 C   0  0  0  0  0  0  0  0  0  0  0  0
  -23.4217   -9.0450   22.5259 C   0  0  0  0  0  0  0  0  0  0  0  0
  -27.9401  -26.6985   20.2662 C   0  0  0  0  0  0  0  0  0  0  0  0
  -31.7177  -23.4838   20.5377 C   0  0  0  0  0  0  0  0  0  0  0  0
  -22.2686   -8.9255   20.4062 C   0  0  0  0  0  0  0  0  0  0  0  0
  -25.8658  -14.7814   21.5946 C   0  0  0  0  0  0  0  0  0  0  0  0
  -26.1403  -16.4546   23.5006 C   0  0  0  0  0  0  0  0  0  0  0  0
  -19.5693  -28.1458   23.5742 C   0  0  0  0  0  0  0  0  0  0  0  0
  -26.5454  -28.3836   21.3029 C   0  0  0  0  0  0  0  0  0  0  0  0
  -20.9034  -27.7014   23.5035 C   0  0  0  0  0  0  0  0  0  0  0  0
  -26.8204  -27.5427   20.2151 C   0  0  0  0  0  0  0  0  0  0  0  0
  -32.2356  -24.1971   21.6188 C   0  0  0  0  0  0  0  0  0  0  0  0
  -32.1769  -21.4088   21.6868 C   0  0  0  0  0  0  0  0  0  0  0  0
  -31.6884  -22.0897   20.5717 C   0  0  0  0  0  0  0  0  0  0  0  0
  -25.4835  -12.2283   20.5371 C   0  0  0  0  0  0  0  0  0  0  0  0
  -28.7817  -26.7000   21.3782 C   0  0  0  0  0  0  0  0  0  0  0  0
  -24.3200  -10.1875   20.5960 C   0  0  0  0  0  0  0  0  0  0  0  0
  -22.3536   -8.5845   21.7561 C   0  0  0  0  0  0  0  0  0  0  0  0
  -23.2518   -9.7270   19.8262 C   0  0  0  0  0  0  0  0  0  0  0  0
  -26.0639  -16.1001   22.1403 C   0  0  0  0  0  0  0  0  0  0  0  0
  -26.3338  -17.8143   23.4907 C   0  0  0  0  0  0  0  0  0  0  0  0
  -26.0450  -15.6286   24.6686 C   0  0  0  0  0  0  0  0  0  0  0  0
  -23.4736  -27.7040   20.8489 C   0  0  0  0  0  0  0  0  0  0  0  0
  -24.0812  -28.7782   17.8490 C   0  0  0  0  0  0  0  0  0  0  0  0
  -26.3724  -29.3525   15.3858 C   0  0  0  0  0  0  0  0  0  0  0  0
  -28.6585  -21.5729   19.4509 C   0  0  0  0  0  0  0  0  0  0  0  0
  -18.6224  -28.0019   22.4091 C   0  0  0  0  0  0  0  0  0  0  0  0
  -25.3662  -29.3167   21.2654 C   0  0  0  0  0  0  0  0  0  0  0  0
  -25.9406  -27.5137   18.9930 C   0  0  0  0  0  0  0  0  0  0  0  0
  -19.3280  -27.7628   21.0767 C   0  0  0  0  0  0  0  0  0  0  0  0
  -25.3988  -21.7107   20.8763 C   0  0  0  0  0  0  0  0  0  0  0  0
  -20.4049  -26.6931   21.2274 C   0  0  0  0  0  0  0  0  0  0  0  0
  -25.2065  -20.3204   21.4846 C   0  0  0  0  0  0  0  0  0  0  0  0
  -26.1854  -21.6507   19.5687 C   0  0  0  0  0  0  0  0  0  0  0  0
  -27.2877  -19.5592   20.2647 C   0  0  0  0  0  0  0  0  0  0  0  0
  -21.4823  -27.1318   22.2265 C   0  0  1  0  0  0  0  0  0  0  0  0
  -24.2709  -28.8571   20.3081 C   0  0  1  0  0  0  0  0  0  0  0  0
  -26.5481  -19.5743   21.6135 C   0  0  2  0  0  0  0  0  0  0  0  0
  -32.1569  -19.9166   21.7456 C   0  0  0  0  0  0  0  0  0  0  0  0
  -26.5634  -30.2016   13.0321 C   0  0  0  0  0  0  0  0  0  0  0  0
  -22.9336  -26.1489   16.8098 C   0  0  0  0  0  0  0  0  0  0  0  0
  -24.0012  -26.6375   14.5985 C   0  0  0  0  0  0  0  0  0  0  0  0
  -22.2552  -28.1715   15.5047 C   0  0  0  0  0  0  0  0  0  0  0  0
  -28.1605  -31.5638   16.2055 C   0  0  0  0  0  0  0  0  0  0  0  0
  -32.2680  -25.7057   21.5820 C   0  0  0  0  0  0  0  0  0  0  0  0
  -31.1295  -21.3472   19.4025 C   0  0  0  0  0  0  0  0  0  0  0  0
  -30.9986  -26.3270   22.1543 C   0  0  0  0  0  0  0  0  0  1  0  0
  -24.5517  -28.1455   16.5617 C   0  0  1  0  0  0  0  0  0  0  0  0
  -26.6249  -30.5647   14.5077 C   0  0  2  0  0  0  0  0  0  0  0  0
  -23.4511  -27.2748   15.8924 C   0  0  0  0  0  0  0  0  0  0  0  0
  -26.1977  -17.1500   21.3256 N   0  0  0  0  0  0  0  0  0  0  0  0
  -26.3601  -18.1776   22.1764 N   0  0  0  0  0  0  0  0  0  0  0  0
  -24.7963  -28.4399   19.0065 N   0  0  0  0  0  0  0  0  0  0  0  0
  -27.4474  -20.9319   19.7597 N   0  0  0  0  0  0  0  0  0  0  0  0
  -26.4821  -18.7228   24.4782 N   0  0  0  0  0  0  0  0  0  0  0  0
  -25.8458  -14.2517   24.4988 N   0  0  0  0  0  0  0  0  0  0  0  0
  -22.3851  -28.0813   21.6119 N   0  0  0  0  0  0  0  0  0  0  0  0
  -25.0412  -29.2363   15.7257 N   0  0  0  0  0  0  0  0  0  0  0  0
  -29.8082  -20.8230   19.6670 N   0  0  0  0  0  0  0  0  0  0  0  0
  -27.9690  -31.1410   14.7942 N   0  3  0  0  0  0  0  0  0  0  0  0
  -26.1175  -16.0999   25.8288 O   0  0  0  0  0  0  0  0  0  0  0  0
  -23.8196  -26.5569   20.5916 O   0  0  0  0  0  0  0  0  0  0  0  0
  -23.1192  -29.5500   17.8271 O   0  0  0  0  0  0  0  0  0  0  0  0
  -27.2661  -28.5832   15.7323 O   0  0  0  0  0  0  0  0  0  0  0  0
  -28.7117  -22.7298   19.0201 O   0  0  0  0  0  0  0  0  0  0  0  0
  -25.2974  -10.9826   20.0213 O   0  0  0  0  0  0  0  0  0  0  0  0
  -29.8651  -25.8771   21.4134 O   0  0  0  0  0  0  0  0  0  1  0  0
  -21.4102   -7.8136   22.3130 F   0  0  0  0  0  0  0  0  0  0  0  0
  -23.1654  -10.0504   18.5286 F   0  0  0  0  0  0  0  0  0  0  0  0
  1  2  1  0  0  0  0
  1  5  2  0  0  0  0
  2  6  2  0  0  0  0
  3 10  2  0  0  0  0
  3 18  1  0  0  0  0
  4 11  1  0  0  0  0
  4 18  2  0  0  0  0
  5 20  1  0  0  0  0
  6 22  1  0  0  0  0
  7 12  2  0  0  0  0
  7 21  1  0  0  0  0
  8  9  2  0  0  0  0
  8 24  1  0  0  0  0
  9 25  1  0  0  0  0
 10 27  1  0  0  0  0
 11 27  2  0  0  0  0
 12 28  1  0  0  0  0
 13 14  2  0  0  0  0
 13 29  1  0  0  0  0
 14 30  1  0  0  0  0
 15 23  1  0  0  0  0
 15 28  2  0  0  0  0
 16 24  2  0  0  0  0
 16 26  1  0  0  0  0
 17 30  2  0  0  0  0
 17 31  1  0  0  0  0
 18 32  1  0  0  0  0
 19 32  1  0  0  0  0
 19 33  2  0  0  0  0
 19 34  1  0  0  0  0
 20 22  2  0  0  0  0
 20 39  1  0  0  0  0
 21 23  2  0  0  0  0
 21 40  1  0  0  0  0
 22 48  1  0  0  0  0
 23 41  1  0  0  0  0
 24 57  1  0  0  0  0
 25 26  2  0  0  0  0
 25 51  1  0  0  0  0
 26 58  1  0  0  0  0
 27 78  1  0  0  0  0
 28 79  1  0  0  0  0
 29 31  2  0  0  0  0
 29 78  1  0  0  0  0
 30 80  1  0  0  0  0
 31 81  1  0  0  0  0
 32 63  2  0  0  0  0
 33 64  1  0  0  0  0
 33 67  1  0  0  0  0
 34 68  1  0  0  0  0
 34 73  2  0  0  0  0
 35 49  1  0  0  0  0
 35 69  1  0  0  0  0
 35 74  2  0  0  0  0
 36 60  1  0  0  0  0
 36 65  1  0  0  0  0
 36 75  2  0  0  0  0
 37 61  1  0  0  0  0
 37 70  1  0  0  0  0
 37 76  2  0  0  0  0
 38 66  1  0  0  0  0
 38 71  1  0  0  0  0
 38 77  2  0  0  0  0
 39 42  1  0  0  0  0
 40 49  1  0  0  0  0
 41 65  1  0  0  0  0
 42 44  1  0  0  0  0
 43 45  1  0  0  0  0
 43 46  1  0  0  0  0
 44 48  1  0  0  0  0
 45 50  1  0  0  0  0
 46 66  1  0  0  0  0
 47 50  1  0  0  0  0
 47 66  1  0  0  0  0
 48 69  1  0  0  0  0
 49 65  1  0  0  0  0
 50 64  1  0  0  0  0
 52 61  1  0  0  0  0
 53 62  1  0  0  0  0
 54 62  1  0  0  0  0
 55 62  1  0  0  0  0
 56 72  1  0  0  0  0
 57 59  1  0  0  0  0
 58 71  1  0  0  0  0
 59 79  1  0  0  0  0
 60 62  1  0  0  0  0
 60 70  1  0  0  0  0
 61 72  1  0  0  0  0
 63 64  1  0  0  0  0
M  CHG  1  72   1
M  ISO  4  38 100  59 101  71 100  79 101
M  END
> <Batch ID>
0035

> <Smiles>
CNC(C)C(=O)NC(C(=O)N1Cc2cc([101O:1][101CH2:1]Cc3ccc(C)c(C[100NH:0][100C:0](=O)N4CCCC(n5nc(-c6ccc(Oc7ccc(F)cc7F)cc6)c(C(N)=O)c5N)C4)c3)ccc2CC1C(=O)NC1CCCc2ccccc21)C(C)(C)C

> <Shape>
0.200

> <Color>
0.078

> <Negative vol penalty>
0.000

$$$$

  -OEChem-04052316533D

 85 94  0     1  0  0  0  0  0999 V2000
  -28.2807  -11.0933   20.7894 C   0  0  0  0  0  0  0  0  0  0  0  0
  -28.7985  -12.3234   20.3968 C   0  0  0  0  0  0  0  0  0  0  0  0
  -19.6186  -28.4356   23.3248 C   0  0  0  0  0  0  0  0  0  0  0  0
  -21.0893  -26.7103   22.4895 C   0  0  0  0  0  0  0  0  0  0  0  0
  -26.9004  -10.9081   20.8548 C   0  0  0  0  0  0  0  0  0  0  0  0
  -27.9361  -13.3688   20.0683 C   0  0  0  0  0  0  0  0  0  0  0  0
  -28.8391  -19.3415   21.0772 C   0  0  0  0  0  0  0  0  0  0  0  0
  -18.5530  -27.8638   22.6297 C   0  0  0  0  0  0  0  0  0  0  0  0
  -20.0236  -26.1384   21.7945 C   0  0  0  0  0  0  0  0  0  0  0  0
  -29.2919  -20.3734   20.2564 C   0  0  0  0  0  0  0  0  0  0  0  0
  -16.4427  -25.2504   23.0163 C   0  0  0  0  0  0  0  0  0  0  0  0
  -15.2295  -25.1108   23.6903 C   0  0  0  0  0  0  0  0  0  0  0  0
  -28.4979  -27.8063   19.6251 C   0  0  0  0  0  0  0  0  0  0  0  0
  -27.0084  -20.9855   19.7764 C   0  0  0  0  0  0  0  0  0  0  0  0
  -29.8791  -27.5879   21.5893 C   0  0  0  0  0  0  0  0  0  0  0  0
  -14.1524  -26.5100   22.0413 C   0  0  0  0  0  0  0  0  0  0  0  0
  -20.8868  -27.8589   23.2546 C   0  0  0  0  0  0  0  0  0  0  0  0
  -22.3978  -28.1614   25.2876 C   0  0  0  0  0  0  0  0  0  0  0  0
  -26.0207  -11.9547   20.5363 C   0  0  0  0  0  0  0  0  0  0  0  0
  -27.4652  -19.1165   21.2455 C   0  0  0  0  0  0  0  0  0  0  0  0
  -26.5427  -13.1970   20.1282 C   0  0  0  0  0  0  0  0  0  0  0  0
  -28.5817  -26.4235   19.3670 C   0  0  0  0  0  0  0  0  0  0  0  0
  -26.5408  -19.9516   20.6019 C   0  0  0  0  0  0  0  0  0  0  0  0
  -29.3112  -25.6211   20.2707 C   0  0  0  0  0  0  0  0  0  0  0  0
  -29.1415  -28.3823   20.7216 C   0  0  0  0  0  0  0  0  0  0  0  0
  -29.9643  -26.2165   21.3648 C   0  0  0  0  0  0  0  0  0  0  0  0
  -18.7555  -26.7152   21.8646 C   0  0  0  0  0  0  0  0  0  0  0  0
  -28.3765  -21.1938   19.6035 C   0  0  0  0  0  0  0  0  0  0  0  0
  -16.5108  -26.0199   21.8549 C   0  0  0  0  0  0  0  0  0  0  0  0
  -14.0843  -25.7406   23.2028 C   0  0  0  0  0  0  0  0  0  0  0  0
  -15.3657  -26.6496   21.3673 C   0  0  0  0  0  0  0  0  0  0  0  0
  -21.9881  -28.4494   23.9719 C   0  0  0  0  0  0  0  0  0  0  0  0
  -23.4798  -28.9810   25.4974 C   0  0  0  0  0  0  0  0  0  0  0  0
  -21.8494  -27.2358   26.2353 C   0  0  0  0  0  0  0  0  0  0  0  0
  -25.4924  -16.7067   20.6094 C   0  0  0  0  0  0  0  0  0  0  0  0
  -23.3443  -18.5635   22.1780 C   0  0  0  0  0  0  0  0  0  0  0  0
  -21.8290  -21.7325   23.0021 C   0  0  0  0  0  0  0  0  0  0  0  0
  -27.4293  -31.5466   21.8000 C   0  0  0  0  0  0  0  0  0  0  0  0
  -24.5360  -11.6926   20.5762 C   0  0  0  0  0  0  0  0  0  0  0  0
  -26.9930  -18.0159   22.1555 C   0  0  0  0  0  0  0  0  0  0  0  0
  -29.4650  -24.1339   20.0860 C   0  0  0  0  0  0  0  0  0  0  0  0
  -25.0552  -19.7647   20.7655 C   0  0  0  0  0  0  0  0  0  0  0  0
  -23.6926  -12.9649   20.5728 C   0  0  0  0  0  0  0  0  0  0  0  0
  -25.3086  -33.1890   24.1413 C   0  0  0  0  0  0  0  0  0  0  0  0
  -24.1941  -13.9350   19.5077 C   0  0  0  0  0  0  0  0  0  0  0  0
  -24.2541  -32.1346   24.4821 C   0  0  0  0  0  0  0  0  0  0  0  0
  -28.3226  -24.3650   17.8844 C   0  0  0  0  0  0  0  0  0  0  0  0
  -25.7246  -33.1173   22.6738 C   0  0  0  0  0  0  0  0  0  0  0  0
  -25.1156  -30.7319   22.5614 C   0  0  0  0  0  0  0  0  0  0  0  0
  -25.6397  -14.3628   19.7879 C   0  0  1  0  0  0  0  0  0  0  0  0
  -25.5718  -17.5545   21.8474 C   0  0  1  0  0  0  0  0  0  0  0  0
  -24.7053  -30.7283   24.0440 C   0  0  2  0  0  0  0  0  0  0  0  0
  -28.4231  -23.5288   19.1534 C   0  0  1  0  0  0  0  0  0  1  0  0
  -27.8521  -25.8145   18.1632 C   0  0  0  0  0  0  0  0  0  0  0  0
  -30.7825  -25.4098   22.3244 C   0  0  0  0  0  0  0  0  0  0  0  0
  -26.3347  -25.8208   18.4486 C   0  0  0  0  0  0  0  0  0  0  0  0
  -28.1098  -26.6231   16.8713 C   0  0  0  0  0  0  0  0  0  0  0  0
  -19.9889  -22.2909   24.6144 C   0  0  0  0  0  0  0  0  0  0  0  0
  -21.5239  -18.2961   19.7439 C   0  0  0  0  0  0  0  0  0  0  0  0
  -20.1978  -20.2352   20.6096 C   0  0  0  0  0  0  0  0  0  0  0  0
  -20.3508  -18.1349   21.9467 C   0  0  0  0  0  0  0  0  0  0  0  0
  -23.5110  -23.7160   24.4146 C   0  0  0  0  0  0  0  0  0  0  0  0
  -29.0352  -29.8505   20.9613 C   0  0  0  0  0  0  0  0  0  0  0  0
  -22.3711  -19.6452   21.7757 C   0  0  1  0  0  0  0  0  0  0  0  0
  -21.4925  -22.2451   24.3907 C   0  0  2  0  0  0  0  0  0  0  0  0
  -21.1388  -19.0804   21.0142 C   0  0  0  0  0  0  0  0  0  0  0  0
  -22.7478  -29.3794   23.3872 N   0  0  0  0  0  0  0  0  0  0  0  0
  -23.6458  -29.6829   24.3399 N   0  0  0  0  0  0  0  0  0  0  0  0
  -24.6430  -18.6710   21.6608 N   0  0  0  0  0  0  0  0  0  0  0  0
  -26.1429  -31.7579   22.3231 N   0  0  0  0  0  0  0  0  0  0  0  0
  -24.2959  -29.1625   26.5573 N   0  0  0  0  0  0  0  0  0  0  0  0
  -20.7370  -26.4720   25.8564 N   0  0  0  0  0  0  0  0  0  0  0  0
  -25.6780  -15.3568   20.8390 N   0  0  0  0  0  0  0  0  0  0  0  0
  -22.0379  -20.3695   22.9975 N   0  0  0  0  0  0  0  0  0  0  0  0
  -27.7475  -30.2277   21.5003 N   0  0  0  0  0  0  0  0  0  0  0  0
  -22.0381  -23.6186   24.5822 N   0  3  0  0  0  0  0  0  0  0  0  0
  -22.3215  -27.1021   27.3898 O   0  0  0  0  0  0  0  0  0  0  0  0
  -25.2771  -17.2379   19.5263 O   0  0  0  0  0  0  0  0  0  0  0  0
  -22.9680  -17.6605   22.9294 O   0  0  0  0  0  0  0  0  0  0  0  0
  -21.8960  -22.4670   22.0190 O   0  0  0  0  0  0  0  0  0  0  0  0
  -28.2364  -32.4646   21.6189 O   0  0  0  0  0  0  0  0  0  0  0  0
  -17.7158  -26.1568   21.1865 O   0  0  0  0  0  0  0  0  0  0  0  0
  -28.8185  -22.2077   18.7962 O   0  0  0  0  0  0  0  0  0  1  0  0
  -12.9190  -25.6052   23.8492 F   0  0  0  0  0  0  0  0  0  0  0  0
  -15.4246  -27.3892   20.2513 F   0  0  0  0  0  0  0  0  0  0  0  0
  1  2  1  0  0  0  0
  1  5  2  0  0  0  0
  2  6  2  0  0  0  0
  3  8  2  0  0  0  0
  3 17  1  0  0  0  0
  4  9  1  0  0  0  0
  4 17  2  0  0  0  0
  5 19  1  0  0  0  0
  6 21  1  0  0  0  0
  7 10  2  0  0  0  0
  7 20  1  0  0  0  0
  8 27  1  0  0  0  0
  9 27  2  0  0  0  0
 10 28  1  0  0  0  0
 11 12  2  0  0  0  0
 11 29  1  0  0  0  0
 12 30  1  0  0  0  0
 13 22  1  0  0  0  0
 13 25  2  0  0  0  0
 14 23  1  0  0  0  0
 14 28  2  0  0  0  0
 15 25  1  0  0  0  0
 15 26  2  0  0  0  0
 16 30  2  0  0  0  0
 16 31  1  0  0  0  0
 17 32  1  0  0  0  0
 18 32  1  0  0  0  0
 18 33  2  0  0  0  0
 18 34  1  0  0  0  0
 19 21  2  0  0  0  0
 19 39  1  0  0  0  0
 20 23  2  0  0  0  0
 20 40  1  0  0  0  0
 21 50  1  0  0  0  0
 22 24  2  0  0  0  0
 22 54  1  0  0  0  0
 23 42  1  0  0  0  0
 24 26  1  0  0  0  0
 24 41  1  0  0  0  0
 25 63  1  0  0  0  0
 26 55  1  0  0  0  0
 27 82  1  0  0  0  0
 28 83  1  0  0  0  0
 29 31  2  0  0  0  0
 29 82  1  0  0  0  0
 30 84  1  0  0  0  0
 31 85  1  0  0  0  0
 32 67  2  0  0  0  0
 33 68  1  0  0  0  0
 33 71  1  0  0  0  0
 34 72  1  0  0  0  0
 34 77  2  0  0  0  0
 35 51  1  0  0  0  0
 35 73  1  0  0  0  0
 35 78  2  0  0  0  0
 36 64  1  0  0  0  0
 36 69  1  0  0  0  0
 36 79  2  0  0  0  0
 37 65  1  0  0  0  0
 37 74  1  0  0  0  0
 37 80  2  0  0  0  0
 38 70  1  0  0  0  0
 38 75  1  0  0  0  0
 38 81  2  0  0  0  0
 39 43  1  0  0  0  0
 40 51  1  0  0  0  0
 41 53  1  0  0  0  0
 42 69  1  0  0  0  0
 43 45  1  0  0  0  0
 44 46  1  0  0  0  0
 44 48  1  0  0  0  0
 45 50  1  0  0  0  0
 46 52  1  0  0  0  0
 47 53  1  0  0  0  0
 47 54  1  0  0  0  0
 48 70  1  0  0  0  0
 49 52  1  0  0  0  0
 49 70  1  0  0  0  0
 50 73  1  0  0  0  0
 51 69  1  0  0  0  0
 52 68  1  0  0  0  0
 53 83  1  0  0  0  0
 54 56  1  0  0  0  0
 54 57  1  0  0  0  0
 58 65  1  0  0  0  0
 59 66  1  0  0  0  0
 60 66  1  0  0  0  0
 61 66  1  0  0  0  0
 62 76  1  0  0  0  0
 63 75  1  0  0  0  0
 64 66  1  0  0  0  0
 64 74  1  0  0  0  0
 65 76  1  0  0  0  0
 67 68  1  0  0  0  0
M  CHG  1  76   1
M  ISO  4  38 100  53 101  75 100  83 101
M  END
> <Batch ID>
0035

> <Smiles>
CNC(C)C(=O)NC(C(=O)N1Cc2cc([101O:1][101CH:1]3Cc4c(C)cc(C[100NH:0][100C:0](=O)N5CCCC(n6nc(-c7ccc(Oc8ccc(F)cc8F)cc7)c(C(N)=O)c6N)C5)cc4C(C)(C)C3)ccc2CC1C(=O)NC1CCCc2ccccc21)C(C)(C)C

> <Shape>
0.237

> <Color>
0.060

> <Negative vol penalty>
0.000

$$$$

  -OEChem-04052316533D

 83 91  0     1  0  0  0  0  0999 V2000
  -24.4669  -15.8159   12.7001 C   0  0  0  0  0  0  0  0  0  0  0  0
  -24.2167  -17.0954   13.1855 C   0  0  0  0  0  0  0  0  0  0  0  0
  -28.7837  -25.0745   19.2842 C   0  0  0  0  0  0  0  0  0  0  0  0
  -26.8783  -23.8510   20.1265 C   0  0  0  0  0  0  0  0  0  0  0  0
  -24.0554  -14.7017   13.4304 C   0  0  0  0  0  0  0  0  0  0  0  0
  -23.5540  -17.2616   14.4010 C   0  0  0  0  0  0  0  0  0  0  0  0
  -23.2936  -21.6399   20.0649 C   0  0  0  0  0  0  0  0  0  0  0  0
  -29.6228  -24.0246   19.6571 C   0  0  0  0  0  0  0  0  0  0  0  0
  -27.7173  -22.8010   20.4993 C   0  0  0  0  0  0  0  0  0  0  0  0
  -22.3779  -22.3736   20.8178 C   0  0  0  0  0  0  0  0  0  0  0  0
  -29.2813  -20.2101   18.9954 C   0  0  0  0  0  0  0  0  0  0  0  0
  -28.8704  -18.9134   18.6870 C   0  0  0  0  0  0  0  0  0  0  0  0
  -21.7837  -20.3753   22.0314 C   0  0  0  0  0  0  0  0  0  0  0  0
  -18.0883  -27.7328   21.8127 C   0  0  0  0  0  0  0  0  0  0  0  0
  -28.8984  -18.3460   21.0353 C   0  0  0  0  0  0  0  0  0  0  0  0
  -27.4114  -24.9878   19.5190 C   0  0  0  0  0  0  0  0  0  0  0  0
  -25.8899  -26.2408   17.8995 C   0  0  0  0  0  0  0  0  0  0  0  0
  -23.3958  -14.8542   14.6602 C   0  0  0  0  0  0  0  0  0  0  0  0
  -23.4536  -20.2639   20.2825 C   0  0  0  0  0  0  0  0  0  0  0  0
  -23.1321  -16.1485   15.1478 C   0  0  0  0  0  0  0  0  0  0  0  0
  -22.7039  -19.6269   21.2816 C   0  0  0  0  0  0  0  0  0  0  0  0
  -18.2613  -26.3723   22.0671 C   0  0  0  0  0  0  0  0  0  0  0  0
  -20.2403  -26.8661   23.3620 C   0  0  0  0  0  0  0  0  0  0  0  0
  -19.3373  -25.9390   22.8417 C   0  0  0  0  0  0  0  0  0  0  0  0
  -20.0673  -28.2266   23.1076 C   0  0  0  0  0  0  0  0  0  0  0  0
  -29.0896  -22.8878   20.2646 C   0  0  0  0  0  0  0  0  0  0  0  0
  -21.6207  -21.7408   21.7993 C   0  0  0  0  0  0  0  0  0  0  0  0
  -29.5009  -20.5748   20.3238 C   0  0  0  0  0  0  0  0  0  0  0  0
  -28.6789  -17.9813   19.7069 C   0  0  0  0  0  0  0  0  0  0  0  0
  -29.3093  -19.6428   21.3437 C   0  0  0  0  0  0  0  0  0  0  0  0
  -18.9913  -28.6600   22.3329 C   0  0  0  0  0  0  0  0  0  0  0  0
  -26.5442  -26.0724   19.1346 C   0  0  0  0  0  0  0  0  0  0  0  0
  -25.1943  -27.4171   18.0371 C   0  0  0  0  0  0  0  0  0  0  0  0
  -25.9091  -25.4083   16.7323 C   0  0  0  0  0  0  0  0  0  0  0  0
  -23.0335  -17.6507   18.5222 C   0  0  0  0  0  0  0  0  0  0  0  0
  -24.3460  -16.1775   21.0970 C   0  0  0  0  0  0  0  0  0  0  0  0
  -24.9948  -16.2313   24.4471 C   0  0  0  0  0  0  0  0  0  0  0  0
  -23.0616  -30.3604   22.7952 C   0  0  0  0  0  0  0  0  0  0  0  0
  -22.9280  -13.6206   15.3909 C   0  0  0  0  0  0  0  0  0  0  0  0
  -24.4648  -19.4918   19.4800 C   0  0  0  0  0  0  0  0  0  0  0  0
  -22.8527  -18.1558   21.5683 C   0  0  0  0  0  0  0  0  0  0  0  0
  -22.5642  -13.8787   16.8508 C   0  0  0  0  0  0  0  0  0  0  0  0
  -25.3350  -31.6017   20.3524 C   0  0  0  0  0  0  0  0  0  0  0  0
  -21.6928  -15.1248   16.9716 C   0  0  0  0  0  0  0  0  0  0  0  0
  -25.8437  -30.3405   19.6518 C   0  0  0  0  0  0  0  0  0  0  0  0
  -25.1156  -31.3683   21.8455 C   0  0  0  0  0  0  0  0  0  0  0  0
  -24.7585  -28.9586   21.4715 C   0  0  0  0  0  0  0  0  0  0  0  0
  -22.4378  -16.3694   16.4742 C   0  0  1  0  0  0  0  0  0  0  0  0
  -24.1755  -17.9946   19.4360 C   0  0  1  0  0  0  0  0  0  0  0  0
  -24.9415  -29.1288   19.9537 C   0  0  2  0  0  0  0  0  0  0  0  0
  -17.2803  -25.4000   21.4984 C   0  0  0  0  0  0  0  0  0  0  0  0
  -21.3939  -26.3994   24.1933 C   0  0  0  0  0  0  0  0  0  0  0  0
  -26.0506  -14.8692   26.2712 C   0  0  0  0  0  0  0  0  0  0  0  0
  -21.9136  -14.3357   21.1261 C   0  0  0  0  0  0  0  0  0  0  0  0
  -22.5373  -13.6638   23.4559 C   0  0  0  0  0  0  0  0  0  0  0  0
  -24.0938  -13.1916   21.5645 C   0  0  0  0  0  0  0  0  0  0  0  0
  -26.9892  -18.3398   25.0263 C   0  0  0  0  0  0  0  0  0  0  0  0
  -19.5217  -24.4660   23.1150 C   0  0  0  0  0  0  0  0  0  0  0  0
  -21.0445  -29.2110   23.6723 C   0  0  0  0  0  0  0  0  0  0  0  0
  -20.6139  -23.8480   22.2488 C   0  0  0  0  0  0  0  0  0  1  0  0
  -23.8087  -15.5708   22.3706 C   0  0  1  0  0  0  0  0  0  0  0  0
  -26.2654  -15.9581   25.2315 C   0  0  2  0  0  0  0  0  0  0  0  0
  -23.0839  -14.2178   22.1228 C   0  0  0  0  0  0  0  0  0  0  0  0
  -26.2874  -27.0625   19.9934 N   0  0  0  0  0  0  0  0  0  0  0  0
  -25.4640  -27.8645   19.2970 N   0  0  0  0  0  0  0  0  0  0  0  0
  -23.8499  -17.4429   20.7528 N   0  0  0  0  0  0  0  0  0  0  0  0
  -24.2505  -30.2063   22.0632 N   0  0  0  0  0  0  0  0  0  0  0  0
  -24.3844  -28.1021   17.2020 N   0  0  0  0  0  0  0  0  0  0  0  0
  -26.6758  -24.2354   16.7608 N   0  0  0  0  0  0  0  0  0  0  0  0
  -23.3830  -16.8246   17.4711 N   0  0  0  0  0  0  0  0  0  0  0  0
  -24.9385  -15.4840   23.2896 N   0  0  0  0  0  0  0  0  0  0  0  0
  -22.2969  -29.2106   22.9496 N   0  0  0  0  0  0  0  0  0  0  0  0
  -26.7178  -17.1935   25.9314 N   0  3  0  0  0  0  0  0  0  0  0  0
  -25.2785  -25.7045   15.6892 O   0  0  0  0  0  0  0  0  0  0  0  0
  -21.9174  -18.1002   18.7545 O   0  0  0  0  0  0  0  0  0  0  0  0
  -25.1807  -15.5549   20.4357 O   0  0  0  0  0  0  0  0  0  0  0  0
  -24.1363  -17.0253   24.8252 O   0  0  0  0  0  0  0  0  0  0  0  0
  -22.7052  -31.4437   23.2710 O   0  0  0  0  0  0  0  0  0  0  0  0
  -29.9080  -21.8629   20.6284 O   0  0  0  0  0  0  0  0  0  0  0  0
  -20.7258  -22.4545   22.5352 O   0  0  0  0  0  0  0  0  0  1  0  0
  -28.2828  -16.7365   19.4107 F   0  0  0  0  0  0  0  0  0  0  0  0
  -29.5175  -19.9876   22.6218 F   0  0  0  0  0  0  0  0  0  0  0  0
  -18.7413  -30.3348   21.9955 Cl  0  0  0  0  0  0  0  0  0  0  0  0
  1  2  1  0  0  0  0
  1  5  2  0  0  0  0
  2  6  2  0  0  0  0
  3  8  2  0  0  0  0
  3 16  1  0  0  0  0
  4  9  1  0  0  0  0
  4 16  2  0  0  0  0
  5 18  1  0  0  0  0
  6 20  1  0  0  0  0
  7 10  2  0  0  0  0
  7 19  1  0  0  0  0
  8 26  1  0  0  0  0
  9 26  2  0  0  0  0
 10 27  1  0  0  0  0
 11 12  2  0  0  0  0
 11 28  1  0  0  0  0
 12 29  1  0  0  0  0
 13 21  1  0  0  0  0
 13 27  2  0  0  0  0
 14 22  2  0  0  0  0
 14 31  1  0  0  0  0
 15 29  2  0  0  0  0
 15 30  1  0  0  0  0
 16 32  1  0  0  0  0
 17 32  1  0  0  0  0
 17 33  2  0  0  0  0
 17 34  1  0  0  0  0
 18 20  2  0  0  0  0
 18 39  1  0  0  0  0
 19 21  2  0  0  0  0
 19 40  1  0  0  0  0
 20 48  1  0  0  0  0
 21 41  1  0  0  0  0
 22 24  1  0  0  0  0
 22 51  1  0  0  0  0
 23 24  2  0  0  0  0
 23 25  1  0  0  0  0
 23 52  1  0  0  0  0
 24 58  1  0  0  0  0
 25 31  2  0  0  0  0
 25 59  1  0  0  0  0
 26 79  1  0  0  0  0
 27 80  1  0  0  0  0
 28 30  2  0  0  0  0
 28 79  1  0  0  0  0
 29 81  1  0  0  0  0
 30 82  1  0  0  0  0
 31 83  1  0  0  0  0
 32 64  2  0  0  0  0
 33 65  1  0  0  0  0
 33 68  1  0  0  0  0
 34 69  1  0  0  0  0
 34 74  2  0  0  0  0
 35 49  1  0  0  0  0
 35 70  1  0  0  0  0
 35 75  2  0  0  0  0
 36 61  1  0  0  0  0
 36 66  1  0  0  0  0
 36 76  2  0  0  0  0
 37 62  1  0  0  0  0
 37 71  1  0  0  0  0
 37 77  2  0  0  0  0
 38 67  1  0  0  0  0
 38 72  1  0  0  0  0
 38 78  2  0  0  0  0
 39 42  1  0  0  0  0
 40 49  1  0  0  0  0
 41 66  1  0  0  0  0
 42 44  1  0  0  0  0
 43 45  1  0  0  0  0
 43 46  1  0  0  0  0
 44 48  1  0  0  0  0
 45 50  1  0  0  0  0
 46 67  1  0  0  0  0
 47 50  1  0  0  0  0
 47 67  1  0  0  0  0
 48 70  1  0  0  0  0
 49 66  1  0  0  0  0
 50 65  1  0  0  0  0
 53 62  1  0  0  0  0
 54 63  1  0  0  0  0
 55 63  1  0  0  0  0
 56 63  1  0  0  0  0
 57 73  1  0  0  0  0
 58 60  1  0  0  0  0
 59 72  1  0  0  0  0
 60 80  1  0  0  0  0
 61 63  1  0  0  0  0
 61 71  1  0  0  0  0
 62 73  1  0  0  0  0
 64 65  1  0  0  0  0
M  CHG  1  73   1
M  ISO  4  38 100  60 101  72 100  80 101
M  END
> <Batch ID>
0035

> <Smiles>
CNC(C)C(=O)NC(C(=O)N1Cc2cc([101O:1][101CH2:1]Cc3c(C)cc(Cl)c(C[100NH:0][100C:0](=O)N4CCCC(n5nc(-c6ccc(Oc7ccc(F)cc7F)cc6)c(C(N)=O)c5N)C4)c3C)ccc2CC1C(=O)NC1CCCc2ccccc21)C(C)(C)C

> <Shape>
0.194

> <Color>
0.064

> <Negative vol penalty>
0.000

$$$$

  -OEChem-04052316533D

 84 92  0     1  0  0  0  0  0999 V2000
  -28.3722  -33.4883   22.0463 C   0  0  0  0  0  0  0  0  0  0  0  0
  -28.4301  -32.1047   22.1786 C   0  0  0  0  0  0  0  0  0  0  0  0
  -21.9328  -13.1390   20.2566 C   0  0  0  0  0  0  0  0  0  0  0  0
  -22.6325  -13.6979   22.5005 C   0  0  0  0  0  0  0  0  0  0  0  0
  -27.1799  -34.1630   22.3053 C   0  0  0  0  0  0  0  0  0  0  0  0
  -27.2958  -31.3949   22.5711 C   0  0  0  0  0  0  0  0  0  0  0  0
  -26.5533  -27.2276   19.7913 C   0  0  0  0  0  0  0  0  0  0  0  0
  -20.8139  -12.4824   20.7690 C   0  0  0  0  0  0  0  0  0  0  0  0
  -21.5135  -13.0414   23.0129 C   0  0  0  0  0  0  0  0  0  0  0  0
  -27.3418  -26.1164   20.0866 C   0  0  0  0  0  0  0  0  0  0  0  0
  -17.7747  -13.3227   21.9896 C   0  0  0  0  0  0  0  0  0  0  0  0
  -16.5455  -13.5607   21.3749 C   0  0  0  0  0  0  0  0  0  0  0  0
  -25.5147  -25.1597   21.3377 C   0  0  0  0  0  0  0  0  0  0  0  0
  -29.0196  -19.4556   20.8328 C   0  0  0  0  0  0  0  0  0  0  0  0
  -30.2141  -21.9646   21.0800 C   0  0  0  0  0  0  0  0  0  0  0  0
  -16.3510  -11.2097   20.8533 C   0  0  0  0  0  0  0  0  0  0  0  0
  -22.8422  -13.7467   21.1223 C   0  0  0  0  0  0  0  0  0  0  0  0
  -24.0951  -15.7800   20.2261 C   0  0  0  0  0  0  0  0  0  0  0  0
  -26.0278  -33.4602   22.6918 C   0  0  0  0  0  0  0  0  0  0  0  0
  -25.2409  -27.3183   20.2770 C   0  0  0  0  0  0  0  0  0  0  0  0
  -26.0872  -32.0610   22.8368 C   0  0  0  0  0  0  0  0  0  0  0  0
  -24.7107  -26.2719   21.0451 C   0  0  0  0  0  0  0  0  0  0  0  0
  -28.5252  -20.3753   21.7576 C   0  0  0  0  0  0  0  0  0  0  0  0
  -30.7086  -21.0448   20.1552 C   0  0  0  0  0  0  0  0  0  0  0  0
  -30.1114  -19.7903   20.0316 C   0  0  0  0  0  0  0  0  0  0  0  0
  -29.1224  -21.6298   21.8812 C   0  0  0  0  0  0  0  0  0  0  0  0
  -20.6042  -12.4337   22.1471 C   0  0  0  0  0  0  0  0  0  0  0  0
  -26.8236  -25.0836   20.8623 C   0  0  0  0  0  0  0  0  0  0  0  0
  -18.2922  -12.0281   22.0361 C   0  0  0  0  0  0  0  0  0  0  0  0
  -15.8336  -12.5043   20.8068 C   0  0  0  0  0  0  0  0  0  0  0  0
  -17.5803  -10.9717   21.4680 C   0  0  0  0  0  0  0  0  0  0  0  0
  -23.9985  -14.4245   20.5937 C   0  0  0  0  0  0  0  0  0  0  0  0
  -25.3886  -15.9255   19.7875 C   0  0  0  0  0  0  0  0  0  0  0  0
  -23.1043  -16.8151   20.2767 C   0  0  0  0  0  0  0  0  0  0  0  0
  -23.6990  -29.3110   22.2149 C   0  0  0  0  0  0  0  0  0  0  0  0
  -21.1189  -27.5548   21.3310 C   0  0  0  0  0  0  0  0  0  0  0  0
  -19.8958  -24.5995   20.1406 C   0  0  0  0  0  0  0  0  0  0  0  0
  -30.8591  -14.9868   20.3684 C   0  0  0  0  0  0  0  0  0  0  0  0
  -24.7745  -34.2378   23.0068 C   0  0  0  0  0  0  0  0  0  0  0  0
  -24.3942  -28.5113   19.9273 C   0  0  0  0  0  0  0  0  0  0  0  0
  -23.3008  -26.3116   21.5736 C   0  0  0  0  0  0  0  0  0  0  0  0
  -23.5173  -33.3734   23.0550 C   0  0  0  0  0  0  0  0  0  0  0  0
  -28.9287  -12.4593   18.7679 C   0  0  0  0  0  0  0  0  0  0  0  0
  -23.7693  -32.1098   23.8714 C   0  0  0  0  0  0  0  0  0  0  0  0
  -27.4830  -12.8536   19.0752 C   0  0  0  0  0  0  0  0  0  0  0  0
  -29.8577  -12.7616   19.9415 C   0  0  0  0  0  0  0  0  0  0  0  0
  -28.3565  -14.5453   20.7407 C   0  0  0  0  0  0  0  0  0  0  0  0
  -24.8714  -31.2533   23.2364 C   0  0  1  0  0  0  0  0  0  0  0  0
  -23.2438  -28.7346   20.9041 C   0  0  1  0  0  0  0  0  0  0  0  0
  -27.3915  -14.3110   19.5659 C   0  0  2  0  0  0  0  0  0  0  0  0
  -27.3551  -19.9948   22.6040 C   0  0  0  0  0  0  0  0  0  0  0  0
  -31.8788  -21.4253   19.3088 C   0  0  0  0  0  0  0  0  0  0  0  0
  -17.7420  -23.4500   19.5598 C   0  0  0  0  0  0  0  0  0  0  0  0
  -20.5482  -27.1302   24.2982 C   0  0  0  0  0  0  0  0  0  0  0  0
  -19.0169  -25.2538   23.6638 C   0  0  0  0  0  0  0  0  0  0  0  0
  -18.5234  -27.5766   22.8999 C   0  0  0  0  0  0  0  0  0  0  0  0
  -20.6975  -24.2751   17.3102 C   0  0  0  0  0  0  0  0  0  0  0  0
  -30.6238  -18.7891   19.0490 C   0  0  0  0  0  0  0  0  0  0  0  0
  -28.6046  -22.6415   22.8745 C   0  0  0  0  0  0  0  0  0  0  0  0
  -31.8822  -18.0304   19.5118 C   0  0  0  0  0  0  0  0  0  0  0  0
  -31.7118  -17.2720   20.8265 C   0  0  0  0  0  0  0  0  0  0  0  0
  -27.3355  -23.3335   22.3891 C   0  0  0  0  0  0  0  0  0  1  0  0
  -20.4440  -26.3092   21.8525 C   0  0  1  0  0  0  0  0  0  0  0  0
  -18.8959  -24.2934   19.0401 C   0  0  2  0  0  0  0  0  0  0  0  0
  -19.6604  -26.5673   23.1704 C   0  0  0  0  0  0  0  0  0  0  0  0
  -25.1396  -13.7565   20.4049 N   0  0  0  0  0  0  0  0  0  0  0  0
  -25.9655  -14.6961   19.9138 N   0  0  0  0  0  0  0  0  0  0  0  0
  -22.5147  -27.5020   21.2098 N   0  0  0  0  0  0  0  0  0  0  0  0
  -29.7237  -14.1599   20.3573 N   0  0  0  0  0  0  0  0  0  0  0  0
  -26.0773  -16.9838   19.3099 N   0  0  0  0  0  0  0  0  0  0  0  0
  -21.8264  -16.4940   20.7543 N   0  0  0  0  0  0  0  0  0  0  0  0
  -24.3524  -30.5232   22.0998 N   0  0  0  0  0  0  0  0  0  0  0  0
  -19.6229  -25.8014   20.7588 N   0  0  0  0  0  0  0  0  0  0  0  0
  -30.6432  -16.2996   20.7693 N   0  0  0  0  0  0  0  0  0  0  0  0
  -19.5581  -23.5512   17.9304 N   0  3  0  0  0  0  0  0  0  0  0  0
  -23.3403  -17.9861   19.8939 O   0  0  0  0  0  0  0  0  0  0  0  0
  -23.4727  -28.7020   23.2539 O   0  0  0  0  0  0  0  0  0  0  0  0
  -20.4322  -28.5359   21.0351 O   0  0  0  0  0  0  0  0  0  0  0  0
  -20.8238  -23.8459   20.4259 O   0  0  0  0  0  0  0  0  0  0  0  0
  -31.9810  -14.5864   20.0400 O   0  0  0  0  0  0  0  0  0  0  0  0
  -19.5124  -11.7933   22.6474 O   0  0  0  0  0  0  0  0  0  0  0  0
  -27.5914  -23.9982   21.1525 O   0  0  0  0  0  0  0  0  0  1  0  0
  -14.6524  -12.7328   20.2179 F   0  0  0  0  0  0  0  0  0  0  0  0
  -18.0718   -9.7257   21.5106 F   0  0  0  0  0  0  0  0  0  0  0  0
  1  2  1  0  0  0  0
  1  5  2  0  0  0  0
  2  6  2  0  0  0  0
  3  8  2  0  0  0  0
  3 17  1  0  0  0  0
  4  9  1  0  0  0  0
  4 17  2  0  0  0  0
  5 19  1  0  0  0  0
  6 21  1  0  0  0  0
  7 10  2  0  0  0  0
  7 20  1  0  0  0  0
  8 27  1  0  0  0  0
  9 27  2  0  0  0  0
 10 28  1  0  0  0  0
 11 12  2  0  0  0  0
 11 29  1  0  0  0  0
 12 30  1  0  0  0  0
 13 22  1  0  0  0  0
 13 28  2  0  0  0  0
 14 23  1  0  0  0  0
 14 25  2  0  0  0  0
 15 24  2  0  0  0  0
 15 26  1  0  0  0  0
 16 30  2  0  0  0  0
 16 31  1  0  0  0  0
 17 32  1  0  0  0  0
 18 32  1  0  0  0  0
 18 33  2  0  0  0  0
 18 34  1  0  0  0  0
 19 21  2  0  0  0  0
 19 39  1  0  0  0  0
 20 22  2  0  0  0  0
 20 40  1  0  0  0  0
 21 48  1  0  0  0  0
 22 41  1  0  0  0  0
 23 26  2  0  0  0  0
 23 51  1  0  0  0  0
 24 25  1  0  0  0  0
 24 52  1  0  0  0  0
 25 58  1  0  0  0  0
 26 59  1  0  0  0  0
 27 81  1  0  0  0  0
 28 82  1  0  0  0  0
 29 31  2  0  0  0  0
 29 81  1  0  0  0  0
 30 83  1  0  0  0  0
 31 84  1  0  0  0  0
 32 66  2  0  0  0  0
 33 67  1  0  0  0  0
 33 70  1  0  0  0  0
 34 71  1  0  0  0  0
 34 76  2  0  0  0  0
 35 49  1  0  0  0  0
 35 72  1  0  0  0  0
 35 77  2  0  0  0  0
 36 63  1  0  0  0  0
 36 68  1  0  0  0  0
 36 78  2  0  0  0  0
 37 64  1  0  0  0  0
 37 73  1  0  0  0  0
 37 79  2  0  0  0  0
 38 69  1  0  0  0  0
 38 74  1  0  0  0  0
 38 80  2  0  0  0  0
 39 42  1  0  0  0  0
 40 49  1  0  0  0  0
 41 68  1  0  0  0  0
 42 44  1  0  0  0  0
 43 45  1  0  0  0  0
 43 46  1  0  0  0  0
 44 48  1  0  0  0  0
 45 50  1  0  0  0  0
 46 69  1  0  0  0  0
 47 50  1  0  0  0  0
 47 69  1  0  0  0  0
 48 72  1  0  0  0  0
 49 68  1  0  0  0  0
 50 67  1  0  0  0  0
 53 64  1  0  0  0  0
 54 65  1  0  0  0  0
 55 65  1  0  0  0  0
 56 65  1  0  0  0  0
 57 75  1  0  0  0  0
 58 60  1  0  0  0  0
 59 62  1  0  0  0  0
 60 61  1  0  0  0  0
 61 74  1  0  0  0  0
 62 82  1  0  0  0  0
 63 65  1  0  0  0  0
 63 73  1  0  0  0  0
 64 75  1  0  0  0  0
 66 67  1  0  0  0  0
M  CHG  1  75   1
M  ISO  4  38 100  62 101  74 100  82 101
M  END
> <Batch ID>
0035

> <Smiles>
CNC(C)C(=O)NC(C(=O)N1Cc2cc([101O:1][101CH2:1]Cc3cc(C)c(CCC[100NH:0][100C:0](=O)N4CCCC(n5nc(-c6ccc(Oc7ccc(F)cc7F)cc6)c(C(N)=O)c5N)C4)cc3C)ccc2CC1C(=O)NC1CCCc2ccccc21)C(C)(C)C

> <Shape>
0.253

> <Color>
0.050

> <Negative vol penalty>
0.000

$$$$

  -OEChem-04052316533D

 86 94  0     1  0  0  0  0  0999 V2000
  -31.4528  -25.7872   13.9111 C   0  0  0  0  0  0  0  0  0  0  0  0
  -31.2551  -25.3941   15.2309 C   0  0  0  0  0  0  0  0  0  0  0  0
  -23.3251   -9.8231   19.8973 C   0  0  0  0  0  0  0  0  0  0  0  0
  -23.5887  -10.0513   22.2880 C   0  0  0  0  0  0  0  0  0  0  0  0
  -31.1924  -27.1030   13.5304 C   0  0  0  0  0  0  0  0  0  0  0  0
  -30.7980  -26.3168   16.1710 C   0  0  0  0  0  0  0  0  0  0  0  0
  -27.1366  -24.4343   19.1198 C   0  0  0  0  0  0  0  0  0  0  0  0
  -22.6112   -8.6402   20.0889 C   0  0  0  0  0  0  0  0  0  0  0  0
  -22.8748   -8.8683   22.4797 C   0  0  0  0  0  0  0  0  0  0  0  0
  -27.5260  -23.5843   20.1541 C   0  0  0  0  0  0  0  0  0  0  0  0
  -23.4610   -5.5446   22.2803 C   0  0  0  0  0  0  0  0  0  0  0  0
  -23.9698   -4.6213   23.1937 C   0  0  0  0  0  0  0  0  0  0  0  0
  -27.3370  -25.4109   21.7183 C   0  0  0  0  0  0  0  0  0  0  0  0
  -21.9431   -4.7942   24.4975 C   0  0  0  0  0  0  0  0  0  0  0  0
  -29.9495  -20.4851   25.0777 C   0  0  0  0  0  0  0  0  0  0  0  0
  -23.8139  -10.5286   20.9969 C   0  0  0  0  0  0  0  0  0  0  0  0
  -24.0313  -13.0566   20.7325 C   0  0  0  0  0  0  0  0  0  0  0  0
  -30.7226  -28.0399   14.4643 C   0  0  0  0  0  0  0  0  0  0  0  0
  -26.8546  -25.7839   19.3757 C   0  0  0  0  0  0  0  0  0  0  0  0
  -30.5324  -27.6467   15.8028 C   0  0  0  0  0  0  0  0  0  0  0  0
  -26.9418  -26.2753   20.6860 C   0  0  0  0  0  0  0  0  0  0  0  0
  -28.7504  -19.8166   25.1891 C   0  0  0  0  0  0  0  0  0  0  0  0
  -27.9339  -20.2292   24.1074 C   0  0  0  0  0  0  0  0  0  0  0  0
  -22.3860   -8.1628   21.3801 C   0  0  0  0  0  0  0  0  0  0  0  0
  -27.6290  -24.0732   21.4531 C   0  0  0  0  0  0  0  0  0  0  0  0
  -22.1933   -6.0928   22.4755 C   0  0  0  0  0  0  0  0  0  0  0  0
  -23.2109   -4.2461   24.3022 C   0  0  0  0  0  0  0  0  0  0  0  0
  -21.4344   -5.7176   23.5841 C   0  0  0  0  0  0  0  0  0  0  0  0
  -24.5519  -11.7503   20.7996 C   0  0  0  0  0  0  0  0  0  0  0  0
  -28.6590  -21.1372   23.3677 C   0  0  0  0  0  0  0  0  0  0  0  0
  -25.1315  -13.8550   20.5359 C   0  0  0  0  0  0  0  0  0  0  0  0
  -22.6746  -13.5079   20.8387 C   0  0  0  0  0  0  0  0  0  0  0  0
  -28.0901  -28.5533   18.4232 C   0  0  0  0  0  0  0  0  0  0  0  0
  -25.5746  -29.7911   20.0548 C   0  0  0  0  0  0  0  0  0  0  0  0
  -23.2411  -29.3995   22.5141 C   0  0  0  0  0  0  0  0  0  0  0  0
  -30.9392  -13.1850   21.8290 C   0  0  0  0  0  0  0  0  0  0  0  0
  -30.5002  -29.4627   14.0162 C   0  0  0  0  0  0  0  0  0  0  0  0
  -26.4100  -26.6813   18.2535 C   0  0  0  0  0  0  0  0  0  0  0  0
  -26.6303  -27.7113   21.0167 C   0  0  0  0  0  0  0  0  0  0  0  0
  -29.6609  -30.2843   14.9912 C   0  0  0  0  0  0  0  0  0  0  0  0
  -29.5154  -13.7838   18.6210 C   0  0  0  0  0  0  0  0  0  0  0  0
  -30.1506  -30.0793   16.4213 C   0  0  0  0  0  0  0  0  0  0  0  0
  -28.0349  -13.4484   18.8096 C   0  0  0  0  0  0  0  0  0  0  0  0
  -30.4130  -12.8513   19.4314 C   0  0  0  0  0  0  0  0  0  0  0  0
  -28.6070  -12.4367   21.0563 C   0  0  0  0  0  0  0  0  0  0  0  0
  -30.0139  -28.6123   16.8463 C   0  0  1  0  0  0  0  0  0  0  0  0
  -26.6447  -28.1607   18.5428 C   0  0  1  0  0  0  0  0  0  0  0  0
  -27.6599  -13.3858   20.3024 C   0  0  2  0  0  0  0  0  0  0  0  0
  -26.5581  -19.7717   23.8228 C   0  0  0  0  0  0  0  0  0  0  0  0
  -31.0542  -23.4189   24.3358 C   0  0  0  0  0  0  0  0  0  0  0  0
  -21.3454  -30.5980   23.6398 C   0  0  0  0  0  0  0  0  0  0  0  0
  -27.5752  -31.5133   21.5851 C   0  0  0  0  0  0  0  0  0  0  0  0
  -25.7907  -31.9527   23.2852 C   0  0  0  0  0  0  0  0  0  0  0  0
  -25.4721  -32.6947   20.9250 C   0  0  0  0  0  0  0  0  0  0  0  0
  -21.2925  -27.3274   21.6966 C   0  0  0  0  0  0  0  0  0  0  0  0
  -28.3929  -18.8501   26.2467 C   0  0  0  0  0  0  0  0  0  0  0  0
  -28.2879  -21.8885   22.1231 C   0  0  0  0  0  0  0  0  0  1  0  0
  -28.4333  -17.3668   25.8134 C   0  0  0  0  0  0  0  0  0  0  0  0
  -29.8347  -16.9149   25.3905 C   0  0  0  0  0  0  0  0  0  0  0  0
  -29.8441  -15.4366   24.9933 C   0  0  0  0  0  0  0  0  0  0  0  0
  -31.2527  -14.9748   24.6084 C   0  0  0  0  0  0  0  0  0  0  0  0
  -30.9513  -22.1469   23.5117 C   0  0  0  0  0  0  0  0  0  0  0  0
  -31.3091  -13.4902   24.2640 C   0  0  0  0  0  0  0  0  0  0  0  0
  -25.3364  -30.2316   21.4790 C   0  0  1  0  0  0  0  0  0  0  0  0
  -21.7422  -29.6394   22.5279 C   0  0  2  0  0  0  0  0  0  0  0  0
  -26.0514  -31.5714   21.8124 C   0  0  0  0  0  0  0  0  0  0  0  0
  -25.8795  -11.7164   20.6569 N   0  0  0  0  0  0  0  0  0  0  0  0
  -29.8828  -21.2847   23.9667 N   0  0  0  0  0  0  0  0  0  0  0  0
  -26.2024  -13.0112   20.4982 N   0  0  0  0  0  0  0  0  0  0  0  0
  -26.2059  -28.5509   19.8842 N   0  0  0  0  0  0  0  0  0  0  0  0
  -30.0054  -12.8387   20.8384 N   0  0  0  0  0  0  0  0  0  0  0  0
  -25.2776  -15.1894   20.3931 N   0  0  0  0  0  0  0  0  0  0  0  0
  -21.6671  -12.5546   21.0400 N   0  0  0  0  0  0  0  0  0  0  0  0
  -28.6385  -28.3085   17.1787 N   0  0  0  0  0  0  0  0  0  0  0  0
  -23.8891  -30.2657   21.6591 N   0  0  0  0  0  0  0  0  0  0  0  0
  -30.4692  -13.1535   23.1362 N   0  0  0  0  0  0  0  0  0  0  0  0
  -21.0139  -28.3553   22.7323 N   0  3  0  0  0  0  0  0  0  0  0  0
  -22.3630  -14.7191   20.7409 O   0  0  0  0  0  0  0  0  0  0  0  0
  -28.6649  -29.0435   19.3881 O   0  0  0  0  0  0  0  0  0  0  0  0
  -25.2073  -30.5173   19.1278 O   0  0  0  0  0  0  0  0  0  0  0  0
  -23.7833  -28.5330   23.1966 O   0  0  0  0  0  0  0  0  0  0  0  0
  -32.1040  -13.5041   21.5673 O   0  0  0  0  0  0  0  0  0  0  0  0
  -21.6893   -7.0087   21.5674 O   0  0  0  0  0  0  0  0  0  0  0  0
  -28.0095  -23.2459   22.4643 O   0  0  0  0  0  0  0  0  0  1  0  0
  -23.6989   -3.3583   25.1784 F   0  0  0  0  0  0  0  0  0  0  0  0
  -20.2153   -6.2399   23.7763 F   0  0  0  0  0  0  0  0  0  0  0  0
  1  2  1  0  0  0  0
  1  5  2  0  0  0  0
  2  6  2  0  0  0  0
  3  8  2  0  0  0  0
  3 16  1  0  0  0  0
  4  9  1  0  0  0  0
  4 16  2  0  0  0  0
  5 18  1  0  0  0  0
  6 20  1  0  0  0  0
  7 10  2  0  0  0  0
  7 19  1  0  0  0  0
  8 24  1  0  0  0  0
  9 24  2  0  0  0  0
 10 25  1  0  0  0  0
 11 12  2  0  0  0  0
 11 26  1  0  0  0  0
 12 27  1  0  0  0  0
 13 21  1  0  0  0  0
 13 25  2  0  0  0  0
 14 27  2  0  0  0  0
 14 28  1  0  0  0  0
 15 22  2  0  0  0  0
 15 68  1  0  0  0  0
 16 29  1  0  0  0  0
 17 29  1  0  0  0  0
 17 31  2  0  0  0  0
 17 32  1  0  0  0  0
 18 20  2  0  0  0  0
 18 37  1  0  0  0  0
 19 21  2  0  0  0  0
 19 38  1  0  0  0  0
 20 46  1  0  0  0  0
 21 39  1  0  0  0  0
 22 23  1  0  0  0  0
 22 56  1  0  0  0  0
 23 30  2  0  0  0  0
 23 49  1  0  0  0  0
 24 83  1  0  0  0  0
 25 84  1  0  0  0  0
 26 28  2  0  0  0  0
 26 83  1  0  0  0  0
 27 85  1  0  0  0  0
 28 86  1  0  0  0  0
 29 67  2  0  0  0  0
 30 57  1  0  0  0  0
 30 68  1  0  0  0  0
 31 69  1  0  0  0  0
 31 72  1  0  0  0  0
 32 73  1  0  0  0  0
 32 78  2  0  0  0  0
 33 47  1  0  0  0  0
 33 74  1  0  0  0  0
 33 79  2  0  0  0  0
 34 64  1  0  0  0  0
 34 70  1  0  0  0  0
 34 80  2  0  0  0  0
 35 65  1  0  0  0  0
 35 75  1  0  0  0  0
 35 81  2  0  0  0  0
 36 71  1  0  0  0  0
 36 76  1  0  0  0  0
 36 82  2  0  0  0  0
 37 40  1  0  0  0  0
 38 47  1  0  0  0  0
 39 70  1  0  0  0  0
 40 42  1  0  0  0  0
 41 43  1  0  0  0  0
 41 44  1  0  0  0  0
 42 46  1  0  0  0  0
 43 48  1  0  0  0  0
 44 71  1  0  0  0  0
 45 48  1  0  0  0  0
 45 71  1  0  0  0  0
 46 74  1  0  0  0  0
 47 70  1  0  0  0  0
 48 69  1  0  0  0  0
 50 62  1  0  0  0  0
 51 65  1  0  0  0  0
 52 66  1  0  0  0  0
 53 66  1  0  0  0  0
 54 66  1  0  0  0  0
 55 77  1  0  0  0  0
 56 58  1  0  0  0  0
 57 84  1  0  0  0  0
 58 59  1  0  0  0  0
 59 60  1  0  0  0  0
 60 61  1  0  0  0  0
 61 63  1  0  0  0  0
 62 68  1  0  0  0  0
 63 76  1  0  0  0  0
 64 66  1  0  0  0  0
 64 75  1  0  0  0  0
 65 77  1  0  0  0  0
 67 69  1  0  0  0  0
M  CHG  1  77   1
M  ISO  4  36 100  57 101  76 100  84 101
M  END
> <Batch ID>
0035

> <Smiles>
CCn1cc(CCCCCC[100NH:0][100C:0](=O)N2CCCC(n3nc(-c4ccc(Oc5ccc(F)cc5F)cc4)c(C(N)=O)c3N)C2)c(C)c1[101CH2:1][101O:1]c1ccc2c(c1)CN(C(=O)C(NC(=O)C(C)NC)C(C)(C)C)C(C(=O)NC1CCCc3ccccc31)C2

> <Shape>
0.257

> <Color>
0.212

> <Negative vol penalty>
0.000

$$$$

  -OEChem-04052316533D

 83 91  0     1  0  0  0  0  0999 V2000
  -29.1959  -35.2301   21.9994 C   0  0  0  0  0  0  0  0  0  0  0  0
  -29.6696  -33.9811   21.6108 C   0  0  0  0  0  0  0  0  0  0  0  0
  -23.3075  -10.1649   22.3296 C   0  0  0  0  0  0  0  0  0  0  0  0
  -22.4181  -10.2339   20.0843 C   0  0  0  0  0  0  0  0  0  0  0  0
  -28.2621  -35.3304   23.0299 C   0  0  0  0  0  0  0  0  0  0  0  0
  -29.2106  -32.8317   22.2532 C   0  0  0  0  0  0  0  0  0  0  0  0
  -28.2886  -27.3259   19.7350 C   0  0  0  0  0  0  0  0  0  0  0  0
  -22.8563   -8.8524   22.4681 C   0  0  0  0  0  0  0  0  0  0  0  0
  -21.9669   -8.9212   20.2228 C   0  0  0  0  0  0  0  0  0  0  0  0
  -29.0625  -26.1666   19.7051 C   0  0  0  0  0  0  0  0  0  0  0  0
  -23.8401   -5.7652   21.5015 C   0  0  0  0  0  0  0  0  0  0  0  0
  -24.7140   -4.8354   22.0649 C   0  0  0  0  0  0  0  0  0  0  0  0
  -27.8356  -25.3061   21.5954 C   0  0  0  0  0  0  0  0  0  0  0  0
  -28.1020  -20.8939   18.5954 C   0  0  0  0  0  0  0  0  0  0  0  0
  -23.1329   -4.4286   23.8459 C   0  0  0  0  0  0  0  0  0  0  0  0
  -28.5113  -20.9600   20.8086 C   0  0  0  0  0  0  0  0  0  0  0  0
  -23.0883  -10.8557   21.1377 C   0  0  0  0  0  0  0  0  0  0  0  0
  -24.8065  -12.6340   20.5108 C   0  0  0  0  0  0  0  0  0  0  0  0
  -27.7841  -34.1810   23.6787 C   0  0  0  0  0  0  0  0  0  0  0  0
  -27.2879  -27.4889   20.7037 C   0  0  0  0  0  0  0  0  0  0  0  0
  -28.2705  -32.9169   23.2942 C   0  0  0  0  0  0  0  0  0  0  0  0
  -27.0486  -26.4672   21.6338 C   0  0  0  0  0  0  0  0  0  0  0  0
  -29.0131  -21.3412   19.5838 C   0  0  0  0  0  0  0  0  0  0  0  0
  -22.1861   -8.2305   21.4146 C   0  0  0  0  0  0  0  0  0  0  0  0
  -28.8380  -25.1577   20.6372 C   0  0  0  0  0  0  0  0  0  0  0  0
  -22.6127   -6.0268   22.1103 C   0  0  0  0  0  0  0  0  0  0  0  0
  -24.3604   -4.1671   23.2371 C   0  0  0  0  0  0  0  0  0  0  0  0
  -22.2591   -5.3585   23.2825 C   0  0  0  0  0  0  0  0  0  0  0  0
  -23.5536  -12.2118   20.9943 C   0  0  0  0  0  0  0  0  0  0  0  0
  -27.0709  -20.2531   19.2464 C   0  0  0  0  0  0  0  0  0  0  0  0
  -24.7542  -14.0051   20.5727 C   0  0  0  0  0  0  0  0  0  0  0  0
  -25.9182  -11.8563   20.0470 C   0  0  0  0  0  0  0  0  0  0  0  0
  -26.7702  -29.5477   23.0695 C   0  0  0  0  0  0  0  0  0  0  0  0
  -23.9535  -27.9578   23.3151 C   0  0  0  0  0  0  0  0  0  0  0  0
  -22.1846  -25.0938   22.7532 C   0  0  0  0  0  0  0  0  0  0  0  0
  -22.0483  -18.8146   19.7407 C   0  0  0  0  0  0  0  0  0  0  0  0
  -26.8104  -34.3431   24.8190 C   0  0  0  0  0  0  0  0  0  0  0  0
  -26.4439  -28.7339   20.7058 C   0  0  0  0  0  0  0  0  0  0  0  0
  -25.9730  -26.5846   22.6815 C   0  0  0  0  0  0  0  0  0  0  0  0
  -26.0936  -33.0492   25.1964 C   0  0  0  0  0  0  0  0  0  0  0  0
  -21.3926  -17.0753   22.7773 C   0  0  0  0  0  0  0  0  0  0  0  0
  -27.0886  -31.8974   25.2966 C   0  0  0  0  0  0  0  0  0  0  0  0
  -21.9939  -15.6886   22.5418 C   0  0  0  0  0  0  0  0  0  0  0  0
  -20.7653  -17.6418   21.5056 C   0  0  0  0  0  0  0  0  0  0  0  0
  -22.2600  -16.2799   20.0967 C   0  0  0  0  0  0  0  0  0  0  0  0
  -27.7780  -31.6452   23.9502 C   0  0  1  0  0  0  0  0  0  0  0  0
  -25.7956  -29.0141   22.0581 C   0  0  1  0  0  0  0  0  0  0  0  0
  -22.9539  -15.6910   21.3369 C   0  0  2  0  0  0  0  0  0  0  0  0
  -27.0496  -18.4340   22.1736 C   0  0  0  0  0  0  0  0  0  0  0  0
  -19.9147  -24.0808   23.0978 C   0  0  0  0  0  0  0  0  0  0  0  0
  -24.5935  -27.5345   26.2683 C   0  0  0  0  0  0  0  0  0  0  0  0
  -22.8287  -25.7595   26.3247 C   0  0  0  0  0  0  0  0  0  0  0  0
  -22.2085  -28.1160   25.7907 C   0  0  0  0  0  0  0  0  0  0  0  0
  -21.7665  -24.7542   19.8430 C   0  0  0  0  0  0  0  0  0  0  0  0
  -30.2975  -22.0960   19.3409 C   0  0  0  0  0  0  0  0  0  0  0  0
  -25.8631  -19.6019   18.6983 C   0  0  0  0  0  0  0  0  0  0  0  0
  -24.6335  -20.5292   18.5488 C   0  0  0  0  0  0  0  0  0  0  0  0
  -26.4976  -19.7426   21.6347 C   0  0  0  0  0  0  0  0  0  0  0  0
  -23.4092  -19.8481   17.9410 C   0  0  0  0  0  0  0  0  0  0  0  0
  -30.0911  -23.6068   19.3408 C   0  0  0  0  0  0  0  0  0  1  0  0
  -23.4715  -26.7486   24.0798 C   0  0  1  0  0  0  0  0  0  0  0  0
  -20.8119  -24.8600   22.1487 C   0  0  2  0  0  0  0  0  0  0  0  0
  -23.2972  -27.0380   25.5975 C   0  0  0  0  0  0  0  0  0  0  0  0
  -22.7632  -13.2321   21.3382 N   0  0  0  0  0  0  0  0  0  0  0  0
  -27.3302  -20.2996   20.5913 N   0  0  0  0  0  0  0  0  0  0  0  0
  -23.5213  -14.3090   21.0705 N   0  0  0  0  0  0  0  0  0  0  0  0
  -25.1785  -27.8236   22.6465 N   0  0  0  0  0  0  0  0  0  0  0  0
  -21.7279  -17.6173   20.4016 N   0  0  0  0  0  0  0  0  0  0  0  0
  -25.6430  -14.9684   20.2494 N   0  0  0  0  0  0  0  0  0  0  0  0
  -25.8041  -10.4595   20.0502 N   0  0  0  0  0  0  0  0  0  0  0  0
  -26.8960  -30.9238   23.0581 N   0  0  0  0  0  0  0  0  0  0  0  0
  -22.2531  -26.3028   23.4127 N   0  0  0  0  0  0  0  0  0  0  0  0
  -22.9740  -18.7038   18.7104 N   0  0  0  0  0  0  0  0  0  0  0  0
  -20.9298  -24.0923   20.8769 N   0  3  0  0  0  0  0  0  0  0  0  0
  -26.9874  -12.3841   19.6573 O   0  0  0  0  0  0  0  0  0  0  0  0
  -27.3631  -28.7688   23.8068 O   0  0  0  0  0  0  0  0  0  0  0  0
  -23.2649  -28.9811   23.3054 O   0  0  0  0  0  0  0  0  0  0  0  0
  -23.1031  -24.2833   22.6536 O   0  0  0  0  0  0  0  0  0  0  0  0
  -21.5505  -19.9026   20.0496 O   0  0  0  0  0  0  0  0  0  0  0  0
  -21.7459   -6.9496   21.5493 O   0  0  0  0  0  0  0  0  0  0  0  0
  -29.5924  -24.0255   20.6107 O   0  0  0  0  0  0  0  0  0  1  0  0
  -25.1990   -3.2731   23.7771 F   0  0  0  0  0  0  0  0  0  0  0  0
  -21.0807   -5.6047   23.8713 F   0  0  0  0  0  0  0  0  0  0  0  0
  1  2  1  0  0  0  0
  1  5  2  0  0  0  0
  2  6  2  0  0  0  0
  3  8  2  0  0  0  0
  3 17  1  0  0  0  0
  4  9  1  0  0  0  0
  4 17  2  0  0  0  0
  5 19  1  0  0  0  0
  6 21  1  0  0  0  0
  7 10  2  0  0  0  0
  7 20  1  0  0  0  0
  8 24  1  0  0  0  0
  9 24  2  0  0  0  0
 10 25  1  0  0  0  0
 11 12  2  0  0  0  0
 11 26  1  0  0  0  0
 12 27  1  0  0  0  0
 13 22  1  0  0  0  0
 13 25  2  0  0  0  0
 14 23  1  0  0  0  0
 14 30  2  0  0  0  0
 15 27  2  0  0  0  0
 15 28  1  0  0  0  0
 16 23  2  0  0  0  0
 16 65  1  0  0  0  0
 17 29  1  0  0  0  0
 18 29  1  0  0  0  0
 18 31  2  0  0  0  0
 18 32  1  0  0  0  0
 19 21  2  0  0  0  0
 19 37  1  0  0  0  0
 20 22  2  0  0  0  0
 20 38  1  0  0  0  0
 21 46  1  0  0  0  0
 22 39  1  0  0  0  0
 23 55  1  0  0  0  0
 24 80  1  0  0  0  0
 25 81  1  0  0  0  0
 26 28  2  0  0  0  0
 26 80  1  0  0  0  0
 27 82  1  0  0  0  0
 28 83  1  0  0  0  0
 29 64  2  0  0  0  0
 30 56  1  0  0  0  0
 30 65  1  0  0  0  0
 31 66  1  0  0  0  0
 31 69  1  0  0  0  0
 32 70  1  0  0  0  0
 32 75  2  0  0  0  0
 33 47  1  0  0  0  0
 33 71  1  0  0  0  0
 33 76  2  0  0  0  0
 34 61  1  0  0  0  0
 34 67  1  0  0  0  0
 34 77  2  0  0  0  0
 35 62  1  0  0  0  0
 35 72  1  0  0  0  0
 35 78  2  0  0  0  0
 36 68  1  0  0  0  0
 36 73  1  0  0  0  0
 36 79  2  0  0  0  0
 37 40  1  0  0  0  0
 38 47  1  0  0  0  0
 39 67  1  0  0  0  0
 40 42  1  0  0  0  0
 41 43  1  0  0  0  0
 41 44  1  0  0  0  0
 42 46  1  0  0  0  0
 43 48  1  0  0  0  0
 44 68  1  0  0  0  0
 45 48  1  0  0  0  0
 45 68  1  0  0  0  0
 46 71  1  0  0  0  0
 47 67  1  0  0  0  0
 48 66  1  0  0  0  0
 49 58  1  0  0  0  0
 50 62  1  0  0  0  0
 51 63  1  0  0  0  0
 52 63  1  0  0  0  0
 53 63  1  0  0  0  0
 54 74  1  0  0  0  0
 55 60  1  0  0  0  0
 56 57  1  0  0  0  0
 57 59  1  0  0  0  0
 58 65  1  0  0  0  0
 59 73  1  0  0  0  0
 60 81  1  0  0  0  0
 61 63  1  0  0  0  0
 61 72  1  0  0  0  0
 62 74  1  0  0  0  0
 64 66  1  0  0  0  0
M  CHG  1  74   1
M  ISO  4  36 100  60 101  73 100  81 101
M  END
> <Batch ID>
0035

> <Smiles>
CCn1cc(C[101CH2:1][101O:1]c2ccc3c(c2)CN(C(=O)C(NC(=O)C(C)NC)C(C)(C)C)C(C(=O)NC2CCCc4ccccc42)C3)cc1CCC[100NH:0][100C:0](=O)N1CCCC(n2nc(-c3ccc(Oc4ccc(F)cc4F)cc3)c(C(N)=O)c2N)C1

> <Shape>
0.229

> <Color>
0.096

> <Negative vol penalty>
0.000

$$$$

  -OEChem-04052316533D

 82 90  0     1  0  0  0  0  0999 V2000
  -22.8977  -23.6509   19.2210 C   0  0  0  0  0  0  0  0  0  0  0  0
  -24.1204  -23.0514   18.9365 C   0  0  0  0  0  0  0  0  0  0  0  0
  -22.4730  -28.0070   19.5710 C   0  0  0  0  0  0  0  0  0  0  0  0
  -22.8095  -27.8185   21.9560 C   0  0  0  0  0  0  0  0  0  0  0  0
  -22.0793  -23.1231   20.2187 C   0  0  0  0  0  0  0  0  0  0  0  0
  -24.5260  -21.9244   19.6504 C   0  0  0  0  0  0  0  0  0  0  0  0
  -27.7773  -17.1911   17.5220 C   0  0  0  0  0  0  0  0  0  0  0  0
  -33.4353  -19.0795   21.1984 C   0  0  0  0  0  0  0  0  0  0  0  0
  -33.0029  -20.3489   21.5818 C   0  0  0  0  0  0  0  0  0  0  0  0
  -21.0928  -27.9370   19.7602 C   0  0  0  0  0  0  0  0  0  0  0  0
  -21.4293  -27.7486   22.1452 C   0  0  0  0  0  0  0  0  0  0  0  0
  -29.1334  -16.8758   17.5958 C   0  0  0  0  0  0  0  0  0  0  0  0
  -18.8170  -29.8907   22.2316 C   0  0  0  0  0  0  0  0  0  0  0  0
  -18.2648  -30.6610   23.2550 C   0  0  0  0  0  0  0  0  0  0  0  0
  -28.6982  -15.4798   19.5144 C   0  0  0  0  0  0  0  0  0  0  0  0
  -31.1385  -18.3536   21.0113 C   0  0  0  0  0  0  0  0  0  0  0  0
  -17.4284  -28.6563   24.3126 C   0  0  0  0  0  0  0  0  0  0  0  0
  -23.3314  -27.9476   20.6689 C   0  0  0  0  0  0  0  0  0  0  0  0
  -25.5552  -29.1789   20.4533 C   0  0  0  0  0  0  0  0  0  0  0  0
  -22.4706  -21.9833   20.9387 C   0  0  0  0  0  0  0  0  0  0  0  0
  -26.8717  -16.6608   18.4520 C   0  0  0  0  0  0  0  0  0  0  0  0
  -23.7126  -21.3817   20.6597 C   0  0  0  0  0  0  0  0  0  0  0  0
  -27.3308  -15.7879   19.4486 C   0  0  0  0  0  0  0  0  0  0  0  0
  -32.5031  -18.0818   20.9131 C   0  0  0  0  0  0  0  0  0  0  0  0
  -31.6383  -20.6207   21.6801 C   0  0  0  0  0  0  0  0  0  0  0  0
  -20.5710  -27.8078   21.0472 C   0  0  0  0  0  0  0  0  0  0  0  0
  -29.5945  -16.0223   18.5938 C   0  0  0  0  0  0  0  0  0  0  0  0
  -18.6748  -28.5032   22.2486 C   0  0  0  0  0  0  0  0  0  0  0  0
  -17.5705  -30.0438   24.2955 C   0  0  0  0  0  0  0  0  0  0  0  0
  -17.9805  -27.8860   23.2891 C   0  0  0  0  0  0  0  0  0  0  0  0
  -30.7061  -19.6231   21.3949 C   0  0  0  0  0  0  0  0  0  0  0  0
  -24.7572  -28.0193   20.4741 C   0  0  0  0  0  0  0  0  0  0  0  0
  -26.8297  -28.7147   20.2377 C   0  0  0  0  0  0  0  0  0  0  0  0
  -25.1780  -30.5527   20.6147 C   0  0  0  0  0  0  0  0  0  0  0  0
  -24.9312  -17.8934   20.6473 C   0  0  0  0  0  0  0  0  0  0  0  0
  -23.9461  -14.8169   20.9418 C   0  0  0  0  0  0  0  0  0  0  0  0
  -24.6474  -11.5001   20.5496 C   0  0  0  0  0  0  0  0  0  0  0  0
  -29.3814  -23.5266   21.4328 C   0  0  0  0  0  0  0  0  0  0  0  0
  -21.5736  -21.4772   22.0404 C   0  0  0  0  0  0  0  0  0  0  0  0
  -25.4080  -16.9895   18.3426 C   0  0  0  0  0  0  0  0  0  0  0  0
  -26.3963  -15.1760   20.4590 C   0  0  0  0  0  0  0  0  0  0  0  0
  -21.9078  -20.0586   22.4946 C   0  0  0  0  0  0  0  0  0  0  0  0
  -29.2017  -25.1027   18.1799 C   0  0  0  0  0  0  0  0  0  0  0  0
  -23.4111  -19.9049   22.7028 C   0  0  0  0  0  0  0  0  0  0  0  0
  -28.1069  -26.1465   18.4077 C   0  0  0  0  0  0  0  0  0  0  0  0
  -28.8954  -23.8082   18.9273 C   0  0  0  0  0  0  0  0  0  0  0  0
  -27.5796  -25.0223   20.6209 C   0  0  0  0  0  0  0  0  0  0  0  0
  -24.1763  -20.1431   21.3954 C   0  0  1  0  0  0  0  0  0  0  0  0
  -24.6533  -16.8001   19.6548 C   0  0  1  0  0  0  0  0  0  0  0  0
  -27.8421  -26.3622   19.9096 C   0  0  2  0  0  0  0  0  0  0  0  0
  -23.6608   -9.2216   20.9135 C   0  0  0  0  0  0  0  0  0  0  0  0
  -24.5013  -15.0568   23.9325 C   0  0  0  0  0  0  0  0  0  0  0  0
  -24.4215  -12.5586   24.0769 C   0  0  0  0  0  0  0  0  0  0  0  0
  -22.3995  -13.8298   23.3567 C   0  0  0  0  0  0  0  0  0  0  0  0
  -24.7710  -10.8582   17.6631 C   0  0  0  0  0  0  0  0  0  0  0  0
  -32.9705  -16.7094   20.4987 C   0  0  0  0  0  0  0  0  0  0  0  0
  -31.2161  -21.9930   22.0950 C   0  0  0  0  0  0  0  0  0  0  0  0
  -33.1443  -16.5483   18.9869 C   0  0  0  0  0  0  0  0  0  0  0  0
  -31.8417  -16.6995   18.2099 C   0  0  0  0  0  0  0  0  0  1  0  0
  -24.3674  -13.6351   21.7815 C   0  0  1  0  0  0  0  0  0  0  0  0
  -23.8475  -10.3676   19.9314 C   0  0  2  0  0  0  0  0  0  0  0  0
  -23.9406  -13.7830   23.2692 C   0  0  0  0  0  0  0  0  0  0  0  0
  -25.4655  -26.9025   20.2864 N   0  0  0  0  0  0  0  0  0  0  0  0
  -26.7219  -27.3583   20.1456 N   0  0  0  0  0  0  0  0  0  0  0  0
  -24.9753  -15.5329   20.3142 N   0  0  0  0  0  0  0  0  0  0  0  0
  -28.6720  -24.0806   20.3542 N   0  0  0  0  0  0  0  0  0  0  0  0
  -28.0210  -29.3387   20.1196 N   0  0  0  0  0  0  0  0  0  0  0  0
  -23.8259  -30.8537   20.8284 N   0  0  0  0  0  0  0  0  0  0  0  0
  -24.0857  -18.9809   20.5378 N   0  0  0  0  0  0  0  0  0  0  0  0
  -23.8287  -12.4517   21.1200 N   0  0  0  0  0  0  0  0  0  0  0  0
  -30.3954  -22.6388   21.0949 N   0  0  0  0  0  0  0  0  0  0  0  0
  -24.5427   -9.8421   18.7226 N   0  3  0  0  0  0  0  0  0  0  0  0
  -26.0128  -31.4870   20.5542 O   0  0  0  0  0  0  0  0  0  0  0  0
  -25.8442  -17.7597   21.4537 O   0  0  0  0  0  0  0  0  0  0  0  0
  -22.7475  -15.0901   20.8405 O   0  0  0  0  0  0  0  0  0  0  0  0
  -25.8758  -11.5350   20.5317 O   0  0  0  0  0  0  0  0  0  0  0  0
  -29.1330  -23.8068   22.6105 O   0  0  0  0  0  0  0  0  0  0  0  0
  -19.2242  -27.7398   21.2322 O   0  0  0  0  0  0  0  0  0  0  0  0
  -30.9177  -15.7134   18.6685 O   0  0  0  0  0  0  0  0  0  1  0  0
  -17.0417  -30.7835   25.2790 F   0  0  0  0  0  0  0  0  0  0  0  0
  -17.8416  -26.5533   23.3115 F   0  0  0  0  0  0  0  0  0  0  0  0
  -29.0099  -19.9228   21.5068 Cl  0  0  0  0  0  0  0  0  0  0  0  0
  1  2  1  0  0  0  0
  1  5  2  0  0  0  0
  2  6  2  0  0  0  0
  3 10  2  0  0  0  0
  3 18  1  0  0  0  0
  4 11  1  0  0  0  0
  4 18  2  0  0  0  0
  5 20  1  0  0  0  0
  6 22  1  0  0  0  0
  7 12  2  0  0  0  0
  7 21  1  0  0  0  0
  8  9  2  0  0  0  0
  8 24  1  0  0  0  0
  9 25  1  0  0  0  0
 10 26  1  0  0  0  0
 11 26  2  0  0  0  0
 12 27  1  0  0  0  0
 13 14  2  0  0  0  0
 13 28  1  0  0  0  0
 14 29  1  0  0  0  0
 15 23  1  0  0  0  0
 15 27  2  0  0  0  0
 16 24  2  0  0  0  0
 16 31  1  0  0  0  0
 17 29  2  0  0  0  0
 17 30  1  0  0  0  0
 18 32  1  0  0  0  0
 19 32  1  0  0  0  0
 19 33  2  0  0  0  0
 19 34  1  0  0  0  0
 20 22  2  0  0  0  0
 20 39  1  0  0  0  0
 21 23  2  0  0  0  0
 21 40  1  0  0  0  0
 22 48  1  0  0  0  0
 23 41  1  0  0  0  0
 24 56  1  0  0  0  0
 25 31  2  0  0  0  0
 25 57  1  0  0  0  0
 26 78  1  0  0  0  0
 27 79  1  0  0  0  0
 28 30  2  0  0  0  0
 28 78  1  0  0  0  0
 29 80  1  0  0  0  0
 30 81  1  0  0  0  0
 31 82  1  0  0  0  0
 32 63  2  0  0  0  0
 33 64  1  0  0  0  0
 33 67  1  0  0  0  0
 34 68  1  0  0  0  0
 34 73  2  0  0  0  0
 35 49  1  0  0  0  0
 35 69  1  0  0  0  0
 35 74  2  0  0  0  0
 36 60  1  0  0  0  0
 36 65  1  0  0  0  0
 36 75  2  0  0  0  0
 37 61  1  0  0  0  0
 37 70  1  0  0  0  0
 37 76  2  0  0  0  0
 38 66  1  0  0  0  0
 38 71  1  0  0  0  0
 38 77  2  0  0  0  0
 39 42  1  0  0  0  0
 40 49  1  0  0  0  0
 41 65  1  0  0  0  0
 42 44  1  0  0  0  0
 43 45  1  0  0  0  0
 43 46  1  0  0  0  0
 44 48  1  0  0  0  0
 45 50  1  0  0  0  0
 46 66  1  0  0  0  0
 47 50  1  0  0  0  0
 47 66  1  0  0  0  0
 48 69  1  0  0  0  0
 49 65  1  0  0  0  0
 50 64  1  0  0  0  0
 51 61  1  0  0  0  0
 52 62  1  0  0  0  0
 53 62  1  0  0  0  0
 54 62  1  0  0  0  0
 55 72  1  0  0  0  0
 56 58  1  0  0  0  0
 57 71  1  0  0  0  0
 58 59  1  0  0  0  0
 59 79  1  0  0  0  0
 60 62  1  0  0  0  0
 60 70  1  0  0  0  0
 61 72  1  0  0  0  0
 63 64  1  0  0  0  0
M  CHG  1  72   1
M  ISO  4  38 100  59 101  71 100  79 101
M  END
> <Batch ID>
0035

> <Smiles>
CNC(C)C(=O)NC(C(=O)N1Cc2cc([101O:1][101CH2:1]CCc3ccc(C[100NH:0][100C:0](=O)N4CCCC(n5nc(-c6ccc(Oc7ccc(F)cc7F)cc6)c(C(N)=O)c5N)C4)c(Cl)c3)ccc2CC1C(=O)NC1CCCc2ccccc21)C(C)(C)C

> <Shape>
0.213

> <Color>
0.068

> <Negative vol penalty>
0.000

$$$$

  -OEChem-04052316533D

 85 93  0     1  0  0  0  0  0999 V2000
  -30.3582  -34.8913   21.0493 C   0  0  0  0  0  0  0  0  0  0  0  0
  -30.6137  -33.5248   20.9978 C   0  0  0  0  0  0  0  0  0  0  0  0
  -24.4925   -9.1525   21.4535 C   0  0  0  0  0  0  0  0  0  0  0  0
  -22.6150  -10.3191   20.4783 C   0  0  0  0  0  0  0  0  0  0  0  0
  -29.1551  -35.3548   21.5800 C   0  0  0  0  0  0  0  0  0  0  0  0
  -29.6667  -32.6209   21.4780 C   0  0  0  0  0  0  0  0  0  0  0  0
  -28.4403  -27.0466   19.2579 C   0  0  0  0  0  0  0  0  0  0  0  0
  -23.7026   -8.0139   21.6123 C   0  0  0  0  0  0  0  0  0  0  0  0
  -21.8251   -9.1805   20.6370 C   0  0  0  0  0  0  0  0  0  0  0  0
  -28.8447  -25.7711   19.6496 C   0  0  0  0  0  0  0  0  0  0  0  0
  -21.3298   -6.9072   23.7499 C   0  0  0  0  0  0  0  0  0  0  0  0
  -21.4015   -6.2344   24.9697 C   0  0  0  0  0  0  0  0  0  0  0  0
  -26.8044  -25.5184   20.9116 C   0  0  0  0  0  0  0  0  0  0  0  0
  -22.1513   -4.2422   23.8269 C   0  0  0  0  0  0  0  0  0  0  0  0
  -23.9487  -10.3052   20.8866 C   0  0  0  0  0  0  0  0  0  0  0  0
  -25.5535  -11.8206   19.6077 C   0  0  0  0  0  0  0  0  0  0  0  0
  -28.1888  -34.4558   22.0581 C   0  0  0  0  0  0  0  0  0  0  0  0
  -27.2178  -27.5727   19.6997 C   0  0  0  0  0  0  0  0  0  0  0  0
  -28.4501  -33.0729   22.0168 C   0  0  0  0  0  0  0  0  0  0  0  0
  -26.3856  -26.7998   20.5220 C   0  0  0  0  0  0  0  0  0  0  0  0
  -22.3689   -8.0279   21.2040 C   0  0  0  0  0  0  0  0  0  0  0  0
  -28.0280  -25.0080   20.4789 C   0  0  0  0  0  0  0  0  0  0  0  0
  -21.6688   -6.2474   22.5686 C   0  0  0  0  0  0  0  0  0  0  0  0
  -21.8123   -4.9020   25.0082 C   0  0  0  0  0  0  0  0  0  0  0  0
  -22.0796   -4.9150   22.6071 C   0  0  0  0  0  0  0  0  0  0  0  0
  -24.7640  -11.4818   20.7229 C   0  0  0  0  0  0  0  0  0  0  0  0
  -25.5612  -21.6046   19.0687 C   0  0  0  0  0  0  0  0  0  0  0  0
  -27.1783  -19.8593   20.2795 C   0  0  0  0  0  0  0  0  0  0  0  0
  -25.1103  -20.3570   19.4398 C   0  0  0  0  0  0  0  0  0  0  0  0
  -27.6295  -21.1066   19.9078 C   0  0  0  0  0  0  0  0  0  0  0  0
  -26.1250  -13.0234   19.9442 C   0  0  0  0  0  0  0  0  0  0  0  0
  -25.7525  -11.1115   18.3775 C   0  0  0  0  0  0  0  0  0  0  0  0
  -26.3578  -30.0798   21.4544 C   0  0  0  0  0  0  0  0  0  0  0  0
  -23.3657  -29.1448   20.6204 C   0  0  0  0  0  0  0  0  0  0  0  0
  -21.2945  -26.6319   19.5996 C   0  0  0  0  0  0  0  0  0  0  0  0
  -24.5092  -17.3959   23.7021 C   0  0  0  0  0  0  0  0  0  0  0  0
  -26.9231  -35.0062   22.6662 C   0  0  0  0  0  0  0  0  0  0  0  0
  -26.7839  -28.9397   19.2465 C   0  0  0  0  0  0  0  0  0  0  0  0
  -25.0545  -27.3107   21.0073 C   0  0  0  0  0  0  0  0  0  0  0  0
  -25.8145  -33.9667   22.8102 C   0  0  0  0  0  0  0  0  0  0  0  0
  -27.5572  -15.5561   23.7422 C   0  0  0  0  0  0  0  0  0  0  0  0
  -26.3659  -32.6780   23.4118 C   0  0  0  0  0  0  0  0  0  0  0  0
  -27.2582  -14.3339   22.8723 C   0  0  0  0  0  0  0  0  0  0  0  0
  -26.3419  -15.9719   24.5681 C   0  0  0  0  0  0  0  0  0  0  0  0
  -24.8100  -14.9684   22.9190 C   0  0  0  0  0  0  0  0  0  0  0  0
  -27.4372  -32.0601   22.5051 C   0  0  1  0  0  0  0  0  0  0  0  0
  -25.7538  -29.5775   20.1736 C   0  0  1  0  0  0  0  0  0  0  0  0
  -25.9887  -14.5452   22.0257 C   0  0  2  0  0  0  0  0  0  0  0  0
  -24.6655  -22.5856   18.3929 C   0  0  0  0  0  0  0  0  0  0  0  0
  -28.0737  -18.8781   20.9556 C   0  0  0  0  0  0  0  0  0  0  0  0
  -18.8939  -26.1632   19.0386 C   0  0  0  0  0  0  0  0  0  0  0  0
  -22.6756  -29.1349   23.5926 C   0  0  0  0  0  0  0  0  0  0  0  0
  -20.6422  -27.7809   23.0446 C   0  0  0  0  0  0  0  0  0  0  0  0
  -20.8960  -30.0804   22.1115 C   0  0  0  0  0  0  0  0  0  0  0  0
  -21.9718  -25.8702   16.8211 C   0  0  0  0  0  0  0  0  0  0  0  0
  -23.7057  -19.9299   19.1822 C   0  0  0  0  0  0  0  0  0  0  0  0
  -29.0523  -21.5384   20.1674 C   0  0  0  0  0  0  0  0  0  0  0  0
  -23.1806  -18.9719   20.2635 C   0  0  0  0  0  0  0  0  0  0  0  0
  -23.1645  -19.6306   21.6461 C   0  0  0  0  0  0  0  0  0  0  0  0
  -22.6341  -18.7008   22.7325 C   0  0  0  0  0  0  0  0  0  0  0  0
  -29.2510  -23.0357   19.9589 C   0  0  0  0  0  0  0  0  0  1  0  0
  -22.3357  -28.2096   21.2063 C   0  0  1  0  0  0  0  0  0  0  0  0
  -20.2550  -26.5694   18.4952 C   0  0  2  0  0  0  0  0  0  0  0  0
  -21.6633  -28.7923   22.4814 C   0  0  0  0  0  0  0  0  0  0  0  0
  -24.8260  -12.3955   21.6953 N   0  0  0  0  0  0  0  0  0  0  0  0
  -25.9107  -19.4620   20.0521 N   0  0  0  0  0  0  0  0  0  0  0  0
  -26.8290  -22.0017   19.2958 N   0  0  0  0  0  0  0  0  0  0  0  0
  -25.6614  -13.3202   21.1921 N   0  0  0  0  0  0  0  0  0  0  0  0
  -24.6773  -28.6556   20.5419 N   0  0  0  0  0  0  0  0  0  0  0  0
  -25.1725  -16.1577   23.7057 N   0  0  0  0  0  0  0  0  0  0  0  0
  -26.9739  -13.8454   19.2915 N   0  0  0  0  0  0  0  0  0  0  0  0
  -25.0892   -9.8903   18.1955 N   0  0  0  0  0  0  0  0  0  0  0  0
  -26.8212  -31.3798   21.3861 N   0  0  0  0  0  0  0  0  0  0  0  0
  -21.4037  -27.9012   20.1271 N   0  0  0  0  0  0  0  0  0  0  0  0
  -23.4145  -17.4893   22.8515 N   0  0  0  0  0  0  0  0  0  0  0  0
  -20.6609  -25.5802   17.4571 N   0  3  0  0  0  0  0  0  0  0  0  0
  -26.5092  -11.5399   17.4735 O   0  0  0  0  0  0  0  0  0  0  0  0
  -26.3991  -29.3429   22.4327 O   0  0  0  0  0  0  0  0  0  0  0  0
  -23.0180  -30.2655   20.2398 O   0  0  0  0  0  0  0  0  0  0  0  0
  -21.9422  -25.6518   19.9610 O   0  0  0  0  0  0  0  0  0  0  0  0
  -24.8694  -18.3492   24.4009 O   0  0  0  0  0  0  0  0  0  0  0  0
  -21.5979   -6.9169   21.3585 O   0  0  0  0  0  0  0  0  0  0  0  0
  -28.4206  -23.7630   20.8633 O   0  0  0  0  0  0  0  0  0  1  0  0
  -21.8826   -4.2566   26.1798 F   0  0  0  0  0  0  0  0  0  0  0  0
  -22.4076   -4.2762   21.4756 F   0  0  0  0  0  0  0  0  0  0  0  0
  1  2  1  0  0  0  0
  1  5  2  0  0  0  0
  2  6  2  0  0  0  0
  3  8  2  0  0  0  0
  3 15  1  0  0  0  0
  4  9  1  0  0  0  0
  4 15  2  0  0  0  0
  5 17  1  0  0  0  0
  6 19  1  0  0  0  0
  7 10  2  0  0  0  0
  7 18  1  0  0  0  0
  8 21  1  0  0  0  0
  9 21  2  0  0  0  0
 10 22  1  0  0  0  0
 11 12  2  0  0  0  0
 11 23  1  0  0  0  0
 12 24  1  0  0  0  0
 13 20  1  0  0  0  0
 13 22  2  0  0  0  0
 14 24  2  0  0  0  0
 14 25  1  0  0  0  0
 15 26  1  0  0  0  0
 16 26  1  0  0  0  0
 16 31  2  0  0  0  0
 16 32  1  0  0  0  0
 17 19  2  0  0  0  0
 17 37  1  0  0  0  0
 18 20  2  0  0  0  0
 18 38  1  0  0  0  0
 19 46  1  0  0  0  0
 20 39  1  0  0  0  0
 21 82  1  0  0  0  0
 22 83  1  0  0  0  0
 23 25  2  0  0  0  0
 23 82  1  0  0  0  0
 24 84  1  0  0  0  0
 25 85  1  0  0  0  0
 26 65  2  0  0  0  0
 27 29  1  0  0  0  0
 27 49  1  0  0  0  0
 27 67  2  0  0  0  0
 28 30  2  0  0  0  0
 28 50  1  0  0  0  0
 28 66  1  0  0  0  0
 29 56  1  0  0  0  0
 29 66  2  0  0  0  0
 30 57  1  0  0  0  0
 30 67  1  0  0  0  0
 31 68  1  0  0  0  0
 31 71  1  0  0  0  0
 32 72  1  0  0  0  0
 32 77  2  0  0  0  0
 33 47  1  0  0  0  0
 33 73  1  0  0  0  0
 33 78  2  0  0  0  0
 34 62  1  0  0  0  0
 34 69  1  0  0  0  0
 34 79  2  0  0  0  0
 35 63  1  0  0  0  0
 35 74  1  0  0  0  0
 35 80  2  0  0  0  0
 36 70  1  0  0  0  0
 36 75  1  0  0  0  0
 36 81  2  0  0  0  0
 37 40  1  0  0  0  0
 38 47  1  0  0  0  0
 39 69  1  0  0  0  0
 40 42  1  0  0  0  0
 41 43  1  0  0  0  0
 41 44  1  0  0  0  0
 42 46  1  0  0  0  0
 43 48  1  0  0  0  0
 44 70  1  0  0  0  0
 45 48  1  0  0  0  0
 45 70  1  0  0  0  0
 46 73  1  0  0  0  0
 47 69  1  0  0  0  0
 48 68  1  0  0  0  0
 51 63  1  0  0  0  0
 52 64  1  0  0  0  0
 53 64  1  0  0  0  0
 54 64  1  0  0  0  0
 55 76  1  0  0  0  0
 56 58  1  0  0  0  0
 57 61  1  0  0  0  0
 58 59  1  0  0  0  0
 59 60  1  0  0  0  0
 60 75  1  0  0  0  0
 61 83  1  0  0  0  0
 62 64  1  0  0  0  0
 62 74  1  0  0  0  0
 63 76  1  0  0  0  0
 65 68  1  0  0  0  0
M  CHG  1  76   1
M  ISO  4  36 100  61 101  75 100  83 101
M  END
> <Batch ID>
0035

> <Smiles>
CNC(C)C(=O)NC(C(=O)N1Cc2cc([101O:1][101CH2:1]Cc3nc(C)c(CCCC[100NH:0][100C:0](=O)N4CCCC(n5nc(-c6ccc(Oc7ccc(F)cc7F)cc6)c(C(N)=O)c5N)C4)nc3C)ccc2CC1C(=O)NC1CCCc2ccccc21)C(C)(C)C

> <Shape>
0.265

> <Color>
0.093

> <Negative vol penalty>
0.000

$$$$

  -OEChem-04052316533D

 83 91  0     1  0  0  0  0  0999 V2000
  -16.5120  -29.1907   23.0656 C   0  0  0  0  0  0  0  0  0  0  0  0
  -17.2883  -29.1721   21.9113 C   0  0  0  0  0  0  0  0  0  0  0  0
  -27.3780  -14.5512   21.3564 C   0  0  0  0  0  0  0  0  0  0  0  0
  -25.9899  -14.5542   19.3789 C   0  0  0  0  0  0  0  0  0  0  0  0
  -17.0796  -29.5742   24.2799 C   0  0  0  0  0  0  0  0  0  0  0  0
  -18.6326  -29.5381   21.9706 C   0  0  0  0  0  0  0  0  0  0  0  0
  -21.6247  -26.3671   19.3944 C   0  0  0  0  0  0  0  0  0  0  0  0
  -27.1025  -13.1973   21.5477 C   0  0  0  0  0  0  0  0  0  0  0  0
  -25.7145  -13.2003   19.5702 C   0  0  0  0  0  0  0  0  0  0  0  0
  -21.6555  -26.5061   18.0075 C   0  0  0  0  0  0  0  0  0  0  0  0
  -24.3564   -9.8332   19.7391 C   0  0  0  0  0  0  0  0  0  0  0  0
  -23.0333   -9.4146   19.5985 C   0  0  0  0  0  0  0  0  0  0  0  0
  -23.7268  -27.7303   18.1821 C   0  0  0  0  0  0  0  0  0  0  0  0
  -27.6369  -23.5762   16.3066 C   0  0  0  0  0  0  0  0  0  0  0  0
  -22.3734  -10.9006   21.3856 C   0  0  0  0  0  0  0  0  0  0  0  0
  -26.5930  -23.9874   13.8192 C   0  0  0  0  0  0  0  0  0  0  0  0
  -26.8216  -15.2297   20.2720 C   0  0  0  0  0  0  0  0  0  0  0  0
  -28.1643  -17.1843   19.3316 C   0  0  0  0  0  0  0  0  0  0  0  0
  -18.4339  -29.9358   24.3559 C   0  0  0  0  0  0  0  0  0  0  0  0
  -22.6408  -26.9190   20.1877 C   0  0  0  0  0  0  0  0  0  0  0  0
  -19.2185  -29.9281   23.1869 C   0  0  0  0  0  0  0  0  0  0  0  0
  -23.7079  -27.5947   19.5787 C   0  0  0  0  0  0  0  0  0  0  0  0
  -26.3221  -24.0109   16.1820 C   0  0  0  0  0  0  0  0  0  0  0  0
  -26.2708  -12.5218   20.6546 C   0  0  0  0  0  0  0  0  0  0  0  0
  -22.7051  -27.1902   17.4013 C   0  0  0  0  0  0  0  0  0  0  0  0
  -24.6881  -10.7855   20.7030 C   0  0  0  0  0  0  0  0  0  0  0  0
  -25.7826  -24.2228   14.9181 C   0  0  0  0  0  0  0  0  0  0  0  0
  -22.0418   -9.9483   20.4217 C   0  0  0  0  0  0  0  0  0  0  0  0
  -23.6965  -11.3191   21.5262 C   0  0  0  0  0  0  0  0  0  0  0  0
  -27.1054  -16.6284   20.0742 C   0  0  0  0  0  0  0  0  0  0  0  0
  -28.3643  -23.3696   15.1455 C   0  0  0  0  0  0  0  0  0  0  0  0
  -27.9932  -18.5417   19.4527 C   0  0  0  0  0  0  0  0  0  0  0  0
  -29.2091  -16.5320   18.5977 C   0  0  0  0  0  0  0  0  0  0  0  0
  -22.7539  -29.1264   22.4721 C   0  0  0  0  0  0  0  0  0  0  0  0
  -25.8484  -28.1791   22.6940 C   0  0  0  0  0  0  0  0  0  0  0  0
  -28.5520  -26.7377   21.1907 C   0  0  0  0  0  0  0  0  0  0  0  0
  -24.7087  -23.0536   19.4359 C   0  0  0  0  0  0  0  0  0  0  0  0
  -18.9910  -30.3886   25.6823 C   0  0  0  0  0  0  0  0  0  0  0  0
  -22.6069  -26.7373   21.6804 C   0  0  0  0  0  0  0  0  0  0  0  0
  -24.8338  -28.1882   20.3840 C   0  0  0  0  0  0  0  0  0  0  0  0
  -20.5168  -30.4018   25.7295 C   0  0  0  0  0  0  0  0  0  0  0  0
  -24.9491  -21.2192   22.4779 C   0  0  0  0  0  0  0  0  0  0  0  0
  -21.0838  -31.0667   24.4792 C   0  0  0  0  0  0  0  0  0  0  0  0
  -25.6128  -19.9055   22.0613 C   0  0  0  0  0  0  0  0  0  0  0  0
  -23.9915  -21.7327   21.4050 C   0  0  0  0  0  0  0  0  0  0  0  0
  -25.2453  -20.5505   19.6431 C   0  0  0  0  0  0  0  0  0  0  0  0
  -20.6865  -30.2944   23.2153 C   0  0  1  0  0  0  0  0  0  0  0  0
  -23.4271  -27.7838   22.4285 C   0  0  1  0  0  0  0  0  0  0  0  0
  -26.2623  -20.0221   20.6692 C   0  0  2  0  0  0  0  0  0  0  0  0
  -29.7789  -22.9032   15.2416 C   0  0  0  0  0  0  0  0  0  0  0  0
  -30.9519  -26.1367   21.6110 C   0  0  0  0  0  0  0  0  0  0  0  0
  -26.6381  -31.1071   22.3575 C   0  0  0  0  0  0  0  0  0  0  0  0
  -28.9658  -30.3470   21.8355 C   0  0  0  0  0  0  0  0  0  0  0  0
  -27.9673  -29.8581   24.0686 C   0  0  0  0  0  0  0  0  0  0  0  0
  -28.0234  -23.8553   20.7769 C   0  0  0  0  0  0  0  0  0  0  0  0
  -25.5069  -24.2445   17.4101 C   0  0  0  0  0  0  0  0  0  0  0  0
  -22.8271  -26.1848   13.9249 C   0  0  0  0  0  0  0  0  0  0  0  0
  -22.1355  -26.2902   15.2750 C   0  0  0  0  0  0  0  0  0  1  0  0
  -24.3113  -25.8866   14.0678 C   0  0  0  0  0  0  0  0  0  0  0  0
  -27.1434  -28.5953   22.0392 C   0  0  1  0  0  0  0  0  0  0  0  0
  -29.5093  -25.6577   21.6613 C   0  0  2  0  0  0  0  0  0  0  0  0
  -27.6566  -29.9675   22.5599 C   0  0  0  0  0  0  0  0  0  0  0  0
  -27.8745  -23.5647   13.9006 N   0  0  0  0  0  0  0  0  0  0  0  0
  -26.3198  -17.5568   20.6264 N   0  0  0  0  0  0  0  0  0  0  0  0
  -26.8855  -18.7098   20.2306 N   0  0  0  0  0  0  0  0  0  0  0  0
  -24.7523  -27.9895   21.8405 N   0  0  0  0  0  0  0  0  0  0  0  0
  -24.6696  -21.8217   20.1095 N   0  0  0  0  0  0  0  0  0  0  0  0
  -28.6837  -19.5960   18.9688 N   0  0  0  0  0  0  0  0  0  0  0  0
  -29.2367  -15.1309   18.5771 N   0  0  0  0  0  0  0  0  0  0  0  0
  -21.5068  -29.1114   23.0671 N   0  0  0  0  0  0  0  0  0  0  0  0
  -28.0764  -27.4922   22.2423 N   0  0  0  0  0  0  0  0  0  0  0  0
  -25.3766  -23.0520   18.2174 N   0  0  0  0  0  0  0  0  0  0  0  0
  -29.3862  -24.4462   20.8022 N   0  3  0  0  0  0  0  0  0  0  0  0
  -30.1016  -17.1726   17.9922 O   0  0  0  0  0  0  0  0  0  0  0  0
  -23.3244  -30.1038   22.0022 O   0  0  0  0  0  0  0  0  0  0  0  0
  -25.8126  -28.0210   23.9168 O   0  0  0  0  0  0  0  0  0  0  0  0
  -28.2585  -26.8985   20.0081 O   0  0  0  0  0  0  0  0  0  0  0  0
  -24.1916  -24.0802   19.8894 O   0  0  0  0  0  0  0  0  0  0  0  0
  -26.0020  -11.2006   20.8408 O   0  0  0  0  0  0  0  0  0  0  0  0
  -22.7373  -27.3279   16.0479 O   0  0  0  0  0  0  0  0  0  1  0  0
  -24.4920  -24.6516   14.7474 O   0  0  0  0  0  0  0  0  0  0  0  0
  -20.7710   -9.5474   20.2856 F   0  0  0  0  0  0  0  0  0  0  0  0
  -24.0088  -12.2351   22.4531 F   0  0  0  0  0  0  0  0  0  0  0  0
  1  2  1  0  0  0  0
  1  5  2  0  0  0  0
  2  6  2  0  0  0  0
  3  8  2  0  0  0  0
  3 17  1  0  0  0  0
  4  9  1  0  0  0  0
  4 17  2  0  0  0  0
  5 19  1  0  0  0  0
  6 21  1  0  0  0  0
  7 10  2  0  0  0  0
  7 20  1  0  0  0  0
  8 24  1  0  0  0  0
  9 24  2  0  0  0  0
 10 25  1  0  0  0  0
 11 12  2  0  0  0  0
 11 26  1  0  0  0  0
 12 28  1  0  0  0  0
 13 22  1  0  0  0  0
 13 25  2  0  0  0  0
 14 23  1  0  0  0  0
 14 31  2  0  0  0  0
 15 28  2  0  0  0  0
 15 29  1  0  0  0  0
 16 27  1  0  0  0  0
 16 63  2  0  0  0  0
 17 30  1  0  0  0  0
 18 30  1  0  0  0  0
 18 32  2  0  0  0  0
 18 33  1  0  0  0  0
 19 21  2  0  0  0  0
 19 38  1  0  0  0  0
 20 22  2  0  0  0  0
 20 39  1  0  0  0  0
 21 47  1  0  0  0  0
 22 40  1  0  0  0  0
 23 27  2  0  0  0  0
 23 56  1  0  0  0  0
 24 79  1  0  0  0  0
 25 80  1  0  0  0  0
 26 29  2  0  0  0  0
 26 79  1  0  0  0  0
 27 81  1  0  0  0  0
 28 82  1  0  0  0  0
 29 83  1  0  0  0  0
 30 64  2  0  0  0  0
 31 50  1  0  0  0  0
 31 63  1  0  0  0  0
 32 65  1  0  0  0  0
 32 68  1  0  0  0  0
 33 69  1  0  0  0  0
 33 74  2  0  0  0  0
 34 48  1  0  0  0  0
 34 70  1  0  0  0  0
 34 75  2  0  0  0  0
 35 60  1  0  0  0  0
 35 66  1  0  0  0  0
 35 76  2  0  0  0  0
 36 61  1  0  0  0  0
 36 71  1  0  0  0  0
 36 77  2  0  0  0  0
 37 67  1  0  0  0  0
 37 72  1  0  0  0  0
 37 78  2  0  0  0  0
 38 41  1  0  0  0  0
 39 48  1  0  0  0  0
 40 66  1  0  0  0  0
 41 43  1  0  0  0  0
 42 44  1  0  0  0  0
 42 45  1  0  0  0  0
 43 47  1  0  0  0  0
 44 49  1  0  0  0  0
 45 67  1  0  0  0  0
 46 49  1  0  0  0  0
 46 67  1  0  0  0  0
 47 70  1  0  0  0  0
 48 66  1  0  0  0  0
 49 65  1  0  0  0  0
 51 61  1  0  0  0  0
 52 62  1  0  0  0  0
 53 62  1  0  0  0  0
 54 62  1  0  0  0  0
 55 73  1  0  0  0  0
 56 72  1  0  0  0  0
 57 58  1  0  0  0  0
 57 59  1  0  0  0  0
 58 80  1  0  0  0  0
 59 81  1  0  0  0  0
 60 62  1  0  0  0  0
 60 71  1  0  0  0  0
 61 73  1  0  0  0  0
 64 65  1  0  0  0  0
M  CHG  1  73   1
M  ISO  4  37 100  58 101  72 100  80 101
M  END
> <Batch ID>
0035

> <Smiles>
CNC(C)C(=O)NC(C(=O)N1Cc2cc([101O:1][101CH2:1]CCOc3cnc(C)cc3C[100NH:0][100C:0](=O)N3CCCC(n4nc(-c5ccc(Oc6ccc(F)cc6F)cc5)c(C(N)=O)c4N)C3)ccc2CC1C(=O)NC1CCCc2ccccc21)C(C)(C)C

> <Shape>
0.207

> <Color>
0.068

> <Negative vol penalty>
0.000

$$$$

  -OEChem-04052316533D

 83 91  0     1  0  0  0  0  0999 V2000
  -16.9256  -30.4229   24.0495 C   0  0  0  0  0  0  0  0  0  0  0  0
  -18.1457  -30.9359   24.4780 C   0  0  0  0  0  0  0  0  0  0  0  0
  -28.3491  -18.6742   19.4316 C   0  0  0  0  0  0  0  0  0  0  0  0
  -29.4523  -19.0829   21.5418 C   0  0  0  0  0  0  0  0  0  0  0  0
  -16.8846  -29.2180   23.3492 C   0  0  0  0  0  0  0  0  0  0  0  0
  -19.3255  -30.2436   24.2073 C   0  0  0  0  0  0  0  0  0  0  0  0
  -26.2542  -31.3664   22.7759 C   0  0  0  0  0  0  0  0  0  0  0  0
  -28.0449  -17.3762   19.8420 C   0  0  0  0  0  0  0  0  0  0  0  0
  -29.1481  -17.7850   21.9522 C   0  0  0  0  0  0  0  0  0  0  0  0
  -27.5206  -30.9792   23.2119 C   0  0  0  0  0  0  0  0  0  0  0  0
  -29.6389  -14.4065   20.0952 C   0  0  0  0  0  0  0  0  0  0  0  0
  -29.8533  -13.3724   19.1840 C   0  0  0  0  0  0  0  0  0  0  0  0
  -27.3357  -28.9471   21.9253 C   0  0  0  0  0  0  0  0  0  0  0  0
  -32.2266  -27.7232   22.4854 C   0  0  0  0  0  0  0  0  0  0  0  0
  -27.5078  -12.8010   19.2805 C   0  0  0  0  0  0  0  0  0  0  0  0
  -32.6090  -27.5643   25.1825 C   0  0  0  0  0  0  0  0  0  0  0  0
  -29.0529  -19.5275   20.2815 C   0  0  0  0  0  0  0  0  0  0  0  0
  -28.5859  -22.0240   20.0431 C   0  0  0  0  0  0  0  0  0  0  0  0
  -18.0654  -28.5155   23.0614 C   0  0  0  0  0  0  0  0  0  0  0  0
  -25.5133  -30.5403   21.9185 C   0  0  0  0  0  0  0  0  0  0  0  0
  -19.3001  -29.0275   23.5036 C   0  0  0  0  0  0  0  0  0  0  0  0
  -26.0612  -29.3272   21.4778 C   0  0  0  0  0  0  0  0  0  0  0  0
  -31.1404  -27.8818   23.3389 C   0  0  0  0  0  0  0  0  0  0  0  0
  -28.4444  -16.9316   21.1023 C   0  0  0  0  0  0  0  0  0  0  0  0
  -28.0603  -29.7681   22.7889 C   0  0  0  0  0  0  0  0  0  0  0  0
  -28.3589  -14.6378   20.5992 C   0  0  0  0  0  0  0  0  0  0  0  0
  -28.7877  -12.5697   18.7766 C   0  0  0  0  0  0  0  0  0  0  0  0
  -27.2934  -13.8351   20.1918 C   0  0  0  0  0  0  0  0  0  0  0  0
  -31.3268  -27.8023   24.7145 C   0  0  0  0  0  0  0  0  0  0  0  0
  -29.3679  -20.8682   19.8579 C   0  0  0  0  0  0  0  0  0  0  0  0
  -33.4686  -27.4890   23.0533 C   0  0  0  0  0  0  0  0  0  0  0  0
  -29.3196  -23.0312   19.4653 C   0  0  0  0  0  0  0  0  0  0  0  0
  -27.3103  -22.1740   20.6804 C   0  0  0  0  0  0  0  0  0  0  0  0
  -22.7252  -29.0268   22.1174 C   0  0  0  0  0  0  0  0  0  0  0  0
  -23.3170  -28.3428   19.0022 C   0  0  0  0  0  0  0  0  0  0  0  0
  -25.6121  -27.9561   16.5062 C   0  0  0  0  0  0  0  0  0  0  0  0
  -35.1706  -23.7136   18.3925 C   0  0  0  0  0  0  0  0  0  0  0  0
  -17.9665  -27.1932   22.3427 C   0  0  0  0  0  0  0  0  0  0  0  0
  -24.1598  -30.9848   21.4359 C   0  0  0  0  0  0  0  0  0  0  0  0
  -25.3149  -28.4138   20.5413 C   0  0  0  0  0  0  0  0  0  0  0  0
  -19.2966  -26.7103   21.7701 C   0  0  0  0  0  0  0  0  0  0  0  0
  -32.5305  -23.8139   16.0058 C   0  0  0  0  0  0  0  0  0  0  0  0
  -20.4068  -26.8515   22.8066 C   0  0  0  0  0  0  0  0  0  0  0  0
  -31.3500  -23.1746   16.7391 C   0  0  0  0  0  0  0  0  0  0  0  0
  -33.8528  -23.1445   16.3736 C   0  0  0  0  0  0  0  0  0  0  0  0
  -32.9493  -22.4345   18.5538 C   0  0  0  0  0  0  0  0  0  0  0  0
  -20.6038  -28.3184   23.2077 C   0  0  1  0  0  0  0  0  0  0  0  0
  -23.2806  -29.8270   20.9733 C   0  0  1  0  0  0  0  0  0  0  0  0
  -31.6006  -23.1124   18.2579 C   0  0  2  0  0  0  0  0  0  0  0  0
  -25.7978  -27.3576   14.0763 C   0  0  0  0  0  0  0  0  0  0  0  0
  -22.8881  -25.4026   19.6961 C   0  0  0  0  0  0  0  0  0  0  0  0
  -23.9947  -24.8025   17.5320 C   0  0  0  0  0  0  0  0  0  0  0  0
  -21.8767  -26.1202   17.5244 C   0  0  0  0  0  0  0  0  0  0  0  0
  -26.7756  -30.5912   15.8267 C   0  0  0  0  0  0  0  0  0  0  0  0
  -29.7876  -28.1340   22.7408 C   0  0  0  0  0  0  0  0  0  1  0  0
  -34.6573  -27.3148   22.1678 C   0  0  0  0  0  0  0  0  0  0  0  0
  -34.8783  -25.8461   21.7749 C   0  0  0  0  0  0  0  0  0  0  0  0
  -36.1219  -25.6762   20.8971 C   0  0  0  0  0  0  0  0  0  0  0  0
  -36.3689  -24.2230   20.5053 C   0  0  0  0  0  0  0  0  0  0  0  0
  -24.0237  -27.2292   18.2677 C   0  0  1  0  0  0  0  0  0  0  0  0
  -25.6532  -28.4869   15.0846 C   0  0  2  0  0  0  0  0  0  0  0  0
  -23.2093  -25.9047   18.2742 C   0  0  0  0  0  0  0  0  0  0  0  0
  -33.6886  -27.4050   24.3845 N   0  0  0  0  0  0  0  0  0  0  0  0
  -30.5107  -21.1167   19.2128 N   0  0  0  0  0  0  0  0  0  0  0  0
  -30.4522  -22.4403   18.9875 N   0  0  0  0  0  0  0  0  0  0  0  0
  -23.9926  -28.8895   20.1024 N   0  0  0  0  0  0  0  0  0  0  0  0
  -34.0302  -23.1193   17.8275 N   0  0  0  0  0  0  0  0  0  0  0  0
  -29.1000  -24.3557   19.3244 N   0  0  0  0  0  0  0  0  0  0  0  0
  -26.6958  -21.0363   21.2211 N   0  0  0  0  0  0  0  0  0  0  0  0
  -21.3451  -29.0265   22.1861 N   0  0  0  0  0  0  0  0  0  0  0  0
  -24.3189  -27.7425   16.9344 N   0  0  0  0  0  0  0  0  0  0  0  0
  -35.2579  -23.6510   19.7778 N   0  0  0  0  0  0  0  0  0  0  0  0
  -26.8024  -29.4200   14.9131 N   0  3  0  0  0  0  0  0  0  0  0  0
  -26.7250  -23.2811   20.7532 O   0  0  0  0  0  0  0  0  0  0  0  0
  -23.4920  -28.4510   22.8804 O   0  0  0  0  0  0  0  0  0  0  0  0
  -22.2096  -28.7187   18.6097 O   0  0  0  0  0  0  0  0  0  0  0  0
  -26.6259  -27.7481   17.1692 O   0  0  0  0  0  0  0  0  0  0  0  0
  -36.0436  -24.2643   17.7131 O   0  0  0  0  0  0  0  0  0  0  0  0
  -28.1475  -15.6652   21.5032 O   0  0  0  0  0  0  0  0  0  0  0  0
  -29.2959  -29.3874   23.2136 O   0  0  0  0  0  0  0  0  0  1  0  0
  -28.9935  -11.5777   17.9003 F   0  0  0  0  0  0  0  0  0  0  0  0
  -26.0613  -14.0532   20.6716 F   0  0  0  0  0  0  0  0  0  0  0  0
  -30.0299  -27.9860   25.8288 Cl  0  0  0  0  0  0  0  0  0  0  0  0
  1  2  1  0  0  0  0
  1  5  2  0  0  0  0
  2  6  2  0  0  0  0
  3  8  2  0  0  0  0
  3 17  1  0  0  0  0
  4  9  1  0  0  0  0
  4 17  2  0  0  0  0
  5 19  1  0  0  0  0
  6 21  1  0  0  0  0
  7 10  2  0  0  0  0
  7 20  1  0  0  0  0
  8 24  1  0  0  0  0
  9 24  2  0  0  0  0
 10 25  1  0  0  0  0
 11 12  2  0  0  0  0
 11 26  1  0  0  0  0
 12 27  1  0  0  0  0
 13 22  1  0  0  0  0
 13 25  2  0  0  0  0
 14 23  1  0  0  0  0
 14 31  2  0  0  0  0
 15 27  2  0  0  0  0
 15 28  1  0  0  0  0
 16 29  1  0  0  0  0
 16 63  2  0  0  0  0
 17 30  1  0  0  0  0
 18 30  1  0  0  0  0
 18 32  2  0  0  0  0
 18 33  1  0  0  0  0
 19 21  2  0  0  0  0
 19 38  1  0  0  0  0
 20 22  2  0  0  0  0
 20 39  1  0  0  0  0
 21 47  1  0  0  0  0
 22 40  1  0  0  0  0
 23 29  2  0  0  0  0
 23 55  1  0  0  0  0
 24 79  1  0  0  0  0
 25 80  1  0  0  0  0
 26 28  2  0  0  0  0
 26 79  1  0  0  0  0
 27 81  1  0  0  0  0
 28 82  1  0  0  0  0
 29 83  1  0  0  0  0
 30 64  2  0  0  0  0
 31 56  1  0  0  0  0
 31 63  1  0  0  0  0
 32 65  1  0  0  0  0
 32 68  1  0  0  0  0
 33 69  1  0  0  0  0
 33 74  2  0  0  0  0
 34 48  1  0  0  0  0
 34 70  1  0  0  0  0
 34 75  2  0  0  0  0
 35 60  1  0  0  0  0
 35 66  1  0  0  0  0
 35 76  2  0  0  0  0
 36 61  1  0  0  0  0
 36 71  1  0  0  0  0
 36 77  2  0  0  0  0
 37 67  1  0  0  0  0
 37 72  1  0  0  0  0
 37 78  2  0  0  0  0
 38 41  1  0  0  0  0
 39 48  1  0  0  0  0
 40 66  1  0  0  0  0
 41 43  1  0  0  0  0
 42 44  1  0  0  0  0
 42 45  1  0  0  0  0
 43 47  1  0  0  0  0
 44 49  1  0  0  0  0
 45 67  1  0  0  0  0
 46 49  1  0  0  0  0
 46 67  1  0  0  0  0
 47 70  1  0  0  0  0
 48 66  1  0  0  0  0
 49 65  1  0  0  0  0
 50 61  1  0  0  0  0
 51 62  1  0  0  0  0
 52 62  1  0  0  0  0
 53 62  1  0  0  0  0
 54 73  1  0  0  0  0
 55 80  1  0  0  0  0
 56 57  1  0  0  0  0
 57 58  1  0  0  0  0
 58 59  1  0  0  0  0
 59 72  1  0  0  0  0
 60 62  1  0  0  0  0
 60 71  1  0  0  0  0
 61 73  1  0  0  0  0
 64 65  1  0  0  0  0
M  CHG  1  73   1
M  ISO  4  37 100  55 101  72 100  80 101
M  END
> <Batch ID>
0035

> <Smiles>
CNC(C)C(=O)NC(C(=O)N1Cc2cc([101O:1][101CH2:1]c3cc(CCCC[100NH:0][100C:0](=O)N4CCCC(n5nc(-c6ccc(Oc7ccc(F)cc7F)cc6)c(C(N)=O)c5N)C4)ncc3Cl)ccc2CC1C(=O)NC1CCCc2ccccc21)C(C)(C)C

> <Shape>
0.271

> <Color>
0.095

> <Negative vol penalty>
0.000

$$$$

  -OEChem-04052316533D

 81 89  0     1  0  0  0  0  0999 V2000
  -18.7819  -25.2621   19.7102 C   0  0  0  0  0  0  0  0  0  0  0  0
  -20.1223  -25.5647   19.4933 C   0  0  0  0  0  0  0  0  0  0  0  0
  -24.1272  -14.1656   20.8121 C   0  0  0  0  0  0  0  0  0  0  0  0
  -26.5405  -14.0654   20.8704 C   0  0  0  0  0  0  0  0  0  0  0  0
  -18.0966  -25.8567   20.7688 C   0  0  0  0  0  0  0  0  0  0  0  0
  -20.7780  -26.4630   20.3344 C   0  0  0  0  0  0  0  0  0  0  0  0
  -25.3665  -24.8303   21.7220 C   0  0  0  0  0  0  0  0  0  0  0  0
  -24.0797  -12.8169   20.4597 C   0  0  0  0  0  0  0  0  0  0  0  0
  -26.4930  -12.7166   20.5180 C   0  0  0  0  0  0  0  0  0  0  0  0
  -26.3968  -24.9604   20.7917 C   0  0  0  0  0  0  0  0  0  0  0  0
  -24.3666   -9.8256   22.0098 C   0  0  0  0  0  0  0  0  0  0  0  0
  -23.4442   -9.0149   22.6712 C   0  0  0  0  0  0  0  0  0  0  0  0
  -27.1652  -26.9440   21.9293 C   0  0  0  0  0  0  0  0  0  0  0  0
  -30.3836  -23.8067   18.9168 C   0  0  0  0  0  0  0  0  0  0  0  0
  -22.3876   -8.4959   20.5613 C   0  0  0  0  0  0  0  0  0  0  0  0
  -31.3626  -22.7512   21.2349 C   0  0  0  0  0  0  0  0  0  0  0  0
  -25.3576  -14.7899   21.0174 C   0  0  0  0  0  0  0  0  0  0  0  0
  -25.3986  -16.7235   22.6809 C   0  0  0  0  0  0  0  0  0  0  0  0
  -18.7468  -26.7553   21.6292 C   0  0  0  0  0  0  0  0  0  0  0  0
  -25.2210  -25.7638   22.7582 C   0  0  0  0  0  0  0  0  0  0  0  0
  -20.1004  -27.0712   21.4048 C   0  0  0  0  0  0  0  0  0  0  0  0
  -26.1338  -26.8220   22.8729 C   0  0  0  0  0  0  0  0  0  0  0  0
  -30.8039  -24.6601   19.9309 C   0  0  0  0  0  0  0  0  0  0  0  0
  -25.2626  -12.0923   20.3126 C   0  0  0  0  0  0  0  0  0  0  0  0
  -27.2946  -26.0190   20.8936 C   0  0  0  0  0  0  0  0  0  0  0  0
  -24.2995   -9.9715   20.6242 C   0  0  0  0  0  0  0  0  0  0  0  0
  -22.4547   -8.3500   21.9470 C   0  0  0  0  0  0  0  0  0  0  0  0
  -23.3101   -9.3067   19.9000 C   0  0  0  0  0  0  0  0  0  0  0  0
  -31.3040  -24.1303   21.1151 C   0  0  0  0  0  0  0  0  0  0  0  0
  -25.4074  -16.1833   21.3809 C   0  0  0  0  0  0  0  0  0  0  0  0
  -30.4836  -22.4420   19.1349 C   0  0  0  0  0  0  0  0  0  0  0  0
  -25.4605  -18.0820   22.4886 C   0  0  0  0  0  0  0  0  0  0  0  0
  -25.3399  -16.0569   23.9489 C   0  0  0  0  0  0  0  0  0  0  0  0
  -22.9617  -27.8281   23.6169 C   0  0  0  0  0  0  0  0  0  0  0  0
  -24.8911  -28.2734   26.1862 C   0  0  0  0  0  0  0  0  0  0  0  0
  -28.0275  -28.0947   27.5196 C   0  0  0  0  0  0  0  0  0  0  0  0
  -27.5616  -21.4768   18.0262 C   0  0  0  0  0  0  0  0  0  0  0  0
  -17.9518  -27.4091   22.7315 C   0  0  0  0  0  0  0  0  0  0  0  0
  -24.1204  -25.5943   23.7692 C   0  0  0  0  0  0  0  0  0  0  0  0
  -26.0333  -27.8395   23.9788 C   0  0  0  0  0  0  0  0  0  0  0  0
  -18.8202  -28.0638   23.8028 C   0  0  0  0  0  0  0  0  0  0  0  0
  -24.2528  -21.4771   19.3412 C   0  0  0  0  0  0  0  0  0  0  0  0
  -19.9237  -28.8976   23.1595 C   0  0  0  0  0  0  0  0  0  0  0  0
  -24.1727  -20.1691   20.1303 C   0  0  0  0  0  0  0  0  0  0  0  0
  -25.0897  -21.3209   18.0734 C   0  0  0  0  0  0  0  0  0  0  0  0
  -26.3615  -19.4636   19.0766 C   0  0  0  0  0  0  0  0  0  0  0  0
  -20.8530  -28.0218   22.3104 C   0  0  1  0  0  0  0  0  0  0  0  0
  -23.7587  -26.8935   24.4823 C   0  0  1  0  0  0  0  0  0  0  0  0
  -25.5742  -19.5857   20.3925 C   0  0  2  0  0  0  0  0  0  0  0  0
  -29.2999  -28.5627   29.6314 C   0  0  0  0  0  0  0  0  0  0  0  0
  -24.8226  -31.2594   25.5628 C   0  0  0  0  0  0  0  0  0  0  0  0
  -26.8083  -31.5467   27.0604 C   0  0  0  0  0  0  0  0  0  0  0  0
  -24.6567  -30.6972   27.9940 C   0  0  0  0  0  0  0  0  0  0  0  0
  -28.8068  -25.2551   27.8168 C   0  0  0  0  0  0  0  0  0  0  0  0
  -30.7000  -26.1498   19.7111 C   0  0  0  0  0  0  0  0  0  0  0  0
  -30.0429  -21.4960   18.0680 C   0  0  0  0  0  0  0  0  0  0  0  0
  -29.5077  -26.7615   20.4386 C   0  0  0  0  0  0  0  0  0  1  0  0
  -26.0444  -29.1919   26.5107 C   0  0  1  0  0  0  0  0  0  0  0  0
  -28.5334  -27.5213   28.8310 C   0  0  2  0  0  0  0  0  0  0  0  0
  -25.5840  -30.6559   26.7599 C   0  0  0  0  0  0  0  0  0  0  0  0
  -30.9638  -21.8903   20.2718 N   0  0  0  0  0  0  0  0  0  0  0  0
  -25.4698  -17.1220   20.4328 N   0  0  0  0  0  0  0  0  0  0  0  0
  -25.5007  -18.2658   21.1377 N   0  0  0  0  0  0  0  0  0  0  0  0
  -24.9364  -27.6343   24.9390 N   0  0  0  0  0  0  0  0  0  0  0  0
  -26.4071  -20.7648   18.3914 N   0  0  0  0  0  0  0  0  0  0  0  0
  -25.4839  -19.1254   23.3448 N   0  0  0  0  0  0  0  0  0  0  0  0
  -25.2806  -14.6567   23.9655 N   0  0  0  0  0  0  0  0  0  0  0  0
  -21.7736  -27.2932   23.1567 N   0  0  0  0  0  0  0  0  0  0  0  0
  -26.7444  -28.5856   27.6380 N   0  0  0  0  0  0  0  0  0  0  0  0
  -28.7692  -20.8821   18.3707 N   0  0  0  0  0  0  0  0  0  0  0  0
  -29.4384  -26.3650   28.5759 N   0  3  0  0  0  0  0  0  0  0  0  0
  -25.3234  -16.6850   25.0346 O   0  0  0  0  0  0  0  0  0  0  0  0
  -23.3920  -28.9519   23.3852 O   0  0  0  0  0  0  0  0  0  0  0  0
  -23.9872  -28.1227   27.0119 O   0  0  0  0  0  0  0  0  0  0  0  0
  -28.7044  -28.1094   26.4938 O   0  0  0  0  0  0  0  0  0  0  0  0
  -27.5191  -22.5646   17.4416 O   0  0  0  0  0  0  0  0  0  0  0  0
  -25.2166  -10.7762   19.9690 O   0  0  0  0  0  0  0  0  0  0  0  0
  -28.3008  -26.1487   19.9866 O   0  0  0  0  0  0  0  0  0  1  0  0
  -21.5699   -7.5703   22.5820 F   0  0  0  0  0  0  0  0  0  0  0  0
  -23.2413   -9.4420   18.5685 F   0  0  0  0  0  0  0  0  0  0  0  0
  -31.8394  -25.1249   22.4119 Cl  0  0  0  0  0  0  0  0  0  0  0  0
  1  2  1  0  0  0  0
  1  5  2  0  0  0  0
  2  6  2  0  0  0  0
  3  8  2  0  0  0  0
  3 17  1  0  0  0  0
  4  9  1  0  0  0  0
  4 17  2  0  0  0  0
  5 19  1  0  0  0  0
  6 21  1  0  0  0  0
  7 10  2  0  0  0  0
  7 20  1  0  0  0  0
  8 24  1  0  0  0  0
  9 24  2  0  0  0  0
 10 25  1  0  0  0  0
 11 12  2  0  0  0  0
 11 26  1  0  0  0  0
 12 27  1  0  0  0  0
 13 22  1  0  0  0  0
 13 25  2  0  0  0  0
 14 23  1  0  0  0  0
 14 31  2  0  0  0  0
 15 27  2  0  0  0  0
 15 28  1  0  0  0  0
 16 29  1  0  0  0  0
 16 61  2  0  0  0  0
 17 30  1  0  0  0  0
 18 30  1  0  0  0  0
 18 32  2  0  0  0  0
 18 33  1  0  0  0  0
 19 21  2  0  0  0  0
 19 38  1  0  0  0  0
 20 22  2  0  0  0  0
 20 39  1  0  0  0  0
 21 47  1  0  0  0  0
 22 40  1  0  0  0  0
 23 29  2  0  0  0  0
 23 55  1  0  0  0  0
 24 77  1  0  0  0  0
 25 78  1  0  0  0  0
 26 28  2  0  0  0  0
 26 77  1  0  0  0  0
 27 79  1  0  0  0  0
 28 80  1  0  0  0  0
 29 81  1  0  0  0  0
 30 62  2  0  0  0  0
 31 56  1  0  0  0  0
 31 61  1  0  0  0  0
 32 63  1  0  0  0  0
 32 66  1  0  0  0  0
 33 67  1  0  0  0  0
 33 72  2  0  0  0  0
 34 48  1  0  0  0  0
 34 68  1  0  0  0  0
 34 73  2  0  0  0  0
 35 58  1  0  0  0  0
 35 64  1  0  0  0  0
 35 74  2  0  0  0  0
 36 59  1  0  0  0  0
 36 69  1  0  0  0  0
 36 75  2  0  0  0  0
 37 65  1  0  0  0  0
 37 70  1  0  0  0  0
 37 76  2  0  0  0  0
 38 41  1  0  0  0  0
 39 48  1  0  0  0  0
 40 64  1  0  0  0  0
 41 43  1  0  0  0  0
 42 44  1  0  0  0  0
 42 45  1  0  0  0  0
 43 47  1  0  0  0  0
 44 49  1  0  0  0  0
 45 65  1  0  0  0  0
 46 49  1  0  0  0  0
 46 65  1  0  0  0  0
 47 68  1  0  0  0  0
 48 64  1  0  0  0  0
 49 63  1  0  0  0  0
 50 59  1  0  0  0  0
 51 60  1  0  0  0  0
 52 60  1  0  0  0  0
 53 60  1  0  0  0  0
 54 71  1  0  0  0  0
 55 57  1  0  0  0  0
 56 70  1  0  0  0  0
 57 78  1  0  0  0  0
 58 60  1  0  0  0  0
 58 69  1  0  0  0  0
 59 71  1  0  0  0  0
 62 63  1  0  0  0  0
M  CHG  1  71   1
M  ISO  4  37 100  57 101  70 100  78 101
M  END
> <Batch ID>
0035

> <Smiles>
CNC(C)C(=O)NC(C(=O)N1Cc2cc([101O:1][101CH2:1]Cc3cc(C[100NH:0][100C:0](=O)N4CCCC(n5nc(-c6ccc(Oc7ccc(F)cc7F)cc6)c(C(N)=O)c5N)C4)ncc3Cl)ccc2CC1C(=O)NC1CCCc2ccccc21)C(C)(C)C

> <Shape>
0.204

> <Color>
0.087

> <Negative vol penalty>
0.000

$$$$

  -OEChem-04052316533D

 85 94  0     1  0  0  0  0  0999 V2000
  -21.7553  -25.9671   33.5043 C   0  0  0  0  0  0  0  0  0  0  0  0
  -22.4286  -25.1707   32.5835 C   0  0  0  0  0  0  0  0  0  0  0  0
  -23.5383  -10.2923   22.6835 C   0  0  0  0  0  0  0  0  0  0  0  0
  -24.1395  -12.0323   24.2482 C   0  0  0  0  0  0  0  0  0  0  0  0
  -20.6279  -26.6861   33.1095 C   0  0  0  0  0  0  0  0  0  0  0  0
  -21.9742  -25.0920   31.2675 C   0  0  0  0  0  0  0  0  0  0  0  0
  -25.3935  -24.5022   26.2211 C   0  0  0  0  0  0  0  0  0  0  0  0
  -22.9345   -9.5733   23.7150 C   0  0  0  0  0  0  0  0  0  0  0  0
  -23.5356  -11.3133   25.2797 C   0  0  0  0  0  0  0  0  0  0  0  0
  -25.7330  -23.3970   25.4420 C   0  0  0  0  0  0  0  0  0  0  0  0
  -20.4047  -10.7504   26.4204 C   0  0  0  0  0  0  0  0  0  0  0  0
  -19.5843  -11.4523   27.3036 C   0  0  0  0  0  0  0  0  0  0  0  0
  -28.7675  -20.9967   21.7158 C   0  0  0  0  0  0  0  0  0  0  0  0
  -23.9212  -23.9108   23.9345 C   0  0  0  0  0  0  0  0  0  0  0  0
  -25.7894  -19.0297   22.9979 C   0  0  0  0  0  0  0  0  0  0  0  0
  -21.0141  -10.8099   29.1421 C   0  0  0  0  0  0  0  0  0  0  0  0
  -29.4717  -20.4185   20.6817 C   0  0  0  0  0  0  0  0  0  0  0  0
  -27.7026  -20.1199   22.0528 C   0  0  0  0  0  0  0  0  0  0  0  0
  -24.1409  -11.5218   22.9501 C   0  0  0  0  0  0  0  0  0  0  0  0
  -24.1618  -13.2242   21.0504 C   0  0  0  0  0  0  0  0  0  0  0  0
  -20.1652  -26.6238   31.7856 C   0  0  0  0  0  0  0  0  0  0  0  0
  -24.3067  -25.3151   25.8682 C   0  0  0  0  0  0  0  0  0  0  0  0
  -20.8388  -25.8099   30.8550 C   0  0  0  0  0  0  0  0  0  0  0  0
  -23.5715  -25.0272   24.7094 C   0  0  0  0  0  0  0  0  0  0  0  0
  -26.6559  -20.1213   22.9889 C   0  0  0  0  0  0  0  0  0  0  0  0
  -22.9331  -10.0838   25.0131 C   0  0  0  0  0  0  0  0  0  0  0  0
  -24.9950  -23.0995   24.3001 C   0  0  0  0  0  0  0  0  0  0  0  0
  -21.5298  -10.0783   26.8980 C   0  0  0  0  0  0  0  0  0  0  0  0
  -19.8890  -11.4820   28.6644 C   0  0  0  0  0  0  0  0  0  0  0  0
  -21.8345  -10.1081   28.2589 C   0  0  0  0  0  0  0  0  0  0  0  0
  -24.7654  -12.2647   21.8851 C   0  0  0  0  0  0  0  0  0  0  0  0
  -26.0007  -18.0018   22.0889 C   0  0  0  0  0  0  0  0  0  0  0  0
  -27.7976  -19.0240   21.2000 C   0  0  0  0  0  0  0  0  0  0  0  0
  -25.1697  -13.6319   20.2111 C   0  0  0  0  0  0  0  0  0  0  0  0
  -22.8108  -13.7041   21.0351 C   0  0  0  0  0  0  0  0  0  0  0  0
  -21.5444  -26.0866   27.2385 C   0  0  0  0  0  0  0  0  0  0  0  0
  -21.3009  -28.1050   24.7109 C   0  0  0  0  0  0  0  0  0  0  0  0
  -22.2076  -28.8604   21.5087 C   0  0  0  0  0  0  0  0  0  0  0  0
  -30.8682  -14.6518   20.2359 C   0  0  0  0  0  0  0  0  0  0  0  0
  -18.9144  -27.3819   31.4174 C   0  0  0  0  0  0  0  0  0  0  0  0
  -23.9700  -26.5191   26.7044 C   0  0  0  0  0  0  0  0  0  0  0  0
  -22.4084  -25.8802   24.2759 C   0  0  0  0  0  0  0  0  0  0  0  0
  -18.7178  -27.5380   29.9116 C   0  0  0  0  0  0  0  0  0  0  0  0
  -29.4921  -11.7141   18.7686 C   0  0  0  0  0  0  0  0  0  0  0  0
  -18.9535  -26.2085   29.2019 C   0  0  0  0  0  0  0  0  0  0  0  0
  -28.0769  -11.6458   19.3451 C   0  0  0  0  0  0  0  0  0  0  0  0
  -30.4937  -12.2436   19.7926 C   0  0  0  0  0  0  0  0  0  0  0  0
  -28.7145  -13.4671   20.9806 C   0  0  0  0  0  0  0  0  0  0  0  0
  -20.3911  -25.7181   29.4123 C   0  0  1  0  0  0  0  0  0  0  0  0
  -22.5257  -26.9800   26.5340 C   0  0  1  0  0  0  0  0  0  0  0  0
  -27.6593  -12.9918   19.9673 C   0  0  2  0  0  0  0  0  0  0  0  0
  -25.0654  -16.8353   22.1067 C   0  0  0  0  0  0  0  0  0  0  0  0
  -21.8164  -30.5530   19.6978 C   0  0  0  0  0  0  0  0  0  0  0  0
  -18.5751  -26.8590   24.1384 C   0  0  0  0  0  0  0  0  0  0  0  0
  -18.6686  -27.8750   21.8521 C   0  0  0  0  0  0  0  0  0  0  0  0
  -18.6638  -29.3437   23.8685 C   0  0  0  0  0  0  0  0  0  0  0  0
  -25.0638  -29.6338   21.4545 C   0  0  0  0  0  0  0  0  0  0  0  0
  -26.4366  -21.2375   23.9674 C   0  0  0  0  0  0  0  0  0  1  0  0
  -30.7893  -17.8881   19.4849 C   0  0  0  0  0  0  0  0  0  0  0  0
  -29.3231  -18.3181   19.3418 C   0  0  0  0  0  0  0  0  0  0  0  0
  -31.0915  -17.0717   20.7396 C   0  0  0  0  0  0  0  0  0  0  0  0
  -20.7364  -28.0061   23.3143 C   0  0  1  0  0  0  0  0  0  0  0  0
  -22.6900  -30.1536   20.8768 C   0  0  2  0  0  0  0  0  0  0  0  0
  -19.1816  -28.0035   23.3023 C   0  0  0  0  0  0  0  0  0  0  0  0
  -26.0567  -12.0740   21.6018 N   0  0  0  0  0  0  0  0  0  0  0  0
  -26.9898  -17.9473   21.1668 N   0  0  0  0  0  0  0  0  0  0  0  0
  -28.8745  -19.2229   20.3767 N   0  0  0  0  0  0  0  0  0  0  0  0
  -26.2727  -12.9193   20.5796 N   0  0  0  0  0  0  0  0  0  0  0  0
  -22.1144  -27.0427   25.1300 N   0  0  0  0  0  0  0  0  0  0  0  0
  -30.0394  -13.5228   20.3431 N   0  0  0  0  0  0  0  0  0  0  0  0
  -25.2112  -14.5267   19.2012 N   0  0  0  0  0  0  0  0  0  0  0  0
  -21.9046  -13.1788   21.9663 N   0  0  0  0  0  0  0  0  0  0  0  0
  -21.3029  -26.4414   28.5520 N   0  0  0  0  0  0  0  0  0  0  0  0
  -21.3381  -29.0953   22.5527 N   0  0  0  0  0  0  0  0  0  0  0  0
  -30.3591  -15.8255   20.7781 N   0  0  0  0  0  0  0  0  0  0  0  0
  -24.0916  -30.0027   20.3934 N   0  3  0  0  0  0  0  0  0  0  0  0
  -22.4148  -14.5611   20.2091 O   0  0  0  0  0  0  0  0  0  0  0  0
  -21.0423  -25.1458   26.6347 O   0  0  0  0  0  0  0  0  0  0  0  0
  -21.0358  -29.0919   25.4018 O   0  0  0  0  0  0  0  0  0  0  0  0
  -22.5634  -27.7525   21.1131 O   0  0  0  0  0  0  0  0  0  0  0  0
  -31.9773  -14.6177   19.6920 O   0  0  0  0  0  0  0  0  0  0  0  0
  -22.3437   -9.3826   26.0198 O   0  0  0  0  0  0  0  0  0  0  0  0
  -25.3238  -22.0209   23.5382 O   0  0  0  0  0  0  0  0  0  1  0  0
  -19.1020  -12.1573   29.5122 F   0  0  0  0  0  0  0  0  0  0  0  0
  -22.9146   -9.4653   28.7235 F   0  0  0  0  0  0  0  0  0  0  0  0
  1  2  1  0  0  0  0
  1  5  2  0  0  0  0
  2  6  2  0  0  0  0
  3  8  2  0  0  0  0
  3 19  1  0  0  0  0
  4  9  1  0  0  0  0
  4 19  2  0  0  0  0
  5 21  1  0  0  0  0
  6 23  1  0  0  0  0
  7 10  2  0  0  0  0
  7 22  1  0  0  0  0
  8 26  1  0  0  0  0
  9 26  2  0  0  0  0
 10 27  1  0  0  0  0
 11 12  2  0  0  0  0
 11 28  1  0  0  0  0
 12 29  1  0  0  0  0
 13 17  2  0  0  0  0
 13 18  1  0  0  0  0
 14 24  1  0  0  0  0
 14 27  2  0  0  0  0
 15 25  1  0  0  0  0
 15 32  2  0  0  0  0
 16 29  2  0  0  0  0
 16 30  1  0  0  0  0
 17 67  1  0  0  0  0
 18 25  2  0  0  0  0
 18 33  1  0  0  0  0
 19 31  1  0  0  0  0
 20 31  1  0  0  0  0
 20 34  2  0  0  0  0
 20 35  1  0  0  0  0
 21 23  2  0  0  0  0
 21 40  1  0  0  0  0
 22 24  2  0  0  0  0
 22 41  1  0  0  0  0
 23 49  1  0  0  0  0
 24 42  1  0  0  0  0
 25 58  1  0  0  0  0
 26 82  1  0  0  0  0
 27 83  1  0  0  0  0
 28 30  2  0  0  0  0
 28 82  1  0  0  0  0
 29 84  1  0  0  0  0
 30 85  1  0  0  0  0
 31 65  2  0  0  0  0
 32 52  1  0  0  0  0
 32 66  1  0  0  0  0
 33 66  2  0  0  0  0
 33 67  1  0  0  0  0
 34 68  1  0  0  0  0
 34 71  1  0  0  0  0
 35 72  1  0  0  0  0
 35 77  2  0  0  0  0
 36 50  1  0  0  0  0
 36 73  1  0  0  0  0
 36 78  2  0  0  0  0
 37 62  1  0  0  0  0
 37 69  1  0  0  0  0
 37 79  2  0  0  0  0
 38 63  1  0  0  0  0
 38 74  1  0  0  0  0
 38 80  2  0  0  0  0
 39 70  1  0  0  0  0
 39 75  1  0  0  0  0
 39 81  2  0  0  0  0
 40 43  1  0  0  0  0
 41 50  1  0  0  0  0
 42 69  1  0  0  0  0
 43 45  1  0  0  0  0
 44 46  1  0  0  0  0
 44 47  1  0  0  0  0
 45 49  1  0  0  0  0
 46 51  1  0  0  0  0
 47 70  1  0  0  0  0
 48 51  1  0  0  0  0
 48 70  1  0  0  0  0
 49 73  1  0  0  0  0
 50 69  1  0  0  0  0
 51 68  1  0  0  0  0
 53 63  1  0  0  0  0
 54 64  1  0  0  0  0
 55 64  1  0  0  0  0
 56 64  1  0  0  0  0
 57 76  1  0  0  0  0
 58 83  1  0  0  0  0
 59 60  1  0  0  0  0
 59 61  1  0  0  0  0
 60 67  1  0  0  0  0
 61 75  1  0  0  0  0
 62 64  1  0  0  0  0
 62 74  1  0  0  0  0
 63 76  1  0  0  0  0
 65 68  1  0  0  0  0
M  CHG  1  76   1
M  ISO  4  39 100  58 101  75 100  83 101
M  END
> <Batch ID>
0035

> <Smiles>
CNC(C)C(=O)NC(C(=O)N1Cc2cc([101O:1][101CH2:1]c3cc(C)nc4c3ccn4CCC[100NH:0][100C:0](=O)N3CCCC(n4nc(-c5ccc(Oc6ccc(F)cc6F)cc5)c(C(N)=O)c4N)C3)ccc2CC1C(=O)NC1CCCc2ccccc21)C(C)(C)C

> <Shape>
0.199

> <Color>
0.114

> <Negative vol penalty>
0.000

$$$$

  -OEChem-04052316533D

 89 98  0     1  0  0  0  0  0999 V2000
  -33.3542  -34.8501   31.2053 C   0  0  0  0  0  0  0  0  0  0  0  0
  -33.8096  -33.5381   31.1232 C   0  0  0  0  0  0  0  0  0  0  0  0
  -22.9137  -10.0902   20.0577 C   0  0  0  0  0  0  0  0  0  0  0  0
  -24.3656   -9.5353   21.9072 C   0  0  0  0  0  0  0  0  0  0  0  0
  -32.0394  -35.1536   30.8544 C   0  0  0  0  0  0  0  0  0  0  0  0
  -32.9500  -32.5287   30.6912 C   0  0  0  0  0  0  0  0  0  0  0  0
  -32.9718  -26.3478   27.0700 C   0  0  0  0  0  0  0  0  0  0  0  0
  -22.2491   -8.8739   20.2144 C   0  0  0  0  0  0  0  0  0  0  0  0
  -23.7010   -8.3190   22.0640 C   0  0  0  0  0  0  0  0  0  0  0  0
  -32.5500  -25.0248   27.1949 C   0  0  0  0  0  0  0  0  0  0  0  0
  -20.8085   -7.2199   23.4227 C   0  0  0  0  0  0  0  0  0  0  0  0
  -20.4639   -6.8336   24.7179 C   0  0  0  0  0  0  0  0  0  0  0  0
  -29.7103  -18.9510   27.1023 C   0  0  0  0  0  0  0  0  0  0  0  0
  -30.3227  -25.6795   26.5393 C   0  0  0  0  0  0  0  0  0  0  0  0
  -21.8077   -4.8398   24.4807 C   0  0  0  0  0  0  0  0  0  0  0  0
  -23.9720  -10.4209   20.9041 C   0  0  0  0  0  0  0  0  0  0  0  0
  -24.1042  -12.9675   20.8327 C   0  0  0  0  0  0  0  0  0  0  0  0
  -31.1661  -34.1490   30.4087 C   0  0  0  0  0  0  0  0  0  0  0  0
  -32.0682  -27.3500   26.6887 C   0  0  0  0  0  0  0  0  0  0  0  0
  -31.6219  -32.8189   30.3353 C   0  0  0  0  0  0  0  0  0  0  0  0
  -29.6637  -20.2936   27.4910 C   0  0  0  0  0  0  0  0  0  0  0  0
  -30.7362  -27.0140   26.4078 C   0  0  0  0  0  0  0  0  0  0  0  0
  -28.7952  -18.4564   26.1818 C   0  0  0  0  0  0  0  0  0  0  0  0
  -22.6427   -7.9883   21.2175 C   0  0  0  0  0  0  0  0  0  0  0  0
  -31.2246  -24.6910   26.9323 C   0  0  0  0  0  0  0  0  0  0  0  0
  -21.6526   -6.4162   22.6564 C   0  0  0  0  0  0  0  0  0  0  0  0
  -20.9636   -5.6436   25.2469 C   0  0  0  0  0  0  0  0  0  0  0  0
  -22.1522   -5.2262   23.1854 C   0  0  0  0  0  0  0  0  0  0  0  0
  -24.6592  -11.6769   20.7423 C   0  0  0  0  0  0  0  0  0  0  0  0
  -28.6888  -21.1063   26.9053 C   0  0  0  0  0  0  0  0  0  0  0  0
  -27.8587  -19.3342   25.6698 C   0  0  0  0  0  0  0  0  0  0  0  0
  -25.1619  -13.8130   20.6029 C   0  0  0  0  0  0  0  0  0  0  0  0
  -22.7533  -13.3663   21.1005 C   0  0  0  0  0  0  0  0  0  0  0  0
  -30.9482  -29.9959   28.0484 C   0  0  0  0  0  0  0  0  0  0  0  0
  -29.5531  -30.4274   25.1519 C   0  0  0  0  0  0  0  0  0  0  0  0
  -28.3917  -29.0372   22.2596 C   0  0  0  0  0  0  0  0  0  0  0  0
  -31.0798  -13.2218   21.2957 C   0  0  0  0  0  0  0  0  0  0  0  0
  -29.7399  -34.5178   30.0855 C   0  0  0  0  0  0  0  0  0  0  0  0
  -32.5452  -28.7680   26.5327 C   0  0  0  0  0  0  0  0  0  0  0  0
  -30.6842  -20.8303   28.4555 C   0  0  0  0  0  0  0  0  0  0  0  0
  -29.7313  -28.0493   25.9756 C   0  0  0  0  0  0  0  0  0  0  0  0
  -28.5478  -22.5604   27.2813 C   0  0  0  0  0  0  0  0  0  0  0  0
  -29.0024  -33.4511   29.2802 C   0  0  0  0  0  0  0  0  0  0  0  0
  -30.2851  -22.1764   29.0616 C   0  0  0  0  0  0  0  0  0  0  0  0
  -29.3463  -14.0335   18.2936 C   0  0  0  0  0  0  0  0  0  0  0  0
  -29.2390  -32.0694   29.8818 C   0  0  0  0  0  0  0  0  0  0  0  0
  -27.8984  -13.6381   18.5889 C   0  0  0  0  0  0  0  0  0  0  0  0
  -30.3378  -13.0669   18.9373 C   0  0  0  0  0  0  0  0  0  0  0  0
  -28.7033  -12.4662   20.6812 C   0  0  0  0  0  0  0  0  0  0  0  0
  -30.7269  -31.7003   29.8476 C   0  0  1  0  0  0  0  0  0  0  0  0
  -31.4192  -29.7920   26.6362 C   0  0  1  0  0  0  0  0  0  0  0  0
  -27.6673  -13.4433   20.0995 C   0  0  2  0  0  0  0  0  0  0  0  0
  -29.7714  -23.1387   27.9951 C   0  0  1  0  0  0  0  0  0  1  0  0
  -26.4269  -18.1918   22.2712 C   0  0  0  0  0  0  0  0  0  0  0  0
  -27.2708  -29.6384   20.0964 C   0  0  0  0  0  0  0  0  0  0  0  0
  -26.8947  -30.7348   26.6177 C   0  0  0  0  0  0  0  0  0  0  0  0
  -25.7277  -30.3789   24.4314 C   0  0  0  0  0  0  0  0  0  0  0  0
  -27.2381  -32.3413   24.7320 C   0  0  0  0  0  0  0  0  0  0  0  0
  -30.6762  -28.0395   20.6644 C   0  0  0  0  0  0  0  0  0  0  0  0
  -28.8465  -17.0246   25.7753 C   0  0  0  0  0  0  0  0  0  0  0  0
  -26.8476  -18.8625   24.6771 C   0  0  0  0  0  0  0  0  0  0  0  0
  -27.4493  -18.7042   23.2732 C   0  0  0  0  0  0  0  0  0  0  0  0
  -30.2089  -16.6354   25.1797 C   0  0  0  0  0  0  0  0  0  0  0  0
  -30.2371  -15.1734   24.7290 C   0  0  0  0  0  0  0  0  0  0  0  0
  -31.6121  -14.7898   24.1743 C   0  0  0  0  0  0  0  0  0  0  0  0
  -31.6702  -13.3404   23.7033 C   0  0  0  0  0  0  0  0  0  0  0  0
  -28.2374  -30.0278   24.5288 C   0  0  1  0  0  0  0  0  0  0  0  0
  -28.5984  -29.4185   20.8048 C   0  0  2  0  0  0  0  0  0  0  0  0
  -27.0427  -30.8513   25.0875 C   0  0  0  0  0  0  0  0  0  0  0  0
  -25.9679  -11.6960   20.4758 N   0  0  0  0  0  0  0  0  0  0  0  0
  -27.7822  -20.6397   26.0089 N   0  0  0  0  0  0  0  0  0  0  0  0
  -26.2439  -13.0088   20.3966 N   0  0  0  0  0  0  0  0  0  0  0  0
  -30.2447  -29.4228   25.8435 N   0  0  0  0  0  0  0  0  0  0  0  0
  -30.0651  -12.9279   20.3699 N   0  0  0  0  0  0  0  0  0  0  0  0
  -25.2626  -15.1585   20.5592 N   0  0  0  0  0  0  0  0  0  0  0  0
  -21.7919  -12.3689   21.3134 N   0  0  0  0  0  0  0  0  0  0  0  0
  -31.1143  -31.2854   28.5163 N   0  0  0  0  0  0  0  0  0  0  0  0
  -28.4181  -30.1410   23.0855 N   0  0  0  0  0  0  0  0  0  0  0  0
  -30.7359  -13.0700   22.6334 N   0  0  0  0  0  0  0  0  0  0  0  0
  -29.3412  -28.3435   20.0881 N   0  3  0  0  0  0  0  0  0  0  0  0
  -22.4056  -14.5711   21.1333 O   0  0  0  0  0  0  0  0  0  0  0  0
  -30.4681  -29.0534   28.6672 O   0  0  0  0  0  0  0  0  0  0  0  0
  -29.9558  -31.5862   25.0235 O   0  0  0  0  0  0  0  0  0  0  0  0
  -28.2200  -27.8767   22.6261 O   0  0  0  0  0  0  0  0  0  0  0  0
  -32.2069  -13.5971   20.9555 O   0  0  0  0  0  0  0  0  0  0  0  0
  -21.9943   -6.8015   21.3709 O   0  0  0  0  0  0  0  0  0  0  0  0
  -30.8101  -23.4006   27.0541 O   0  0  0  0  0  0  0  0  0  1  0  0
  -20.6339   -5.2735   26.4913 F   0  0  0  0  0  0  0  0  0  0  0  0
  -22.9645   -4.4504   22.4544 F   0  0  0  0  0  0  0  0  0  0  0  0
  1  2  1  0  0  0  0
  1  5  2  0  0  0  0
  2  6  2  0  0  0  0
  3  8  2  0  0  0  0
  3 16  1  0  0  0  0
  4  9  1  0  0  0  0
  4 16  2  0  0  0  0
  5 18  1  0  0  0  0
  6 20  1  0  0  0  0
  7 10  2  0  0  0  0
  7 19  1  0  0  0  0
  8 24  1  0  0  0  0
  9 24  2  0  0  0  0
 10 25  1  0  0  0  0
 11 12  2  0  0  0  0
 11 26  1  0  0  0  0
 12 27  1  0  0  0  0
 13 21  2  0  0  0  0
 13 23  1  0  0  0  0
 14 22  1  0  0  0  0
 14 25  2  0  0  0  0
 15 27  2  0  0  0  0
 15 28  1  0  0  0  0
 16 29  1  0  0  0  0
 17 29  1  0  0  0  0
 17 32  2  0  0  0  0
 17 33  1  0  0  0  0
 18 20  2  0  0  0  0
 18 38  1  0  0  0  0
 19 22  2  0  0  0  0
 19 39  1  0  0  0  0
 20 50  1  0  0  0  0
 21 30  1  0  0  0  0
 21 40  1  0  0  0  0
 22 41  1  0  0  0  0
 23 31  2  0  0  0  0
 23 60  1  0  0  0  0
 24 86  1  0  0  0  0
 25 87  1  0  0  0  0
 26 28  2  0  0  0  0
 26 86  1  0  0  0  0
 27 88  1  0  0  0  0
 28 89  1  0  0  0  0
 29 70  2  0  0  0  0
 30 42  1  0  0  0  0
 30 71  2  0  0  0  0
 31 61  1  0  0  0  0
 31 71  1  0  0  0  0
 32 72  1  0  0  0  0
 32 75  1  0  0  0  0
 33 76  1  0  0  0  0
 33 81  2  0  0  0  0
 34 51  1  0  0  0  0
 34 77  1  0  0  0  0
 34 82  2  0  0  0  0
 35 67  1  0  0  0  0
 35 73  1  0  0  0  0
 35 83  2  0  0  0  0
 36 68  1  0  0  0  0
 36 78  1  0  0  0  0
 36 84  2  0  0  0  0
 37 74  1  0  0  0  0
 37 79  1  0  0  0  0
 37 85  2  0  0  0  0
 38 43  1  0  0  0  0
 39 51  1  0  0  0  0
 40 44  1  0  0  0  0
 41 73  1  0  0  0  0
 42 53  1  0  0  0  0
 43 46  1  0  0  0  0
 44 53  1  0  0  0  0
 45 47  1  0  0  0  0
 45 48  1  0  0  0  0
 46 50  1  0  0  0  0
 47 52  1  0  0  0  0
 48 74  1  0  0  0  0
 49 52  1  0  0  0  0
 49 74  1  0  0  0  0
 50 77  1  0  0  0  0
 51 73  1  0  0  0  0
 52 72  1  0  0  0  0
 53 87  1  0  0  0  0
 54 62  1  0  0  0  0
 55 68  1  0  0  0  0
 56 69  1  0  0  0  0
 57 69  1  0  0  0  0
 58 69  1  0  0  0  0
 59 80  1  0  0  0  0
 60 63  1  0  0  0  0
 61 62  1  0  0  0  0
 63 64  1  0  0  0  0
 64 65  1  0  0  0  0
 65 66  1  0  0  0  0
 66 79  1  0  0  0  0
 67 69  1  0  0  0  0
 67 78  1  0  0  0  0
 68 80  1  0  0  0  0
 70 72  1  0  0  0  0
M  CHG  1  80   1
M  ISO  4  37 100  53 101  79 100  87 101
M  END
> <Batch ID>
0035

> <Smiles>
CCCc1nc2c(cc1CCCCC[100NH:0][100C:0](=O)N1CCCC(n3nc(-c4ccc(Oc5ccc(F)cc5F)cc4)c(C(N)=O)c3N)C1)CC[101CH:1]([101O:1]c1ccc3c(c1)CN(C(=O)C(NC(=O)C(C)NC)C(C)(C)C)C(C(=O)NC1CCCc4ccccc41)C3)C2

> <Shape>
0.211

> <Color>
0.187

> <Negative vol penalty>
0.000

$$$$

  -OEChem-04052316533D

 86 95  0     1  0  0  0  0  0999 V2000
  -16.7632  -25.9958   25.1595 C   0  0  0  0  0  0  0  0  0  0  0  0
  -17.8122  -25.0861   25.0720 C   0  0  0  0  0  0  0  0  0  0  0  0
  -23.1385   -9.7319   20.1115 C   0  0  0  0  0  0  0  0  0  0  0  0
  -23.7469  -10.0534   22.4274 C   0  0  0  0  0  0  0  0  0  0  0  0
  -16.8353  -27.2090   24.4764 C   0  0  0  0  0  0  0  0  0  0  0  0
  -18.9335  -25.3889   24.3004 C   0  0  0  0  0  0  0  0  0  0  0  0
  -24.7364  -23.8133   25.4622 C   0  0  0  0  0  0  0  0  0  0  0  0
  -22.3859   -8.6119   20.4647 C   0  0  0  0  0  0  0  0  0  0  0  0
  -22.9942   -8.9334   22.7807 C   0  0  0  0  0  0  0  0  0  0  0  0
  -25.5413  -22.7798   24.9849 C   0  0  0  0  0  0  0  0  0  0  0  0
  -19.7377   -8.1780   23.2760 C   0  0  0  0  0  0  0  0  0  0  0  0
  -18.9061   -8.2832   24.3908 C   0  0  0  0  0  0  0  0  0  0  0  0
  -26.4686  -24.2731   23.3328 C   0  0  0  0  0  0  0  0  0  0  0  0
  -29.2126  -19.4232   24.1222 C   0  0  0  0  0  0  0  0  0  0  0  0
  -20.1067   -6.4779   25.4569 C   0  0  0  0  0  0  0  0  0  0  0  0
  -23.8191  -10.4526   21.0929 C   0  0  0  0  0  0  0  0  0  0  0  0
  -24.1549  -12.9440   20.6596 C   0  0  0  0  0  0  0  0  0  0  0  0
  -17.9623  -27.5309   23.7038 C   0  0  0  0  0  0  0  0  0  0  0  0
  -24.7837  -25.0837   24.8703 C   0  0  0  0  0  0  0  0  0  0  0  0
  -19.0202  -26.6070   23.6052 C   0  0  0  0  0  0  0  0  0  0  0  0
  -25.6652  -25.3217   23.8061 C   0  0  0  0  0  0  0  0  0  0  0  0
  -28.0399  -19.7734   23.4624 C   0  0  0  0  0  0  0  0  0  0  0  0
  -22.3137   -8.2127   21.7992 C   0  0  0  0  0  0  0  0  0  0  0  0
  -26.4054  -23.0088   23.9182 C   0  0  0  0  0  0  0  0  0  0  0  0
  -20.7538   -7.2227   23.2515 C   0  0  0  0  0  0  0  0  0  0  0  0
  -19.0906   -7.4332   25.4813 C   0  0  0  0  0  0  0  0  0  0  0  0
  -30.0983  -18.5313   23.5279 C   0  0  0  0  0  0  0  0  0  0  0  0
  -20.9384   -6.3727   24.3420 C   0  0  0  0  0  0  0  0  0  0  0  0
  -24.5971  -11.6093   20.7286 C   0  0  0  0  0  0  0  0  0  0  0  0
  -27.8012  -19.2083   22.2200 C   0  0  0  0  0  0  0  0  0  0  0  0
  -29.7674  -18.0216   22.2827 C   0  0  0  0  0  0  0  0  0  0  0  0
  -25.2646  -13.6538   20.2705 C   0  0  0  0  0  0  0  0  0  0  0  0
  -22.8571  -13.4932   20.9238 C   0  0  0  0  0  0  0  0  0  0  0  0
  -22.6920  -26.9258   23.3422 C   0  0  0  0  0  0  0  0  0  0  0  0
  -25.1068  -29.0888   23.4517 C   0  0  0  0  0  0  0  0  0  0  0  0
  -28.4587  -29.6787   23.7039 C   0  0  0  0  0  0  0  0  0  0  0  0
  -30.7189  -14.7646   20.6724 C   0  0  0  0  0  0  0  0  0  0  0  0
  -17.9742  -28.8344   22.9453 C   0  0  0  0  0  0  0  0  0  0  0  0
  -23.9285  -26.1951   25.4142 C   0  0  0  0  0  0  0  0  0  0  0  0
  -25.7685  -26.6730   23.1491 C   0  0  0  0  0  0  0  0  0  0  0  0
  -19.3607  -29.2388   22.4510 C   0  0  0  0  0  0  0  0  0  0  0  0
  -24.3195  -19.0247   19.5672 C   0  0  0  0  0  0  0  0  0  0  0  0
  -24.0897  -19.0204   21.0754 C   0  0  0  0  0  0  0  0  0  0  0  0
  -25.4872  -19.9264   19.1785 C   0  0  0  0  0  0  0  0  0  0  0  0
  -29.7521  -12.0691   18.5566 C   0  0  0  0  0  0  0  0  0  0  0  0
  -20.0610  -28.0524   21.7960 C   0  0  0  0  0  0  0  0  0  0  0  0
  -25.3584  -18.6431   21.8382 C   0  0  0  0  0  0  0  0  0  0  0  0
  -26.7628  -19.5536   19.9319 C   0  0  0  0  0  0  0  0  0  0  0  0
  -28.2910  -11.8155   18.9318 C   0  0  0  0  0  0  0  0  0  0  0  0
  -30.5876  -12.4599   19.7737 C   0  0  0  0  0  0  0  0  0  0  0  0
  -28.5956  -13.3420   20.9258 C   0  0  0  0  0  0  0  0  0  0  0  0
  -20.2641  -26.9097   22.7983 C   0  0  1  0  0  0  0  0  0  0  0  0
  -26.5408  -19.5520   21.4555 C   0  0  0  0  0  0  0  0  0  0  0  0
  -23.6843  -27.3108   24.4028 C   0  0  1  0  0  0  0  0  0  0  0  0
  -27.7014  -12.9993   19.7219 C   0  0  2  0  0  0  0  0  0  0  0  0
  -30.1340  -31.5470   23.7251 C   0  0  0  0  0  0  0  0  0  0  0  0
  -24.8108  -29.3853   20.4294 C   0  0  0  0  0  0  0  0  0  0  0  0
  -27.0584  -30.4874   20.3874 C   0  0  0  0  0  0  0  0  0  0  0  0
  -25.1824  -31.5324   21.6568 C   0  0  0  0  0  0  0  0  0  0  0  0
  -29.3751  -28.9814   26.4302 C   0  0  0  0  0  0  0  0  0  0  0  0
  -27.0801  -20.7355   24.0985 C   0  0  0  0  0  0  0  0  0  1  0  0
  -30.6926  -17.0609   21.6134 C   0  0  0  0  0  0  0  0  0  0  0  0
  -26.2722  -29.4363   22.5572 C   0  0  1  0  0  0  0  0  0  0  0  0
  -29.2495  -30.6430   24.5695 C   0  0  2  0  0  0  0  0  0  0  0  0
  -25.8279  -30.1843   21.2686 C   0  0  0  0  0  0  0  0  0  0  0  0
  -25.8871  -11.4764   20.4087 N   0  0  0  0  0  0  0  0  0  0  0  0
  -28.6377  -18.3383   21.6110 N   0  0  0  0  0  0  0  0  0  0  0  0
  -26.2649  -12.7367   20.1349 N   0  0  0  0  0  0  0  0  0  0  0  0
  -24.9073  -27.7258   23.7127 N   0  0  0  0  0  0  0  0  0  0  0  0
  -29.9750  -13.5891   20.4776 N   0  0  0  0  0  0  0  0  0  0  0  0
  -25.4724  -14.9666   20.0344 N   0  0  0  0  0  0  0  0  0  0  0  0
  -21.8300  -12.6229   21.3137 N   0  0  0  0  0  0  0  0  0  0  0  0
  -21.3788  -27.1985   23.6749 N   0  0  0  0  0  0  0  0  0  0  0  0
  -27.2147  -30.1808   23.3854 N   0  0  0  0  0  0  0  0  0  0  0  0
  -30.0612  -15.7885   21.3430 N   0  0  0  0  0  0  0  0  0  0  0  0
  -30.1169  -29.8927   25.5212 N   0  3  0  0  0  0  0  0  0  0  0  0
  -22.6112  -14.7172   20.8014 O   0  0  0  0  0  0  0  0  0  0  0  0
  -23.0885  -26.4202   22.2988 O   0  0  0  0  0  0  0  0  0  0  0  0
  -24.4039  -29.9939   23.9080 O   0  0  0  0  0  0  0  0  0  0  0  0
  -28.9019  -28.5907   23.3429 O   0  0  0  0  0  0  0  0  0  0  0  0
  -31.8812  -14.8940   20.2732 O   0  0  0  0  0  0  0  0  0  0  0  0
  -21.5792   -7.1200   22.1443 O   0  0  0  0  0  0  0  0  0  0  0  0
  -27.1917  -22.0016   23.4499 O   0  0  0  0  0  0  0  0  0  1  0  0
  -18.2929   -7.5354   26.5524 F   0  0  0  0  0  0  0  0  0  0  0  0
  -31.2323  -18.1826   24.1478 F   0  0  0  0  0  0  0  0  0  0  0  0
  -21.9136   -5.4537   24.3248 F   0  0  0  0  0  0  0  0  0  0  0  0
  1  2  1  0  0  0  0
  1  5  2  0  0  0  0
  2  6  2  0  0  0  0
  3  8  2  0  0  0  0
  3 16  1  0  0  0  0
  4  9  1  0  0  0  0
  4 16  2  0  0  0  0
  5 18  1  0  0  0  0
  6 20  1  0  0  0  0
  7 10  2  0  0  0  0
  7 19  1  0  0  0  0
  8 23  1  0  0  0  0
  9 23  2  0  0  0  0
 10 24  1  0  0  0  0
 11 12  2  0  0  0  0
 11 25  1  0  0  0  0
 12 26  1  0  0  0  0
 13 21  1  0  0  0  0
 13 24  2  0  0  0  0
 14 22  1  0  0  0  0
 14 27  2  0  0  0  0
 15 26  2  0  0  0  0
 15 28  1  0  0  0  0
 16 29  1  0  0  0  0
 17 29  1  0  0  0  0
 17 32  2  0  0  0  0
 17 33  1  0  0  0  0
 18 20  2  0  0  0  0
 18 38  1  0  0  0  0
 19 21  2  0  0  0  0
 19 39  1  0  0  0  0
 20 52  1  0  0  0  0
 21 40  1  0  0  0  0
 22 30  2  0  0  0  0
 22 61  1  0  0  0  0
 23 82  1  0  0  0  0
 24 83  1  0  0  0  0
 25 28  2  0  0  0  0
 25 82  1  0  0  0  0
 26 84  1  0  0  0  0
 27 31  1  0  0  0  0
 27 85  1  0  0  0  0
 28 86  1  0  0  0  0
 29 66  2  0  0  0  0
 30 53  1  0  0  0  0
 30 67  1  0  0  0  0
 31 62  1  0  0  0  0
 31 67  2  0  0  0  0
 32 68  1  0  0  0  0
 32 71  1  0  0  0  0
 33 72  1  0  0  0  0
 33 77  2  0  0  0  0
 34 54  1  0  0  0  0
 34 73  1  0  0  0  0
 34 78  2  0  0  0  0
 35 63  1  0  0  0  0
 35 69  1  0  0  0  0
 35 79  2  0  0  0  0
 36 64  1  0  0  0  0
 36 74  1  0  0  0  0
 36 80  2  0  0  0  0
 37 70  1  0  0  0  0
 37 75  1  0  0  0  0
 37 81  2  0  0  0  0
 38 41  1  0  0  0  0
 39 54  1  0  0  0  0
 40 69  1  0  0  0  0
 41 46  1  0  0  0  0
 42 43  1  0  0  0  0
 42 44  1  0  0  0  0
 43 47  1  0  0  0  0
 44 48  1  0  0  0  0
 45 49  1  0  0  0  0
 45 50  1  0  0  0  0
 46 52  1  0  0  0  0
 47 53  1  0  0  0  0
 48 53  1  0  0  0  0
 49 55  1  0  0  0  0
 50 70  1  0  0  0  0
 51 55  1  0  0  0  0
 51 70  1  0  0  0  0
 52 73  1  0  0  0  0
 54 69  1  0  0  0  0
 55 68  1  0  0  0  0
 56 64  1  0  0  0  0
 57 65  1  0  0  0  0
 58 65  1  0  0  0  0
 59 65  1  0  0  0  0
 60 76  1  0  0  0  0
 61 83  1  0  0  0  0
 62 75  1  0  0  0  0
 63 65  1  0  0  0  0
 63 74  1  0  0  0  0
 64 76  1  0  0  0  0
 66 68  1  0  0  0  0
M  CHG  1  76   1
M  ISO  4  37 100  61 101  75 100  83 101
M  END
> <Batch ID>
0035

> <Smiles>
CNC(C)C(=O)NC(C(=O)N1Cc2cc([101O:1][101CH2:1]c3cc(F)c(C[100NH:0][100C:0](=O)N4CCCC(n5nc(-c6ccc(Oc7ccc(F)cc7F)cc6)c(C(N)=O)c5N)C4)nc3C3CCCCC3)ccc2CC1C(=O)NC1CCCc2ccccc21)C(C)(C)C

> <Shape>
0.271

> <Color>
0.198

> <Negative vol penalty>
0.000

$$$$

  -OEChem-04052316533D

 83 91  0     1  0  0  0  0  0999 V2000
  -20.9389  -28.3324   25.9258 C   0  0  0  0  0  0  0  0  0  0  0  0
  -22.0516  -27.8542   25.2411 C   0  0  0  0  0  0  0  0  0  0  0  0
  -24.7624  -15.0051   21.5094 C   0  0  0  0  0  0  0  0  0  0  0  0
  -27.1742  -14.9633   21.3726 C   0  0  0  0  0  0  0  0  0  0  0  0
  -19.7056  -28.4116   25.2804 C   0  0  0  0  0  0  0  0  0  0  0  0
  -21.9313  -27.4540   23.9108 C   0  0  0  0  0  0  0  0  0  0  0  0
  -25.7052  -29.1861   21.0121 C   0  0  0  0  0  0  0  0  0  0  0  0
  -24.7161  -13.6721   21.1013 C   0  0  0  0  0  0  0  0  0  0  0  0
  -27.1279  -13.6303   20.9646 C   0  0  0  0  0  0  0  0  0  0  0  0
  -26.9278  -28.5210   21.0941 C   0  0  0  0  0  0  0  0  0  0  0  0
  -25.1908  -10.6249   22.4877 C   0  0  0  0  0  0  0  0  0  0  0  0
  -24.3419   -9.7634   23.1825 C   0  0  0  0  0  0  0  0  0  0  0  0
  -26.4087  -27.3289   19.0622 C   0  0  0  0  0  0  0  0  0  0  0  0
  -31.6856  -25.2080   21.6408 C   0  0  0  0  0  0  0  0  0  0  0  0
  -31.3888  -22.9623   20.8327 C   0  0  0  0  0  0  0  0  0  0  0  0
  -23.1317   -9.3095   21.1413 C   0  0  0  0  0  0  0  0  0  0  0  0
  -25.9914  -15.6508   21.6449 C   0  0  0  0  0  0  0  0  0  0  0  0
  -26.1233  -17.5112   23.3854 C   0  0  0  0  0  0  0  0  0  0  0  0
  -19.5723  -28.0212   23.9386 C   0  0  0  0  0  0  0  0  0  0  0  0
  -24.8189  -28.9191   19.9587 C   0  0  0  0  0  0  0  0  0  0  0  0
  -20.6947  -27.5268   23.2472 C   0  0  0  0  0  0  0  0  0  0  0  0
  -25.1766  -27.9937   18.9678 C   0  0  0  0  0  0  0  0  0  0  0  0
  -31.8458  -23.8374   21.8118 C   0  0  0  0  0  0  0  0  0  0  0  0
  -25.8989  -12.9847   20.8290 C   0  0  0  0  0  0  0  0  0  0  0  0
  -27.2785  -27.5901   20.1207 C   0  0  0  0  0  0  0  0  0  0  0  0
  -25.0101  -10.8288   21.1197 C   0  0  0  0  0  0  0  0  0  0  0  0
  -23.3124   -9.1057   22.5094 C   0  0  0  0  0  0  0  0  0  0  0  0
  -23.9806  -10.1711   20.4465 C   0  0  0  0  0  0  0  0  0  0  0  0
  -26.0399  -17.0280   22.0658 C   0  0  0  0  0  0  0  0  0  0  0  0
  -31.0671  -25.6491   20.4821 C   0  0  0  0  0  0  0  0  0  0  0  0
  -30.7834  -23.5039   19.7103 C   0  0  0  0  0  0  0  0  0  0  0  0
  -26.1401  -18.8779   23.2502 C   0  0  0  0  0  0  0  0  0  0  0  0
  -26.1805  -16.7891   24.6228 C   0  0  0  0  0  0  0  0  0  0  0  0
  -21.8657  -27.7619   19.7506 C   0  0  0  0  0  0  0  0  0  0  0  0
  -22.2073  -28.5206   16.6153 C   0  0  0  0  0  0  0  0  0  0  0  0
  -24.3048  -29.0935   13.9850 C   0  0  0  0  0  0  0  0  0  0  0  0
  -27.8038  -22.5141   18.7936 C   0  0  0  0  0  0  0  0  0  0  0  0
  -18.2084  -28.0806   23.2975 C   0  0  0  0  0  0  0  0  0  0  0  0
  -23.5155  -29.6645   19.8701 C   0  0  0  0  0  0  0  0  0  0  0  0
  -24.2694  -27.6860   17.8056 C   0  0  0  0  0  0  0  0  0  0  0  0
  -18.2470  -27.9887   21.7742 C   0  0  0  0  0  0  0  0  0  0  0  0
  -24.6115  -22.3742   20.3640 C   0  0  0  0  0  0  0  0  0  0  0  0
  -19.1698  -26.8579   21.3308 C   0  0  0  0  0  0  0  0  0  0  0  0
  -24.6231  -21.0317   21.0973 C   0  0  0  0  0  0  0  0  0  0  0  0
  -25.3476  -22.2941   19.0284 C   0  0  0  0  0  0  0  0  0  0  0  0
  -26.7354  -20.4278   19.8436 C   0  0  0  0  0  0  0  0  0  0  0  0
  -20.6097  -27.1064   21.7960 C   0  0  1  0  0  0  0  0  0  0  0  0
  -22.4671  -28.9375   19.0336 C   0  0  1  0  0  0  0  0  0  0  0  0
  -26.0534  -20.4731   21.2216 C   0  0  2  0  0  0  0  0  0  0  0  0
  -33.8041  -22.5405   22.7264 C   0  0  0  0  0  0  0  0  0  0  0  0
  -31.5653  -22.4230   23.8793 C   0  0  0  0  0  0  0  0  0  0  0  0
  -24.2895  -29.6548   11.5391 C   0  0  0  0  0  0  0  0  0  0  0  0
  -21.4214  -25.6454   15.9629 C   0  0  0  0  0  0  0  0  0  0  0  0
  -22.3302  -25.9941   13.6562 C   0  0  0  0  0  0  0  0  0  0  0  0
  -20.4107  -27.3698   14.4598 C   0  0  0  0  0  0  0  0  0  0  0  0
  -25.7775  -31.6205   14.4370 C   0  0  0  0  0  0  0  0  0  0  0  0
  -30.8775  -27.1303   20.2615 C   0  0  0  0  0  0  0  0  0  0  0  0
  -30.2795  -22.5939   18.6403 C   0  0  0  0  0  0  0  0  0  0  0  0
  -29.5512  -27.6345   20.8198 C   0  0  0  0  0  0  0  0  0  1  0  0
  -32.5058  -23.3083   23.0398 C   0  0  0  0  0  0  0  0  0  0  0  0
  -22.7211  -27.8018   15.3913 C   0  0  1  0  0  0  0  0  0  0  0  0
  -24.3475  -30.2076   12.9547 C   0  0  2  0  0  0  0  0  0  0  0  0
  -21.7373  -26.7069   14.8904 C   0  0  0  0  0  0  0  0  0  0  0  0
  -26.0059  -18.0081   21.1590 N   0  0  0  0  0  0  0  0  0  0  0  0
  -30.6102  -24.8295   19.5090 N   0  0  0  0  0  0  0  0  0  0  0  0
  -26.0682  -19.1208   21.9100 N   0  0  0  0  0  0  0  0  0  0  0  0
  -23.0032  -28.4362   17.7665 N   0  0  0  0  0  0  0  0  0  0  0  0
  -26.6979  -21.7581   19.2162 N   0  0  0  0  0  0  0  0  0  0  0  0
  -26.2092  -19.8836   24.1481 N   0  0  0  0  0  0  0  0  0  0  0  0
  -26.1531  -15.3885   24.5809 N   0  0  0  0  0  0  0  0  0  0  0  0
  -21.2535  -28.0853   20.9464 N   0  0  0  0  0  0  0  0  0  0  0  0
  -23.0172  -28.8354   14.4052 N   0  0  0  0  0  0  0  0  0  0  0  0
  -29.0477  -21.9356   19.0146 N   0  0  0  0  0  0  0  0  0  0  0  0
  -25.6020  -30.9990   13.0992 N   0  3  0  0  0  0  0  0  0  0  0  0
  -26.2372  -17.3692   25.7336 O   0  0  0  0  0  0  0  0  0  0  0  0
  -21.9496  -26.6444   19.2548 O   0  0  0  0  0  0  0  0  0  0  0  0
  -21.1427  -29.1403   16.5504 O   0  0  0  0  0  0  0  0  0  0  0  0
  -25.3126  -28.5080   14.3750 O   0  0  0  0  0  0  0  0  0  0  0  0
  -27.6911  -23.6247   18.2637 O   0  0  0  0  0  0  0  0  0  0  0  0
  -25.8541  -11.6838   20.4311 O   0  0  0  0  0  0  0  0  0  0  0  0
  -28.4709  -26.9391   20.1987 O   0  0  0  0  0  0  0  0  0  1  0  0
  -22.4983   -8.2772   23.1765 F   0  0  0  0  0  0  0  0  0  0  0  0
  -23.8027  -10.3621   19.1321 F   0  0  0  0  0  0  0  0  0  0  0  0
  1  2  1  0  0  0  0
  1  5  2  0  0  0  0
  2  6  2  0  0  0  0
  3  8  2  0  0  0  0
  3 17  1  0  0  0  0
  4  9  1  0  0  0  0
  4 17  2  0  0  0  0
  5 19  1  0  0  0  0
  6 21  1  0  0  0  0
  7 10  2  0  0  0  0
  7 20  1  0  0  0  0
  8 24  1  0  0  0  0
  9 24  2  0  0  0  0
 10 25  1  0  0  0  0
 11 12  2  0  0  0  0
 11 26  1  0  0  0  0
 12 27  1  0  0  0  0
 13 22  1  0  0  0  0
 13 25  2  0  0  0  0
 14 23  2  0  0  0  0
 14 30  1  0  0  0  0
 15 23  1  0  0  0  0
 15 31  2  0  0  0  0
 16 27  2  0  0  0  0
 16 28  1  0  0  0  0
 17 29  1  0  0  0  0
 18 29  1  0  0  0  0
 18 32  2  0  0  0  0
 18 33  1  0  0  0  0
 19 21  2  0  0  0  0
 19 38  1  0  0  0  0
 20 22  2  0  0  0  0
 20 39  1  0  0  0  0
 21 47  1  0  0  0  0
 22 40  1  0  0  0  0
 23 60  1  0  0  0  0
 24 80  1  0  0  0  0
 25 81  1  0  0  0  0
 26 28  2  0  0  0  0
 26 80  1  0  0  0  0
 27 82  1  0  0  0  0
 28 83  1  0  0  0  0
 29 64  2  0  0  0  0
 30 57  1  0  0  0  0
 30 65  2  0  0  0  0
 31 58  1  0  0  0  0
 31 65  1  0  0  0  0
 32 66  1  0  0  0  0
 32 69  1  0  0  0  0
 33 70  1  0  0  0  0
 33 75  2  0  0  0  0
 34 48  1  0  0  0  0
 34 71  1  0  0  0  0
 34 76  2  0  0  0  0
 35 61  1  0  0  0  0
 35 67  1  0  0  0  0
 35 77  2  0  0  0  0
 36 62  1  0  0  0  0
 36 72  1  0  0  0  0
 36 78  2  0  0  0  0
 37 68  1  0  0  0  0
 37 73  1  0  0  0  0
 37 79  2  0  0  0  0
 38 41  1  0  0  0  0
 39 48  1  0  0  0  0
 40 67  1  0  0  0  0
 41 43  1  0  0  0  0
 42 44  1  0  0  0  0
 42 45  1  0  0  0  0
 43 47  1  0  0  0  0
 44 49  1  0  0  0  0
 45 68  1  0  0  0  0
 46 49  1  0  0  0  0
 46 68  1  0  0  0  0
 47 71  1  0  0  0  0
 48 67  1  0  0  0  0
 49 66  1  0  0  0  0
 50 60  1  0  0  0  0
 51 60  1  0  0  0  0
 52 62  1  0  0  0  0
 53 63  1  0  0  0  0
 54 63  1  0  0  0  0
 55 63  1  0  0  0  0
 56 74  1  0  0  0  0
 57 59  1  0  0  0  0
 58 73  1  0  0  0  0
 59 81  1  0  0  0  0
 61 63  1  0  0  0  0
 61 72  1  0  0  0  0
 62 74  1  0  0  0  0
 64 66  1  0  0  0  0
M  CHG  1  74   1
M  ISO  4  37 100  59 101  73 100  81 101
M  END
> <Batch ID>
0035

> <Smiles>
CNC(C)C(=O)NC(C(=O)N1Cc2cc([101O:1][101CH2:1]Cc3cc(C(C)C)cc(C[100NH:0][100C:0](=O)N4CCCC(n5nc(-c6ccc(Oc7ccc(F)cc7F)cc6)c(C(N)=O)c5N)C4)n3)ccc2CC1C(=O)NC1CCCc2ccccc21)C(C)(C)C

> <Shape>
0.205

> <Color>
0.097

> <Negative vol penalty>
0.000

$$$$

  -OEChem-04052316533D

 85 93  0     1  0  0  0  0  0999 V2000
  -26.0228  -15.5605   13.6023 C   0  0  0  0  0  0  0  0  0  0  0  0
  -26.6668  -15.7063   14.8268 C   0  0  0  0  0  0  0  0  0  0  0  0
  -24.1632  -30.5207   20.7931 C   0  0  0  0  0  0  0  0  0  0  0  0
  -25.6160  -29.7983   22.5833 C   0  0  0  0  0  0  0  0  0  0  0  0
  -24.6523  -15.3071   13.5626 C   0  0  0  0  0  0  0  0  0  0  0  0
  -25.9405  -15.5998   16.0124 C   0  0  0  0  0  0  0  0  0  0  0  0
  -28.2951  -12.7643   19.4852 C   0  0  0  0  0  0  0  0  0  0  0  0
  -23.5553  -31.4336   21.6549 C   0  0  0  0  0  0  0  0  0  0  0  0
  -25.0080  -30.7112   23.4451 C   0  0  0  0  0  0  0  0  0  0  0  0
  -29.3423  -13.3581   20.1885 C   0  0  0  0  0  0  0  0  0  0  0  0
  -24.2406  -34.4869   22.9357 C   0  0  0  0  0  0  0  0  0  0  0  0
  -24.0197  -35.7794   22.4600 C   0  0  0  0  0  0  0  0  0  0  0  0
  -27.8606  -13.7509   22.0511 C   0  0  0  0  0  0  0  0  0  0  0  0
  -28.7669  -17.6573   21.1087 C   0  0  0  0  0  0  0  0  0  0  0  0
  -30.1402  -19.6868   19.7752 C   0  0  0  0  0  0  0  0  0  0  0  0
  -21.6454  -35.5029   22.8112 C   0  0  0  0  0  0  0  0  0  0  0  0
  -25.1936  -29.7030   21.2574 C   0  0  0  0  0  0  0  0  0  0  0  0
  -26.9437  -28.9817   19.5472 C   0  0  0  0  0  0  0  0  0  0  0  0
  -23.9106  -15.1879   14.7485 C   0  0  0  0  0  0  0  0  0  0  0  0
  -27.0180  -12.6690   20.0563 C   0  0  0  0  0  0  0  0  0  0  0  0
  -24.5586  -15.3460   15.9885 C   0  0  0  0  0  0  0  0  0  0  0  0
  -26.7996  -13.1532   21.3540 C   0  0  0  0  0  0  0  0  0  0  0  0
  -28.1613  -18.3273   20.0457 C   0  0  0  0  0  0  0  0  0  0  0  0
  -30.0592  -18.0021   21.5050 C   0  0  0  0  0  0  0  0  0  0  0  0
  -30.7458  -19.0168   20.8382 C   0  0  0  0  0  0  0  0  0  0  0  0
  -28.8480  -19.3420   19.3790 C   0  0  0  0  0  0  0  0  0  0  0  0
  -23.9777  -31.5289   22.9808 C   0  0  0  0  0  0  0  0  0  0  0  0
  -29.1245  -13.8541   21.4705 C   0  0  0  0  0  0  0  0  0  0  0  0
  -23.1638  -33.7024   23.3491 C   0  0  0  0  0  0  0  0  0  0  0  0
  -22.7221  -36.2874   22.3978 C   0  0  0  0  0  0  0  0  0  0  0  0
  -21.8663  -34.2104   23.2869 C   0  0  0  0  0  0  0  0  0  0  0  0
  -25.8216  -28.7594   20.3678 C   0  0  0  0  0  0  0  0  0  0  0  0
  -27.1416  -27.7841   18.9044 C   0  0  0  0  0  0  0  0  0  0  0  0
  -27.7362  -30.1649   19.3810 C   0  0  0  0  0  0  0  0  0  0  0  0
  -24.1411  -13.8022   19.3194 C   0  0  0  0  0  0  0  0  0  0  0  0
  -23.2003  -11.9399   21.8032 C   0  0  0  0  0  0  0  0  0  0  0  0
  -24.0248  -10.3556   24.7113 C   0  0  0  0  0  0  0  0  0  0  0  0
  -27.5615  -22.3294   19.0323 C   0  0  0  0  0  0  0  0  0  0  0  0
  -22.4226  -14.9605   14.6544 C   0  0  0  0  0  0  0  0  0  0  0  0
  -25.9056  -12.0017   19.2950 C   0  0  0  0  0  0  0  0  0  0  0  0
  -25.4521  -13.0571   22.0199 C   0  0  0  0  0  0  0  0  0  0  0  0
  -21.7944  -14.4898   15.9636 C   0  0  0  0  0  0  0  0  0  0  0  0
  -24.2196  -23.6628   18.6430 C   0  0  0  0  0  0  0  0  0  0  0  0
  -22.2906  -15.3391   17.1295 C   0  0  0  0  0  0  0  0  0  0  0  0
  -24.4374  -25.1361   18.9925 C   0  0  0  0  0  0  0  0  0  0  0  0
  -25.0766  -22.7543   19.5196 C   0  0  0  0  0  0  0  0  0  0  0  0
  -26.7546  -24.5319   19.8325 C   0  0  0  0  0  0  0  0  0  0  0  0
  -23.8097  -15.2127   17.2967 C   0  0  1  0  0  0  0  0  0  0  0  0
  -24.5189  -12.4206   19.7735 C   0  0  1  0  0  0  0  0  0  0  0  0
  -25.9330  -25.5032   18.9656 C   0  0  2  0  0  0  0  0  0  0  0  0
  -26.7774  -17.9405   19.6388 C   0  0  0  0  0  0  0  0  0  0  0  0
  -33.6248  -21.2710   22.0773 C   0  0  0  0  0  0  0  0  0  0  0  0
  -23.0348   -8.9439   26.5346 C   0  0  0  0  0  0  0  0  0  0  0  0
  -21.8607  -14.4125   22.9870 C   0  0  0  0  0  0  0  0  0  0  0  0
  -21.7313  -13.2079   25.1779 C   0  0  0  0  0  0  0  0  0  0  0  0
  -20.5271  -12.3065   23.1880 C   0  0  0  0  0  0  0  0  0  0  0  0
  -25.8505   -8.1032   24.1178 C   0  0  0  0  0  0  0  0  0  0  0  0
  -30.6929  -17.2644   22.6573 C   0  0  0  0  0  0  0  0  0  0  0  0
  -32.1297  -19.4037   21.2452 C   0  0  0  0  0  0  0  0  0  0  0  0
  -28.2201  -20.0728   18.2378 C   0  0  0  0  0  0  0  0  0  0  0  0
  -32.2229  -20.8869   21.6311 C   0  0  0  0  0  0  0  0  0  0  0  0
  -31.7352  -16.2297   22.2276 C   0  0  0  0  0  0  0  0  0  0  0  0
  -31.1516  -15.0953   21.3933 C   0  0  0  0  0  0  0  0  0  1  0  0
  -23.0477  -12.1401   23.2917 C   0  0  1  0  0  0  0  0  0  0  0  0
  -23.7607   -8.9422   25.1983 C   0  0  2  0  0  0  0  0  0  0  0  0
  -21.8167  -13.0204   23.6481 C   0  0  0  0  0  0  0  0  0  0  0  0
  -25.3403  -27.5183   20.2581 N   0  0  0  0  0  0  0  0  0  0  0  0
  -26.1639  -26.9499   19.3610 N   0  0  0  0  0  0  0  0  0  0  0  0
  -24.3948  -12.4018   21.2324 N   0  0  0  0  0  0  0  0  0  0  0  0
  -26.4908  -23.1451   19.4345 N   0  0  0  0  0  0  0  0  0  0  0  0
  -28.0548  -27.3739   17.9988 N   0  0  0  0  0  0  0  0  0  0  0  0
  -27.3946  -31.3069   20.1181 N   0  0  0  0  0  0  0  0  0  0  0  0
  -24.1444  -13.9640   17.9471 N   0  0  0  0  0  0  0  0  0  0  0  0
  -23.0195  -10.8063   23.8822 N   0  0  0  0  0  0  0  0  0  0  0  0
  -27.2277  -21.0278   18.6783 N   0  0  0  0  0  0  0  0  0  0  0  0
  -25.0440   -8.2023   25.3615 N   0  3  0  0  0  0  0  0  0  0  0  0
  -28.7083  -30.2130   18.5895 O   0  0  0  0  0  0  0  0  0  0  0  0
  -23.8654  -14.6576   20.1524 O   0  0  0  0  0  0  0  0  0  0  0  0
  -22.2963  -11.3874   21.1715 O   0  0  0  0  0  0  0  0  0  0  0  0
  -25.0212  -10.9971   25.0371 O   0  0  0  0  0  0  0  0  0  0  0  0
  -28.7286  -22.7328   18.9867 O   0  0  0  0  0  0  0  0  0  0  0  0
  -23.3848  -32.4197   23.8220 O   0  0  0  0  0  0  0  0  0  0  0  0
  -30.1447  -14.4347   22.1589 O   0  0  0  0  0  0  0  0  0  1  0  0
  -22.5103  -37.5291   21.9423 F   0  0  0  0  0  0  0  0  0  0  0  0
  -20.8280  -33.4619   23.6838 F   0  0  0  0  0  0  0  0  0  0  0  0
  1  2  1  0  0  0  0
  1  5  2  0  0  0  0
  2  6  2  0  0  0  0
  3  8  2  0  0  0  0
  3 17  1  0  0  0  0
  4  9  1  0  0  0  0
  4 17  2  0  0  0  0
  5 19  1  0  0  0  0
  6 21  1  0  0  0  0
  7 10  2  0  0  0  0
  7 20  1  0  0  0  0
  8 27  1  0  0  0  0
  9 27  2  0  0  0  0
 10 28  1  0  0  0  0
 11 12  2  0  0  0  0
 11 29  1  0  0  0  0
 12 30  1  0  0  0  0
 13 22  1  0  0  0  0
 13 28  2  0  0  0  0
 14 23  2  0  0  0  0
 14 24  1  0  0  0  0
 15 25  1  0  0  0  0
 15 26  2  0  0  0  0
 16 30  2  0  0  0  0
 16 31  1  0  0  0  0
 17 32  1  0  0  0  0
 18 32  1  0  0  0  0
 18 33  2  0  0  0  0
 18 34  1  0  0  0  0
 19 21  2  0  0  0  0
 19 39  1  0  0  0  0
 20 22  2  0  0  0  0
 20 40  1  0  0  0  0
 21 48  1  0  0  0  0
 22 41  1  0  0  0  0
 23 26  1  0  0  0  0
 23 51  1  0  0  0  0
 24 25  2  0  0  0  0
 24 58  1  0  0  0  0
 25 59  1  0  0  0  0
 26 60  1  0  0  0  0
 27 82  1  0  0  0  0
 28 83  1  0  0  0  0
 29 31  2  0  0  0  0
 29 82  1  0  0  0  0
 30 84  1  0  0  0  0
 31 85  1  0  0  0  0
 32 67  2  0  0  0  0
 33 68  1  0  0  0  0
 33 71  1  0  0  0  0
 34 72  1  0  0  0  0
 34 77  2  0  0  0  0
 35 49  1  0  0  0  0
 35 73  1  0  0  0  0
 35 78  2  0  0  0  0
 36 64  1  0  0  0  0
 36 69  1  0  0  0  0
 36 79  2  0  0  0  0
 37 65  1  0  0  0  0
 37 74  1  0  0  0  0
 37 80  2  0  0  0  0
 38 70  1  0  0  0  0
 38 75  1  0  0  0  0
 38 81  2  0  0  0  0
 39 42  1  0  0  0  0
 40 49  1  0  0  0  0
 41 69  1  0  0  0  0
 42 44  1  0  0  0  0
 43 45  1  0  0  0  0
 43 46  1  0  0  0  0
 44 48  1  0  0  0  0
 45 50  1  0  0  0  0
 46 70  1  0  0  0  0
 47 50  1  0  0  0  0
 47 70  1  0  0  0  0
 48 73  1  0  0  0  0
 49 69  1  0  0  0  0
 50 68  1  0  0  0  0
 52 61  1  0  0  0  0
 53 65  1  0  0  0  0
 54 66  1  0  0  0  0
 55 66  1  0  0  0  0
 56 66  1  0  0  0  0
 57 76  1  0  0  0  0
 58 62  1  0  0  0  0
 59 61  1  0  0  0  0
 60 75  1  0  0  0  0
 62 63  1  0  0  0  0
 63 83  1  0  0  0  0
 64 66  1  0  0  0  0
 64 74  1  0  0  0  0
 65 76  1  0  0  0  0
 67 68  1  0  0  0  0
M  CHG  1  76   1
M  ISO  4  38 100  63 101  75 100  83 101
M  END
> <Batch ID>
0035

> <Smiles>
CCCc1cc(C[100NH:0][100C:0](=O)N2CCCC(n3nc(-c4ccc(Oc5ccc(F)cc5F)cc4)c(C(N)=O)c3N)C2)c(C)cc1CC[101CH2:1][101O:1]c1ccc2c(c1)CN(C(=O)C(NC(=O)C(C)NC)C(C)(C)C)C(C(=O)NC1CCCc3ccccc31)C2

> <Shape>
0.219

> <Color>
0.074

> <Negative vol penalty>
0.000

$$$$

  -OEChem-04052316533D

 83 91  0     1  0  0  0  0  0999 V2000
  -19.2750   -8.9125   21.9948 C   0  0  0  0  0  0  0  0  0  0  0  0
  -19.4883  -10.0482   22.7695 C   0  0  0  0  0  0  0  0  0  0  0  0
  -26.5241  -31.9060   21.1105 C   0  0  0  0  0  0  0  0  0  0  0  0
  -24.6047  -31.8853   19.6433 C   0  0  0  0  0  0  0  0  0  0  0  0
  -20.3286   -8.3560   21.2708 C   0  0  0  0  0  0  0  0  0  0  0  0
  -20.7557  -10.6273   22.8217 C   0  0  0  0  0  0  0  0  0  0  0  0
  -22.0612  -16.5920   23.2945 C   0  0  0  0  0  0  0  0  0  0  0  0
  -26.5428  -33.3000   21.0663 C   0  0  0  0  0  0  0  0  0  0  0  0
  -24.6234  -33.2793   19.5991 C   0  0  0  0  0  0  0  0  0  0  0  0
  -22.4061  -17.3934   24.3819 C   0  0  0  0  0  0  0  0  0  0  0  0
  -24.8588  -35.8603   22.4953 C   0  0  0  0  0  0  0  0  0  0  0  0
  -25.0289  -36.5447   23.6987 C   0  0  0  0  0  0  0  0  0  0  0  0
  -29.6082  -23.8353   21.7340 C   0  0  0  0  0  0  0  0  0  0  0  0
  -24.7402  -17.1114   23.8417 C   0  0  0  0  0  0  0  0  0  0  0  0
  -27.0432  -37.5619   22.8355 C   0  0  0  0  0  0  0  0  0  0  0  0
  -25.5550  -31.1986   20.3989 C   0  0  0  0  0  0  0  0  0  0  0  0
  -28.6305  -23.5539   20.7861 C   0  0  0  0  0  0  0  0  0  0  0  0
  -24.8428  -28.9459   21.3610 C   0  0  0  0  0  0  0  0  0  0  0  0
  -21.6073   -8.9342   21.3065 C   0  0  0  0  0  0  0  0  0  0  0  0
  -23.0552  -16.0345   22.4775 C   0  0  0  0  0  0  0  0  0  0  0  0
  -21.8278  -10.0772   22.0986 C   0  0  0  0  0  0  0  0  0  0  0  0
  -24.4051  -16.3054   22.7430 C   0  0  0  0  0  0  0  0  0  0  0  0
  -29.3713  -23.5513   23.0744 C   0  0  0  0  0  0  0  0  0  0  0  0
  -25.5925  -33.9867   20.3107 C   0  0  0  0  0  0  0  0  0  0  0  0
  -23.7459  -17.6508   24.6574 C   0  0  0  0  0  0  0  0  0  0  0  0
  -25.7810  -36.0266   21.4620 C   0  0  0  0  0  0  0  0  0  0  0  0
  -26.1211  -37.3956   23.8688 C   0  0  0  0  0  0  0  0  0  0  0  0
  -26.8731  -36.8774   21.6321 C   0  0  0  0  0  0  0  0  0  0  0  0
  -25.5355  -29.7586   20.4437 C   0  0  0  0  0  0  0  0  0  0  0  0
  -27.4426  -22.9931   21.2266 C   0  0  0  0  0  0  0  0  0  0  0  0
  -28.1502  -22.9905   23.4125 C   0  0  0  0  0  0  0  0  0  0  0  0
  -25.1469  -27.6618   20.9799 C   0  0  0  0  0  0  0  0  0  0  0  0
  -28.8786  -23.8548   19.3702 C   0  0  0  0  0  0  0  0  0  0  0  0
  -23.9998  -29.3184   22.4593 C   0  0  0  0  0  0  0  0  0  0  0  0
  -23.9569  -13.0761   21.7434 C   0  0  0  0  0  0  0  0  0  0  0  0
  -25.9286  -14.6081   19.6727 C   0  0  0  0  0  0  0  0  0  0  0  0
  -27.6127  -17.4592   18.8470 C   0  0  0  0  0  0  0  0  0  0  0  0
  -22.7262   -8.2693   20.5445 C   0  0  0  0  0  0  0  0  0  0  0  0
  -22.6657  -15.1940   21.2925 C   0  0  0  0  0  0  0  0  0  0  0  0
  -25.5097  -15.7473   21.8845 C   0  0  0  0  0  0  0  0  0  0  0  0
  -23.9502   -9.1620   20.3572 C   0  0  0  0  0  0  0  0  0  0  0  0
  -27.4313  -25.8987   16.8267 C   0  0  0  0  0  0  0  0  0  0  0  0
  -24.3194   -9.8442   21.6707 C   0  0  0  0  0  0  0  0  0  0  0  0
  -26.7676  -27.0308   17.6127 C   0  0  0  0  0  0  0  0  0  0  0  0
  -28.7327  -25.4444   17.4830 C   0  0  0  0  0  0  0  0  0  0  0  0
  -27.9379  -26.2013   19.6966 C   0  0  0  0  0  0  0  0  0  0  0  0
  -23.1824  -10.7488   22.1611 C   0  0  1  0  0  0  0  0  0  0  0  0
  -23.7787  -14.2576   20.8323 C   0  0  1  0  0  0  0  0  0  0  0  0
  -26.5968  -26.6542   19.0964 C   0  0  1  0  0  0  0  0  0  0  0  0
  -30.4140  -23.8495   24.0955 C   0  0  0  0  0  0  0  0  0  0  0  0
  -26.3543  -22.6686   20.2554 C   0  0  0  0  0  0  0  0  0  0  0  0
  -29.1714  -18.3956   17.1176 C   0  0  0  0  0  0  0  0  0  0  0  0
  -28.2389  -13.0490   20.9144 C   0  0  0  0  0  0  0  0  0  0  0  0
  -29.8168  -14.6754   19.8499 C   0  0  0  0  0  0  0  0  0  0  0  0
  -28.3402  -13.2577   18.4243 C   0  0  0  0  0  0  0  0  0  0  0  0
  -25.6726  -19.5526   18.0641 C   0  0  0  0  0  0  0  0  0  0  0  0
  -27.8388  -22.6624   24.8430 C   0  0  0  0  0  0  0  0  0  0  0  0
  -25.1480  -20.4571   26.4422 C   0  0  0  0  0  0  0  0  0  0  0  0
  -26.3680  -21.3643   26.3891 C   0  0  0  0  0  0  0  0  0  0  0  0
  -25.2898  -19.1895   25.6087 C   0  0  0  0  0  0  0  0  0  1  0  0
  -27.3305  -15.1634   19.7437 C   0  0  1  0  0  0  0  0  0  0  0  0
  -27.7205  -18.2225   17.5393 C   0  0  2  0  0  0  0  0  0  0  0  0
  -28.4111  -14.0455   19.7506 C   0  0  0  0  0  0  0  0  0  0  0  0
  -26.2276  -29.0502   19.5474 N   0  0  0  0  0  0  0  0  0  0  0  0
  -27.1763  -22.7031   22.5199 N   0  0  0  0  0  0  0  0  0  0  0  0
  -25.9714  -27.7789   19.8998 N   0  0  0  0  0  0  0  0  0  0  0  0
  -28.5146  -25.1156   18.8912 N   0  0  0  0  0  0  0  0  0  0  0  0
  -25.0783  -14.9262   20.7411 N   0  0  0  0  0  0  0  0  0  0  0  0
  -24.7868  -26.4553   21.4668 N   0  0  0  0  0  0  0  0  0  0  0  0
  -23.7937  -30.6816   22.7109 N   0  0  0  0  0  0  0  0  0  0  0  0
  -23.1673  -11.9900   21.4171 N   0  0  0  0  0  0  0  0  0  0  0  0
  -27.4529  -16.1059   18.6368 N   0  0  0  0  0  0  0  0  0  0  0  0
  -27.1064  -19.5734   17.6758 N   0  3  0  0  0  0  0  0  0  0  0  0
  -26.6643  -21.7592   24.9920 N   0  3  0  0  0  0  0  0  0  0  0  0
  -29.3850  -22.9535   18.7037 O   0  0  0  0  0  0  0  0  0  0  0  0
  -23.4589  -28.4677   23.2058 O   0  0  0  0  0  0  0  0  0  0  0  0
  -24.7528  -13.1443   22.6726 O   0  0  0  0  0  0  0  0  0  0  0  0
  -25.5978  -13.9234   18.7014 O   0  0  0  0  0  0  0  0  0  0  0  0
  -27.6686  -18.0081   19.9452 O   0  0  0  0  0  0  0  0  0  0  0  0
  -25.6103  -35.3470   20.2676 O   0  0  0  0  0  0  0  0  0  0  0  0
  -24.0853  -18.4322   25.7186 O   0  0  0  0  0  0  0  0  0  1  0  0
  -26.2834  -38.0540   25.0239 F   0  0  0  0  0  0  0  0  0  0  0  0
  -27.7617  -37.0421   20.6426 F   0  0  0  0  0  0  0  0  0  0  0  0
  1  2  1  0  0  0  0
  1  5  2  0  0  0  0
  2  6  2  0  0  0  0
  3  8  2  0  0  0  0
  3 16  1  0  0  0  0
  4  9  1  0  0  0  0
  4 16  2  0  0  0  0
  5 19  1  0  0  0  0
  6 21  1  0  0  0  0
  7 10  2  0  0  0  0
  7 20  1  0  0  0  0
  8 24  1  0  0  0  0
  9 24  2  0  0  0  0
 10 25  1  0  0  0  0
 11 12  2  0  0  0  0
 11 26  1  0  0  0  0
 12 27  1  0  0  0  0
 13 17  2  0  0  0  0
 13 23  1  0  0  0  0
 14 22  1  0  0  0  0
 14 25  2  0  0  0  0
 15 27  2  0  0  0  0
 15 28  1  0  0  0  0
 16 29  1  0  0  0  0
 17 30  1  0  0  0  0
 17 33  1  0  0  0  0
 18 29  1  0  0  0  0
 18 32  2  0  0  0  0
 18 34  1  0  0  0  0
 19 21  2  0  0  0  0
 19 38  1  0  0  0  0
 20 22  2  0  0  0  0
 20 39  1  0  0  0  0
 21 47  1  0  0  0  0
 22 40  1  0  0  0  0
 23 31  2  0  0  0  0
 23 50  1  0  0  0  0
 24 80  1  0  0  0  0
 25 81  1  0  0  0  0
 26 28  2  0  0  0  0
 26 80  1  0  0  0  0
 27 82  1  0  0  0  0
 28 83  1  0  0  0  0
 29 64  2  0  0  0  0
 30 51  1  0  0  0  0
 30 65  2  0  0  0  0
 31 57  1  0  0  0  0
 31 65  1  0  0  0  0
 32 66  1  0  0  0  0
 32 69  1  0  0  0  0
 33 67  1  0  0  0  0
 33 75  2  0  0  0  0
 34 70  1  0  0  0  0
 34 76  2  0  0  0  0
 35 48  1  0  0  0  0
 35 71  1  0  0  0  0
 35 77  2  0  0  0  0
 36 61  1  0  0  0  0
 36 68  1  0  0  0  0
 36 78  2  0  0  0  0
 37 62  1  0  0  0  0
 37 72  1  0  0  0  0
 37 79  2  0  0  0  0
 38 41  1  0  0  0  0
 39 48  1  0  0  0  0
 40 68  1  0  0  0  0
 41 43  1  0  0  0  0
 42 44  1  0  0  0  0
 42 45  1  0  0  0  0
 43 47  1  0  0  0  0
 44 49  1  0  0  0  0
 45 67  1  0  0  0  0
 46 49  1  0  0  0  0
 46 67  1  0  0  0  0
 47 71  1  0  0  0  0
 48 68  1  0  0  0  0
 49 66  1  0  0  0  0
 52 62  1  0  0  0  0
 53 63  1  0  0  0  0
 54 63  1  0  0  0  0
 55 63  1  0  0  0  0
 56 73  1  0  0  0  0
 57 74  1  0  0  0  0
 58 59  1  0  0  0  0
 58 60  1  0  0  0  0
 59 74  1  0  0  0  0
 60 81  1  0  0  0  0
 61 63  1  0  0  0  0
 61 72  1  0  0  0  0
 62 73  1  0  0  0  0
 64 66  1  0  0  0  0
M  CHG  2  73   1  74   1
M  ISO  4  17 100  33 100  60 101  81 101
M  END
> <Batch ID>
0035

> <Smiles>
CNC(C)C(=O)NC(C(=O)N1Cc2cc([101O:1][101CH2:1]CCNCc3nc(C)[100c:0]([100C:0](=O)N4CCCC(n5nc(-c6ccc(Oc7ccc(F)cc7F)cc6)c(C(N)=O)c5N)C4)cc3C)ccc2CC1C(=O)NC1CCCc2ccccc21)C(C)(C)C

> <Shape>
0.219

> <Color>
0.063

> <Negative vol penalty>
0.000

$$$$

  -OEChem-04052316533D

 87 96  0     1  0  0  0  0  0999 V2000
  -25.5003  -18.8813   27.1588 C   0  0  0  0  0  0  0  0  0  0  0  0
  -26.3275  -19.6008   26.3023 C   0  0  0  0  0  0  0  0  0  0  0  0
  -26.4538  -12.6762   21.9473 C   0  0  0  0  0  0  0  0  0  0  0  0
  -25.5029  -14.3270   20.4615 C   0  0  0  0  0  0  0  0  0  0  0  0
  -24.1167  -18.9303   26.9940 C   0  0  0  0  0  0  0  0  0  0  0  0
  -25.7716  -20.3687   25.2798 C   0  0  0  0  0  0  0  0  0  0  0  0
  -27.8695  -25.7040   23.1259 C   0  0  0  0  0  0  0  0  0  0  0  0
  -25.2391  -11.9909   21.9633 C   0  0  0  0  0  0  0  0  0  0  0  0
  -24.2881  -13.6417   20.4775 C   0  0  0  0  0  0  0  0  0  0  0  0
  -28.6423  -26.0268   22.0113 C   0  0  0  0  0  0  0  0  0  0  0  0
  -22.4959   -9.6099   22.1080 C   0  0  0  0  0  0  0  0  0  0  0  0
  -22.5319   -8.2228   21.9655 C   0  0  0  0  0  0  0  0  0  0  0  0
  -29.9000  -22.7761   17.0929 C   0  0  0  0  0  0  0  0  0  0  0  0
  -26.6342  -26.5233   20.7702 C   0  0  0  0  0  0  0  0  0  0  0  0
  -28.2309  -23.4084   18.7161 C   0  0  0  0  0  0  0  0  0  0  0  0
  -23.5895   -8.4720   19.8076 C   0  0  0  0  0  0  0  0  0  0  0  0
  -26.5858  -13.8443   21.1964 C   0  0  0  0  0  0  0  0  0  0  0  0
  -28.9110  -14.3652   20.2856 C   0  0  0  0  0  0  0  0  0  0  0  0
  -23.5431  -19.7069   25.9749 C   0  0  0  0  0  0  0  0  0  0  0  0
  -26.4704  -25.7781   23.0675 C   0  0  0  0  0  0  0  0  0  0  0  0
  -24.3791  -20.4270   25.1004 C   0  0  0  0  0  0  0  0  0  0  0  0
  -29.7654  -21.4276   17.4562 C   0  0  0  0  0  0  0  0  0  0  0  0
  -25.8460  -26.2034   21.8862 C   0  0  0  0  0  0  0  0  0  0  0  0
  -28.8666  -21.0745   18.4799 C   0  0  0  0  0  0  0  0  0  0  0  0
  -29.1347  -23.7601   17.7179 C   0  0  0  0  0  0  0  0  0  0  0  0
  -28.0951  -22.0728   19.0937 C   0  0  0  0  0  0  0  0  0  0  0  0
  -24.1562  -12.4736   21.2284 C   0  0  0  0  0  0  0  0  0  0  0  0
  -28.0246  -26.4338   20.8324 C   0  0  0  0  0  0  0  0  0  0  0  0
  -23.0066  -10.4281   21.1003 C   0  0  0  0  0  0  0  0  0  0  0  0
  -23.0787   -7.6539   20.8154 C   0  0  0  0  0  0  0  0  0  0  0  0
  -23.5534   -9.8591   19.9501 C   0  0  0  0  0  0  0  0  0  0  0  0
  -27.8402  -14.5530   21.1800 C   0  0  0  0  0  0  0  0  0  0  0  0
  -29.8583  -15.2745   20.6884 C   0  0  0  0  0  0  0  0  0  0  0  0
  -29.0380  -13.4505   19.1888 C   0  0  0  0  0  0  0  0  0  0  0  0
  -24.0983  -23.6855   23.3809 C   0  0  0  0  0  0  0  0  0  0  0  0
  -22.2480  -26.3419   23.1760 C   0  0  0  0  0  0  0  0  0  0  0  0
  -21.9206  -29.5701   22.1184 C   0  0  0  0  0  0  0  0  0  0  0  0
  -29.5267  -20.4635   23.6575 C   0  0  0  0  0  0  0  0  0  0  0  0
  -22.0444  -19.6910   25.8064 C   0  0  0  0  0  0  0  0  0  0  0  0
  -25.6521  -25.4521   24.2868 C   0  0  0  0  0  0  0  0  0  0  0  0
  -30.6347  -20.3968   16.7802 C   0  0  0  0  0  0  0  0  0  0  0  0
  -28.6667  -19.6374   18.8923 C   0  0  0  0  0  0  0  0  0  0  0  0
  -24.3482  -26.3189   21.7781 C   0  0  0  0  0  0  0  0  0  0  0  0
  -21.5177  -20.8261   24.9320 C   0  0  0  0  0  0  0  0  0  0  0  0
  -30.1385  -18.9658   16.9785 C   0  0  0  0  0  0  0  0  0  0  0  0
  -29.8004  -18.7176   18.4429 C   0  0  0  0  0  0  0  0  0  0  0  0
  -31.4136  -17.5876   24.5770 C   0  0  0  0  0  0  0  0  0  0  0  0
  -22.3540  -20.9542   23.6627 C   0  0  0  0  0  0  0  0  0  0  0  0
  -30.8084  -16.4669   23.7299 C   0  0  0  0  0  0  0  0  0  0  0  0
  -30.3508  -18.5812   25.0410 C   0  0  0  0  0  0  0  0  0  0  0  0
  -28.9158  -18.0285   23.1151 C   0  0  0  0  0  0  0  0  0  0  0  0
  -23.8126  -21.2912   23.9947 C   0  0  1  0  0  0  0  0  0  0  0  0
  -24.2130  -25.0690   23.9557 C   0  0  1  0  0  0  0  0  0  0  0  0
  -29.9573  -17.0324   22.5771 C   0  0  2  0  0  0  0  0  0  0  0  0
  -20.2793  -31.4676   22.0616 C   0  0  0  0  0  0  0  0  0  0  0  0
  -20.7313  -24.9592   20.9183 C   0  0  0  0  0  0  0  0  0  0  0  0
  -19.7811  -27.1874   20.2856 C   0  0  0  0  0  0  0  0  0  0  0  0
  -19.2877  -26.2145   22.5290 C   0  0  0  0  0  0  0  0  0  0  0  0
  -23.7016  -31.3114   23.7169 C   0  0  0  0  0  0  0  0  0  0  0  0
  -29.2859  -25.2043   17.3116 C   0  0  0  0  0  0  0  0  0  0  0  0
  -27.0986  -21.7465   20.1607 C   0  0  0  0  0  0  0  0  0  0  0  0
  -30.3490  -25.9609   18.1109 C   0  0  0  0  0  0  0  0  0  0  0  0
  -27.3040  -22.5186   21.4768 C   0  0  0  0  0  0  0  0  0  0  0  0
  -28.6358  -22.2391   22.1700 C   0  0  0  0  0  0  0  0  0  0  0  0
  -30.0235  -26.0705   19.5960 C   0  0  0  0  0  0  0  0  0  1  0  0
  -21.6025  -27.1108   22.0486 C   0  0  1  0  0  0  0  0  0  0  0  0
  -21.4210  -30.8164   22.8267 C   0  0  2  0  0  0  0  0  0  0  0  0
  -20.3788  -26.3641   21.4465 C   0  0  0  0  0  0  0  0  0  0  0  0
  -28.0837  -15.5067   22.0829 N   0  0  0  0  0  0  0  0  0  0  0  0
  -29.3184  -15.9262   21.7580 N   0  0  0  0  0  0  0  0  0  0  0  0
  -23.5914  -25.9832   22.9955 N   0  0  0  0  0  0  0  0  0  0  0  0
  -29.5801  -19.0809   23.8999 N   0  0  0  0  0  0  0  0  0  0  0  0
  -31.0921  -15.5723   20.2284 N   0  0  0  0  0  0  0  0  0  0  0  0
  -27.9701  -12.5859   18.9128 N   0  0  0  0  0  0  0  0  0  0  0  0
  -23.9438  -22.6930   24.3299 N   0  0  0  0  0  0  0  0  0  0  0  0
  -21.2926  -28.4332   22.5812 N   0  0  0  0  0  0  0  0  0  0  0  0
  -28.7798  -20.8520   22.5521 N   0  0  0  0  0  0  0  0  0  0  0  0
  -22.5223  -31.8109   22.9640 N   0  3  0  0  0  0  0  0  0  0  0  0
  -30.0745  -13.3902   18.4849 O   0  0  0  0  0  0  0  0  0  0  0  0
  -24.1450  -23.5301   22.1662 O   0  0  0  0  0  0  0  0  0  0  0  0
  -21.5869  -26.0759   24.1829 O   0  0  0  0  0  0  0  0  0  0  0  0
  -22.7793  -29.6024   21.2397 O   0  0  0  0  0  0  0  0  0  0  0  0
  -30.1063  -21.2900   24.3702 O   0  0  0  0  0  0  0  0  0  0  0  0
  -22.9708  -11.8050   21.2436 O   0  0  0  0  0  0  0  0  0  0  0  0
  -28.7766  -26.7488   19.7428 O   0  0  0  0  0  0  0  0  0  1  0  0
  -23.1146   -6.3218   20.6794 F   0  0  0  0  0  0  0  0  0  0  0  0
  -24.0467  -10.6399   18.9791 F   0  0  0  0  0  0  0  0  0  0  0  0
  1  2  1  0  0  0  0
  1  5  2  0  0  0  0
  2  6  2  0  0  0  0
  3  8  2  0  0  0  0
  3 17  1  0  0  0  0
  4  9  1  0  0  0  0
  4 17  2  0  0  0  0
  5 19  1  0  0  0  0
  6 21  1  0  0  0  0
  7 10  2  0  0  0  0
  7 20  1  0  0  0  0
  8 27  1  0  0  0  0
  9 27  2  0  0  0  0
 10 28  1  0  0  0  0
 11 12  2  0  0  0  0
 11 29  1  0  0  0  0
 12 30  1  0  0  0  0
 13 22  2  0  0  0  0
 13 25  1  0  0  0  0
 14 23  1  0  0  0  0
 14 28  2  0  0  0  0
 15 25  2  0  0  0  0
 15 26  1  0  0  0  0
 16 30  2  0  0  0  0
 16 31  1  0  0  0  0
 17 32  1  0  0  0  0
 18 32  1  0  0  0  0
 18 33  2  0  0  0  0
 18 34  1  0  0  0  0
 19 21  2  0  0  0  0
 19 39  1  0  0  0  0
 20 23  2  0  0  0  0
 20 40  1  0  0  0  0
 21 52  1  0  0  0  0
 22 24  1  0  0  0  0
 22 41  1  0  0  0  0
 23 43  1  0  0  0  0
 24 26  2  0  0  0  0
 24 42  1  0  0  0  0
 25 60  1  0  0  0  0
 26 61  1  0  0  0  0
 27 84  1  0  0  0  0
 28 85  1  0  0  0  0
 29 31  2  0  0  0  0
 29 84  1  0  0  0  0
 30 86  1  0  0  0  0
 31 87  1  0  0  0  0
 32 69  2  0  0  0  0
 33 70  1  0  0  0  0
 33 73  1  0  0  0  0
 34 74  1  0  0  0  0
 34 79  2  0  0  0  0
 35 53  1  0  0  0  0
 35 75  1  0  0  0  0
 35 80  2  0  0  0  0
 36 66  1  0  0  0  0
 36 71  1  0  0  0  0
 36 81  2  0  0  0  0
 37 67  1  0  0  0  0
 37 76  1  0  0  0  0
 37 82  2  0  0  0  0
 38 72  1  0  0  0  0
 38 77  1  0  0  0  0
 38 83  2  0  0  0  0
 39 44  1  0  0  0  0
 40 53  1  0  0  0  0
 41 45  1  0  0  0  0
 42 46  1  0  0  0  0
 43 71  1  0  0  0  0
 44 48  1  0  0  0  0
 45 46  1  0  0  0  0
 47 49  1  0  0  0  0
 47 50  1  0  0  0  0
 48 52  1  0  0  0  0
 49 54  1  0  0  0  0
 50 72  1  0  0  0  0
 51 54  1  0  0  0  0
 51 72  1  0  0  0  0
 52 75  1  0  0  0  0
 53 71  1  0  0  0  0
 54 70  1  0  0  0  0
 55 67  1  0  0  0  0
 56 68  1  0  0  0  0
 57 68  1  0  0  0  0
 58 68  1  0  0  0  0
 59 78  1  0  0  0  0
 60 62  1  0  0  0  0
 61 63  1  0  0  0  0
 62 65  1  0  0  0  0
 63 64  1  0  0  0  0
 64 77  1  0  0  0  0
 65 85  1  0  0  0  0
 66 68  1  0  0  0  0
 66 76  1  0  0  0  0
 67 78  1  0  0  0  0
 69 70  1  0  0  0  0
M  CHG  1  78   1
M  ISO  4  38 100  65 101  77 100  85 101
M  END
> <Batch ID>
0035

> <Smiles>
CNC(C)C(=O)NC(C(=O)N1Cc2cc([101O:1][101CH2:1]CCc3cc4c(c(CCC[100NH:0][100C:0](=O)N5CCCC(n6nc(-c7ccc(Oc8ccc(F)cc8F)cc7)c(C(N)=O)c6N)C5)c3)CCCC4)ccc2CC1C(=O)NC1CCCc2ccccc21)C(C)(C)C

> <Shape>
0.247

> <Color>
0.057

> <Negative vol penalty>
0.000

$$$$

  -OEChem-04052316533D

 88 96  0     1  0  0  0  0  0999 V2000
  -30.7721  -25.5289   17.7663 C   0  0  0  0  0  0  0  0  0  0  0  0
  -29.4726  -26.0059   17.6367 C   0  0  0  0  0  0  0  0  0  0  0  0
  -26.8112  -12.8041   19.1137 C   0  0  0  0  0  0  0  0  0  0  0  0
  -25.2708  -13.5539   20.8172 C   0  0  0  0  0  0  0  0  0  0  0  0
  -31.4143  -25.5935   19.0011 C   0  0  0  0  0  0  0  0  0  0  0  0
  -28.8193  -26.5585   18.7388 C   0  0  0  0  0  0  0  0  0  0  0  0
  -23.1107  -28.6011   19.3453 C   0  0  0  0  0  0  0  0  0  0  0  0
  -26.5757  -11.4800   19.4836 C   0  0  0  0  0  0  0  0  0  0  0  0
  -25.0352  -12.2298   21.1871 C   0  0  0  0  0  0  0  0  0  0  0  0
  -21.8726  -28.0942   19.7376 C   0  0  0  0  0  0  0  0  0  0  0  0
  -23.2141   -9.6163   20.0585 C   0  0  0  0  0  0  0  0  0  0  0  0
  -21.8908   -9.2298   20.2706 C   0  0  0  0  0  0  0  0  0  0  0  0
  -22.2277  -28.9633   21.9598 C   0  0  0  0  0  0  0  0  0  0  0  0
  -25.1197  -22.0204   23.2210 C   0  0  0  0  0  0  0  0  0  0  0  0
  -23.7869  -23.5604   21.9418 C   0  0  0  0  0  0  0  0  0  0  0  0
  -22.4277   -8.6427   22.5518 C   0  0  0  0  0  0  0  0  0  0  0  0
  -26.1587  -13.8411   19.7805 C   0  0  0  0  0  0  0  0  0  0  0  0
  -25.7022  -15.9605   18.4361 C   0  0  0  0  0  0  0  0  0  0  0  0
  -30.7632  -26.1360   20.1213 C   0  0  0  0  0  0  0  0  0  0  0  0
  -23.9228  -29.2846   20.2618 C   0  0  0  0  0  0  0  0  0  0  0  0
  -29.4591  -26.6545   19.9878 C   0  0  0  0  0  0  0  0  0  0  0  0
  -23.4745  -29.4801   21.5759 C   0  0  0  0  0  0  0  0  0  0  0  0
  -25.0316  -23.1298   22.3875 C   0  0  0  0  0  0  0  0  0  0  0  0
  -25.6878  -11.1928   20.5203 C   0  0  0  0  0  0  0  0  0  0  0  0
  -21.4322  -28.2728   21.0458 C   0  0  0  0  0  0  0  0  0  0  0  0
  -24.1443   -9.5160   21.0932 C   0  0  0  0  0  0  0  0  0  0  0  0
  -21.4976   -8.7430   21.5172 C   0  0  0  0  0  0  0  0  0  0  0  0
  -23.7511   -9.0292   22.3398 C   0  0  0  0  0  0  0  0  0  0  0  0
  -26.4020  -15.2092   19.3992 C   0  0  0  0  0  0  0  0  0  0  0  0
  -23.9428  -21.3817   23.5772 C   0  0  0  0  0  0  0  0  0  0  0  0
  -22.6697  -22.8526   22.3550 C   0  0  0  0  0  0  0  0  0  0  0  0
  -26.3139  -17.1902   18.4491 C   0  0  0  0  0  0  0  0  0  0  0  0
  -24.5980  -15.5808   17.6041 C   0  0  0  0  0  0  0  0  0  0  0  0
  -26.8159  -28.8052   21.4880 C   0  0  0  0  0  0  0  0  0  0  0  0
  -26.3151  -31.7269   22.8054 C   0  0  0  0  0  0  0  0  0  0  0  0
  -24.0860  -34.0932   23.8439 C   0  0  0  0  0  0  0  0  0  0  0  0
  -28.4978  -21.5103   21.2263 C   0  0  0  0  0  0  0  0  0  0  0  0
  -31.5080  -26.1884   21.4320 C   0  0  0  0  0  0  0  0  0  0  0  0
  -25.2439  -29.8485   19.8158 C   0  0  0  0  0  0  0  0  0  0  0  0
  -24.2996  -30.2243   22.5928 C   0  0  0  0  0  0  0  0  0  0  0  0
  -30.5864  -26.3788   22.6322 C   0  0  0  0  0  0  0  0  0  0  0  0
  -30.6125  -18.7060   20.6424 C   0  0  0  0  0  0  0  0  0  0  0  0
  -29.6302  -27.5339   22.3753 C   0  0  0  0  0  0  0  0  0  0  0  0
  -29.6474  -17.6072   20.1938 C   0  0  0  0  0  0  0  0  0  0  0  0
  -29.9931  -19.5971   21.7168 C   0  0  0  0  0  0  0  0  0  0  0  0
  -27.7217  -19.0824   20.9108 C   0  0  0  0  0  0  0  0  0  0  0  0
  -28.7176  -27.2318   21.1799 C   0  0  1  0  0  0  0  0  0  0  0  0
  -26.2145  -30.0809   20.9696 C   0  0  1  0  0  0  0  0  0  0  0  0
  -28.2813  -18.1922   19.7880 C   0  0  2  0  0  0  0  0  0  0  0  0
  -24.2464  -16.3639   23.8060 C   0  0  0  0  0  0  0  0  0  0  0  0
  -23.9754  -36.3605   24.9137 C   0  0  0  0  0  0  0  0  0  0  0  0
  -26.9594  -30.4778   25.5136 C   0  0  0  0  0  0  0  0  0  0  0  0
  -25.9277  -32.4810   26.6048 C   0  0  0  0  0  0  0  0  0  0  0  0
  -27.9386  -32.7507   25.1536 C   0  0  0  0  0  0  0  0  0  0  0  0
  -22.7324  -35.2666   21.4881 C   0  0  0  0  0  0  0  0  0  0  0  0
  -26.2669  -23.8554   21.9740 C   0  0  0  0  0  0  0  0  0  0  0  0
  -23.9989  -20.1887   24.4718 C   0  0  0  0  0  0  0  0  0  0  0  0
  -21.3108  -23.2881   21.8918 C   0  0  0  0  0  0  0  0  0  0  0  0
  -24.1521  -17.6576   24.5990 C   0  0  0  0  0  0  0  0  0  0  0  0
  -24.1349  -18.8786   23.6794 C   0  0  0  0  0  0  0  0  0  0  0  0
  -19.0876  -26.2439   22.8828 C   0  0  0  0  0  0  0  0  0  0  0  0
  -26.8898  -23.3197   20.6791 C   0  0  0  0  0  0  0  0  0  0  0  0
  -19.5094  -25.0050   22.1073 C   0  0  0  0  0  0  0  0  0  0  0  0
  -20.0878  -27.3904   22.7979 C   0  0  0  0  0  0  0  0  0  1  0  0
  -25.7044  -32.2294   24.0913 C   0  0  1  0  0  0  0  0  0  0  0  0
  -24.0212  -35.5906   23.6030 C   0  0  2  0  0  0  0  0  0  0  0  0
  -26.6176  -31.9690   25.3224 C   0  0  0  0  0  0  0  0  0  0  0  0
  -27.3832  -15.9035   19.9816 N   0  0  0  0  0  0  0  0  0  0  0  0
  -22.7157  -21.7706   23.1642 N   0  0  0  0  0  0  0  0  0  0  0  0
  -27.3045  -17.1039   19.3827 N   0  0  0  0  0  0  0  0  0  0  0  0
  -25.5867  -30.7513   22.1100 N   0  0  0  0  0  0  0  0  0  0  0  0
  -28.7005  -20.1210   21.2687 N   0  0  0  0  0  0  0  0  0  0  0  0
  -26.0958  -18.3260   17.7529 N   0  0  0  0  0  0  0  0  0  0  0  0
  -24.0920  -14.2788   17.7185 N   0  0  0  0  0  0  0  0  0  0  0  0
  -27.9754  -28.4255   20.8392 N   0  0  0  0  0  0  0  0  0  0  0  0
  -25.3866  -33.6359   23.8699 N   0  0  0  0  0  0  0  0  0  0  0  0
  -27.2468  -21.9224   20.7838 N   0  0  0  0  0  0  0  0  0  0  0  0
  -22.8061  -35.9359   22.8123 N   0  3  0  0  0  0  0  0  0  0  0  0
  -20.8218  -24.5112   22.5863 N   0  3  0  0  0  0  0  0  0  0  0  0
  -24.0862  -16.3675   16.7718 O   0  0  0  0  0  0  0  0  0  0  0  0
  -26.2694  -28.2104   22.4095 O   0  0  0  0  0  0  0  0  0  0  0  0
  -27.3950  -32.1883   22.4280 O   0  0  0  0  0  0  0  0  0  0  0  0
  -23.0833  -33.3992   23.9975 O   0  0  0  0  0  0  0  0  0  0  0  0
  -29.3692  -22.3232   21.5531 O   0  0  0  0  0  0  0  0  0  0  0  0
  -25.4576   -9.9008   20.8813 O   0  0  0  0  0  0  0  0  0  0  0  0
  -20.2244  -27.7785   21.4315 O   0  0  0  0  0  0  0  0  0  1  0  0
  -20.2264   -8.3733   21.7211 F   0  0  0  0  0  0  0  0  0  0  0  0
  -24.6399   -8.9316   23.3379 F   0  0  0  0  0  0  0  0  0  0  0  0
  1  2  1  0  0  0  0
  1  5  2  0  0  0  0
  2  6  2  0  0  0  0
  3  8  2  0  0  0  0
  3 17  1  0  0  0  0
  4  9  1  0  0  0  0
  4 17  2  0  0  0  0
  5 19  1  0  0  0  0
  6 21  1  0  0  0  0
  7 10  2  0  0  0  0
  7 20  1  0  0  0  0
  8 24  1  0  0  0  0
  9 24  2  0  0  0  0
 10 25  1  0  0  0  0
 11 12  2  0  0  0  0
 11 26  1  0  0  0  0
 12 27  1  0  0  0  0
 13 22  1  0  0  0  0
 13 25  2  0  0  0  0
 14 23  2  0  0  0  0
 14 30  1  0  0  0  0
 15 23  1  0  0  0  0
 15 31  2  0  0  0  0
 16 27  2  0  0  0  0
 16 28  1  0  0  0  0
 17 29  1  0  0  0  0
 18 29  1  0  0  0  0
 18 32  2  0  0  0  0
 18 33  1  0  0  0  0
 19 21  2  0  0  0  0
 19 38  1  0  0  0  0
 20 22  2  0  0  0  0
 20 39  1  0  0  0  0
 21 47  1  0  0  0  0
 22 40  1  0  0  0  0
 23 56  1  0  0  0  0
 24 85  1  0  0  0  0
 25 86  1  0  0  0  0
 26 28  2  0  0  0  0
 26 85  1  0  0  0  0
 27 87  1  0  0  0  0
 28 88  1  0  0  0  0
 29 68  2  0  0  0  0
 30 57  1  0  0  0  0
 30 69  2  0  0  0  0
 31 58  1  0  0  0  0
 31 69  1  0  0  0  0
 32 70  1  0  0  0  0
 32 73  1  0  0  0  0
 33 74  1  0  0  0  0
 33 80  2  0  0  0  0
 34 48  1  0  0  0  0
 34 75  1  0  0  0  0
 34 81  2  0  0  0  0
 35 65  1  0  0  0  0
 35 71  1  0  0  0  0
 35 82  2  0  0  0  0
 36 66  1  0  0  0  0
 36 76  1  0  0  0  0
 36 83  2  0  0  0  0
 37 72  1  0  0  0  0
 37 77  1  0  0  0  0
 37 84  2  0  0  0  0
 38 41  1  0  0  0  0
 39 48  1  0  0  0  0
 40 71  1  0  0  0  0
 41 43  1  0  0  0  0
 42 44  1  0  0  0  0
 42 45  1  0  0  0  0
 43 47  1  0  0  0  0
 44 49  1  0  0  0  0
 45 72  1  0  0  0  0
 46 49  1  0  0  0  0
 46 72  1  0  0  0  0
 47 75  1  0  0  0  0
 48 71  1  0  0  0  0
 49 70  1  0  0  0  0
 50 59  1  0  0  0  0
 51 66  1  0  0  0  0
 52 67  1  0  0  0  0
 53 67  1  0  0  0  0
 54 67  1  0  0  0  0
 55 78  1  0  0  0  0
 56 62  1  0  0  0  0
 57 60  1  0  0  0  0
 58 79  1  0  0  0  0
 59 60  1  0  0  0  0
 61 63  1  0  0  0  0
 61 64  1  0  0  0  0
 62 77  1  0  0  0  0
 63 79  1  0  0  0  0
 64 86  1  0  0  0  0
 65 67  1  0  0  0  0
 65 76  1  0  0  0  0
 66 78  1  0  0  0  0
 68 70  1  0  0  0  0
M  CHG  2  78   1  79   1
M  ISO  4  37 100  64 101  77 100  86 101
M  END
> <Batch ID>
0035

> <Smiles>
CCCCc1cc(CC[100NH:0][100C:0](=O)N2CCCC(n3nc(-c4ccc(Oc5ccc(F)cc5F)cc4)c(C(N)=O)c3N)C2)cc(CNCC[101CH2:1][101O:1]c2ccc3c(c2)CN(C(=O)C(NC(=O)C(C)NC)C(C)(C)C)C(C(=O)NC2CCCc4ccccc42)C3)n1

> <Shape>
0.330

> <Color>
0.073

> <Negative vol penalty>
0.000

$$$$

  -OEChem-04052316533D

 89 98  0     1  0  0  0  0  0999 V2000
  -22.1821  -15.1714   22.8316 C   0  0  0  0  0  0  0  0  0  0  0  0
  -23.1245  -15.9424   22.1587 C   0  0  0  0  0  0  0  0  0  0  0  0
  -26.5095  -12.6816   21.7119 C   0  0  0  0  0  0  0  0  0  0  0  0
  -25.9263  -13.8908   19.7032 C   0  0  0  0  0  0  0  0  0  0  0  0
  -20.8291  -15.4975   22.7492 C   0  0  0  0  0  0  0  0  0  0  0  0
  -22.7142  -17.0395   21.4020 C   0  0  0  0  0  0  0  0  0  0  0  0
  -25.7230  -22.3189   20.6404 C   0  0  0  0  0  0  0  0  0  0  0  0
  -25.2527  -12.0766   21.7126 C   0  0  0  0  0  0  0  0  0  0  0  0
  -24.6695  -13.2858   19.7039 C   0  0  0  0  0  0  0  0  0  0  0  0
  -26.5424  -22.7924   19.6165 C   0  0  0  0  0  0  0  0  0  0  0  0
  -23.7080   -9.5405   20.0955 C   0  0  0  0  0  0  0  0  0  0  0  0
  -23.6497   -8.1675   20.3345 C   0  0  0  0  0  0  0  0  0  0  0  0
  -30.3470  -26.8238   19.9154 C   0  0  0  0  0  0  0  0  0  0  0  0
  -24.6551  -23.9378   18.6441 C   0  0  0  0  0  0  0  0  0  0  0  0
  -28.3649  -27.3356   18.6402 C   0  0  0  0  0  0  0  0  0  0  0  0
  -22.2710   -8.5646   22.2785 C   0  0  0  0  0  0  0  0  0  0  0  0
  -26.8463  -13.5887   20.7072 C   0  0  0  0  0  0  0  0  0  0  0  0
  -29.3148  -13.7429   20.0824 C   0  0  0  0  0  0  0  0  0  0  0  0
  -20.4029  -16.6049   21.9990 C   0  0  0  0  0  0  0  0  0  0  0  0
  -24.3590  -22.6430   20.6679 C   0  0  0  0  0  0  0  0  0  0  0  0
  -21.3540  -17.3799   21.3084 C   0  0  0  0  0  0  0  0  0  0  0  0
  -30.6676  -25.7824   19.0307 C   0  0  0  0  0  0  0  0  0  0  0  0
  -23.8212  -23.4693   19.6708 C   0  0  0  0  0  0  0  0  0  0  0  0
  -29.8093  -25.5053   17.9512 C   0  0  0  0  0  0  0  0  0  0  0  0
  -29.2034  -27.5970   19.7194 C   0  0  0  0  0  0  0  0  0  0  0  0
  -28.6672  -26.2979   17.7590 C   0  0  0  0  0  0  0  0  0  0  0  0
  -24.3327  -12.3787   20.7086 C   0  0  0  0  0  0  0  0  0  0  0  0
  -26.0079  -23.5995   18.6166 C   0  0  0  0  0  0  0  0  0  0  0  0
  -23.0480  -10.4256   20.9480 C   0  0  0  0  0  0  0  0  0  0  0  0
  -22.9311   -7.6796   21.4260 C   0  0  0  0  0  0  0  0  0  0  0  0
  -22.3295   -9.9376   22.0394 C   0  0  0  0  0  0  0  0  0  0  0  0
  -28.1442  -14.2144   20.7063 C   0  0  0  0  0  0  0  0  0  0  0  0
  -30.2654  -14.6900   20.3755 C   0  0  0  0  0  0  0  0  0  0  0  0
  -29.5241  -12.5551   19.3071 C   0  0  0  0  0  0  0  0  0  0  0  0
  -21.6547  -20.9785   20.5256 C   0  0  0  0  0  0  0  0  0  0  0  0
  -20.3020  -23.8673   21.1150 C   0  0  0  0  0  0  0  0  0  0  0  0
  -20.5504  -27.2677   20.9640 C   0  0  0  0  0  0  0  0  0  0  0  0
  -30.8121  -20.4132   21.0537 C   0  0  0  0  0  0  0  0  0  0  0  0
  -18.9251  -16.8901   21.9011 C   0  0  0  0  0  0  0  0  0  0  0  0
  -23.4942  -22.1463   21.7939 C   0  0  0  0  0  0  0  0  0  0  0  0
  -31.8949  -24.9492   19.3004 C   0  0  0  0  0  0  0  0  0  0  0  0
  -30.1174  -24.4152   16.9534 C   0  0  0  0  0  0  0  0  0  0  0  0
  -22.3674  -23.8629   19.6659 C   0  0  0  0  0  0  0  0  0  0  0  0
  -18.6081  -18.2905   21.3828 C   0  0  0  0  0  0  0  0  0  0  0  0
  -32.3224  -24.0942   18.1082 C   0  0  0  0  0  0  0  0  0  0  0  0
  -30.7463  -18.1900   23.8339 C   0  0  0  0  0  0  0  0  0  0  0  0
  -19.4558  -18.6100   20.1555 C   0  0  0  0  0  0  0  0  0  0  0  0
  -30.1774  -16.8944   23.2528 C   0  0  0  0  0  0  0  0  0  0  0  0
  -30.0965  -19.4222   23.2083 C   0  0  0  0  0  0  0  0  0  0  0  0
  -29.5693  -18.1678   21.1535 C   0  0  0  0  0  0  0  0  0  0  0  0
  -20.9505  -18.5923   20.4975 C   0  0  1  0  0  0  0  0  0  0  0  0
  -22.0106  -22.1167   21.4397 C   0  0  1  0  0  0  0  0  0  0  0  0
  -31.1391  -23.3796   17.4475 C   0  0  1  0  0  0  0  0  0  0  0  0
  -30.2334  -16.8982   21.7133 C   0  0  2  0  0  0  0  0  0  0  0  0
  -26.7453  -28.9054   23.9109 C   0  0  0  0  0  0  0  0  0  0  0  0
  -19.2694  -29.3615   21.4859 C   0  0  0  0  0  0  0  0  0  0  0  0
  -18.5687  -23.4198   18.6441 C   0  0  0  0  0  0  0  0  0  0  0  0
  -18.0272  -25.8640   18.6669 C   0  0  0  0  0  0  0  0  0  0  0  0
  -17.3666  -24.4240   20.5937 C   0  0  0  0  0  0  0  0  0  0  0  0
  -22.6081  -28.1870   22.8824 C   0  0  0  0  0  0  0  0  0  0  0  0
  -28.8814  -28.7042   20.6651 C   0  0  0  0  0  0  0  0  0  0  0  0
  -27.7227  -26.0555   16.6067 C   0  0  0  0  0  0  0  0  0  0  0  0
  -30.4944  -22.3425   18.3721 C   0  0  0  0  0  0  0  0  0  0  0  0
  -27.6450  -29.3760   22.7793 C   0  0  0  0  0  0  0  0  0  0  0  0
  -28.0046  -28.2288   21.8351 C   0  0  0  0  0  0  0  0  0  0  0  0
  -31.4766  -21.2700   18.8213 C   0  0  0  0  0  0  0  0  0  0  0  0
  -26.4583  -25.3204   17.0381 C   0  0  0  0  0  0  0  0  0  1  0  0
  -19.8038  -25.0086   20.2616 C   0  0  1  0  0  0  0  0  0  0  0  0
  -20.2772  -28.3445   21.9986 C   0  0  2  0  0  0  0  0  0  0  0  0
  -18.4686  -24.6703   19.5403 C   0  0  0  0  0  0  0  0  0  0  0  0
  -28.3318  -15.3710   21.3475 N   0  0  0  0  0  0  0  0  0  0  0  0
  -29.6313  -15.6342   21.1281 N   0  0  0  0  0  0  0  0  0  0  0  0
  -21.5613  -23.3469   20.7847 N   0  0  0  0  0  0  0  0  0  0  0  0
  -30.1849  -19.3650   21.7472 N   0  0  0  0  0  0  0  0  0  0  0  0
  -31.5736  -14.7988   20.0603 N   0  0  0  0  0  0  0  0  0  0  0  0
  -28.4398  -11.6910   19.1026 N   0  0  0  0  0  0  0  0  0  0  0  0
  -21.3262  -19.8093   21.1847 N   0  0  0  0  0  0  0  0  0  0  0  0
  -19.7311  -26.1724   21.1383 N   0  0  0  0  0  0  0  0  0  0  0  0
  -30.8586  -20.2771   19.6717 N   0  0  0  0  0  0  0  0  0  0  0  0
  -21.5364  -29.0632   22.3431 N   0  3  0  0  0  0  0  0  0  0  0  0
  -30.6437  -12.2603   18.8242 O   0  0  0  0  0  0  0  0  0  0  0  0
  -21.6751  -21.1489   19.3123 O   0  0  0  0  0  0  0  0  0  0  0  0
  -19.6028  -23.4576   22.0450 O   0  0  0  0  0  0  0  0  0  0  0  0
  -21.4027  -27.3878   20.0867 O   0  0  0  0  0  0  0  0  0  0  0  0
  -31.2996  -21.3949   21.6244 O   0  0  0  0  0  0  0  0  0  0  0  0
  -23.1063  -11.7883   20.7089 O   0  0  0  0  0  0  0  0  0  0  0  0
  -26.8052  -24.0624   17.6157 O   0  0  0  0  0  0  0  0  0  1  0  0
  -22.8738   -6.3610   21.6545 F   0  0  0  0  0  0  0  0  0  0  0  0
  -21.6924  -10.7830   22.8612 F   0  0  0  0  0  0  0  0  0  0  0  0
  1  2  1  0  0  0  0
  1  5  2  0  0  0  0
  2  6  2  0  0  0  0
  3  8  2  0  0  0  0
  3 17  1  0  0  0  0
  4  9  1  0  0  0  0
  4 17  2  0  0  0  0
  5 19  1  0  0  0  0
  6 21  1  0  0  0  0
  7 10  2  0  0  0  0
  7 20  1  0  0  0  0
  8 27  1  0  0  0  0
  9 27  2  0  0  0  0
 10 28  1  0  0  0  0
 11 12  2  0  0  0  0
 11 29  1  0  0  0  0
 12 30  1  0  0  0  0
 13 22  2  0  0  0  0
 13 25  1  0  0  0  0
 14 23  1  0  0  0  0
 14 28  2  0  0  0  0
 15 25  2  0  0  0  0
 15 26  1  0  0  0  0
 16 30  2  0  0  0  0
 16 31  1  0  0  0  0
 17 32  1  0  0  0  0
 18 32  1  0  0  0  0
 18 33  2  0  0  0  0
 18 34  1  0  0  0  0
 19 21  2  0  0  0  0
 19 39  1  0  0  0  0
 20 23  2  0  0  0  0
 20 40  1  0  0  0  0
 21 51  1  0  0  0  0
 22 24  1  0  0  0  0
 22 41  1  0  0  0  0
 23 43  1  0  0  0  0
 24 26  2  0  0  0  0
 24 42  1  0  0  0  0
 25 61  1  0  0  0  0
 26 62  1  0  0  0  0
 27 86  1  0  0  0  0
 28 87  1  0  0  0  0
 29 31  2  0  0  0  0
 29 86  1  0  0  0  0
 30 88  1  0  0  0  0
 31 89  1  0  0  0  0
 32 71  2  0  0  0  0
 33 72  1  0  0  0  0
 33 75  1  0  0  0  0
 34 76  1  0  0  0  0
 34 81  2  0  0  0  0
 35 52  1  0  0  0  0
 35 77  1  0  0  0  0
 35 82  2  0  0  0  0
 36 68  1  0  0  0  0
 36 73  1  0  0  0  0
 36 83  2  0  0  0  0
 37 69  1  0  0  0  0
 37 78  1  0  0  0  0
 37 84  2  0  0  0  0
 38 74  1  0  0  0  0
 38 79  1  0  0  0  0
 38 85  2  0  0  0  0
 39 44  1  0  0  0  0
 40 52  1  0  0  0  0
 41 45  1  0  0  0  0
 42 53  1  0  0  0  0
 43 73  1  0  0  0  0
 44 47  1  0  0  0  0
 45 53  1  0  0  0  0
 46 48  1  0  0  0  0
 46 49  1  0  0  0  0
 47 51  1  0  0  0  0
 48 54  1  0  0  0  0
 49 74  1  0  0  0  0
 50 54  1  0  0  0  0
 50 74  1  0  0  0  0
 51 77  1  0  0  0  0
 52 73  1  0  0  0  0
 53 63  1  0  0  0  0
 54 72  1  0  0  0  0
 55 64  1  0  0  0  0
 56 69  1  0  0  0  0
 57 70  1  0  0  0  0
 58 70  1  0  0  0  0
 59 70  1  0  0  0  0
 60 80  1  0  0  0  0
 61 65  1  0  0  0  0
 62 67  1  0  0  0  0
 63 66  1  0  0  0  0
 64 65  1  0  0  0  0
 66 79  1  0  0  0  0
 67 87  1  0  0  0  0
 68 70  1  0  0  0  0
 68 78  1  0  0  0  0
 69 80  1  0  0  0  0
 71 72  1  0  0  0  0
M  CHG  1  80   1
M  ISO  4  38 100  67 101  79 100  87 101
M  END
> <Batch ID>
0035

> <Smiles>
CCCCc1cc2c(c(C[101CH2:1][101O:1]c3ccc4c(c3)CN(C(=O)C(NC(=O)C(C)NC)C(C)(C)C)C(C(=O)NC3CCCc5ccccc53)C4)c1)CC(CC[100NH:0][100C:0](=O)N1CCCC(n3nc(-c4ccc(Oc5ccc(F)cc5F)cc4)c(C(N)=O)c3N)C1)CC2

> <Shape>
0.235

> <Color>
0.068

> <Negative vol penalty>
0.000

$$$$

  -OEChem-04052316533D

 86 94  0     1  0  0  0  0  0999 V2000
  -30.3174  -12.5854   19.7851 C   0  0  0  0  0  0  0  0  0  0  0  0
  -30.0335  -13.6890   20.5831 C   0  0  0  0  0  0  0  0  0  0  0  0
  -26.5105  -28.3578   18.9402 C   0  0  0  0  0  0  0  0  0  0  0  0
  -26.1395  -27.3146   21.0875 C   0  0  0  0  0  0  0  0  0  0  0  0
  -29.4230  -12.1994   18.7876 C   0  0  0  0  0  0  0  0  0  0  0  0
  -28.8555  -14.4079   20.3834 C   0  0  0  0  0  0  0  0  0  0  0  0
  -26.4948  -15.5140   24.7249 C   0  0  0  0  0  0  0  0  0  0  0  0
  -25.4881  -29.2686   19.2060 C   0  0  0  0  0  0  0  0  0  0  0  0
  -25.1170  -28.2254   21.3534 C   0  0  0  0  0  0  0  0  0  0  0  0
  -27.0050  -16.5724   25.4754 C   0  0  0  0  0  0  0  0  0  0  0  0
  -21.8742  -28.6505   20.4965 C   0  0  0  0  0  0  0  0  0  0  0  0
  -20.6857  -28.1529   21.0306 C   0  0  0  0  0  0  0  0  0  0  0  0
  -25.2815  -18.0157   24.6003 C   0  0  0  0  0  0  0  0  0  0  0  0
  -30.5497  -21.1539   23.8057 C   0  0  0  0  0  0  0  0  0  0  0  0
  -28.6914  -19.7254   23.2202 C   0  0  0  0  0  0  0  0  0  0  0  0
  -20.9773  -29.5493   22.9805 C   0  0  0  0  0  0  0  0  0  0  0  0
  -26.8362  -27.3807   19.8809 C   0  0  0  0  0  0  0  0  0  0  0  0
  -29.2586  -26.5818   19.9123 C   0  0  0  0  0  0  0  0  0  0  0  0
  -28.2288  -12.9081   18.5819 C   0  0  0  0  0  0  0  0  0  0  0  0
  -25.3789  -15.7016   23.8968 C   0  0  0  0  0  0  0  0  0  0  0  0
  -27.9449  -14.0318   19.3814 C   0  0  0  0  0  0  0  0  0  0  0  0
  -24.7576  -16.9574   23.8423 C   0  0  0  0  0  0  0  0  0  0  0  0
  -29.2735  -20.6603   24.0762 C   0  0  0  0  0  0  0  0  0  0  0  0
  -31.2439  -20.7128   22.6791 C   0  0  0  0  0  0  0  0  0  0  0  0
  -29.3856  -19.2841   22.0936 C   0  0  0  0  0  0  0  0  0  0  0  0
  -30.6618  -19.7779   21.8231 C   0  0  0  0  0  0  0  0  0  0  0  0
  -24.7913  -29.2024   20.4126 C   0  0  0  0  0  0  0  0  0  0  0  0
  -26.4001  -17.8243   25.4109 C   0  0  0  0  0  0  0  0  0  0  0  0
  -22.6144  -29.5975   21.2044 C   0  0  0  0  0  0  0  0  0  0  0  0
  -20.2372  -28.6023   22.2726 C   0  0  0  0  0  0  0  0  0  0  0  0
  -22.1659  -30.0469   22.4464 C   0  0  0  0  0  0  0  0  0  0  0  0
  -27.8919  -26.4392   19.6067 C   0  0  0  0  0  0  0  0  0  0  0  0
  -29.8362  -25.4243   19.4507 C   0  0  0  0  0  0  0  0  0  0  0  0
  -29.9448  -27.6637   20.5560 C   0  0  0  0  0  0  0  0  0  0  0  0
  -24.8412  -15.4759   20.7721 C   0  0  0  0  0  0  0  0  0  0  0  0
  -21.7659  -16.0051   21.6580 C   0  0  0  0  0  0  0  0  0  0  0  0
  -19.5923  -17.2803   23.9594 C   0  0  0  0  0  0  0  0  0  0  0  0
  -27.7111  -19.9102   18.4862 C   0  0  0  0  0  0  0  0  0  0  0  0
  -27.3154  -12.4814   17.4602 C   0  0  0  0  0  0  0  0  0  0  0  0
  -24.8245  -14.5429   23.1141 C   0  0  0  0  0  0  0  0  0  0  0  0
  -23.5449  -17.2057   22.9843 C   0  0  0  0  0  0  0  0  0  0  0  0
  -25.9112  -13.0717   17.5602 C   0  0  0  0  0  0  0  0  0  0  0  0
  -29.2919  -22.0410   16.1118 C   0  0  0  0  0  0  0  0  0  0  0  0
  -25.9802  -14.5648   17.8644 C   0  0  0  0  0  0  0  0  0  0  0  0
  -29.2356  -23.4227   16.7658 C   0  0  0  0  0  0  0  0  0  0  0  0
  -28.0373  -21.2235   16.4112 C   0  0  0  0  0  0  0  0  0  0  0  0
  -27.6519  -22.4779   18.4972 C   0  0  0  0  0  0  0  0  0  0  0  0
  -26.6657  -14.8223   19.2117 C   0  0  1  0  0  0  0  0  0  0  0  0
  -23.9953  -14.9776   21.9096 C   0  0  1  0  0  0  0  0  0  0  0  0
  -28.9199  -23.3186   18.2701 C   0  0  2  0  0  0  0  0  0  0  0  0
  -32.5677  -22.6666   21.8326 C   0  0  0  0  0  0  0  0  0  0  0  0
  -32.0001  -17.9139   20.8125 C   0  0  0  0  0  0  0  0  0  0  0  0
  -17.1404  -17.5978   24.3888 C   0  0  0  0  0  0  0  0  0  0  0  0
  -21.7141  -18.3019   19.6501 C   0  0  0  0  0  0  0  0  0  0  0  0
  -19.6466  -19.1500   20.7790 C   0  0  0  0  0  0  0  0  0  0  0  0
  -19.6400  -16.9052   19.6912 C   0  0  0  0  0  0  0  0  0  0  0  0
  -19.6919  -15.6369   26.4187 C   0  0  0  0  0  0  0  0  0  0  0  0
  -28.5228  -21.1377   25.2936 C   0  0  0  0  0  0  0  0  0  0  0  0
  -32.6096  -21.2563   22.4126 C   0  0  0  0  0  0  0  0  0  0  0  0
  -28.7402  -18.2823   21.1927 C   0  0  0  0  0  0  0  0  0  0  0  0
  -31.4065  -19.3047   20.6155 C   0  0  0  0  0  0  0  0  0  0  0  0
  -28.7772  -20.2936   26.5444 C   0  0  0  0  0  0  0  0  0  0  0  0
  -27.3817  -18.7357   20.6474 C   0  0  0  0  0  0  0  0  0  0  0  0
  -28.2984  -18.8529   26.4081 C   0  0  0  0  0  0  0  0  0  1  0  0
  -20.9058  -17.2300   21.8555 C   0  0  1  0  0  0  0  0  0  0  0  0
  -18.3464  -16.6959   24.6002 C   0  0  2  0  0  0  0  0  0  0  0  0
  -20.5007  -17.8929   20.5087 C   0  0  0  0  0  0  0  0  0  0  0  0
  -27.6176  -25.2825   18.9978 N   0  0  0  0  0  0  0  0  0  0  0  0
  -28.8199  -24.6877   18.9171 N   0  0  0  0  0  0  0  0  0  0  0  0
  -23.0441  -16.0429   22.2329 N   0  0  0  0  0  0  0  0  0  0  0  0
  -27.7951  -21.1621   17.8546 N   0  0  0  0  0  0  0  0  0  0  0  0
  -31.1092  -24.9750   19.4531 N   0  0  0  0  0  0  0  0  0  0  0  0
  -29.1994  -28.7771   20.9673 N   0  0  0  0  0  0  0  0  0  0  0  0
  -25.7541  -14.5510   20.3026 N   0  0  0  0  0  0  0  0  0  0  0  0
  -19.7767  -16.8078   22.6772 N   0  0  0  0  0  0  0  0  0  0  0  0
  -27.4861  -19.9419   19.8570 N   0  0  0  0  0  0  0  0  0  0  0  0
  -18.5513  -16.5209   26.0660 N   0  3  0  0  0  0  0  0  0  0  0  0
  -31.1847  -27.6509   20.7456 O   0  0  0  0  0  0  0  0  0  0  0  0
  -24.6766  -16.6148   20.3506 O   0  0  0  0  0  0  0  0  0  0  0  0
  -21.3174  -15.0471   21.0234 O   0  0  0  0  0  0  0  0  0  0  0  0
  -20.3263  -18.0791   24.5370 O   0  0  0  0  0  0  0  0  0  0  0  0
  -27.8333  -18.8434   17.8746 O   0  0  0  0  0  0  0  0  0  0  0  0
  -23.7938  -30.0912   20.6724 O   0  0  0  0  0  0  0  0  0  0  0  0
  -26.8965  -18.8593   26.1419 O   0  0  0  0  0  0  0  0  0  1  0  0
  -19.0950  -28.1255   22.7847 F   0  0  0  0  0  0  0  0  0  0  0  0
  -22.8720  -30.9574   23.1306 F   0  0  0  0  0  0  0  0  0  0  0  0
  1  2  1  0  0  0  0
  1  5  2  0  0  0  0
  2  6  2  0  0  0  0
  3  8  2  0  0  0  0
  3 17  1  0  0  0  0
  4  9  1  0  0  0  0
  4 17  2  0  0  0  0
  5 19  1  0  0  0  0
  6 21  1  0  0  0  0
  7 10  2  0  0  0  0
  7 20  1  0  0  0  0
  8 27  1  0  0  0  0
  9 27  2  0  0  0  0
 10 28  1  0  0  0  0
 11 12  2  0  0  0  0
 11 29  1  0  0  0  0
 12 30  1  0  0  0  0
 13 22  1  0  0  0  0
 13 28  2  0  0  0  0
 14 23  2  0  0  0  0
 14 24  1  0  0  0  0
 15 23  1  0  0  0  0
 15 25  2  0  0  0  0
 16 30  2  0  0  0  0
 16 31  1  0  0  0  0
 17 32  1  0  0  0  0
 18 32  1  0  0  0  0
 18 33  2  0  0  0  0
 18 34  1  0  0  0  0
 19 21  2  0  0  0  0
 19 39  1  0  0  0  0
 20 22  2  0  0  0  0
 20 40  1  0  0  0  0
 21 48  1  0  0  0  0
 22 41  1  0  0  0  0
 23 58  1  0  0  0  0
 24 26  2  0  0  0  0
 24 59  1  0  0  0  0
 25 26  1  0  0  0  0
 25 60  1  0  0  0  0
 26 61  1  0  0  0  0
 27 83  1  0  0  0  0
 28 84  1  0  0  0  0
 29 31  2  0  0  0  0
 29 83  1  0  0  0  0
 30 85  1  0  0  0  0
 31 86  1  0  0  0  0
 32 68  2  0  0  0  0
 33 69  1  0  0  0  0
 33 72  1  0  0  0  0
 34 73  1  0  0  0  0
 34 78  2  0  0  0  0
 35 49  1  0  0  0  0
 35 74  1  0  0  0  0
 35 79  2  0  0  0  0
 36 65  1  0  0  0  0
 36 70  1  0  0  0  0
 36 80  2  0  0  0  0
 37 66  1  0  0  0  0
 37 75  1  0  0  0  0
 37 81  2  0  0  0  0
 38 71  1  0  0  0  0
 38 76  1  0  0  0  0
 38 82  2  0  0  0  0
 39 42  1  0  0  0  0
 40 49  1  0  0  0  0
 41 70  1  0  0  0  0
 42 44  1  0  0  0  0
 43 45  1  0  0  0  0
 43 46  1  0  0  0  0
 44 48  1  0  0  0  0
 45 50  1  0  0  0  0
 46 71  1  0  0  0  0
 47 50  1  0  0  0  0
 47 71  1  0  0  0  0
 48 74  1  0  0  0  0
 49 70  1  0  0  0  0
 50 69  1  0  0  0  0
 51 59  1  0  0  0  0
 52 61  1  0  0  0  0
 53 66  1  0  0  0  0
 54 67  1  0  0  0  0
 55 67  1  0  0  0  0
 56 67  1  0  0  0  0
 57 77  1  0  0  0  0
 58 62  1  0  0  0  0
 60 63  1  0  0  0  0
 62 64  1  0  0  0  0
 63 76  1  0  0  0  0
 64 84  1  0  0  0  0
 65 67  1  0  0  0  0
 65 75  1  0  0  0  0
 66 77  1  0  0  0  0
 68 69  1  0  0  0  0
M  CHG  1  77   1
M  ISO  4  38 100  64 101  76 100  84 101
M  END
> <Batch ID>
0035

> <Smiles>
CCc1cc(CC[101CH2:1][101O:1]c2ccc3c(c2)CN(C(=O)C(NC(=O)C(C)NC)C(C)(C)C)C(C(=O)NC2CCCc4ccccc42)C3)cc(CC[100NH:0][100C:0](=O)N2CCCC(n3nc(-c4ccc(Oc5ccc(F)cc5F)cc4)c(C(N)=O)c3N)C2)c1CC

> <Shape>
0.216

> <Color>
0.065

> <Negative vol penalty>
0.000

$$$$

  -OEChem-04052316533D

 86 94  0     1  0  0  0  0  0999 V2000
  -32.9260  -28.4886   24.5737 C   0  0  0  0  0  0  0  0  0  0  0  0
  -32.2848  -27.6081   23.7082 C   0  0  0  0  0  0  0  0  0  0  0  0
  -23.9816   -9.6940   21.9032 C   0  0  0  0  0  0  0  0  0  0  0  0
  -22.0553  -10.3239   20.5881 C   0  0  0  0  0  0  0  0  0  0  0  0
  -32.2120  -29.0909   25.6088 C   0  0  0  0  0  0  0  0  0  0  0  0
  -30.9293  -27.3285   23.8781 C   0  0  0  0  0  0  0  0  0  0  0  0
  -28.3678  -27.4046   19.5103 C   0  0  0  0  0  0  0  0  0  0  0  0
  -23.5262   -8.3761   21.9391 C   0  0  0  0  0  0  0  0  0  0  0  0
  -21.5998   -9.0060   20.6240 C   0  0  0  0  0  0  0  0  0  0  0  0
  -28.4869  -26.2888   18.6828 C   0  0  0  0  0  0  0  0  0  0  0  0
  -21.2193   -6.5840   23.6394 C   0  0  0  0  0  0  0  0  0  0  0  0
  -21.2601   -5.9181   24.8643 C   0  0  0  0  0  0  0  0  0  0  0  0
  -26.3636  -25.4736   19.4866 C   0  0  0  0  0  0  0  0  0  0  0  0
  -27.1231  -21.0433   18.7001 C   0  0  0  0  0  0  0  0  0  0  0  0
  -22.7256   -4.2515   23.9096 C   0  0  0  0  0  0  0  0  0  0  0  0
  -23.2462  -10.6679   21.2277 C   0  0  0  0  0  0  0  0  0  0  0  0
  -24.5628  -12.6108   20.2281 C   0  0  0  0  0  0  0  0  0  0  0  0
  -30.8448  -28.8259   25.7855 C   0  0  0  0  0  0  0  0  0  0  0  0
  -27.2490  -27.5580   20.3416 C   0  0  0  0  0  0  0  0  0  0  0  0
  -30.1966  -27.9267   24.9173 C   0  0  0  0  0  0  0  0  0  0  0  0
  -26.2315  -26.5934   20.3218 C   0  0  0  0  0  0  0  0  0  0  0  0
  -28.4171  -21.5506   18.6606 C   0  0  0  0  0  0  0  0  0  0  0  0
  -26.6707  -20.3958   19.8444 C   0  0  0  0  0  0  0  0  0  0  0  0
  -22.3353   -8.0321   21.2995 C   0  0  0  0  0  0  0  0  0  0  0  0
  -27.4861  -25.3217   18.6730 C   0  0  0  0  0  0  0  0  0  0  0  0
  -21.9315   -6.0835   22.5494 C   0  0  0  0  0  0  0  0  0  0  0  0
  -22.0132   -4.7519   24.9995 C   0  0  0  0  0  0  0  0  0  0  0  0
  -22.6847   -4.9173   22.6846 C   0  0  0  0  0  0  0  0  0  0  0  0
  -23.7159  -12.0296   21.1907 C   0  0  0  0  0  0  0  0  0  0  0  0
  -29.2128  -21.3856   19.7828 C   0  0  0  0  0  0  0  0  0  0  0  0
  -27.5447  -20.2823   20.9135 C   0  0  0  0  0  0  0  0  0  0  0  0
  -24.7070  -13.9134   20.6393 C   0  0  0  0  0  0  0  0  0  0  0  0
  -25.1653  -12.0257   19.0661 C   0  0  0  0  0  0  0  0  0  0  0  0
  -26.7966  -27.7419   23.4825 C   0  0  0  0  0  0  0  0  0  0  0  0
  -23.7354  -28.3692   22.6119 C   0  0  0  0  0  0  0  0  0  0  0  0
  -21.2742  -28.0832   20.2652 C   0  0  0  0  0  0  0  0  0  0  0  0
  -22.5359  -18.6682   22.5946 C   0  0  0  0  0  0  0  0  0  0  0  0
  -30.1259  -29.4643   26.9475 C   0  0  0  0  0  0  0  0  0  0  0  0
  -27.1228  -28.7806   21.2086 C   0  0  0  0  0  0  0  0  0  0  0  0
  -25.0007  -26.7214   21.1804 C   0  0  0  0  0  0  0  0  0  0  0  0
  -28.6051  -29.4036   26.8306 C   0  0  0  0  0  0  0  0  0  0  0  0
  -23.3903  -16.1620   24.9748 C   0  0  0  0  0  0  0  0  0  0  0  0
  -28.1562  -28.0030   26.4262 C   0  0  0  0  0  0  0  0  0  0  0  0
  -23.6147  -14.9108   24.1239 C   0  0  0  0  0  0  0  0  0  0  0  0
  -22.2550  -17.0225   24.4246 C   0  0  0  0  0  0  0  0  0  0  0  0
  -22.6145  -16.1395   22.1520 C   0  0  0  0  0  0  0  0  0  0  0  0
  -28.7216  -27.6171   25.0540 C   0  0  1  0  0  0  0  0  0  0  0  0
  -26.1846  -28.5780   22.3944 C   0  0  1  0  0  0  0  0  0  0  0  0
  -23.7866  -15.2684   22.6353 C   0  0  2  0  0  0  0  0  0  0  0  0
  -30.6118  -21.9087   19.7979 C   0  0  0  0  0  0  0  0  0  0  0  0
  -27.2780  -17.4978   23.5744 C   0  0  0  0  0  0  0  0  0  0  0  0
  -18.8672  -28.6622   19.8543 C   0  0  0  0  0  0  0  0  0  0  0  0
  -22.8763  -26.1003   24.4624 C   0  0  0  0  0  0  0  0  0  0  0  0
  -20.6525  -26.0975   23.3122 C   0  0  0  0  0  0  0  0  0  0  0  0
  -21.4132  -28.1268   24.5476 C   0  0  0  0  0  0  0  0  0  0  0  0
  -21.9560  -29.7546   17.9199 C   0  0  0  0  0  0  0  0  0  0  0  0
  -25.2855  -19.8498   19.8930 C   0  0  0  0  0  0  0  0  0  0  0  0
  -28.9142  -22.2547   17.4215 C   0  0  0  0  0  0  0  0  0  0  0  0
  -27.1119  -19.5976   22.1686 C   0  0  0  0  0  0  0  0  0  0  0  0
  -27.6922  -18.1806   22.2806 C   0  0  0  0  0  0  0  0  0  0  0  0
  -24.2768  -20.7316   20.6566 C   0  0  0  0  0  0  0  0  0  0  0  0
  -22.8481  -20.1919   20.6606 C   0  0  0  0  0  0  0  0  0  0  0  0
  -28.9200  -23.7713   17.5794 C   0  0  0  0  0  0  0  0  0  1  0  0
  -22.5067  -27.5332   22.3467 C   0  0  1  0  0  0  0  0  0  0  0  0
  -20.3124  -29.1042   19.6846 C   0  0  2  0  0  0  0  0  0  0  0  0
  -21.8862  -26.9608   23.6524 C   0  0  0  0  0  0  0  0  0  0  0  0
  -23.3479  -12.8921   22.1418 N   0  0  0  0  0  0  0  0  0  0  0  0
  -28.8086  -20.7623   20.9123 N   0  0  0  0  0  0  0  0  0  0  0  0
  -23.9667  -14.0286   21.7790 N   0  0  0  0  0  0  0  0  0  0  0  0
  -24.9265  -27.9315   22.0156 N   0  0  0  0  0  0  0  0  0  0  0  0
  -22.4795  -17.3275   23.0095 N   0  0  0  0  0  0  0  0  0  0  0  0
  -25.3936  -14.9599   20.1336 N   0  0  0  0  0  0  0  0  0  0  0  0
  -24.9125  -10.6749   18.7908 N   0  0  0  0  0  0  0  0  0  0  0  0
  -27.9691  -28.2603   23.9983 N   0  0  0  0  0  0  0  0  0  0  0  0
  -21.5999  -28.3743   21.5730 N   0  0  0  0  0  0  0  0  0  0  0  0
  -22.7584  -18.8692   21.2378 N   0  0  0  0  0  0  0  0  0  0  0  0
  -20.5772  -29.2971   18.2308 N   0  3  0  0  0  0  0  0  0  0  0  0
  -25.9192  -12.6769   18.3038 O   0  0  0  0  0  0  0  0  0  0  0  0
  -26.2451  -26.7040   23.8295 O   0  0  0  0  0  0  0  0  0  0  0  0
  -23.6404  -29.3774   23.3162 O   0  0  0  0  0  0  0  0  0  0  0  0
  -21.6916  -27.1214   19.6239 O   0  0  0  0  0  0  0  0  0  0  0  0
  -22.4035  -19.6161   23.3763 O   0  0  0  0  0  0  0  0  0  0  0  0
  -21.8906   -6.7461   21.3341 O   0  0  0  0  0  0  0  0  0  0  0  0
  -27.6002  -24.2314   17.8667 O   0  0  0  0  0  0  0  0  0  1  0  0
  -22.0536   -4.1135   26.1763 F   0  0  0  0  0  0  0  0  0  0  0  0
  -23.3721   -4.4323   21.6414 F   0  0  0  0  0  0  0  0  0  0  0  0
  1  2  1  0  0  0  0
  1  5  2  0  0  0  0
  2  6  2  0  0  0  0
  3  8  2  0  0  0  0
  3 16  1  0  0  0  0
  4  9  1  0  0  0  0
  4 16  2  0  0  0  0
  5 18  1  0  0  0  0
  6 20  1  0  0  0  0
  7 10  2  0  0  0  0
  7 19  1  0  0  0  0
  8 24  1  0  0  0  0
  9 24  2  0  0  0  0
 10 25  1  0  0  0  0
 11 12  2  0  0  0  0
 11 26  1  0  0  0  0
 12 27  1  0  0  0  0
 13 21  1  0  0  0  0
 13 25  2  0  0  0  0
 14 22  2  0  0  0  0
 14 23  1  0  0  0  0
 15 27  2  0  0  0  0
 15 28  1  0  0  0  0
 16 29  1  0  0  0  0
 17 29  1  0  0  0  0
 17 32  2  0  0  0  0
 17 33  1  0  0  0  0
 18 20  2  0  0  0  0
 18 38  1  0  0  0  0
 19 21  2  0  0  0  0
 19 39  1  0  0  0  0
 20 47  1  0  0  0  0
 21 40  1  0  0  0  0
 22 30  1  0  0  0  0
 22 58  1  0  0  0  0
 23 31  2  0  0  0  0
 23 57  1  0  0  0  0
 24 83  1  0  0  0  0
 25 84  1  0  0  0  0
 26 28  2  0  0  0  0
 26 83  1  0  0  0  0
 27 85  1  0  0  0  0
 28 86  1  0  0  0  0
 29 67  2  0  0  0  0
 30 50  1  0  0  0  0
 30 68  2  0  0  0  0
 31 59  1  0  0  0  0
 31 68  1  0  0  0  0
 32 69  1  0  0  0  0
 32 72  1  0  0  0  0
 33 73  1  0  0  0  0
 33 78  2  0  0  0  0
 34 48  1  0  0  0  0
 34 74  1  0  0  0  0
 34 79  2  0  0  0  0
 35 64  1  0  0  0  0
 35 70  1  0  0  0  0
 35 80  2  0  0  0  0
 36 65  1  0  0  0  0
 36 75  1  0  0  0  0
 36 81  2  0  0  0  0
 37 71  1  0  0  0  0
 37 76  1  0  0  0  0
 37 82  2  0  0  0  0
 38 41  1  0  0  0  0
 39 48  1  0  0  0  0
 40 70  1  0  0  0  0
 41 43  1  0  0  0  0
 42 44  1  0  0  0  0
 42 45  1  0  0  0  0
 43 47  1  0  0  0  0
 44 49  1  0  0  0  0
 45 71  1  0  0  0  0
 46 49  1  0  0  0  0
 46 71  1  0  0  0  0
 47 74  1  0  0  0  0
 48 70  1  0  0  0  0
 49 69  1  0  0  0  0
 51 60  1  0  0  0  0
 52 65  1  0  0  0  0
 53 66  1  0  0  0  0
 54 66  1  0  0  0  0
 55 66  1  0  0  0  0
 56 77  1  0  0  0  0
 57 61  1  0  0  0  0
 58 63  1  0  0  0  0
 59 60  1  0  0  0  0
 61 62  1  0  0  0  0
 62 76  1  0  0  0  0
 63 84  1  0  0  0  0
 64 66  1  0  0  0  0
 64 75  1  0  0  0  0
 65 77  1  0  0  0  0
 67 69  1  0  0  0  0
M  CHG  1  77   1
M  ISO  4  37 100  63 101  76 100  84 101
M  END
> <Batch ID>
0035

> <Smiles>
CCCc1nc(C)c(C[101CH2:1][101O:1]c2ccc3c(c2)CN(C(=O)C(NC(=O)C(C)NC)C(C)(C)C)C(C(=O)NC2CCCc4ccccc42)C3)cc1CCC[100NH:0][100C:0](=O)N1CCCC(n2nc(-c3ccc(Oc4ccc(F)cc4F)cc3)c(C(N)=O)c2N)C1

> <Shape>
0.209

> <Color>
0.118

> <Negative vol penalty>
0.000

$$$$

  -OEChem-04052316533D

 86 95  0     1  0  0  0  0  0999 V2000
  -16.0877  -26.3781   23.8432 C   0  0  0  0  0  0  0  0  0  0  0  0
  -16.8055  -26.0990   22.6846 C   0  0  0  0  0  0  0  0  0  0  0  0
  -25.1534  -11.7869   21.0059 C   0  0  0  0  0  0  0  0  0  0  0  0
  -23.8482  -12.9452   19.3350 C   0  0  0  0  0  0  0  0  0  0  0  0
  -16.2548  -27.6034   24.4871 C   0  0  0  0  0  0  0  0  0  0  0  0
  -17.6900  -27.0455   22.1687 C   0  0  0  0  0  0  0  0  0  0  0  0
  -22.1150  -25.0137   20.7770 C   0  0  0  0  0  0  0  0  0  0  0  0
  -24.8510  -10.5686   20.3976 C   0  0  0  0  0  0  0  0  0  0  0  0
  -23.5458  -11.7269   18.7267 C   0  0  0  0  0  0  0  0  0  0  0  0
  -22.1481  -24.3310   19.5619 C   0  0  0  0  0  0  0  0  0  0  0  0
  -22.2475   -8.4157   20.2932 C   0  0  0  0  0  0  0  0  0  0  0  0
  -21.8679   -7.3569   21.1180 C   0  0  0  0  0  0  0  0  0  0  0  0
  -23.1272  -26.2673   18.5076 C   0  0  0  0  0  0  0  0  0  0  0  0
  -23.7453   -6.0622   20.3203 C   0  0  0  0  0  0  0  0  0  0  0  0
  -27.0998  -22.2296   16.6600 C   0  0  0  0  0  0  0  0  0  0  0  0
  -24.6520  -12.9752   20.4746 C   0  0  0  0  0  0  0  0  0  0  0  0
  -24.6601  -14.6242   22.4210 C   0  0  0  0  0  0  0  0  0  0  0  0
  -17.1491  -28.5616   23.9843 C   0  0  0  0  0  0  0  0  0  0  0  0
  -22.5785  -26.3343   20.8644 C   0  0  0  0  0  0  0  0  0  0  0  0
  -17.8683  -28.2852   22.8058 C   0  0  0  0  0  0  0  0  0  0  0  0
  -23.1013  -26.9636   19.7257 C   0  0  0  0  0  0  0  0  0  0  0  0
  -24.0472  -10.5386   19.2580 C   0  0  0  0  0  0  0  0  0  0  0  0
  -22.6515  -24.9588   18.4263 C   0  0  0  0  0  0  0  0  0  0  0  0
  -23.3761   -8.2977   19.4818 C   0  0  0  0  0  0  0  0  0  0  0  0
  -22.6167   -6.1802   21.1316 C   0  0  0  0  0  0  0  0  0  0  0  0
  -24.1250   -7.1210   19.4954 C   0  0  0  0  0  0  0  0  0  0  0  0
  -24.9635  -14.2339   21.1029 C   0  0  0  0  0  0  0  0  0  0  0  0
  -25.8072  -22.4574   17.0606 C   0  0  0  0  0  0  0  0  0  0  0  0
  -25.1641  -15.8975   22.5266 C   0  0  0  0  0  0  0  0  0  0  0  0
  -23.9832  -13.9005   23.4572 C   0  0  0  0  0  0  0  0  0  0  0  0
  -29.5602  -18.6006   19.5867 C   0  0  0  0  0  0  0  0  0  0  0  0
  -21.2611  -29.1292   21.6104 C   0  0  0  0  0  0  0  0  0  0  0  0
  -24.3181  -30.1898   21.3809 C   0  0  0  0  0  0  0  0  0  0  0  0
  -27.1323  -29.6575   19.1868 C   0  0  0  0  0  0  0  0  0  0  0  0
  -17.2608  -29.8905   24.6886 C   0  0  0  0  0  0  0  0  0  0  0  0
  -22.5607  -27.0477   22.1885 C   0  0  0  0  0  0  0  0  0  0  0  0
  -23.6300  -28.3732   19.7709 C   0  0  0  0  0  0  0  0  0  0  0  0
  -18.4967  -30.6911   24.2862 C   0  0  0  0  0  0  0  0  0  0  0  0
  -26.1347  -19.7778   19.9141 C   0  0  0  0  0  0  0  0  0  0  0  0
  -18.6577  -30.6980   22.7693 C   0  0  0  0  0  0  0  0  0  0  0  0
  -25.4142  -18.5035   20.3525 C   0  0  0  0  0  0  0  0  0  0  0  0
  -29.8140  -20.0611   17.6104 C   0  0  0  0  0  0  0  0  0  0  0  0
  -29.5331  -21.0465   19.9285 C   0  0  0  0  0  0  0  0  0  0  0  0
  -30.0901  -21.4700   17.0714 C   0  0  0  0  0  0  0  0  0  0  0  0
  -29.8426  -22.4327   19.3558 C   0  0  0  0  0  0  0  0  0  0  0  0
  -27.2644  -19.4746   18.9332 C   0  0  0  0  0  0  0  0  0  0  0  0
  -27.5381  -17.2063   19.8842 C   0  0  0  0  0  0  0  0  0  0  0  0
  -18.8557  -29.2765   22.2292 C   0  0  1  0  0  0  0  0  0  0  0  0
  -22.5835  -28.5667   22.0491 C   0  0  1  0  0  0  0  0  0  0  0  0
  -26.4109  -17.4657   20.8976 C   0  0  2  0  0  0  0  0  0  0  0  0
  -30.1492  -19.9023   19.1041 C   0  0  0  0  0  0  0  0  0  0  0  0
  -29.3776  -22.5943   17.8792 C   0  0  0  0  0  0  0  0  0  0  0  0
  -31.6653  -19.8061   19.3267 C   0  0  0  0  0  0  0  0  0  0  0  0
  -29.8934  -23.9529   17.3504 C   0  0  0  0  0  0  0  0  0  0  0  0
  -29.5969  -29.8494   19.6185 C   0  0  0  0  0  0  0  0  0  0  0  0
  -23.9899  -33.0296   20.3143 C   0  0  0  0  0  0  0  0  0  0  0  0
  -26.2048  -32.7825   19.1735 C   0  0  0  0  0  0  0  0  0  0  0  0
  -26.0637  -32.6541   21.6607 C   0  0  0  0  0  0  0  0  0  0  0  0
  -27.6279  -26.8909   18.2598 C   0  0  0  0  0  0  0  0  0  0  0  0
  -24.5236  -22.2208   16.3056 C   0  0  0  0  0  0  0  0  0  0  0  0
  -24.0641  -23.4243   15.4797 C   0  0  0  0  0  0  0  0  0  0  0  0
  -23.7255  -24.6448   16.3277 C   0  0  0  0  0  0  0  0  0  1  0  0
  -25.1787  -30.7382   20.2685 C   0  0  1  0  0  0  0  0  0  0  0  0
  -28.4096  -28.9049   19.5133 C   0  0  2  0  0  0  0  0  0  0  0  0
  -25.3382  -32.2827   20.3490 C   0  0  0  0  0  0  0  0  0  0  0  0
  -25.6100  -15.1825   20.4201 N   0  0  0  0  0  0  0  0  0  0  0  0
  -25.8023  -22.9633   18.3308 N   0  0  0  0  0  0  0  0  0  0  0  0
  -27.0636  -23.0593   18.7369 N   0  0  0  0  0  0  0  0  0  0  0  0
  -27.8400  -22.6191   17.7335 N   0  0  0  0  0  0  0  0  0  0  0  0
  -25.7169  -16.1815   21.3126 N   0  0  0  0  0  0  0  0  0  0  0  0
  -28.1763  -18.4618   19.4782 N   0  0  0  0  0  0  0  0  0  0  0  0
  -23.5853  -29.0311   21.0873 N   0  0  0  0  0  0  0  0  0  0  0  0
  -25.1838  -16.7908   23.5386 N   0  0  0  0  0  0  0  0  0  0  0  0
  -22.5904  -14.0215   23.5564 N   0  0  0  0  0  0  0  0  0  0  0  0
  -20.2134  -28.8323   22.4610 N   0  0  0  0  0  0  0  0  0  0  0  0
  -26.4379  -30.0037   20.3266 N   0  0  0  0  0  0  0  0  0  0  0  0
  -28.7026  -27.8979   18.4545 N   0  3  0  0  0  0  0  0  0  0  0  0
  -24.5972  -13.1812   24.2813 O   0  0  0  0  0  0  0  0  0  0  0  0
  -30.3089  -17.7356   20.0485 O   0  0  0  0  0  0  0  0  0  0  0  0
  -21.1964  -29.7854   20.5774 O   0  0  0  0  0  0  0  0  0  0  0  0
  -24.3022  -30.7641   22.4724 O   0  0  0  0  0  0  0  0  0  0  0  0
  -26.7871  -29.9159   18.0359 O   0  0  0  0  0  0  0  0  0  0  0  0
  -23.7522   -9.3501   18.6640 O   0  0  0  0  0  0  0  0  0  0  0  0
  -22.6844  -24.2950   17.2388 O   0  0  0  0  0  0  0  0  0  1  0  0
  -22.2529   -5.1641   21.9249 F   0  0  0  0  0  0  0  0  0  0  0  0
  -25.2108   -7.0023   18.7191 F   0  0  0  0  0  0  0  0  0  0  0  0
  1  2  1  0  0  0  0
  1  5  2  0  0  0  0
  2  6  2  0  0  0  0
  3  8  2  0  0  0  0
  3 16  1  0  0  0  0
  4  9  1  0  0  0  0
  4 16  2  0  0  0  0
  5 18  1  0  0  0  0
  6 20  1  0  0  0  0
  7 10  2  0  0  0  0
  7 19  1  0  0  0  0
  8 22  1  0  0  0  0
  9 22  2  0  0  0  0
 10 23  1  0  0  0  0
 11 12  2  0  0  0  0
 11 24  1  0  0  0  0
 12 25  1  0  0  0  0
 13 21  1  0  0  0  0
 13 23  2  0  0  0  0
 14 25  2  0  0  0  0
 14 26  1  0  0  0  0
 15 28  2  0  0  0  0
 15 69  1  0  0  0  0
 16 27  1  0  0  0  0
 17 27  1  0  0  0  0
 17 29  2  0  0  0  0
 17 30  1  0  0  0  0
 18 20  2  0  0  0  0
 18 35  1  0  0  0  0
 19 21  2  0  0  0  0
 19 36  1  0  0  0  0
 20 48  1  0  0  0  0
 21 37  1  0  0  0  0
 22 83  1  0  0  0  0
 23 84  1  0  0  0  0
 24 26  2  0  0  0  0
 24 83  1  0  0  0  0
 25 85  1  0  0  0  0
 26 86  1  0  0  0  0
 27 66  2  0  0  0  0
 28 60  1  0  0  0  0
 28 67  1  0  0  0  0
 29 70  1  0  0  0  0
 29 73  1  0  0  0  0
 30 74  1  0  0  0  0
 30 78  2  0  0  0  0
 31 51  1  0  0  0  0
 31 71  1  0  0  0  0
 31 79  2  0  0  0  0
 32 49  1  0  0  0  0
 32 75  1  0  0  0  0
 32 80  2  0  0  0  0
 33 63  1  0  0  0  0
 33 72  1  0  0  0  0
 33 81  2  0  0  0  0
 34 64  1  0  0  0  0
 34 76  1  0  0  0  0
 34 82  2  0  0  0  0
 35 38  1  0  0  0  0
 36 49  1  0  0  0  0
 37 72  1  0  0  0  0
 38 40  1  0  0  0  0
 39 41  1  0  0  0  0
 39 46  1  0  0  0  0
 40 48  1  0  0  0  0
 41 50  1  0  0  0  0
 42 44  1  0  0  0  0
 42 51  1  0  0  0  0
 43 45  1  0  0  0  0
 43 51  1  0  0  0  0
 44 52  1  0  0  0  0
 45 52  1  0  0  0  0
 46 71  1  0  0  0  0
 47 50  1  0  0  0  0
 47 71  1  0  0  0  0
 48 75  1  0  0  0  0
 49 72  1  0  0  0  0
 50 70  1  0  0  0  0
 51 53  1  0  0  0  0
 52 54  1  0  0  0  0
 52 69  1  0  0  0  0
 55 64  1  0  0  0  0
 56 65  1  0  0  0  0
 57 65  1  0  0  0  0
 58 65  1  0  0  0  0
 59 77  1  0  0  0  0
 60 61  1  0  0  0  0
 61 62  1  0  0  0  0
 62 84  1  0  0  0  0
 63 65  1  0  0  0  0
 63 76  1  0  0  0  0
 64 77  1  0  0  0  0
 66 70  1  0  0  0  0
 67 68  2  0  0  0  0
 68 69  1  0  0  0  0
M  CHG  1  77   1
M  ISO  4  31 100  51 100  62 101  84 101
M  END
> <Batch ID>
0035

> <Smiles>
CNC(C)C(=O)NC(C(=O)N1Cc2cc([101O:1][101CH2:1]CCc3cn(C4(C)CC[100C:0](C)([100C:0](=O)N5CCCC(n6nc(-c7ccc(Oc8ccc(F)cc8F)cc7)c(C(N)=O)c6N)C5)CC4)nn3)ccc2CC1C(=O)NC1CCCc2ccccc21)C(C)(C)C

> <Shape>
0.231

> <Color>
0.061

> <Negative vol penalty>
0.000

$$$$

  -OEChem-04052316533D

 85 93  0     1  0  0  0  0  0999 V2000
  -22.6089  -10.4987   20.0176 C   0  0  0  0  0  0  0  0  0  0  0  0
  -22.0336  -11.6868   20.4568 C   0  0  0  0  0  0  0  0  0  0  0  0
  -28.9487  -24.3260   23.0616 C   0  0  0  0  0  0  0  0  0  0  0  0
  -29.9370  -25.5652   24.8849 C   0  0  0  0  0  0  0  0  0  0  0  0
  -23.9966  -10.3780   19.9574 C   0  0  0  0  0  0  0  0  0  0  0  0
  -22.8457  -12.7546   20.8370 C   0  0  0  0  0  0  0  0  0  0  0  0
  -21.6832  -18.7186   20.0718 C   0  0  0  0  0  0  0  0  0  0  0  0
  -29.1840  -23.1330   23.7448 C   0  0  0  0  0  0  0  0  0  0  0  0
  -30.1724  -24.3721   25.5682 C   0  0  0  0  0  0  0  0  0  0  0  0
  -21.1785  -19.6936   20.9311 C   0  0  0  0  0  0  0  0  0  0  0  0
  -27.7769  -21.3959   26.2816 C   0  0  0  0  0  0  0  0  0  0  0  0
  -26.7452  -20.4582   26.3230 C   0  0  0  0  0  0  0  0  0  0  0  0
  -23.4285  -20.3857   21.4577 C   0  0  0  0  0  0  0  0  0  0  0  0
  -21.2475  -28.4280   21.0913 C   0  0  0  0  0  0  0  0  0  0  0  0
  -20.3811  -27.1461   23.4127 C   0  0  0  0  0  0  0  0  0  0  0  0
  -28.1631  -18.8490   25.2108 C   0  0  0  0  0  0  0  0  0  0  0  0
  -29.3252  -25.5422   23.6316 C   0  0  0  0  0  0  0  0  0  0  0  0
  -29.5820  -27.1435   21.6625 C   0  0  0  0  0  0  0  0  0  0  0  0
  -24.8261  -11.4483   20.3279 C   0  0  0  0  0  0  0  0  0  0  0  0
  -23.0670  -18.5623   19.9071 C   0  0  0  0  0  0  0  0  0  0  0  0
  -24.2458  -12.6477   20.7829 C   0  0  0  0  0  0  0  0  0  0  0  0
  -23.9482  -19.4097   20.5938 C   0  0  0  0  0  0  0  0  0  0  0  0
  -20.5933  -27.1990   21.0066 C   0  0  0  0  0  0  0  0  0  0  0  0
  -20.1601  -26.5581   22.1673 C   0  0  0  0  0  0  0  0  0  0  0  0
  -21.0354  -28.3751   23.4974 C   0  0  0  0  0  0  0  0  0  0  0  0
  -21.4686  -29.0161   22.3367 C   0  0  0  0  0  0  0  0  0  0  0  0
  -29.7958  -23.1560   24.9981 C   0  0  0  0  0  0  0  0  0  0  0  0
  -22.0512  -20.5255   21.6264 C   0  0  0  0  0  0  0  0  0  0  0  0
  -29.0018  -21.0602   25.7048 C   0  0  0  0  0  0  0  0  0  0  0  0
  -26.9382  -19.1847   25.7876 C   0  0  0  0  0  0  0  0  0  0  0  0
  -29.1948  -19.7867   25.1694 C   0  0  0  0  0  0  0  0  0  0  0  0
  -29.0829  -26.7749   22.9261 C   0  0  0  0  0  0  0  0  0  0  0  0
  -29.0658  -28.3969   21.4417 C   0  0  0  0  0  0  0  0  0  0  0  0
  -30.4359  -26.4176   20.7682 C   0  0  0  0  0  0  0  0  0  0  0  0
  -25.1412  -16.2179   20.4597 C   0  0  0  0  0  0  0  0  0  0  0  0
  -27.2155  -18.2334   18.9907 C   0  0  0  0  0  0  0  0  0  0  0  0
  -28.0219  -21.4339   18.1228 C   0  0  0  0  0  0  0  0  0  0  0  0
  -24.2086  -31.2274   23.5023 C   0  0  0  0  0  0  0  0  0  0  0  0
  -26.3213  -11.2544   20.2909 C   0  0  0  0  0  0  0  0  0  0  0  0
  -23.5950  -17.5235   18.9561 C   0  0  0  0  0  0  0  0  0  0  0  0
  -25.4418  -19.2962   20.4364 C   0  0  0  0  0  0  0  0  0  0  0  0
  -27.1068  -12.5618   20.3557 C   0  0  0  0  0  0  0  0  0  0  0  0
  -27.5913  -32.3039   23.7766 C   0  0  0  0  0  0  0  0  0  0  0  0
  -26.5543  -13.4625   21.4559 C   0  0  0  0  0  0  0  0  0  0  0  0
  -28.4022  -31.0422   23.4757 C   0  0  0  0  0  0  0  0  0  0  0  0
  -26.3184  -31.9839   24.5573 C   0  0  0  0  0  0  0  0  0  0  0  0
  -26.2664  -29.6969   23.6405 C   0  0  0  0  0  0  0  0  0  0  0  0
  -25.0930  -13.8370   21.1804 C   0  0  1  0  0  0  0  0  0  0  0  0
  -25.0330  -17.1131   19.2577 C   0  0  1  0  0  0  0  0  0  0  0  0
  -27.5312  -29.9623   22.8061 C   0  0  2  0  0  0  0  0  0  0  0  0
  -20.3671  -26.5891   19.6622 C   0  0  0  0  0  0  0  0  0  0  0  0
  -19.9966  -29.6228   25.4081 C   0  0  0  0  0  0  0  0  0  0  0  0
  -29.7977  -22.7713   16.9587 C   0  0  0  0  0  0  0  0  0  0  0  0
  -29.0278  -17.9442   21.4283 C   0  0  0  0  0  0  0  0  0  0  0  0
  -30.2719  -19.9755   20.6574 C   0  0  0  0  0  0  0  0  0  0  0  0
  -30.2234  -17.9290   19.2318 C   0  0  0  0  0  0  0  0  0  0  0  0
  -26.1137  -22.4068   16.0805 C   0  0  0  0  0  0  0  0  0  0  0  0
  -21.2616  -28.9850   24.8418 C   0  0  0  0  0  0  0  0  0  0  0  0
  -19.4502  -25.2294   22.1005 C   0  0  0  0  0  0  0  0  0  0  0  0
  -22.1719  -30.3319   22.4027 C   0  0  0  0  0  0  0  0  0  0  0  0
  -20.3822  -24.0422   21.8337 C   0  0  0  0  0  0  0  0  0  0  0  0
  -21.4071  -23.8236   22.9475 C   0  0  0  0  0  0  0  0  0  0  0  0
  -22.3394  -22.6625   22.6293 C   0  0  0  0  0  0  0  0  0  1  0  0
  -28.1361  -19.3393   19.4472 C   0  0  1  0  0  0  0  0  0  0  0  0
  -28.4751  -22.0365   16.8053 C   0  0  2  0  0  0  0  0  0  0  0  0
  -29.3867  -18.7981   20.1958 C   0  0  0  0  0  0  0  0  0  0  0  0
  -28.3092  -27.7181   23.4700 N   0  0  0  0  0  0  0  0  0  0  0  0
  -28.3183  -28.6917   22.5437 N   0  0  0  0  0  0  0  0  0  0  0  0
  -25.9094  -18.2609   19.4999 N   0  0  0  0  0  0  0  0  0  0  0  0
  -25.5370  -30.9542   23.8680 N   0  0  0  0  0  0  0  0  0  0  0  0
  -29.1831  -29.2648   20.4143 N   0  0  0  0  0  0  0  0  0  0  0  0
  -31.8227  -26.5810   20.8884 N   0  0  0  0  0  0  0  0  0  0  0  0
  -25.0181  -14.8721   20.1717 N   0  0  0  0  0  0  0  0  0  0  0  0
  -28.4455  -20.1289   18.2601 N   0  0  0  0  0  0  0  0  0  0  0  0
  -23.5414  -30.1996   22.8473 N   0  0  0  0  0  0  0  0  0  0  0  0
  -27.4577  -23.0008   16.2995 N   0  3  0  0  0  0  0  0  0  0  0  0
  -29.9819  -25.6595   19.8778 O   0  0  0  0  0  0  0  0  0  0  0  0
  -25.3244  -16.7117   21.5662 O   0  0  0  0  0  0  0  0  0  0  0  0
  -27.6375  -17.3807   18.2055 O   0  0  0  0  0  0  0  0  0  0  0  0
  -27.3615  -22.0595   18.9493 O   0  0  0  0  0  0  0  0  0  0  0  0
  -23.6596  -32.3093   23.7371 O   0  0  0  0  0  0  0  0  0  0  0  0
  -30.0254  -21.9920   25.6651 O   0  0  0  0  0  0  0  0  0  0  0  0
  -21.5612  -21.4776   22.4662 O   0  0  0  0  0  0  0  0  0  1  0  0
  -25.9478  -18.2839   25.8288 F   0  0  0  0  0  0  0  0  0  0  0  0
  -30.3697  -19.4580   24.6150 F   0  0  0  0  0  0  0  0  0  0  0  0
  1  2  1  0  0  0  0
  1  5  2  0  0  0  0
  2  6  2  0  0  0  0
  3  8  2  0  0  0  0
  3 17  1  0  0  0  0
  4  9  1  0  0  0  0
  4 17  2  0  0  0  0
  5 19  1  0  0  0  0
  6 21  1  0  0  0  0
  7 10  2  0  0  0  0
  7 20  1  0  0  0  0
  8 27  1  0  0  0  0
  9 27  2  0  0  0  0
 10 28  1  0  0  0  0
 11 12  2  0  0  0  0
 11 29  1  0  0  0  0
 12 30  1  0  0  0  0
 13 22  1  0  0  0  0
 13 28  2  0  0  0  0
 14 23  2  0  0  0  0
 14 26  1  0  0  0  0
 15 24  2  0  0  0  0
 15 25  1  0  0  0  0
 16 30  2  0  0  0  0
 16 31  1  0  0  0  0
 17 32  1  0  0  0  0
 18 32  1  0  0  0  0
 18 33  2  0  0  0  0
 18 34  1  0  0  0  0
 19 21  2  0  0  0  0
 19 39  1  0  0  0  0
 20 22  2  0  0  0  0
 20 40  1  0  0  0  0
 21 48  1  0  0  0  0
 22 41  1  0  0  0  0
 23 24  1  0  0  0  0
 23 51  1  0  0  0  0
 24 59  1  0  0  0  0
 25 26  2  0  0  0  0
 25 58  1  0  0  0  0
 26 60  1  0  0  0  0
 27 82  1  0  0  0  0
 28 83  1  0  0  0  0
 29 31  2  0  0  0  0
 29 82  1  0  0  0  0
 30 84  1  0  0  0  0
 31 85  1  0  0  0  0
 32 67  2  0  0  0  0
 33 68  1  0  0  0  0
 33 71  1  0  0  0  0
 34 72  1  0  0  0  0
 34 77  2  0  0  0  0
 35 49  1  0  0  0  0
 35 73  1  0  0  0  0
 35 78  2  0  0  0  0
 36 64  1  0  0  0  0
 36 69  1  0  0  0  0
 36 79  2  0  0  0  0
 37 65  1  0  0  0  0
 37 74  1  0  0  0  0
 37 80  2  0  0  0  0
 38 70  1  0  0  0  0
 38 75  1  0  0  0  0
 38 81  2  0  0  0  0
 39 42  1  0  0  0  0
 40 49  1  0  0  0  0
 41 69  1  0  0  0  0
 42 44  1  0  0  0  0
 43 45  1  0  0  0  0
 43 46  1  0  0  0  0
 44 48  1  0  0  0  0
 45 50  1  0  0  0  0
 46 70  1  0  0  0  0
 47 50  1  0  0  0  0
 47 70  1  0  0  0  0
 48 73  1  0  0  0  0
 49 69  1  0  0  0  0
 50 68  1  0  0  0  0
 52 58  1  0  0  0  0
 53 65  1  0  0  0  0
 54 66  1  0  0  0  0
 55 66  1  0  0  0  0
 56 66  1  0  0  0  0
 57 76  1  0  0  0  0
 59 61  1  0  0  0  0
 60 75  1  0  0  0  0
 61 62  1  0  0  0  0
 62 63  1  0  0  0  0
 63 83  1  0  0  0  0
 64 66  1  0  0  0  0
 64 74  1  0  0  0  0
 65 76  1  0  0  0  0
 67 68  1  0  0  0  0
M  CHG  1  76   1
M  ISO  4  38 100  63 101  75 100  83 101
M  END
> <Batch ID>
0035

> <Smiles>
CCc1cc(CCC[101CH2:1][101O:1]c2ccc3c(c2)CN(C(=O)C(NC(=O)C(C)NC)C(C)(C)C)C(C(=O)NC2CCCc4ccccc42)C3)c(C)cc1C[100NH:0][100C:0](=O)N1CCCC(n2nc(-c3ccc(Oc4ccc(F)cc4F)cc3)c(C(N)=O)c2N)C1

> <Shape>
0.228

> <Color>
0.060

> <Negative vol penalty>
0.000

$$$$
