
  -OEChem-04052316563D

 85 93  0     1  0  0  0  0  0999 V2000
  -27.1406  -37.8855   21.7261 C   0  0  0  0  0  0  0  0  0  0  0  0
  -27.7571  -36.7452   21.2211 C   0  0  0  0  0  0  0  0  0  0  0  0
  -22.8053  -10.5663   19.9842 C   0  0  0  0  0  0  0  0  0  0  0  0
  -23.9024   -9.6921   21.9512 C   0  0  0  0  0  0  0  0  0  0  0  0
  -26.1224  -37.7655   22.6710 C   0  0  0  0  0  0  0  0  0  0  0  0
  -27.3566  -35.4843   21.6615 C   0  0  0  0  0  0  0  0  0  0  0  0
  -26.6468  -28.7350   19.3683 C   0  0  0  0  0  0  0  0  0  0  0  0
  -21.9247   -9.4847   19.9945 C   0  0  0  0  0  0  0  0  0  0  0  0
  -23.0218   -8.6104   21.9616 C   0  0  0  0  0  0  0  0  0  0  0  0
  -27.0142  -27.4354   19.7148 C   0  0  0  0  0  0  0  0  0  0  0  0
  -19.8385   -8.0012   22.9189 C   0  0  0  0  0  0  0  0  0  0  0  0
  -19.2771   -7.6363   24.1424 C   0  0  0  0  0  0  0  0  0  0  0  0
  -25.1904  -27.3466   21.2912 C   0  0  0  0  0  0  0  0  0  0  0  0
  -28.7470  -22.0071   22.5677 C   0  0  0  0  0  0  0  0  0  0  0  0
  -27.8405  -21.1228   20.5103 C   0  0  0  0  0  0  0  0  0  0  0  0
  -20.2712   -5.4432   23.9446 C   0  0  0  0  0  0  0  0  0  0  0  0
  -23.7942  -10.6700   20.9625 C   0  0  0  0  0  0  0  0  0  0  0  0
  -24.5363  -13.0268   21.5971 C   0  0  0  0  0  0  0  0  0  0  0  0
  -25.7025  -36.5021   23.1161 C   0  0  0  0  0  0  0  0  0  0  0  0
  -25.5532  -29.3551   19.9896 C   0  0  0  0  0  0  0  0  0  0  0  0
  -26.3327  -35.3474   22.6143 C   0  0  0  0  0  0  0  0  0  0  0  0
  -24.8096  -28.6531   20.9490 C   0  0  0  0  0  0  0  0  0  0  0  0
  -28.3958  -20.9159   21.7730 C   0  0  0  0  0  0  0  0  0  0  0  0
  -28.5428  -23.3052   22.0998 C   0  0  0  0  0  0  0  0  0  0  0  0
  -27.9874  -23.5121   20.8371 C   0  0  0  0  0  0  0  0  0  0  0  0
  -22.0329   -8.5067   20.9832 C   0  0  0  0  0  0  0  0  0  0  0  0
  -26.2877  -26.7421   20.6784 C   0  0  0  0  0  0  0  0  0  0  0  0
  -20.6163   -7.0871   22.2081 C   0  0  0  0  0  0  0  0  0  0  0  0
  -19.4934   -6.3574   24.6553 C   0  0  0  0  0  0  0  0  0  0  0  0
  -20.8326   -5.8082   22.7209 C   0  0  0  0  0  0  0  0  0  0  0  0
  -27.6362  -22.4209   20.0423 C   0  0  0  0  0  0  0  0  0  0  0  0
  -24.7045  -11.7869   20.9520 C   0  0  0  0  0  0  0  0  0  0  0  0
  -25.6698  -13.7350   21.2807 C   0  0  0  0  0  0  0  0  0  0  0  0
  -23.4524  -13.4963   22.4098 C   0  0  0  0  0  0  0  0  0  0  0  0
  -25.1729  -31.9324   21.8107 C   0  0  0  0  0  0  0  0  0  0  0  0
  -22.0252  -31.2201   21.4838 C   0  0  0  0  0  0  0  0  0  0  0  0
  -19.6381  -28.8635   20.8556 C   0  0  0  0  0  0  0  0  0  0  0  0
  -31.2086  -14.0341   20.6661 C   0  0  0  0  0  0  0  0  0  0  0  0
  -24.6302  -36.4245   24.1738 C   0  0  0  0  0  0  0  0  0  0  0  0
  -25.1535  -30.7476   19.5854 C   0  0  0  0  0  0  0  0  0  0  0  0
  -23.6150  -29.2665   21.6309 C   0  0  0  0  0  0  0  0  0  0  0  0
  -24.0083  -35.0370   24.3100 C   0  0  0  0  0  0  0  0  0  0  0  0
  -29.3263  -12.7673   17.9222 C   0  0  0  0  0  0  0  0  0  0  0  0
  -25.0944  -33.9666   24.3480 C   0  0  0  0  0  0  0  0  0  0  0  0
  -27.9449  -12.4959   18.5205 C   0  0  0  0  0  0  0  0  0  0  0  0
  -30.4429  -12.4564   18.9165 C   0  0  0  0  0  0  0  0  0  0  0  0
  -28.9316  -12.8561   20.8217 C   0  0  0  0  0  0  0  0  0  0  0  0
  -25.9092  -33.9611   23.0489 C   0  0  1  0  0  0  0  0  0  0  0  0
  -24.3355  -31.4680   20.6528 C   0  0  1  0  0  0  0  0  0  0  0  0
  -27.7709  -13.2080   19.8754 C   0  0  2  0  0  0  0  0  0  0  0  0
  -28.9270  -24.4549   22.9730 C   0  0  0  0  0  0  0  0  0  0  0  0
  -17.1507  -28.5734   20.6945 C   0  0  0  0  0  0  0  0  0  0  0  0
  -21.8231  -31.2836   24.5276 C   0  0  0  0  0  0  0  0  0  0  0  0
  -19.6343  -30.0832   24.3378 C   0  0  0  0  0  0  0  0  0  0  0  0
  -19.9028  -32.3502   23.3321 C   0  0  0  0  0  0  0  0  0  0  0  0
  -19.8020  -28.0329   18.0197 C   0  0  0  0  0  0  0  0  0  0  0  0
  -28.6155  -19.5283   22.2736 C   0  0  0  0  0  0  0  0  0  0  0  0
  -27.7738  -24.9147   20.3490 C   0  0  0  0  0  0  0  0  0  1  0  0
  -30.0027  -18.9868   21.8962 C   0  0  0  0  0  0  0  0  0  0  0  0
  -30.2021  -17.5490   22.3804 C   0  0  0  0  0  0  0  0  0  0  0  0
  -31.6023  -17.0352   22.0325 C   0  0  0  0  0  0  0  0  0  0  0  0
  -31.8295  -15.5982   22.4902 C   0  0  0  0  0  0  0  0  0  0  0  0
  -21.0369  -30.3696   22.2446 C   0  0  1  0  0  0  0  0  0  0  0  0
  -18.4327  -28.8717   19.9328 C   0  0  2  0  0  0  0  0  0  0  0  0
  -20.6229  -31.0105   23.5993 C   0  0  0  0  0  0  0  0  0  0  0  0
  -25.8542  -11.7088   20.2766 N   0  0  0  0  0  0  0  0  0  0  0  0
  -26.4187  -12.9086   20.4956 N   0  0  0  0  0  0  0  0  0  0  0  0
  -23.2677  -30.6327   21.2060 N   0  0  0  0  0  0  0  0  0  0  0  0
  -30.2192  -13.1638   20.1796 N   0  0  0  0  0  0  0  0  0  0  0  0
  -26.0889  -14.9778   21.6002 N   0  0  0  0  0  0  0  0  0  0  0  0
  -22.3659  -12.6399   22.6342 N   0  0  0  0  0  0  0  0  0  0  0  0
  -25.1715  -33.3022   21.9924 N   0  0  0  0  0  0  0  0  0  0  0  0
  -19.9234  -30.1247   21.3343 N   0  0  0  0  0  0  0  0  0  0  0  0
  -30.9138  -14.6691   21.8664 N   0  0  0  0  0  0  0  0  0  0  0  0
  -18.5927  -27.8473   18.8624 N   0  3  0  0  0  0  0  0  0  0  0  0
  -23.4400  -14.6474   22.9082 O   0  0  0  0  0  0  0  0  0  0  0  0
  -25.7746  -31.1087   22.4899 O   0  0  0  0  0  0  0  0  0  0  0  0
  -21.7040  -32.3610   21.1421 O   0  0  0  0  0  0  0  0  0  0  0  0
  -20.2617  -27.8399   21.1276 O   0  0  0  0  0  0  0  0  0  0  0  0
  -32.2734  -14.2346   20.0720 O   0  0  0  0  0  0  0  0  0  0  0  0
  -21.1737   -7.4512   20.9938 O   0  0  0  0  0  0  0  0  0  0  0  0
  -26.6446  -25.4738   21.0189 O   0  0  0  0  0  0  0  0  0  1  0  0
  -18.9554   -6.0076   25.8311 F   0  0  0  0  0  0  0  0  0  0  0  0
  -21.5799   -4.9260   22.0432 F   0  0  0  0  0  0  0  0  0  0  0  0
  -26.9480  -22.6352   18.4733 Cl  0  0  0  0  0  0  0  0  0  0  0  0
  1  2  1  0  0  0  0
  1  5  2  0  0  0  0
  2  6  2  0  0  0  0
  3  8  2  0  0  0  0
  3 17  1  0  0  0  0
  4  9  1  0  0  0  0
  4 17  2  0  0  0  0
  5 19  1  0  0  0  0
  6 21  1  0  0  0  0
  7 10  2  0  0  0  0
  7 20  1  0  0  0  0
  8 26  1  0  0  0  0
  9 26  2  0  0  0  0
 10 27  1  0  0  0  0
 11 12  2  0  0  0  0
 11 28  1  0  0  0  0
 12 29  1  0  0  0  0
 13 22  1  0  0  0  0
 13 27  2  0  0  0  0
 14 23  1  0  0  0  0
 14 24  2  0  0  0  0
 15 23  2  0  0  0  0
 15 31  1  0  0  0  0
 16 29  2  0  0  0  0
 16 30  1  0  0  0  0
 17 32  1  0  0  0  0
 18 32  1  0  0  0  0
 18 33  2  0  0  0  0
 18 34  1  0  0  0  0
 19 21  2  0  0  0  0
 19 39  1  0  0  0  0
 20 22  2  0  0  0  0
 20 40  1  0  0  0  0
 21 48  1  0  0  0  0
 22 41  1  0  0  0  0
 23 57  1  0  0  0  0
 24 25  1  0  0  0  0
 24 51  1  0  0  0  0
 25 31  2  0  0  0  0
 25 58  1  0  0  0  0
 26 81  1  0  0  0  0
 27 82  1  0  0  0  0
 28 30  2  0  0  0  0
 28 81  1  0  0  0  0
 29 83  1  0  0  0  0
 30 84  1  0  0  0  0
 31 85  1  0  0  0  0
 32 66  2  0  0  0  0
 33 67  1  0  0  0  0
 33 70  1  0  0  0  0
 34 71  1  0  0  0  0
 34 76  2  0  0  0  0
 35 49  1  0  0  0  0
 35 72  1  0  0  0  0
 35 77  2  0  0  0  0
 36 63  1  0  0  0  0
 36 68  1  0  0  0  0
 36 78  2  0  0  0  0
 37 64  1  0  0  0  0
 37 73  1  0  0  0  0
 37 79  2  0  0  0  0
 38 69  1  0  0  0  0
 38 74  1  0  0  0  0
 38 80  2  0  0  0  0
 39 42  1  0  0  0  0
 40 49  1  0  0  0  0
 41 68  1  0  0  0  0
 42 44  1  0  0  0  0
 43 45  1  0  0  0  0
 43 46  1  0  0  0  0
 44 48  1  0  0  0  0
 45 50  1  0  0  0  0
 46 69  1  0  0  0  0
 47 50  1  0  0  0  0
 47 69  1  0  0  0  0
 48 72  1  0  0  0  0
 49 68  1  0  0  0  0
 50 67  1  0  0  0  0
 52 64  1  0  0  0  0
 53 65  1  0  0  0  0
 54 65  1  0  0  0  0
 55 65  1  0  0  0  0
 56 75  1  0  0  0  0
 57 59  1  0  0  0  0
 58 82  1  0  0  0  0
 59 60  1  0  0  0  0
 60 61  1  0  0  0  0
 61 62  1  0  0  0  0
 62 74  1  0  0  0  0
 63 65  1  0  0  0  0
 63 73  1  0  0  0  0
 64 75  1  0  0  0  0
 66 67  1  0  0  0  0
M  CHG  1  75   1
M  ISO  4  38 100  58 101  74 100  82 101
M  END
> <Batch ID>
0036

> <Smiles>
CNC(C)C(=O)NC(C(=O)N1Cc2cc([101O:1][101CH2:1]c3c(C)cc(CCCCC[100NH:0][100C:0](=O)N4CCCC(n5nc(-c6ccc(Oc7ccc(F)cc7F)cc6)c(C(N)=O)c5N)C4)cc3Cl)ccc2CC1C(=O)NC1CCCc2ccccc21)C(C)(C)C

> <Shape>
0.347

> <Color>
0.154

> <Negative vol penalty>
0.000

$$$$

  -OEChem-04052316563D

 87 95  0     1  0  0  0  0  0999 V2000
  -21.8701  -31.4831   23.0436 C   0  0  0  0  0  0  0  0  0  0  0  0
  -21.8658  -30.2049   23.5927 C   0  0  0  0  0  0  0  0  0  0  0  0
  -23.8223   -9.7961   21.8048 C   0  0  0  0  0  0  0  0  0  0  0  0
  -24.4116  -11.0331   23.7946 C   0  0  0  0  0  0  0  0  0  0  0  0
  -22.4230  -31.6966   21.7816 C   0  0  0  0  0  0  0  0  0  0  0  0
  -22.4134  -29.1391   22.8795 C   0  0  0  0  0  0  0  0  0  0  0  0
  -25.4007  -24.3151   25.1842 C   0  0  0  0  0  0  0  0  0  0  0  0
  -23.3172   -8.7642   22.5958 C   0  0  0  0  0  0  0  0  0  0  0  0
  -23.9065  -10.0012   24.5857 C   0  0  0  0  0  0  0  0  0  0  0  0
  -24.9961  -23.0132   25.4760 C   0  0  0  0  0  0  0  0  0  0  0  0
  -20.5073   -8.1297   24.3663 C   0  0  0  0  0  0  0  0  0  0  0  0
  -19.2729   -7.5857   24.0116 C   0  0  0  0  0  0  0  0  0  0  0  0
  -25.8340  -22.2798   23.3360 C   0  0  0  0  0  0  0  0  0  0  0  0
  -27.5188  -18.9303   26.2246 C   0  0  0  0  0  0  0  0  0  0  0  0
  -27.6123  -17.0445   24.1708 C   0  0  0  0  0  0  0  0  0  0  0  0
  -20.3069   -5.4198   23.7348 C   0  0  0  0  0  0  0  0  0  0  0  0
  -24.3696  -10.9305   22.4042 C   0  0  0  0  0  0  0  0  0  0  0  0
  -24.1908  -13.1156   21.0999 C   0  0  0  0  0  0  0  0  0  0  0  0
  -22.9864  -30.6346   21.0567 C   0  0  0  0  0  0  0  0  0  0  0  0
  -26.0161  -24.6117   23.9595 C   0  0  0  0  0  0  0  0  0  0  0  0
  -22.9731  -29.3383   21.6060 C   0  0  0  0  0  0  0  0  0  0  0  0
  -26.2477  -23.5857   23.0322 C   0  0  0  0  0  0  0  0  0  0  0  0
  -26.3367  -18.3827   25.7262 C   0  0  0  0  0  0  0  0  0  0  0  0
  -28.7477  -18.5351   25.6960 C   0  0  0  0  0  0  0  0  0  0  0  0
  -26.3834  -17.4398   24.6994 C   0  0  0  0  0  0  0  0  0  0  0  0
  -23.3593   -8.8668   23.9862 C   0  0  0  0  0  0  0  0  0  0  0  0
  -25.2101  -21.9958   24.5506 C   0  0  0  0  0  0  0  0  0  0  0  0
  -21.6416   -7.3188   24.4053 C   0  0  0  0  0  0  0  0  0  0  0  0
  -28.7944  -17.5922   24.6692 C   0  0  0  0  0  0  0  0  0  0  0  0
  -19.1727   -6.2308   23.6958 C   0  0  0  0  0  0  0  0  0  0  0  0
  -21.5414   -5.9638   24.0895 C   0  0  0  0  0  0  0  0  0  0  0  0
  -24.8920  -11.9965   21.5876 C   0  0  0  0  0  0  0  0  0  0  0  0
  -25.1266  -13.8221   20.3846 C   0  0  0  0  0  0  0  0  0  0  0  0
  -22.8165  -13.4835   21.2776 C   0  0  0  0  0  0  0  0  0  0  0  0
  -25.3035  -26.4735   21.4837 C   0  0  0  0  0  0  0  0  0  0  0  0
  -28.2565  -25.5931   20.4702 C   0  0  0  0  0  0  0  0  0  0  0  0
  -30.7963  -23.3161   20.5756 C   0  0  0  0  0  0  0  0  0  0  0  0
  -31.0994  -14.1284   20.6716 C   0  0  0  0  0  0  0  0  0  0  0  0
  -23.5299  -30.9057   19.6762 C   0  0  0  0  0  0  0  0  0  0  0  0
  -26.4707  -26.0161   23.6711 C   0  0  0  0  0  0  0  0  0  0  0  0
  -26.9226  -23.8480   21.7115 C   0  0  0  0  0  0  0  0  0  0  0  0
  -24.4268  -29.7906   19.1449 C   0  0  0  0  0  0  0  0  0  0  0  0
  -29.1358  -13.2192   17.8442 C   0  0  0  0  0  0  0  0  0  0  0  0
  -23.7799  -28.4288   19.3772 C   0  0  0  0  0  0  0  0  0  0  0  0
  -27.7623  -12.9037   18.4390 C   0  0  0  0  0  0  0  0  0  0  0  0
  -30.2668  -12.7767   18.7700 C   0  0  0  0  0  0  0  0  0  0  0  0
  -28.8038  -12.9788   20.7429 C   0  0  0  0  0  0  0  0  0  0  0  0
  -23.5799  -28.1611   20.8738 C   0  0  1  0  0  0  0  0  0  0  0  0
  -26.6237  -26.3003   22.1800 C   0  0  1  0  0  0  0  0  0  0  0  0
  -27.6306  -13.4572   19.8706 C   0  0  2  0  0  0  0  0  0  0  0  0
  -30.2437  -20.5469   25.7271 C   0  0  0  0  0  0  0  0  0  0  0  0
  -24.5494  -15.7708   25.0700 C   0  0  0  0  0  0  0  0  0  0  0  0
  -33.0654  -22.8499   19.6104 C   0  0  0  0  0  0  0  0  0  0  0  0
  -26.9598  -24.7192   17.8502 C   0  0  0  0  0  0  0  0  0  0  0  0
  -29.0405  -23.4266   17.3324 C   0  0  0  0  0  0  0  0  0  0  0  0
  -29.1455  -25.9058   17.5875 C   0  0  0  0  0  0  0  0  0  0  0  0
  -32.0753  -23.3959   23.2433 C   0  0  0  0  0  0  0  0  0  0  0  0
  -25.0185  -18.8267   26.3125 C   0  0  0  0  0  0  0  0  0  0  0  0
  -30.0032  -19.1309   26.2421 C   0  0  0  0  0  0  0  0  0  0  0  0
  -25.1314  -16.8394   24.1495 C   0  0  0  0  0  0  0  0  0  0  0  0
  -31.5787  -16.9416   22.3647 C   0  0  0  0  0  0  0  0  0  0  0  0
  -31.7886  -15.4604   22.6490 C   0  0  0  0  0  0  0  0  0  0  0  0
  -24.8146  -20.3340   26.2052 C   0  0  0  0  0  0  0  0  0  1  0  0
  -30.1860  -17.4272   22.7477 C   0  0  0  0  0  0  0  0  0  0  0  0
  -28.8072  -24.4623   19.6354 C   0  0  1  0  0  0  0  0  0  0  0  0
  -32.2940  -23.4853   20.7567 C   0  0  2  0  0  0  0  0  0  0  0  0
  -28.4738  -24.6236   18.1253 C   0  0  0  0  0  0  0  0  0  0  0  0
  -26.1742  -11.9883   21.2136 N   0  0  0  0  0  0  0  0  0  0  0  0
  -26.2861  -13.1108   20.4832 N   0  0  0  0  0  0  0  0  0  0  0  0
  -27.3431  -25.2386   21.4732 N   0  0  0  0  0  0  0  0  0  0  0  0
  -30.0834  -13.3369   20.1110 N   0  0  0  0  0  0  0  0  0  0  0  0
  -25.0624  -14.9761   19.6870 N   0  0  0  0  0  0  0  0  0  0  0  0
  -21.9937  -12.6449   22.0417 N   0  0  0  0  0  0  0  0  0  0  0  0
  -24.8307  -27.7719   21.4892 N   0  0  0  0  0  0  0  0  0  0  0  0
  -30.2349  -24.3964   19.9283 N   0  0  0  0  0  0  0  0  0  0  0  0
  -30.8423  -14.6252   21.9435 N   0  0  0  0  0  0  0  0  0  0  0  0
  -32.7367  -22.8502   22.0301 N   0  3  0  0  0  0  0  0  0  0  0  0
  -22.3285  -14.5167   20.7600 O   0  0  0  0  0  0  0  0  0  0  0  0
  -24.7552  -25.5014   20.9777 O   0  0  0  0  0  0  0  0  0  0  0  0
  -28.6286  -26.7475   20.2455 O   0  0  0  0  0  0  0  0  0  0  0  0
  -30.1862  -22.3230   20.9657 O   0  0  0  0  0  0  0  0  0  0  0  0
  -32.1552  -14.3784   20.0801 O   0  0  0  0  0  0  0  0  0  0  0  0
  -22.8663   -7.8602   24.7584 O   0  0  0  0  0  0  0  0  0  0  0  0
  -24.8157  -20.7243   24.8326 O   0  0  0  0  0  0  0  0  0  1  0  0
  -29.9862  -17.1962   24.1407 O   0  0  0  0  0  0  0  0  0  0  0  0
  -17.9869   -5.7082   23.3567 F   0  0  0  0  0  0  0  0  0  0  0  0
  -22.6273   -5.1795   24.1263 F   0  0  0  0  0  0  0  0  0  0  0  0
  1  2  1  0  0  0  0
  1  5  2  0  0  0  0
  2  6  2  0  0  0  0
  3  8  2  0  0  0  0
  3 17  1  0  0  0  0
  4  9  1  0  0  0  0
  4 17  2  0  0  0  0
  5 19  1  0  0  0  0
  6 21  1  0  0  0  0
  7 10  2  0  0  0  0
  7 20  1  0  0  0  0
  8 26  1  0  0  0  0
  9 26  2  0  0  0  0
 10 27  1  0  0  0  0
 11 12  2  0  0  0  0
 11 28  1  0  0  0  0
 12 30  1  0  0  0  0
 13 22  1  0  0  0  0
 13 27  2  0  0  0  0
 14 23  1  0  0  0  0
 14 24  2  0  0  0  0
 15 25  1  0  0  0  0
 15 29  2  0  0  0  0
 16 30  2  0  0  0  0
 16 31  1  0  0  0  0
 17 32  1  0  0  0  0
 18 32  1  0  0  0  0
 18 33  2  0  0  0  0
 18 34  1  0  0  0  0
 19 21  2  0  0  0  0
 19 39  1  0  0  0  0
 20 22  2  0  0  0  0
 20 40  1  0  0  0  0
 21 48  1  0  0  0  0
 22 41  1  0  0  0  0
 23 25  2  0  0  0  0
 23 58  1  0  0  0  0
 24 29  1  0  0  0  0
 24 59  1  0  0  0  0
 25 60  1  0  0  0  0
 26 83  1  0  0  0  0
 27 84  1  0  0  0  0
 28 31  2  0  0  0  0
 28 83  1  0  0  0  0
 29 85  1  0  0  0  0
 30 86  1  0  0  0  0
 31 87  1  0  0  0  0
 32 68  2  0  0  0  0
 33 69  1  0  0  0  0
 33 72  1  0  0  0  0
 34 73  1  0  0  0  0
 34 78  2  0  0  0  0
 35 49  1  0  0  0  0
 35 74  1  0  0  0  0
 35 79  2  0  0  0  0
 36 65  1  0  0  0  0
 36 70  1  0  0  0  0
 36 80  2  0  0  0  0
 37 66  1  0  0  0  0
 37 75  1  0  0  0  0
 37 81  2  0  0  0  0
 38 71  1  0  0  0  0
 38 76  1  0  0  0  0
 38 82  2  0  0  0  0
 39 42  1  0  0  0  0
 40 49  1  0  0  0  0
 41 70  1  0  0  0  0
 42 44  1  0  0  0  0
 43 45  1  0  0  0  0
 43 46  1  0  0  0  0
 44 48  1  0  0  0  0
 45 50  1  0  0  0  0
 46 71  1  0  0  0  0
 47 50  1  0  0  0  0
 47 71  1  0  0  0  0
 48 74  1  0  0  0  0
 49 70  1  0  0  0  0
 50 69  1  0  0  0  0
 51 59  1  0  0  0  0
 52 60  1  0  0  0  0
 53 66  1  0  0  0  0
 54 67  1  0  0  0  0
 55 67  1  0  0  0  0
 56 67  1  0  0  0  0
 57 77  1  0  0  0  0
 58 63  1  0  0  0  0
 61 62  1  0  0  0  0
 61 64  1  0  0  0  0
 62 76  1  0  0  0  0
 63 84  1  0  0  0  0
 64 85  1  0  0  0  0
 65 67  1  0  0  0  0
 65 75  1  0  0  0  0
 66 77  1  0  0  0  0
 68 69  1  0  0  0  0
M  CHG  1  77   1
M  ISO  4  38 100  63 101  76 100  84 101
M  END
> <Batch ID>
0036

> <Smiles>
CCc1cc(OCCC[100NH:0][100C:0](=O)N2CCCC(n3nc(-c4ccc(Oc5ccc(F)cc5F)cc4)c(C(N)=O)c3N)C2)c(CC)cc1C[101CH2:1][101O:1]c1ccc2c(c1)CN(C(=O)C(NC(=O)C(C)NC)C(C)(C)C)C(C(=O)NC1CCCc3ccccc31)C2

> <Shape>
0.234

> <Color>
0.141

> <Negative vol penalty>
0.000

$$$$

  -OEChem-04052316563D

 86 94  0     1  0  0  0  0  0999 V2000
  -21.5634  -12.2350   20.0444 C   0  0  0  0  0  0  0  0  0  0  0  0
  -21.6129  -13.4943   20.6335 C   0  0  0  0  0  0  0  0  0  0  0  0
  -24.7946  -29.2031   22.1150 C   0  0  0  0  0  0  0  0  0  0  0  0
  -23.9596  -30.0984   20.0322 C   0  0  0  0  0  0  0  0  0  0  0  0
  -22.7365  -11.5024   19.8684 C   0  0  0  0  0  0  0  0  0  0  0  0
  -22.8356  -14.0214   21.0479 C   0  0  0  0  0  0  0  0  0  0  0  0
  -23.4105  -18.8736   19.7176 C   0  0  0  0  0  0  0  0  0  0  0  0
  -19.9619  -24.7612   24.5517 C   0  0  0  0  0  0  0  0  0  0  0  0
  -19.0531  -23.9427   23.8812 C   0  0  0  0  0  0  0  0  0  0  0  0
  -25.4501  -30.4076   22.3700 C   0  0  0  0  0  0  0  0  0  0  0  0
  -24.6151  -31.3029   20.2871 C   0  0  0  0  0  0  0  0  0  0  0  0
  -22.7466  -19.8278   20.4873 C   0  0  0  0  0  0  0  0  0  0  0  0
  -27.0473  -33.3712   23.7415 C   0  0  0  0  0  0  0  0  0  0  0  0
  -26.9460  -33.9055   25.0259 C   0  0  0  0  0  0  0  0  0  0  0  0
  -24.7976  -20.2932   21.6688 C   0  0  0  0  0  0  0  0  0  0  0  0
  -21.7945  -23.5645   23.5289 C   0  0  0  0  0  0  0  0  0  0  0  0
  -24.5449  -34.0260   24.7863 C   0  0  0  0  0  0  0  0  0  0  0  0
  -24.0493  -29.0485   20.9461 C   0  0  0  0  0  0  0  0  0  0  0  0
  -22.0615  -27.4535   21.0564 C   0  0  0  0  0  0  0  0  0  0  0  0
  -23.9754  -12.0247   20.2721 C   0  0  0  0  0  0  0  0  0  0  0  0
  -24.7728  -18.6139   19.9255 C   0  0  0  0  0  0  0  0  0  0  0  0
  -24.0262  -13.2945   20.8784 C   0  0  0  0  0  0  0  0  0  0  0  0
  -25.4771  -19.3371   20.8987 C   0  0  0  0  0  0  0  0  0  0  0  0
  -21.3326  -24.5722   24.3755 C   0  0  0  0  0  0  0  0  0  0  0  0
  -19.5150  -22.9349   23.0346 C   0  0  0  0  0  0  0  0  0  0  0  0
  -20.8857  -22.7458   22.8584 C   0  0  0  0  0  0  0  0  0  0  0  0
  -25.3604  -31.4575   21.4561 C   0  0  0  0  0  0  0  0  0  0  0  0
  -23.4394  -20.5358   21.4650 C   0  0  0  0  0  0  0  0  0  0  0  0
  -25.8975  -33.1644   22.9794 C   0  0  0  0  0  0  0  0  0  0  0  0
  -25.6948  -34.2328   25.5484 C   0  0  0  0  0  0  0  0  0  0  0  0
  -24.6463  -33.4917   23.5018 C   0  0  0  0  0  0  0  0  0  0  0  0
  -23.3724  -27.8043   20.6819 C   0  0  0  0  0  0  0  0  0  0  0  0
  -21.8960  -26.1783   20.5737 C   0  0  0  0  0  0  0  0  0  0  0  0
  -21.0810  -28.2125   21.7763 C   0  0  0  0  0  0  0  0  0  0  0  0
  -26.4611  -16.0731   20.8186 C   0  0  0  0  0  0  0  0  0  0  0  0
  -28.9835  -18.0021   20.1562 C   0  0  0  0  0  0  0  0  0  0  0  0
  -30.1960  -21.1749   19.8254 C   0  0  0  0  0  0  0  0  0  0  0  0
  -22.4750  -22.4010   16.5065 C   0  0  0  0  0  0  0  0  0  0  0  0
  -25.2106  -11.1758   20.1042 C   0  0  0  0  0  0  0  0  0  0  0  0
  -25.4808  -17.6004   19.0687 C   0  0  0  0  0  0  0  0  0  0  0  0
  -26.9452  -19.1102   21.1474 C   0  0  0  0  0  0  0  0  0  0  0  0
  -26.5124  -11.9631   20.2296 C   0  0  0  0  0  0  0  0  0  0  0  0
  -25.2597  -22.9188   18.6638 C   0  0  0  0  0  0  0  0  0  0  0  0
  -26.4659  -12.8813   21.4467 C   0  0  0  0  0  0  0  0  0  0  0  0
  -24.9116  -24.2098   19.4069 C   0  0  0  0  0  0  0  0  0  0  0  0
  -24.7833  -22.9566   17.2134 C   0  0  0  0  0  0  0  0  0  0  0  0
  -23.0056  -24.5659   17.7824 C   0  0  0  0  0  0  0  0  0  0  0  0
  -25.3365  -13.9106   21.3184 C   0  0  1  0  0  0  0  0  0  0  0  0
  -26.7489  -17.0523   19.7159 C   0  0  1  0  0  0  0  0  0  0  0  0
  -23.4165  -24.5529   19.2647 C   0  0  2  0  0  0  0  0  0  0  0  0
  -22.3041  -25.4472   25.0929 C   0  0  0  0  0  0  0  0  0  0  0  0
  -31.8358  -22.9966   19.2868 C   0  0  0  0  0  0  0  0  0  0  0  0
  -30.0200  -17.4007   22.9623 C   0  0  0  0  0  0  0  0  0  0  0  0
  -31.5528  -19.3681   22.7422 C   0  0  0  0  0  0  0  0  0  0  0  0
  -31.7791  -17.4325   21.1850 C   0  0  0  0  0  0  0  0  0  0  0  0
  -29.3381  -21.2696   16.9945 C   0  0  0  0  0  0  0  0  0  0  0  0
  -18.5230  -22.0703   22.3283 C   0  0  0  0  0  0  0  0  0  0  0  0
  -21.4058  -21.6682   21.9531 C   0  0  0  0  0  0  0  0  0  1  0  0
  -18.7875  -21.7610   18.0380 C   0  0  0  0  0  0  0  0  0  0  0  0
  -18.7538  -22.1406   16.5546 C   0  0  0  0  0  0  0  0  0  0  0  0
  -17.4100  -21.9224   18.6835 C   0  0  0  0  0  0  0  0  0  0  0  0
  -20.1116  -21.9772   15.8787 C   0  0  0  0  0  0  0  0  0  0  0  0
  -17.4412  -21.5101   20.1477 C   0  0  0  0  0  0  0  0  0  0  0  0
  -29.8059  -18.9944   20.9423 C   0  0  1  0  0  0  0  0  0  0  0  0
  -31.0360  -21.8242   18.7404 C   0  0  2  0  0  0  0  0  0  0  0  0
  -30.7613  -18.3021   21.9548 C   0  0  0  0  0  0  0  0  0  0  0  0
  -23.9955  -26.8305   20.0129 N   0  0  0  0  0  0  0  0  0  0  0  0
  -23.0722  -25.8553   19.9634 N   0  0  0  0  0  0  0  0  0  0  0  0
  -27.5914  -18.1044   20.2882 N   0  0  0  0  0  0  0  0  0  0  0  0
  -23.3573  -23.2856   17.1484 N   0  0  0  0  0  0  0  0  0  0  0  0
  -20.8607  -25.3131   20.6160 N   0  0  0  0  0  0  0  0  0  0  0  0
  -21.4157  -29.5062   22.1990 N   0  0  0  0  0  0  0  0  0  0  0  0
  -25.7232  -14.9756   20.4180 N   0  0  0  0  0  0  0  0  0  0  0  0
  -30.4831  -19.8329   19.9591 N   0  0  0  0  0  0  0  0  0  0  0  0
  -21.1398  -22.7855   16.4954 N   0  0  0  0  0  0  0  0  0  0  0  0
  -30.1644  -22.3225   17.6390 N   0  3  0  0  0  0  0  0  0  0  0  0
  -18.3817  -22.3958   20.8830 N   0  3  0  0  0  0  0  0  0  0  0  0
  -19.9475  -27.7509   22.0512 O   0  0  0  0  0  0  0  0  0  0  0  0
  -26.8789  -16.2959   21.9489 O   0  0  0  0  0  0  0  0  0  0  0  0
  -29.5550  -17.1715   19.4455 O   0  0  0  0  0  0  0  0  0  0  0  0
  -29.3706  -21.7969   20.4905 O   0  0  0  0  0  0  0  0  0  0  0  0
  -22.8486  -21.3439   15.9869 O   0  0  0  0  0  0  0  0  0  0  0  0
  -25.9997  -32.6331   21.7046 O   0  0  0  0  0  0  0  0  0  0  0  0
  -22.7935  -21.4672   22.2181 O   0  0  0  0  0  0  0  0  0  1  0  0
  -25.5974  -34.7445   26.7825 F   0  0  0  0  0  0  0  0  0  0  0  0
  -23.5380  -33.2941   22.7749 F   0  0  0  0  0  0  0  0  0  0  0  0
  1  2  1  0  0  0  0
  1  5  2  0  0  0  0
  2  6  2  0  0  0  0
  3 10  2  0  0  0  0
  3 18  1  0  0  0  0
  4 11  1  0  0  0  0
  4 18  2  0  0  0  0
  5 20  1  0  0  0  0
  6 22  1  0  0  0  0
  7 12  2  0  0  0  0
  7 21  1  0  0  0  0
  8  9  2  0  0  0  0
  8 24  1  0  0  0  0
  9 25  1  0  0  0  0
 10 27  1  0  0  0  0
 11 27  2  0  0  0  0
 12 28  1  0  0  0  0
 13 14  2  0  0  0  0
 13 29  1  0  0  0  0
 14 30  1  0  0  0  0
 15 23  1  0  0  0  0
 15 28  2  0  0  0  0
 16 24  2  0  0  0  0
 16 26  1  0  0  0  0
 17 30  2  0  0  0  0
 17 31  1  0  0  0  0
 18 32  1  0  0  0  0
 19 32  1  0  0  0  0
 19 33  2  0  0  0  0
 19 34  1  0  0  0  0
 20 22  2  0  0  0  0
 20 39  1  0  0  0  0
 21 23  2  0  0  0  0
 21 40  1  0  0  0  0
 22 48  1  0  0  0  0
 23 41  1  0  0  0  0
 24 51  1  0  0  0  0
 25 26  2  0  0  0  0
 25 57  1  0  0  0  0
 26 58  1  0  0  0  0
 27 83  1  0  0  0  0
 28 84  1  0  0  0  0
 29 31  2  0  0  0  0
 29 83  1  0  0  0  0
 30 85  1  0  0  0  0
 31 86  1  0  0  0  0
 32 67  2  0  0  0  0
 33 68  1  0  0  0  0
 33 71  1  0  0  0  0
 34 72  1  0  0  0  0
 34 78  2  0  0  0  0
 35 49  1  0  0  0  0
 35 73  1  0  0  0  0
 35 79  2  0  0  0  0
 36 64  1  0  0  0  0
 36 69  1  0  0  0  0
 36 80  2  0  0  0  0
 37 65  1  0  0  0  0
 37 74  1  0  0  0  0
 37 81  2  0  0  0  0
 38 70  1  0  0  0  0
 38 75  1  0  0  0  0
 38 82  2  0  0  0  0
 39 42  1  0  0  0  0
 40 49  1  0  0  0  0
 41 69  1  0  0  0  0
 42 44  1  0  0  0  0
 43 45  1  0  0  0  0
 43 46  1  0  0  0  0
 44 48  1  0  0  0  0
 45 50  1  0  0  0  0
 46 70  1  0  0  0  0
 47 50  1  0  0  0  0
 47 70  1  0  0  0  0
 48 73  1  0  0  0  0
 49 69  1  0  0  0  0
 50 68  1  0  0  0  0
 52 65  1  0  0  0  0
 53 66  1  0  0  0  0
 54 66  1  0  0  0  0
 55 66  1  0  0  0  0
 56 76  1  0  0  0  0
 57 77  1  0  0  0  0
 58 84  1  0  0  0  0
 59 60  1  0  0  0  0
 59 61  1  0  0  0  0
 60 62  1  0  0  0  0
 61 63  1  0  0  0  0
 62 75  1  0  0  0  0
 63 77  1  0  0  0  0
 64 66  1  0  0  0  0
 64 74  1  0  0  0  0
 65 76  1  0  0  0  0
 67 68  1  0  0  0  0
M  CHG  2  76   1  77   1
M  ISO  4  38 100  58 101  75 100  84 101
M  END
> <Batch ID>
0036

> <Smiles>
CNC(C)C(=O)NC(C(=O)N1Cc2cc([101O:1][101CH2:1]c3cc(C)ccc3CNCCCCC[100NH:0][100C:0](=O)N3CCCC(n4nc(-c5ccc(Oc6ccc(F)cc6F)cc5)c(C(N)=O)c4N)C3)ccc2CC1C(=O)NC1CCCc2ccccc21)C(C)(C)C

> <Shape>
0.205

> <Color>
0.081

> <Negative vol penalty>
0.000

$$$$

  -OEChem-04052316563D

 85 93  0     1  0  0  0  0  0999 V2000
  -18.5588  -26.5078   22.2403 C   0  0  0  0  0  0  0  0  0  0  0  0
  -19.8429  -26.5467   21.7064 C   0  0  0  0  0  0  0  0  0  0  0  0
  -26.8723  -13.5441   21.1247 C   0  0  0  0  0  0  0  0  0  0  0  0
  -27.1812  -12.9775   18.7965 C   0  0  0  0  0  0  0  0  0  0  0  0
  -18.0644  -27.6048   22.9446 C   0  0  0  0  0  0  0  0  0  0  0  0
  -20.6329  -27.6832   21.8755 C   0  0  0  0  0  0  0  0  0  0  0  0
  -25.3897  -26.5626   23.2030 C   0  0  0  0  0  0  0  0  0  0  0  0
  -26.2210  -12.3286   21.3342 C   0  0  0  0  0  0  0  0  0  0  0  0
  -26.5300  -11.7619   19.0060 C   0  0  0  0  0  0  0  0  0  0  0  0
  -26.2465  -26.1261   22.1934 C   0  0  0  0  0  0  0  0  0  0  0  0
  -23.1543  -11.0188   20.7826 C   0  0  0  0  0  0  0  0  0  0  0  0
  -21.9754  -11.0360   21.5278 C   0  0  0  0  0  0  0  0  0  0  0  0
  -27.1988  -28.3380   22.0536 C   0  0  0  0  0  0  0  0  0  0  0  0
  -30.0583  -24.2297   19.4737 C   0  0  0  0  0  0  0  0  0  0  0  0
  -28.6896  -25.4056   17.8673 C   0  0  0  0  0  0  0  0  0  0  0  0
  -22.9772   -9.5487   23.1469 C   0  0  0  0  0  0  0  0  0  0  0  0
  -27.3523  -13.8686   19.8558 C   0  0  0  0  0  0  0  0  0  0  0  0
  -29.4033  -15.3824   19.7587 C   0  0  0  0  0  0  0  0  0  0  0  0
  -18.8524  -28.7516   23.1307 C   0  0  0  0  0  0  0  0  0  0  0  0
  -25.4236  -27.8951   23.6386 C   0  0  0  0  0  0  0  0  0  0  0  0
  -20.1481  -28.7972   22.5818 C   0  0  0  0  0  0  0  0  0  0  0  0
  -26.3433  -28.7883   23.0706 C   0  0  0  0  0  0  0  0  0  0  0  0
  -28.9017  -24.9465   19.1672 C   0  0  0  0  0  0  0  0  0  0  0  0
  -31.0030  -23.9720   18.4803 C   0  0  0  0  0  0  0  0  0  0  0  0
  -29.6343  -25.1479   16.8738 C   0  0  0  0  0  0  0  0  0  0  0  0
  -26.0499  -11.4374   20.2748 C   0  0  0  0  0  0  0  0  0  0  0  0
  -27.1492  -27.0145   21.6165 C   0  0  0  0  0  0  0  0  0  0  0  0
  -24.2447  -10.2665   21.2195 C   0  0  0  0  0  0  0  0  0  0  0  0
  -21.8868  -10.3010   22.7100 C   0  0  0  0  0  0  0  0  0  0  0  0
  -24.1561   -9.5315   22.4017 C   0  0  0  0  0  0  0  0  0  0  0  0
  -30.7909  -24.4311   17.1803 C   0  0  0  0  0  0  0  0  0  0  0  0
  -28.0246  -15.1244   19.6387 C   0  0  0  0  0  0  0  0  0  0  0  0
  -29.5314  -16.7148   19.4505 C   0  0  0  0  0  0  0  0  0  0  0  0
  -30.4726  -14.4969   20.1165 C   0  0  0  0  0  0  0  0  0  0  0  0
  -23.3450  -30.2997   23.6658 C   0  0  0  0  0  0  0  0  0  0  0  0
  -25.6845  -31.7898   25.3477 C   0  0  0  0  0  0  0  0  0  0  0  0
  -29.0021  -32.0249   26.1124 C   0  0  0  0  0  0  0  0  0  0  0  0
  -26.2419  -20.3165   16.1244 C   0  0  0  0  0  0  0  0  0  0  0  0
  -18.2573  -29.9309   23.8586 C   0  0  0  0  0  0  0  0  0  0  0  0
  -24.5113  -28.3436   24.7471 C   0  0  0  0  0  0  0  0  0  0  0  0
  -26.4334  -30.2240   23.5166 C   0  0  0  0  0  0  0  0  0  0  0  0
  -19.2960  -30.9523   24.3149 C   0  0  0  0  0  0  0  0  0  0  0  0
  -27.1120  -20.8418   19.5978 C   0  0  0  0  0  0  0  0  0  0  0  0
  -20.2742  -31.2599   23.1857 C   0  0  0  0  0  0  0  0  0  0  0  0
  -27.5786  -19.4442   20.0092 C   0  0  0  0  0  0  0  0  0  0  0  0
  -25.9323  -20.7690   18.6328 C   0  0  0  0  0  0  0  0  0  0  0  0
  -26.6512  -18.5561   17.8203 C   0  0  0  0  0  0  0  0  0  0  0  0
  -21.0446  -30.0024   22.7653 C   0  0  1  0  0  0  0  0  0  0  0  0
  -24.2773  -29.8511   24.7554 C   0  0  1  0  0  0  0  0  0  0  0  0
  -27.8565  -18.5613   18.7782 C   0  0  2  0  0  0  0  0  0  0  0  0
  -32.2276  -23.2003   18.8544 C   0  0  0  0  0  0  0  0  0  0  0  0
  -30.6161  -33.3649   27.4897 C   0  0  0  0  0  0  0  0  0  0  0  0
  -25.5126  -34.0694   23.3269 C   0  0  0  0  0  0  0  0  0  0  0  0
  -27.7247  -34.8878   24.1667 C   0  0  0  0  0  0  0  0  0  0  0  0
  -25.7631  -34.8005   25.7054 C   0  0  0  0  0  0  0  0  0  0  0  0
  -29.8189  -29.6493   27.6772 C   0  0  0  0  0  0  0  0  0  0  0  0
  -29.3653  -25.6593   15.4949 C   0  0  0  0  0  0  0  0  0  0  0  0
  -27.8855  -25.2236   20.2358 C   0  0  0  0  0  0  0  0  0  1  0  0
  -28.8822  -24.5496   14.5510 C   0  0  0  0  0  0  0  0  0  0  0  0
  -27.5651  -23.9349   15.0292 C   0  0  0  0  0  0  0  0  0  0  0  0
  -27.1120  -22.8027   14.1027 C   0  0  0  0  0  0  0  0  0  0  0  0
  -25.7934  -22.1765   14.5444 C   0  0  0  0  0  0  0  0  0  0  0  0
  -26.8768  -32.6453   24.9933 C   0  0  1  0  0  0  0  0  0  0  0  0
  -29.7238  -32.1343   27.4435 C   0  0  2  0  0  0  0  0  0  0  0  0
  -26.4665  -34.0742   24.5381 C   0  0  0  0  0  0  0  0  0  0  0  0
  -27.3267  -16.2060   19.2823 N   0  0  0  0  0  0  0  0  0  0  0  0
  -28.2706  -17.1567   19.1758 N   0  0  0  0  0  0  0  0  0  0  0  0
  -25.5160  -30.6162   24.5993 N   0  0  0  0  0  0  0  0  0  0  0  0
  -26.2686  -19.9291   17.4745 N   0  0  0  0  0  0  0  0  0  0  0  0
  -30.5982  -17.5397   19.3906 N   0  0  0  0  0  0  0  0  0  0  0  0
  -30.1655  -13.1596   20.4020 N   0  0  0  0  0  0  0  0  0  0  0  0
  -22.0955  -29.7118   23.7170 N   0  0  0  0  0  0  0  0  0  0  0  0
  -27.7583  -32.6184   26.1555 N   0  0  0  0  0  0  0  0  0  0  0  0
  -25.8623  -21.6309   15.8818 N   0  0  0  0  0  0  0  0  0  0  0  0
  -30.5713  -30.9303   27.6737 N   0  3  0  0  0  0  0  0  0  0  0  0
  -31.6631  -14.8841   20.1972 O   0  0  0  0  0  0  0  0  0  0  0  0
  -23.7302  -31.1197   22.8406 O   0  0  0  0  0  0  0  0  0  0  0  0
  -24.9344  -32.1459   26.2600 O   0  0  0  0  0  0  0  0  0  0  0  0
  -29.4943  -31.4717   25.1314 O   0  0  0  0  0  0  0  0  0  0  0  0
  -26.5399  -19.5489   15.2029 O   0  0  0  0  0  0  0  0  0  0  0  0
  -25.4147  -10.2511   20.4789 O   0  0  0  0  0  0  0  0  0  0  0  0
  -27.9861  -26.5912   20.6305 O   0  0  0  0  0  0  0  0  0  1  0  0
  -20.7551  -10.3189   23.4264 F   0  0  0  0  0  0  0  0  0  0  0  0
  -25.2007   -8.8078   22.8271 F   0  0  0  0  0  0  0  0  0  0  0  0
  -31.9639  -24.1114   15.9470 Cl  0  0  0  0  0  0  0  0  0  0  0  0
  1  2  1  0  0  0  0
  1  5  2  0  0  0  0
  2  6  2  0  0  0  0
  3  8  2  0  0  0  0
  3 17  1  0  0  0  0
  4  9  1  0  0  0  0
  4 17  2  0  0  0  0
  5 19  1  0  0  0  0
  6 21  1  0  0  0  0
  7 10  2  0  0  0  0
  7 20  1  0  0  0  0
  8 26  1  0  0  0  0
  9 26  2  0  0  0  0
 10 27  1  0  0  0  0
 11 12  2  0  0  0  0
 11 28  1  0  0  0  0
 12 29  1  0  0  0  0
 13 22  1  0  0  0  0
 13 27  2  0  0  0  0
 14 23  1  0  0  0  0
 14 24  2  0  0  0  0
 15 23  2  0  0  0  0
 15 25  1  0  0  0  0
 16 29  2  0  0  0  0
 16 30  1  0  0  0  0
 17 32  1  0  0  0  0
 18 32  1  0  0  0  0
 18 33  2  0  0  0  0
 18 34  1  0  0  0  0
 19 21  2  0  0  0  0
 19 39  1  0  0  0  0
 20 22  2  0  0  0  0
 20 40  1  0  0  0  0
 21 48  1  0  0  0  0
 22 41  1  0  0  0  0
 23 58  1  0  0  0  0
 24 31  1  0  0  0  0
 24 51  1  0  0  0  0
 25 31  2  0  0  0  0
 25 57  1  0  0  0  0
 26 81  1  0  0  0  0
 27 82  1  0  0  0  0
 28 30  2  0  0  0  0
 28 81  1  0  0  0  0
 29 83  1  0  0  0  0
 30 84  1  0  0  0  0
 31 85  1  0  0  0  0
 32 66  2  0  0  0  0
 33 67  1  0  0  0  0
 33 70  1  0  0  0  0
 34 71  1  0  0  0  0
 34 76  2  0  0  0  0
 35 49  1  0  0  0  0
 35 72  1  0  0  0  0
 35 77  2  0  0  0  0
 36 63  1  0  0  0  0
 36 68  1  0  0  0  0
 36 78  2  0  0  0  0
 37 64  1  0  0  0  0
 37 73  1  0  0  0  0
 37 79  2  0  0  0  0
 38 69  1  0  0  0  0
 38 74  1  0  0  0  0
 38 80  2  0  0  0  0
 39 42  1  0  0  0  0
 40 49  1  0  0  0  0
 41 68  1  0  0  0  0
 42 44  1  0  0  0  0
 43 45  1  0  0  0  0
 43 46  1  0  0  0  0
 44 48  1  0  0  0  0
 45 50  1  0  0  0  0
 46 69  1  0  0  0  0
 47 50  1  0  0  0  0
 47 69  1  0  0  0  0
 48 72  1  0  0  0  0
 49 68  1  0  0  0  0
 50 67  1  0  0  0  0
 52 64  1  0  0  0  0
 53 65  1  0  0  0  0
 54 65  1  0  0  0  0
 55 65  1  0  0  0  0
 56 75  1  0  0  0  0
 57 59  1  0  0  0  0
 58 82  1  0  0  0  0
 59 60  1  0  0  0  0
 60 61  1  0  0  0  0
 61 62  1  0  0  0  0
 62 74  1  0  0  0  0
 63 65  1  0  0  0  0
 63 73  1  0  0  0  0
 64 75  1  0  0  0  0
 66 67  1  0  0  0  0
M  CHG  1  75   1
M  ISO  4  38 100  58 101  74 100  82 101
M  END
> <Batch ID>
0036

> <Smiles>
CNC(C)C(=O)NC(C(=O)N1Cc2cc([101O:1][101CH2:1]c3cc(C)c(Cl)c(CCCCC[100NH:0][100C:0](=O)N4CCCC(n5nc(-c6ccc(Oc7ccc(F)cc7F)cc6)c(C(N)=O)c5N)C4)c3)ccc2CC1C(=O)NC1CCCc2ccccc21)C(C)(C)C

> <Shape>
0.298

> <Color>
0.074

> <Negative vol penalty>
0.000

$$$$

  -OEChem-04052316563D

 88 96  0     1  0  0  0  0  0999 V2000
  -25.4842  -16.4054   26.2172 C   0  0  0  0  0  0  0  0  0  0  0  0
  -25.2719  -17.6947   26.6946 C   0  0  0  0  0  0  0  0  0  0  0  0
  -26.4275  -12.7204   21.6208 C   0  0  0  0  0  0  0  0  0  0  0  0
  -25.9429  -14.1151   19.7084 C   0  0  0  0  0  0  0  0  0  0  0  0
  -25.4520  -16.1570   24.8457 C   0  0  0  0  0  0  0  0  0  0  0  0
  -25.0283  -18.7367   25.8005 C   0  0  0  0  0  0  0  0  0  0  0  0
  -21.3704  -24.8702   25.2381 C   0  0  0  0  0  0  0  0  0  0  0  0
  -24.8402  -28.0596   19.4313 C   0  0  0  0  0  0  0  0  0  0  0  0
  -25.1187  -12.2387   21.6012 C   0  0  0  0  0  0  0  0  0  0  0  0
  -24.6341  -13.6332   19.6887 C   0  0  0  0  0  0  0  0  0  0  0  0
  -21.5612  -26.2120   24.9110 C   0  0  0  0  0  0  0  0  0  0  0  0
  -21.0637  -13.0406   19.3558 C   0  0  0  0  0  0  0  0  0  0  0  0
  -20.0344  -13.9667   19.1869 C   0  0  0  0  0  0  0  0  0  0  0  0
  -25.8392  -27.1670   19.0591 C   0  0  0  0  0  0  0  0  0  0  0  0
  -21.4501  -25.6502   22.5676 C   0  0  0  0  0  0  0  0  0  0  0  0
  -20.7236  -15.1008   21.2058 C   0  0  0  0  0  0  0  0  0  0  0  0
  -26.8397  -13.6587   20.6745 C   0  0  0  0  0  0  0  0  0  0  0  0
  -29.3053  -13.6211   20.0212 C   0  0  0  0  0  0  0  0  0  0  0  0
  -25.1984  -17.1946   23.9349 C   0  0  0  0  0  0  0  0  0  0  0  0
  -21.2286  -23.9052   24.2306 C   0  0  0  0  0  0  0  0  0  0  0  0
  -24.9940  -18.5022   24.4154 C   0  0  0  0  0  0  0  0  0  0  0  0
  -21.2550  -24.2972   22.8846 C   0  0  0  0  0  0  0  0  0  0  0  0
  -25.0569  -28.9350   20.4896 C   0  0  0  0  0  0  0  0  0  0  0  0
  -24.2220  -12.6950   20.6351 C   0  0  0  0  0  0  0  0  0  0  0  0
  -21.6040  -26.6017   23.5756 C   0  0  0  0  0  0  0  0  0  0  0  0
  -21.9229  -13.1446   20.4497 C   0  0  0  0  0  0  0  0  0  0  0  0
  -19.8643  -14.9968   20.1119 C   0  0  0  0  0  0  0  0  0  0  0  0
  -21.7529  -14.1747   21.3746 C   0  0  0  0  0  0  0  0  0  0  0  0
  -28.1914  -14.1572   20.6946 C   0  0  0  0  0  0  0  0  0  0  0  0
  -27.0274  -27.1895   19.7714 C   0  0  0  0  0  0  0  0  0  0  0  0
  -26.2801  -28.8783   21.1380 C   0  0  0  0  0  0  0  0  0  0  0  0
  -30.3450  -14.4514   20.3621 C   0  0  0  0  0  0  0  0  0  0  0  0
  -29.3924  -12.4751   19.1640 C   0  0  0  0  0  0  0  0  0  0  0  0
  -22.8650  -21.3271   23.3477 C   0  0  0  0  0  0  0  0  0  0  0  0
  -20.3773  -20.9264   21.3048 C   0  0  0  0  0  0  0  0  0  0  0  0
  -17.8016  -22.3351   19.5647 C   0  0  0  0  0  0  0  0  0  0  0  0
  -30.5875  -20.1665   22.1310 C   0  0  0  0  0  0  0  0  0  0  0  0
  -25.2202  -16.8863   22.4587 C   0  0  0  0  0  0  0  0  0  0  0  0
  -20.9967  -22.4657   24.6003 C   0  0  0  0  0  0  0  0  0  0  0  0
  -21.0876  -23.3031   21.7656 C   0  0  0  0  0  0  0  0  0  0  0  0
  -24.5841  -17.9760   21.5994 C   0  0  0  0  0  0  0  0  0  0  0  0
  -31.8399  -17.3293   23.8798 C   0  0  0  0  0  0  0  0  0  0  0  0
  -25.0858  -19.3522   22.0248 C   0  0  0  0  0  0  0  0  0  0  0  0
  -31.1474  -16.1462   23.2010 C   0  0  0  0  0  0  0  0  0  0  0  0
  -30.9194  -18.5441   23.9734 C   0  0  0  0  0  0  0  0  0  0  0  0
  -29.6302  -17.7861   22.0145 C   0  0  0  0  0  0  0  0  0  0  0  0
  -24.7021  -19.6542   23.4785 C   0  0  1  0  0  0  0  0  0  0  0  0
  -21.3783  -21.4941   23.4877 C   0  0  1  0  0  0  0  0  0  0  0  0
  -30.5375  -16.5552   21.8467 C   0  0  2  0  0  0  0  0  0  0  0  0
  -28.3589  -30.7670   23.7869 C   0  0  0  0  0  0  0  0  0  0  0  0
  -15.9678  -21.7608   17.9508 C   0  0  0  0  0  0  0  0  0  0  0  0
  -22.4220  -20.7542   19.0466 C   0  0  0  0  0  0  0  0  0  0  0  0
  -20.5562  -21.1377   17.4218 C   0  0  0  0  0  0  0  0  0  0  0  0
  -20.5421  -19.1133   18.8792 C   0  0  0  0  0  0  0  0  0  0  0  0
  -15.7026  -23.2122   21.4578 C   0  0  0  0  0  0  0  0  0  0  0  0
  -23.9769  -29.9044   20.8988 C   0  0  0  0  0  0  0  0  0  0  0  0
  -28.1219  -26.2463   19.3977 C   0  0  0  0  0  0  0  0  0  0  0  0
  -26.5698  -29.7968   22.2796 C   0  0  0  0  0  0  0  0  0  0  0  0
  -28.0607  -29.8061   22.6468 C   0  0  0  0  0  0  0  0  0  0  0  0
  -23.2311  -29.4947   22.1706 C   0  0  0  0  0  0  0  0  0  0  0  0
  -28.0253  -24.9148   20.1570 C   0  0  0  0  0  0  0  0  0  0  0  0
  -29.1741  -23.9710   19.7954 C   0  0  0  0  0  0  0  0  0  0  0  0
  -29.0449  -22.6327   20.5287 C   0  0  0  0  0  0  0  0  0  0  0  0
  -30.1833  -21.6723   20.2001 C   0  0  0  0  0  0  0  0  0  0  0  0
  -22.4603  -28.1879   22.0242 C   0  0  0  0  0  0  0  0  0  1  0  0
  -20.0656  -21.3775   19.8983 C   0  0  1  0  0  0  0  0  0  0  0  0
  -16.3467  -21.9290   19.4140 C   0  0  2  0  0  0  0  0  0  0  0  0
  -20.9016  -20.6144   18.8323 C   0  0  0  0  0  0  0  0  0  0  0  0
  -28.4950  -15.2439   21.4095 N   0  0  0  0  0  0  0  0  0  0  0  0
  -27.2745  -28.0251   20.8050 N   0  0  0  0  0  0  0  0  0  0  0  0
  -29.8114  -15.3973   21.1872 N   0  0  0  0  0  0  0  0  0  0  0  0
  -20.8697  -21.9067   22.1780 N   0  0  0  0  0  0  0  0  0  0  0  0
  -30.3756  -18.8808   22.6554 N   0  0  0  0  0  0  0  0  0  0  0  0
  -31.6544  -14.4572   20.0337 N   0  0  0  0  0  0  0  0  0  0  0  0
  -28.2284  -11.7338   18.9192 N   0  0  0  0  0  0  0  0  0  0  0  0
  -23.3090  -20.0366   23.5645 N   0  0  0  0  0  0  0  0  0  0  0  0
  -18.6223  -21.2404   19.7360 N   0  0  0  0  0  0  0  0  0  0  0  0
  -30.0440  -20.4005   20.8738 N   0  0  0  0  0  0  0  0  0  0  0  0
  -15.4557  -22.9618   20.0144 N   0  3  0  0  0  0  0  0  0  0  0  0
  -30.4738  -12.1095   18.6440 O   0  0  0  0  0  0  0  0  0  0  0  0
  -23.5577  -22.2969   23.0624 O   0  0  0  0  0  0  0  0  0  0  0  0
  -20.1839  -19.7494   21.6193 O   0  0  0  0  0  0  0  0  0  0  0  0
  -18.1733  -23.5061   19.5299 O   0  0  0  0  0  0  0  0  0  0  0  0
  -31.2190  -21.0395   22.7360 O   0  0  0  0  0  0  0  0  0  0  0  0
  -22.9448  -12.2249   20.6155 O   0  0  0  0  0  0  0  0  0  0  0  0
  -21.7908  -27.9107   23.2535 O   0  0  0  0  0  0  0  0  0  1  0  0
  -18.8768  -15.8869   19.9488 F   0  0  0  0  0  0  0  0  0  0  0  0
  -22.5759  -14.2805   22.4269 F   0  0  0  0  0  0  0  0  0  0  0  0
  1  2  1  0  0  0  0
  1  5  2  0  0  0  0
  2  6  2  0  0  0  0
  3  9  2  0  0  0  0
  3 17  1  0  0  0  0
  4 10  1  0  0  0  0
  4 17  2  0  0  0  0
  5 19  1  0  0  0  0
  6 21  1  0  0  0  0
  7 11  2  0  0  0  0
  7 20  1  0  0  0  0
  8 14  2  0  0  0  0
  8 23  1  0  0  0  0
  9 24  1  0  0  0  0
 10 24  2  0  0  0  0
 11 25  1  0  0  0  0
 12 13  2  0  0  0  0
 12 26  1  0  0  0  0
 13 27  1  0  0  0  0
 14 30  1  0  0  0  0
 15 22  1  0  0  0  0
 15 25  2  0  0  0  0
 16 27  2  0  0  0  0
 16 28  1  0  0  0  0
 17 29  1  0  0  0  0
 18 29  1  0  0  0  0
 18 32  2  0  0  0  0
 18 33  1  0  0  0  0
 19 21  2  0  0  0  0
 19 38  1  0  0  0  0
 20 22  2  0  0  0  0
 20 39  1  0  0  0  0
 21 47  1  0  0  0  0
 22 40  1  0  0  0  0
 23 31  2  0  0  0  0
 23 56  1  0  0  0  0
 24 85  1  0  0  0  0
 25 86  1  0  0  0  0
 26 28  2  0  0  0  0
 26 85  1  0  0  0  0
 27 87  1  0  0  0  0
 28 88  1  0  0  0  0
 29 69  2  0  0  0  0
 30 57  1  0  0  0  0
 30 70  2  0  0  0  0
 31 58  1  0  0  0  0
 31 70  1  0  0  0  0
 32 71  1  0  0  0  0
 32 74  1  0  0  0  0
 33 75  1  0  0  0  0
 33 80  2  0  0  0  0
 34 48  1  0  0  0  0
 34 76  1  0  0  0  0
 34 81  2  0  0  0  0
 35 66  1  0  0  0  0
 35 72  1  0  0  0  0
 35 82  2  0  0  0  0
 36 67  1  0  0  0  0
 36 77  1  0  0  0  0
 36 83  2  0  0  0  0
 37 73  1  0  0  0  0
 37 78  1  0  0  0  0
 37 84  2  0  0  0  0
 38 41  1  0  0  0  0
 39 48  1  0  0  0  0
 40 72  1  0  0  0  0
 41 43  1  0  0  0  0
 42 44  1  0  0  0  0
 42 45  1  0  0  0  0
 43 47  1  0  0  0  0
 44 49  1  0  0  0  0
 45 73  1  0  0  0  0
 46 49  1  0  0  0  0
 46 73  1  0  0  0  0
 47 76  1  0  0  0  0
 48 72  1  0  0  0  0
 49 71  1  0  0  0  0
 50 59  1  0  0  0  0
 51 67  1  0  0  0  0
 52 68  1  0  0  0  0
 53 68  1  0  0  0  0
 54 68  1  0  0  0  0
 55 79  1  0  0  0  0
 56 60  1  0  0  0  0
 57 61  1  0  0  0  0
 58 59  1  0  0  0  0
 60 65  1  0  0  0  0
 61 62  1  0  0  0  0
 62 63  1  0  0  0  0
 63 64  1  0  0  0  0
 64 78  1  0  0  0  0
 65 86  1  0  0  0  0
 66 68  1  0  0  0  0
 66 77  1  0  0  0  0
 67 79  1  0  0  0  0
 69 71  1  0  0  0  0
M  CHG  1  79   1
M  ISO  4  37 100  65 101  78 100  86 101
M  END
> <Batch ID>
0036

> <Smiles>
CCCc1nc(CCCCC[100NH:0][100C:0](=O)N2CCCC(n3nc(-c4ccc(Oc5ccc(F)cc5F)cc4)c(C(N)=O)c3N)C2)ccc1CC[101CH2:1][101O:1]c1ccc2c(c1)CN(C(=O)C(NC(=O)C(C)NC)C(C)(C)C)C(C(=O)NC1CCCc3ccccc31)C2

> <Shape>
0.210

> <Color>
0.049

> <Negative vol penalty>
0.000

$$$$

  -OEChem-04052316563D

 84 92  0     1  0  0  0  0  0999 V2000
  -25.0932  -28.6137   23.6234 C   0  0  0  0  0  0  0  0  0  0  0  0
  -24.9644  -27.2448   23.8353 C   0  0  0  0  0  0  0  0  0  0  0  0
  -21.8340  -24.3378   22.4889 C   0  0  0  0  0  0  0  0  0  0  0  0
  -19.8730  -23.4184   23.5594 C   0  0  0  0  0  0  0  0  0  0  0  0
  -25.4771  -29.0910   22.3709 C   0  0  0  0  0  0  0  0  0  0  0  0
  -25.2183  -26.3523   22.7944 C   0  0  0  0  0  0  0  0  0  0  0  0
  -27.7835  -19.7748   21.5807 C   0  0  0  0  0  0  0  0  0  0  0  0
  -21.4612  -25.6162   22.9039 C   0  0  0  0  0  0  0  0  0  0  0  0
  -19.5002  -24.6968   23.9745 C   0  0  0  0  0  0  0  0  0  0  0  0
  -27.4408  -18.5871   20.9359 C   0  0  0  0  0  0  0  0  0  0  0  0
  -20.8361  -29.1673   23.3751 C   0  0  0  0  0  0  0  0  0  0  0  0
  -20.9185  -30.2028   22.4442 C   0  0  0  0  0  0  0  0  0  0  0  0
  -28.1744  -19.5222   18.8367 C   0  0  0  0  0  0  0  0  0  0  0  0
  -24.2493  -12.4020   21.6642 C   0  0  0  0  0  0  0  0  0  0  0  0
  -19.3521  -29.0435   21.0161 C   0  0  0  0  0  0  0  0  0  0  0  0
  -25.9564  -13.2313   19.7036 C   0  0  0  0  0  0  0  0  0  0  0  0
  -21.0398  -23.2388   22.8166 C   0  0  0  0  0  0  0  0  0  0  0  0
  -22.2338  -21.0003   23.0833 C   0  0  0  0  0  0  0  0  0  0  0  0
  -25.7452  -28.2035   21.3168 C   0  0  0  0  0  0  0  0  0  0  0  0
  -28.3149  -20.8508   20.8553 C   0  0  0  0  0  0  0  0  0  0  0  0
  -25.6049  -26.8182   21.5262 C   0  0  0  0  0  0  0  0  0  0  0  0
  -28.5253  -20.7216   19.4750 C   0  0  0  0  0  0  0  0  0  0  0  0
  -23.8554  -13.4194   20.8022 C   0  0  0  0  0  0  0  0  0  0  0  0
  -24.7193  -13.8478   19.8005 C   0  0  0  0  0  0  0  0  0  0  0  0
  -20.2943  -25.7957   23.6467 C   0  0  0  0  0  0  0  0  0  0  0  0
  -27.6335  -18.4617   19.5632 C   0  0  0  0  0  0  0  0  0  0  0  0
  -20.0117  -28.0699   23.1265 C   0  0  0  0  0  0  0  0  0  0  0  0
  -20.1765  -30.1409   21.2647 C   0  0  0  0  0  0  0  0  0  0  0  0
  -19.2698  -28.0080   21.9470 C   0  0  0  0  0  0  0  0  0  0  0  0
  -21.4241  -21.9180   22.3877 C   0  0  0  0  0  0  0  0  0  0  0  0
  -25.5074  -11.8501   21.4837 C   0  0  0  0  0  0  0  0  0  0  0  0
  -22.2966  -19.9038   22.2586 C   0  0  0  0  0  0  0  0  0  0  0  0
  -22.8721  -21.1276   24.3608 C   0  0  0  0  0  0  0  0  0  0  0  0
  -27.3948  -23.8376   20.2753 C   0  0  0  0  0  0  0  0  0  0  0  0
  -30.3103  -24.0495   18.8692 C   0  0  0  0  0  0  0  0  0  0  0  0
  -32.9268  -22.4517   17.3698 C   0  0  0  0  0  0  0  0  0  0  0  0
  -19.8334  -16.2102   18.8770 C   0  0  0  0  0  0  0  0  0  0  0  0
  -26.1114  -28.7687   19.9673 C   0  0  0  0  0  0  0  0  0  0  0  0
  -28.7043  -22.1157   21.5700 C   0  0  0  0  0  0  0  0  0  0  0  0
  -29.1116  -21.8399   18.6540 C   0  0  0  0  0  0  0  0  0  0  0  0
  -26.7254  -27.7393   19.0220 C   0  0  0  0  0  0  0  0  0  0  0  0
  -20.8405  -19.3130   17.4505 C   0  0  0  0  0  0  0  0  0  0  0  0
  -25.9088  -26.4509   19.0325 C   0  0  0  0  0  0  0  0  0  0  0  0
  -21.1426  -20.1929   18.6648 C   0  0  0  0  0  0  0  0  0  0  0  0
  -19.6543  -18.3860   17.7065 C   0  0  0  0  0  0  0  0  0  0  0  0
  -20.0691  -18.4368   20.1353 C   0  0  0  0  0  0  0  0  0  0  0  0
  -25.8956  -25.8174   20.4290 C   0  0  1  0  0  0  0  0  0  0  0  0
  -28.7590  -23.3302   20.6484 C   0  0  1  0  0  0  0  0  0  0  0  0
  -21.2928  -19.3494   19.9451 C   0  0  2  0  0  0  0  0  0  0  0  0
  -25.9637  -10.7563   22.3905 C   0  0  0  0  0  0  0  0  0  0  0  0
  -35.1489  -22.8950   16.2914 C   0  0  0  0  0  0  0  0  0  0  0  0
  -28.8905  -25.0624   16.3655 C   0  0  0  0  0  0  0  0  0  0  0  0
  -30.9790  -24.5815   15.0712 C   0  0  0  0  0  0  0  0  0  0  0  0
  -31.0158  -26.2600   16.9162 C   0  0  0  0  0  0  0  0  0  0  0  0
  -34.3583  -20.8160   19.3783 C   0  0  0  0  0  0  0  0  0  0  0  0
  -22.5057  -14.0348   20.9700 C   0  0  0  0  0  0  0  0  0  0  0  0
  -24.3437  -14.9470   18.8392 C   0  0  0  0  0  0  0  0  0  0  0  0
  -21.4437  -13.5202   19.9790 C   0  0  0  0  0  0  0  0  0  0  0  0
  -25.5343  -15.7816   18.3621 C   0  0  0  0  0  0  0  0  0  0  0  0
  -20.0514  -14.1127   20.1855 C   0  0  0  0  0  0  0  0  0  0  0  0
  -26.2222  -16.5491   19.4851 C   0  0  0  0  0  0  0  0  0  1  0  0
  -30.8481  -23.8013   17.4806 C   0  0  1  0  0  0  0  0  0  0  0  0
  -34.4260  -22.5534   17.5851 C   0  0  2  0  0  0  0  0  0  0  0  0
  -30.4205  -24.9057   16.4732 C   0  0  0  0  0  0  0  0  0  0  0  0
  -26.3742  -12.2400   20.5223 N   0  0  0  0  0  0  0  0  0  0  0  0
  -21.0028  -21.4457   21.2115 N   0  0  0  0  0  0  0  0  0  0  0  0
  -21.5500  -20.2193   21.1616 N   0  0  0  0  0  0  0  0  0  0  0  0
  -29.4704  -23.0589   19.3976 N   0  0  0  0  0  0  0  0  0  0  0  0
  -19.8601  -17.6134   18.9339 N   0  0  0  0  0  0  0  0  0  0  0  0
  -22.9171  -18.7103   22.3719 N   0  0  0  0  0  0  0  0  0  0  0  0
  -22.7038  -22.3212   25.0759 N   0  0  0  0  0  0  0  0  0  0  0  0
  -27.1449  -25.1333   20.6854 N   0  0  0  0  0  0  0  0  0  0  0  0
  -32.2920  -23.6493   17.6232 N   0  0  0  0  0  0  0  0  0  0  0  0
  -20.0437  -15.5551   20.0842 N   0  0  0  0  0  0  0  0  0  0  0  0
  -34.9645  -21.2617   18.0974 N   0  3  0  0  0  0  0  0  0  0  0  0
  -23.5845  -20.2164   24.8463 O   0  0  0  0  0  0  0  0  0  0  0  0
  -26.6264  -23.1081   19.6596 O   0  0  0  0  0  0  0  0  0  0  0  0
  -30.6295  -25.0808   19.4659 O   0  0  0  0  0  0  0  0  0  0  0  0
  -32.3744  -21.4147   17.0091 O   0  0  0  0  0  0  0  0  0  0  0  0
  -19.6420  -15.5873   17.8271 O   0  0  0  0  0  0  0  0  0  0  0  0
  -19.9304  -27.0430   24.0520 O   0  0  0  0  0  0  0  0  0  0  0  0
  -27.2993  -17.3038   18.9313 O   0  0  0  0  0  0  0  0  0  1  0  0
  -20.2545  -31.1361   20.3715 F   0  0  0  0  0  0  0  0  0  0  0  0
  -18.4752  -26.9568   21.7031 F   0  0  0  0  0  0  0  0  0  0  0  0
  1  2  1  0  0  0  0
  1  5  2  0  0  0  0
  2  6  2  0  0  0  0
  3  8  2  0  0  0  0
  3 17  1  0  0  0  0
  4  9  1  0  0  0  0
  4 17  2  0  0  0  0
  5 19  1  0  0  0  0
  6 21  1  0  0  0  0
  7 10  2  0  0  0  0
  7 20  1  0  0  0  0
  8 25  1  0  0  0  0
  9 25  2  0  0  0  0
 10 26  1  0  0  0  0
 11 12  2  0  0  0  0
 11 27  1  0  0  0  0
 12 28  1  0  0  0  0
 13 22  1  0  0  0  0
 13 26  2  0  0  0  0
 14 23  1  0  0  0  0
 14 31  2  0  0  0  0
 15 28  2  0  0  0  0
 15 29  1  0  0  0  0
 16 24  1  0  0  0  0
 16 65  2  0  0  0  0
 17 30  1  0  0  0  0
 18 30  1  0  0  0  0
 18 32  2  0  0  0  0
 18 33  1  0  0  0  0
 19 21  2  0  0  0  0
 19 38  1  0  0  0  0
 20 22  2  0  0  0  0
 20 39  1  0  0  0  0
 21 47  1  0  0  0  0
 22 40  1  0  0  0  0
 23 24  2  0  0  0  0
 23 56  1  0  0  0  0
 24 57  1  0  0  0  0
 25 81  1  0  0  0  0
 26 82  1  0  0  0  0
 27 29  2  0  0  0  0
 27 81  1  0  0  0  0
 28 83  1  0  0  0  0
 29 84  1  0  0  0  0
 30 66  2  0  0  0  0
 31 50  1  0  0  0  0
 31 65  1  0  0  0  0
 32 67  1  0  0  0  0
 32 70  1  0  0  0  0
 33 71  1  0  0  0  0
 33 76  2  0  0  0  0
 34 48  1  0  0  0  0
 34 72  1  0  0  0  0
 34 77  2  0  0  0  0
 35 62  1  0  0  0  0
 35 68  1  0  0  0  0
 35 78  2  0  0  0  0
 36 63  1  0  0  0  0
 36 73  1  0  0  0  0
 36 79  2  0  0  0  0
 37 69  1  0  0  0  0
 37 74  1  0  0  0  0
 37 80  2  0  0  0  0
 38 41  1  0  0  0  0
 39 48  1  0  0  0  0
 40 68  1  0  0  0  0
 41 43  1  0  0  0  0
 42 44  1  0  0  0  0
 42 45  1  0  0  0  0
 43 47  1  0  0  0  0
 44 49  1  0  0  0  0
 45 69  1  0  0  0  0
 46 49  1  0  0  0  0
 46 69  1  0  0  0  0
 47 72  1  0  0  0  0
 48 68  1  0  0  0  0
 49 67  1  0  0  0  0
 51 63  1  0  0  0  0
 52 64  1  0  0  0  0
 53 64  1  0  0  0  0
 54 64  1  0  0  0  0
 55 75  1  0  0  0  0
 56 58  1  0  0  0  0
 57 59  1  0  0  0  0
 58 60  1  0  0  0  0
 59 61  1  0  0  0  0
 60 74  1  0  0  0  0
 61 82  1  0  0  0  0
 62 64  1  0  0  0  0
 62 73  1  0  0  0  0
 63 75  1  0  0  0  0
 66 67  1  0  0  0  0
M  CHG  1  75   1
M  ISO  4  37 100  61 101  74 100  82 101
M  END
> <Batch ID>
0036

> <Smiles>
CNC(C)C(=O)NC(C(=O)N1Cc2cc([101O:1][101CH2:1]CCc3cnc(C)cc3CCC[100NH:0][100C:0](=O)N3CCCC(n4nc(-c5ccc(Oc6ccc(F)cc6F)cc5)c(C(N)=O)c4N)C3)ccc2CC1C(=O)NC1CCCc2ccccc21)C(C)(C)C

> <Shape>
0.189

> <Color>
0.056

> <Negative vol penalty>
0.000

$$$$

  -OEChem-04052316563D

 84 92  0     1  0  0  0  0  0999 V2000
  -17.5119  -31.5377   24.1514 C   0  0  0  0  0  0  0  0  0  0  0  0
  -18.7027  -31.3801   24.8532 C   0  0  0  0  0  0  0  0  0  0  0  0
  -25.1403  -13.6577   19.9614 C   0  0  0  0  0  0  0  0  0  0  0  0
  -26.3009  -13.8615   22.0706 C   0  0  0  0  0  0  0  0  0  0  0  0
  -17.1891  -30.6552   23.1214 C   0  0  0  0  0  0  0  0  0  0  0  0
  -19.5710  -30.3392   24.5260 C   0  0  0  0  0  0  0  0  0  0  0  0
  -25.6906  -30.4458   24.7367 C   0  0  0  0  0  0  0  0  0  0  0  0
  -25.0562  -12.2770   20.1411 C   0  0  0  0  0  0  0  0  0  0  0  0
  -26.2168  -12.4808   22.2503 C   0  0  0  0  0  0  0  0  0  0  0  0
  -26.6046  -29.9897   25.6856 C   0  0  0  0  0  0  0  0  0  0  0  0
  -23.1594  -10.1059   21.9079 C   0  0  0  0  0  0  0  0  0  0  0  0
  -21.9361   -9.4909   21.6419 C   0  0  0  0  0  0  0  0  0  0  0  0
  -26.8644  -27.9397   24.4409 C   0  0  0  0  0  0  0  0  0  0  0  0
  -32.5193  -27.3019   24.3152 C   0  0  0  0  0  0  0  0  0  0  0  0
  -30.8497  -26.8522   25.9869 C   0  0  0  0  0  0  0  0  0  0  0  0
  -22.9905   -8.1247   19.9511 C   0  0  0  0  0  0  0  0  0  0  0  0
  -25.7627  -14.4499   20.9262 C   0  0  0  0  0  0  0  0  0  0  0  0
  -24.9202  -16.8465   21.1592 C   0  0  0  0  0  0  0  0  0  0  0  0
  -18.0583  -29.6088   22.7750 C   0  0  0  0  0  0  0  0  0  0  0  0
  -25.3479  -29.6465   23.6367 C   0  0  0  0  0  0  0  0  0  0  0  0
  -19.2589  -29.4411   23.4913 C   0  0  0  0  0  0  0  0  0  0  0  0
  -25.9478  -28.3891   23.4781 C   0  0  0  0  0  0  0  0  0  0  0  0
  -31.6226  -26.4237   24.9135 C   0  0  0  0  0  0  0  0  0  0  0  0
  -25.5944  -11.6886   21.2855 C   0  0  0  0  0  0  0  0  0  0  0  0
  -27.1895  -28.7352   25.5393 C   0  0  0  0  0  0  0  0  0  0  0  0
  -24.2984   -9.7304   21.1955 C   0  0  0  0  0  0  0  0  0  0  0  0
  -21.8516   -8.5003   20.6635 C   0  0  0  0  0  0  0  0  0  0  0  0
  -24.2139   -8.7398   20.2171 C   0  0  0  0  0  0  0  0  0  0  0  0
  -25.8504  -15.8761   20.7409 C   0  0  0  0  0  0  0  0  0  0  0  0
  -32.6047  -28.5879   24.8238 C   0  0  0  0  0  0  0  0  0  0  0  0
  -31.0099  -28.1583   26.4208 C   0  0  0  0  0  0  0  0  0  0  0  0
  -25.4606  -18.0402   20.7474 C   0  0  0  0  0  0  0  0  0  0  0  0
  -23.6787  -16.6835   21.8576 C   0  0  0  0  0  0  0  0  0  0  0  0
  -22.6596  -28.3220   22.5773 C   0  0  0  0  0  0  0  0  0  0  0  0
  -24.5148  -27.5173   20.0409 C   0  0  0  0  0  0  0  0  0  0  0  0
  -27.6419  -26.9161   18.8136 C   0  0  0  0  0  0  0  0  0  0  0  0
  -29.8252  -21.4744   20.1976 C   0  0  0  0  0  0  0  0  0  0  0  0
  -17.6443  -28.6516   21.6855 C   0  0  0  0  0  0  0  0  0  0  0  0
  -24.3805  -30.1642   22.6079 C   0  0  0  0  0  0  0  0  0  0  0  0
  -25.6290  -27.5007   22.3044 C   0  0  0  0  0  0  0  0  0  0  0  0
  -18.7942  -27.8005   21.1530 C   0  0  0  0  0  0  0  0  0  0  0  0
  -29.3640  -19.0021   17.6773 C   0  0  0  0  0  0  0  0  0  0  0  0
  -19.6097  -27.2236   22.3058 C   0  0  0  0  0  0  0  0  0  0  0  0
  -28.3372  -18.0458   18.2866 C   0  0  0  0  0  0  0  0  0  0  0  0
  -30.3278  -19.5418   18.7317 C   0  0  0  0  0  0  0  0  0  0  0  0
  -28.6540  -19.2100   20.5099 C   0  0  0  0  0  0  0  0  0  0  0  0
  -20.2382  -28.3392   23.1495 C   0  0  1  0  0  0  0  0  0  0  0  0
  -23.7168  -29.0535   21.7995 C   0  0  1  0  0  0  0  0  0  0  0  0
  -27.6251  -18.6831   19.4949 C   0  0  2  0  0  0  0  0  0  0  0  0
  -33.5551  -29.5582   24.2057 C   0  0  0  0  0  0  0  0  0  0  0  0
  -28.8376  -26.2414   16.7130 C   0  0  0  0  0  0  0  0  0  0  0  0
  -23.6197  -24.6308   20.4614 C   0  0  0  0  0  0  0  0  0  0  0  0
  -25.5222  -23.9022   19.0060 C   0  0  0  0  0  0  0  0  0  0  0  0
  -23.7222  -25.3533   18.0693 C   0  0  0  0  0  0  0  0  0  0  0  0
  -29.1667  -29.4512   18.7292 C   0  0  0  0  0  0  0  0  0  0  0  0
  -31.4897  -25.0281   24.4052 C   0  0  0  0  0  0  0  0  0  0  0  0
  -30.1885  -28.6570   27.5848 C   0  0  0  0  0  0  0  0  0  0  0  0
  -30.4224  -24.9083   23.3060 C   0  0  0  0  0  0  0  0  0  0  0  0
  -30.2694  -23.4642   22.8192 C   0  0  0  0  0  0  0  0  0  0  0  0
  -29.2050  -23.3201   21.7364 C   0  0  0  0  0  0  0  0  0  0  0  0
  -28.8650  -29.2699   27.1401 C   0  0  0  0  0  0  0  0  0  1  0  0
  -25.3932  -26.3410   19.6893 C   0  0  1  0  0  0  0  0  0  0  0  0
  -28.3425  -27.4044   17.5585 C   0  0  2  0  0  0  0  0  0  0  0  0
  -24.5691  -25.0725   19.3298 C   0  0  0  0  0  0  0  0  0  0  0  0
  -26.9019  -16.4073   20.1115 N   0  0  0  0  0  0  0  0  0  0  0  0
  -31.8705  -29.0404   25.8649 N   0  0  0  0  0  0  0  0  0  0  0  0
  -26.6357  -17.7245   20.1312 N   0  0  0  0  0  0  0  0  0  0  0  0
  -24.6724  -28.0488   21.3287 N   0  0  0  0  0  0  0  0  0  0  0  0
  -29.5891  -20.1342   19.8494 N   0  0  0  0  0  0  0  0  0  0  0  0
  -25.0405  -19.3185   20.8559 N   0  0  0  0  0  0  0  0  0  0  0  0
  -23.2729  -15.3878   22.2053 N   0  0  0  0  0  0  0  0  0  0  0  0
  -21.4009  -28.8840   22.4817 N   0  0  0  0  0  0  0  0  0  0  0  0
  -26.2810  -26.7980   18.6257 N   0  0  0  0  0  0  0  0  0  0  0  0
  -29.0785  -21.9592   21.2645 N   0  0  0  0  0  0  0  0  0  0  0  0
  -29.5117  -28.2565   17.9163 N   0  3  0  0  0  0  0  0  0  0  0  0
  -22.9429  -17.6564   22.1498 O   0  0  0  0  0  0  0  0  0  0  0  0
  -22.9631  -27.3209   23.2155 O   0  0  0  0  0  0  0  0  0  0  0  0
  -23.7231  -27.9532   19.2013 O   0  0  0  0  0  0  0  0  0  0  0  0
  -28.2423  -26.6610   19.8552 O   0  0  0  0  0  0  0  0  0  0  0  0
  -30.6371  -22.1877   19.5985 O   0  0  0  0  0  0  0  0  0  0  0  0
  -25.5123  -10.3414   21.4613 O   0  0  0  0  0  0  0  0  0  0  0  0
  -28.0814  -28.2873   26.4644 O   0  0  0  0  0  0  0  0  0  1  0  0
  -20.6771   -7.9087   20.4092 F   0  0  0  0  0  0  0  0  0  0  0  0
  -25.3049   -8.3740   19.5302 F   0  0  0  0  0  0  0  0  0  0  0  0
  1  2  1  0  0  0  0
  1  5  2  0  0  0  0
  2  6  2  0  0  0  0
  3  8  2  0  0  0  0
  3 17  1  0  0  0  0
  4  9  1  0  0  0  0
  4 17  2  0  0  0  0
  5 19  1  0  0  0  0
  6 21  1  0  0  0  0
  7 10  2  0  0  0  0
  7 20  1  0  0  0  0
  8 24  1  0  0  0  0
  9 24  2  0  0  0  0
 10 25  1  0  0  0  0
 11 12  2  0  0  0  0
 11 26  1  0  0  0  0
 12 27  1  0  0  0  0
 13 22  1  0  0  0  0
 13 25  2  0  0  0  0
 14 23  1  0  0  0  0
 14 30  2  0  0  0  0
 15 23  2  0  0  0  0
 15 31  1  0  0  0  0
 16 27  2  0  0  0  0
 16 28  1  0  0  0  0
 17 29  1  0  0  0  0
 18 29  1  0  0  0  0
 18 32  2  0  0  0  0
 18 33  1  0  0  0  0
 19 21  2  0  0  0  0
 19 38  1  0  0  0  0
 20 22  2  0  0  0  0
 20 39  1  0  0  0  0
 21 47  1  0  0  0  0
 22 40  1  0  0  0  0
 23 56  1  0  0  0  0
 24 81  1  0  0  0  0
 25 82  1  0  0  0  0
 26 28  2  0  0  0  0
 26 81  1  0  0  0  0
 27 83  1  0  0  0  0
 28 84  1  0  0  0  0
 29 65  2  0  0  0  0
 30 50  1  0  0  0  0
 30 66  1  0  0  0  0
 31 57  1  0  0  0  0
 31 66  2  0  0  0  0
 32 67  1  0  0  0  0
 32 70  1  0  0  0  0
 33 71  1  0  0  0  0
 33 76  2  0  0  0  0
 34 48  1  0  0  0  0
 34 72  1  0  0  0  0
 34 77  2  0  0  0  0
 35 62  1  0  0  0  0
 35 68  1  0  0  0  0
 35 78  2  0  0  0  0
 36 63  1  0  0  0  0
 36 73  1  0  0  0  0
 36 79  2  0  0  0  0
 37 69  1  0  0  0  0
 37 74  1  0  0  0  0
 37 80  2  0  0  0  0
 38 41  1  0  0  0  0
 39 48  1  0  0  0  0
 40 68  1  0  0  0  0
 41 43  1  0  0  0  0
 42 44  1  0  0  0  0
 42 45  1  0  0  0  0
 43 47  1  0  0  0  0
 44 49  1  0  0  0  0
 45 69  1  0  0  0  0
 46 49  1  0  0  0  0
 46 69  1  0  0  0  0
 47 72  1  0  0  0  0
 48 68  1  0  0  0  0
 49 67  1  0  0  0  0
 51 63  1  0  0  0  0
 52 64  1  0  0  0  0
 53 64  1  0  0  0  0
 54 64  1  0  0  0  0
 55 75  1  0  0  0  0
 56 58  1  0  0  0  0
 57 61  1  0  0  0  0
 58 59  1  0  0  0  0
 59 60  1  0  0  0  0
 60 74  1  0  0  0  0
 61 82  1  0  0  0  0
 62 64  1  0  0  0  0
 62 73  1  0  0  0  0
 63 75  1  0  0  0  0
 65 67  1  0  0  0  0
M  CHG  1  75   1
M  ISO  4  37 100  61 101  74 100  82 101
M  END
> <Batch ID>
0036

> <Smiles>
CNC(C)C(=O)NC(C(=O)N1Cc2cc([101O:1][101CH2:1]Cc3cc(CCCC[100NH:0][100C:0](=O)N4CCCC(n5nc(-c6ccc(Oc7ccc(F)cc7F)cc6)c(C(N)=O)c5N)C4)cc(C)n3)ccc2CC1C(=O)NC1CCCc2ccccc21)C(C)(C)C

> <Shape>
0.240

> <Color>
0.080

> <Negative vol penalty>
0.000

$$$$

  -OEChem-04052316563D

 85 94  0     1  0  0  0  0  0999 V2000
  -30.8977  -20.1095   22.9033 C   0  0  0  0  0  0  0  0  0  0  0  0
  -29.5127  -20.1935   22.9907 C   0  0  0  0  0  0  0  0  0  0  0  0
  -28.2494  -24.9208   18.3596 C   0  0  0  0  0  0  0  0  0  0  0  0
  -27.4544  -24.4967   20.6013 C   0  0  0  0  0  0  0  0  0  0  0  0
  -31.4875  -19.0117   22.2803 C   0  0  0  0  0  0  0  0  0  0  0  0
  -28.7174  -19.1742   22.4657 C   0  0  0  0  0  0  0  0  0  0  0  0
  -23.8849  -19.4285   23.3521 C   0  0  0  0  0  0  0  0  0  0  0  0
  -29.2968  -24.0218   18.5609 C   0  0  0  0  0  0  0  0  0  0  0  0
  -28.5017  -23.5977   20.8026 C   0  0  0  0  0  0  0  0  0  0  0  0
  -23.0543  -20.3649   22.7381 C   0  0  0  0  0  0  0  0  0  0  0  0
  -31.9709  -21.5675   18.3593 C   0  0  0  0  0  0  0  0  0  0  0  0
  -32.2461  -20.6540   17.3418 C   0  0  0  0  0  0  0  0  0  0  0  0
  -22.2192  -18.6482   21.2634 C   0  0  0  0  0  0  0  0  0  0  0  0
  -30.0128  -19.7550   17.5448 C   0  0  0  0  0  0  0  0  0  0  0  0
  -20.6662  -26.9054   23.5059 C   0  0  0  0  0  0  0  0  0  0  0  0
  -27.3283  -25.1583   19.3798 C   0  0  0  0  0  0  0  0  0  0  0  0
  -25.2360  -26.0111   18.1954 C   0  0  0  0  0  0  0  0  0  0  0  0
  -30.6981  -17.9849   21.7367 C   0  0  0  0  0  0  0  0  0  0  0  0
  -23.8969  -18.0950   22.9184 C   0  0  0  0  0  0  0  0  0  0  0  0
  -29.2946  -18.0465   21.8543 C   0  0  0  0  0  0  0  0  0  0  0  0
  -23.0490  -17.6963   21.8752 C   0  0  0  0  0  0  0  0  0  0  0  0
  -29.4229  -23.3602   19.7824 C   0  0  0  0  0  0  0  0  0  0  0  0
  -22.2234  -19.9755   21.6917 C   0  0  0  0  0  0  0  0  0  0  0  0
  -30.7166  -21.5747   18.9697 C   0  0  0  0  0  0  0  0  0  0  0  0
  -31.2671  -19.7478   16.9345 C   0  0  0  0  0  0  0  0  0  0  0  0
  -29.7376  -20.6685   18.5624 C   0  0  0  0  0  0  0  0  0  0  0  0
  -26.2465  -26.0872   19.1726 C   0  0  0  0  0  0  0  0  0  0  0  0
  -20.0051  -26.2460   22.4986 C   0  0  0  0  0  0  0  0  0  0  0  0
  -20.1681  -28.2209   23.4515 C   0  0  0  0  0  0  0  0  0  0  0  0
  -24.4600  -27.1226   18.4166 C   0  0  0  0  0  0  0  0  0  0  0  0
  -25.0182  -25.0239   17.1786 C   0  0  0  0  0  0  0  0  0  0  0  0
  -26.0880  -16.1639   21.6639 C   0  0  0  0  0  0  0  0  0  0  0  0
  -23.7510  -13.9384   21.9918 C   0  0  0  0  0  0  0  0  0  0  0  0
  -20.4177  -13.2543   22.2531 C   0  0  0  0  0  0  0  0  0  0  0  0
  -23.4689  -30.5060   23.2561 C   0  0  0  0  0  0  0  0  0  0  0  0
  -31.3890  -16.8158   21.0802 C   0  0  0  0  0  0  0  0  0  0  0  0
  -24.7792  -17.0914   23.6088 C   0  0  0  0  0  0  0  0  0  0  0  0
  -23.0095  -16.2725   21.3857 C   0  0  0  0  0  0  0  0  0  0  0  0
  -30.4649  -16.0140   20.1695 C   0  0  0  0  0  0  0  0  0  0  0  0
  -24.7157  -31.5926   20.1031 C   0  0  0  0  0  0  0  0  0  0  0  0
  -29.1721  -15.6847   20.9007 C   0  0  0  0  0  0  0  0  0  0  0  0
  -20.3793  -23.8399   23.1926 C   0  0  0  0  0  0  0  0  0  0  0  0
  -21.1086  -24.6286   20.8937 C   0  0  0  0  0  0  0  0  0  0  0  0
  -25.1583  -30.2980   19.4189 C   0  0  0  0  0  0  0  0  0  0  0  0
  -20.4500  -22.3929   22.7116 C   0  0  0  0  0  0  0  0  0  0  0  0
  -21.1749  -23.1775   20.4245 C   0  0  0  0  0  0  0  0  0  0  0  0
  -24.9871  -31.5582   21.6055 C   0  0  0  0  0  0  0  0  0  0  0  0
  -24.8662  -29.0967   21.6258 C   0  0  0  0  0  0  0  0  0  0  0  0
  -28.4086  -16.9647   21.2635 C   0  0  1  0  0  0  0  0  0  0  0  0
  -20.0855  -24.8046   22.0299 C   0  0  0  0  0  0  0  0  0  0  0  0
  -25.0864  -15.8719   22.7452 C   0  0  1  0  0  0  0  0  0  0  0  0
  -24.5617  -29.0618   20.1184 C   0  0  2  0  0  0  0  0  0  0  0  0
  -21.4629  -22.2229   21.5807 C   0  0  0  0  0  0  0  0  0  1  0  0
  -18.8110  -11.3390   22.4710 C   0  0  0  0  0  0  0  0  0  0  0  0
  -24.1260  -13.2904   19.0339 C   0  0  0  0  0  0  0  0  0  0  0  0
  -21.9212  -12.1053   19.0856 C   0  0  0  0  0  0  0  0  0  0  0  0
  -23.8044  -11.2947   20.5064 C   0  0  0  0  0  0  0  0  0  0  0  0
  -18.2809  -26.9608   20.8162 C   0  0  0  0  0  0  0  0  0  0  0  0
  -19.4152  -14.2402   24.8573 C   0  0  0  0  0  0  0  0  0  0  0  0
  -20.5359  -29.3561   24.3145 C   0  0  0  0  0  0  0  0  0  0  0  0
  -21.9830  -29.3075   24.8419 C   0  0  0  0  0  0  0  0  0  0  0  0
  -22.6195  -13.4406   21.1253 C   0  0  1  0  0  0  0  0  0  0  0  0
  -19.6429  -12.3719   23.2151 C   0  0  2  0  0  0  0  0  0  0  0  0
  -23.1197  -12.5601   19.9455 C   0  0  0  0  0  0  0  0  0  0  0  0
  -26.1261  -27.1621   19.9562 N   0  0  0  0  0  0  0  0  0  0  0  0
  -19.2607  -28.3892   22.4859 N   0  0  0  0  0  0  0  0  0  0  0  0
  -19.1835  -27.1708   21.9242 N   0  0  0  0  0  0  0  0  0  0  0  0
  -25.0308  -27.7718   19.4715 N   0  0  0  0  0  0  0  0  0  0  0  0
  -23.8951  -15.3296   22.0886 N   0  0  0  0  0  0  0  0  0  0  0  0
  -24.3936  -30.3624   22.2085 N   0  0  0  0  0  0  0  0  0  0  0  0
  -23.3520  -27.5982   17.8096 N   0  0  0  0  0  0  0  0  0  0  0  0
  -24.2130  -23.9178   17.4828 N   0  0  0  0  0  0  0  0  0  0  0  0
  -27.3034  -16.6250   22.1324 N   0  0  0  0  0  0  0  0  0  0  0  0
  -21.6860  -12.7658   22.0206 N   0  0  0  0  0  0  0  0  0  0  0  0
  -22.9496  -29.3226   23.7666 N   0  0  0  0  0  0  0  0  0  0  0  0
  -18.7276  -13.1977   24.0526 N   0  3  0  0  0  0  0  0  0  0  0  0
  -25.5361  -25.1115   16.0395 O   0  0  0  0  0  0  0  0  0  0  0  0
  -25.7813  -15.9828   20.4913 O   0  0  0  0  0  0  0  0  0  0  0  0
  -24.4757  -13.1228   22.5675 O   0  0  0  0  0  0  0  0  0  0  0  0
  -19.9438  -14.2728   21.7545 O   0  0  0  0  0  0  0  0  0  0  0  0
  -23.1271  -31.6076   23.6997 O   0  0  0  0  0  0  0  0  0  0  0  0
  -30.4446  -22.4828   19.9792 O   0  0  0  0  0  0  0  0  0  0  0  0
  -21.4121  -20.8876   21.0902 O   0  0  0  0  0  0  0  0  0  1  0  0
  -31.5310  -18.8717   15.9563 F   0  0  0  0  0  0  0  0  0  0  0  0
  -28.5303  -20.6715   19.1441 F   0  0  0  0  0  0  0  0  0  0  0  0
  1  2  1  0  0  0  0
  1  5  2  0  0  0  0
  2  6  2  0  0  0  0
  3  8  2  0  0  0  0
  3 16  1  0  0  0  0
  4  9  1  0  0  0  0
  4 16  2  0  0  0  0
  5 18  1  0  0  0  0
  6 20  1  0  0  0  0
  7 10  2  0  0  0  0
  7 19  1  0  0  0  0
  8 22  1  0  0  0  0
  9 22  2  0  0  0  0
 10 23  1  0  0  0  0
 11 12  2  0  0  0  0
 11 24  1  0  0  0  0
 12 25  1  0  0  0  0
 13 21  1  0  0  0  0
 13 23  2  0  0  0  0
 14 25  2  0  0  0  0
 14 26  1  0  0  0  0
 15 28  2  0  0  0  0
 15 29  1  0  0  0  0
 16 27  1  0  0  0  0
 17 27  1  0  0  0  0
 17 30  2  0  0  0  0
 17 31  1  0  0  0  0
 18 20  2  0  0  0  0
 18 36  1  0  0  0  0
 19 21  2  0  0  0  0
 19 37  1  0  0  0  0
 20 49  1  0  0  0  0
 21 38  1  0  0  0  0
 22 82  1  0  0  0  0
 23 83  1  0  0  0  0
 24 26  2  0  0  0  0
 24 82  1  0  0  0  0
 25 84  1  0  0  0  0
 26 85  1  0  0  0  0
 27 65  2  0  0  0  0
 28 50  1  0  0  0  0
 28 67  1  0  0  0  0
 29 60  1  0  0  0  0
 29 66  2  0  0  0  0
 30 68  1  0  0  0  0
 30 71  1  0  0  0  0
 31 72  1  0  0  0  0
 31 77  2  0  0  0  0
 32 51  1  0  0  0  0
 32 73  1  0  0  0  0
 32 78  2  0  0  0  0
 33 62  1  0  0  0  0
 33 69  1  0  0  0  0
 33 79  2  0  0  0  0
 34 63  1  0  0  0  0
 34 74  1  0  0  0  0
 34 80  2  0  0  0  0
 35 70  1  0  0  0  0
 35 75  1  0  0  0  0
 35 81  2  0  0  0  0
 36 39  1  0  0  0  0
 37 51  1  0  0  0  0
 38 69  1  0  0  0  0
 39 41  1  0  0  0  0
 40 44  1  0  0  0  0
 40 47  1  0  0  0  0
 41 49  1  0  0  0  0
 42 45  1  0  0  0  0
 42 50  1  0  0  0  0
 43 46  1  0  0  0  0
 43 50  1  0  0  0  0
 44 52  1  0  0  0  0
 45 53  1  0  0  0  0
 46 53  1  0  0  0  0
 47 70  1  0  0  0  0
 48 52  1  0  0  0  0
 48 70  1  0  0  0  0
 49 73  1  0  0  0  0
 51 69  1  0  0  0  0
 52 68  1  0  0  0  0
 53 83  1  0  0  0  0
 54 63  1  0  0  0  0
 55 64  1  0  0  0  0
 56 64  1  0  0  0  0
 57 64  1  0  0  0  0
 58 67  1  0  0  0  0
 59 76  1  0  0  0  0
 60 61  1  0  0  0  0
 61 75  1  0  0  0  0
 62 64  1  0  0  0  0
 62 74  1  0  0  0  0
 63 76  1  0  0  0  0
 65 68  1  0  0  0  0
 66 67  1  0  0  0  0
M  CHG  1  76   1
M  ISO  4  35 100  53 101  75 100  83 101
M  END
> <Batch ID>
0036

> <Smiles>
CNC(C)C(=O)NC(C(=O)N1Cc2cc([101O:1][101CH:1]3CCC(c4cc(CC[100NH:0][100C:0](=O)N5CCCC(n6nc(-c7ccc(Oc8ccc(F)cc8F)cc7)c(C(N)=O)c6N)C5)nn4C)CC3)ccc2CC1C(=O)NC1CCCc2ccccc21)C(C)(C)C

> <Shape>
0.218

> <Color>
0.070

> <Negative vol penalty>
0.000

$$$$

  -OEChem-04052316563D

 86 94  0     1  0  0  0  0  0999 V2000
  -24.3027  -19.1843   19.7457 C   0  0  0  0  0  0  0  0  0  0  0  0
  -24.5446  -20.0194   20.8305 C   0  0  0  0  0  0  0  0  0  0  0  0
  -23.0577   -9.7843   19.9698 C   0  0  0  0  0  0  0  0  0  0  0  0
  -23.7626   -9.8800   22.2787 C   0  0  0  0  0  0  0  0  0  0  0  0
  -25.1421  -19.2305   18.6346 C   0  0  0  0  0  0  0  0  0  0  0  0
  -25.6187  -20.9095   20.7998 C   0  0  0  0  0  0  0  0  0  0  0  0
  -25.9671  -24.1208   24.5105 C   0  0  0  0  0  0  0  0  0  0  0  0
  -22.3226   -8.6306   20.2420 C   0  0  0  0  0  0  0  0  0  0  0  0
  -23.0275   -8.7262   22.5509 C   0  0  0  0  0  0  0  0  0  0  0  0
  -26.3418  -23.7450   25.7998 C   0  0  0  0  0  0  0  0  0  0  0  0
  -23.3731   -5.3913   22.1156 C   0  0  0  0  0  0  0  0  0  0  0  0
  -23.9841   -4.3995   22.8828 C   0  0  0  0  0  0  0  0  0  0  0  0
  -28.5418  -24.6587   25.4202 C   0  0  0  0  0  0  0  0  0  0  0  0
  -29.2645  -18.5973   23.1464 C   0  0  0  0  0  0  0  0  0  0  0  0
  -30.0367  -17.4683   25.5778 C   0  0  0  0  0  0  0  0  0  0  0  0
  -22.2405   -4.6087   24.5420 C   0  0  0  0  0  0  0  0  0  0  0  0
  -23.7778  -10.4090   20.9881 C   0  0  0  0  0  0  0  0  0  0  0  0
  -24.0907  -12.9329   20.7889 C   0  0  0  0  0  0  0  0  0  0  0  0
  -26.2342  -20.1131   18.5962 C   0  0  0  0  0  0  0  0  0  0  0  0
  -26.8820  -24.7596   23.6612 C   0  0  0  0  0  0  0  0  0  0  0  0
  -26.4632  -20.9880   19.6776 C   0  0  0  0  0  0  0  0  0  0  0  0
  -28.1755  -25.0438   24.1216 C   0  0  0  0  0  0  0  0  0  0  0  0
  -28.7725  -19.1164   24.3438 C   0  0  0  0  0  0  0  0  0  0  0  0
  -30.5287  -16.9491   24.3802 C   0  0  0  0  0  0  0  0  0  0  0  0
  -30.1426  -17.5136   23.1645 C   0  0  0  0  0  0  0  0  0  0  0  0
  -29.1586  -18.5519   25.5595 C   0  0  0  0  0  0  0  0  0  0  0  0
  -22.3074   -8.1016   21.5325 C   0  0  0  0  0  0  0  0  0  0  0  0
  -27.6302  -24.0114   26.2538 C   0  0  0  0  0  0  0  0  0  0  0  0
  -22.1958   -5.9919   22.5617 C   0  0  0  0  0  0  0  0  0  0  0  0
  -23.4178   -4.0082   24.0960 C   0  0  0  0  0  0  0  0  0  0  0  0
  -21.6295   -5.6006   23.7749 C   0  0  0  0  0  0  0  0  0  0  0  0
  -24.5378  -11.6005   20.7074 C   0  0  0  0  0  0  0  0  0  0  0  0
  -25.1818  -13.6840   20.4256 C   0  0  0  0  0  0  0  0  0  0  0  0
  -22.8043  -13.4458   21.1599 C   0  0  0  0  0  0  0  0  0  0  0  0
  -28.2043  -24.0607   20.8564 C   0  0  0  0  0  0  0  0  0  0  0  0
  -29.4062  -27.0625   21.1151 C   0  0  0  0  0  0  0  0  0  0  0  0
  -30.3002  -29.6609   23.1389 C   0  0  0  0  0  0  0  0  0  0  0  0
  -30.6463  -14.7819   20.7068 C   0  0  0  0  0  0  0  0  0  0  0  0
  -27.1059  -20.1272   17.3653 C   0  0  0  0  0  0  0  0  0  0  0  0
  -26.4540  -25.1825   22.2826 C   0  0  0  0  0  0  0  0  0  0  0  0
  -29.1890  -25.7455   23.2561 C   0  0  0  0  0  0  0  0  0  0  0  0
  -28.4647  -20.7768   17.6066 C   0  0  0  0  0  0  0  0  0  0  0  0
  -29.5958  -12.3021   18.3779 C   0  0  0  0  0  0  0  0  0  0  0  0
  -28.2832  -22.1206   18.2965 C   0  0  0  0  0  0  0  0  0  0  0  0
  -28.1522  -12.0042   18.7870 C   0  0  0  0  0  0  0  0  0  0  0  0
  -30.4812  -12.5761   19.5915 C   0  0  0  0  0  0  0  0  0  0  0  0
  -28.5380  -13.3288   20.9072 C   0  0  0  0  0  0  0  0  0  0  0  0
  -27.6435  -21.9426   19.6793 C   0  0  1  0  0  0  0  0  0  0  0  0
  -27.6259  -25.3665   21.3233 C   0  0  1  0  0  0  0  0  0  0  0  0
  -27.5944  -13.1010   19.7139 C   0  0  2  0  0  0  0  0  0  0  0  0
  -27.8340  -20.2774   24.2996 C   0  0  0  0  0  0  0  0  0  0  0  0
  -32.8807  -16.2015   24.8226 C   0  0  0  0  0  0  0  0  0  0  0  0
  -31.2881  -31.9665   23.0641 C   0  0  0  0  0  0  0  0  0  0  0  0
  -32.1727  -25.8596   20.6571 C   0  0  0  0  0  0  0  0  0  0  0  0
  -33.1653  -27.9883   21.5242 C   0  0  0  0  0  0  0  0  0  0  0  0
  -31.7625  -28.0177   19.4617 C   0  0  0  0  0  0  0  0  0  0  0  0
  -27.8687  -30.8669   24.3188 C   0  0  0  0  0  0  0  0  0  0  0  0
  -31.4670  -15.7881   24.4245 C   0  0  0  0  0  0  0  0  0  0  0  0
  -30.6557  -16.9742   21.8698 C   0  0  0  0  0  0  0  0  0  0  0  0
  -28.6429  -19.0937   26.8602 C   0  0  0  0  0  0  0  0  0  0  0  0
  -29.4693  -22.2764   28.8219 C   0  0  0  0  0  0  0  0  0  0  0  0
  -28.7489  -20.9761   28.4984 C   0  0  0  0  0  0  0  0  0  0  0  0
  -29.3732  -23.3217   27.7175 C   0  0  0  0  0  0  0  0  0  1  0  0
  -30.6566  -27.6661   21.7079 C   0  0  1  0  0  0  0  0  0  0  0  0
  -30.0064  -31.1481   23.0579 C   0  0  2  0  0  0  0  0  0  0  0  0
  -31.9210  -27.3679   20.8536 C   0  0  0  0  0  0  0  0  0  0  0  0
  -25.8134  -11.5072   20.3224 N   0  0  0  0  0  0  0  0  0  0  0  0
  -26.1771  -12.7906   20.1586 N   0  0  0  0  0  0  0  0  0  0  0  0
  -28.7247  -26.1334   21.9139 N   0  0  0  0  0  0  0  0  0  0  0  0
  -29.8969  -13.6269   20.4283 N   0  0  0  0  0  0  0  0  0  0  0  0
  -25.3772  -15.0148   20.3115 N   0  0  0  0  0  0  0  0  0  0  0  0
  -21.7961  -12.5353   21.5047 N   0  0  0  0  0  0  0  0  0  0  0  0
  -27.2974  -23.2426   20.2102 N   0  0  0  0  0  0  0  0  0  0  0  0
  -30.3783  -29.0869   21.8877 N   0  0  0  0  0  0  0  0  0  0  0  0
  -30.0157  -15.7309   21.5020 N   0  0  0  0  0  0  0  0  0  0  0  0
  -29.1707  -31.5748   24.2157 N   0  3  0  0  0  0  0  0  0  0  0  0
  -29.2811  -20.3813   27.2500 N   0  3  0  0  0  0  0  0  0  0  0  0
  -22.5513  -14.6743   21.1692 O   0  0  0  0  0  0  0  0  0  0  0  0
  -29.3864  -23.8143   21.0656 O   0  0  0  0  0  0  0  0  0  0  0  0
  -29.0436  -27.4082   19.9879 O   0  0  0  0  0  0  0  0  0  0  0  0
  -30.4495  -29.0686   24.2054 O   0  0  0  0  0  0  0  0  0  0  0  0
  -31.7904  -14.9568   20.2740 O   0  0  0  0  0  0  0  0  0  0  0  0
  -21.5900   -6.9759   21.7985 O   0  0  0  0  0  0  0  0  0  0  0  0
  -27.9986  -23.6451   27.5116 O   0  0  0  0  0  0  0  0  0  1  0  0
  -24.0039   -3.0546   24.8318 F   0  0  0  0  0  0  0  0  0  0  0  0
  -20.4980   -6.1731   24.2081 F   0  0  0  0  0  0  0  0  0  0  0  0
  1  2  1  0  0  0  0
  1  5  2  0  0  0  0
  2  6  2  0  0  0  0
  3  8  2  0  0  0  0
  3 17  1  0  0  0  0
  4  9  1  0  0  0  0
  4 17  2  0  0  0  0
  5 19  1  0  0  0  0
  6 21  1  0  0  0  0
  7 10  2  0  0  0  0
  7 20  1  0  0  0  0
  8 27  1  0  0  0  0
  9 27  2  0  0  0  0
 10 28  1  0  0  0  0
 11 12  2  0  0  0  0
 11 29  1  0  0  0  0
 12 30  1  0  0  0  0
 13 22  1  0  0  0  0
 13 28  2  0  0  0  0
 14 23  2  0  0  0  0
 14 25  1  0  0  0  0
 15 24  1  0  0  0  0
 15 26  2  0  0  0  0
 16 30  2  0  0  0  0
 16 31  1  0  0  0  0
 17 32  1  0  0  0  0
 18 32  1  0  0  0  0
 18 33  2  0  0  0  0
 18 34  1  0  0  0  0
 19 21  2  0  0  0  0
 19 39  1  0  0  0  0
 20 22  2  0  0  0  0
 20 40  1  0  0  0  0
 21 48  1  0  0  0  0
 22 41  1  0  0  0  0
 23 26  1  0  0  0  0
 23 51  1  0  0  0  0
 24 25  2  0  0  0  0
 24 58  1  0  0  0  0
 25 59  1  0  0  0  0
 26 60  1  0  0  0  0
 27 83  1  0  0  0  0
 28 84  1  0  0  0  0
 29 31  2  0  0  0  0
 29 83  1  0  0  0  0
 30 85  1  0  0  0  0
 31 86  1  0  0  0  0
 32 67  2  0  0  0  0
 33 68  1  0  0  0  0
 33 71  1  0  0  0  0
 34 72  1  0  0  0  0
 34 78  2  0  0  0  0
 35 49  1  0  0  0  0
 35 73  1  0  0  0  0
 35 79  2  0  0  0  0
 36 64  1  0  0  0  0
 36 69  1  0  0  0  0
 36 80  2  0  0  0  0
 37 65  1  0  0  0  0
 37 74  1  0  0  0  0
 37 81  2  0  0  0  0
 38 70  1  0  0  0  0
 38 75  1  0  0  0  0
 38 82  2  0  0  0  0
 39 42  1  0  0  0  0
 40 49  1  0  0  0  0
 41 69  1  0  0  0  0
 42 44  1  0  0  0  0
 43 45  1  0  0  0  0
 43 46  1  0  0  0  0
 44 48  1  0  0  0  0
 45 50  1  0  0  0  0
 46 70  1  0  0  0  0
 47 50  1  0  0  0  0
 47 70  1  0  0  0  0
 48 73  1  0  0  0  0
 49 69  1  0  0  0  0
 50 68  1  0  0  0  0
 52 58  1  0  0  0  0
 53 65  1  0  0  0  0
 54 66  1  0  0  0  0
 55 66  1  0  0  0  0
 56 66  1  0  0  0  0
 57 76  1  0  0  0  0
 59 75  1  0  0  0  0
 60 77  1  0  0  0  0
 61 62  1  0  0  0  0
 61 63  1  0  0  0  0
 62 77  1  0  0  0  0
 63 84  1  0  0  0  0
 64 66  1  0  0  0  0
 64 74  1  0  0  0  0
 65 76  1  0  0  0  0
 67 68  1  0  0  0  0
M  CHG  2  76   1  77   1
M  ISO  4  38 100  63 101  75 100  84 101
M  END
> <Batch ID>
0036

> <Smiles>
CCc1cc(CNCC[101CH2:1][101O:1]c2ccc3c(c2)CN(C(=O)C(NC(=O)C(C)NC)C(C)(C)C)C(C(=O)NC2CCCc4ccccc42)C3)c(C)cc1C[100NH:0][100C:0](=O)N1CCCC(n2nc(-c3ccc(Oc4ccc(F)cc4F)cc3)c(C(N)=O)c2N)C1

> <Shape>
0.235

> <Color>
0.201

> <Negative vol penalty>
0.000

$$$$

  -OEChem-04052316563D

 86 95  0     1  0  0  0  0  0999 V2000
  -26.3377  -17.7655   18.1894 C   0  0  0  0  0  0  0  0  0  0  0  0
  -25.5042  -18.8627   18.3812 C   0  0  0  0  0  0  0  0  0  0  0  0
  -23.4910  -14.0576   19.4288 C   0  0  0  0  0  0  0  0  0  0  0  0
  -24.6911  -14.4963   21.4792 C   0  0  0  0  0  0  0  0  0  0  0  0
  -27.6032  -17.7423   18.7742 C   0  0  0  0  0  0  0  0  0  0  0  0
  -25.9353  -19.9370   19.1587 C   0  0  0  0  0  0  0  0  0  0  0  0
  -24.6336  -25.8594   18.3004 C   0  0  0  0  0  0  0  0  0  0  0  0
  -24.5065  -13.1935   19.0193 C   0  0  0  0  0  0  0  0  0  0  0  0
  -25.7066  -13.6321   21.0697 C   0  0  0  0  0  0  0  0  0  0  0  0
  -23.6924  -26.7069   18.8833 C   0  0  0  0  0  0  0  0  0  0  0  0
  -28.7866  -11.8202   20.4060 C   0  0  0  0  0  0  0  0  0  0  0  0
  -30.1050  -12.2432   20.5744 C   0  0  0  0  0  0  0  0  0  0  0  0
  -25.3656  -27.4870   20.4361 C   0  0  0  0  0  0  0  0  0  0  0  0
  -21.0103  -26.6498   22.9307 C   0  0  0  0  0  0  0  0  0  0  0  0
  -29.6785  -14.1425   19.1433 C   0  0  0  0  0  0  0  0  0  0  0  0
  -23.5833  -14.7091   20.6588 C   0  0  0  0  0  0  0  0  0  0  0  0
  -21.3858  -15.2725   21.8255 C   0  0  0  0  0  0  0  0  0  0  0  0
  -28.0538  -18.8210   19.5513 C   0  0  0  0  0  0  0  0  0  0  0  0
  -25.9471  -25.8112   18.7889 C   0  0  0  0  0  0  0  0  0  0  0  0
  -27.2074  -19.9276   19.7555 C   0  0  0  0  0  0  0  0  0  0  0  0
  -26.3221  -26.6399   19.8561 C   0  0  0  0  0  0  0  0  0  0  0  0
  -18.8086  -27.5712   22.4717 C   0  0  0  0  0  0  0  0  0  0  0  0
  -18.2319  -26.3166   22.7434 C   0  0  0  0  0  0  0  0  0  0  0  0
  -20.2010  -27.7219   22.5562 C   0  0  0  0  0  0  0  0  0  0  0  0
  -20.4379  -25.4144   23.2194 C   0  0  0  0  0  0  0  0  0  0  0  0
  -19.0562  -25.2488   23.1292 C   0  0  0  0  0  0  0  0  0  0  0  0
  -25.6143  -12.9808   19.8397 C   0  0  0  0  0  0  0  0  0  0  0  0
  -24.0576  -27.5188   19.9531 C   0  0  0  0  0  0  0  0  0  0  0  0
  -27.9141  -12.5583   19.6061 C   0  0  0  0  0  0  0  0  0  0  0  0
  -30.5510  -13.4044   19.9431 C   0  0  0  0  0  0  0  0  0  0  0  0
  -28.3600  -13.7194   18.9748 C   0  0  0  0  0  0  0  0  0  0  0  0
  -22.5350  -15.6023   21.0821 C   0  0  0  0  0  0  0  0  0  0  0  0
  -20.7141  -16.4623   21.9651 C   0  0  0  0  0  0  0  0  0  0  0  0
  -20.9635  -14.0041   22.3435 C   0  0  0  0  0  0  0  0  0  0  0  0
  -27.7715  -23.5629   20.1006 C   0  0  0  0  0  0  0  0  0  0  0  0
  -30.0639  -25.8482   19.8884 C   0  0  0  0  0  0  0  0  0  0  0  0
  -30.8374  -29.1661   19.6889 C   0  0  0  0  0  0  0  0  0  0  0  0
  -21.7957  -21.9868   22.8153 C   0  0  0  0  0  0  0  0  0  0  0  0
  -29.4113  -18.7298   20.2021 C   0  0  0  0  0  0  0  0  0  0  0  0
  -26.9574  -24.9111   18.1319 C   0  0  0  0  0  0  0  0  0  0  0  0
  -17.9704  -28.7451   22.0305 C   0  0  0  0  0  0  0  0  0  0  0  0
  -16.7391  -26.1070   22.6896 C   0  0  0  0  0  0  0  0  0  0  0  0
  -27.7248  -26.6405   20.4046 C   0  0  0  0  0  0  0  0  0  0  0  0
  -29.9380  -20.0722   20.7031 C   0  0  0  0  0  0  0  0  0  0  0  0
  -16.4843  -28.5754   22.3399 C   0  0  0  0  0  0  0  0  0  0  0  0
  -16.0050  -27.1953   21.9086 C   0  0  0  0  0  0  0  0  0  0  0  0
  -20.7477  -20.7863   19.5660 C   0  0  0  0  0  0  0  0  0  0  0  0
  -28.8523  -20.8183   21.4721 C   0  0  0  0  0  0  0  0  0  0  0  0
  -20.9930  -19.2826   19.7037 C   0  0  0  0  0  0  0  0  0  0  0  0
  -21.8309  -21.5906   20.2787 C   0  0  0  0  0  0  0  0  0  0  0  0
  -22.2507  -19.7463   21.8585 C   0  0  0  0  0  0  0  0  0  0  0  0
  -27.6489  -21.1229   20.5719 C   0  0  1  0  0  0  0  0  0  0  0  0
  -28.1322  -24.5668   19.0423 C   0  0  1  0  0  0  0  0  0  0  0  0
  -21.1770  -18.8776   21.1782 C   0  0  2  0  0  0  0  0  0  0  0  0
  -18.4673  -23.9120   23.4631 C   0  0  0  0  0  0  0  0  0  0  0  0
  -32.7979  -30.7279   19.5665 C   0  0  0  0  0  0  0  0  0  0  0  0
  -30.5789  -25.4312   22.8668 C   0  0  0  0  0  0  0  0  0  0  0  0
  -31.8172  -27.6071   22.8862 C   0  0  0  0  0  0  0  0  0  0  0  0
  -32.6413  -25.7175   21.4815 C   0  0  0  0  0  0  0  0  0  0  0  0
  -29.9851  -30.2155   17.0561 C   0  0  0  0  0  0  0  0  0  0  0  0
  -20.8734  -29.0339   22.2395 C   0  0  0  0  0  0  0  0  0  0  0  0
  -21.3272  -24.2848   23.6257 C   0  0  0  0  0  0  0  0  0  0  0  0
  -20.9648  -29.3334   20.7417 C   0  0  0  0  0  0  0  0  0  0  0  0
  -21.8230  -28.3324   19.9770 C   0  0  0  0  0  0  0  0  0  1  0  0
  -30.5519  -26.9595   20.7861 C   0  0  1  0  0  0  0  0  0  0  0  0
  -31.7773  -29.9279   18.7720 C   0  0  2  0  0  0  0  0  0  0  0  0
  -31.3703  -26.4276   21.9963 C   0  0  0  0  0  0  0  0  0  0  0  0
  -22.5931  -16.8999   20.7711 N   0  0  0  0  0  0  0  0  0  0  0  0
  -21.4720  -17.3960   21.3216 N   0  0  0  0  0  0  0  0  0  0  0  0
  -28.6748  -25.7386   19.7326 N   0  0  0  0  0  0  0  0  0  0  0  0
  -21.9425  -21.1693   21.6823 N   0  0  0  0  0  0  0  0  0  0  0  0
  -19.5549  -16.7905   22.5742 N   0  0  0  0  0  0  0  0  0  0  0  0
  -21.7722  -12.8837   22.1090 N   0  0  0  0  0  0  0  0  0  0  0  0
  -27.9357  -22.2482   19.7082 N   0  0  0  0  0  0  0  0  0  0  0  0
  -31.2855  -27.8844   19.9288 N   0  0  0  0  0  0  0  0  0  0  0  0
  -21.5115  -23.3231   22.5617 N   0  0  0  0  0  0  0  0  0  0  0  0
  -31.0093  -30.8704   17.9101 N   0  3  0  0  0  0  0  0  0  0  0  0
  -19.8921  -13.8652   22.9811 O   0  0  0  0  0  0  0  0  0  0  0  0
  -27.3752  -23.9524   21.1928 O   0  0  0  0  0  0  0  0  0  0  0  0
  -30.8852  -25.1092   19.3398 O   0  0  0  0  0  0  0  0  0  0  0  0
  -29.8106  -29.6600   20.1494 O   0  0  0  0  0  0  0  0  0  0  0  0
  -21.9046  -21.5564   23.9686 O   0  0  0  0  0  0  0  0  0  0  0  0
  -26.6052  -12.1374   19.4405 O   0  0  0  0  0  0  0  0  0  0  0  0
  -23.1408  -28.3465   20.5243 O   0  0  0  0  0  0  0  0  0  1  0  0
  -31.8167  -13.8113   20.1062 F   0  0  0  0  0  0  0  0  0  0  0  0
  -27.5261  -14.4333   18.2062 F   0  0  0  0  0  0  0  0  0  0  0  0
  1  2  1  0  0  0  0
  1  5  2  0  0  0  0
  2  6  2  0  0  0  0
  3  8  2  0  0  0  0
  3 16  1  0  0  0  0
  4  9  1  0  0  0  0
  4 16  2  0  0  0  0
  5 18  1  0  0  0  0
  6 20  1  0  0  0  0
  7 10  2  0  0  0  0
  7 19  1  0  0  0  0
  8 27  1  0  0  0  0
  9 27  2  0  0  0  0
 10 28  1  0  0  0  0
 11 12  2  0  0  0  0
 11 29  1  0  0  0  0
 12 30  1  0  0  0  0
 13 21  1  0  0  0  0
 13 28  2  0  0  0  0
 14 24  1  0  0  0  0
 14 25  2  0  0  0  0
 15 30  2  0  0  0  0
 15 31  1  0  0  0  0
 16 32  1  0  0  0  0
 17 32  1  0  0  0  0
 17 33  2  0  0  0  0
 17 34  1  0  0  0  0
 18 20  2  0  0  0  0
 18 39  1  0  0  0  0
 19 21  2  0  0  0  0
 19 40  1  0  0  0  0
 20 52  1  0  0  0  0
 21 43  1  0  0  0  0
 22 23  1  0  0  0  0
 22 24  2  0  0  0  0
 22 41  1  0  0  0  0
 23 26  2  0  0  0  0
 23 42  1  0  0  0  0
 24 61  1  0  0  0  0
 25 26  1  0  0  0  0
 25 62  1  0  0  0  0
 26 55  1  0  0  0  0
 27 83  1  0  0  0  0
 28 84  1  0  0  0  0
 29 31  2  0  0  0  0
 29 83  1  0  0  0  0
 30 85  1  0  0  0  0
 31 86  1  0  0  0  0
 32 68  2  0  0  0  0
 33 69  1  0  0  0  0
 33 72  1  0  0  0  0
 34 73  1  0  0  0  0
 34 78  2  0  0  0  0
 35 53  1  0  0  0  0
 35 74  1  0  0  0  0
 35 79  2  0  0  0  0
 36 65  1  0  0  0  0
 36 70  1  0  0  0  0
 36 80  2  0  0  0  0
 37 66  1  0  0  0  0
 37 75  1  0  0  0  0
 37 81  2  0  0  0  0
 38 71  1  0  0  0  0
 38 76  1  0  0  0  0
 38 82  2  0  0  0  0
 39 44  1  0  0  0  0
 40 53  1  0  0  0  0
 41 45  1  0  0  0  0
 42 46  1  0  0  0  0
 43 70  1  0  0  0  0
 44 48  1  0  0  0  0
 45 46  1  0  0  0  0
 47 49  1  0  0  0  0
 47 50  1  0  0  0  0
 48 52  1  0  0  0  0
 49 54  1  0  0  0  0
 50 71  1  0  0  0  0
 51 54  1  0  0  0  0
 51 71  1  0  0  0  0
 52 74  1  0  0  0  0
 53 70  1  0  0  0  0
 54 69  1  0  0  0  0
 56 66  1  0  0  0  0
 57 67  1  0  0  0  0
 58 67  1  0  0  0  0
 59 67  1  0  0  0  0
 60 77  1  0  0  0  0
 61 63  1  0  0  0  0
 62 76  1  0  0  0  0
 63 64  1  0  0  0  0
 64 84  1  0  0  0  0
 65 67  1  0  0  0  0
 65 75  1  0  0  0  0
 66 77  1  0  0  0  0
 68 69  1  0  0  0  0
M  CHG  1  77   1
M  ISO  4  38 100  64 101  76 100  84 101
M  END
> <Batch ID>
0036

> <Smiles>
CNC(C)C(=O)NC(C(=O)N1Cc2cc([101O:1][101CH2:1]CCc3cc(C[100NH:0][100C:0](=O)N4CCCC(n5nc(-c6ccc(Oc7ccc(F)cc7F)cc6)c(C(N)=O)c5N)C4)c(C)c4c3CCCC4)ccc2CC1C(=O)NC1CCCc2ccccc21)C(C)(C)C

> <Shape>
0.246

> <Color>
0.063

> <Negative vol penalty>
0.000

$$$$

  -OEChem-04052316563D

 81 89  0     1  0  0  0  0  0999 V2000
  -20.5484  -24.0210   20.3962 C   0  0  0  0  0  0  0  0  0  0  0  0
  -21.8797  -23.6465   20.5472 C   0  0  0  0  0  0  0  0  0  0  0  0
  -22.3085  -28.6137   20.7806 C   0  0  0  0  0  0  0  0  0  0  0  0
  -23.2029  -26.9640   22.3024 C   0  0  0  0  0  0  0  0  0  0  0  0
  -19.5323  -23.1642   20.8174 C   0  0  0  0  0  0  0  0  0  0  0  0
  -22.1957  -22.4153   21.1206 C   0  0  0  0  0  0  0  0  0  0  0  0
  -25.8162  -19.9574   18.5718 C   0  0  0  0  0  0  0  0  0  0  0  0
  -21.0257  -28.3716   21.2722 C   0  0  0  0  0  0  0  0  0  0  0  0
  -21.9202  -26.7220   22.7940 C   0  0  0  0  0  0  0  0  0  0  0  0
  -27.1308  -20.3782   18.7683 C   0  0  0  0  0  0  0  0  0  0  0  0
  -19.1954  -29.2247   23.9842 C   0  0  0  0  0  0  0  0  0  0  0  0
  -18.3914  -30.3284   24.2690 C   0  0  0  0  0  0  0  0  0  0  0  0
  -27.4815  -18.5476   20.2997 C   0  0  0  0  0  0  0  0  0  0  0  0
  -16.7588  -29.5529   22.6658 C   0  0  0  0  0  0  0  0  0  0  0  0
  -31.8754  -23.7284   22.8321 C   0  0  0  0  0  0  0  0  0  0  0  0
  -23.3971  -27.9098   21.2957 C   0  0  0  0  0  0  0  0  0  0  0  0
  -25.6519  -29.1026   21.2647 C   0  0  0  0  0  0  0  0  0  0  0  0
  -19.8359  -21.9177   21.3874 C   0  0  0  0  0  0  0  0  0  0  0  0
  -25.3203  -18.8330   19.2473 C   0  0  0  0  0  0  0  0  0  0  0  0
  -21.1828  -21.5415   21.5510 C   0  0  0  0  0  0  0  0  0  0  0  0
  -26.1610  -18.1131   20.1081 C   0  0  0  0  0  0  0  0  0  0  0  0
  -20.8316  -27.4258   22.2789 C   0  0  0  0  0  0  0  0  0  0  0  0
  -27.9628  -19.6750   19.6345 C   0  0  0  0  0  0  0  0  0  0  0  0
  -18.7811  -28.2851   23.0401 C   0  0  0  0  0  0  0  0  0  0  0  0
  -17.1731  -30.4924   23.6099 C   0  0  0  0  0  0  0  0  0  0  0  0
  -17.5628  -28.4492   22.3809 C   0  0  0  0  0  0  0  0  0  0  0  0
  -24.7223  -28.1590   20.7879 C   0  0  0  0  0  0  0  0  0  0  0  0
  -32.7343  -25.0034   21.3600 C   0  0  0  0  0  0  0  0  0  0  0  0
  -31.8545  -24.1958   20.6786 C   0  0  0  0  0  0  0  0  0  0  0  0
  -26.7479  -28.9458   20.4519 C   0  0  0  0  0  0  0  0  0  0  0  0
  -25.5351  -30.0371   22.3458 C   0  0  0  0  0  0  0  0  0  0  0  0
  -22.9935  -18.3267   21.3529 C   0  0  0  0  0  0  0  0  0  0  0  0
  -23.7947  -15.2156   20.9040 C   0  0  0  0  0  0  0  0  0  0  0  0
  -26.1597  -12.9382   19.9731 C   0  0  0  0  0  0  0  0  0  0  0  0
  -29.6994  -24.8103   17.6769 C   0  0  0  0  0  0  0  0  0  0  0  0
  -18.7044  -21.0457   21.8709 C   0  0  0  0  0  0  0  0  0  0  0  0
  -23.9079  -18.3764   19.0040 C   0  0  0  0  0  0  0  0  0  0  0  0
  -25.6831  -16.8876   20.8417 C   0  0  0  0  0  0  0  0  0  0  0  0
  -19.1169  -19.5982   22.1257 C   0  0  0  0  0  0  0  0  0  0  0  0
  -27.5077  -27.0286   15.9587 C   0  0  0  0  0  0  0  0  0  0  0  0
  -20.4174  -19.5459   22.9212 C   0  0  0  0  0  0  0  0  0  0  0  0
  -26.6525  -27.6340   17.0731 C   0  0  0  0  0  0  0  0  0  0  0  0
  -27.8337  -25.5618   16.2309 C   0  0  0  0  0  0  0  0  0  0  0  0
  -27.5930  -25.9029   18.6598 C   0  0  0  0  0  0  0  0  0  0  0  0
  -21.5653  -20.2036   22.1457 C   0  0  1  0  0  0  0  0  0  0  0  0
  -23.3533  -17.5195   20.1378 C   0  0  1  0  0  0  0  0  0  0  0  0
  -27.2853  -27.3965   18.4575 C   0  0  2  0  0  0  0  0  0  0  0  0
  -33.5977  -26.0699   20.8286 C   0  0  0  0  0  0  0  0  0  0  0  0
  -26.5337  -10.4671   19.7469 C   0  0  0  0  0  0  0  0  0  0  0  0
  -24.0984  -14.9870   23.9315 C   0  0  0  0  0  0  0  0  0  0  0  0
  -25.3595  -12.8539   23.5739 C   0  0  0  0  0  0  0  0  0  0  0  0
  -22.9806  -13.0316   22.8445 C   0  0  0  0  0  0  0  0  0  0  0  0
  -26.6432  -13.1604   17.0617 C   0  0  0  0  0  0  0  0  0  0  0  0
  -31.4893  -24.1229   19.2527 C   0  0  0  0  0  0  0  0  0  0  0  0
  -30.8638  -20.8902   21.4064 C   0  0  0  0  0  0  0  0  0  0  0  0
  -30.2801  -22.3046   21.4276 C   0  0  0  0  0  0  0  0  0  0  0  0
  -29.8281  -19.8138   21.1032 C   0  0  0  0  0  0  0  0  0  1  0  0
  -24.7698  -14.2593   21.5470 C   0  0  1  0  0  0  0  0  0  0  0  0
  -26.0939  -11.7409   19.0422 C   0  0  2  0  0  0  0  0  0  0  0  0
  -24.3108  -13.8071   22.9621 C   0  0  0  0  0  0  0  0  0  0  0  0
  -32.7429  -24.7072   22.7001 N   0  0  0  0  0  0  0  0  0  0  0  0
  -25.1871  -27.4550   19.7524 N   0  0  0  0  0  0  0  0  0  0  0  0
  -31.3123  -23.3841   21.6348 N   0  0  0  0  0  0  0  0  0  0  0  0
  -26.4208  -27.9567   19.5717 N   0  0  0  0  0  0  0  0  0  0  0  0
  -24.2923  -16.4846   20.5754 N   0  0  0  0  0  0  0  0  0  0  0  0
  -28.4325  -25.4053   17.5587 N   0  0  0  0  0  0  0  0  0  0  0  0
  -27.9498  -29.5591   20.4113 N   0  0  0  0  0  0  0  0  0  0  0  0
  -24.3404  -30.0659   23.0780 N   0  0  0  0  0  0  0  0  0  0  0  0
  -22.0549  -19.3127   21.1156 N   0  0  0  0  0  0  0  0  0  0  0  0
  -24.9527  -13.1647   20.6000 N   0  0  0  0  0  0  0  0  0  0  0  0
  -30.1967  -24.7063   18.9702 N   0  0  0  0  0  0  0  0  0  0  0  0
  -26.9776  -11.9538   17.8612 N   0  3  0  0  0  0  0  0  0  0  0  0
  -26.4566  -30.8347   22.6428 O   0  0  0  0  0  0  0  0  0  0  0  0
  -23.5268  -18.0728   22.4266 O   0  0  0  0  0  0  0  0  0  0  0  0
  -22.6361  -14.8478   20.6943 O   0  0  0  0  0  0  0  0  0  0  0  0
  -27.1809  -13.6036   20.1313 O   0  0  0  0  0  0  0  0  0  0  0  0
  -30.3421  -24.4068   16.7017 O   0  0  0  0  0  0  0  0  0  0  0  0
  -19.5801  -27.1896   22.7589 O   0  0  0  0  0  0  0  0  0  0  0  0
  -29.2461  -20.0839   19.8286 O   0  0  0  0  0  0  0  0  0  1  0  0
  -16.4004  -31.5515   23.8847 F   0  0  0  0  0  0  0  0  0  0  0  0
  -17.1590  -27.5493   21.4738 F   0  0  0  0  0  0  0  0  0  0  0  0
  1  2  1  0  0  0  0
  1  5  2  0  0  0  0
  2  6  2  0  0  0  0
  3  8  2  0  0  0  0
  3 16  1  0  0  0  0
  4  9  1  0  0  0  0
  4 16  2  0  0  0  0
  5 18  1  0  0  0  0
  6 20  1  0  0  0  0
  7 10  2  0  0  0  0
  7 19  1  0  0  0  0
  8 22  1  0  0  0  0
  9 22  2  0  0  0  0
 10 23  1  0  0  0  0
 11 12  2  0  0  0  0
 11 24  1  0  0  0  0
 12 25  1  0  0  0  0
 13 21  1  0  0  0  0
 13 23  2  0  0  0  0
 14 25  2  0  0  0  0
 14 26  1  0  0  0  0
 15 61  2  0  0  0  0
 15 63  1  0  0  0  0
 16 27  1  0  0  0  0
 17 27  1  0  0  0  0
 17 30  2  0  0  0  0
 17 31  1  0  0  0  0
 18 20  2  0  0  0  0
 18 36  1  0  0  0  0
 19 21  2  0  0  0  0
 19 37  1  0  0  0  0
 20 45  1  0  0  0  0
 21 38  1  0  0  0  0
 22 78  1  0  0  0  0
 23 79  1  0  0  0  0
 24 26  2  0  0  0  0
 24 78  1  0  0  0  0
 25 80  1  0  0  0  0
 26 81  1  0  0  0  0
 27 62  2  0  0  0  0
 28 29  2  0  0  0  0
 28 48  1  0  0  0  0
 28 61  1  0  0  0  0
 29 54  1  0  0  0  0
 29 63  1  0  0  0  0
 30 64  1  0  0  0  0
 30 67  1  0  0  0  0
 31 68  1  0  0  0  0
 31 73  2  0  0  0  0
 32 46  1  0  0  0  0
 32 69  1  0  0  0  0
 32 74  2  0  0  0  0
 33 58  1  0  0  0  0
 33 65  1  0  0  0  0
 33 75  2  0  0  0  0
 34 59  1  0  0  0  0
 34 70  1  0  0  0  0
 34 76  2  0  0  0  0
 35 66  1  0  0  0  0
 35 71  1  0  0  0  0
 35 77  2  0  0  0  0
 36 39  1  0  0  0  0
 37 46  1  0  0  0  0
 38 65  1  0  0  0  0
 39 41  1  0  0  0  0
 40 42  1  0  0  0  0
 40 43  1  0  0  0  0
 41 45  1  0  0  0  0
 42 47  1  0  0  0  0
 43 66  1  0  0  0  0
 44 47  1  0  0  0  0
 44 66  1  0  0  0  0
 45 69  1  0  0  0  0
 46 65  1  0  0  0  0
 47 64  1  0  0  0  0
 49 59  1  0  0  0  0
 50 60  1  0  0  0  0
 51 60  1  0  0  0  0
 52 60  1  0  0  0  0
 53 72  1  0  0  0  0
 54 71  1  0  0  0  0
 55 56  1  0  0  0  0
 55 57  1  0  0  0  0
 56 63  1  0  0  0  0
 57 79  1  0  0  0  0
 58 60  1  0  0  0  0
 58 70  1  0  0  0  0
 59 72  1  0  0  0  0
 62 64  1  0  0  0  0
M  CHG  1  72   1
M  ISO  4  35 100  57 101  71 100  79 101
M  END
> <Batch ID>
0036

> <Smiles>
CNC(C)C(=O)NC(C(=O)N1Cc2cc([101O:1][101CH2:1]CCn3cnc(C)c3C[100NH:0][100C:0](=O)N3CCCC(n4nc(-c5ccc(Oc6ccc(F)cc6F)cc5)c(C(N)=O)c4N)C3)ccc2CC1C(=O)NC1CCCc2ccccc21)C(C)(C)C

> <Shape>
0.223

> <Color>
0.068

> <Negative vol penalty>
0.000

$$$$

  -OEChem-04052316563D

 88 97  0     1  0  0  0  0  0999 V2000
  -30.1525  -33.2397   24.3480 C   0  0  0  0  0  0  0  0  0  0  0  0
  -30.3918  -31.9527   23.8771 C   0  0  0  0  0  0  0  0  0  0  0  0
  -23.6355  -13.0649   23.5427 C   0  0  0  0  0  0  0  0  0  0  0  0
  -24.1196  -10.7475   23.0611 C   0  0  0  0  0  0  0  0  0  0  0  0
  -28.8555  -33.6296   24.6794 C   0  0  0  0  0  0  0  0  0  0  0  0
  -29.3343  -31.0544   23.7385 C   0  0  0  0  0  0  0  0  0  0  0  0
  -28.7020  -26.7494   19.4289 C   0  0  0  0  0  0  0  0  0  0  0  0
  -23.0535  -12.6916   24.7541 C   0  0  0  0  0  0  0  0  0  0  0  0
  -23.5377  -10.3741   24.2725 C   0  0  0  0  0  0  0  0  0  0  0  0
  -28.9602  -25.3793   19.4266 C   0  0  0  0  0  0  0  0  0  0  0  0
  -24.0914  -11.7988   27.8458 C   0  0  0  0  0  0  0  0  0  0  0  0
  -24.4217  -12.5411   28.9796 C   0  0  0  0  0  0  0  0  0  0  0  0
  -26.6431  -24.9478   19.9403 C   0  0  0  0  0  0  0  0  0  0  0  0
  -29.8805  -20.3049   19.2902 C   0  0  0  0  0  0  0  0  0  0  0  0
  -22.0959  -13.1246   29.2751 C   0  0  0  0  0  0  0  0  0  0  0  0
  -24.1685  -12.0928   22.6962 C   0  0  0  0  0  0  0  0  0  0  0  0
  -24.1499  -13.1546   20.3767 C   0  0  0  0  0  0  0  0  0  0  0  0
  -27.7803  -32.7387   24.5356 C   0  0  0  0  0  0  0  0  0  0  0  0
  -27.4125  -27.2302   19.6980 C   0  0  0  0  0  0  0  0  0  0  0  0
  -28.0220  -31.4323   24.0696 C   0  0  0  0  0  0  0  0  0  0  0  0
  -26.3705  -26.3243   19.9428 C   0  0  0  0  0  0  0  0  0  0  0  0
  -28.5682  -20.2544   19.7469 C   0  0  0  0  0  0  0  0  0  0  0  0
  -30.2575  -19.5434   18.1896 C   0  0  0  0  0  0  0  0  0  0  0  0
  -23.0046  -11.3462   25.1190 C   0  0  0  0  0  0  0  0  0  0  0  0
  -27.9314  -24.4784   19.6852 C   0  0  0  0  0  0  0  0  0  0  0  0
  -22.7634  -11.7195   27.4266 C   0  0  0  0  0  0  0  0  0  0  0  0
  -23.4240  -13.2039   29.6943 C   0  0  0  0  0  0  0  0  0  0  0  0
  -21.7656  -12.3824   28.1413 C   0  0  0  0  0  0  0  0  0  0  0  0
  -24.7694  -12.4778   21.4444 C   0  0  0  0  0  0  0  0  0  0  0  0
  -27.6783  -19.4332   19.0735 C   0  0  0  0  0  0  0  0  0  0  0  0
  -29.2920  -18.7539   17.5860 C   0  0  0  0  0  0  0  0  0  0  0  0
  -25.1379  -13.2812   19.4310 C   0  0  0  0  0  0  0  0  0  0  0  0
  -22.8020  -13.6267   20.2510 C   0  0  0  0  0  0  0  0  0  0  0  0
  -26.1294  -29.0707   21.9497 C   0  0  0  0  0  0  0  0  0  0  0  0
  -30.4321  -14.5304   18.1268 C   0  0  0  0  0  0  0  0  0  0  0  0
  -23.4810  -28.8256   20.0927 C   0  0  0  0  0  0  0  0  0  0  0  0
  -21.7452  -27.0659   17.7396 C   0  0  0  0  0  0  0  0  0  0  0  0
  -26.4027  -33.1904   24.9515 C   0  0  0  0  0  0  0  0  0  0  0  0
  -27.1445  -28.7100   19.6703 C   0  0  0  0  0  0  0  0  0  0  0  0
  -24.9643  -26.7885   20.2174 C   0  0  0  0  0  0  0  0  0  0  0  0
  -25.2832  -32.2985   24.4209 C   0  0  0  0  0  0  0  0  0  0  0  0
  -29.7155  -11.1677   19.1362 C   0  0  0  0  0  0  0  0  0  0  0  0
  -24.4072  -17.8239   20.4218 C   0  0  0  0  0  0  0  0  0  0  0  0
  -25.6231  -30.8277   24.6401 C   0  0  0  0  0  0  0  0  0  0  0  0
  -25.8695  -17.9116   19.9856 C   0  0  0  0  0  0  0  0  0  0  0  0
  -28.3270  -11.2701   19.7661 C   0  0  0  0  0  0  0  0  0  0  0  0
  -30.5456  -12.4184   19.4079 C   0  0  0  0  0  0  0  0  0  0  0  0
  -28.4987  -13.7941   19.6071 C   0  0  0  0  0  0  0  0  0  0  0  0
  -23.4670  -18.3312   19.3397 C   0  0  0  0  0  0  0  0  0  0  0  0
  -25.2639  -19.8321   18.4472 C   0  0  0  0  0  0  0  0  0  0  0  0
  -26.8975  -30.4371   23.8820 C   0  0  1  0  0  0  0  0  0  0  0  0
  -26.2300  -19.3360   19.5277 C   0  0  2  0  0  0  0  0  0  0  0  0
  -25.9042  -29.1076   20.4645 C   0  0  1  0  0  0  0  0  0  0  0  0
  -27.6165  -12.5638   19.3304 C   0  0  2  0  0  0  0  0  0  0  0  0
  -31.6620  -19.5928   17.6955 C   0  0  0  0  0  0  0  0  0  0  0  0
  -19.5940  -27.0951   16.4477 C   0  0  0  0  0  0  0  0  0  0  0  0
  -21.9796  -27.8832   22.5762 C   0  0  0  0  0  0  0  0  0  0  0  0
  -20.1638  -27.0397   21.0730 C   0  0  0  0  0  0  0  0  0  0  0  0
  -20.7049  -29.4742   21.1276 C   0  0  0  0  0  0  0  0  0  0  0  0
  -23.1681  -27.2238   15.1493 C   0  0  0  0  0  0  0  0  0  0  0  0
  -28.1526  -21.0787   20.9411 C   0  0  0  0  0  0  0  0  0  0  0  0
  -29.6404  -17.9162   16.3994 C   0  0  0  0  0  0  0  0  0  0  0  0
  -29.6285  -15.7496   17.7506 C   0  0  0  0  0  0  0  0  0  0  0  0
  -30.4100  -16.6449   16.7941 C   0  0  0  0  0  0  0  0  0  0  0  0
  -27.3779  -22.3296   20.5409 C   0  0  0  0  0  0  0  0  0  1  0  0
  -22.3136  -27.8715   20.0160 C   0  0  1  0  0  0  0  0  0  0  0  0
  -21.0590  -27.5031   16.4580 C   0  0  2  0  0  0  0  0  0  0  0  0
  -21.3173  -28.0582   21.1950 C   0  0  0  0  0  0  0  0  0  0  0  0
  -26.0516  -12.1941   21.2005 N   0  0  0  0  0  0  0  0  0  0  0  0
  -28.0075  -18.6790   18.0010 N   0  0  0  0  0  0  0  0  0  0  0  0
  -26.2459  -12.6950   19.9687 N   0  0  0  0  0  0  0  0  0  0  0  0
  -24.7540  -28.2453   20.1856 N   0  0  0  0  0  0  0  0  0  0  0  0
  -29.8269  -13.6272   19.0009 N   0  0  0  0  0  0  0  0  0  0  0  0
  -25.1584  -13.8355   18.2003 N   0  0  0  0  0  0  0  0  0  0  0  0
  -21.8415  -12.7670   19.7008 N   0  0  0  0  0  0  0  0  0  0  0  0
  -26.6125  -30.2540   22.4750 N   0  0  0  0  0  0  0  0  0  0  0  0
  -21.7198  -28.0582   18.6966 N   0  0  0  0  0  0  0  0  0  0  0  0
  -23.8618  -19.7190   18.9550 N   0  3  0  0  0  0  0  0  0  0  0  0
  -21.7268  -26.8869   15.2767 N   0  3  0  0  0  0  0  0  0  0  0  0
  -22.4628  -14.7827   20.6006 O   0  0  0  0  0  0  0  0  0  0  0  0
  -25.8817  -28.0451   22.5730 O   0  0  0  0  0  0  0  0  0  0  0  0
  -31.5627  -14.3852   17.6545 O   0  0  0  0  0  0  0  0  0  0  0  0
  -23.2717  -30.0409   20.0638 O   0  0  0  0  0  0  0  0  0  0  0  0
  -22.2498  -25.9540   17.8791 O   0  0  0  0  0  0  0  0  0  0  0  0
  -22.4369  -10.9816   26.3011 O   0  0  0  0  0  0  0  0  0  0  0  0
  -28.1809  -23.1406   19.6843 O   0  0  0  0  0  0  0  0  0  1  0  0
  -23.7411  -13.9154   30.7840 F   0  0  0  0  0  0  0  0  0  0  0  0
  -20.4879  -12.3089   27.7441 F   0  0  0  0  0  0  0  0  0  0  0  0
  1  2  1  0  0  0  0
  1  5  2  0  0  0  0
  2  6  2  0  0  0  0
  3  8  2  0  0  0  0
  3 16  1  0  0  0  0
  4  9  1  0  0  0  0
  4 16  2  0  0  0  0
  5 18  1  0  0  0  0
  6 20  1  0  0  0  0
  7 10  2  0  0  0  0
  7 19  1  0  0  0  0
  8 24  1  0  0  0  0
  9 24  2  0  0  0  0
 10 25  1  0  0  0  0
 11 12  2  0  0  0  0
 11 26  1  0  0  0  0
 12 27  1  0  0  0  0
 13 21  1  0  0  0  0
 13 25  2  0  0  0  0
 14 22  1  0  0  0  0
 14 23  2  0  0  0  0
 15 27  2  0  0  0  0
 15 28  1  0  0  0  0
 16 29  1  0  0  0  0
 17 29  1  0  0  0  0
 17 32  2  0  0  0  0
 17 33  1  0  0  0  0
 18 20  2  0  0  0  0
 18 38  1  0  0  0  0
 19 21  2  0  0  0  0
 19 39  1  0  0  0  0
 20 51  1  0  0  0  0
 21 40  1  0  0  0  0
 22 30  2  0  0  0  0
 22 61  1  0  0  0  0
 23 31  1  0  0  0  0
 23 55  1  0  0  0  0
 24 85  1  0  0  0  0
 25 86  1  0  0  0  0
 26 28  2  0  0  0  0
 26 85  1  0  0  0  0
 27 87  1  0  0  0  0
 28 88  1  0  0  0  0
 29 69  2  0  0  0  0
 30 52  1  0  0  0  0
 30 70  1  0  0  0  0
 31 62  1  0  0  0  0
 31 70  2  0  0  0  0
 32 71  1  0  0  0  0
 32 74  1  0  0  0  0
 33 75  1  0  0  0  0
 33 80  2  0  0  0  0
 34 53  1  0  0  0  0
 34 76  1  0  0  0  0
 34 81  2  0  0  0  0
 35 63  1  0  0  0  0
 35 73  1  0  0  0  0
 35 82  2  0  0  0  0
 36 66  1  0  0  0  0
 36 72  1  0  0  0  0
 36 83  2  0  0  0  0
 37 67  1  0  0  0  0
 37 77  1  0  0  0  0
 37 84  2  0  0  0  0
 38 41  1  0  0  0  0
 39 53  1  0  0  0  0
 40 72  1  0  0  0  0
 41 44  1  0  0  0  0
 42 46  1  0  0  0  0
 42 47  1  0  0  0  0
 43 45  1  0  0  0  0
 43 49  1  0  0  0  0
 44 51  1  0  0  0  0
 45 52  1  0  0  0  0
 46 54  1  0  0  0  0
 47 73  1  0  0  0  0
 48 54  1  0  0  0  0
 48 73  1  0  0  0  0
 49 78  1  0  0  0  0
 50 52  1  0  0  0  0
 50 78  1  0  0  0  0
 51 76  1  0  0  0  0
 53 72  1  0  0  0  0
 54 71  1  0  0  0  0
 56 67  1  0  0  0  0
 57 68  1  0  0  0  0
 58 68  1  0  0  0  0
 59 68  1  0  0  0  0
 60 79  1  0  0  0  0
 61 65  1  0  0  0  0
 62 64  1  0  0  0  0
 63 64  1  0  0  0  0
 65 86  1  0  0  0  0
 66 68  1  0  0  0  0
 66 77  1  0  0  0  0
 67 79  1  0  0  0  0
 69 71  1  0  0  0  0
M  CHG  2  78   1  79   1
M  ISO  4  35 100  63 100  65 101  86 101
M  END
> <Batch ID>
0036

> <Smiles>
CNC(C)C(=O)NC(C(=O)N1Cc2cc([101O:1][101CH2:1]Cc3cc(C)c(CC[100CH2:0][100C:0](=O)N4CCCC(n5nc(-c6ccc(Oc7ccc(F)cc7F)cc6)c(C(N)=O)c5N)C4)nc3C3CCCNC3)ccc2CC1C(=O)NC1CCCc2ccccc21)C(C)(C)C

> <Shape>
0.243

> <Color>
0.082

> <Negative vol penalty>
0.000

$$$$

  -OEChem-04052316563D

 91 99  0     1  0  0  0  0  0999 V2000
  -22.7483   -8.5760   20.6172 C   0  0  0  0  0  0  0  0  0  0  0  0
  -22.1694   -9.8407   20.6469 C   0  0  0  0  0  0  0  0  0  0  0  0
  -28.0607  -28.2609   19.2565 C   0  0  0  0  0  0  0  0  0  0  0  0
  -27.4170  -27.0105   21.2210 C   0  0  0  0  0  0  0  0  0  0  0  0
  -24.0549   -8.3979   21.0697 C   0  0  0  0  0  0  0  0  0  0  0  0
  -22.8966  -10.9279   21.1302 C   0  0  0  0  0  0  0  0  0  0  0  0
  -22.6229  -16.7151   19.1454 C   0  0  0  0  0  0  0  0  0  0  0  0
  -29.1011  -27.3612   19.0247 C   0  0  0  0  0  0  0  0  0  0  0  0
  -28.4574  -26.1108   20.9892 C   0  0  0  0  0  0  0  0  0  0  0  0
  -21.9462  -17.8382   19.6192 C   0  0  0  0  0  0  0  0  0  0  0  0
  -31.7038  -25.1888   17.7124 C   0  0  0  0  0  0  0  0  0  0  0  0
  -31.8880  -24.7327   16.4072 C   0  0  0  0  0  0  0  0  0  0  0  0
  -23.9326  -18.5291   20.8007 C   0  0  0  0  0  0  0  0  0  0  0  0
  -19.0175  -23.6412   22.1341 C   0  0  0  0  0  0  0  0  0  0  0  0
  -19.8601  -22.3811   20.2530 C   0  0  0  0  0  0  0  0  0  0  0  0
  -19.7048  -21.3439   22.4295 C   0  0  0  0  0  0  0  0  0  0  0  0
  -29.6567  -23.8063   16.4160 C   0  0  0  0  0  0  0  0  0  0  0  0
  -27.2187  -28.0856   20.3546 C   0  0  0  0  0  0  0  0  0  0  0  0
  -24.8249  -28.9329   20.1106 C   0  0  0  0  0  0  0  0  0  0  0  0
  -24.8019   -9.4852   21.5498 C   0  0  0  0  0  0  0  0  0  0  0  0
  -23.9585  -16.4845   19.5051 C   0  0  0  0  0  0  0  0  0  0  0  0
  -24.2140  -10.7639   21.5908 C   0  0  0  0  0  0  0  0  0  0  0  0
  -24.6248  -17.4036   20.3281 C   0  0  0  0  0  0  0  0  0  0  0  0
  -19.3502  -23.5669   20.7816 C   0  0  0  0  0  0  0  0  0  0  0  0
  -19.1948  -22.5297   22.9581 C   0  0  0  0  0  0  0  0  0  0  0  0
  -20.0374  -21.2695   21.0769 C   0  0  0  0  0  0  0  0  0  0  0  0
  -29.2994  -26.2861   19.8910 C   0  0  0  0  0  0  0  0  0  0  0  0
  -22.6002  -18.7439   20.4493 C   0  0  0  0  0  0  0  0  0  0  0  0
  -30.4960  -24.9536   18.3695 C   0  0  0  0  0  0  0  0  0  0  0  0
  -30.8645  -24.0415   15.7590 C   0  0  0  0  0  0  0  0  0  0  0  0
  -29.4724  -24.2624   17.7213 C   0  0  0  0  0  0  0  0  0  0  0  0
  -26.1442  -29.0150   20.5949 C   0  0  0  0  0  0  0  0  0  0  0  0
  -24.2031  -30.0477   20.6174 C   0  0  0  0  0  0  0  0  0  0  0  0
  -24.2160  -27.9378   19.2771 C   0  0  0  0  0  0  0  0  0  0  0  0
  -25.4914  -14.1947   21.0898 C   0  0  0  0  0  0  0  0  0  0  0  0
  -28.1203  -15.8592   20.1729 C   0  0  0  0  0  0  0  0  0  0  0  0
  -29.4673  -18.8371   19.1909 C   0  0  0  0  0  0  0  0  0  0  0  0
  -25.2491  -33.4732   25.4157 C   0  0  0  0  0  0  0  0  0  0  0  0
  -26.1944   -9.2351   22.0724 C   0  0  0  0  0  0  0  0  0  0  0  0
  -24.6824  -15.2822   18.9640 C   0  0  0  0  0  0  0  0  0  0  0  0
  -26.0644  -17.2124   20.7272 C   0  0  0  0  0  0  0  0  0  0  0  0
  -27.0269  -10.5061   22.2200 C   0  0  0  0  0  0  0  0  0  0  0  0
  -25.1125  -34.5310   22.0188 C   0  0  0  0  0  0  0  0  0  0  0  0
  -26.2161  -11.5982   22.9104 C   0  0  0  0  0  0  0  0  0  0  0  0
  -25.2424  -33.2299   21.2250 C   0  0  0  0  0  0  0  0  0  0  0  0
  -25.9684  -34.5085   23.2833 C   0  0  0  0  0  0  0  0  0  0  0  0
  -25.8697  -32.0476   23.3714 C   0  0  0  0  0  0  0  0  0  0  0  0
  -24.9793  -11.9724   22.0848 C   0  0  1  0  0  0  0  0  0  0  0  0
  -25.8853  -14.8778   19.8107 C   0  0  1  0  0  0  0  0  0  0  0  0
  -24.9815  -32.0008   22.1163 C   0  0  2  0  0  0  0  0  0  0  0  0
  -20.3969  -25.6490   19.8566 C   0  0  0  0  0  0  0  0  0  0  0  0
  -31.6501  -19.8955   18.5487 C   0  0  0  0  0  0  0  0  0  0  0  0
  -28.9512  -15.9208   23.1081 C   0  0  0  0  0  0  0  0  0  0  0  0
  -30.5662  -17.7478   22.5404 C   0  0  0  0  0  0  0  0  0  0  0  0
  -30.8211  -15.4934   21.5034 C   0  0  0  0  0  0  0  0  0  0  0  0
  -28.4742  -19.5191   16.4876 C   0  0  0  0  0  0  0  0  0  0  0  0
  -19.1600  -24.7555   19.9010 C   0  0  0  0  0  0  0  0  0  0  0  0
  -18.8368  -22.6089   24.4129 C   0  0  0  0  0  0  0  0  0  0  0  0
  -20.5828  -20.0018   20.5112 C   0  0  0  0  0  0  0  0  0  1  0  0
  -21.9297  -27.9563   27.0732 C   0  0  0  0  0  0  0  0  0  0  0  0
  -23.0342  -28.7093   27.8168 C   0  0  0  0  0  0  0  0  0  0  0  0
  -21.7580  -26.5379   27.6196 C   0  0  0  0  0  0  0  0  0  0  0  0
  -23.2285  -30.1165   27.2478 C   0  0  0  0  0  0  0  0  0  0  0  0
  -20.6759  -25.7735   26.8532 C   0  0  0  0  0  0  0  0  0  0  0  0
  -24.3051  -30.8838   28.0212 C   0  0  0  0  0  0  0  0  0  0  0  0
  -20.5274  -24.3441   27.3822 C   0  0  0  0  0  0  0  0  0  0  0  0
  -24.5334  -32.2908   27.4770 C   0  0  0  0  0  0  0  0  0  0  0  0
  -19.4686  -23.5323   26.6461 C   0  0  0  0  0  0  0  0  0  0  0  0
  -28.9263  -16.9929   20.7595 C   0  0  1  0  0  0  0  0  0  0  0  0
  -30.3986  -19.1927   18.0461 C   0  0  2  0  0  0  0  0  0  0  0  0
  -29.7885  -16.5416   21.9721 C   0  0  0  0  0  0  0  0  0  0  0  0
  -26.3494  -30.0966   21.3512 N   0  0  0  0  0  0  0  0  0  0  0  0
  -25.1508  -30.7045   21.3458 N   0  0  0  0  0  0  0  0  0  0  0  0
  -26.7273  -16.0183   20.1776 N   0  0  0  0  0  0  0  0  0  0  0  0
  -25.6713  -33.3189   24.0849 N   0  0  0  0  0  0  0  0  0  0  0  0
  -22.9435  -30.5206   20.5065 N   0  0  0  0  0  0  0  0  0  0  0  0
  -24.9983  -26.8580   18.8454 N   0  0  0  0  0  0  0  0  0  0  0  0
  -25.3509  -12.8248   20.9758 N   0  0  0  0  0  0  0  0  0  0  0  0
  -29.6957  -17.5598   19.6572 N   0  0  0  0  0  0  0  0  0  0  0  0
  -24.9824  -32.2951   26.1025 N   0  0  0  0  0  0  0  0  0  0  0  0
  -29.7101  -20.0935   17.0789 N   0  3  0  0  0  0  0  0  0  0  0  0
  -19.8251  -23.3810   25.2158 N   0  3  0  0  0  0  0  0  0  0  0  0
  -23.0182  -28.0127   18.9123 O   0  0  0  0  0  0  0  0  0  0  0  0
  -25.3285  -14.8610   22.1052 O   0  0  0  0  0  0  0  0  0  0  0  0
  -28.7055  -14.8720   19.7204 O   0  0  0  0  0  0  0  0  0  0  0  0
  -28.6241  -19.6160   19.6302 O   0  0  0  0  0  0  0  0  0  0  0  0
  -25.1143  -34.5790   25.9504 O   0  0  0  0  0  0  0  0  0  0  0  0
  -30.3144  -25.4078   19.6650 O   0  0  0  0  0  0  0  0  0  0  0  0
  -21.9373  -19.8482   20.9170 O   0  0  0  0  0  0  0  0  0  1  0  0
  -31.0410  -23.6049   14.5051 F   0  0  0  0  0  0  0  0  0  0  0  0
  -28.3095  -24.0346   18.3469 F   0  0  0  0  0  0  0  0  0  0  0  0
  1  2  1  0  0  0  0
  1  5  2  0  0  0  0
  2  6  2  0  0  0  0
  3  8  2  0  0  0  0
  3 18  1  0  0  0  0
  4  9  1  0  0  0  0
  4 18  2  0  0  0  0
  5 20  1  0  0  0  0
  6 22  1  0  0  0  0
  7 10  2  0  0  0  0
  7 21  1  0  0  0  0
  8 27  1  0  0  0  0
  9 27  2  0  0  0  0
 10 28  1  0  0  0  0
 11 12  2  0  0  0  0
 11 29  1  0  0  0  0
 12 30  1  0  0  0  0
 13 23  1  0  0  0  0
 13 28  2  0  0  0  0
 14 24  1  0  0  0  0
 14 25  2  0  0  0  0
 15 24  2  0  0  0  0
 15 26  1  0  0  0  0
 16 25  1  0  0  0  0
 16 26  2  0  0  0  0
 17 30  2  0  0  0  0
 17 31  1  0  0  0  0
 18 32  1  0  0  0  0
 19 32  1  0  0  0  0
 19 33  2  0  0  0  0
 19 34  1  0  0  0  0
 20 22  2  0  0  0  0
 20 39  1  0  0  0  0
 21 23  2  0  0  0  0
 21 40  1  0  0  0  0
 22 48  1  0  0  0  0
 23 41  1  0  0  0  0
 24 57  1  0  0  0  0
 25 58  1  0  0  0  0
 26 59  1  0  0  0  0
 27 88  1  0  0  0  0
 28 89  1  0  0  0  0
 29 31  2  0  0  0  0
 29 88  1  0  0  0  0
 30 90  1  0  0  0  0
 31 91  1  0  0  0  0
 32 72  2  0  0  0  0
 33 73  1  0  0  0  0
 33 76  1  0  0  0  0
 34 77  1  0  0  0  0
 34 83  2  0  0  0  0
 35 49  1  0  0  0  0
 35 78  1  0  0  0  0
 35 84  2  0  0  0  0
 36 69  1  0  0  0  0
 36 74  1  0  0  0  0
 36 85  2  0  0  0  0
 37 70  1  0  0  0  0
 37 79  1  0  0  0  0
 37 86  2  0  0  0  0
 38 75  1  0  0  0  0
 38 80  1  0  0  0  0
 38 87  2  0  0  0  0
 39 42  1  0  0  0  0
 40 49  1  0  0  0  0
 41 74  1  0  0  0  0
 42 44  1  0  0  0  0
 43 45  1  0  0  0  0
 43 46  1  0  0  0  0
 44 48  1  0  0  0  0
 45 50  1  0  0  0  0
 46 75  1  0  0  0  0
 47 50  1  0  0  0  0
 47 75  1  0  0  0  0
 48 78  1  0  0  0  0
 49 74  1  0  0  0  0
 50 73  1  0  0  0  0
 51 57  1  0  0  0  0
 52 70  1  0  0  0  0
 53 71  1  0  0  0  0
 54 71  1  0  0  0  0
 55 71  1  0  0  0  0
 56 81  1  0  0  0  0
 58 82  1  0  0  0  0
 59 89  1  0  0  0  0
 60 61  1  0  0  0  0
 60 62  1  0  0  0  0
 61 63  1  0  0  0  0
 62 64  1  0  0  0  0
 63 65  1  0  0  0  0
 64 66  1  0  0  0  0
 65 67  1  0  0  0  0
 66 68  1  0  0  0  0
 67 80  1  0  0  0  0
 68 82  1  0  0  0  0
 69 71  1  0  0  0  0
 69 79  1  0  0  0  0
 70 81  1  0  0  0  0
 72 73  1  0  0  0  0
M  CHG  2  81   1  82   1
M  ISO  4  38 100  59 101  80 100  89 101
M  END
> <Batch ID>
0036

> <Smiles>
CCc1cc(CNCCCCCCCCC[100NH:0][100C:0](=O)N2CCCC(n3nc(-c4ccc(Oc5ccc(F)cc5F)cc4)c(C(N)=O)c3N)C2)cc([101CH2:1][101O:1]c2ccc3c(c2)CN(C(=O)C(NC(=O)C(C)NC)C(C)(C)C)C(C(=O)NC2CCCc4ccccc42)C3)c1

> <Shape>
0.274

> <Color>
0.045

> <Negative vol penalty>
0.000

$$$$

  -OEChem-04052316563D

 82 90  0     1  0  0  0  0  0999 V2000
  -16.6171  -29.6834   22.7440 C   0  0  0  0  0  0  0  0  0  0  0  0
  -17.6570  -29.5752   21.8262 C   0  0  0  0  0  0  0  0  0  0  0  0
  -26.3981  -12.6413   21.6097 C   0  0  0  0  0  0  0  0  0  0  0  0
  -25.8623  -13.5514   19.4367 C   0  0  0  0  0  0  0  0  0  0  0  0
  -16.8963  -29.7375   24.1089 C   0  0  0  0  0  0  0  0  0  0  0  0
  -18.9769  -29.5222   22.2729 C   0  0  0  0  0  0  0  0  0  0  0  0
  -23.5816  -26.3447   19.7817 C   0  0  0  0  0  0  0  0  0  0  0  0
  -25.1850  -11.9529   21.6206 C   0  0  0  0  0  0  0  0  0  0  0  0
  -24.6492  -12.8630   19.4476 C   0  0  0  0  0  0  0  0  0  0  0  0
  -24.6140  -26.7095   18.9188 C   0  0  0  0  0  0  0  0  0  0  0  0
  -23.9079   -9.1347   20.2570 C   0  0  0  0  0  0  0  0  0  0  0  0
  -23.9232   -7.8006   20.6638 C   0  0  0  0  0  0  0  0  0  0  0  0
  -26.0821  -27.0052   20.8100 C   0  0  0  0  0  0  0  0  0  0  0  0
  -29.8093  -22.4429   18.3432 C   0  0  0  0  0  0  0  0  0  0  0  0
  -27.4077  -23.8257   18.0223 C   0  0  0  0  0  0  0  0  0  0  0  0
  -22.4059   -8.3330   22.4670 C   0  0  0  0  0  0  0  0  0  0  0  0
  -26.7367  -13.4406   20.5178 C   0  0  0  0  0  0  0  0  0  0  0  0
  -29.2238  -13.6928   20.0092 C   0  0  0  0  0  0  0  0  0  0  0  0
  -18.2197  -29.6754   24.5730 C   0  0  0  0  0  0  0  0  0  0  0  0
  -23.7889  -26.3178   21.1683 C   0  0  0  0  0  0  0  0  0  0  0  0
  -19.2741  -29.5769   23.6452 C   0  0  0  0  0  0  0  0  0  0  0  0
  -25.0513  -26.6371   21.6882 C   0  0  0  0  0  0  0  0  0  0  0  0
  -29.8008  -23.6904   17.7193 C   0  0  0  0  0  0  0  0  0  0  0  0
  -27.4162  -22.5781   18.6462 C   0  0  0  0  0  0  0  0  0  0  0  0
  -28.6169  -21.8867   18.8066 C   0  0  0  0  0  0  0  0  0  0  0  0
  -28.6001  -24.3818   17.5589 C   0  0  0  0  0  0  0  0  0  0  0  0
  -24.3105  -12.0637   20.5395 C   0  0  0  0  0  0  0  0  0  0  0  0
  -25.8637  -27.0427   19.4330 C   0  0  0  0  0  0  0  0  0  0  0  0
  -23.1416  -10.0680   20.9553 C   0  0  0  0  0  0  0  0  0  0  0  0
  -23.1722   -7.3997   21.7688 C   0  0  0  0  0  0  0  0  0  0  0  0
  -22.3906   -9.6671   22.0602 C   0  0  0  0  0  0  0  0  0  0  0  0
  -27.9895  -14.1524   20.5062 C   0  0  0  0  0  0  0  0  0  0  0  0
  -30.0920  -14.7338   20.2302 C   0  0  0  0  0  0  0  0  0  0  0  0
  -29.5558  -12.4371   19.4019 C   0  0  0  0  0  0  0  0  0  0  0  0
  -22.5493  -27.8663   23.6521 C   0  0  0  0  0  0  0  0  0  0  0  0
  -29.1931  -20.6405   20.8746 C   0  0  0  0  0  0  0  0  0  0  0  0
  -24.3729  -25.7949   25.3568 C   0  0  0  0  0  0  0  0  0  0  0  0
  -27.0915  -23.7343   25.4577 C   0  0  0  0  0  0  0  0  0  0  0  0
  -18.4750  -29.7851   26.0554 C   0  0  0  0  0  0  0  0  0  0  0  0
  -22.6725  -25.8961   22.0839 C   0  0  0  0  0  0  0  0  0  0  0  0
  -25.3312  -26.6042   23.1677 C   0  0  0  0  0  0  0  0  0  0  0  0
  -19.8780  -29.3456   26.4660 C   0  0  0  0  0  0  0  0  0  0  0  0
  -30.8493  -18.4311   23.1585 C   0  0  0  0  0  0  0  0  0  0  0  0
  -20.9223  -29.9585   25.5383 C   0  0  0  0  0  0  0  0  0  0  0  0
  -30.3932  -17.0433   22.7098 C   0  0  0  0  0  0  0  0  0  0  0  0
  -29.7436  -19.4668   22.9803 C   0  0  0  0  0  0  0  0  0  0  0  0
  -28.7393  -18.1516   21.1410 C   0  0  0  0  0  0  0  0  0  0  0  0
  -20.7174  -29.4916   24.0921 C   0  0  1  0  0  0  0  0  0  0  0  0
  -22.8489  -26.4005   23.5129 C   0  0  1  0  0  0  0  0  0  0  0  0
  -29.8368  -17.0812   21.2755 C   0  0  2  0  0  0  0  0  0  0  0  0
  -31.0898  -24.2661   17.2319 C   0  0  0  0  0  0  0  0  0  0  0  0
  -26.1272  -22.0023   19.1335 C   0  0  0  0  0  0  0  0  0  0  0  0
  -28.6882  -22.0294   26.3749 C   0  0  0  0  0  0  0  0  0  0  0  0
  -25.5733  -28.2146   26.7758 C   0  0  0  0  0  0  0  0  0  0  0  0
  -27.4307  -26.7377   27.5739 C   0  0  0  0  0  0  0  0  0  0  0  0
  -25.0809  -26.2687   28.2676 C   0  0  0  0  0  0  0  0  0  0  0  0
  -25.5021  -21.4887   24.3667 C   0  0  0  0  0  0  0  0  0  0  0  0
  -28.6505  -20.5494   19.4706 C   0  0  0  0  0  0  0  0  0  0  0  0
  -28.5663  -25.7318   16.8882 C   0  0  0  0  0  0  0  0  0  0  0  0
  -29.0665  -26.8733   17.7761 C   0  0  0  0  0  0  0  0  0  0  0  0
  -28.2036  -27.0996   19.0120 C   0  0  0  0  0  0  0  0  0  1  0  0
  -25.7869  -25.8006   25.8854 C   0  0  1  0  0  0  0  0  0  0  0  0
  -27.2556  -22.3065   25.9464 C   0  0  2  0  0  0  0  0  0  0  0  0
  -25.9625  -26.7580   27.0979 C   0  0  0  0  0  0  0  0  0  0  0  0
  -28.0629  -15.3890   21.0055 N   0  0  0  0  0  0  0  0  0  0  0  0
  -29.3538  -15.7153   20.8234 N   0  0  0  0  0  0  0  0  0  0  0  0
  -24.2057  -26.1917   24.0225 N   0  0  0  0  0  0  0  0  0  0  0  0
  -29.2262  -19.4560   21.6109 N   0  0  0  0  0  0  0  0  0  0  0  0
  -31.4073  -14.8962   19.9731 N   0  0  0  0  0  0  0  0  0  0  0  0
  -28.5436  -11.4794   19.2512 N   0  0  0  0  0  0  0  0  0  0  0  0
  -21.2227  -28.1466   23.9189 N   0  0  0  0  0  0  0  0  0  0  0  0
  -26.1223  -24.4094   26.1692 N   0  0  0  0  0  0  0  0  0  0  0  0
  -26.8935  -21.3447   24.8671 N   0  3  0  0  0  0  0  0  0  0  0  0
  -30.7193  -12.1660   19.0196 O   0  0  0  0  0  0  0  0  0  0  0  0
  -23.4549  -28.6825   23.5283 O   0  0  0  0  0  0  0  0  0  0  0  0
  -29.5784  -21.7321   21.3015 O   0  0  0  0  0  0  0  0  0  0  0  0
  -23.4515  -25.4441   26.0982 O   0  0  0  0  0  0  0  0  0  0  0  0
  -27.7591  -24.2049   24.5393 O   0  0  0  0  0  0  0  0  0  0  0  0
  -23.1268  -11.3920   20.5497 O   0  0  0  0  0  0  0  0  0  0  0  0
  -26.8730  -27.3998   18.5930 O   0  0  0  0  0  0  0  0  0  1  0  0
  -23.1858   -6.1182   22.1583 F   0  0  0  0  0  0  0  0  0  0  0  0
  -21.6516  -10.5589   22.7342 F   0  0  0  0  0  0  0  0  0  0  0  0
  1  2  1  0  0  0  0
  1  5  2  0  0  0  0
  2  6  2  0  0  0  0
  3  8  2  0  0  0  0
  3 17  1  0  0  0  0
  4  9  1  0  0  0  0
  4 17  2  0  0  0  0
  5 19  1  0  0  0  0
  6 21  1  0  0  0  0
  7 10  2  0  0  0  0
  7 20  1  0  0  0  0
  8 27  1  0  0  0  0
  9 27  2  0  0  0  0
 10 28  1  0  0  0  0
 11 12  2  0  0  0  0
 11 29  1  0  0  0  0
 12 30  1  0  0  0  0
 13 22  1  0  0  0  0
 13 28  2  0  0  0  0
 14 23  1  0  0  0  0
 14 25  2  0  0  0  0
 15 24  2  0  0  0  0
 15 26  1  0  0  0  0
 16 30  2  0  0  0  0
 16 31  1  0  0  0  0
 17 32  1  0  0  0  0
 18 32  1  0  0  0  0
 18 33  2  0  0  0  0
 18 34  1  0  0  0  0
 19 21  2  0  0  0  0
 19 39  1  0  0  0  0
 20 22  2  0  0  0  0
 20 40  1  0  0  0  0
 21 48  1  0  0  0  0
 22 41  1  0  0  0  0
 23 26  2  0  0  0  0
 23 51  1  0  0  0  0
 24 25  1  0  0  0  0
 24 52  1  0  0  0  0
 25 58  1  0  0  0  0
 26 59  1  0  0  0  0
 27 79  1  0  0  0  0
 28 80  1  0  0  0  0
 29 31  2  0  0  0  0
 29 79  1  0  0  0  0
 30 81  1  0  0  0  0
 31 82  1  0  0  0  0
 32 65  2  0  0  0  0
 33 66  1  0  0  0  0
 33 69  1  0  0  0  0
 34 70  1  0  0  0  0
 34 74  2  0  0  0  0
 35 49  1  0  0  0  0
 35 71  1  0  0  0  0
 35 75  2  0  0  0  0
 36 58  1  0  0  0  0
 36 68  1  0  0  0  0
 36 76  2  0  0  0  0
 37 62  1  0  0  0  0
 37 67  1  0  0  0  0
 37 77  2  0  0  0  0
 38 63  1  0  0  0  0
 38 72  1  0  0  0  0
 38 78  2  0  0  0  0
 39 42  1  0  0  0  0
 40 49  1  0  0  0  0
 41 67  1  0  0  0  0
 42 44  1  0  0  0  0
 43 45  1  0  0  0  0
 43 46  1  0  0  0  0
 44 48  1  0  0  0  0
 45 50  1  0  0  0  0
 46 68  1  0  0  0  0
 47 50  1  0  0  0  0
 47 68  1  0  0  0  0
 48 71  1  0  0  0  0
 49 67  1  0  0  0  0
 50 66  1  0  0  0  0
 53 63  1  0  0  0  0
 54 64  1  0  0  0  0
 55 64  1  0  0  0  0
 56 64  1  0  0  0  0
 57 73  1  0  0  0  0
 59 60  1  0  0  0  0
 60 61  1  0  0  0  0
 61 80  1  0  0  0  0
 62 64  1  0  0  0  0
 62 72  1  0  0  0  0
 63 73  1  0  0  0  0
 65 66  1  0  0  0  0
M  CHG  1  73   1
M  ISO  4  36 100  58 100  61 101  80 101
M  END
> <Batch ID>
0036

> <Smiles>
CNC(C)C(=O)NC(C(=O)N1Cc2cc([101O:1][101CH2:1]CCc3cc(C)c([100CH2:0][100C:0](=O)N4CCCC(n5nc(-c6ccc(Oc7ccc(F)cc7F)cc6)c(C(N)=O)c5N)C4)cc3C)ccc2CC1C(=O)NC1CCCc2ccccc21)C(C)(C)C

> <Shape>
0.252

> <Color>
0.090

> <Negative vol penalty>
0.000

$$$$

  -OEChem-04052316563D

 88 96  0     1  0  0  0  0  0999 V2000
  -29.0457  -34.9547   17.3638 C   0  0  0  0  0  0  0  0  0  0  0  0
  -29.6618  -33.7757   17.7708 C   0  0  0  0  0  0  0  0  0  0  0  0
  -24.3157   -9.4139   21.5271 C   0  0  0  0  0  0  0  0  0  0  0  0
  -24.7630  -10.5814   23.5944 C   0  0  0  0  0  0  0  0  0  0  0  0
  -27.8576  -35.3636   17.9680 C   0  0  0  0  0  0  0  0  0  0  0  0
  -29.0908  -33.0054   18.7832 C   0  0  0  0  0  0  0  0  0  0  0  0
  -29.1447  -26.8984   19.2377 C   0  0  0  0  0  0  0  0  0  0  0  0
  -23.9659   -8.2720   22.2476 C   0  0  0  0  0  0  0  0  0  0  0  0
  -24.4132   -9.4395   24.3150 C   0  0  0  0  0  0  0  0  0  0  0  0
  -29.9447  -26.0190   19.9661 C   0  0  0  0  0  0  0  0  0  0  0  0
  -21.2937   -7.1448   23.9859 C   0  0  0  0  0  0  0  0  0  0  0  0
  -20.1385   -6.4642   23.6014 C   0  0  0  0  0  0  0  0  0  0  0  0
  -28.2758  -25.9522   21.7067 C   0  0  0  0  0  0  0  0  0  0  0  0
  -28.9809  -22.0211   19.7835 C   0  0  0  0  0  0  0  0  0  0  0  0
  -21.4502   -4.4817   23.1695 C   0  0  0  0  0  0  0  0  0  0  0  0
  -24.7143  -10.5686   22.2004 C   0  0  0  0  0  0  0  0  0  0  0  0
  -24.2238  -12.7928   21.0515 C   0  0  0  0  0  0  0  0  0  0  0  0
  -27.2665  -34.5930   18.9816 C   0  0  0  0  0  0  0  0  0  0  0  0
  -27.9070  -27.3205   19.7441 C   0  0  0  0  0  0  0  0  0  0  0  0
  -27.8943  -33.4051   19.4025 C   0  0  0  0  0  0  0  0  0  0  0  0
  -27.4608  -26.8349   20.9816 C   0  0  0  0  0  0  0  0  0  0  0  0
  -29.5081  -21.3101   20.8558 C   0  0  0  0  0  0  0  0  0  0  0  0
  -28.8850  -20.1423   21.2819 C   0  0  0  0  0  0  0  0  0  0  0  0
  -24.0146   -8.2847   23.6416 C   0  0  0  0  0  0  0  0  0  0  0  0
  -29.5115  -25.5480   21.2021 C   0  0  0  0  0  0  0  0  0  0  0  0
  -22.5272   -6.4939   23.9622 C   0  0  0  0  0  0  0  0  0  0  0  0
  -20.2168   -5.1327   23.1932 C   0  0  0  0  0  0  0  0  0  0  0  0
  -22.6055   -5.1624   23.5540 C   0  0  0  0  0  0  0  0  0  0  0  0
  -25.0763  -11.7484   21.4566 C   0  0  0  0  0  0  0  0  0  0  0  0
  -27.8381  -21.5263   19.1762 C   0  0  0  0  0  0  0  0  0  0  0  0
  -27.7464  -19.7317   20.6077 C   0  0  0  0  0  0  0  0  0  0  0  0
  -25.0452  -13.6662   20.3815 C   0  0  0  0  0  0  0  0  0  0  0  0
  -22.8153  -12.9587   21.2620 C   0  0  0  0  0  0  0  0  0  0  0  0
  -26.6614  -30.1247   20.5737 C   0  0  0  0  0  0  0  0  0  0  0  0
  -23.9586  -28.3717   20.9533 C   0  0  0  0  0  0  0  0  0  0  0  0
  -22.5408  -25.3213   21.5294 C   0  0  0  0  0  0  0  0  0  0  0  0
  -30.9262  -14.7572   20.6552 C   0  0  0  0  0  0  0  0  0  0  0  0
  -26.0067  -35.0999   19.6378 C   0  0  0  0  0  0  0  0  0  0  0  0
  -27.0440  -28.2484   18.9339 C   0  0  0  0  0  0  0  0  0  0  0  0
  -26.1311  -27.2416   21.5603 C   0  0  0  0  0  0  0  0  0  0  0  0
  -25.2687  -34.0344   20.4441 C   0  0  0  0  0  0  0  0  0  0  0  0
  -29.0607  -13.7846   17.7828 C   0  0  0  0  0  0  0  0  0  0  0  0
  -26.2441  -33.2618   21.3265 C   0  0  0  0  0  0  0  0  0  0  0  0
  -27.7511  -13.2467   18.3621 C   0  0  0  0  0  0  0  0  0  0  0  0
  -30.2546  -13.4374   18.6693 C   0  0  0  0  0  0  0  0  0  0  0  0
  -28.8074  -13.3056   20.6598 C   0  0  0  0  0  0  0  0  0  0  0  0
  -27.2925  -32.5296   20.4803 C   0  0  1  0  0  0  0  0  0  0  0  0
  -26.0321  -29.0147   19.7802 C   0  0  1  0  0  0  0  0  0  0  0  0
  -27.5676  -13.6790   19.8293 C   0  0  2  0  0  0  0  0  0  0  0  0
  -26.2158  -23.2997   18.4621 C   0  0  0  0  0  0  0  0  0  0  0  0
  -25.7667  -18.7782   21.8153 C   0  0  0  0  0  0  0  0  0  0  0  0
  -20.7251  -23.6067   21.7763 C   0  0  0  0  0  0  0  0  0  0  0  0
  -23.7646  -29.5128   23.7765 C   0  0  0  0  0  0  0  0  0  0  0  0
  -22.1315  -27.6957   24.3237 C   0  0  0  0  0  0  0  0  0  0  0  0
  -21.5858  -29.3701   22.5570 C   0  0  0  0  0  0  0  0  0  0  0  0
  -22.5827  -24.6914   18.6380 C   0  0  0  0  0  0  0  0  0  0  0  0
  -30.7497  -21.8262   21.5381 C   0  0  0  0  0  0  0  0  0  0  0  0
  -29.4293  -19.3575   22.4279 C   0  0  0  0  0  0  0  0  0  0  0  0
  -27.2452  -22.2626   18.0215 C   0  0  0  0  0  0  0  0  0  0  0  0
  -27.0340  -18.4845   21.0184 C   0  0  0  0  0  0  0  0  0  0  0  0
  -30.4771  -22.5027   22.8833 C   0  0  0  0  0  0  0  0  0  0  0  0
  -30.1902  -18.1052   21.9654 C   0  0  0  0  0  0  0  0  0  0  0  0
  -30.7116  -17.2888   23.1518 C   0  0  0  0  0  0  0  0  0  0  0  0
  -31.4595  -16.0330   22.7160 C   0  0  0  0  0  0  0  0  0  0  0  0
  -29.6219  -23.7589   22.7651 C   0  0  0  0  0  0  0  0  0  1  0  0
  -23.3338  -27.6034   22.0928 C   0  0  1  0  0  0  0  0  0  0  0  0
  -21.4031  -24.5924   20.8375 C   0  0  2  0  0  0  0  0  0  0  0  0
  -22.7299  -28.5392   23.1778 C   0  0  0  0  0  0  0  0  0  0  0  0
  -26.3423  -11.9389   21.0757 N   0  0  0  0  0  0  0  0  0  0  0  0
  -27.2050  -20.3959   19.5620 N   0  0  0  0  0  0  0  0  0  0  0  0
  -26.2912  -13.1132   20.4241 N   0  0  0  0  0  0  0  0  0  0  0  0
  -25.3263  -28.1556   20.7330 N   0  0  0  0  0  0  0  0  0  0  0  0
  -30.0176  -13.8754   20.0469 N   0  0  0  0  0  0  0  0  0  0  0  0
  -24.8160  -14.8456   19.7659 N   0  0  0  0  0  0  0  0  0  0  0  0
  -22.1243  -11.9666   21.9709 N   0  0  0  0  0  0  0  0  0  0  0  0
  -26.7267  -31.3301   19.9012 N   0  0  0  0  0  0  0  0  0  0  0  0
  -22.3707  -26.6890   21.4891 N   0  0  0  0  0  0  0  0  0  0  0  0
  -30.6236  -15.1273   21.9599 N   0  0  0  0  0  0  0  0  0  0  0  0
  -21.9122  -23.8413   19.6553 N   0  3  0  0  0  0  0  0  0  0  0  0
  -22.1850  -13.9491   20.8200 O   0  0  0  0  0  0  0  0  0  0  0  0
  -27.0569  -29.9043   21.7124 O   0  0  0  0  0  0  0  0  0  0  0  0
  -23.2573  -29.1299   20.2789 O   0  0  0  0  0  0  0  0  0  0  0  0
  -23.4841  -24.7357   22.0566 O   0  0  0  0  0  0  0  0  0  0  0  0
  -31.9298  -15.1872   20.0764 O   0  0  0  0  0  0  0  0  0  0  0  0
  -23.6731   -7.1707   24.3450 O   0  0  0  0  0  0  0  0  0  0  0  0
  -30.2907  -24.6902   21.9155 O   0  0  0  0  0  0  0  0  0  1  0  0
  -19.1071   -4.4788   22.8254 F   0  0  0  0  0  0  0  0  0  0  0  0
  -23.7875   -4.5314   23.5303 F   0  0  0  0  0  0  0  0  0  0  0  0
  1  2  1  0  0  0  0
  1  5  2  0  0  0  0
  2  6  2  0  0  0  0
  3  8  2  0  0  0  0
  3 16  1  0  0  0  0
  4  9  1  0  0  0  0
  4 16  2  0  0  0  0
  5 18  1  0  0  0  0
  6 20  1  0  0  0  0
  7 10  2  0  0  0  0
  7 19  1  0  0  0  0
  8 24  1  0  0  0  0
  9 24  2  0  0  0  0
 10 25  1  0  0  0  0
 11 12  2  0  0  0  0
 11 26  1  0  0  0  0
 12 27  1  0  0  0  0
 13 21  1  0  0  0  0
 13 25  2  0  0  0  0
 14 22  2  0  0  0  0
 14 30  1  0  0  0  0
 15 27  2  0  0  0  0
 15 28  1  0  0  0  0
 16 29  1  0  0  0  0
 17 29  1  0  0  0  0
 17 32  2  0  0  0  0
 17 33  1  0  0  0  0
 18 20  2  0  0  0  0
 18 38  1  0  0  0  0
 19 21  2  0  0  0  0
 19 39  1  0  0  0  0
 20 47  1  0  0  0  0
 21 40  1  0  0  0  0
 22 23  1  0  0  0  0
 22 57  1  0  0  0  0
 23 31  2  0  0  0  0
 23 58  1  0  0  0  0
 24 85  1  0  0  0  0
 25 86  1  0  0  0  0
 26 28  2  0  0  0  0
 26 85  1  0  0  0  0
 27 87  1  0  0  0  0
 28 88  1  0  0  0  0
 29 69  2  0  0  0  0
 30 59  1  0  0  0  0
 30 70  2  0  0  0  0
 31 60  1  0  0  0  0
 31 70  1  0  0  0  0
 32 71  1  0  0  0  0
 32 74  1  0  0  0  0
 33 75  1  0  0  0  0
 33 80  2  0  0  0  0
 34 48  1  0  0  0  0
 34 76  1  0  0  0  0
 34 81  2  0  0  0  0
 35 66  1  0  0  0  0
 35 72  1  0  0  0  0
 35 82  2  0  0  0  0
 36 67  1  0  0  0  0
 36 77  1  0  0  0  0
 36 83  2  0  0  0  0
 37 73  1  0  0  0  0
 37 78  1  0  0  0  0
 37 84  2  0  0  0  0
 38 41  1  0  0  0  0
 39 48  1  0  0  0  0
 40 72  1  0  0  0  0
 41 43  1  0  0  0  0
 42 44  1  0  0  0  0
 42 45  1  0  0  0  0
 43 47  1  0  0  0  0
 44 49  1  0  0  0  0
 45 73  1  0  0  0  0
 46 49  1  0  0  0  0
 46 73  1  0  0  0  0
 47 76  1  0  0  0  0
 48 72  1  0  0  0  0
 49 71  1  0  0  0  0
 50 59  1  0  0  0  0
 51 60  1  0  0  0  0
 52 67  1  0  0  0  0
 53 68  1  0  0  0  0
 54 68  1  0  0  0  0
 55 68  1  0  0  0  0
 56 79  1  0  0  0  0
 57 61  1  0  0  0  0
 58 62  1  0  0  0  0
 61 65  1  0  0  0  0
 62 63  1  0  0  0  0
 63 64  1  0  0  0  0
 64 78  1  0  0  0  0
 65 86  1  0  0  0  0
 66 68  1  0  0  0  0
 66 77  1  0  0  0  0
 67 79  1  0  0  0  0
 69 71  1  0  0  0  0
M  CHG  1  79   1
M  ISO  4  37 100  65 101  78 100  86 101
M  END
> <Batch ID>
0036

> <Smiles>
CCc1cc(CC[101CH2:1][101O:1]c2ccc3c(c2)CN(C(=O)C(NC(=O)C(C)NC)C(C)(C)C)C(C(=O)NC2CCCc4ccccc42)C3)c(CCCC[100NH:0][100C:0](=O)N2CCCC(n3nc(-c4ccc(Oc5ccc(F)cc5F)cc4)c(C(N)=O)c3N)C2)c(CC)n1

> <Shape>
0.291

> <Color>
0.116

> <Negative vol penalty>
0.000

$$$$

  -OEChem-04052316563D

 83 91  0     1  0  0  0  0  0999 V2000
  -23.1743  -23.6364   18.4915 C   0  0  0  0  0  0  0  0  0  0  0  0
  -24.3009  -22.9313   18.9025 C   0  0  0  0  0  0  0  0  0  0  0  0
  -21.2679  -26.9554   20.8020 C   0  0  0  0  0  0  0  0  0  0  0  0
  -22.1592  -26.5819   23.0163 C   0  0  0  0  0  0  0  0  0  0  0  0
  -21.9047  -23.2006   18.8684 C   0  0  0  0  0  0  0  0  0  0  0  0
  -24.1586  -21.7904   19.6915 C   0  0  0  0  0  0  0  0  0  0  0  0
  -27.0908  -17.9690   18.1282 C   0  0  0  0  0  0  0  0  0  0  0  0
  -20.1627  -26.1634   21.1132 C   0  0  0  0  0  0  0  0  0  0  0  0
  -21.0540  -25.7899   23.3276 C   0  0  0  0  0  0  0  0  0  0  0  0
  -28.4425  -18.0246   18.4650 C   0  0  0  0  0  0  0  0  0  0  0  0
  -16.9299  -24.5345   21.4457 C   0  0  0  0  0  0  0  0  0  0  0  0
  -15.6697  -25.0065   21.0786 C   0  0  0  0  0  0  0  0  0  0  0  0
  -28.0464  -16.4888   20.2827 C   0  0  0  0  0  0  0  0  0  0  0  0
  -32.2676  -22.5610   22.4932 C   0  0  0  0  0  0  0  0  0  0  0  0
  -16.0022  -26.9644   22.4545 C   0  0  0  0  0  0  0  0  0  0  0  0
  -32.8689  -22.3893   20.1985 C   0  0  0  0  0  0  0  0  0  0  0  0
  -22.2662  -27.1647   21.7535 C   0  0  0  0  0  0  0  0  0  0  0  0
  -23.5372  -29.3722   21.6152 C   0  0  0  0  0  0  0  0  0  0  0  0
  -21.7462  -22.0483   19.6544 C   0  0  0  0  0  0  0  0  0  0  0  0
  -26.2032  -17.1801   18.8740 C   0  0  0  0  0  0  0  0  0  0  0  0
  -22.8857  -21.3395   20.0804 C   0  0  0  0  0  0  0  0  0  0  0  0
  -26.6844  -16.4229   19.9516 C   0  0  0  0  0  0  0  0  0  0  0  0
  -32.6674  -21.7703   21.4216 C   0  0  0  0  0  0  0  0  0  0  0  0
  -20.0558  -25.5806   22.3760 C   0  0  0  0  0  0  0  0  0  0  0  0
  -28.9200  -17.2867   19.5442 C   0  0  0  0  0  0  0  0  0  0  0  0
  -17.7262  -25.2774   22.3173 C   0  0  0  0  0  0  0  0  0  0  0  0
  -15.2059  -26.2215   21.5830 C   0  0  0  0  0  0  0  0  0  0  0  0
  -32.0842  -23.9272   22.3115 C   0  0  0  0  0  0  0  0  0  0  0  0
  -17.2624  -26.4924   22.8216 C   0  0  0  0  0  0  0  0  0  0  0  0
  -23.4083  -27.9823   21.4324 C   0  0  0  0  0  0  0  0  0  0  0  0
  -32.3120  -24.4498   21.0486 C   0  0  0  0  0  0  0  0  0  0  0  0
  -24.7989  -29.6632   21.1572 C   0  0  0  0  0  0  0  0  0  0  0  0
  -22.6001  -30.3158   22.1510 C   0  0  0  0  0  0  0  0  0  0  0  0
  -23.6249  -17.7626   20.6394 C   0  0  0  0  0  0  0  0  0  0  0  0
  -23.4684  -14.5256   20.7800 C   0  0  0  0  0  0  0  0  0  0  0  0
  -25.0987  -11.5345   20.5736 C   0  0  0  0  0  0  0  0  0  0  0  0
  -29.6901  -26.3818   20.7515 C   0  0  0  0  0  0  0  0  0  0  0  0
  -20.3561  -21.6428   20.0762 C   0  0  0  0  0  0  0  0  0  0  0  0
  -24.7529  -17.1100   18.4812 C   0  0  0  0  0  0  0  0  0  0  0  0
  -25.7765  -15.5446   20.7718 C   0  0  0  0  0  0  0  0  0  0  0  0
  -20.2719  -20.2117   20.6007 C   0  0  0  0  0  0  0  0  0  0  0  0
  -28.0892  -28.1486   18.0288 C   0  0  0  0  0  0  0  0  0  0  0  0
  -21.4009  -19.9382   21.5894 C   0  0  0  0  0  0  0  0  0  0  0  0
  -26.7095  -28.4372   18.6230 C   0  0  0  0  0  0  0  0  0  0  0  0
  -28.6011  -26.7774   18.4601 C   0  0  0  0  0  0  0  0  0  0  0  0
  -27.2684  -26.8608   20.5315 C   0  0  0  0  0  0  0  0  0  0  0  0
  -22.7710  -20.0832   20.9162 C   0  0  1  0  0  0  0  0  0  0  0  0
  -23.8441  -16.6746   19.6266 C   0  0  1  0  0  0  0  0  0  0  0  0
  -26.7055  -28.2422   20.1508 C   0  0  2  0  0  0  0  0  0  0  0  0
  -24.7126   -9.0629   20.7714 C   0  0  0  0  0  0  0  0  0  0  0  0
  -23.3647  -14.7875   23.8182 C   0  0  0  0  0  0  0  0  0  0  0  0
  -23.9355  -12.3550   23.9776 C   0  0  0  0  0  0  0  0  0  0  0  0
  -21.8190  -13.0674   22.8659 C   0  0  0  0  0  0  0  0  0  0  0  0
  -25.9321  -11.0628   17.7732 C   0  0  0  0  0  0  0  0  0  0  0  0
  -32.8752  -20.2858   21.5862 C   0  0  0  0  0  0  0  0  0  0  0  0
  -32.1257  -25.9117   20.8145 C   0  0  0  0  0  0  0  0  0  0  0  0
  -31.6177  -19.4513   21.3186 C   0  0  0  0  0  0  0  0  0  0  0  0
  -31.8276  -17.9566   21.5652 C   0  0  0  0  0  0  0  0  0  0  0  0
  -30.5707  -17.1564   21.2513 C   0  0  0  0  0  0  0  0  0  1  0  0
  -24.0267  -13.4673   21.7004 C   0  0  1  0  0  0  0  0  0  0  0  0
  -24.7649  -10.2548   19.8283 C   0  0  2  0  0  0  0  0  0  0  0  0
  -23.3035  -13.4372   23.0765 C   0  0  0  0  0  0  0  0  0  0  0  0
  -32.7009  -23.7134   19.9836 N   0  0  0  0  0  0  0  0  0  0  0  0
  -24.5010  -27.4288   20.8997 N   0  0  0  0  0  0  0  0  0  0  0  0
  -25.3284  -28.4762   20.7438 N   0  0  0  0  0  0  0  0  0  0  0  0
  -24.3656  -15.5145   20.3522 N   0  0  0  0  0  0  0  0  0  0  0  0
  -28.5893  -26.6635   19.9254 N   0  0  0  0  0  0  0  0  0  0  0  0
  -25.4961  -30.8161   21.0719 N   0  0  0  0  0  0  0  0  0  0  0  0
  -21.3489  -29.8477   22.5749 N   0  0  0  0  0  0  0  0  0  0  0  0
  -23.0675  -18.9139   20.1166 N   0  0  0  0  0  0  0  0  0  0  0  0
  -23.9615  -12.2098   20.9636 N   0  0  0  0  0  0  0  0  0  0  0  0
  -30.9033  -26.2017   20.0985 N   0  0  0  0  0  0  0  0  0  0  0  0
  -25.7909   -9.9819   18.7824 N   0  3  0  0  0  0  0  0  0  0  0  0
  -22.8584  -31.5404   22.2358 O   0  0  0  0  0  0  0  0  0  0  0  0
  -23.9369  -17.5712   21.8089 O   0  0  0  0  0  0  0  0  0  0  0  0
  -22.2819  -14.4727   20.4469 O   0  0  0  0  0  0  0  0  0  0  0  0
  -26.2527  -11.8969   20.7914 O   0  0  0  0  0  0  0  0  0  0  0  0
  -29.5996  -26.3020   21.9814 O   0  0  0  0  0  0  0  0  0  0  0  0
  -18.9774  -24.8079   22.6802 O   0  0  0  0  0  0  0  0  0  0  0  0
  -30.2388  -17.3397   19.8756 O   0  0  0  0  0  0  0  0  0  1  0  0
  -13.9964  -26.6754   21.2291 F   0  0  0  0  0  0  0  0  0  0  0  0
  -31.6996  -24.7041   23.3316 F   0  0  0  0  0  0  0  0  0  0  0  0
  -18.0234  -27.2111   23.6584 F   0  0  0  0  0  0  0  0  0  0  0  0
  1  2  1  0  0  0  0
  1  5  2  0  0  0  0
  2  6  2  0  0  0  0
  3  8  2  0  0  0  0
  3 17  1  0  0  0  0
  4  9  1  0  0  0  0
  4 17  2  0  0  0  0
  5 19  1  0  0  0  0
  6 21  1  0  0  0  0
  7 10  2  0  0  0  0
  7 20  1  0  0  0  0
  8 24  1  0  0  0  0
  9 24  2  0  0  0  0
 10 25  1  0  0  0  0
 11 12  2  0  0  0  0
 11 26  1  0  0  0  0
 12 27  1  0  0  0  0
 13 22  1  0  0  0  0
 13 25  2  0  0  0  0
 14 23  2  0  0  0  0
 14 28  1  0  0  0  0
 15 27  2  0  0  0  0
 15 29  1  0  0  0  0
 16 23  1  0  0  0  0
 16 63  2  0  0  0  0
 17 30  1  0  0  0  0
 18 30  1  0  0  0  0
 18 32  2  0  0  0  0
 18 33  1  0  0  0  0
 19 21  2  0  0  0  0
 19 38  1  0  0  0  0
 20 22  2  0  0  0  0
 20 39  1  0  0  0  0
 21 47  1  0  0  0  0
 22 40  1  0  0  0  0
 23 55  1  0  0  0  0
 24 79  1  0  0  0  0
 25 80  1  0  0  0  0
 26 29  2  0  0  0  0
 26 79  1  0  0  0  0
 27 81  1  0  0  0  0
 28 31  2  0  0  0  0
 28 82  1  0  0  0  0
 29 83  1  0  0  0  0
 30 64  2  0  0  0  0
 31 56  1  0  0  0  0
 31 63  1  0  0  0  0
 32 65  1  0  0  0  0
 32 68  1  0  0  0  0
 33 69  1  0  0  0  0
 33 74  2  0  0  0  0
 34 48  1  0  0  0  0
 34 70  1  0  0  0  0
 34 75  2  0  0  0  0
 35 60  1  0  0  0  0
 35 66  1  0  0  0  0
 35 76  2  0  0  0  0
 36 61  1  0  0  0  0
 36 71  1  0  0  0  0
 36 77  2  0  0  0  0
 37 67  1  0  0  0  0
 37 72  1  0  0  0  0
 37 78  2  0  0  0  0
 38 41  1  0  0  0  0
 39 48  1  0  0  0  0
 40 66  1  0  0  0  0
 41 43  1  0  0  0  0
 42 44  1  0  0  0  0
 42 45  1  0  0  0  0
 43 47  1  0  0  0  0
 44 49  1  0  0  0  0
 45 67  1  0  0  0  0
 46 49  1  0  0  0  0
 46 67  1  0  0  0  0
 47 70  1  0  0  0  0
 48 66  1  0  0  0  0
 49 65  1  0  0  0  0
 50 61  1  0  0  0  0
 51 62  1  0  0  0  0
 52 62  1  0  0  0  0
 53 62  1  0  0  0  0
 54 73  1  0  0  0  0
 55 57  1  0  0  0  0
 56 72  1  0  0  0  0
 57 58  1  0  0  0  0
 58 59  1  0  0  0  0
 59 80  1  0  0  0  0
 60 62  1  0  0  0  0
 60 71  1  0  0  0  0
 61 73  1  0  0  0  0
 64 65  1  0  0  0  0
M  CHG  1  73   1
M  ISO  4  37 100  59 101  72 100  80 101
M  END
> <Batch ID>
0036

> <Smiles>
CNC(C)C(=O)NC(C(=O)N1Cc2cc([101O:1][101CH2:1]CCCc3cnc(C[100NH:0][100C:0](=O)N4CCCC(n5nc(-c6ccc(Oc7ccc(F)cc7F)cc6)c(C(N)=O)c5N)C4)c(F)c3)ccc2CC1C(=O)NC1CCCc2ccccc21)C(C)(C)C

> <Shape>
0.208

> <Color>
0.069

> <Negative vol penalty>
0.000

$$$$

  -OEChem-04052316563D

 87 95  0     1  0  0  0  0  0999 V2000
  -23.7645  -25.1328   14.6145 C   0  0  0  0  0  0  0  0  0  0  0  0
  -23.4865  -25.8940   15.7454 C   0  0  0  0  0  0  0  0  0  0  0  0
  -29.4816  -17.4782   18.9894 C   0  0  0  0  0  0  0  0  0  0  0  0
  -28.7658  -18.1027   21.2108 C   0  0  0  0  0  0  0  0  0  0  0  0
  -23.3140  -23.8158   14.5340 C   0  0  0  0  0  0  0  0  0  0  0  0
  -22.7569  -25.3388   16.7960 C   0  0  0  0  0  0  0  0  0  0  0  0
  -24.7699  -26.3827   21.3240 C   0  0  0  0  0  0  0  0  0  0  0  0
  -26.9489  -29.6775   26.3471 C   0  0  0  0  0  0  0  0  0  0  0  0
  -25.5549  -29.6640   26.3007 C   0  0  0  0  0  0  0  0  0  0  0  0
  -29.7899  -16.1978   19.4486 C   0  0  0  0  0  0  0  0  0  0  0  0
  -29.0741  -16.8222   21.6701 C   0  0  0  0  0  0  0  0  0  0  0  0
  -24.5391  -27.6549   21.8455 C   0  0  0  0  0  0  0  0  0  0  0  0
  -28.1242  -13.3525   20.1990 C   0  0  0  0  0  0  0  0  0  0  0  0
  -27.7129  -12.2690   19.4229 C   0  0  0  0  0  0  0  0  0  0  0  0
  -22.7888  -26.7581   23.2424 C   0  0  0  0  0  0  0  0  0  0  0  0
  -26.9947  -31.2507   24.5141 C   0  0  0  0  0  0  0  0  0  0  0  0
  -30.0126  -11.5693   19.1809 C   0  0  0  0  0  0  0  0  0  0  0  0
  -28.9697  -18.4308   19.8705 C   0  0  0  0  0  0  0  0  0  0  0  0
  -27.4212  -20.1973   18.8759 C   0  0  0  0  0  0  0  0  0  0  0  0
  -22.5867  -23.2412   15.5883 C   0  0  0  0  0  0  0  0  0  0  0  0
  -24.0034  -25.2887   21.7506 C   0  0  0  0  0  0  0  0  0  0  0  0
  -22.2951  -24.0133   16.7290 C   0  0  0  0  0  0  0  0  0  0  0  0
  -23.0136  -25.4726   22.7267 C   0  0  0  0  0  0  0  0  0  0  0  0
  -27.6688  -30.4708   25.4538 C   0  0  0  0  0  0  0  0  0  0  0  0
  -24.8808  -30.4439   25.3610 C   0  0  0  0  0  0  0  0  0  0  0  0
  -25.6007  -31.2372   24.4677 C   0  0  0  0  0  0  0  0  0  0  0  0
  -29.5861  -15.8697   20.7890 C   0  0  0  0  0  0  0  0  0  0  0  0
  -23.5464  -27.8433   22.8027 C   0  0  0  0  0  0  0  0  0  0  0  0
  -29.4798  -13.5445   20.4660 C   0  0  0  0  0  0  0  0  0  0  0  0
  -28.6570  -11.3774   18.9138 C   0  0  0  0  0  0  0  0  0  0  0  0
  -30.4240  -12.6528   19.9570 C   0  0  0  0  0  0  0  0  0  0  0  0
  -28.6516  -19.7538   19.3968 C   0  0  0  0  0  0  0  0  0  0  0  0
  -27.6333  -21.5202   18.5733 C   0  0  0  0  0  0  0  0  0  0  0  0
  -26.1961  -19.4779   18.6829 C   0  0  0  0  0  0  0  0  0  0  0  0
  -22.0072  -23.2602   20.3349 C   0  0  0  0  0  0  0  0  0  0  0  0
  -22.0446  -21.8078   23.2352 C   0  0  0  0  0  0  0  0  0  0  0  0
  -29.5532  -26.4618   20.0473 C   0  0  0  0  0  0  0  0  0  0  0  0
  -22.5550  -22.0683   26.5995 C   0  0  0  0  0  0  0  0  0  0  0  0
  -22.0801  -21.8288   15.4356 C   0  0  0  0  0  0  0  0  0  0  0  0
  -24.2828  -23.9180   21.1979 C   0  0  0  0  0  0  0  0  0  0  0  0
  -22.1767  -24.3273   23.2330 C   0  0  0  0  0  0  0  0  0  0  0  0
  -21.6353  -21.1957   16.7515 C   0  0  0  0  0  0  0  0  0  0  0  0
  -31.8948  -24.2245   18.3924 C   0  0  0  0  0  0  0  0  0  0  0  0
  -20.7573  -22.1628   17.5393 C   0  0  0  0  0  0  0  0  0  0  0  0
  -31.1628  -22.8869   18.4934 C   0  0  0  0  0  0  0  0  0  0  0  0
  -31.6522  -25.0915   19.6251 C   0  0  0  0  0  0  0  0  0  0  0  0
  -29.4727  -23.9891   20.0236 C   0  0  0  0  0  0  0  0  0  0  0  0
  -21.5278  -23.4386   17.9000 C   0  0  1  0  0  0  0  0  0  0  0  0
  -23.0963  -22.9680   21.3280 C   0  0  1  0  0  0  0  0  0  0  0  0
  -29.6669  -23.0971   18.7860 C   0  0  2  0  0  0  0  0  0  0  0  0
  -24.8702  -33.5539   23.8463 C   0  0  0  0  0  0  0  0  0  0  0  0
  -30.3839  -28.2557   18.5241 C   0  0  0  0  0  0  0  0  0  0  0  0
  -22.4722  -20.7205   28.7146 C   0  0  0  0  0  0  0  0  0  0  0  0
  -18.9976  -21.9686   23.2155 C   0  0  0  0  0  0  0  0  0  0  0  0
  -19.0269  -21.5077   25.6762 C   0  0  0  0  0  0  0  0  0  0  0  0
  -19.9230  -19.8123   24.0808 C   0  0  0  0  0  0  0  0  0  0  0  0
  -25.4356  -22.4994   27.1241 C   0  0  0  0  0  0  0  0  0  0  0  0
  -29.1592  -30.4846   25.5032 C   0  0  0  0  0  0  0  0  0  0  0  0
  -23.3720  -30.4119   25.3293 C   0  0  0  0  0  0  0  0  0  0  0  0
  -24.9005  -32.0801   23.4527 C   0  0  0  0  0  0  0  0  0  0  0  0
  -29.8351  -29.4262   24.6123 C   0  0  0  0  0  0  0  0  0  0  0  0
  -29.5398  -29.6267   23.1228 C   0  0  0  0  0  0  0  0  0  0  0  0
  -30.2005  -28.5399   22.2867 C   0  0  0  0  0  0  0  0  0  0  0  0
  -22.8327  -29.1564   24.6527 C   0  0  0  0  0  0  0  0  0  1  0  0
  -21.2351  -21.9317   24.5034 C   0  0  1  0  0  0  0  0  0  0  0  0
  -30.3938  -27.7091   19.9391 C   0  0  1  0  0  0  0  0  0  0  0  0
  -23.3450  -21.2068   27.5681 C   0  0  2  0  0  0  0  0  0  0  0  0
  -19.8099  -21.3272   24.3582 C   0  0  0  0  0  0  0  0  0  0  0  0
  -29.5768  -20.7167   19.4248 N   0  0  0  0  0  0  0  0  0  0  0  0
  -28.9275  -21.7785   18.9176 N   0  0  0  0  0  0  0  0  0  0  0  0
  -22.4837  -23.0074   22.6575 N   0  0  0  0  0  0  0  0  0  0  0  0
  -30.2159  -25.2448   19.8858 N   0  0  0  0  0  0  0  0  0  0  0  0
  -26.8372  -22.4760   18.0489 N   0  0  0  0  0  0  0  0  0  0  0  0
  -26.1510  -18.1254   19.0478 N   0  0  0  0  0  0  0  0  0  0  0  0
  -22.4156  -23.1943   19.0165 N   0  0  0  0  0  0  0  0  0  0  0  0
  -22.0368  -21.3247   25.5603 N   0  0  0  0  0  0  0  0  0  0  0  0
  -24.4834  -21.9804   28.1395 N   0  3  0  0  0  0  0  0  0  0  0  0
  -29.8520  -28.7456   20.8603 N   0  3  0  0  0  0  0  0  0  0  0  0
  -25.1768  -20.0141   18.1860 O   0  0  0  0  0  0  0  0  0  0  0  0
  -20.8795  -23.5243   20.7352 O   0  0  0  0  0  0  0  0  0  0  0  0
  -22.2846  -20.6875   22.7780 O   0  0  0  0  0  0  0  0  0  0  0  0
  -28.3437  -26.5681   20.2660 O   0  0  0  0  0  0  0  0  0  0  0  0
  -22.4089  -23.2791   26.7516 O   0  0  0  0  0  0  0  0  0  0  0  0
  -29.8865  -14.6202   21.2374 O   0  0  0  0  0  0  0  0  0  0  0  0
  -23.3185  -29.0842   23.3128 O   0  0  0  0  0  0  0  0  0  1  0  0
  -28.2618  -10.3361   18.1698 F   0  0  0  0  0  0  0  0  0  0  0  0
  -31.7276  -12.8314   20.2112 F   0  0  0  0  0  0  0  0  0  0  0  0
  1  2  1  0  0  0  0
  1  5  2  0  0  0  0
  2  6  2  0  0  0  0
  3 10  2  0  0  0  0
  3 18  1  0  0  0  0
  4 11  1  0  0  0  0
  4 18  2  0  0  0  0
  5 20  1  0  0  0  0
  6 22  1  0  0  0  0
  7 12  2  0  0  0  0
  7 21  1  0  0  0  0
  8  9  2  0  0  0  0
  8 24  1  0  0  0  0
  9 25  1  0  0  0  0
 10 27  1  0  0  0  0
 11 27  2  0  0  0  0
 12 28  1  0  0  0  0
 13 14  2  0  0  0  0
 13 29  1  0  0  0  0
 14 30  1  0  0  0  0
 15 23  1  0  0  0  0
 15 28  2  0  0  0  0
 16 24  2  0  0  0  0
 16 26  1  0  0  0  0
 17 30  2  0  0  0  0
 17 31  1  0  0  0  0
 18 32  1  0  0  0  0
 19 32  1  0  0  0  0
 19 33  2  0  0  0  0
 19 34  1  0  0  0  0
 20 22  2  0  0  0  0
 20 39  1  0  0  0  0
 21 23  2  0  0  0  0
 21 40  1  0  0  0  0
 22 48  1  0  0  0  0
 23 41  1  0  0  0  0
 24 58  1  0  0  0  0
 25 26  2  0  0  0  0
 25 59  1  0  0  0  0
 26 60  1  0  0  0  0
 27 84  1  0  0  0  0
 28 85  1  0  0  0  0
 29 31  2  0  0  0  0
 29 84  1  0  0  0  0
 30 86  1  0  0  0  0
 31 87  1  0  0  0  0
 32 69  2  0  0  0  0
 33 70  1  0  0  0  0
 33 73  1  0  0  0  0
 34 74  1  0  0  0  0
 34 79  2  0  0  0  0
 35 49  1  0  0  0  0
 35 75  1  0  0  0  0
 35 80  2  0  0  0  0
 36 65  1  0  0  0  0
 36 71  1  0  0  0  0
 36 81  2  0  0  0  0
 37 66  1  0  0  0  0
 37 72  1  0  0  0  0
 37 82  2  0  0  0  0
 38 67  1  0  0  0  0
 38 76  1  0  0  0  0
 38 83  2  0  0  0  0
 39 42  1  0  0  0  0
 40 49  1  0  0  0  0
 41 71  1  0  0  0  0
 42 44  1  0  0  0  0
 43 45  1  0  0  0  0
 43 46  1  0  0  0  0
 44 48  1  0  0  0  0
 45 50  1  0  0  0  0
 46 72  1  0  0  0  0
 47 50  1  0  0  0  0
 47 72  1  0  0  0  0
 48 75  1  0  0  0  0
 49 71  1  0  0  0  0
 50 70  1  0  0  0  0
 51 60  1  0  0  0  0
 52 66  1  0  0  0  0
 53 67  1  0  0  0  0
 54 68  1  0  0  0  0
 55 68  1  0  0  0  0
 56 68  1  0  0  0  0
 57 77  1  0  0  0  0
 58 61  1  0  0  0  0
 59 64  1  0  0  0  0
 61 62  1  0  0  0  0
 62 63  1  0  0  0  0
 63 78  1  0  0  0  0
 64 85  1  0  0  0  0
 65 68  1  0  0  0  0
 65 76  1  0  0  0  0
 66 78  1  0  0  0  0
 67 77  1  0  0  0  0
 69 70  1  0  0  0  0
M  CHG  2  77   1  78   1
M  ISO  4  37 100  64 101  66 100  85 101
M  END
> <Batch ID>
0036

> <Smiles>
CCc1cc(CCCCN[100CH:0](C)[100C:0](=O)N2CCCC(n3nc(-c4ccc(Oc5ccc(F)cc5F)cc4)c(C(N)=O)c3N)C2)ccc1C[101CH2:1][101O:1]c1ccc2c(c1)CN(C(=O)C(NC(=O)C(C)NC)C(C)(C)C)C(C(=O)NC1CCCc3ccccc31)C2

> <Shape>
0.206

> <Color>
0.065

> <Negative vol penalty>
0.000

$$$$

  -OEChem-04052316563D

 88 96  0     1  0  0  0  0  0999 V2000
  -30.8985  -24.0488   22.3404 C   0  0  0  0  0  0  0  0  0  0  0  0
  -30.1922  -22.8532   22.4251 C   0  0  0  0  0  0  0  0  0  0  0  0
  -27.4607  -23.5760   20.5407 C   0  0  0  0  0  0  0  0  0  0  0  0
  -28.9742  -23.5834   18.6576 C   0  0  0  0  0  0  0  0  0  0  0  0
  -30.8583  -24.9573   23.3972 C   0  0  0  0  0  0  0  0  0  0  0  0
  -29.4460  -22.5650   23.5673 C   0  0  0  0  0  0  0  0  0  0  0  0
  -24.8585  -20.7185   22.4761 C   0  0  0  0  0  0  0  0  0  0  0  0
  -27.5708  -24.9633   20.6347 C   0  0  0  0  0  0  0  0  0  0  0  0
  -29.0844  -24.9707   18.7515 C   0  0  0  0  0  0  0  0  0  0  0  0
  -24.7849  -19.3784   22.0986 C   0  0  0  0  0  0  0  0  0  0  0  0
  -27.1707  -28.5405   21.1434 C   0  0  0  0  0  0  0  0  0  0  0  0
  -25.9979  -29.2733   21.3253 C   0  0  0  0  0  0  0  0  0  0  0  0
  -24.0822  -18.7944   24.3312 C   0  0  0  0  0  0  0  0  0  0  0  0
  -24.7761  -11.8071   21.7491 C   0  0  0  0  0  0  0  0  0  0  0  0
  -25.6941  -13.3075   20.0930 C   0  0  0  0  0  0  0  0  0  0  0  0
  -25.1345  -28.4090   19.2410 C   0  0  0  0  0  0  0  0  0  0  0  0
  -28.1624  -22.8860   19.5522 C   0  0  0  0  0  0  0  0  0  0  0  0
  -27.1127  -20.7233   18.6988 C   0  0  0  0  0  0  0  0  0  0  0  0
  -30.1035  -24.6844   24.5489 C   0  0  0  0  0  0  0  0  0  0  0  0
  -24.5546  -21.1058   23.7891 C   0  0  0  0  0  0  0  0  0  0  0  0
  -29.3967  -23.4701   24.6411 C   0  0  0  0  0  0  0  0  0  0  0  0
  -24.1503  -20.1403   24.7221 C   0  0  0  0  0  0  0  0  0  0  0  0
  -24.9408  -13.0984   21.2482 C   0  0  0  0  0  0  0  0  0  0  0  0
  -25.3647  -10.7249   21.0949 C   0  0  0  0  0  0  0  0  0  0  0  0
  -26.2827  -12.2253   19.4388 C   0  0  0  0  0  0  0  0  0  0  0  0
  -26.1180  -10.9340   19.9397 C   0  0  0  0  0  0  0  0  0  0  0  0
  -28.3826  -25.6607   19.7401 C   0  0  0  0  0  0  0  0  0  0  0  0
  -24.3995  -18.4157   23.0269 C   0  0  0  0  0  0  0  0  0  0  0  0
  -27.3255  -27.7420   20.0102 C   0  0  0  0  0  0  0  0  0  0  0  0
  -24.9798  -29.2075   20.3742 C   0  0  0  0  0  0  0  0  0  0  0  0
  -26.3073  -27.6762   19.0590 C   0  0  0  0  0  0  0  0  0  0  0  0
  -28.0495  -21.4529   19.4550 C   0  0  0  0  0  0  0  0  0  0  0  0
  -27.4240  -19.4080   18.9429 C   0  0  0  0  0  0  0  0  0  0  0  0
  -26.0555  -21.1925   17.8516 C   0  0  0  0  0  0  0  0  0  0  0  0
  -26.1726  -22.4838   26.1528 C   0  0  0  0  0  0  0  0  0  0  0  0
  -23.2751  -22.4890   27.6111 C   0  0  0  0  0  0  0  0  0  0  0  0
  -20.1607  -21.1182   27.8725 C   0  0  0  0  0  0  0  0  0  0  0  0
  -31.1805  -15.3186   19.5002 C   0  0  0  0  0  0  0  0  0  0  0  0
  -30.1285  -25.6759   25.6851 C   0  0  0  0  0  0  0  0  0  0  0  0
  -24.6131  -22.5589   24.1733 C   0  0  0  0  0  0  0  0  0  0  0  0
  -23.7939  -20.5069   26.1388 C   0  0  0  0  0  0  0  0  0  0  0  0
  -29.0124  -25.4625   26.7045 C   0  0  0  0  0  0  0  0  0  0  0  0
  -30.5284  -17.3387   22.3586 C   0  0  0  0  0  0  0  0  0  0  0  0
  -28.9050  -23.9874   27.0776 C   0  0  0  0  0  0  0  0  0  0  0  0
  -29.7540  -18.5313   21.7947 C   0  0  0  0  0  0  0  0  0  0  0  0
  -31.6091  -16.8595   21.3919 C   0  0  0  0  0  0  0  0  0  0  0  0
  -30.3573  -17.7512   19.4653 C   0  0  0  0  0  0  0  0  0  0  0  0
  -28.5559  -23.1326   25.8532 C   0  0  1  0  0  0  0  0  0  0  0  0
  -24.7780  -22.7738   25.6747 C   0  0  1  0  0  0  0  0  0  0  0  0
  -29.2195  -18.2348   20.3806 C   0  0  2  0  0  0  0  0  0  0  0  0
  -26.0533   -9.0928   22.8694 C   0  0  0  0  0  0  0  0  0  0  0  0
  -25.9804   -9.3711   17.9840 C   0  0  0  0  0  0  0  0  0  0  0  0
  -18.0279  -21.3090   29.1809 C   0  0  0  0  0  0  0  0  0  0  0  0
  -24.6001  -21.0813   29.9717 C   0  0  0  0  0  0  0  0  0  0  0  0
  -22.3178  -20.4605   30.7928 C   0  0  0  0  0  0  0  0  0  0  0  0
  -22.9630  -22.8628   30.6046 C   0  0  0  0  0  0  0  0  0  0  0  0
  -18.5951  -21.7703   25.4471 C   0  0  0  0  0  0  0  0  0  0  0  0
  -24.3050  -14.2684   21.9557 C   0  0  0  0  0  0  0  0  0  0  0  0
  -25.1722   -9.3519   21.6513 C   0  0  0  0  0  0  0  0  0  0  0  0
  -27.0846  -12.4760   18.2034 C   0  0  0  0  0  0  0  0  0  0  0  0
  -26.7487   -9.7734   19.2383 C   0  0  0  0  0  0  0  0  0  0  0  0
  -25.1985  -14.9012   23.0248 C   0  0  0  0  0  0  0  0  0  0  0  0
  -28.4788  -13.0359   18.5216 C   0  0  0  0  0  0  0  0  0  0  0  0
  -29.2766  -13.3229   17.2462 C   0  0  0  0  0  0  0  0  0  0  0  0
  -30.6613  -13.8928   17.5364 C   0  0  0  0  0  0  0  0  0  0  0  0
  -24.5819  -16.1346   23.6743 C   0  0  0  0  0  0  0  0  0  1  0  0
  -22.5249  -21.5287   28.5021 C   0  0  1  0  0  0  0  0  0  0  0  0
  -18.7831  -21.7526   27.9377 C   0  0  2  0  0  0  0  0  0  0  0  0
  -23.1100  -21.4758   29.9417 C   0  0  0  0  0  0  0  0  0  0  0  0
  -28.8928  -20.6663   20.1290 N   0  0  0  0  0  0  0  0  0  0  0  0
  -28.4869  -19.4289   19.7974 N   0  0  0  0  0  0  0  0  0  0  0  0
  -23.8726  -21.9398   26.4678 N   0  0  0  0  0  0  0  0  0  0  0  0
  -31.0364  -16.5944   20.0699 N   0  0  0  0  0  0  0  0  0  0  0  0
  -26.8895  -18.2472   18.5079 N   0  0  0  0  0  0  0  0  0  0  0  0
  -25.8746  -22.5754   17.7125 N   0  0  0  0  0  0  0  0  0  0  0  0
  -27.1475  -23.2484   25.5410 N   0  0  0  0  0  0  0  0  0  0  0  0
  -21.1225  -21.9260   28.4413 N   0  0  0  0  0  0  0  0  0  0  0  0
  -30.6026  -15.1502   18.2479 N   0  0  0  0  0  0  0  0  0  0  0  0
  -17.9810  -21.3734   26.7402 N   0  3  0  0  0  0  0  0  0  0  0  0
  -25.2835  -20.4088   17.2489 O   0  0  0  0  0  0  0  0  0  0  0  0
  -26.3508  -21.6305   27.0141 O   0  0  0  0  0  0  0  0  0  0  0  0
  -23.3228  -23.6838   27.9143 O   0  0  0  0  0  0  0  0  0  0  0  0
  -20.3628  -20.0145   27.3707 O   0  0  0  0  0  0  0  0  0  0  0  0
  -31.7753  -14.3962   20.0681 O   0  0  0  0  0  0  0  0  0  0  0  0
  -28.4901  -27.0144   19.8313 O   0  0  0  0  0  0  0  0  0  0  0  0
  -24.3274  -17.1069   22.6613 O   0  0  0  0  0  0  0  0  0  1  0  0
  -23.8530  -29.9101   20.5498 F   0  0  0  0  0  0  0  0  0  0  0  0
  -26.4497  -26.9099   17.9689 F   0  0  0  0  0  0  0  0  0  0  0  0
  1  2  1  0  0  0  0
  1  5  2  0  0  0  0
  2  6  2  0  0  0  0
  3  8  2  0  0  0  0
  3 17  1  0  0  0  0
  4  9  1  0  0  0  0
  4 17  2  0  0  0  0
  5 19  1  0  0  0  0
  6 21  1  0  0  0  0
  7 10  2  0  0  0  0
  7 20  1  0  0  0  0
  8 27  1  0  0  0  0
  9 27  2  0  0  0  0
 10 28  1  0  0  0  0
 11 12  2  0  0  0  0
 11 29  1  0  0  0  0
 12 30  1  0  0  0  0
 13 22  1  0  0  0  0
 13 28  2  0  0  0  0
 14 23  2  0  0  0  0
 14 24  1  0  0  0  0
 15 23  1  0  0  0  0
 15 25  2  0  0  0  0
 16 30  2  0  0  0  0
 16 31  1  0  0  0  0
 17 32  1  0  0  0  0
 18 32  1  0  0  0  0
 18 33  2  0  0  0  0
 18 34  1  0  0  0  0
 19 21  2  0  0  0  0
 19 39  1  0  0  0  0
 20 22  2  0  0  0  0
 20 40  1  0  0  0  0
 21 48  1  0  0  0  0
 22 41  1  0  0  0  0
 23 58  1  0  0  0  0
 24 26  2  0  0  0  0
 24 59  1  0  0  0  0
 25 26  1  0  0  0  0
 25 60  1  0  0  0  0
 26 61  1  0  0  0  0
 27 85  1  0  0  0  0
 28 86  1  0  0  0  0
 29 31  2  0  0  0  0
 29 85  1  0  0  0  0
 30 87  1  0  0  0  0
 31 88  1  0  0  0  0
 32 70  2  0  0  0  0
 33 71  1  0  0  0  0
 33 74  1  0  0  0  0
 34 75  1  0  0  0  0
 34 80  2  0  0  0  0
 35 49  1  0  0  0  0
 35 76  1  0  0  0  0
 35 81  2  0  0  0  0
 36 67  1  0  0  0  0
 36 72  1  0  0  0  0
 36 82  2  0  0  0  0
 37 68  1  0  0  0  0
 37 77  1  0  0  0  0
 37 83  2  0  0  0  0
 38 73  1  0  0  0  0
 38 78  1  0  0  0  0
 38 84  2  0  0  0  0
 39 42  1  0  0  0  0
 40 49  1  0  0  0  0
 41 72  1  0  0  0  0
 42 44  1  0  0  0  0
 43 45  1  0  0  0  0
 43 46  1  0  0  0  0
 44 48  1  0  0  0  0
 45 50  1  0  0  0  0
 46 73  1  0  0  0  0
 47 50  1  0  0  0  0
 47 73  1  0  0  0  0
 48 76  1  0  0  0  0
 49 72  1  0  0  0  0
 50 71  1  0  0  0  0
 51 59  1  0  0  0  0
 52 61  1  0  0  0  0
 53 68  1  0  0  0  0
 54 69  1  0  0  0  0
 55 69  1  0  0  0  0
 56 69  1  0  0  0  0
 57 79  1  0  0  0  0
 58 62  1  0  0  0  0
 60 63  1  0  0  0  0
 62 66  1  0  0  0  0
 63 64  1  0  0  0  0
 64 65  1  0  0  0  0
 65 78  1  0  0  0  0
 66 86  1  0  0  0  0
 67 69  1  0  0  0  0
 67 77  1  0  0  0  0
 68 79  1  0  0  0  0
 70 71  1  0  0  0  0
M  CHG  1  79   1
M  ISO  4  38 100  66 101  78 100  86 101
M  END
> <Batch ID>
0036

> <Smiles>
CCc1cc(CC[101CH2:1][101O:1]c2ccc3c(c2)CN(C(=O)C(NC(=O)C(C)NC)C(C)(C)C)C(C(=O)NC2CCCc4ccccc42)C3)cc(CCCC[100NH:0][100C:0](=O)N2CCCC(n3nc(-c4ccc(Oc5ccc(F)cc5F)cc4)c(C(N)=O)c3N)C2)c1CC

> <Shape>
0.180

> <Color>
0.079

> <Negative vol penalty>
0.000

$$$$

  -OEChem-04052316563D

 83 91  0     1  0  0  0  0  0999 V2000
  -16.7072  -28.7708   24.0291 C   0  0  0  0  0  0  0  0  0  0  0  0
  -17.3437  -27.9183   23.1328 C   0  0  0  0  0  0  0  0  0  0  0  0
  -27.1856  -20.1816   17.9778 C   0  0  0  0  0  0  0  0  0  0  0  0
  -27.9987  -20.4393   20.2382 C   0  0  0  0  0  0  0  0  0  0  0  0
  -17.2125  -30.0513   24.2502 C   0  0  0  0  0  0  0  0  0  0  0  0
  -18.4854  -28.3462   22.4562 C   0  0  0  0  0  0  0  0  0  0  0  0
  -22.1431  -24.8442   22.4097 C   0  0  0  0  0  0  0  0  0  0  0  0
  -27.9757  -21.2566   17.5710 C   0  0  0  0  0  0  0  0  0  0  0  0
  -28.7889  -21.5144   19.8314 C   0  0  0  0  0  0  0  0  0  0  0  0
  -22.0078  -23.7942   21.5025 C   0  0  0  0  0  0  0  0  0  0  0  0
  -29.5066  -24.1624   16.0101 C   0  0  0  0  0  0  0  0  0  0  0  0
  -28.9251  -25.1179   15.1768 C   0  0  0  0  0  0  0  0  0  0  0  0
  -23.5512  -24.8933   20.0094 C   0  0  0  0  0  0  0  0  0  0  0  0
  -27.2699  -25.5894   16.8725 C   0  0  0  0  0  0  0  0  0  0  0  0
  -19.5699  -19.1018   17.9987 C   0  0  0  0  0  0  0  0  0  0  0  0
  -27.1970  -19.7730   19.3115 C   0  0  0  0  0  0  0  0  0  0  0  0
  -26.7426  -17.3027   19.7575 C   0  0  0  0  0  0  0  0  0  0  0  0
  -18.3665  -30.4917   23.5832 C   0  0  0  0  0  0  0  0  0  0  0  0
  -22.9765  -25.9337   22.1182 C   0  0  0  0  0  0  0  0  0  0  0  0
  -19.0059  -29.6343   22.6675 C   0  0  0  0  0  0  0  0  0  0  0  0
  -23.6973  -25.9546   20.9157 C   0  0  0  0  0  0  0  0  0  0  0  0
  -20.1044  -17.8746   17.6910 C   0  0  0  0  0  0  0  0  0  0  0  0
  -28.7774  -21.9230   18.4977 C   0  0  0  0  0  0  0  0  0  0  0  0
  -22.7096  -23.8200   20.3009 C   0  0  0  0  0  0  0  0  0  0  0  0
  -28.9698  -23.9203   17.2746 C   0  0  0  0  0  0  0  0  0  0  0  0
  -27.8067  -25.8314   15.6080 C   0  0  0  0  0  0  0  0  0  0  0  0
  -27.8515  -24.6338   17.7058 C   0  0  0  0  0  0  0  0  0  0  0  0
  -26.3806  -18.6629   19.7325 C   0  0  0  0  0  0  0  0  0  0  0  0
  -20.6866  -18.0525   16.4217 C   0  0  0  0  0  0  0  0  0  0  0  0
  -25.6265  -16.6590   20.2333 C   0  0  0  0  0  0  0  0  0  0  0  0
  -27.9774  -16.6770   19.3842 C   0  0  0  0  0  0  0  0  0  0  0  0
  -22.5305  -29.0558   21.7215 C   0  0  0  0  0  0  0  0  0  0  0  0
  -25.7701  -29.1031   21.5629 C   0  0  0  0  0  0  0  0  0  0  0  0
  -28.6642  -27.4134   20.9178 C   0  0  0  0  0  0  0  0  0  0  0  0
  -20.0211  -16.7792   19.9236 C   0  0  0  0  0  0  0  0  0  0  0  0
  -18.8481  -31.9013   23.8193 C   0  0  0  0  0  0  0  0  0  0  0  0
  -23.1322  -27.0457   23.1191 C   0  0  0  0  0  0  0  0  0  0  0  0
  -24.6206  -27.0915   20.5642 C   0  0  0  0  0  0  0  0  0  0  0  0
  -20.2780  -32.1442   23.3433 C   0  0  0  0  0  0  0  0  0  0  0  0
  -21.6545  -18.0112   22.8318 C   0  0  0  0  0  0  0  0  0  0  0  0
  -20.4795  -31.5710   21.9441 C   0  0  0  0  0  0  0  0  0  0  0  0
  -23.0863  -18.1831   22.3258 C   0  0  0  0  0  0  0  0  0  0  0  0
  -20.6227  -18.4171   21.7789 C   0  0  0  0  0  0  0  0  0  0  0  0
  -22.2306  -17.9121   19.9667 C   0  0  0  0  0  0  0  0  0  0  0  0
  -20.2609  -30.0532   21.9330 C   0  0  1  0  0  0  0  0  0  0  0  0
  -23.6112  -28.3513   22.4920 C   0  0  1  0  0  0  0  0  0  0  0  0
  -23.2887  -17.4573   20.9840 C   0  0  1  0  0  0  0  0  0  0  0  0
  -22.8326  -16.7968   16.0987 C   0  0  0  0  0  0  0  0  0  0  0  0
  -31.1525  -27.7279   20.8359 C   0  0  0  0  0  0  0  0  0  0  0  0
  -25.4937  -30.5787   18.9066 C   0  0  0  0  0  0  0  0  0  0  0  0
  -27.8883  -30.0250   18.4296 C   0  0  0  0  0  0  0  0  0  0  0  0
  -27.3061  -31.4439   20.3969 C   0  0  0  0  0  0  0  0  0  0  0  0
  -19.7990  -15.3981   17.8697 C   0  0  0  0  0  0  0  0  0  0  0  0
  -29.1066  -25.3848   23.0268 C   0  0  0  0  0  0  0  0  0  0  0  0
  -21.4033  -17.0542   15.6076 C   0  0  0  0  0  0  0  0  0  0  0  0
  -20.3820  -22.3187   17.5723 C   0  0  0  0  0  0  0  0  0  0  0  0
  -21.8608  -22.1721   17.2102 C   0  0  0  0  0  0  0  0  0  0  0  0
  -19.4751  -21.3613   16.7909 C   0  0  0  0  0  0  0  0  0  0  0  0
  -22.7333  -23.1128   18.0304 C   0  0  0  0  0  0  0  0  0  1  0  0
  -26.7884  -28.9700   20.4564 C   0  0  1  0  0  0  0  0  0  0  0  0
  -29.9661  -27.3132   21.6921 C   0  0  2  0  0  0  0  0  0  0  0  0
  -26.8503  -30.2338   19.5528 C   0  0  0  0  0  0  0  0  0  0  0  0
  -25.1320  -18.8721   20.1583 N   0  0  0  0  0  0  0  0  0  0  0  0
  -20.5361  -19.2949   15.9549 N   0  0  0  0  0  0  0  0  0  0  0  0
  -19.8531  -19.9087   16.9361 N   0  0  0  0  0  0  0  0  0  0  0  0
  -24.6997  -17.6347   20.4554 N   0  0  0  0  0  0  0  0  0  0  0  0
  -24.7344  -28.1581   21.5726 N   0  0  0  0  0  0  0  0  0  0  0  0
  -20.8804  -17.7306   20.5051 N   0  0  0  0  0  0  0  0  0  0  0  0
  -25.3571  -15.3592   20.4792 N   0  0  0  0  0  0  0  0  0  0  0  0
  -29.0215  -17.4861   18.9155 N   0  0  0  0  0  0  0  0  0  0  0  0
  -21.4167  -29.3721   22.4758 N   0  0  0  0  0  0  0  0  0  0  0  0
  -28.0525  -28.6352   21.1031 N   0  0  0  0  0  0  0  0  0  0  0  0
  -20.0563  -16.6899   18.5154 N   0  0  0  0  0  0  0  0  0  0  0  0
  -30.1869  -25.9140   22.1551 N   0  3  0  0  0  0  0  0  0  0  0  0
  -28.1443  -15.4354   19.4482 O   0  0  0  0  0  0  0  0  0  0  0  0
  -22.6957  -29.2961   20.5313 O   0  0  0  0  0  0  0  0  0  0  0  0
  -25.8933  -30.0078   22.3924 O   0  0  0  0  0  0  0  0  0  0  0  0
  -28.2348  -26.5006   20.2157 O   0  0  0  0  0  0  0  0  0  0  0  0
  -19.2979  -16.0478   20.6104 O   0  0  0  0  0  0  0  0  0  0  0  0
  -29.5488  -22.9719   18.1010 O   0  0  0  0  0  0  0  0  0  0  0  0
  -22.5789  -22.7968   19.4134 O   0  0  0  0  0  0  0  0  0  1  0  0
  -27.2493  -26.7501   14.8083 F   0  0  0  0  0  0  0  0  0  0  0  0
  -27.3320  -24.4064   18.9200 F   0  0  0  0  0  0  0  0  0  0  0  0
  1  2  1  0  0  0  0
  1  5  2  0  0  0  0
  2  6  2  0  0  0  0
  3  8  2  0  0  0  0
  3 16  1  0  0  0  0
  4  9  1  0  0  0  0
  4 16  2  0  0  0  0
  5 18  1  0  0  0  0
  6 20  1  0  0  0  0
  7 10  2  0  0  0  0
  7 19  1  0  0  0  0
  8 23  1  0  0  0  0
  9 23  2  0  0  0  0
 10 24  1  0  0  0  0
 11 12  2  0  0  0  0
 11 25  1  0  0  0  0
 12 26  1  0  0  0  0
 13 21  1  0  0  0  0
 13 24  2  0  0  0  0
 14 26  2  0  0  0  0
 14 27  1  0  0  0  0
 15 22  2  0  0  0  0
 15 65  1  0  0  0  0
 16 28  1  0  0  0  0
 17 28  1  0  0  0  0
 17 30  2  0  0  0  0
 17 31  1  0  0  0  0
 18 20  2  0  0  0  0
 18 36  1  0  0  0  0
 19 21  2  0  0  0  0
 19 37  1  0  0  0  0
 20 45  1  0  0  0  0
 21 38  1  0  0  0  0
 22 29  1  0  0  0  0
 22 73  1  0  0  0  0
 23 80  1  0  0  0  0
 24 81  1  0  0  0  0
 25 27  2  0  0  0  0
 25 80  1  0  0  0  0
 26 82  1  0  0  0  0
 27 83  1  0  0  0  0
 28 63  2  0  0  0  0
 29 55  1  0  0  0  0
 29 64  2  0  0  0  0
 30 66  1  0  0  0  0
 30 69  1  0  0  0  0
 31 70  1  0  0  0  0
 31 75  2  0  0  0  0
 32 46  1  0  0  0  0
 32 71  1  0  0  0  0
 32 76  2  0  0  0  0
 33 60  1  0  0  0  0
 33 67  1  0  0  0  0
 33 77  2  0  0  0  0
 34 61  1  0  0  0  0
 34 72  1  0  0  0  0
 34 78  2  0  0  0  0
 35 68  1  0  0  0  0
 35 73  1  0  0  0  0
 35 79  2  0  0  0  0
 36 39  1  0  0  0  0
 37 46  1  0  0  0  0
 38 67  1  0  0  0  0
 39 41  1  0  0  0  0
 40 42  1  0  0  0  0
 40 43  1  0  0  0  0
 41 45  1  0  0  0  0
 42 47  1  0  0  0  0
 43 68  1  0  0  0  0
 44 47  1  0  0  0  0
 44 68  1  0  0  0  0
 45 71  1  0  0  0  0
 46 67  1  0  0  0  0
 47 66  1  0  0  0  0
 48 55  1  0  0  0  0
 49 61  1  0  0  0  0
 50 62  1  0  0  0  0
 51 62  1  0  0  0  0
 52 62  1  0  0  0  0
 53 73  1  0  0  0  0
 54 74  1  0  0  0  0
 56 57  1  0  0  0  0
 56 58  1  0  0  0  0
 57 59  1  0  0  0  0
 58 65  1  0  0  0  0
 59 81  1  0  0  0  0
 60 62  1  0  0  0  0
 60 72  1  0  0  0  0
 61 74  1  0  0  0  0
 63 66  1  0  0  0  0
 64 65  1  0  0  0  0
M  CHG  1  74   1
M  ISO  4  35 100  59 101  73 100  81 101
M  END
> <Batch ID>
0036

> <Smiles>
CCc1nn(CCC[101CH2:1][101O:1]c2ccc3c(c2)CN(C(=O)C(NC(=O)C(C)NC)C(C)(C)C)C(C(=O)NC2CCCc4ccccc42)C3)cc1[100N:0](C)[100C:0](=O)N1CCCC(n2nc(-c3ccc(Oc4ccc(F)cc4F)cc3)c(C(N)=O)c2N)C1

> <Shape>
0.170

> <Color>
0.104

> <Negative vol penalty>
0.000

$$$$

  -OEChem-04052316563D

 86 94  0     1  0  0  0  0  0999 V2000
  -18.7788  -32.6800   20.5258 C   0  0  0  0  0  0  0  0  0  0  0  0
  -20.0529  -32.3258   20.0938 C   0  0  0  0  0  0  0  0  0  0  0  0
  -24.9903  -16.8857   21.5385 C   0  0  0  0  0  0  0  0  0  0  0  0
  -25.1425  -16.2690   19.2075 C   0  0  0  0  0  0  0  0  0  0  0  0
  -18.3271  -32.2624   21.7770 C   0  0  0  0  0  0  0  0  0  0  0  0
  -20.8765  -31.5548   20.9134 C   0  0  0  0  0  0  0  0  0  0  0  0
  -24.9136  -27.3102   19.1268 C   0  0  0  0  0  0  0  0  0  0  0  0
  -23.7676  -16.2213   21.6344 C   0  0  0  0  0  0  0  0  0  0  0  0
  -23.9198  -15.6045   19.3034 C   0  0  0  0  0  0  0  0  0  0  0  0
  -26.2951  -27.3481   18.9431 C   0  0  0  0  0  0  0  0  0  0  0  0
  -20.7804  -14.3810   22.5857 C   0  0  0  0  0  0  0  0  0  0  0  0
  -20.5731  -13.5615   23.6952 C   0  0  0  0  0  0  0  0  0  0  0  0
  -26.6086  -26.4517   21.1605 C   0  0  0  0  0  0  0  0  0  0  0  0
  -32.1305  -26.6062   17.2985 C   0  0  0  0  0  0  0  0  0  0  0  0
  -32.8432  -25.1347   19.0771 C   0  0  0  0  0  0  0  0  0  0  0  0
  -22.4737  -12.2141   23.0553 C   0  0  0  0  0  0  0  0  0  0  0  0
  -25.6777  -16.9097   20.3249 C   0  0  0  0  0  0  0  0  0  0  0  0
  -28.2213  -17.0576   20.4510 C   0  0  0  0  0  0  0  0  0  0  0  0
  -19.1419  -31.4778   22.6083 C   0  0  0  0  0  0  0  0  0  0  0  0
  -24.3685  -26.8522   20.3350 C   0  0  0  0  0  0  0  0  0  0  0  0
  -20.4358  -31.1275   22.1774 C   0  0  0  0  0  0  0  0  0  0  0  0
  -25.2198  -26.4065   21.3562 C   0  0  0  0  0  0  0  0  0  0  0  0
  -32.8505  -25.4918   17.7287 C   0  0  0  0  0  0  0  0  0  0  0  0
  -31.4032  -27.3637   18.2166 C   0  0  0  0  0  0  0  0  0  0  0  0
  -32.1158  -25.8921   19.9952 C   0  0  0  0  0  0  0  0  0  0  0  0
  -31.3958  -27.0066   19.5650 C   0  0  0  0  0  0  0  0  0  0  0  0
  -23.2324  -15.5807   20.5170 C   0  0  0  0  0  0  0  0  0  0  0  0
  -27.1429  -26.9216   19.9611 C   0  0  0  0  0  0  0  0  0  0  0  0
  -21.8344  -14.1170   21.7109 C   0  0  0  0  0  0  0  0  0  0  0  0
  -21.4197  -12.4781   23.9300 C   0  0  0  0  0  0  0  0  0  0  0  0
  -22.6810  -13.0336   21.9458 C   0  0  0  0  0  0  0  0  0  0  0  0
  -26.9405  -17.5963   20.2250 C   0  0  0  0  0  0  0  0  0  0  0  0
  -29.0792  -18.1069   20.2285 C   0  0  0  0  0  0  0  0  0  0  0  0
  -28.6015  -15.7276   20.8281 C   0  0  0  0  0  0  0  0  0  0  0  0
  -22.5676  -28.1414   22.6149 C   0  0  0  0  0  0  0  0  0  0  0  0
  -22.5563  -25.1129   23.7772 C   0  0  0  0  0  0  0  0  0  0  0  0
  -24.0861  -22.0667   23.9405 C   0  0  0  0  0  0  0  0  0  0  0  0
  -29.2247  -22.7252   16.5227 C   0  0  0  0  0  0  0  0  0  0  0  0
  -18.6278  -31.0899   23.9721 C   0  0  0  0  0  0  0  0  0  0  0  0
  -22.8755  -26.7924   20.5075 C   0  0  0  0  0  0  0  0  0  0  0  0
  -24.6844  -25.8868   22.6645 C   0  0  0  0  0  0  0  0  0  0  0  0
  -19.4216  -29.9605   24.6237 C   0  0  0  0  0  0  0  0  0  0  0  0
  -28.6540  -23.0238   20.1678 C   0  0  0  0  0  0  0  0  0  0  0  0
  -20.9196  -30.2195   24.4985 C   0  0  0  0  0  0  0  0  0  0  0  0
  -28.2036  -21.6151   20.5509 C   0  0  0  0  0  0  0  0  0  0  0  0
  -28.3006  -23.3587   18.7219 C   0  0  0  0  0  0  0  0  0  0  0  0
  -28.3608  -20.9621   18.1159 C   0  0  0  0  0  0  0  0  0  0  0  0
  -21.3494  -30.2713   23.0274 C   0  0  1  0  0  0  0  0  0  0  0  0
  -22.4427  -26.7899   21.9704 C   0  0  1  0  0  0  0  0  0  0  0  0
  -28.7432  -20.5761   19.5526 C   0  0  2  0  0  0  0  0  0  0  0  0
  -30.6396  -28.5519   17.7300 C   0  0  0  0  0  0  0  0  0  0  0  0
  -32.1242  -25.4886   21.4336 C   0  0  0  0  0  0  0  0  0  0  0  0
  -23.8603  -19.8032   25.0003 C   0  0  0  0  0  0  0  0  0  0  0  0
  -23.5278  -26.2616   26.4318 C   0  0  0  0  0  0  0  0  0  0  0  0
  -24.1819  -23.9437   27.1156 C   0  0  0  0  0  0  0  0  0  0  0  0
  -21.7910  -24.4744   26.6416 C   0  0  0  0  0  0  0  0  0  0  0  0
  -30.2930  -21.8568   14.4772 C   0  0  0  0  0  0  0  0  0  0  0  0
  -23.8866  -20.7265   21.3093 C   0  0  0  0  0  0  0  0  0  0  0  0
  -33.6286  -24.6824   16.7472 C   0  0  0  0  0  0  0  0  0  0  0  0
  -30.6083  -27.8262   20.5582 C   0  0  0  0  0  0  0  0  0  0  0  0
  -32.7937  -23.5439   16.1403 C   0  0  0  0  0  0  0  0  0  0  0  0
  -32.2591  -22.5962   17.2181 C   0  0  0  0  0  0  0  0  0  0  0  0
  -31.4158  -21.4651   16.6386 C   0  0  0  0  0  0  0  0  0  0  0  0
  -29.2937  -27.1589   20.9477 C   0  0  0  0  0  0  0  0  0  1  0  0
  -23.4319  -24.3278   24.7237 C   0  0  1  0  0  0  0  0  0  0  0  0
  -23.5441  -20.6575   23.7825 C   0  0  2  0  0  0  0  0  0  0  0  0
  -23.2436  -24.7634   26.2043 C   0  0  0  0  0  0  0  0  0  0  0  0
  -26.9768  -18.8876   19.8852 N   0  0  0  0  0  0  0  0  0  0  0  0
  -28.2908  -19.1690   19.8961 N   0  0  0  0  0  0  0  0  0  0  0  0
  -23.2176  -25.8539   22.7874 N   0  0  0  0  0  0  0  0  0  0  0  0
  -28.7878  -22.3332   17.7987 N   0  0  0  0  0  0  0  0  0  0  0  0
  -30.4236  -18.2154   20.2869 N   0  0  0  0  0  0  0  0  0  0  0  0
  -27.5933  -14.7723   21.0158 N   0  0  0  0  0  0  0  0  0  0  0  0
  -21.4440  -28.9345   22.4811 N   0  0  0  0  0  0  0  0  0  0  0  0
  -23.1432  -22.9198   24.4738 N   0  0  0  0  0  0  0  0  0  0  0  0
  -30.2366  -21.9558   15.9287 N   0  0  0  0  0  0  0  0  0  0  0  0
  -24.1402  -20.0047   22.5828 N   0  3  0  0  0  0  0  0  0  0  0  0
  -29.7988  -15.4004   21.0098 O   0  0  0  0  0  0  0  0  0  0  0  0
  -23.6059  -28.4418   23.1923 O   0  0  0  0  0  0  0  0  0  0  0  0
  -21.3305  -25.0647   23.9066 O   0  0  0  0  0  0  0  0  0  0  0  0
  -25.2326  -22.3785   23.6259 O   0  0  0  0  0  0  0  0  0  0  0  0
  -28.7447  -23.7126   15.9512 O   0  0  0  0  0  0  0  0  0  0  0  0
  -22.0395  -14.9320   20.6103 O   0  0  0  0  0  0  0  0  0  0  0  0
  -28.4917  -26.9582   19.7846 O   0  0  0  0  0  0  0  0  0  1  0  0
  -21.2213  -11.6921   24.9964 F   0  0  0  0  0  0  0  0  0  0  0  0
  -23.6960  -12.7758   21.1096 F   0  0  0  0  0  0  0  0  0  0  0  0
  1  2  1  0  0  0  0
  1  5  2  0  0  0  0
  2  6  2  0  0  0  0
  3  8  2  0  0  0  0
  3 17  1  0  0  0  0
  4  9  1  0  0  0  0
  4 17  2  0  0  0  0
  5 19  1  0  0  0  0
  6 21  1  0  0  0  0
  7 10  2  0  0  0  0
  7 20  1  0  0  0  0
  8 27  1  0  0  0  0
  9 27  2  0  0  0  0
 10 28  1  0  0  0  0
 11 12  2  0  0  0  0
 11 29  1  0  0  0  0
 12 30  1  0  0  0  0
 13 22  1  0  0  0  0
 13 28  2  0  0  0  0
 14 23  1  0  0  0  0
 14 24  2  0  0  0  0
 15 23  2  0  0  0  0
 15 25  1  0  0  0  0
 16 30  2  0  0  0  0
 16 31  1  0  0  0  0
 17 32  1  0  0  0  0
 18 32  1  0  0  0  0
 18 33  2  0  0  0  0
 18 34  1  0  0  0  0
 19 21  2  0  0  0  0
 19 39  1  0  0  0  0
 20 22  2  0  0  0  0
 20 40  1  0  0  0  0
 21 48  1  0  0  0  0
 22 41  1  0  0  0  0
 23 59  1  0  0  0  0
 24 26  1  0  0  0  0
 24 51  1  0  0  0  0
 25 26  2  0  0  0  0
 25 52  1  0  0  0  0
 26 60  1  0  0  0  0
 27 83  1  0  0  0  0
 28 84  1  0  0  0  0
 29 31  2  0  0  0  0
 29 83  1  0  0  0  0
 30 85  1  0  0  0  0
 31 86  1  0  0  0  0
 32 68  2  0  0  0  0
 33 69  1  0  0  0  0
 33 72  1  0  0  0  0
 34 73  1  0  0  0  0
 34 78  2  0  0  0  0
 35 49  1  0  0  0  0
 35 74  1  0  0  0  0
 35 79  2  0  0  0  0
 36 65  1  0  0  0  0
 36 70  1  0  0  0  0
 36 80  2  0  0  0  0
 37 66  1  0  0  0  0
 37 75  1  0  0  0  0
 37 81  2  0  0  0  0
 38 71  1  0  0  0  0
 38 76  1  0  0  0  0
 38 82  2  0  0  0  0
 39 42  1  0  0  0  0
 40 49  1  0  0  0  0
 41 70  1  0  0  0  0
 42 44  1  0  0  0  0
 43 45  1  0  0  0  0
 43 46  1  0  0  0  0
 44 48  1  0  0  0  0
 45 50  1  0  0  0  0
 46 71  1  0  0  0  0
 47 50  1  0  0  0  0
 47 71  1  0  0  0  0
 48 74  1  0  0  0  0
 49 70  1  0  0  0  0
 50 69  1  0  0  0  0
 53 66  1  0  0  0  0
 54 67  1  0  0  0  0
 55 67  1  0  0  0  0
 56 67  1  0  0  0  0
 57 76  1  0  0  0  0
 58 77  1  0  0  0  0
 59 61  1  0  0  0  0
 60 64  1  0  0  0  0
 61 62  1  0  0  0  0
 62 63  1  0  0  0  0
 63 76  1  0  0  0  0
 64 84  1  0  0  0  0
 65 67  1  0  0  0  0
 65 75  1  0  0  0  0
 66 77  1  0  0  0  0
 68 69  1  0  0  0  0
M  CHG  1  77   1
M  ISO  4  38 100  64 101  76 100  84 101
M  END
> <Batch ID>
0036

> <Smiles>
CNC(C)C(=O)NC(C(=O)N1Cc2cc([101O:1][101CH2:1]Cc3c(C)cc(CCCC[100N:0](C)[100C:0](=O)N4CCCC(n5nc(-c6ccc(Oc7ccc(F)cc7F)cc6)c(C(N)=O)c5N)C4)cc3C)ccc2CC1C(=O)NC1CCCc2ccccc21)C(C)(C)C

> <Shape>
0.194

> <Color>
0.085

> <Negative vol penalty>
0.000

$$$$

  -OEChem-04052316563D

 85 93  0     1  0  0  0  0  0999 V2000
  -34.0839  -30.1023   26.8955 C   0  0  0  0  0  0  0  0  0  0  0  0
  -33.0059  -29.2673   26.6198 C   0  0  0  0  0  0  0  0  0  0  0  0
  -23.0063   -9.8892   19.9788 C   0  0  0  0  0  0  0  0  0  0  0  0
  -23.7378   -9.9375   22.2808 C   0  0  0  0  0  0  0  0  0  0  0  0
  -34.7983  -30.6849   25.8495 C   0  0  0  0  0  0  0  0  0  0  0  0
  -32.6409  -29.0152   25.2978 C   0  0  0  0  0  0  0  0  0  0  0  0
  -31.6861  -24.1154   24.4466 C   0  0  0  0  0  0  0  0  0  0  0  0
  -29.6803  -19.6267   24.1500 C   0  0  0  0  0  0  0  0  0  0  0  0
  -22.2448   -8.7512   20.2446 C   0  0  0  0  0  0  0  0  0  0  0  0
  -22.9763   -8.7995   22.5467 C   0  0  0  0  0  0  0  0  0  0  0  0
  -30.4532  -23.6235   24.8731 C   0  0  0  0  0  0  0  0  0  0  0  0
  -23.2318   -5.4626   22.0662 C   0  0  0  0  0  0  0  0  0  0  0  0
  -23.8253   -4.4459   22.8142 C   0  0  0  0  0  0  0  0  0  0  0  0
  -30.5147  -18.8106   23.3944 C   0  0  0  0  0  0  0  0  0  0  0  0
  -29.6106  -23.7984   22.6196 C   0  0  0  0  0  0  0  0  0  0  0  0
  -22.1053   -4.6784   24.4949 C   0  0  0  0  0  0  0  0  0  0  0  0
  -23.7529  -10.4824   20.9969 C   0  0  0  0  0  0  0  0  0  0  0  0
  -24.1282  -12.9998   20.8257 C   0  0  0  0  0  0  0  0  0  0  0  0
  -34.4480  -30.4321   24.5139 C   0  0  0  0  0  0  0  0  0  0  0  0
  -31.8874  -24.4633   23.1032 C   0  0  0  0  0  0  0  0  0  0  0  0
  -33.3505  -29.5960   24.2330 C   0  0  0  0  0  0  0  0  0  0  0  0
  -30.8477  -24.2920   22.1781 C   0  0  0  0  0  0  0  0  0  0  0  0
  -28.3150  -19.3666   24.1922 C   0  0  0  0  0  0  0  0  0  0  0  0
  -22.2298   -8.2064   21.5285 C   0  0  0  0  0  0  0  0  0  0  0  0
  -29.4143  -23.4676   23.9602 C   0  0  0  0  0  0  0  0  0  0  0  0
  -22.0751   -6.0873   22.5325 C   0  0  0  0  0  0  0  0  0  0  0  0
  -23.2621   -4.0537   24.0285 C   0  0  0  0  0  0  0  0  0  0  0  0
  -21.5119   -5.6952   23.7469 C   0  0  0  0  0  0  0  0  0  0  0  0
  -24.5401  -11.6576   20.7228 C   0  0  0  0  0  0  0  0  0  0  0  0
  -29.9392  -17.7557   22.7047 C   0  0  0  0  0  0  0  0  0  0  0  0
  -27.8379  -18.2870   23.4665 C   0  0  0  0  0  0  0  0  0  0  0  0
  -25.2342  -13.7274   20.4599 C   0  0  0  0  0  0  0  0  0  0  0  0
  -22.8593  -13.5405   21.2171 C   0  0  0  0  0  0  0  0  0  0  0  0
  -32.6007  -27.1520   21.5651 C   0  0  0  0  0  0  0  0  0  0  0  0
  -32.7798  -25.1770   18.9981 C   0  0  0  0  0  0  0  0  0  0  0  0
  -31.8489  -22.2388   17.5327 C   0  0  0  0  0  0  0  0  0  0  0  0
  -30.7277  -14.6821   20.6950 C   0  0  0  0  0  0  0  0  0  0  0  0
  -35.2206  -31.1221   23.4177 C   0  0  0  0  0  0  0  0  0  0  0  0
  -33.2314  -24.9674   22.6539 C   0  0  0  0  0  0  0  0  0  0  0  0
  -31.0190  -24.6318   20.7208 C   0  0  0  0  0  0  0  0  0  0  0  0
  -35.0027  -30.5059   22.0382 C   0  0  0  0  0  0  0  0  0  0  0  0
  -29.5895  -12.2597   18.3471 C   0  0  0  0  0  0  0  0  0  0  0  0
  -33.5171  -30.2652   21.7896 C   0  0  0  0  0  0  0  0  0  0  0  0
  -28.1432  -11.9935   18.7682 C   0  0  0  0  0  0  0  0  0  0  0  0
  -30.4944  -12.4956   19.5543 C   0  0  0  0  0  0  0  0  0  0  0  0
  -28.5851  -13.2808   20.9004 C   0  0  0  0  0  0  0  0  0  0  0  0
  -32.9395  -29.2786   22.8116 C   0  0  1  0  0  0  0  0  0  0  0  0
  -33.1652  -25.7745   21.3611 C   0  0  1  0  0  0  0  0  0  0  0  0
  -27.6235  -13.0923   19.7146 C   0  0  2  0  0  0  0  0  0  0  0  0
  -32.1237  -20.9195   15.4158 C   0  0  0  0  0  0  0  0  0  0  0  0
  -26.5229  -16.3653   25.4625 C   0  0  0  0  0  0  0  0  0  0  0  0
  -24.5425  -16.2866   23.9344 C   0  0  0  0  0  0  0  0  0  0  0  0
  -30.8194  -27.0401   17.5854 C   0  0  0  0  0  0  0  0  0  0  0  0
  -30.4059  -25.2234   15.9130 C   0  0  0  0  0  0  0  0  0  0  0  0
  -32.6870  -26.2057   16.1465 C   0  0  0  0  0  0  0  0  0  0  0  0
  -33.1180  -19.9822   18.9667 C   0  0  0  0  0  0  0  0  0  0  0  0
  -27.4048  -20.2488   25.0087 C   0  0  0  0  0  0  0  0  0  0  0  0
  -26.3810  -17.9581   23.4771 C   0  0  0  0  0  0  0  0  0  0  0  0
  -30.8056  -16.8586   21.8851 C   0  0  0  0  0  0  0  0  0  0  0  0
  -26.5866  -21.2333   24.1704 C   0  0  0  0  0  0  0  0  0  0  0  0
  -27.4440  -22.2487   23.4238 C   0  0  0  0  0  0  0  0  0  1  0  0
  -31.8021  -24.6821   17.9597 C   0  0  1  0  0  0  0  0  0  0  0  0
  -32.6557  -21.1695   16.8184 C   0  0  2  0  0  0  0  0  0  0  0  0
  -26.0486  -16.5468   24.0185 C   0  0  0  0  0  0  0  0  0  0  0  0
  -31.4245  -25.7832   16.9289 C   0  0  0  0  0  0  0  0  0  0  0  0
  -25.8087  -11.5368   20.3227 N   0  0  0  0  0  0  0  0  0  0  0  0
  -28.6176  -17.4718   22.7213 N   0  0  0  0  0  0  0  0  0  0  0  0
  -26.2035  -12.8124   20.1710 N   0  0  0  0  0  0  0  0  0  0  0  0
  -32.3497  -25.1270   20.3316 N   0  0  0  0  0  0  0  0  0  0  0  0
  -29.9461  -13.5503   20.4104 N   0  0  0  0  0  0  0  0  0  0  0  0
  -25.4624  -15.0542   20.3603 N   0  0  0  0  0  0  0  0  0  0  0  0
  -21.8318  -12.6517   21.5615 N   0  0  0  0  0  0  0  0  0  0  0  0
  -33.3082  -27.9218   22.4686 N   0  0  0  0  0  0  0  0  0  0  0  0
  -32.4024  -23.4910   17.3687 N   0  0  0  0  0  0  0  0  0  0  0  0
  -30.1300  -15.6367   21.5088 N   0  0  0  0  0  0  0  0  0  0  0  0
  -32.6027  -19.8876   17.5766 N   0  3  0  0  0  0  0  0  0  0  0  0
  -22.6380  -14.7749   21.2444 O   0  0  0  0  0  0  0  0  0  0  0  0
  -31.5984  -27.4918   20.9474 O   0  0  0  0  0  0  0  0  0  0  0  0
  -33.8870  -25.5859   18.6398 O   0  0  0  0  0  0  0  0  0  0  0  0
  -30.8277  -21.9887   18.1692 O   0  0  0  0  0  0  0  0  0  0  0  0
  -31.8713  -14.8334   20.2521 O   0  0  0  0  0  0  0  0  0  0  0  0
  -21.4866   -7.0961   21.7884 O   0  0  0  0  0  0  0  0  0  0  0  0
  -28.2098  -22.9883   24.3739 O   0  0  0  0  0  0  0  0  0  1  0  0
  -23.8313   -3.0763   24.7460 F   0  0  0  0  0  0  0  0  0  0  0  0
  -20.4000   -6.2908   24.1995 F   0  0  0  0  0  0  0  0  0  0  0  0
  1  2  1  0  0  0  0
  1  5  2  0  0  0  0
  2  6  2  0  0  0  0
  3  9  2  0  0  0  0
  3 17  1  0  0  0  0
  4 10  1  0  0  0  0
  4 17  2  0  0  0  0
  5 19  1  0  0  0  0
  6 21  1  0  0  0  0
  7 11  2  0  0  0  0
  7 20  1  0  0  0  0
  8 14  2  0  0  0  0
  8 23  1  0  0  0  0
  9 24  1  0  0  0  0
 10 24  2  0  0  0  0
 11 25  1  0  0  0  0
 12 13  2  0  0  0  0
 12 26  1  0  0  0  0
 13 27  1  0  0  0  0
 14 30  1  0  0  0  0
 15 22  1  0  0  0  0
 15 25  2  0  0  0  0
 16 27  2  0  0  0  0
 16 28  1  0  0  0  0
 17 29  1  0  0  0  0
 18 29  1  0  0  0  0
 18 32  2  0  0  0  0
 18 33  1  0  0  0  0
 19 21  2  0  0  0  0
 19 38  1  0  0  0  0
 20 22  2  0  0  0  0
 20 39  1  0  0  0  0
 21 47  1  0  0  0  0
 22 40  1  0  0  0  0
 23 31  2  0  0  0  0
 23 57  1  0  0  0  0
 24 82  1  0  0  0  0
 25 83  1  0  0  0  0
 26 28  2  0  0  0  0
 26 82  1  0  0  0  0
 27 84  1  0  0  0  0
 28 85  1  0  0  0  0
 29 66  2  0  0  0  0
 30 59  1  0  0  0  0
 30 67  2  0  0  0  0
 31 58  1  0  0  0  0
 31 67  1  0  0  0  0
 32 68  1  0  0  0  0
 32 71  1  0  0  0  0
 33 72  1  0  0  0  0
 33 77  2  0  0  0  0
 34 48  1  0  0  0  0
 34 73  1  0  0  0  0
 34 78  2  0  0  0  0
 35 62  1  0  0  0  0
 35 69  1  0  0  0  0
 35 79  2  0  0  0  0
 36 63  1  0  0  0  0
 36 74  1  0  0  0  0
 36 80  2  0  0  0  0
 37 70  1  0  0  0  0
 37 75  1  0  0  0  0
 37 81  2  0  0  0  0
 38 41  1  0  0  0  0
 39 48  1  0  0  0  0
 40 69  1  0  0  0  0
 41 43  1  0  0  0  0
 42 44  1  0  0  0  0
 42 45  1  0  0  0  0
 43 47  1  0  0  0  0
 44 49  1  0  0  0  0
 45 70  1  0  0  0  0
 46 49  1  0  0  0  0
 46 70  1  0  0  0  0
 47 73  1  0  0  0  0
 48 69  1  0  0  0  0
 49 68  1  0  0  0  0
 50 63  1  0  0  0  0
 51 64  1  0  0  0  0
 52 64  1  0  0  0  0
 53 65  1  0  0  0  0
 54 65  1  0  0  0  0
 55 65  1  0  0  0  0
 56 76  1  0  0  0  0
 57 60  1  0  0  0  0
 58 64  1  0  0  0  0
 59 75  1  0  0  0  0
 60 61  1  0  0  0  0
 61 83  1  0  0  0  0
 62 65  1  0  0  0  0
 62 74  1  0  0  0  0
 63 76  1  0  0  0  0
 66 68  1  0  0  0  0
M  CHG  1  76   1
M  ISO  4  37 100  61 101  75 100  83 101
M  END
> <Batch ID>
0036

> <Smiles>
CNC(C)C(=O)NC(C(=O)N1Cc2cc([101O:1][101CH2:1]CCc3ccc(C[100NH:0][100C:0](=O)N4CCCC(n5nc(-c6ccc(Oc7ccc(F)cc7F)cc6)c(C(N)=O)c5N)C4)nc3CC(C)C)ccc2CC1C(=O)NC1CCCc2ccccc21)C(C)(C)C

> <Shape>
0.202

> <Color>
0.198

> <Negative vol penalty>
0.000

$$$$

  -OEChem-04052316563D

 86 94  0     1  0  0  0  0  0999 V2000
  -24.1774  -11.6253   19.9672 C   0  0  0  0  0  0  0  0  0  0  0  0
  -23.6540  -12.6087   20.8004 C   0  0  0  0  0  0  0  0  0  0  0  0
  -21.0691  -25.7886   18.0502 C   0  0  0  0  0  0  0  0  0  0  0  0
  -22.2342  -24.3333   19.5870 C   0  0  0  0  0  0  0  0  0  0  0  0
  -25.5093  -11.6942   19.5606 C   0  0  0  0  0  0  0  0  0  0  0  0
  -24.4625  -13.6612   21.2284 C   0  0  0  0  0  0  0  0  0  0  0  0
  -24.1437  -20.6142   22.9224 C   0  0  0  0  0  0  0  0  0  0  0  0
  -20.9035  -24.7225   17.1661 C   0  0  0  0  0  0  0  0  0  0  0  0
  -22.0687  -23.2671   18.7029 C   0  0  0  0  0  0  0  0  0  0  0  0
  -24.4939  -21.4898   23.9493 C   0  0  0  0  0  0  0  0  0  0  0  0
  -19.6125  -21.1171   17.8284 C   0  0  0  0  0  0  0  0  0  0  0  0
  -19.1978  -19.8956   18.3589 C   0  0  0  0  0  0  0  0  0  0  0  0
  -26.7581  -21.5484   23.1189 C   0  0  0  0  0  0  0  0  0  0  0  0
  -26.5108  -23.6807   27.9910 C   0  0  0  0  0  0  0  0  0  0  0  0
  -25.3835  -25.5067   26.8813 C   0  0  0  0  0  0  0  0  0  0  0  0
  -21.2203  -18.8550   17.5442 C   0  0  0  0  0  0  0  0  0  0  0  0
  -21.7345  -25.5940   19.2607 C   0  0  0  0  0  0  0  0  0  0  0  0
  -21.0337  -27.0867   21.2070 C   0  0  0  0  0  0  0  0  0  0  0  0
  -26.3319  -12.7532   19.9759 C   0  0  0  0  0  0  0  0  0  0  0  0
  -25.1022  -20.1899   21.9909 C   0  0  0  0  0  0  0  0  0  0  0  0
  -25.8070  -13.7436   20.8279 C   0  0  0  0  0  0  0  0  0  0  0  0
  -26.4168  -20.6695   22.0796 C   0  0  0  0  0  0  0  0  0  0  0  0
  -25.6841  -24.1475   26.9691 C   0  0  0  0  0  0  0  0  0  0  0  0
  -27.0367  -24.5732   28.9252 C   0  0  0  0  0  0  0  0  0  0  0  0
  -25.9094  -26.3992   27.8154 C   0  0  0  0  0  0  0  0  0  0  0  0
  -26.7361  -25.9324   28.8374 C   0  0  0  0  0  0  0  0  0  0  0  0
  -21.4033  -23.4618   17.4924 C   0  0  0  0  0  0  0  0  0  0  0  0
  -25.8020  -21.9547   24.0494 C   0  0  0  0  0  0  0  0  0  0  0  0
  -20.8311  -21.2076   17.1556 C   0  0  0  0  0  0  0  0  0  0  0  0
  -20.0017  -18.7646   18.2169 C   0  0  0  0  0  0  0  0  0  0  0  0
  -21.6350  -20.0766   17.0136 C   0  0  0  0  0  0  0  0  0  0  0  0
  -21.9063  -26.6950   20.1741 C   0  0  0  0  0  0  0  0  0  0  0  0
  -21.6443  -28.1767   21.7775 C   0  0  0  0  0  0  0  0  0  0  0  0
  -19.7829  -26.5163   21.6144 C   0  0  0  0  0  0  0  0  0  0  0  0
  -26.3493  -17.3819   21.1764 C   0  0  0  0  0  0  0  0  0  0  0  0
  -27.7890  -19.1336   18.8568 C   0  0  0  0  0  0  0  0  0  0  0  0
  -28.8990  -22.1815   17.7959 C   0  0  0  0  0  0  0  0  0  0  0  0
  -27.3499  -29.9706   22.0590 C   0  0  0  0  0  0  0  0  0  0  0  0
  -27.7782  -12.7596   19.5486 C   0  0  0  0  0  0  0  0  0  0  0  0
  -24.7021  -19.2662   20.8733 C   0  0  0  0  0  0  0  0  0  0  0  0
  -27.4785  -20.2602   21.0928 C   0  0  0  0  0  0  0  0  0  0  0  0
  -28.4649  -14.1090   19.7431 C   0  0  0  0  0  0  0  0  0  0  0  0
  -24.5965  -31.7917   20.7253 C   0  0  0  0  0  0  0  0  0  0  0  0
  -28.1506  -14.6736   21.1248 C   0  0  0  0  0  0  0  0  0  0  0  0
  -23.5161  -30.7274   20.5260 C   0  0  0  0  0  0  0  0  0  0  0  0
  -25.9903  -31.2441   20.4262 C   0  0  0  0  0  0  0  0  0  0  0  0
  -25.2634  -28.9510   20.9622 C   0  0  0  0  0  0  0  0  0  0  0  0
  -26.6456  -14.9142   21.2933 C   0  0  1  0  0  0  0  0  0  0  0  0
  -25.8798  -18.4959   20.2842 C   0  0  1  0  0  0  0  0  0  0  0  0
  -23.8461  -29.4405   21.3059 C   0  0  2  0  0  0  0  0  0  0  0  0
  -27.9203  -24.0478   30.0092 C   0  0  0  0  0  0  0  0  0  0  0  0
  -26.5662  -26.8260   31.1739 C   0  0  0  0  0  0  0  0  0  0  0  0
  -29.8611  -23.8952   16.2354 C   0  0  0  0  0  0  0  0  0  0  0  0
  -30.4478  -17.9786   19.8090 C   0  0  0  0  0  0  0  0  0  0  0  0
  -31.6123  -19.7933   18.5366 C   0  0  0  0  0  0  0  0  0  0  0  0
  -30.2053  -18.1278   17.3244 C   0  0  0  0  0  0  0  0  0  0  0  0
  -26.2365  -22.8257   16.6757 C   0  0  0  0  0  0  0  0  0  0  0  0
  -25.5723  -27.8500   27.6993 C   0  0  0  0  0  0  0  0  0  0  0  0
  -27.3005  -26.8891   29.8389 C   0  0  0  0  0  0  0  0  0  0  0  0
  -25.1178  -23.1875   25.9647 C   0  0  0  0  0  0  0  0  0  1  0  0
  -26.7259  -28.6663   27.0995 C   0  0  0  0  0  0  0  0  0  0  0  0
  -27.0664  -28.2065   25.6804 C   0  0  0  0  0  0  0  0  0  0  0  0
  -28.2436  -29.0007   25.1069 C   0  0  0  0  0  0  0  0  0  0  0  0
  -28.6007  -28.5755   23.6864 C   0  0  0  0  0  0  0  0  0  0  0  0
  -29.0869  -19.8964   18.7433 C   0  0  1  0  0  0  0  0  0  0  0  0
  -28.7248  -22.9140   16.4777 C   0  0  2  0  0  0  0  0  0  0  0  0
  -30.3188  -18.9554   18.6232 C   0  0  0  0  0  0  0  0  0  0  0  0
  -22.9888  -27.4729   20.0908 N   0  0  0  0  0  0  0  0  0  0  0  0
  -22.8004  -28.3645   21.0786 N   0  0  0  0  0  0  0  0  0  0  0  0
  -27.0396  -19.3504   20.0217 N   0  0  0  0  0  0  0  0  0  0  0  0
  -26.2410  -30.0248   21.1986 N   0  0  0  0  0  0  0  0  0  0  0  0
  -21.2998  -28.9833   22.8037 N   0  0  0  0  0  0  0  0  0  0  0  0
  -19.3008  -25.3983   20.9201 N   0  0  0  0  0  0  0  0  0  0  0  0
  -26.2478  -16.1259   20.6092 N   0  0  0  0  0  0  0  0  0  0  0  0
  -28.9242  -20.8140   17.6208 N   0  0  0  0  0  0  0  0  0  0  0  0
  -27.5109  -28.7808   22.7585 N   0  0  0  0  0  0  0  0  0  0  0  0
  -27.4410  -23.6709   16.4715 N   0  3  0  0  0  0  0  0  0  0  0  0
  -19.1048  -26.9941   22.5554 O   0  0  0  0  0  0  0  0  0  0  0  0
  -26.7738  -17.6427   22.2961 O   0  0  0  0  0  0  0  0  0  0  0  0
  -27.4492  -18.3789   17.9422 O   0  0  0  0  0  0  0  0  0  0  0  0
  -29.0061  -22.7642   18.8727 O   0  0  0  0  0  0  0  0  0  0  0  0
  -28.1351  -30.9146   22.1979 O   0  0  0  0  0  0  0  0  0  0  0  0
  -21.2417  -22.4212   16.6301 O   0  0  0  0  0  0  0  0  0  0  0  0
  -26.1467  -22.8089   25.0511 O   0  0  0  0  0  0  0  0  0  1  0  0
  -19.6041  -17.5919   18.7278 F   0  0  0  0  0  0  0  0  0  0  0  0
  -22.8073  -20.1576   16.3693 F   0  0  0  0  0  0  0  0  0  0  0  0
  1  2  1  0  0  0  0
  1  5  2  0  0  0  0
  2  6  2  0  0  0  0
  3  8  2  0  0  0  0
  3 17  1  0  0  0  0
  4  9  1  0  0  0  0
  4 17  2  0  0  0  0
  5 19  1  0  0  0  0
  6 21  1  0  0  0  0
  7 10  2  0  0  0  0
  7 20  1  0  0  0  0
  8 27  1  0  0  0  0
  9 27  2  0  0  0  0
 10 28  1  0  0  0  0
 11 12  2  0  0  0  0
 11 29  1  0  0  0  0
 12 30  1  0  0  0  0
 13 22  1  0  0  0  0
 13 28  2  0  0  0  0
 14 23  1  0  0  0  0
 14 24  2  0  0  0  0
 15 23  2  0  0  0  0
 15 25  1  0  0  0  0
 16 30  2  0  0  0  0
 16 31  1  0  0  0  0
 17 32  1  0  0  0  0
 18 32  1  0  0  0  0
 18 33  2  0  0  0  0
 18 34  1  0  0  0  0
 19 21  2  0  0  0  0
 19 39  1  0  0  0  0
 20 22  2  0  0  0  0
 20 40  1  0  0  0  0
 21 48  1  0  0  0  0
 22 41  1  0  0  0  0
 23 60  1  0  0  0  0
 24 26  1  0  0  0  0
 24 51  1  0  0  0  0
 25 26  2  0  0  0  0
 25 58  1  0  0  0  0
 26 59  1  0  0  0  0
 27 83  1  0  0  0  0
 28 84  1  0  0  0  0
 29 31  2  0  0  0  0
 29 83  1  0  0  0  0
 30 85  1  0  0  0  0
 31 86  1  0  0  0  0
 32 68  2  0  0  0  0
 33 69  1  0  0  0  0
 33 72  1  0  0  0  0
 34 73  1  0  0  0  0
 34 78  2  0  0  0  0
 35 49  1  0  0  0  0
 35 74  1  0  0  0  0
 35 79  2  0  0  0  0
 36 65  1  0  0  0  0
 36 70  1  0  0  0  0
 36 80  2  0  0  0  0
 37 66  1  0  0  0  0
 37 75  1  0  0  0  0
 37 81  2  0  0  0  0
 38 71  1  0  0  0  0
 38 76  1  0  0  0  0
 38 82  2  0  0  0  0
 39 42  1  0  0  0  0
 40 49  1  0  0  0  0
 41 70  1  0  0  0  0
 42 44  1  0  0  0  0
 43 45  1  0  0  0  0
 43 46  1  0  0  0  0
 44 48  1  0  0  0  0
 45 50  1  0  0  0  0
 46 71  1  0  0  0  0
 47 50  1  0  0  0  0
 47 71  1  0  0  0  0
 48 74  1  0  0  0  0
 49 70  1  0  0  0  0
 50 69  1  0  0  0  0
 52 59  1  0  0  0  0
 53 66  1  0  0  0  0
 54 67  1  0  0  0  0
 55 67  1  0  0  0  0
 56 67  1  0  0  0  0
 57 77  1  0  0  0  0
 58 61  1  0  0  0  0
 60 84  1  0  0  0  0
 61 62  1  0  0  0  0
 62 63  1  0  0  0  0
 63 64  1  0  0  0  0
 64 76  1  0  0  0  0
 65 67  1  0  0  0  0
 65 75  1  0  0  0  0
 66 77  1  0  0  0  0
 68 69  1  0  0  0  0
M  CHG  1  77   1
M  ISO  4  38 100  60 101  76 100  84 101
M  END
> <Batch ID>
0036

> <Smiles>
CCc1c(C)cc([101CH2:1][101O:1]c2ccc3c(c2)CN(C(=O)C(NC(=O)C(C)NC)C(C)(C)C)C(C(=O)NC2CCCc4ccccc42)C3)cc1CCCCC[100NH:0][100C:0](=O)N1CCCC(n2nc(-c3ccc(Oc4ccc(F)cc4F)cc3)c(C(N)=O)c2N)C1

> <Shape>
0.180

> <Color>
0.070

> <Negative vol penalty>
0.000

$$$$

  -OEChem-04052316563D

 86 94  0     1  0  0  0  0  0999 V2000
  -25.3506  -36.2284   23.0093 C   0  0  0  0  0  0  0  0  0  0  0  0
  -26.3573  -35.6408   22.2499 C   0  0  0  0  0  0  0  0  0  0  0  0
  -25.9778  -12.5871   22.1490 C   0  0  0  0  0  0  0  0  0  0  0  0
  -25.2223  -14.0162   20.3536 C   0  0  0  0  0  0  0  0  0  0  0  0
  -24.6064  -35.4532   23.8977 C   0  0  0  0  0  0  0  0  0  0  0  0
  -26.6211  -34.2777   22.3793 C   0  0  0  0  0  0  0  0  0  0  0  0
  -28.7969  -28.6249   18.5546 C   0  0  0  0  0  0  0  0  0  0  0  0
  -30.8248  -23.6255   22.1529 C   0  0  0  0  0  0  0  0  0  0  0  0
  -25.5092  -11.4702   21.4572 C   0  0  0  0  0  0  0  0  0  0  0  0
  -24.7537  -12.8993   19.6617 C   0  0  0  0  0  0  0  0  0  0  0  0
  -29.7477  -27.6057   18.5846 C   0  0  0  0  0  0  0  0  0  0  0  0
  -24.1884   -8.2767   20.3257 C   0  0  0  0  0  0  0  0  0  0  0  0
  -23.4685   -7.3220   21.0439 C   0  0  0  0  0  0  0  0  0  0  0  0
  -30.3443  -23.4188   23.4412 C   0  0  0  0  0  0  0  0  0  0  0  0
  -28.3451  -26.3498   20.0928 C   0  0  0  0  0  0  0  0  0  0  0  0
  -21.8210   -8.9942   21.6154 C   0  0  0  0  0  0  0  0  0  0  0  0
  -25.8343  -13.8601   21.5972 C   0  0  0  0  0  0  0  0  0  0  0  0
  -27.6000  -15.5894   22.2295 C   0  0  0  0  0  0  0  0  0  0  0  0
  -24.8549  -34.0780   24.0309 C   0  0  0  0  0  0  0  0  0  0  0  0
  -27.6160  -28.5189   19.3034 C   0  0  0  0  0  0  0  0  0  0  0  0
  -25.8805  -33.4836   23.2713 C   0  0  0  0  0  0  0  0  0  0  0  0
  -27.3798  -27.3679   20.0687 C   0  0  0  0  0  0  0  0  0  0  0  0
  -30.3065  -22.8850   21.0964 C   0  0  0  0  0  0  0  0  0  0  0  0
  -24.8972  -11.6263   20.2136 C   0  0  0  0  0  0  0  0  0  0  0  0
  -29.5232  -26.4692   19.3560 C   0  0  0  0  0  0  0  0  0  0  0  0
  -23.7246   -9.5902   20.2523 C   0  0  0  0  0  0  0  0  0  0  0  0
  -22.2849   -7.6807   21.6888 C   0  0  0  0  0  0  0  0  0  0  0  0
  -22.5409   -9.9489   20.8972 C   0  0  0  0  0  0  0  0  0  0  0  0
  -26.3177  -15.0143   22.3116 C   0  0  0  0  0  0  0  0  0  0  0  0
  -29.3529  -22.4673   23.6187 C   0  0  0  0  0  0  0  0  0  0  0  0
  -29.3168  -21.9573   21.3789 C   0  0  0  0  0  0  0  0  0  0  0  0
  -27.5547  -16.6546   23.0953 C   0  0  0  0  0  0  0  0  0  0  0  0
  -28.7309  -15.1959   21.4409 C   0  0  0  0  0  0  0  0  0  0  0  0
  -26.3115  -30.1760   21.6816 C   0  0  0  0  0  0  0  0  0  0  0  0
  -23.8120  -28.1674   21.1913 C   0  0  0  0  0  0  0  0  0  0  0  0
  -22.6969  -25.1620   20.0206 C   0  0  0  0  0  0  0  0  0  0  0  0
  -24.9394  -21.1200   25.1848 C   0  0  0  0  0  0  0  0  0  0  0  0
  -24.0559  -33.2903   25.0389 C   0  0  0  0  0  0  0  0  0  0  0  0
  -26.5882  -29.6152   19.2393 C   0  0  0  0  0  0  0  0  0  0  0  0
  -26.1190  -27.1964   20.8746 C   0  0  0  0  0  0  0  0  0  0  0  0
  -24.1480  -31.7793   24.8424 C   0  0  0  0  0  0  0  0  0  0  0  0
  -24.0933  -17.9430   26.5515 C   0  0  0  0  0  0  0  0  0  0  0  0
  -25.5978  -31.3562   24.6278 C   0  0  0  0  0  0  0  0  0  0  0  0
  -24.6967  -16.9461   25.5605 C   0  0  0  0  0  0  0  0  0  0  0  0
  -23.5460  -19.1808   25.8441 C   0  0  0  0  0  0  0  0  0  0  0  0
  -25.1103  -18.8657   23.9660 C   0  0  0  0  0  0  0  0  0  0  0  0
  -26.1801  -32.0032   23.3653 C   0  0  1  0  0  0  0  0  0  0  0  0
  -25.6544  -29.6300   20.4456 C   0  0  1  0  0  0  0  0  0  0  0  0
  -25.7257  -17.6261   24.6374 C   0  0  2  0  0  0  0  0  0  0  0  0
  -27.4508  -20.4153   20.7255 C   0  0  0  0  0  0  0  0  0  0  0  0
  -31.7234  -24.1887   17.0508 C   0  0  0  0  0  0  0  0  0  0  0  0
  -20.6089  -23.7888   19.7921 C   0  0  0  0  0  0  0  0  0  0  0  0
  -23.9357  -27.4893   24.1636 C   0  0  0  0  0  0  0  0  0  0  0  0
  -22.5207  -25.4783   23.6924 C   0  0  0  0  0  0  0  0  0  0  0  0
  -21.6233  -27.7637   23.2516 C   0  0  0  0  0  0  0  0  0  0  0  0
  -22.9091  -25.1191   17.0690 C   0  0  0  0  0  0  0  0  0  0  0  0
  -30.8253  -23.1041   19.6949 C   0  0  0  0  0  0  0  0  0  0  0  0
  -28.8128  -22.2208   24.9879 C   0  0  0  0  0  0  0  0  0  0  0  0
  -28.7210  -21.1356   20.2832 C   0  0  0  0  0  0  0  0  0  0  0  0
  -30.2530  -24.0719   17.4303 C   0  0  0  0  0  0  0  0  0  0  0  0
  -27.6032  -23.0988   25.3633 C   0  0  0  0  0  0  0  0  0  0  0  0
  -26.4115  -22.9649   24.4177 C   0  0  0  0  0  0  0  0  0  0  0  0
  -23.4049  -26.8165   21.7281 C   0  0  1  0  0  0  0  0  0  0  0  0
  -21.5258  -24.8018   19.1243 C   0  0  2  0  0  0  0  0  0  0  0  0
  -30.0320  -24.1829   18.9440 C   0  0  2  0  0  0  0  0  0  1  0  0
  -22.8959  -26.8907   23.1954 C   0  0  0  0  0  0  0  0  0  0  0  0
  -25.5163  -15.6605   23.1626 N   0  0  0  0  0  0  0  0  0  0  0  0
  -28.8248  -21.7286   22.6171 N   0  0  0  0  0  0  0  0  0  0  0  0
  -26.2971  -16.6527   23.6231 N   0  0  0  0  0  0  0  0  0  0  0  0
  -25.1473  -28.2987   20.7842 N   0  0  0  0  0  0  0  0  0  0  0  0
  -24.5716  -19.7790   24.9860 N   0  0  0  0  0  0  0  0  0  0  0  0
  -28.4683  -17.5833   23.4491 N   0  0  0  0  0  0  0  0  0  0  0  0
  -28.6060  -14.0781   20.6047 N   0  0  0  0  0  0  0  0  0  0  0  0
  -25.7103  -31.3151   22.1820 N   0  0  0  0  0  0  0  0  0  0  0  0
  -22.4310  -26.2788   20.7843 N   0  0  0  0  0  0  0  0  0  0  0  0
  -25.9231  -21.6066   24.3326 N   0  0  0  0  0  0  0  0  0  0  0  0
  -22.0145  -24.2199   17.8423 N   0  3  0  0  0  0  0  0  0  0  0  0
  -29.8252  -15.8073   21.4891 O   0  0  0  0  0  0  0  0  0  0  0  0
  -27.2906  -29.6052   22.1477 O   0  0  0  0  0  0  0  0  0  0  0  0
  -22.9743  -29.0707   21.1286 O   0  0  0  0  0  0  0  0  0  0  0  0
  -23.7416  -24.5149   20.0438 O   0  0  0  0  0  0  0  0  0  0  0  0
  -24.4328  -21.8293   26.0606 O   0  0  0  0  0  0  0  0  0  0  0  0
  -24.4400  -10.5367   19.5381 O   0  0  0  0  0  0  0  0  0  0  0  0
  -30.4500  -25.4732   19.3876 O   0  0  0  0  0  0  0  0  0  1  0  0
  -21.5929   -6.7634   22.3773 F   0  0  0  0  0  0  0  0  0  0  0  0
  -22.0897  -11.2089   20.8293 F   0  0  0  0  0  0  0  0  0  0  0  0
  1  2  1  0  0  0  0
  1  5  2  0  0  0  0
  2  6  2  0  0  0  0
  3  9  2  0  0  0  0
  3 17  1  0  0  0  0
  4 10  1  0  0  0  0
  4 17  2  0  0  0  0
  5 19  1  0  0  0  0
  6 21  1  0  0  0  0
  7 11  2  0  0  0  0
  7 20  1  0  0  0  0
  8 14  2  0  0  0  0
  8 23  1  0  0  0  0
  9 24  1  0  0  0  0
 10 24  2  0  0  0  0
 11 25  1  0  0  0  0
 12 13  2  0  0  0  0
 12 26  1  0  0  0  0
 13 27  1  0  0  0  0
 14 30  1  0  0  0  0
 15 22  1  0  0  0  0
 15 25  2  0  0  0  0
 16 27  2  0  0  0  0
 16 28  1  0  0  0  0
 17 29  1  0  0  0  0
 18 29  1  0  0  0  0
 18 32  2  0  0  0  0
 18 33  1  0  0  0  0
 19 21  2  0  0  0  0
 19 38  1  0  0  0  0
 20 22  2  0  0  0  0
 20 39  1  0  0  0  0
 21 47  1  0  0  0  0
 22 40  1  0  0  0  0
 23 31  2  0  0  0  0
 23 57  1  0  0  0  0
 24 83  1  0  0  0  0
 25 84  1  0  0  0  0
 26 28  2  0  0  0  0
 26 83  1  0  0  0  0
 27 85  1  0  0  0  0
 28 86  1  0  0  0  0
 29 67  2  0  0  0  0
 30 58  1  0  0  0  0
 30 68  2  0  0  0  0
 31 59  1  0  0  0  0
 31 68  1  0  0  0  0
 32 69  1  0  0  0  0
 32 72  1  0  0  0  0
 33 73  1  0  0  0  0
 33 78  2  0  0  0  0
 34 48  1  0  0  0  0
 34 74  1  0  0  0  0
 34 79  2  0  0  0  0
 35 63  1  0  0  0  0
 35 70  1  0  0  0  0
 35 80  2  0  0  0  0
 36 64  1  0  0  0  0
 36 75  1  0  0  0  0
 36 81  2  0  0  0  0
 37 71  1  0  0  0  0
 37 76  1  0  0  0  0
 37 82  2  0  0  0  0
 38 41  1  0  0  0  0
 39 48  1  0  0  0  0
 40 70  1  0  0  0  0
 41 43  1  0  0  0  0
 42 44  1  0  0  0  0
 42 45  1  0  0  0  0
 43 47  1  0  0  0  0
 44 49  1  0  0  0  0
 45 71  1  0  0  0  0
 46 49  1  0  0  0  0
 46 71  1  0  0  0  0
 47 74  1  0  0  0  0
 48 70  1  0  0  0  0
 49 69  1  0  0  0  0
 50 59  1  0  0  0  0
 51 60  1  0  0  0  0
 52 64  1  0  0  0  0
 53 66  1  0  0  0  0
 54 66  1  0  0  0  0
 55 66  1  0  0  0  0
 56 77  1  0  0  0  0
 57 65  1  0  0  0  0
 58 61  1  0  0  0  0
 60 65  1  0  0  0  0
 61 62  1  0  0  0  0
 62 76  1  0  0  0  0
 63 66  1  0  0  0  0
 63 75  1  0  0  0  0
 64 77  1  0  0  0  0
 65 84  1  0  0  0  0
 67 69  1  0  0  0  0
M  CHG  1  77   1
M  ISO  4  37 100  65 101  76 100  84 101
M  END
> <Batch ID>
0036

> <Smiles>
CCc1nc(CCC[100NH:0][100C:0](=O)N2CCCC(n3nc(-c4ccc(Oc5ccc(F)cc5F)cc4)c(C(N)=O)c3N)C2)ccc1C[101CH:1](CC)[101O:1]c1ccc2c(c1)CN(C(=O)C(NC(=O)C(C)NC)C(C)(C)C)C(C(=O)NC1CCCc3ccccc31)C2

> <Shape>
0.261

> <Color>
0.062

> <Negative vol penalty>
0.000

$$$$

  -OEChem-04052316563D

 86 94  0     1  0  0  0  0  0999 V2000
  -26.7336  -12.0823   17.0468 C   0  0  0  0  0  0  0  0  0  0  0  0
  -25.8649  -13.1398   16.7969 C   0  0  0  0  0  0  0  0  0  0  0  0
  -28.7860  -25.2736   18.6758 C   0  0  0  0  0  0  0  0  0  0  0  0
  -27.0878  -23.9938   19.8228 C   0  0  0  0  0  0  0  0  0  0  0  0
  -26.8878  -11.6004   18.3460 C   0  0  0  0  0  0  0  0  0  0  0  0
  -25.1490  -13.7154   17.8460 C   0  0  0  0  0  0  0  0  0  0  0  0
  -23.6124  -19.6123   18.4555 C   0  0  0  0  0  0  0  0  0  0  0  0
  -29.7116  -24.2573   18.9124 C   0  0  0  0  0  0  0  0  0  0  0  0
  -28.0135  -22.9775   20.0593 C   0  0  0  0  0  0  0  0  0  0  0  0
  -22.4350  -20.3077   18.1837 C   0  0  0  0  0  0  0  0  0  0  0  0
  -29.4045  -20.4265   18.3337 C   0  0  0  0  0  0  0  0  0  0  0  0
  -28.9958  -19.1131   18.1025 C   0  0  0  0  0  0  0  0  0  0  0  0
  -21.7777  -20.0857   20.4941 C   0  0  0  0  0  0  0  0  0  0  0  0
  -18.2324  -25.9331   23.1674 C   0  0  0  0  0  0  0  0  0  0  0  0
  -18.6704  -27.8749   21.7984 C   0  0  0  0  0  0  0  0  0  0  0  0
  -29.4251  -18.5721   20.4177 C   0  0  0  0  0  0  0  0  0  0  0  0
  -27.4740  -25.1419   19.1311 C   0  0  0  0  0  0  0  0  0  0  0  0
  -25.6657  -26.3241   17.7747 C   0  0  0  0  0  0  0  0  0  0  0  0
  -26.1808  -12.1767   19.4130 C   0  0  0  0  0  0  0  0  0  0  0  0
  -23.8767  -19.1381   19.7485 C   0  0  0  0  0  0  0  0  0  0  0  0
  -25.2929  -13.2399   19.1605 C   0  0  0  0  0  0  0  0  0  0  0  0
  -22.9604  -19.3868   20.7803 C   0  0  0  0  0  0  0  0  0  0  0  0
  -18.0082  -26.6641   22.0008 C   0  0  0  0  0  0  0  0  0  0  0  0
  -19.1186  -26.4130   24.1317 C   0  0  0  0  0  0  0  0  0  0  0  0
  -19.5567  -28.3549   22.7627 C   0  0  0  0  0  0  0  0  0  0  0  0
  -19.7808  -27.6239   23.9293 C   0  0  0  0  0  0  0  0  0  0  0  0
  -29.3254  -23.1093   19.6041 C   0  0  0  0  0  0  0  0  0  0  0  0
  -21.5161  -20.5420   19.2024 C   0  0  0  0  0  0  0  0  0  0  0  0
  -29.8236  -20.8128   19.6068 C   0  0  0  0  0  0  0  0  0  0  0  0
  -29.0060  -18.1859   19.1446 C   0  0  0  0  0  0  0  0  0  0  0  0
  -29.8339  -19.8856   20.6488 C   0  0  0  0  0  0  0  0  0  0  0  0
  -26.5175  -26.1916   18.8876 C   0  0  0  0  0  0  0  0  0  0  0  0
  -24.9599  -27.4770   18.0178 C   0  0  0  0  0  0  0  0  0  0  0  0
  -25.5250  -25.4804   16.6240 C   0  0  0  0  0  0  0  0  0  0  0  0
  -24.3096  -16.2658   21.0393 C   0  0  0  0  0  0  0  0  0  0  0  0
  -25.0098  -17.9939   23.6937 C   0  0  0  0  0  0  0  0  0  0  0  0
  -24.6652  -20.9160   25.4228 C   0  0  0  0  0  0  0  0  0  0  0  0
  -22.6058  -30.4357   22.4017 C   0  0  0  0  0  0  0  0  0  0  0  0
  -26.3447  -11.5908   20.7931 C   0  0  0  0  0  0  0  0  0  0  0  0
  -25.1638  -18.4129   20.0312 C   0  0  0  0  0  0  0  0  0  0  0  0
  -23.2063  -18.9164   22.1898 C   0  0  0  0  0  0  0  0  0  0  0  0
  -25.8322  -12.5012   21.9061 C   0  0  0  0  0  0  0  0  0  0  0  0
  -25.6567  -31.4521   20.8734 C   0  0  0  0  0  0  0  0  0  0  0  0
  -24.4567  -13.0566   21.5507 C   0  0  0  0  0  0  0  0  0  0  0  0
  -26.1105  -30.2116   20.1021 C   0  0  0  0  0  0  0  0  0  0  0  0
  -24.9884  -31.0815   22.1956 C   0  0  0  0  0  0  0  0  0  0  0  0
  -24.3307  -28.8785   21.3079 C   0  0  0  0  0  0  0  0  0  0  0  0
  -24.5176  -13.9068   20.2760 C   0  0  1  0  0  0  0  0  0  0  0  0
  -25.0910  -17.5280   21.2718 C   0  0  1  0  0  0  0  0  0  0  0  0
  -24.9604  -29.1993   19.9416 C   0  0  2  0  0  0  0  0  0  0  0  0
  -20.7314  -28.1380   24.9632 C   0  0  0  0  0  0  0  0  0  0  0  0
  -20.6656  -24.8528   25.3397 C   0  0  0  0  0  0  0  0  0  0  0  0
  -25.0437  -22.6048   27.2399 C   0  0  0  0  0  0  0  0  0  0  0  0
  -22.9234  -16.3312   25.1743 C   0  0  0  0  0  0  0  0  0  0  0  0
  -22.9375  -18.0564   26.9886 C   0  0  0  0  0  0  0  0  0  0  0  0
  -25.0149  -16.7760   26.4713 C   0  0  0  0  0  0  0  0  0  0  0  0
  -26.9794  -22.0955   24.0042 C   0  0  0  0  0  0  0  0  0  0  0  0
  -17.0495  -26.1455   20.9586 C   0  0  0  0  0  0  0  0  0  0  0  0
  -19.3419  -25.6105   25.3718 C   0  0  0  0  0  0  0  0  0  0  0  0
  -20.2533  -29.6543   22.5219 C   0  0  0  0  0  0  0  0  0  0  0  0
  -17.7077  -25.2520   19.9012 C   0  0  0  0  0  0  0  0  0  0  0  0
  -18.4336  -24.0451   20.5040 C   0  0  0  0  0  0  0  0  0  0  0  0
  -19.0473  -23.1677   19.4144 C   0  0  0  0  0  0  0  0  0  0  0  0
  -19.8070  -21.9881   20.0046 C   0  0  0  0  0  0  0  0  0  1  0  0
  -24.2133  -18.5444   24.8519 C   0  0  1  0  0  0  0  0  0  0  0  0
  -25.6837  -21.8004   26.1191 C   0  0  2  0  0  0  0  0  0  0  0  0
  -23.7664  -17.4343   25.8446 C   0  0  0  0  0  0  0  0  0  0  0  0
  -26.3682  -27.1814   19.7719 N   0  0  0  0  0  0  0  0  0  0  0  0
  -25.4144  -27.9468   19.2148 N   0  0  0  0  0  0  0  0  0  0  0  0
  -24.4763  -18.2064   22.4146 N   0  0  0  0  0  0  0  0  0  0  0  0
  -23.9058  -30.1200   21.9734 N   0  0  0  0  0  0  0  0  0  0  0  0
  -24.0011  -28.1245   17.3223 N   0  0  0  0  0  0  0  0  0  0  0  0
  -26.3277  -24.3351   16.5330 N   0  0  0  0  0  0  0  0  0  0  0  0
  -25.0691  -15.2131   20.5656 N   0  0  0  0  0  0  0  0  0  0  0  0
  -25.0360  -19.5882   25.4536 N   0  0  0  0  0  0  0  0  0  0  0  0
  -21.6378  -29.4721   22.1466 N   0  0  0  0  0  0  0  0  0  0  0  0
  -26.2942  -22.7514   25.1476 N   0  3  0  0  0  0  0  0  0  0  0  0
  -24.7231  -25.7433   15.6959 O   0  0  0  0  0  0  0  0  0  0  0  0
  -23.1070  -16.2478   21.2740 O   0  0  0  0  0  0  0  0  0  0  0  0
  -26.0700  -17.4036   23.9152 O   0  0  0  0  0  0  0  0  0  0  0  0
  -23.6413  -21.3582   24.9066 O   0  0  0  0  0  0  0  0  0  0  0  0
  -22.3274  -31.5000   22.9645 O   0  0  0  0  0  0  0  0  0  0  0  0
  -30.2283  -22.1173   19.8348 O   0  0  0  0  0  0  0  0  0  0  0  0
  -20.3658  -21.2200   18.9397 O   0  0  0  0  0  0  0  0  0  1  0  0
  -28.6121  -16.9250   18.9228 F   0  0  0  0  0  0  0  0  0  0  0  0
  -30.2343  -20.2510   21.8743 F   0  0  0  0  0  0  0  0  0  0  0  0
  1  2  1  0  0  0  0
  1  5  2  0  0  0  0
  2  6  2  0  0  0  0
  3  8  2  0  0  0  0
  3 17  1  0  0  0  0
  4  9  1  0  0  0  0
  4 17  2  0  0  0  0
  5 19  1  0  0  0  0
  6 21  1  0  0  0  0
  7 10  2  0  0  0  0
  7 20  1  0  0  0  0
  8 27  1  0  0  0  0
  9 27  2  0  0  0  0
 10 28  1  0  0  0  0
 11 12  2  0  0  0  0
 11 29  1  0  0  0  0
 12 30  1  0  0  0  0
 13 22  1  0  0  0  0
 13 28  2  0  0  0  0
 14 23  2  0  0  0  0
 14 24  1  0  0  0  0
 15 23  1  0  0  0  0
 15 25  2  0  0  0  0
 16 30  2  0  0  0  0
 16 31  1  0  0  0  0
 17 32  1  0  0  0  0
 18 32  1  0  0  0  0
 18 33  2  0  0  0  0
 18 34  1  0  0  0  0
 19 21  2  0  0  0  0
 19 39  1  0  0  0  0
 20 22  2  0  0  0  0
 20 40  1  0  0  0  0
 21 48  1  0  0  0  0
 22 41  1  0  0  0  0
 23 58  1  0  0  0  0
 24 26  2  0  0  0  0
 24 59  1  0  0  0  0
 25 26  1  0  0  0  0
 25 60  1  0  0  0  0
 26 51  1  0  0  0  0
 27 83  1  0  0  0  0
 28 84  1  0  0  0  0
 29 31  2  0  0  0  0
 29 83  1  0  0  0  0
 30 85  1  0  0  0  0
 31 86  1  0  0  0  0
 32 68  2  0  0  0  0
 33 69  1  0  0  0  0
 33 72  1  0  0  0  0
 34 73  1  0  0  0  0
 34 78  2  0  0  0  0
 35 49  1  0  0  0  0
 35 74  1  0  0  0  0
 35 79  2  0  0  0  0
 36 65  1  0  0  0  0
 36 70  1  0  0  0  0
 36 80  2  0  0  0  0
 37 66  1  0  0  0  0
 37 75  1  0  0  0  0
 37 81  2  0  0  0  0
 38 71  1  0  0  0  0
 38 76  1  0  0  0  0
 38 82  2  0  0  0  0
 39 42  1  0  0  0  0
 40 49  1  0  0  0  0
 41 70  1  0  0  0  0
 42 44  1  0  0  0  0
 43 45  1  0  0  0  0
 43 46  1  0  0  0  0
 44 48  1  0  0  0  0
 45 50  1  0  0  0  0
 46 71  1  0  0  0  0
 47 50  1  0  0  0  0
 47 71  1  0  0  0  0
 48 74  1  0  0  0  0
 49 70  1  0  0  0  0
 50 69  1  0  0  0  0
 52 59  1  0  0  0  0
 53 66  1  0  0  0  0
 54 67  1  0  0  0  0
 55 67  1  0  0  0  0
 56 67  1  0  0  0  0
 57 77  1  0  0  0  0
 58 61  1  0  0  0  0
 60 76  1  0  0  0  0
 61 62  1  0  0  0  0
 62 63  1  0  0  0  0
 63 64  1  0  0  0  0
 64 84  1  0  0  0  0
 65 67  1  0  0  0  0
 65 75  1  0  0  0  0
 66 77  1  0  0  0  0
 68 69  1  0  0  0  0
M  CHG  1  77   1
M  ISO  4  38 100  64 101  76 100  84 101
M  END
> <Batch ID>
0036

> <Smiles>
CCc1cc(CCCC[101CH2:1][101O:1]c2ccc3c(c2)CN(C(=O)C(NC(=O)C(C)NC)C(C)(C)C)C(C(=O)NC2CCCc4ccccc42)C3)cc(C[100NH:0][100C:0](=O)N2CCCC(n3nc(-c4ccc(Oc5ccc(F)cc5F)cc4)c(C(N)=O)c3N)C2)c1C

> <Shape>
0.208

> <Color>
0.085

> <Negative vol penalty>
0.000

$$$$

  -OEChem-04052316562D

  0  0  0     0  0  0  0  0  0999 V2000
M  END
$$$$

  -OEChem-04052316563D

 86 94  0     1  0  0  0  0  0999 V2000
  -26.2389  -24.0437   21.1064 C   0  0  0  0  0  0  0  0  0  0  0  0
  -25.3647  -23.0595   20.6565 C   0  0  0  0  0  0  0  0  0  0  0  0
  -26.1582  -27.7392   21.4163 C   0  0  0  0  0  0  0  0  0  0  0  0
  -25.3858  -28.8611   19.4208 C   0  0  0  0  0  0  0  0  0  0  0  0
  -27.6159  -23.8381   21.0327 C   0  0  0  0  0  0  0  0  0  0  0  0
  -25.8671  -21.8694   20.1314 C   0  0  0  0  0  0  0  0  0  0  0  0
  -23.4302  -17.7910   21.8845 C   0  0  0  0  0  0  0  0  0  0  0  0
  -27.4379  -27.6469   20.8691 C   0  0  0  0  0  0  0  0  0  0  0  0
  -26.6656  -28.7688   18.8736 C   0  0  0  0  0  0  0  0  0  0  0  0
  -22.1857  -17.5038   21.3256 C   0  0  0  0  0  0  0  0  0  0  0  0
  -30.1110  -29.6703   20.4296 C   0  0  0  0  0  0  0  0  0  0  0  0
  -31.1916  -29.9952   21.2495 C   0  0  0  0  0  0  0  0  0  0  0  0
  -23.2093  -15.8309   19.9210 C   0  0  0  0  0  0  0  0  0  0  0  0
  -32.0770  -27.7651   20.9663 C   0  0  0  0  0  0  0  0  0  0  0  0
  -25.1321  -28.3463   20.6922 C   0  0  0  0  0  0  0  0  0  0  0  0
  -23.2952  -29.4885   22.0443 C   0  0  0  0  0  0  0  0  0  0  0  0
  -28.1353  -22.6409   20.5154 C   0  0  0  0  0  0  0  0  0  0  0  0
  -24.5773  -17.1068   21.4574 C   0  0  0  0  0  0  0  0  0  0  0  0
  -27.2524  -21.6481   20.0495 C   0  0  0  0  0  0  0  0  0  0  0  0
  -24.4668  -16.1095   20.4779 C   0  0  0  0  0  0  0  0  0  0  0  0
  -18.0476  -18.1520   17.4368 C   0  0  0  0  0  0  0  0  0  0  0  0
  -27.6916  -28.1617   19.5978 C   0  0  0  0  0  0  0  0  0  0  0  0
  -22.0755  -16.5256   20.3416 C   0  0  0  0  0  0  0  0  0  0  0  0
  -30.0133  -28.3928   19.8781 C   0  0  0  0  0  0  0  0  0  0  0  0
  -32.1746  -29.0426   21.5179 C   0  0  0  0  0  0  0  0  0  0  0  0
  -30.9963  -27.4402   20.1464 C   0  0  0  0  0  0  0  0  0  0  0  0
  -23.8099  -28.4414   21.2566 C   0  0  0  0  0  0  0  0  0  0  0  0
  -19.2912  -17.6440   17.7527 C   0  0  0  0  0  0  0  0  0  0  0  0
  -17.9476  -19.5283   17.4356 C   0  0  0  0  0  0  0  0  0  0  0  0
  -22.0068  -29.1048   22.3262 C   0  0  0  0  0  0  0  0  0  0  0  0
  -20.1366  -19.7381   18.0112 C   0  0  0  0  0  0  0  0  0  0  0  0
  -23.9252  -30.6998   22.4820 C   0  0  0  0  0  0  0  0  0  0  0  0
  -27.3050  -17.9535   20.0622 C   0  0  0  0  0  0  0  0  0  0  0  0
  -28.0745  -14.8423   20.5632 C   0  0  0  0  0  0  0  0  0  0  0  0
  -27.0098  -11.6382   21.0598 C   0  0  0  0  0  0  0  0  0  0  0  0
  -18.2346  -25.5836   19.4580 C   0  0  0  0  0  0  0  0  0  0  0  0
  -29.6317  -22.4835   20.4123 C   0  0  0  0  0  0  0  0  0  0  0  0
  -25.9082  -17.4097   22.0894 C   0  0  0  0  0  0  0  0  0  0  0  0
  -25.6646  -15.3321   19.9991 C   0  0  0  0  0  0  0  0  0  0  0  0
  -30.0785  -21.0411   20.1885 C   0  0  0  0  0  0  0  0  0  0  0  0
  -19.3028  -25.1968   22.8941 C   0  0  0  0  0  0  0  0  0  0  0  0
  -29.2384  -20.3852   19.0973 C   0  0  0  0  0  0  0  0  0  0  0  0
  -20.5406  -26.0948   22.9307 C   0  0  0  0  0  0  0  0  0  0  0  0
  -19.1913  -24.4631   21.5608 C   0  0  0  0  0  0  0  0  0  0  0  0
  -20.4273  -26.2519   20.4004 C   0  0  0  0  0  0  0  0  0  0  0  0
  -27.7586  -20.3336   19.4964 C   0  0  1  0  0  0  0  0  0  0  0  0
  -27.0908  -17.0104   21.2122 C   0  0  1  0  0  0  0  0  0  0  0  0
  -20.5844  -27.0386   21.7144 C   0  0  2  0  0  0  0  0  0  0  0  0
  -16.8952  -17.2643   17.1197 C   0  0  0  0  0  0  0  0  0  0  0  0
  -21.2967  -20.6189   18.3301 C   0  0  0  0  0  0  0  0  0  0  0  0
  -27.8721   -9.3060   21.3986 C   0  0  0  0  0  0  0  0  0  0  0  0
  -28.7317  -14.6560   17.5894 C   0  0  0  0  0  0  0  0  0  0  0  0
  -28.6579  -12.1624   17.8006 C   0  0  0  0  0  0  0  0  0  0  0  0
  -30.3442  -13.4722   19.0903 C   0  0  0  0  0  0  0  0  0  0  0  0
  -25.7357  -11.4296   23.7229 C   0  0  0  0  0  0  0  0  0  0  0  0
  -19.5229  -16.1528   17.7863 C   0  0  0  0  0  0  0  0  0  0  0  0
  -16.3753  -22.4043   17.8724 C   0  0  0  0  0  0  0  0  0  0  0  0
  -16.2252  -23.8694   17.4440 C   0  0  0  0  0  0  0  0  0  0  0  0
  -16.5629  -21.4631   16.6843 C   0  0  0  0  0  0  0  0  0  0  0  0
  -16.0277  -24.8081   18.6304 C   0  0  0  0  0  0  0  0  0  0  0  0
  -20.8500  -15.7869   18.4421 C   0  0  0  0  0  0  0  0  0  1  0  0
  -27.9135  -13.5618   19.7801 C   0  0  1  0  0  0  0  0  0  0  0  0
  -27.4163  -10.5880   22.0779 C   0  0  2  0  0  0  0  0  0  0  0  0
  -28.8893  -13.4789   18.5725 C   0  0  0  0  0  0  0  0  0  0  0  0
  -22.9211  -27.4657   21.0515 N   0  0  0  0  0  0  0  0  0  0  0  0
  -20.3617  -18.4109   18.0462 N   0  0  0  0  0  0  0  0  0  0  0  0
  -18.9756  -20.3548   17.7193 N   0  0  0  0  0  0  0  0  0  0  0  0
  -21.8350  -27.8980   21.7144 N   0  0  0  0  0  0  0  0  0  0  0  0
  -26.9450  -15.6692   20.6430 N   0  0  0  0  0  0  0  0  0  0  0  0
  -19.2203  -25.4197   20.4453 N   0  0  0  0  0  0  0  0  0  0  0  0
  -21.0156  -29.6853   23.0354 N   0  0  0  0  0  0  0  0  0  0  0  0
  -25.2533  -30.9371   22.1022 N   0  0  0  0  0  0  0  0  0  0  0  0
  -16.6955  -20.1107   17.1190 N   0  0  0  0  0  0  0  0  0  0  0  0
  -27.5274  -19.2632   20.4426 N   0  0  0  0  0  0  0  0  0  0  0  0
  -28.0591  -12.4743   20.7417 N   0  0  0  0  0  0  0  0  0  0  0  0
  -17.1268  -24.7522   19.5684 N   0  0  0  0  0  0  0  0  0  0  0  0
  -26.2700  -10.2636   22.9733 N   0  3  0  0  0  0  0  0  0  0  0  0
  -23.3335  -31.5389   23.2026 O   0  0  0  0  0  0  0  0  0  0  0  0
  -27.2724  -17.5244   18.9148 O   0  0  0  0  0  0  0  0  0  0  0  0
  -29.1603  -15.0962   21.0908 O   0  0  0  0  0  0  0  0  0  0  0  0
  -25.8759  -11.7074   20.5907 O   0  0  0  0  0  0  0  0  0  0  0  0
  -18.3320  -26.4138   18.5478 O   0  0  0  0  0  0  0  0  0  0  0  0
  -28.9403  -28.0720   19.0636 O   0  0  0  0  0  0  0  0  0  0  0  0
  -20.8621  -16.2437   19.7939 O   0  0  0  0  0  0  0  0  0  1  0  0
  -33.2131  -29.3553   22.3040 F   0  0  0  0  0  0  0  0  0  0  0  0
  -30.9085  -26.2116   19.6185 F   0  0  0  0  0  0  0  0  0  0  0  0
  1  2  1  0  0  0  0
  1  5  2  0  0  0  0
  2  6  2  0  0  0  0
  3  8  2  0  0  0  0
  3 15  1  0  0  0  0
  4  9  1  0  0  0  0
  4 15  2  0  0  0  0
  5 17  1  0  0  0  0
  6 19  1  0  0  0  0
  7 10  2  0  0  0  0
  7 18  1  0  0  0  0
  8 22  1  0  0  0  0
  9 22  2  0  0  0  0
 10 23  1  0  0  0  0
 11 12  2  0  0  0  0
 11 24  1  0  0  0  0
 12 25  1  0  0  0  0
 13 20  1  0  0  0  0
 13 23  2  0  0  0  0
 14 25  2  0  0  0  0
 14 26  1  0  0  0  0
 15 27  1  0  0  0  0
 16 27  1  0  0  0  0
 16 30  2  0  0  0  0
 16 32  1  0  0  0  0
 17 19  2  0  0  0  0
 17 37  1  0  0  0  0
 18 20  2  0  0  0  0
 18 38  1  0  0  0  0
 19 46  1  0  0  0  0
 20 39  1  0  0  0  0
 21 28  2  0  0  0  0
 21 29  1  0  0  0  0
 21 49  1  0  0  0  0
 22 83  1  0  0  0  0
 23 84  1  0  0  0  0
 24 26  2  0  0  0  0
 24 83  1  0  0  0  0
 25 85  1  0  0  0  0
 26 86  1  0  0  0  0
 27 65  2  0  0  0  0
 28 56  1  0  0  0  0
 28 66  1  0  0  0  0
 29 67  2  0  0  0  0
 29 73  1  0  0  0  0
 30 68  1  0  0  0  0
 30 71  1  0  0  0  0
 31 50  1  0  0  0  0
 31 66  2  0  0  0  0
 31 67  1  0  0  0  0
 32 72  1  0  0  0  0
 32 78  2  0  0  0  0
 33 47  1  0  0  0  0
 33 74  1  0  0  0  0
 33 79  2  0  0  0  0
 34 62  1  0  0  0  0
 34 69  1  0  0  0  0
 34 80  2  0  0  0  0
 35 63  1  0  0  0  0
 35 75  1  0  0  0  0
 35 81  2  0  0  0  0
 36 70  1  0  0  0  0
 36 76  1  0  0  0  0
 36 82  2  0  0  0  0
 37 40  1  0  0  0  0
 38 47  1  0  0  0  0
 39 69  1  0  0  0  0
 40 42  1  0  0  0  0
 41 43  1  0  0  0  0
 41 44  1  0  0  0  0
 42 46  1  0  0  0  0
 43 48  1  0  0  0  0
 44 70  1  0  0  0  0
 45 48  1  0  0  0  0
 45 70  1  0  0  0  0
 46 74  1  0  0  0  0
 47 69  1  0  0  0  0
 48 68  1  0  0  0  0
 51 63  1  0  0  0  0
 52 64  1  0  0  0  0
 53 64  1  0  0  0  0
 54 64  1  0  0  0  0
 55 77  1  0  0  0  0
 56 61  1  0  0  0  0
 57 58  1  0  0  0  0
 57 59  1  0  0  0  0
 58 60  1  0  0  0  0
 59 73  1  0  0  0  0
 60 76  1  0  0  0  0
 61 84  1  0  0  0  0
 62 64  1  0  0  0  0
 62 75  1  0  0  0  0
 63 77  1  0  0  0  0
 65 68  1  0  0  0  0
M  CHG  1  77   1
M  ISO  4  36 100  61 101  76 100  84 101
M  END
> <Batch ID>
0036

> <Smiles>
CNC(C)C(=O)NC(C(=O)N1Cc2cc([101O:1][101CH2:1]Cc3nc(C)nc(NCCCC[100NH:0][100C:0](=O)N4CCCC(n5nc(-c6ccc(Oc7ccc(F)cc7F)cc6)c(C(N)=O)c5N)C4)c3C)ccc2CC1C(=O)NC1CCCc2ccccc21)C(C)(C)C

> <Shape>
0.221

> <Color>
0.054

> <Negative vol penalty>
0.000

$$$$

  -OEChem-04052316563D

 85 93  0     1  0  0  0  0  0999 V2000
  -28.4756  -32.8419   26.7603 C   0  0  0  0  0  0  0  0  0  0  0  0
  -28.6753  -31.5300   26.3425 C   0  0  0  0  0  0  0  0  0  0  0  0
  -23.5760   -9.6414   21.5916 C   0  0  0  0  0  0  0  0  0  0  0  0
  -24.1860  -10.8032   23.6202 C   0  0  0  0  0  0  0  0  0  0  0  0
  -27.3165  -33.5218   26.3887 C   0  0  0  0  0  0  0  0  0  0  0  0
  -27.7154  -30.8969   25.5537 C   0  0  0  0  0  0  0  0  0  0  0  0
  -28.7191  -26.8124   21.1023 C   0  0  0  0  0  0  0  0  0  0  0  0
  -23.0145   -8.6135   22.3490 C   0  0  0  0  0  0  0  0  0  0  0  0
  -23.6244   -9.7753   24.3777 C   0  0  0  0  0  0  0  0  0  0  0  0
  -28.6608  -25.4196   21.0767 C   0  0  0  0  0  0  0  0  0  0  0  0
  -24.0967   -5.9283   24.0934 C   0  0  0  0  0  0  0  0  0  0  0  0
  -24.3851   -4.6161   23.7186 C   0  0  0  0  0  0  0  0  0  0  0  0
  -26.4112  -25.5357   20.2136 C   0  0  0  0  0  0  0  0  0  0  0  0
  -27.1182  -20.6721   19.2786 C   0  0  0  0  0  0  0  0  0  0  0  0
  -22.0306   -4.1962   23.3767 C   0  0  0  0  0  0  0  0  0  0  0  0
  -24.1618  -10.7362   22.2271 C   0  0  0  0  0  0  0  0  0  0  0  0
  -24.0979  -12.9578   20.9750 C   0  0  0  0  0  0  0  0  0  0  0  0
  -26.3464  -32.9000   25.5869 C   0  0  0  0  0  0  0  0  0  0  0  0
  -27.6181  -27.5785   20.6934 C   0  0  0  0  0  0  0  0  0  0  0  0
  -26.5416  -31.5687   25.1722 C   0  0  0  0  0  0  0  0  0  0  0  0
  -26.4590  -26.9380   20.2326 C   0  0  0  0  0  0  0  0  0  0  0  0
  -27.2079  -19.2880   19.3757 C   0  0  0  0  0  0  0  0  0  0  0  0
  -23.0387   -8.6805   23.7421 C   0  0  0  0  0  0  0  0  0  0  0  0
  -27.5057  -24.7811   20.6350 C   0  0  0  0  0  0  0  0  0  0  0  0
  -22.7752   -6.3745   24.1099 C   0  0  0  0  0  0  0  0  0  0  0  0
  -23.3521   -3.7500   23.3602 C   0  0  0  0  0  0  0  0  0  0  0  0
  -21.7422   -5.5085   23.7516 C   0  0  0  0  0  0  0  0  0  0  0  0
  -26.5374  -18.6233   20.3965 C   0  0  0  0  0  0  0  0  0  0  0  0
  -24.7425  -11.7980   21.4452 C   0  0  0  0  0  0  0  0  0  0  0  0
  -26.3513  -21.3399   20.2197 C   0  0  0  0  0  0  0  0  0  0  0  0
  -25.7967  -19.3828   21.2876 C   0  0  0  0  0  0  0  0  0  0  0  0
  -25.0745  -13.6403   20.2915 C   0  0  0  0  0  0  0  0  0  0  0  0
  -22.7380  -13.3806   21.1412 C   0  0  0  0  0  0  0  0  0  0  0  0
  -25.7021  -29.6848   22.1064 C   0  0  0  0  0  0  0  0  0  0  0  0
  -24.5204  -30.0366   19.1060 C   0  0  0  0  0  0  0  0  0  0  0  0
  -24.0547  -28.7004   16.0004 C   0  0  0  0  0  0  0  0  0  0  0  0
  -30.3004  -15.5576   19.8928 C   0  0  0  0  0  0  0  0  0  0  0  0
  -25.0876  -33.6593   25.2501 C   0  0  0  0  0  0  0  0  0  0  0  0
  -27.7065  -29.0800   20.7019 C   0  0  0  0  0  0  0  0  0  0  0  0
  -25.2568  -27.7149   19.7638 C   0  0  0  0  0  0  0  0  0  0  0  0
  -24.2935  -33.0431   24.1011 C   0  0  0  0  0  0  0  0  0  0  0  0
  -29.7080  -12.2021   18.8600 C   0  0  0  0  0  0  0  0  0  0  0  0
  -24.1602  -31.5357   24.2924 C   0  0  0  0  0  0  0  0  0  0  0  0
  -28.3135  -11.8919   19.4069 C   0  0  0  0  0  0  0  0  0  0  0  0
  -30.5038  -13.0900   19.8142 C   0  0  0  0  0  0  0  0  0  0  0  0
  -28.4293  -14.0265   20.7593 C   0  0  0  0  0  0  0  0  0  0  0  0
  -25.5349  -30.8562   24.2951 C   0  0  1  0  0  0  0  0  0  0  0  0
  -26.3411  -29.7587   20.7484 C   0  0  1  0  0  0  0  0  0  0  0  0
  -27.5684  -13.1798   19.8062 C   0  0  2  0  0  0  0  0  0  0  0  0
  -23.0473  -17.3102   23.0342 C   0  0  0  0  0  0  0  0  0  0  0  0
  -23.0210  -29.2103   13.7713 C   0  0  0  0  0  0  0  0  0  0  0  0
  -21.7526  -29.4865   20.2664 C   0  0  0  0  0  0  0  0  0  0  0  0
  -20.9357  -29.0681   17.9370 C   0  0  0  0  0  0  0  0  0  0  0  0
  -21.8243  -31.3140   18.5607 C   0  0  0  0  0  0  0  0  0  0  0  0
  -26.6630  -28.5040   14.6159 C   0  0  0  0  0  0  0  0  0  0  0  0
  -28.0204  -18.5224   18.3876 C   0  0  0  0  0  0  0  0  0  0  0  0
  -25.0636  -18.7059   22.3975 C   0  0  0  0  0  0  0  0  0  0  0  0
  -26.2314  -22.8337   20.1454 C   0  0  0  0  0  0  0  0  0  1  0  0
  -23.7750  -18.0281   21.9086 C   0  0  0  0  0  0  0  0  0  0  0  0
  -29.5387  -18.5459   18.6544 C   0  0  0  0  0  0  0  0  0  0  0  0
  -29.9439  -18.0100   20.0259 C   0  0  0  0  0  0  0  0  0  0  0  0
  -23.4262  -29.3750   18.3036 C   0  0  1  0  0  0  0  0  0  0  0  0
  -24.2861  -29.2715   14.6131 C   0  0  2  0  0  0  0  0  0  0  0  0
  -22.0065  -29.7960   18.7775 C   0  0  0  0  0  0  0  0  0  0  0  0
  -26.0290  -11.7433   21.0903 N   0  0  0  0  0  0  0  0  0  0  0  0
  -25.6858  -20.7288   21.2253 N   0  0  0  0  0  0  0  0  0  0  0  0
  -26.2007  -12.8772   20.3898 N   0  0  0  0  0  0  0  0  0  0  0  0
  -25.3899  -29.1807   19.7969 N   0  0  0  0  0  0  0  0  0  0  0  0
  -29.7422  -14.2949   20.1520 N   0  0  0  0  0  0  0  0  0  0  0  0
  -25.0711  -14.8125   19.6221 N   0  0  0  0  0  0  0  0  0  0  0  0
  -21.8679  -12.5601   21.8719 N   0  0  0  0  0  0  0  0  0  0  0  0
  -26.0392  -30.7305   22.9444 N   0  0  0  0  0  0  0  0  0  0  0  0
  -23.7042  -29.6808   16.9044 N   0  0  0  0  0  0  0  0  0  0  0  0
  -29.5098  -16.6470   20.2373 N   0  0  0  0  0  0  0  0  0  0  0  0
  -25.3557  -28.5078   13.9103 N   0  3  0  0  0  0  0  0  0  0  0  0
  -22.3032  -14.4462   20.6423 O   0  0  0  0  0  0  0  0  0  0  0  0
  -24.9572  -28.7491   22.3735 O   0  0  0  0  0  0  0  0  0  0  0  0
  -24.6051  -31.2672   19.1136 O   0  0  0  0  0  0  0  0  0  0  0  0
  -24.1695  -27.5037   16.2558 O   0  0  0  0  0  0  0  0  0  0  0  0
  -31.4183  -15.7032   19.3866 O   0  0  0  0  0  0  0  0  0  0  0  0
  -22.4906   -7.6778   24.4816 O   0  0  0  0  0  0  0  0  0  0  0  0
  -27.4459  -23.4218   20.6096 O   0  0  0  0  0  0  0  0  0  1  0  0
  -23.6293   -2.4904   22.9988 F   0  0  0  0  0  0  0  0  0  0  0  0
  -20.4708   -5.9318   23.7644 F   0  0  0  0  0  0  0  0  0  0  0  0
  -26.6074  -17.2909   20.5139 F   0  0  0  0  0  0  0  0  0  0  0  0
  1  2  1  0  0  0  0
  1  5  2  0  0  0  0
  2  6  2  0  0  0  0
  3  8  2  0  0  0  0
  3 16  1  0  0  0  0
  4  9  1  0  0  0  0
  4 16  2  0  0  0  0
  5 18  1  0  0  0  0
  6 20  1  0  0  0  0
  7 10  2  0  0  0  0
  7 19  1  0  0  0  0
  8 23  1  0  0  0  0
  9 23  2  0  0  0  0
 10 24  1  0  0  0  0
 11 12  2  0  0  0  0
 11 25  1  0  0  0  0
 12 26  1  0  0  0  0
 13 21  1  0  0  0  0
 13 24  2  0  0  0  0
 14 22  2  0  0  0  0
 14 30  1  0  0  0  0
 15 26  2  0  0  0  0
 15 27  1  0  0  0  0
 16 29  1  0  0  0  0
 17 29  1  0  0  0  0
 17 32  2  0  0  0  0
 17 33  1  0  0  0  0
 18 20  2  0  0  0  0
 18 38  1  0  0  0  0
 19 21  2  0  0  0  0
 19 39  1  0  0  0  0
 20 47  1  0  0  0  0
 21 40  1  0  0  0  0
 22 28  1  0  0  0  0
 22 56  1  0  0  0  0
 23 81  1  0  0  0  0
 24 82  1  0  0  0  0
 25 27  2  0  0  0  0
 25 81  1  0  0  0  0
 26 83  1  0  0  0  0
 27 84  1  0  0  0  0
 28 31  2  0  0  0  0
 28 85  1  0  0  0  0
 29 65  2  0  0  0  0
 30 58  1  0  0  0  0
 30 66  2  0  0  0  0
 31 57  1  0  0  0  0
 31 66  1  0  0  0  0
 32 67  1  0  0  0  0
 32 70  1  0  0  0  0
 33 71  1  0  0  0  0
 33 76  2  0  0  0  0
 34 48  1  0  0  0  0
 34 72  1  0  0  0  0
 34 77  2  0  0  0  0
 35 62  1  0  0  0  0
 35 68  1  0  0  0  0
 35 78  2  0  0  0  0
 36 63  1  0  0  0  0
 36 73  1  0  0  0  0
 36 79  2  0  0  0  0
 37 69  1  0  0  0  0
 37 74  1  0  0  0  0
 37 80  2  0  0  0  0
 38 41  1  0  0  0  0
 39 48  1  0  0  0  0
 40 68  1  0  0  0  0
 41 43  1  0  0  0  0
 42 44  1  0  0  0  0
 42 45  1  0  0  0  0
 43 47  1  0  0  0  0
 44 49  1  0  0  0  0
 45 69  1  0  0  0  0
 46 49  1  0  0  0  0
 46 69  1  0  0  0  0
 47 72  1  0  0  0  0
 48 68  1  0  0  0  0
 49 67  1  0  0  0  0
 50 59  1  0  0  0  0
 51 63  1  0  0  0  0
 52 64  1  0  0  0  0
 53 64  1  0  0  0  0
 54 64  1  0  0  0  0
 55 75  1  0  0  0  0
 56 60  1  0  0  0  0
 57 59  1  0  0  0  0
 58 82  1  0  0  0  0
 60 61  1  0  0  0  0
 61 74  1  0  0  0  0
 62 64  1  0  0  0  0
 62 73  1  0  0  0  0
 63 75  1  0  0  0  0
 65 67  1  0  0  0  0
M  CHG  1  75   1
M  ISO  4  37 100  58 101  74 100  82 101
M  END
> <Batch ID>
0036

> <Smiles>
CCCc1nc([101CH2:1][101O:1]c2ccc3c(c2)CN(C(=O)C(NC(=O)C(C)NC)C(C)(C)C)C(C(=O)NC2CCCc4ccccc42)C3)cc(CCC[100NH:0][100C:0](=O)N2CCCC(n3nc(-c4ccc(Oc5ccc(F)cc5F)cc4)c(C(N)=O)c3N)C2)c1F

> <Shape>
0.306

> <Color>
0.131

> <Negative vol penalty>
0.000

$$$$

  -OEChem-04052316563D

 90 99  0     1  0  0  0  0  0999 V2000
  -20.5651  -37.2622   19.6857 C   0  0  0  0  0  0  0  0  0  0  0  0
  -21.7363  -36.7833   19.1075 C   0  0  0  0  0  0  0  0  0  0  0  0
  -22.7642  -10.1604   20.9099 C   0  0  0  0  0  0  0  0  0  0  0  0
  -24.2770   -9.9744   22.7845 C   0  0  0  0  0  0  0  0  0  0  0  0
  -20.4991  -37.4578   21.0645 C   0  0  0  0  0  0  0  0  0  0  0  0
  -22.8427  -36.5008   19.9078 C   0  0  0  0  0  0  0  0  0  0  0  0
  -25.7244  -29.9004   20.0552 C   0  0  0  0  0  0  0  0  0  0  0  0
  -22.0332   -9.0747   21.3921 C   0  0  0  0  0  0  0  0  0  0  0  0
  -23.5459   -8.8888   23.2668 C   0  0  0  0  0  0  0  0  0  0  0  0
  -26.4618  -28.7187   19.9780 C   0  0  0  0  0  0  0  0  0  0  0  0
  -20.6681   -8.3827   24.9646 C   0  0  0  0  0  0  0  0  0  0  0  0
  -20.3712   -8.3572   26.3272 C   0  0  0  0  0  0  0  0  0  0  0  0
  -27.9898  -29.5498   21.6580 C   0  0  0  0  0  0  0  0  0  0  0  0
  -29.7462  -21.4078   25.6724 C   0  0  0  0  0  0  0  0  0  0  0  0
  -21.5703   -6.2716   26.5495 C   0  0  0  0  0  0  0  0  0  0  0  0
  -29.3468  -20.0476   23.3409 C   0  0  0  0  0  0  0  0  0  0  0  0
  -23.8862  -10.6102   21.6061 C   0  0  0  0  0  0  0  0  0  0  0  0
  -24.1760  -13.0418   20.8915 C   0  0  0  0  0  0  0  0  0  0  0  0
  -21.6021  -37.1684   21.8833 C   0  0  0  0  0  0  0  0  0  0  0  0
  -26.1086  -30.9063   20.9463 C   0  0  0  0  0  0  0  0  0  0  0  0
  -22.7919  -36.6940   21.2987 C   0  0  0  0  0  0  0  0  0  0  0  0
  -27.2479  -30.7306   21.7487 C   0  0  0  0  0  0  0  0  0  0  0  0
  -29.6959  -20.0185   25.6933 C   0  0  0  0  0  0  0  0  0  0  0  0
  -29.4928  -19.3178   24.5096 C   0  0  0  0  0  0  0  0  0  0  0  0
  -22.4240   -8.4389   22.5706 C   0  0  0  0  0  0  0  0  0  0  0  0
  -27.5918  -28.5439   20.7773 C   0  0  0  0  0  0  0  0  0  0  0  0
  -21.4161   -7.3526   24.3944 C   0  0  0  0  0  0  0  0  0  0  0  0
  -20.8223   -7.3017   27.1197 C   0  0  0  0  0  0  0  0  0  0  0  0
  -21.8672   -6.2971   25.1868 C   0  0  0  0  0  0  0  0  0  0  0  0
  -24.6421  -11.7313   21.1082 C   0  0  0  0  0  0  0  0  0  0  0  0
  -29.5890  -22.0441   24.4516 C   0  0  0  0  0  0  0  0  0  0  0  0
  -25.2712  -13.7217   20.4173 C   0  0  0  0  0  0  0  0  0  0  0  0
  -22.8699  -13.5953   21.1002 C   0  0  0  0  0  0  0  0  0  0  0  0
  -25.4030  -34.3070   22.3651 C   0  0  0  0  0  0  0  0  0  0  0  0
  -26.2836  -32.5302   24.7056 C   0  0  0  0  0  0  0  0  0  0  0  0
  -26.7589  -31.0651   27.7494 C   0  0  0  0  0  0  0  0  0  0  0  0
  -31.1685  -12.8770   21.0164 C   0  0  0  0  0  0  0  0  0  0  0  0
  -21.4990  -37.4408   23.3631 C   0  0  0  0  0  0  0  0  0  0  0  0
  -25.3799  -32.2206   21.0186 C   0  0  0  0  0  0  0  0  0  0  0  0
  -27.6437  -31.8538   22.6677 C   0  0  0  0  0  0  0  0  0  0  0  0
  -22.5919  -36.7622   24.1849 C   0  0  0  0  0  0  0  0  0  0  0  0
  -29.3283  -13.0460   17.9731 C   0  0  0  0  0  0  0  0  0  0  0  0
  -23.9565  -36.9746   23.5372 C   0  0  0  0  0  0  0  0  0  0  0  0
  -27.8766  -12.8464   18.4119 C   0  0  0  0  0  0  0  0  0  0  0  0
  -30.1091  -25.6119   23.4794 C   0  0  0  0  0  0  0  0  0  0  0  0
  -28.0140  -24.3255   22.8807 C   0  0  0  0  0  0  0  0  0  0  0  0
  -29.8955  -26.5173   22.2689 C   0  0  0  0  0  0  0  0  0  0  0  0
  -27.8044  -25.2346   21.6722 C   0  0  0  0  0  0  0  0  0  0  0  0
  -30.2902  -12.1976   18.8021 C   0  0  0  0  0  0  0  0  0  0  0  0
  -28.7187  -12.1737   20.7004 C   0  0  0  0  0  0  0  0  0  0  0  0
  -24.0051  -36.3526   22.1364 C   0  0  1  0  0  0  0  0  0  0  0  0
  -25.3375  -32.8098   22.4399 C   0  0  1  0  0  0  0  0  0  0  0  0
  -27.7167  -13.0509   19.9304 C   0  0  2  0  0  0  0  0  0  0  0  0
  -29.4959  -24.2279   23.2504 C   0  0  0  0  0  0  0  0  0  0  0  0
  -28.4188  -26.6162   21.8920 C   0  0  0  0  0  0  0  0  0  1  0  0
  -29.8620  -19.3021   26.9925 C   0  0  0  0  0  0  0  0  0  0  0  0
  -27.4599  -31.5913   30.1008 C   0  0  0  0  0  0  0  0  0  0  0  0
  -29.1929  -32.6783   23.8012 C   0  0  0  0  0  0  0  0  0  0  0  0
  -29.8774  -32.2463   26.1704 C   0  0  0  0  0  0  0  0  0  0  0  0
  -28.5768  -34.2982   25.6041 C   0  0  0  0  0  0  0  0  0  0  0  0
  -24.1470  -30.2054   28.8439 C   0  0  0  0  0  0  0  0  0  0  0  0
  -29.4305  -17.8303   24.4749 C   0  0  0  0  0  0  0  0  0  0  0  0
  -30.7307  -17.2038   23.9462 C   0  0  0  0  0  0  0  0  0  0  0  0
  -30.6411  -15.6779   23.8771 C   0  0  0  0  0  0  0  0  0  0  0  0
  -31.9564  -15.0661   23.3862 C   0  0  0  0  0  0  0  0  0  0  0  0
  -31.8964  -13.5450   23.2931 C   0  0  0  0  0  0  0  0  0  0  0  0
  -27.4211  -32.0498   25.5709 C   0  0  1  0  0  0  0  0  0  0  0  0
  -26.2895  -31.4548   29.1395 C   0  0  2  0  0  0  0  0  0  0  0  0
  -28.7500  -32.7999   25.2729 C   0  0  0  0  0  0  0  0  0  0  0  0
  -29.3898  -21.3975   23.2812 N   0  0  0  0  0  0  0  0  0  0  0  0
  -25.9327  -11.5849   20.7970 N   0  0  0  0  0  0  0  0  0  0  0  0
  -26.2870  -12.8123   20.3799 N   0  0  0  0  0  0  0  0  0  0  0  0
  -26.4497  -32.4134   23.3202 N   0  0  0  0  0  0  0  0  0  0  0  0
  -30.0881  -12.4397   20.2326 N   0  0  0  0  0  0  0  0  0  0  0  0
  -25.4548  -15.0026   20.0327 N   0  0  0  0  0  0  0  0  0  0  0  0
  -21.8602  -12.7573   21.5928 N   0  0  0  0  0  0  0  0  0  0  0  0
  -29.6412  -23.4263   24.4464 N   0  0  0  0  0  0  0  0  0  0  0  0
  -24.1713  -34.9177   22.2260 N   0  0  0  0  0  0  0  0  0  0  0  0
  -26.9634  -32.1704   26.9509 N   0  0  0  0  0  0  0  0  0  0  0  0
  -30.8895  -13.0886   22.3611 N   0  0  0  0  0  0  0  0  0  0  0  0
  -25.3561  -30.4257   29.6785 N   0  3  0  0  0  0  0  0  0  0  0  0
  -22.6020  -14.7931   20.8417 O   0  0  0  0  0  0  0  0  0  0  0  0
  -26.4904  -34.8682   22.4303 O   0  0  0  0  0  0  0  0  0  0  0  0
  -25.2763  -33.0018   25.2406 O   0  0  0  0  0  0  0  0  0  0  0  0
  -26.9308  -29.8972   27.4075 O   0  0  0  0  0  0  0  0  0  0  0  0
  -32.2969  -13.0701   20.5512 O   0  0  0  0  0  0  0  0  0  0  0  0
  -21.7107   -7.3797   23.0415 O   0  0  0  0  0  0  0  0  0  0  0  0
  -28.3044  -27.3859   20.7002 O   0  0  0  0  0  0  0  0  0  1  0  0
  -20.5384   -7.2782   28.4285 F   0  0  0  0  0  0  0  0  0  0  0  0
  -22.5873   -5.3052   24.6450 F   0  0  0  0  0  0  0  0  0  0  0  0
  1  2  1  0  0  0  0
  1  5  2  0  0  0  0
  2  6  2  0  0  0  0
  3  8  2  0  0  0  0
  3 17  1  0  0  0  0
  4  9  1  0  0  0  0
  4 17  2  0  0  0  0
  5 19  1  0  0  0  0
  6 21  1  0  0  0  0
  7 10  2  0  0  0  0
  7 20  1  0  0  0  0
  8 25  1  0  0  0  0
  9 25  2  0  0  0  0
 10 26  1  0  0  0  0
 11 12  2  0  0  0  0
 11 27  1  0  0  0  0
 12 28  1  0  0  0  0
 13 22  1  0  0  0  0
 13 26  2  0  0  0  0
 14 23  2  0  0  0  0
 14 31  1  0  0  0  0
 15 28  2  0  0  0  0
 15 29  1  0  0  0  0
 16 24  2  0  0  0  0
 16 70  1  0  0  0  0
 17 30  1  0  0  0  0
 18 30  1  0  0  0  0
 18 32  2  0  0  0  0
 18 33  1  0  0  0  0
 19 21  2  0  0  0  0
 19 38  1  0  0  0  0
 20 22  2  0  0  0  0
 20 39  1  0  0  0  0
 21 51  1  0  0  0  0
 22 40  1  0  0  0  0
 23 24  1  0  0  0  0
 23 56  1  0  0  0  0
 24 62  1  0  0  0  0
 25 87  1  0  0  0  0
 26 88  1  0  0  0  0
 27 29  2  0  0  0  0
 27 87  1  0  0  0  0
 28 89  1  0  0  0  0
 29 90  1  0  0  0  0
 30 71  2  0  0  0  0
 31 70  2  0  0  0  0
 31 77  1  0  0  0  0
 32 72  1  0  0  0  0
 32 75  1  0  0  0  0
 33 76  1  0  0  0  0
 33 82  2  0  0  0  0
 34 52  1  0  0  0  0
 34 78  1  0  0  0  0
 34 83  2  0  0  0  0
 35 67  1  0  0  0  0
 35 73  1  0  0  0  0
 35 84  2  0  0  0  0
 36 68  1  0  0  0  0
 36 79  1  0  0  0  0
 36 85  2  0  0  0  0
 37 74  1  0  0  0  0
 37 80  1  0  0  0  0
 37 86  2  0  0  0  0
 38 41  1  0  0  0  0
 39 52  1  0  0  0  0
 40 73  1  0  0  0  0
 41 43  1  0  0  0  0
 42 44  1  0  0  0  0
 42 49  1  0  0  0  0
 43 51  1  0  0  0  0
 44 53  1  0  0  0  0
 45 47  1  0  0  0  0
 45 54  1  0  0  0  0
 46 48  1  0  0  0  0
 46 54  1  0  0  0  0
 47 55  1  0  0  0  0
 48 55  1  0  0  0  0
 49 74  1  0  0  0  0
 50 53  1  0  0  0  0
 50 74  1  0  0  0  0
 51 78  1  0  0  0  0
 52 73  1  0  0  0  0
 53 72  1  0  0  0  0
 54 77  1  0  0  0  0
 55 88  1  0  0  0  0
 57 68  1  0  0  0  0
 58 69  1  0  0  0  0
 59 69  1  0  0  0  0
 60 69  1  0  0  0  0
 61 81  1  0  0  0  0
 62 63  1  0  0  0  0
 63 64  1  0  0  0  0
 64 65  1  0  0  0  0
 65 66  1  0  0  0  0
 66 80  1  0  0  0  0
 67 69  1  0  0  0  0
 67 79  1  0  0  0  0
 68 81  1  0  0  0  0
 71 72  1  0  0  0  0
M  CHG  1  81   1
M  ISO  4  37 100  55 101  80 100  88 101
M  END
> <Batch ID>
0036

> <Smiles>
CNC(C)C(=O)NC(C(=O)N1Cc2cc([101O:1][101CH:1]3CCC(Nc4cc(C)c(CCCCC[100NH:0][100C:0](=O)N5CCCC(n6nc(-c7ccc(Oc8ccc(F)cc8F)cc7)c(C(N)=O)c6N)C5)cn4)CC3)ccc2CC1C(=O)NC1CCCc2ccccc21)C(C)(C)C

> <Shape>
0.276

> <Color>
0.164

> <Negative vol penalty>
0.000

$$$$

  -OEChem-04052316563D

 86 94  0     1  0  0  0  0  0999 V2000
  -23.9864  -18.5219   15.5382 C   0  0  0  0  0  0  0  0  0  0  0  0
  -23.5313  -19.8350   15.4754 C   0  0  0  0  0  0  0  0  0  0  0  0
  -22.7531  -13.2124   20.6099 C   0  0  0  0  0  0  0  0  0  0  0  0
  -24.2240  -14.6417   21.8868 C   0  0  0  0  0  0  0  0  0  0  0  0
  -24.6874  -18.0812   16.6600 C   0  0  0  0  0  0  0  0  0  0  0  0
  -23.7761  -20.7080   16.5349 C   0  0  0  0  0  0  0  0  0  0  0  0
  -25.0553  -27.6254   17.8875 C   0  0  0  0  0  0  0  0  0  0  0  0
  -23.8318  -12.3879   20.2903 C   0  0  0  0  0  0  0  0  0  0  0  0
  -25.3027  -13.8171   21.5673 C   0  0  0  0  0  0  0  0  0  0  0  0
  -24.5916  -28.6705   18.6852 C   0  0  0  0  0  0  0  0  0  0  0  0
  -27.3537  -13.3086   18.9280 C   0  0  0  0  0  0  0  0  0  0  0  0
  -28.5405  -13.9209   18.5256 C   0  0  0  0  0  0  0  0  0  0  0  0
  -25.8818  -27.8209   20.5379 C   0  0  0  0  0  0  0  0  0  0  0  0
  -19.0775  -26.8162   23.0050 C   0  0  0  0  0  0  0  0  0  0  0  0
  -29.6968  -12.9028   20.3867 C   0  0  0  0  0  0  0  0  0  0  0  0
  -22.9492  -14.3394   21.4081 C   0  0  0  0  0  0  0  0  0  0  0  0
  -20.9794  -15.0799   22.8500 C   0  0  0  0  0  0  0  0  0  0  0  0
  -24.9493  -18.9519   17.7295 C   0  0  0  0  0  0  0  0  0  0  0  0
  -25.9287  -26.6623   18.4129 C   0  0  0  0  0  0  0  0  0  0  0  0
  -24.4801  -20.2782   17.6726 C   0  0  0  0  0  0  0  0  0  0  0  0
  -26.3572  -26.7660   19.7440 C   0  0  0  0  0  0  0  0  0  0  0  0
  -18.1854  -25.8339   22.5896 C   0  0  0  0  0  0  0  0  0  0  0  0
  -20.4432  -26.5554   22.9973 C   0  0  0  0  0  0  0  0  0  0  0  0
  -25.1065  -12.6902   20.7690 C   0  0  0  0  0  0  0  0  0  0  0  0
  -25.0025  -28.7668   20.0114 C   0  0  0  0  0  0  0  0  0  0  0  0
  -27.3383  -12.4934   20.0598 C   0  0  0  0  0  0  0  0  0  0  0  0
  -29.7121  -13.7180   19.2549 C   0  0  0  0  0  0  0  0  0  0  0  0
  -28.5098  -12.2905   20.7891 C   0  0  0  0  0  0  0  0  0  0  0  0
  -21.8355  -15.1919   21.7381 C   0  0  0  0  0  0  0  0  0  0  0  0
  -18.7056  -24.6171   22.1789 C   0  0  0  0  0  0  0  0  0  0  0  0
  -20.8623  -25.3062   22.5686 C   0  0  0  0  0  0  0  0  0  0  0  0
  -20.0937  -16.1200   22.7076 C   0  0  0  0  0  0  0  0  0  0  0  0
  -20.9844  -14.1214   23.9163 C   0  0  0  0  0  0  0  0  0  0  0  0
  -25.7909  -23.5194   18.8678 C   0  0  0  0  0  0  0  0  0  0  0  0
  -28.8923  -23.9021   19.7380 C   0  0  0  0  0  0  0  0  0  0  0  0
  -31.3374  -25.9728   20.9131 C   0  0  0  0  0  0  0  0  0  0  0  0
  -19.0834  -21.4032   21.7011 C   0  0  0  0  0  0  0  0  0  0  0  0
  -25.6699  -18.4167   18.9415 C   0  0  0  0  0  0  0  0  0  0  0  0
  -26.4408  -25.5562   17.5317 C   0  0  0  0  0  0  0  0  0  0  0  0
  -27.3098  -25.7692   20.3503 C   0  0  0  0  0  0  0  0  0  0  0  0
  -26.2132  -19.5093   19.8588 C   0  0  0  0  0  0  0  0  0  0  0  0
  -19.2709  -19.2363   18.8086 C   0  0  0  0  0  0  0  0  0  0  0  0
  -25.1526  -20.5782   20.1023 C   0  0  0  0  0  0  0  0  0  0  0  0
  -19.8888  -17.9743   19.4135 C   0  0  0  0  0  0  0  0  0  0  0  0
  -19.8665  -20.4960   19.4303 C   0  0  0  0  0  0  0  0  0  0  0  0
  -20.3793  -19.2982   21.5222 C   0  0  0  0  0  0  0  0  0  0  0  0
  -24.7473  -21.2620   18.7909 C   0  0  1  0  0  0  0  0  0  0  0  0
  -26.9226  -24.3406   18.3177 C   0  0  1  0  0  0  0  0  0  0  0  0
  -19.8026  -17.9900   20.9512 C   0  0  2  0  0  0  0  0  0  0  0  0
  -16.7211  -26.1072   22.5954 C   0  0  0  0  0  0  0  0  0  0  0  0
  -22.6013  -23.6950   21.7520 C   0  0  0  0  0  0  0  0  0  0  0  0
  -33.7626  -25.9900   21.5575 C   0  0  0  0  0  0  0  0  0  0  0  0
  -28.2079  -22.4689   22.3432 C   0  0  0  0  0  0  0  0  0  0  0  0
  -30.3472  -23.3440   23.3054 C   0  0  0  0  0  0  0  0  0  0  0  0
  -30.4013  -21.8128   21.3368 C   0  0  0  0  0  0  0  0  0  0  0  0
  -31.9913  -27.9894   18.8480 C   0  0  0  0  0  0  0  0  0  0  0  0
  -21.4111  -27.6108   23.4446 C   0  0  0  0  0  0  0  0  0  0  0  0
  -22.3178  -24.9714   22.5381 C   0  0  0  0  0  0  0  0  0  0  0  0
  -17.7955  -23.5240   21.7231 C   0  0  0  0  0  0  0  0  0  0  0  0
  -22.6372  -30.8366   21.7856 C   0  0  0  0  0  0  0  0  0  0  0  0
  -22.4984  -29.7870   22.8780 C   0  0  0  0  0  0  0  0  0  0  0  0
  -23.2543  -30.3039   20.4983 C   0  0  0  0  0  0  0  0  0  1  0  0
  -29.6111  -24.1951   21.0328 C   0  0  1  0  0  0  0  0  0  0  0  0
  -32.7578  -26.2241   20.4402 C   0  0  2  0  0  0  0  0  0  0  0  0
  -29.6224  -22.9731   21.9940 C   0  0  0  0  0  0  0  0  0  0  0  0
  -21.5218  -16.2218   20.9476 N   0  0  0  0  0  0  0  0  0  0  0  0
  -20.0258  -24.3269   22.1576 N   0  0  0  0  0  0  0  0  0  0  0  0
  -20.4587  -16.7664   21.5635 N   0  0  0  0  0  0  0  0  0  0  0  0
  -27.7776  -24.7023   19.4501 N   0  0  0  0  0  0  0  0  0  0  0  0
  -19.7356  -20.4566   20.8937 N   0  0  0  0  0  0  0  0  0  0  0  0
  -19.0461  -16.5354   23.4507 N   0  0  0  0  0  0  0  0  0  0  0  0
  -21.9637  -13.1188   23.9089 N   0  0  0  0  0  0  0  0  0  0  0  0
  -25.7525  -22.2232   18.3905 N   0  0  0  0  0  0  0  0  0  0  0  0
  -30.9376  -24.6770   20.6633 N   0  0  0  0  0  0  0  0  0  0  0  0
  -18.5060  -22.4734   21.0287 N   0  0  0  0  0  0  0  0  0  0  0  0
  -32.9041  -27.6284   19.9631 N   0  3  0  0  0  0  0  0  0  0  0  0
  -21.5968  -28.6953   22.4411 N   0  3  0  0  0  0  0  0  0  0  0  0
  -20.1351  -14.1432   24.8392 O   0  0  0  0  0  0  0  0  0  0  0  0
  -25.0113  -24.0240   19.6674 O   0  0  0  0  0  0  0  0  0  0  0  0
  -29.3090  -23.0013   19.0054 O   0  0  0  0  0  0  0  0  0  0  0  0
  -30.6523  -26.8382   21.4538 O   0  0  0  0  0  0  0  0  0  0  0  0
  -19.0156  -21.2996   22.9306 O   0  0  0  0  0  0  0  0  0  0  0  0
  -26.1593  -11.8856   20.4576 O   0  0  0  0  0  0  0  0  0  0  0  0
  -24.5509  -29.7856   20.7925 O   0  0  0  0  0  0  0  0  0  1  0  0
  -30.8522  -14.3048   18.8675 F   0  0  0  0  0  0  0  0  0  0  0  0
  -28.5015  -11.5075   21.8766 F   0  0  0  0  0  0  0  0  0  0  0  0
  1  2  1  0  0  0  0
  1  5  2  0  0  0  0
  2  6  2  0  0  0  0
  3  8  2  0  0  0  0
  3 16  1  0  0  0  0
  4  9  1  0  0  0  0
  4 16  2  0  0  0  0
  5 18  1  0  0  0  0
  6 20  1  0  0  0  0
  7 10  2  0  0  0  0
  7 19  1  0  0  0  0
  8 24  1  0  0  0  0
  9 24  2  0  0  0  0
 10 25  1  0  0  0  0
 11 12  2  0  0  0  0
 11 26  1  0  0  0  0
 12 27  1  0  0  0  0
 13 21  1  0  0  0  0
 13 25  2  0  0  0  0
 14 22  2  0  0  0  0
 14 23  1  0  0  0  0
 15 27  2  0  0  0  0
 15 28  1  0  0  0  0
 16 29  1  0  0  0  0
 17 29  1  0  0  0  0
 17 32  2  0  0  0  0
 17 33  1  0  0  0  0
 18 20  2  0  0  0  0
 18 38  1  0  0  0  0
 19 21  2  0  0  0  0
 19 39  1  0  0  0  0
 20 47  1  0  0  0  0
 21 40  1  0  0  0  0
 22 30  1  0  0  0  0
 22 50  1  0  0  0  0
 23 31  2  0  0  0  0
 23 57  1  0  0  0  0
 24 83  1  0  0  0  0
 25 84  1  0  0  0  0
 26 28  2  0  0  0  0
 26 83  1  0  0  0  0
 27 85  1  0  0  0  0
 28 86  1  0  0  0  0
 29 66  2  0  0  0  0
 30 59  1  0  0  0  0
 30 67  2  0  0  0  0
 31 58  1  0  0  0  0
 31 67  1  0  0  0  0
 32 68  1  0  0  0  0
 32 71  1  0  0  0  0
 33 72  1  0  0  0  0
 33 78  2  0  0  0  0
 34 48  1  0  0  0  0
 34 73  1  0  0  0  0
 34 79  2  0  0  0  0
 35 63  1  0  0  0  0
 35 69  1  0  0  0  0
 35 80  2  0  0  0  0
 36 64  1  0  0  0  0
 36 74  1  0  0  0  0
 36 81  2  0  0  0  0
 37 70  1  0  0  0  0
 37 75  1  0  0  0  0
 37 82  2  0  0  0  0
 38 41  1  0  0  0  0
 39 48  1  0  0  0  0
 40 69  1  0  0  0  0
 41 43  1  0  0  0  0
 42 44  1  0  0  0  0
 42 45  1  0  0  0  0
 43 47  1  0  0  0  0
 44 49  1  0  0  0  0
 45 70  1  0  0  0  0
 46 49  1  0  0  0  0
 46 70  1  0  0  0  0
 47 73  1  0  0  0  0
 48 69  1  0  0  0  0
 49 68  1  0  0  0  0
 51 58  1  0  0  0  0
 52 64  1  0  0  0  0
 53 65  1  0  0  0  0
 54 65  1  0  0  0  0
 55 65  1  0  0  0  0
 56 76  1  0  0  0  0
 57 77  1  0  0  0  0
 59 75  1  0  0  0  0
 60 61  1  0  0  0  0
 60 62  1  0  0  0  0
 61 77  1  0  0  0  0
 62 84  1  0  0  0  0
 63 65  1  0  0  0  0
 63 74  1  0  0  0  0
 64 76  1  0  0  0  0
 66 68  1  0  0  0  0
M  CHG  2  76   1  77   1
M  ISO  4  37 100  62 101  75 100  84 101
M  END
> <Batch ID>
0036

> <Smiles>
CCc1nc(C[100NH:0][100C:0](=O)N2CCCC(n3nc(-c4ccc(Oc5ccc(F)cc5F)cc4)c(C(N)=O)c3N)C2)c(C)cc1CNCC[101CH2:1][101O:1]c1ccc2c(c1)CN(C(=O)C(NC(=O)C(C)NC)C(C)(C)C)C(C(=O)NC1CCCc3ccccc31)C2

> <Shape>
0.207

> <Color>
0.064

> <Negative vol penalty>
0.000

$$$$

  -OEChem-04052316563D

 82 90  0     1  0  0  0  0  0999 V2000
  -16.6864  -28.5300   23.1850 C   0  0  0  0  0  0  0  0  0  0  0  0
  -17.5808  -27.4706   23.0707 C   0  0  0  0  0  0  0  0  0  0  0  0
  -23.5043   -9.6766   20.4703 C   0  0  0  0  0  0  0  0  0  0  0  0
  -23.9545  -10.2882   22.7638 C   0  0  0  0  0  0  0  0  0  0  0  0
  -17.1633  -29.8372   23.2718 C   0  0  0  0  0  0  0  0  0  0  0  0
  -18.9528  -27.7180   23.0419 C   0  0  0  0  0  0  0  0  0  0  0  0
  -23.3784  -24.1981   25.3935 C   0  0  0  0  0  0  0  0  0  0  0  0
  -22.8888   -8.5025   20.9042 C   0  0  0  0  0  0  0  0  0  0  0  0
  -23.3390   -9.1141   23.1978 C   0  0  0  0  0  0  0  0  0  0  0  0
  -24.2341  -23.2586   24.8198 C   0  0  0  0  0  0  0  0  0  0  0  0
  -20.1897   -7.9751   23.6503 C   0  0  0  0  0  0  0  0  0  0  0  0
  -19.2994   -8.0690   24.7199 C   0  0  0  0  0  0  0  0  0  0  0  0
  -25.9412  -24.9501   24.6106 C   0  0  0  0  0  0  0  0  0  0  0  0
  -27.2155  -20.6584   21.7570 C   0  0  0  0  0  0  0  0  0  0  0  0
  -20.6741   -6.5475   25.9976 C   0  0  0  0  0  0  0  0  0  0  0  0
  -24.0372  -10.5694   21.4001 C   0  0  0  0  0  0  0  0  0  0  0  0
  -24.0642  -13.0331   20.7388 C   0  0  0  0  0  0  0  0  0  0  0  0
  -18.5422  -30.1000   23.2539 C   0  0  0  0  0  0  0  0  0  0  0  0
  -23.7947  -25.5255   25.5704 C   0  0  0  0  0  0  0  0  0  0  0  0
  -19.4486  -29.0301   23.1272 C   0  0  0  0  0  0  0  0  0  0  0  0
  -25.0899  -25.9039   25.1891 C   0  0  0  0  0  0  0  0  0  0  0  0
  -28.2135  -19.8469   21.2290 C   0  0  0  0  0  0  0  0  0  0  0  0
  -28.8806  -18.9486   22.0544 C   0  0  0  0  0  0  0  0  0  0  0  0
  -22.8062   -8.2212   22.2679 C   0  0  0  0  0  0  0  0  0  0  0  0
  -25.5146  -23.6352   24.4256 C   0  0  0  0  0  0  0  0  0  0  0  0
  -21.3221   -7.1673   23.7543 C   0  0  0  0  0  0  0  0  0  0  0  0
  -19.5416   -7.3552   25.8936 C   0  0  0  0  0  0  0  0  0  0  0  0
  -21.5643   -6.4536   24.9279 C   0  0  0  0  0  0  0  0  0  0  0  0
  -24.6736  -11.7822   20.9525 C   0  0  0  0  0  0  0  0  0  0  0  0
  -26.9245  -20.5340   23.1060 C   0  0  0  0  0  0  0  0  0  0  0  0
  -28.5152  -18.9009   23.3901 C   0  0  0  0  0  0  0  0  0  0  0  0
  -25.0886  -13.8473   20.3214 C   0  0  0  0  0  0  0  0  0  0  0  0
  -22.6946  -13.4241   20.9029 C   0  0  0  0  0  0  0  0  0  0  0  0
  -22.8193  -28.3466   24.4778 C   0  0  0  0  0  0  0  0  0  0  0  0
  -25.0476  -29.4800   26.5448 C   0  0  0  0  0  0  0  0  0  0  0  0
  -27.9137  -28.9178   28.3100 C   0  0  0  0  0  0  0  0  0  0  0  0
  -30.3252  -15.7155   20.8035 C   0  0  0  0  0  0  0  0  0  0  0  0
  -19.0087  -31.5334   23.3028 C   0  0  0  0  0  0  0  0  0  0  0  0
  -22.8691  -26.5204   26.2152 C   0  0  0  0  0  0  0  0  0  0  0  0
  -25.5921  -27.3115   25.3759 C   0  0  0  0  0  0  0  0  0  0  0  0
  -20.4897  -31.6807   23.6424 C   0  0  0  0  0  0  0  0  0  0  0  0
  -29.8213  -12.7317   18.9273 C   0  0  0  0  0  0  0  0  0  0  0  0
  -21.3262  -30.7102   22.8147 C   0  0  0  0  0  0  0  0  0  0  0  0
  -28.3898  -12.3189   19.2742 C   0  0  0  0  0  0  0  0  0  0  0  0
  -30.5397  -13.3416   20.1290 C   0  0  0  0  0  0  0  0  0  0  0  0
  -28.3968  -14.0489   21.1197 C   0  0  0  0  0  0  0  0  0  0  0  0
  -20.9450  -29.2561   23.1176 C   0  0  1  0  0  0  0  0  0  0  0  0
  -23.2167  -27.9667   25.8762 C   0  0  1  0  0  0  0  0  0  0  0  0
  -27.6134  -13.4798   19.9244 C   0  0  2  0  0  0  0  0  0  0  0  0
  -29.1948  -17.9550   24.3256 C   0  0  0  0  0  0  0  0  0  0  0  0
  -29.8402  -20.7419   19.5440 C   0  0  0  0  0  0  0  0  0  0  0  0
  -29.5128  -30.0454   29.8813 C   0  0  0  0  0  0  0  0  0  0  0  0
  -26.2410  -31.0379   24.2085 C   0  0  0  0  0  0  0  0  0  0  0  0
  -28.3153  -31.3593   25.5730 C   0  0  0  0  0  0  0  0  0  0  0  0
  -26.1454  -32.3014   26.3646 C   0  0  0  0  0  0  0  0  0  0  0  0
  -27.3751  -26.9506   30.4545 C   0  0  0  0  0  0  0  0  0  0  0  0
  -28.5504  -19.9611   19.7790 C   0  0  0  0  0  0  0  0  0  0  0  0
  -29.9539  -18.0638   21.5153 C   0  0  0  0  0  0  0  0  0  0  0  0
  -25.8524  -21.3925   23.7101 C   0  0  0  0  0  0  0  0  0  1  0  0
  -26.5198  -29.8028   26.4585 C   0  0  1  0  0  0  0  0  0  0  0  0
  -28.2694  -29.1778   29.7627 C   0  0  2  0  0  0  0  0  0  0  0  0
  -26.7955  -31.0992   25.6457 C   0  0  0  0  0  0  0  0  0  0  0  0
  -25.9836  -11.7956   20.6923 N   0  0  0  0  0  0  0  0  0  0  0  0
  -27.5509  -19.6731   23.9391 N   0  0  0  0  0  0  0  0  0  0  0  0
  -26.2057  -13.0649   20.3106 N   0  0  0  0  0  0  0  0  0  0  0  0
  -24.6476  -28.2493   26.0052 N   0  0  0  0  0  0  0  0  0  0  0  0
  -29.7518  -14.4376   20.6980 N   0  0  0  0  0  0  0  0  0  0  0  0
  -25.1337  -15.1489   19.9662 N   0  0  0  0  0  0  0  0  0  0  0  0
  -21.7729  -12.4627   21.3394 N   0  0  0  0  0  0  0  0  0  0  0  0
  -21.5296  -28.8310   24.3713 N   0  0  0  0  0  0  0  0  0  0  0  0
  -27.0100  -29.8430   27.8320 N   0  0  0  0  0  0  0  0  0  0  0  0
  -29.5080  -16.6985   21.3481 N   0  0  0  0  0  0  0  0  0  0  0  0
  -28.5243  -27.8920   30.4717 N   0  3  0  0  0  0  0  0  0  0  0  0
  -22.2966  -14.5874   20.6536 O   0  0  0  0  0  0  0  0  0  0  0  0
  -23.6239  -28.2117   23.5634 O   0  0  0  0  0  0  0  0  0  0  0  0
  -24.2818  -30.2868   27.0780 O   0  0  0  0  0  0  0  0  0  0  0  0
  -28.3927  -27.9892   27.6629 O   0  0  0  0  0  0  0  0  0  0  0  0
  -31.4782  -15.9633   20.4343 O   0  0  0  0  0  0  0  0  0  0  0  0
  -22.2055   -7.0758   22.6917 O   0  0  0  0  0  0  0  0  0  0  0  0
  -26.3516  -22.7204   23.8648 O   0  0  0  0  0  0  0  0  0  1  0  0
  -18.6874   -7.4467   26.9213 F   0  0  0  0  0  0  0  0  0  0  0  0
  -22.6512   -5.6768   25.0342 F   0  0  0  0  0  0  0  0  0  0  0  0
  1  2  1  0  0  0  0
  1  5  2  0  0  0  0
  2  6  2  0  0  0  0
  3  8  2  0  0  0  0
  3 16  1  0  0  0  0
  4  9  1  0  0  0  0
  4 16  2  0  0  0  0
  5 18  1  0  0  0  0
  6 20  1  0  0  0  0
  7 10  2  0  0  0  0
  7 19  1  0  0  0  0
  8 24  1  0  0  0  0
  9 24  2  0  0  0  0
 10 25  1  0  0  0  0
 11 12  2  0  0  0  0
 11 26  1  0  0  0  0
 12 27  1  0  0  0  0
 13 21  1  0  0  0  0
 13 25  2  0  0  0  0
 14 22  1  0  0  0  0
 14 30  2  0  0  0  0
 15 27  2  0  0  0  0
 15 28  1  0  0  0  0
 16 29  1  0  0  0  0
 17 29  1  0  0  0  0
 17 32  2  0  0  0  0
 17 33  1  0  0  0  0
 18 20  2  0  0  0  0
 18 38  1  0  0  0  0
 19 21  2  0  0  0  0
 19 39  1  0  0  0  0
 20 47  1  0  0  0  0
 21 40  1  0  0  0  0
 22 23  2  0  0  0  0
 22 57  1  0  0  0  0
 23 31  1  0  0  0  0
 23 58  1  0  0  0  0
 24 79  1  0  0  0  0
 25 80  1  0  0  0  0
 26 28  2  0  0  0  0
 26 79  1  0  0  0  0
 27 81  1  0  0  0  0
 28 82  1  0  0  0  0
 29 63  2  0  0  0  0
 30 59  1  0  0  0  0
 30 64  1  0  0  0  0
 31 50  1  0  0  0  0
 31 64  2  0  0  0  0
 32 65  1  0  0  0  0
 32 68  1  0  0  0  0
 33 69  1  0  0  0  0
 33 74  2  0  0  0  0
 34 48  1  0  0  0  0
 34 70  1  0  0  0  0
 34 75  2  0  0  0  0
 35 60  1  0  0  0  0
 35 66  1  0  0  0  0
 35 76  2  0  0  0  0
 36 61  1  0  0  0  0
 36 71  1  0  0  0  0
 36 77  2  0  0  0  0
 37 67  1  0  0  0  0
 37 72  1  0  0  0  0
 37 78  2  0  0  0  0
 38 41  1  0  0  0  0
 39 48  1  0  0  0  0
 40 66  1  0  0  0  0
 41 43  1  0  0  0  0
 42 44  1  0  0  0  0
 42 45  1  0  0  0  0
 43 47  1  0  0  0  0
 44 49  1  0  0  0  0
 45 67  1  0  0  0  0
 46 49  1  0  0  0  0
 46 67  1  0  0  0  0
 47 70  1  0  0  0  0
 48 66  1  0  0  0  0
 49 65  1  0  0  0  0
 51 57  1  0  0  0  0
 52 61  1  0  0  0  0
 53 62  1  0  0  0  0
 54 62  1  0  0  0  0
 55 62  1  0  0  0  0
 56 73  1  0  0  0  0
 58 72  1  0  0  0  0
 59 80  1  0  0  0  0
 60 62  1  0  0  0  0
 60 71  1  0  0  0  0
 61 73  1  0  0  0  0
 63 65  1  0  0  0  0
M  CHG  1  73   1
M  ISO  4  37 100  59 101  72 100  80 101
M  END
> <Batch ID>
0036

> <Smiles>
CCc1cc([101CH2:1][101O:1]c2ccc3c(c2)CN(C(=O)C(NC(=O)C(C)NC)C(C)(C)C)C(C(=O)NC2CCCc4ccccc42)C3)nc(C)c1C[100NH:0][100C:0](=O)N1CCCC(n2nc(-c3ccc(Oc4ccc(F)cc4F)cc3)c(C(N)=O)c2N)C1

> <Shape>
0.279

> <Color>
0.183

> <Negative vol penalty>
0.000

$$$$

  -OEChem-04052316563D

 84 92  0     1  0  0  0  0  0999 V2000
  -31.0012  -24.7430   17.0054 C   0  0  0  0  0  0  0  0  0  0  0  0
  -30.3606  -24.2811   18.1507 C   0  0  0  0  0  0  0  0  0  0  0  0
  -27.3414  -17.1950   19.0491 C   0  0  0  0  0  0  0  0  0  0  0  0
  -27.6530  -17.1936   21.4449 C   0  0  0  0  0  0  0  0  0  0  0  0
  -30.9587  -26.0988   16.6830 C   0  0  0  0  0  0  0  0  0  0  0  0
  -29.6779  -25.1750   18.9748 C   0  0  0  0  0  0  0  0  0  0  0  0
  -25.1489  -23.4225   20.4109 C   0  0  0  0  0  0  0  0  0  0  0  0
  -21.0487  -16.6542   25.2854 C   0  0  0  0  0  0  0  0  0  0  0  0
  -21.8359  -17.8000   25.3999 C   0  0  0  0  0  0  0  0  0  0  0  0
  -27.9277  -18.4583   18.9735 C   0  0  0  0  0  0  0  0  0  0  0  0
  -28.2394  -18.4569   21.3694 C   0  0  0  0  0  0  0  0  0  0  0  0
  -25.1278  -22.4749   21.4333 C   0  0  0  0  0  0  0  0  0  0  0  0
  -31.2418  -19.7614   20.5302 C   0  0  0  0  0  0  0  0  0  0  0  0
  -32.4118  -19.9758   21.2587 C   0  0  0  0  0  0  0  0  0  0  0  0
  -24.5486  -24.2025   23.0142 C   0  0  0  0  0  0  0  0  0  0  0  0
  -22.8942  -16.8764   27.3656 C   0  0  0  0  0  0  0  0  0  0  0  0
  -31.3185  -21.7404   22.4950 C   0  0  0  0  0  0  0  0  0  0  0  0
  -27.2039  -16.5626   20.2848 C   0  0  0  0  0  0  0  0  0  0  0  0
  -27.2478  -14.0120   20.2785 C   0  0  0  0  0  0  0  0  0  0  0  0
  -30.2669  -27.0082   17.4985 C   0  0  0  0  0  0  0  0  0  0  0  0
  -24.8802  -24.7713   20.6848 C   0  0  0  0  0  0  0  0  0  0  0  0
  -29.6271  -26.5444   18.6638 C   0  0  0  0  0  0  0  0  0  0  0  0
  -24.5644  -25.1648   21.9930 C   0  0  0  0  0  0  0  0  0  0  0  0
  -21.1842  -15.6195   26.2110 C   0  0  0  0  0  0  0  0  0  0  0  0
  -22.1070  -15.7306   27.2511 C   0  0  0  0  0  0  0  0  0  0  0  0
  -22.7587  -17.9111   26.4400 C   0  0  0  0  0  0  0  0  0  0  0  0
  -28.3768  -19.0893   20.1336 C   0  0  0  0  0  0  0  0  0  0  0  0
  -24.8305  -22.8653   22.7357 C   0  0  0  0  0  0  0  0  0  0  0  0
  -30.1102  -20.5366   20.7839 C   0  0  0  0  0  0  0  0  0  0  0  0
  -32.4501  -20.9653   22.2412 C   0  0  0  0  0  0  0  0  0  0  0  0
  -30.1486  -21.5260   21.7664 C   0  0  0  0  0  0  0  0  0  0  0  0
  -26.5978  -15.2578   20.3635 C   0  0  0  0  0  0  0  0  0  0  0  0
  -26.2393  -13.0889   20.4099 C   0  0  0  0  0  0  0  0  0  0  0  0
  -28.6388  -13.7157   20.0969 C   0  0  0  0  0  0  0  0  0  0  0  0
  -26.5226  -27.4812   20.4349 C   0  0  0  0  0  0  0  0  0  0  0  0
  -23.6913  -28.8197   21.2804 C   0  0  0  0  0  0  0  0  0  0  0  0
  -20.6641  -28.4674   22.8162 C   0  0  0  0  0  0  0  0  0  0  0  0
  -20.8346  -13.2926   22.9787 C   0  0  0  0  0  0  0  0  0  0  0  0
  -30.2886  -28.4717   17.1344 C   0  0  0  0  0  0  0  0  0  0  0  0
  -24.8808  -25.7767   19.5661 C   0  0  0  0  0  0  0  0  0  0  0  0
  -24.2488  -26.5970   22.3360 C   0  0  0  0  0  0  0  0  0  0  0  0
  -29.2279  -29.2956   17.8598 C   0  0  0  0  0  0  0  0  0  0  0  0
  -21.5627  -12.5089   19.5828 C   0  0  0  0  0  0  0  0  0  0  0  0
  -29.2111  -28.9541   19.3464 C   0  0  0  0  0  0  0  0  0  0  0  0
  -22.9943  -13.0121   19.3901 C   0  0  0  0  0  0  0  0  0  0  0  0
  -20.7621  -13.4246   20.5061 C   0  0  0  0  0  0  0  0  0  0  0  0
  -22.8218  -14.1905   21.6218 C   0  0  0  0  0  0  0  0  0  0  0  0
  -28.8554  -27.4793   19.5697 C   0  0  1  0  0  0  0  0  0  0  0  0
  -25.0965  -27.2077   20.0489 C   0  0  1  0  0  0  0  0  0  0  0  0
  -23.6851  -13.2694   20.7429 C   0  0  2  0  0  0  0  0  0  0  0  0
  -22.2685  -14.6364   28.2547 C   0  0  0  0  0  0  0  0  0  0  0  0
  -18.5802  -29.7471   23.3796 C   0  0  0  0  0  0  0  0  0  0  0  0
  -25.1826  -30.2567   23.5211 C   0  0  0  0  0  0  0  0  0  0  0  0
  -22.9707  -30.7339   24.5927 C   0  0  0  0  0  0  0  0  0  0  0  0
  -23.4847  -31.6566   22.3328 C   0  0  0  0  0  0  0  0  0  0  0  0
  -18.9684  -26.6304   21.2322 C   0  0  0  0  0  0  0  0  0  0  0  0
  -20.3296  -14.4031   26.0684 C   0  0  0  0  0  0  0  0  0  0  0  0
  -24.4995  -21.2274   26.0054 C   0  0  0  0  0  0  0  0  0  0  0  0
  -21.0631  -13.2088   25.4485 C   0  0  0  0  0  0  0  0  0  0  0  0
  -23.4684  -20.1659   25.6415 C   0  0  0  0  0  0  0  0  0  0  0  0
  -24.4976  -22.4122   25.0465 C   0  0  0  0  0  0  0  0  0  1  0  0
  -23.0284  -29.1829   22.5872 C   0  0  1  0  0  0  0  0  0  0  0  0
  -19.2599  -28.8343   22.3709 C   0  0  2  0  0  0  0  0  0  0  0  0
  -23.6744  -30.4308   23.2526 C   0  0  0  0  0  0  0  0  0  0  0  0
  -25.2785  -15.1404   20.5356 N   0  0  0  0  0  0  0  0  0  0  0  0
  -25.0912  -13.8098   20.5596 N   0  0  0  0  0  0  0  0  0  0  0  0
  -24.2682  -27.5438   21.2088 N   0  0  0  0  0  0  0  0  0  0  0  0
  -21.4711  -13.6267   21.7720 N   0  0  0  0  0  0  0  0  0  0  0  0
  -26.2314  -11.7389   20.4109 N   0  0  0  0  0  0  0  0  0  0  0  0
  -29.5395  -14.7830   19.9796 N   0  0  0  0  0  0  0  0  0  0  0  0
  -23.5414  -19.0495   26.5529 N   0  0  0  0  0  0  0  0  0  0  0  0
  -27.4313  -27.2737   19.4148 N   0  0  0  0  0  0  0  0  0  0  0  0
  -21.6063  -29.3296   22.2965 N   0  0  0  0  0  0  0  0  0  0  0  0
  -21.5792  -13.5093   24.1317 N   0  0  0  0  0  0  0  0  0  0  0  0
  -18.4293  -27.6070   22.2132 N   0  3  0  0  0  0  0  0  0  0  0  0
  -29.0680  -12.5392   20.0239 O   0  0  0  0  0  0  0  0  0  0  0  0
  -26.7794  -27.8545   21.5735 O   0  0  0  0  0  0  0  0  0  0  0  0
  -23.6909  -29.6351   20.3549 O   0  0  0  0  0  0  0  0  0  0  0  0
  -20.9009  -27.5138   23.5544 O   0  0  0  0  0  0  0  0  0  0  0  0
  -19.6896  -12.8301   23.0249 O   0  0  0  0  0  0  0  0  0  0  0  0
  -28.9492  -20.3220   20.0603 O   0  0  0  0  0  0  0  0  0  0  0  0
  -24.8099  -21.9425   23.7357 O   0  0  0  0  0  0  0  0  0  1  0  0
  -33.5732  -21.1700   22.9418 F   0  0  0  0  0  0  0  0  0  0  0  0
  -29.0643  -22.2730   22.0155 F   0  0  0  0  0  0  0  0  0  0  0  0
  1  2  1  0  0  0  0
  1  5  2  0  0  0  0
  2  6  2  0  0  0  0
  3 10  2  0  0  0  0
  3 18  1  0  0  0  0
  4 11  1  0  0  0  0
  4 18  2  0  0  0  0
  5 20  1  0  0  0  0
  6 22  1  0  0  0  0
  7 12  2  0  0  0  0
  7 21  1  0  0  0  0
  8  9  2  0  0  0  0
  8 24  1  0  0  0  0
  9 26  1  0  0  0  0
 10 27  1  0  0  0  0
 11 27  2  0  0  0  0
 12 28  1  0  0  0  0
 13 14  2  0  0  0  0
 13 29  1  0  0  0  0
 14 30  1  0  0  0  0
 15 23  1  0  0  0  0
 15 28  2  0  0  0  0
 16 25  1  0  0  0  0
 16 26  2  0  0  0  0
 17 30  2  0  0  0  0
 17 31  1  0  0  0  0
 18 32  1  0  0  0  0
 19 32  1  0  0  0  0
 19 33  2  0  0  0  0
 19 34  1  0  0  0  0
 20 22  2  0  0  0  0
 20 39  1  0  0  0  0
 21 23  2  0  0  0  0
 21 40  1  0  0  0  0
 22 48  1  0  0  0  0
 23 41  1  0  0  0  0
 24 25  2  0  0  0  0
 24 57  1  0  0  0  0
 25 51  1  0  0  0  0
 26 71  1  0  0  0  0
 27 81  1  0  0  0  0
 28 82  1  0  0  0  0
 29 31  2  0  0  0  0
 29 81  1  0  0  0  0
 30 83  1  0  0  0  0
 31 84  1  0  0  0  0
 32 65  2  0  0  0  0
 33 66  1  0  0  0  0
 33 69  1  0  0  0  0
 34 70  1  0  0  0  0
 34 76  2  0  0  0  0
 35 49  1  0  0  0  0
 35 72  1  0  0  0  0
 35 77  2  0  0  0  0
 36 62  1  0  0  0  0
 36 67  1  0  0  0  0
 36 78  2  0  0  0  0
 37 63  1  0  0  0  0
 37 73  1  0  0  0  0
 37 79  2  0  0  0  0
 38 68  1  0  0  0  0
 38 74  1  0  0  0  0
 38 80  2  0  0  0  0
 39 42  1  0  0  0  0
 40 49  1  0  0  0  0
 41 67  1  0  0  0  0
 42 44  1  0  0  0  0
 43 45  1  0  0  0  0
 43 46  1  0  0  0  0
 44 48  1  0  0  0  0
 45 50  1  0  0  0  0
 46 68  1  0  0  0  0
 47 50  1  0  0  0  0
 47 68  1  0  0  0  0
 48 72  1  0  0  0  0
 49 67  1  0  0  0  0
 50 66  1  0  0  0  0
 52 63  1  0  0  0  0
 53 64  1  0  0  0  0
 54 64  1  0  0  0  0
 55 64  1  0  0  0  0
 56 75  1  0  0  0  0
 57 59  1  0  0  0  0
 58 60  1  0  0  0  0
 58 61  1  0  0  0  0
 59 74  1  0  0  0  0
 60 71  1  0  0  0  0
 61 82  1  0  0  0  0
 62 64  1  0  0  0  0
 62 73  1  0  0  0  0
 63 75  1  0  0  0  0
 65 66  1  0  0  0  0
M  CHG  1  75   1
M  ISO  4  38 100  61 101  74 100  82 101
M  END
> <Batch ID>
0036

> <Smiles>
CNC(C)C(=O)NC(C(=O)N1Cc2cc([101O:1][101CH2:1]CCNc3ccc(CC[100NH:0][100C:0](=O)N4CCCC(n5nc(-c6ccc(Oc7ccc(F)cc7F)cc6)c(C(N)=O)c5N)C4)c(C)c3)ccc2CC1C(=O)NC1CCCc2ccccc21)C(C)(C)C

> <Shape>
0.246

> <Color>
0.071

> <Negative vol penalty>
0.000

$$$$

  -OEChem-04052316563D

 82 90  0     1  0  0  0  0  0999 V2000
  -21.2905  -32.9001   14.8788 C   0  0  0  0  0  0  0  0  0  0  0  0
  -21.4543  -31.5868   15.3076 C   0  0  0  0  0  0  0  0  0  0  0  0
  -24.4490   -9.8379   21.6156 C   0  0  0  0  0  0  0  0  0  0  0  0
  -24.7608  -11.0051   23.7078 C   0  0  0  0  0  0  0  0  0  0  0  0
  -22.2628  -33.8549   15.1737 C   0  0  0  0  0  0  0  0  0  0  0  0
  -22.5911  -31.2274   16.0308 C   0  0  0  0  0  0  0  0  0  0  0  0
  -22.9339  -27.0921   20.5350 C   0  0  0  0  0  0  0  0  0  0  0  0
  -24.0872   -8.6852   22.3126 C   0  0  0  0  0  0  0  0  0  0  0  0
  -24.3990   -9.8524   24.4048 C   0  0  0  0  0  0  0  0  0  0  0  0
  -23.3420  -25.7591   20.5555 C   0  0  0  0  0  0  0  0  0  0  0  0
  -21.3530   -7.4912   23.9036 C   0  0  0  0  0  0  0  0  0  0  0  0
  -20.2350   -6.7872   23.4562 C   0  0  0  0  0  0  0  0  0  0  0  0
  -25.5407  -26.4497   21.2684 C   0  0  0  0  0  0  0  0  0  0  0  0
  -21.6113   -4.8362   23.0870 C   0  0  0  0  0  0  0  0  0  0  0  0
  -25.5938  -21.3712   19.7240 C   0  0  0  0  0  0  0  0  0  0  0  0
  -24.7858  -10.9979   22.3132 C   0  0  0  0  0  0  0  0  0  0  0  0
  -24.3071  -13.2162   21.1480 C   0  0  0  0  0  0  0  0  0  0  0  0
  -23.4074  -33.5091   15.9092 C   0  0  0  0  0  0  0  0  0  0  0  0
  -23.8307  -28.1164   20.8711 C   0  0  0  0  0  0  0  0  0  0  0  0
  -23.5802  -32.1782   16.3347 C   0  0  0  0  0  0  0  0  0  0  0  0
  -25.1407  -27.7946   21.2539 C   0  0  0  0  0  0  0  0  0  0  0  0
  -24.0622   -8.6924   23.7072 C   0  0  0  0  0  0  0  0  0  0  0  0
  -24.6464  -25.4380   20.9195 C   0  0  0  0  0  0  0  0  0  0  0  0
  -22.6002   -6.8677   23.9425 C   0  0  0  0  0  0  0  0  0  0  0  0
  -20.3641   -5.4597   23.0480 C   0  0  0  0  0  0  0  0  0  0  0  0
  -22.7293   -5.5402   23.5343 C   0  0  0  0  0  0  0  0  0  0  0  0
  -25.1602  -12.1889   21.5938 C   0  0  0  0  0  0  0  0  0  0  0  0
  -26.1172  -20.1074   19.9063 C   0  0  0  0  0  0  0  0  0  0  0  0
  -24.7008  -21.7923   20.6881 C   0  0  0  0  0  0  0  0  0  0  0  0
  -25.1431  -14.1107   20.5254 C   0  0  0  0  0  0  0  0  0  0  0  0
  -24.9189  -19.8321   21.8182 C   0  0  0  0  0  0  0  0  0  0  0  0
  -22.8862  -13.3501   21.2846 C   0  0  0  0  0  0  0  0  0  0  0  0
  -25.0609  -30.6136   19.3368 C   0  0  0  0  0  0  0  0  0  0  0  0
  -26.3059  -31.2978   22.2530 C   0  0  0  0  0  0  0  0  0  0  0  0
  -27.2905  -30.1702   25.3199 C   0  0  0  0  0  0  0  0  0  0  0  0
  -29.8837  -17.0519   20.3795 C   0  0  0  0  0  0  0  0  0  0  0  0
  -24.4537  -34.5653   16.1630 C   0  0  0  0  0  0  0  0  0  0  0  0
  -23.3672  -29.5473   20.8698 C   0  0  0  0  0  0  0  0  0  0  0  0
  -26.1364  -28.8556   21.6431 C   0  0  0  0  0  0  0  0  0  0  0  0
  -25.4490  -34.1862   17.2565 C   0  0  0  0  0  0  0  0  0  0  0  0
  -30.0059  -13.6961   19.1960 C   0  0  0  0  0  0  0  0  0  0  0  0
  -25.9446  -32.7576   17.0555 C   0  0  0  0  0  0  0  0  0  0  0  0
  -28.6892  -13.0884   19.6828 C   0  0  0  0  0  0  0  0  0  0  0  0
  -30.5821  -14.6812   20.2108 C   0  0  0  0  0  0  0  0  0  0  0  0
  -28.3382  -15.1393   21.1213 C   0  0  0  0  0  0  0  0  0  0  0  0
  -24.7876  -31.7550   17.1428 C   0  0  1  0  0  0  0  0  0  0  0  0
  -24.5123  -30.5462   20.7340 C   0  0  1  0  0  0  0  0  0  0  0  0
  -27.6901  -14.1815   20.1069 C   0  0  2  0  0  0  0  0  0  0  0  0
  -24.5464  -18.9793   22.9834 C   0  0  0  0  0  0  0  0  0  0  0  0
  -28.3034  -30.9582   27.4764 C   0  0  0  0  0  0  0  0  0  0  0  0
  -29.0429  -31.4418   20.9121 C   0  0  0  0  0  0  0  0  0  0  0  0
  -30.0862  -31.2785   23.1822 C   0  0  0  0  0  0  0  0  0  0  0  0
  -28.6234  -33.2194   22.6205 C   0  0  0  0  0  0  0  0  0  0  0  0
  -24.9096  -29.3473   26.8733 C   0  0  0  0  0  0  0  0  0  0  0  0
  -27.0922  -19.5655   18.9154 C   0  0  0  0  0  0  0  0  0  0  0  0
  -24.0801  -23.1538   20.5764 C   0  0  0  0  0  0  0  0  0  1  0  0
  -28.5669  -19.8801   19.2345 C   0  0  0  0  0  0  0  0  0  0  0  0
  -29.0369  -19.3746   20.5968 C   0  0  0  0  0  0  0  0  0  0  0  0
  -27.5804  -30.9447   22.9810 C   0  0  1  0  0  0  0  0  0  0  0  0
  -27.0123  -30.6867   26.7200 C   0  0  2  0  0  0  0  0  0  0  0  0
  -28.8152  -31.7010   22.4148 C   0  0  0  0  0  0  0  0  0  0  0  0
  -26.4399  -12.4091   21.2808 N   0  0  0  0  0  0  0  0  0  0  0  0
  -25.8006  -19.3077   20.9458 N   0  0  0  0  0  0  0  0  0  0  0  0
  -24.3392  -21.0459   21.7523 N   0  0  0  0  0  0  0  0  0  0  0  0
  -26.3971  -13.5850   20.6316 N   0  0  0  0  0  0  0  0  0  0  0  0
  -25.6372  -30.2404   21.6201 N   0  0  0  0  0  0  0  0  0  0  0  0
  -29.5851  -15.6926   20.5697 N   0  0  0  0  0  0  0  0  0  0  0  0
  -24.9204  -15.2876   19.9028 N   0  0  0  0  0  0  0  0  0  0  0  0
  -22.1811  -12.3396   21.9526 N   0  0  0  0  0  0  0  0  0  0  0  0
  -24.4188  -31.5279   18.5237 N   0  0  0  0  0  0  0  0  0  0  0  0
  -27.3246  -31.1929   24.3957 N   0  0  0  0  0  0  0  0  0  0  0  0
  -28.8813  -17.9441   20.7396 N   0  0  0  0  0  0  0  0  0  0  0  0
  -26.2165  -29.6902   27.4911 N   0  3  0  0  0  0  0  0  0  0  0  0
  -22.2582  -14.3285   20.8135 O   0  0  0  0  0  0  0  0  0  0  0  0
  -25.9985  -29.8908   19.0203 O   0  0  0  0  0  0  0  0  0  0  0  0
  -25.9141  -32.4675   22.2522 O   0  0  0  0  0  0  0  0  0  0  0  0
  -27.4642  -28.9791   25.0716 O   0  0  0  0  0  0  0  0  0  0  0  0
  -30.9617  -17.4412   19.9175 O   0  0  0  0  0  0  0  0  0  0  0  0
  -23.7090   -7.5678   24.3877 O   0  0  0  0  0  0  0  0  0  0  0  0
  -25.0476  -24.1378   20.9397 O   0  0  0  0  0  0  0  0  0  1  0  0
  -19.2902   -4.7833   22.6199 F   0  0  0  0  0  0  0  0  0  0  0  0
  -23.9246   -4.9355   23.5706 F   0  0  0  0  0  0  0  0  0  0  0  0
  1  2  1  0  0  0  0
  1  5  2  0  0  0  0
  2  6  2  0  0  0  0
  3  8  2  0  0  0  0
  3 16  1  0  0  0  0
  4  9  1  0  0  0  0
  4 16  2  0  0  0  0
  5 18  1  0  0  0  0
  6 20  1  0  0  0  0
  7 10  2  0  0  0  0
  7 19  1  0  0  0  0
  8 22  1  0  0  0  0
  9 22  2  0  0  0  0
 10 23  1  0  0  0  0
 11 12  2  0  0  0  0
 11 24  1  0  0  0  0
 12 25  1  0  0  0  0
 13 21  1  0  0  0  0
 13 23  2  0  0  0  0
 14 25  2  0  0  0  0
 14 26  1  0  0  0  0
 15 28  2  0  0  0  0
 15 29  1  0  0  0  0
 16 27  1  0  0  0  0
 17 27  1  0  0  0  0
 17 30  2  0  0  0  0
 17 32  1  0  0  0  0
 18 20  2  0  0  0  0
 18 37  1  0  0  0  0
 19 21  2  0  0  0  0
 19 38  1  0  0  0  0
 20 46  1  0  0  0  0
 21 39  1  0  0  0  0
 22 79  1  0  0  0  0
 23 80  1  0  0  0  0
 24 26  2  0  0  0  0
 24 79  1  0  0  0  0
 25 81  1  0  0  0  0
 26 82  1  0  0  0  0
 27 62  2  0  0  0  0
 28 55  1  0  0  0  0
 28 63  1  0  0  0  0
 29 56  1  0  0  0  0
 29 64  2  0  0  0  0
 30 65  1  0  0  0  0
 30 68  1  0  0  0  0
 31 49  1  0  0  0  0
 31 63  2  0  0  0  0
 31 64  1  0  0  0  0
 32 69  1  0  0  0  0
 32 74  2  0  0  0  0
 33 47  1  0  0  0  0
 33 70  1  0  0  0  0
 33 75  2  0  0  0  0
 34 59  1  0  0  0  0
 34 66  1  0  0  0  0
 34 76  2  0  0  0  0
 35 60  1  0  0  0  0
 35 71  1  0  0  0  0
 35 77  2  0  0  0  0
 36 67  1  0  0  0  0
 36 72  1  0  0  0  0
 36 78  2  0  0  0  0
 37 40  1  0  0  0  0
 38 47  1  0  0  0  0
 39 66  1  0  0  0  0
 40 42  1  0  0  0  0
 41 43  1  0  0  0  0
 41 44  1  0  0  0  0
 42 46  1  0  0  0  0
 43 48  1  0  0  0  0
 44 67  1  0  0  0  0
 45 48  1  0  0  0  0
 45 67  1  0  0  0  0
 46 70  1  0  0  0  0
 47 66  1  0  0  0  0
 48 65  1  0  0  0  0
 50 60  1  0  0  0  0
 51 61  1  0  0  0  0
 52 61  1  0  0  0  0
 53 61  1  0  0  0  0
 54 73  1  0  0  0  0
 55 57  1  0  0  0  0
 56 80  1  0  0  0  0
 57 58  1  0  0  0  0
 58 72  1  0  0  0  0
 59 61  1  0  0  0  0
 59 71  1  0  0  0  0
 60 73  1  0  0  0  0
 62 65  1  0  0  0  0
M  CHG  1  73   1
M  ISO  4  36 100  56 101  72 100  80 101
M  END
> <Batch ID>
0036

> <Smiles>
CNC(C)C(=O)NC(C(=O)N1Cc2cc([101O:1][101CH2:1]c3cc(CCC[100NH:0][100C:0](=O)N4CCCC(n5nc(-c6ccc(Oc7ccc(F)cc7F)cc6)c(C(N)=O)c5N)C4)nc(C)n3)ccc2CC1C(=O)NC1CCCc2ccccc21)C(C)(C)C

> <Shape>
0.237

> <Color>
0.106

> <Negative vol penalty>
0.000

$$$$

  -OEChem-04052316563D

 85 93  0     1  0  0  0  0  0999 V2000
  -28.4224  -11.1296   21.5228 C   0  0  0  0  0  0  0  0  0  0  0  0
  -28.9088  -12.3922   21.1994 C   0  0  0  0  0  0  0  0  0  0  0  0
  -19.9083  -28.3106   23.7983 C   0  0  0  0  0  0  0  0  0  0  0  0
  -20.8663  -27.0992   21.9403 C   0  0  0  0  0  0  0  0  0  0  0  0
  -27.0834  -10.8188   21.2893 C   0  0  0  0  0  0  0  0  0  0  0  0
  -28.0568  -13.3445   20.6412 C   0  0  0  0  0  0  0  0  0  0  0  0
  -28.2001  -19.3986   21.5540 C   0  0  0  0  0  0  0  0  0  0  0  0
  -18.6311  -27.9251   23.3911 C   0  0  0  0  0  0  0  0  0  0  0  0
  -19.5891  -26.7137   21.5332 C   0  0  0  0  0  0  0  0  0  0  0  0
  -28.7365  -20.4472   20.8080 C   0  0  0  0  0  0  0  0  0  0  0  0
  -16.9823  -28.0871   19.8751 C   0  0  0  0  0  0  0  0  0  0  0  0
  -16.6768  -28.1878   18.5179 C   0  0  0  0  0  0  0  0  0  0  0  0
  -26.5757  -20.8325   19.8072 C   0  0  0  0  0  0  0  0  0  0  0  0
  -29.1978  -26.7425   17.9984 C   0  0  0  0  0  0  0  0  0  0  0  0
  -30.6901  -24.3898   18.1407 C   0  0  0  0  0  0  0  0  0  0  0  0
  -16.2518  -25.8108   18.4373 C   0  0  0  0  0  0  0  0  0  0  0  0
  -21.0259  -27.8977   23.0729 C   0  0  0  0  0  0  0  0  0  0  0  0
  -23.1986  -27.6113   24.3787 C   0  0  0  0  0  0  0  0  0  0  0  0
  -26.2122  -11.7709   20.7369 C   0  0  0  0  0  0  0  0  0  0  0  0
  -26.8477  -19.0514   21.4239 C   0  0  0  0  0  0  0  0  0  0  0  0
  -26.7052  -13.0457   20.3988 C   0  0  0  0  0  0  0  0  0  0  0  0
  -26.0240  -19.7807   20.5546 C   0  0  0  0  0  0  0  0  0  0  0  0
  -28.6787  -25.5551   17.4825 C   0  0  0  0  0  0  0  0  0  0  0  0
  -31.2093  -25.5772   18.6566 C   0  0  0  0  0  0  0  0  0  0  0  0
  -30.4632  -26.7536   18.5854 C   0  0  0  0  0  0  0  0  0  0  0  0
  -29.4248  -24.3787   17.5537 C   0  0  0  0  0  0  0  0  0  0  0  0
  -18.4715  -27.1267   22.2586 C   0  0  0  0  0  0  0  0  0  0  0  0
  -27.9249  -21.1624   19.9323 C   0  0  0  0  0  0  0  0  0  0  0  0
  -16.9226  -26.8483   20.5135 C   0  0  0  0  0  0  0  0  0  0  0  0
  -16.3115  -27.0496   17.7989 C   0  0  0  0  0  0  0  0  0  0  0  0
  -16.5573  -25.7101   19.7945 C   0  0  0  0  0  0  0  0  0  0  0  0
  -22.3455  -28.2961   23.4926 C   0  0  0  0  0  0  0  0  0  0  0  0
  -24.3241  -28.3955   24.4466 C   0  0  0  0  0  0  0  0  0  0  0  0
  -22.9921  -26.3767   25.0778 C   0  0  0  0  0  0  0  0  0  0  0  0
  -25.2798  -16.4538   20.4764 C   0  0  0  0  0  0  0  0  0  0  0  0
  -22.6848  -18.1420   21.4448 C   0  0  0  0  0  0  0  0  0  0  0  0
  -21.2810  -21.1874   22.0785 C   0  0  0  0  0  0  0  0  0  0  0  0
  -28.2545  -31.4921   21.9750 C   0  0  0  0  0  0  0  0  0  0  0  0
  -24.7842  -11.3733   20.4589 C   0  0  0  0  0  0  0  0  0  0  0  0
  -26.2783  -17.9349   22.2555 C   0  0  0  0  0  0  0  0  0  0  0  0
  -24.5610  -19.4609   20.3934 C   0  0  0  0  0  0  0  0  0  0  0  0
  -23.8583  -12.5614   20.2113 C   0  0  0  0  0  0  0  0  0  0  0  0
  -25.1723  -33.0899   22.7643 C   0  0  0  0  0  0  0  0  0  0  0  0
  -24.5020  -13.5467   19.2410 C   0  0  0  0  0  0  0  0  0  0  0  0
  -24.2314  -31.9288   23.0909 C   0  0  0  0  0  0  0  0  0  0  0  0
  -26.1379  -32.7337   21.6362 C   0  0  0  0  0  0  0  0  0  0  0  0
  -25.9704  -30.3351   22.1773 C   0  0  0  0  0  0  0  0  0  0  0  0
  -25.8062  -14.1137   19.8147 C   0  0  1  0  0  0  0  0  0  0  0  0
  -25.0070  -17.3360   21.6616 C   0  0  1  0  0  0  0  0  0  0  0  0
  -25.0149  -30.6273   23.3468 C   0  0  2  0  0  0  0  0  0  0  0  0
  -27.3215  -25.5674   16.8593 C   0  0  0  0  0  0  0  0  0  0  0  0
  -32.5665  -25.5649   19.2797 C   0  0  0  0  0  0  0  0  0  0  0  0
  -19.5623  -22.8430   22.8549 C   0  0  0  0  0  0  0  0  0  0  0  0
  -21.4870  -17.6459   18.6827 C   0  0  0  0  0  0  0  0  0  0  0  0
  -19.8408  -19.4748   19.1448 C   0  0  0  0  0  0  0  0  0  0  0  0
  -19.8671  -17.4318   20.5761 C   0  0  0  0  0  0  0  0  0  0  0  0
  -22.3385  -21.1644   24.8425 C   0  0  0  0  0  0  0  0  0  0  0  0
  -30.9986  -28.0370   19.1302 C   0  0  0  0  0  0  0  0  0  0  0  0
  -28.8837  -23.0818   17.0029 C   0  0  0  0  0  0  0  0  0  0  0  0
  -30.3731  -28.3969   20.4860 C   0  0  0  0  0  0  0  0  0  0  0  0
  -30.9029  -29.7326   21.0160 C   0  0  0  0  0  0  0  0  0  0  0  0
  -30.2857  -30.1180   22.3564 C   0  0  0  0  0  0  0  0  0  0  0  0
  -27.8549  -22.4428   17.9293 C   0  0  0  0  0  0  0  0  0  1  0  0
  -21.7387  -19.1183   20.7886 C   0  0  1  0  0  0  0  0  0  0  0  0
  -20.4807  -21.7011   23.2617 C   0  0  2  0  0  0  0  0  0  0  0  0
  -20.7614  -18.4227   19.7994 C   0  0  0  0  0  0  0  0  0  0  0  0
  -22.8830  -29.4283   23.0309 N   0  0  0  0  0  0  0  0  0  0  0  0
  -24.0859  -29.4610   23.6292 N   0  0  0  0  0  0  0  0  0  0  0  0
  -24.0526  -18.3565   21.2237 N   0  0  0  0  0  0  0  0  0  0  0  0
  -26.8503  -31.4906   21.9417 N   0  0  0  0  0  0  0  0  0  0  0  0
  -25.4844  -28.2708   25.1252 N   0  0  0  0  0  0  0  0  0  0  0  0
  -21.7786  -25.6999   24.8944 N   0  0  0  0  0  0  0  0  0  0  0  0
  -25.5229  -15.1331   20.8021 N   0  0  0  0  0  0  0  0  0  0  0  0
  -21.0794  -19.8390   21.8723 N   0  0  0  0  0  0  0  0  0  0  0  0
  -28.8503  -30.2740   22.2785 N   0  0  0  0  0  0  0  0  0  0  0  0
  -21.3948  -22.1916   24.3316 N   0  3  0  0  0  0  0  0  0  0  0  0
  -23.8515  -25.8965   25.8552 O   0  0  0  0  0  0  0  0  0  0  0  0
  -25.2690  -16.9353   19.3495 O   0  0  0  0  0  0  0  0  0  0  0  0
  -22.2274  -17.2271   22.1343 O   0  0  0  0  0  0  0  0  0  0  0  0
  -22.0090  -21.9108   21.4023 O   0  0  0  0  0  0  0  0  0  0  0  0
  -28.9274  -32.5051   21.7561 O   0  0  0  0  0  0  0  0  0  0  0  0
  -17.2254  -26.7501   21.8612 O   0  0  0  0  0  0  0  0  0  0  0  0
  -28.4461  -22.1860   19.2025 O   0  0  0  0  0  0  0  0  0  1  0  0
  -16.0167  -27.1467   16.4959 F   0  0  0  0  0  0  0  0  0  0  0  0
  -16.4970  -24.5175   20.4026 F   0  0  0  0  0  0  0  0  0  0  0  0
  1  2  1  0  0  0  0
  1  5  2  0  0  0  0
  2  6  2  0  0  0  0
  3  8  2  0  0  0  0
  3 17  1  0  0  0  0
  4  9  1  0  0  0  0
  4 17  2  0  0  0  0
  5 19  1  0  0  0  0
  6 21  1  0  0  0  0
  7 10  2  0  0  0  0
  7 20  1  0  0  0  0
  8 27  1  0  0  0  0
  9 27  2  0  0  0  0
 10 28  1  0  0  0  0
 11 12  2  0  0  0  0
 11 29  1  0  0  0  0
 12 30  1  0  0  0  0
 13 22  1  0  0  0  0
 13 28  2  0  0  0  0
 14 23  1  0  0  0  0
 14 25  2  0  0  0  0
 15 24  2  0  0  0  0
 15 26  1  0  0  0  0
 16 30  2  0  0  0  0
 16 31  1  0  0  0  0
 17 32  1  0  0  0  0
 18 32  1  0  0  0  0
 18 33  2  0  0  0  0
 18 34  1  0  0  0  0
 19 21  2  0  0  0  0
 19 39  1  0  0  0  0
 20 22  2  0  0  0  0
 20 40  1  0  0  0  0
 21 48  1  0  0  0  0
 22 41  1  0  0  0  0
 23 26  2  0  0  0  0
 23 51  1  0  0  0  0
 24 25  1  0  0  0  0
 24 52  1  0  0  0  0
 25 58  1  0  0  0  0
 26 59  1  0  0  0  0
 27 82  1  0  0  0  0
 28 83  1  0  0  0  0
 29 31  2  0  0  0  0
 29 82  1  0  0  0  0
 30 84  1  0  0  0  0
 31 85  1  0  0  0  0
 32 67  2  0  0  0  0
 33 68  1  0  0  0  0
 33 71  1  0  0  0  0
 34 72  1  0  0  0  0
 34 77  2  0  0  0  0
 35 49  1  0  0  0  0
 35 73  1  0  0  0  0
 35 78  2  0  0  0  0
 36 64  1  0  0  0  0
 36 69  1  0  0  0  0
 36 79  2  0  0  0  0
 37 65  1  0  0  0  0
 37 74  1  0  0  0  0
 37 80  2  0  0  0  0
 38 70  1  0  0  0  0
 38 75  1  0  0  0  0
 38 81  2  0  0  0  0
 39 42  1  0  0  0  0
 40 49  1  0  0  0  0
 41 69  1  0  0  0  0
 42 44  1  0  0  0  0
 43 45  1  0  0  0  0
 43 46  1  0  0  0  0
 44 48  1  0  0  0  0
 45 50  1  0  0  0  0
 46 70  1  0  0  0  0
 47 50  1  0  0  0  0
 47 70  1  0  0  0  0
 48 73  1  0  0  0  0
 49 69  1  0  0  0  0
 50 68  1  0  0  0  0
 53 65  1  0  0  0  0
 54 66  1  0  0  0  0
 55 66  1  0  0  0  0
 56 66  1  0  0  0  0
 57 76  1  0  0  0  0
 58 60  1  0  0  0  0
 59 63  1  0  0  0  0
 60 61  1  0  0  0  0
 61 62  1  0  0  0  0
 62 75  1  0  0  0  0
 63 83  1  0  0  0  0
 64 66  1  0  0  0  0
 64 74  1  0  0  0  0
 65 76  1  0  0  0  0
 67 68  1  0  0  0  0
M  CHG  1  76   1
M  ISO  4  38 100  63 101  75 100  83 101
M  END
> <Batch ID>
0036

> <Smiles>
CNC(C)C(=O)NC(C(=O)N1Cc2cc([101O:1][101CH2:1]Cc3cc(C)c(CCCC[100NH:0][100C:0](=O)N4CCCC(n5nc(-c6ccc(Oc7ccc(F)cc7F)cc6)c(C(N)=O)c5N)C4)cc3C)ccc2CC1C(=O)NC1CCCc2ccccc21)C(C)(C)C

> <Shape>
0.215

> <Color>
0.065

> <Negative vol penalty>
0.000

$$$$

  -OEChem-04052316563D

 80 88  0     1  0  0  0  0  0999 V2000
  -25.8546  -19.3608   24.7876 C   0  0  0  0  0  0  0  0  0  0  0  0
  -26.2277  -20.2574   23.7915 C   0  0  0  0  0  0  0  0  0  0  0  0
  -25.8805  -14.9311   21.8412 C   0  0  0  0  0  0  0  0  0  0  0  0
  -25.7192  -15.5656   19.5156 C   0  0  0  0  0  0  0  0  0  0  0  0
  -24.6548  -19.5429   25.4741 C   0  0  0  0  0  0  0  0  0  0  0  0
  -25.4005  -21.3361   23.4805 C   0  0  0  0  0  0  0  0  0  0  0  0
  -27.9699  -25.6697   22.9671 C   0  0  0  0  0  0  0  0  0  0  0  0
  -24.5137  -14.6535   21.8603 C   0  0  0  0  0  0  0  0  0  0  0  0
  -24.3524  -15.2879   19.5347 C   0  0  0  0  0  0  0  0  0  0  0  0
  -28.6597  -25.8631   21.7710 C   0  0  0  0  0  0  0  0  0  0  0  0
  -21.1357  -13.4337   22.4228 C   0  0  0  0  0  0  0  0  0  0  0  0
  -20.7226  -12.2516   23.0372 C   0  0  0  0  0  0  0  0  0  0  0  0
  -26.8656  -27.2624   20.9697 C   0  0  0  0  0  0  0  0  0  0  0  0
  -22.0502  -10.9749   21.4738 C   0  0  0  0  0  0  0  0  0  0  0  0
  -28.7466  -23.0576   17.1188 C   0  0  0  0  0  0  0  0  0  0  0  0
  -26.4833  -15.3872   20.6689 C   0  0  0  0  0  0  0  0  0  0  0  0
  -28.9394  -14.7849   20.3333 C   0  0  0  0  0  0  0  0  0  0  0  0
  -23.8172  -20.6298   25.1780 C   0  0  0  0  0  0  0  0  0  0  0  0
  -26.7157  -26.2634   23.1695 C   0  0  0  0  0  0  0  0  0  0  0  0
  -24.1877  -21.5321   24.1627 C   0  0  0  0  0  0  0  0  0  0  0  0
  -26.1631  -27.0771   22.1702 C   0  0  0  0  0  0  0  0  0  0  0  0
  -30.1035  -23.2025   17.4648 C   0  0  0  0  0  0  0  0  0  0  0  0
  -23.7497  -14.8319   20.7071 C   0  0  0  0  0  0  0  0  0  0  0  0
  -28.1063  -26.6572   20.7710 C   0  0  0  0  0  0  0  0  0  0  0  0
  -22.0061  -13.3864   21.3337 C   0  0  0  0  0  0  0  0  0  0  0  0
  -21.1798  -11.0222   22.5628 C   0  0  0  0  0  0  0  0  0  0  0  0
  -22.4633  -12.1570   20.8593 C   0  0  0  0  0  0  0  0  0  0  0  0
  -27.8950  -15.6747   20.6487 C   0  0  0  0  0  0  0  0  0  0  0  0
  -30.2948  -24.5603   17.5430 C   0  0  0  0  0  0  0  0  0  0  0  0
  -30.0814  -15.5376   20.4586 C   0  0  0  0  0  0  0  0  0  0  0  0
  -28.8822  -13.4017   19.9604 C   0  0  0  0  0  0  0  0  0  0  0  0
  -23.7751  -25.1731   23.6869 C   0  0  0  0  0  0  0  0  0  0  0  0
  -23.0998  -28.3196   24.0938 C   0  0  0  0  0  0  0  0  0  0  0  0
  -23.9284  -31.5673   23.4516 C   0  0  0  0  0  0  0  0  0  0  0  0
  -31.1544  -21.4151   20.0656 C   0  0  0  0  0  0  0  0  0  0  0  0
  -22.5073  -20.7585   25.9145 C   0  0  0  0  0  0  0  0  0  0  0  0
  -25.9966  -26.0667   24.4758 C   0  0  0  0  0  0  0  0  0  0  0  0
  -24.8289  -27.7534   22.3460 C   0  0  0  0  0  0  0  0  0  0  0  0
  -21.8673  -22.1381   25.7824 C   0  0  0  0  0  0  0  0  0  0  0  0
  -31.8485  -19.2929   22.8389 C   0  0  0  0  0  0  0  0  0  0  0  0
  -21.8906  -22.6004   24.3289 C   0  0  0  0  0  0  0  0  0  0  0  0
  -31.0082  -18.0447   22.5636 C   0  0  0  0  0  0  0  0  0  0  0  0
  -31.1319  -20.5654   22.3924 C   0  0  0  0  0  0  0  0  0  0  0  0
  -29.8335  -19.3104   20.7152 C   0  0  0  0  0  0  0  0  0  0  0  0
  -23.3292  -22.7285   23.8137 C   0  0  1  0  0  0  0  0  0  0  0  0
  -24.4929  -26.3017   24.3714 C   0  0  1  0  0  0  0  0  0  0  0  0
  -30.5380  -17.9975   21.0973 C   0  0  2  0  0  0  0  0  0  0  0  0
  -31.4939  -25.3579   17.8626 C   0  0  0  0  0  0  0  0  0  0  0  0
  -23.1659  -33.9180   23.8874 C   0  0  0  0  0  0  0  0  0  0  0  0
  -20.8910  -27.9858   22.0154 C   0  0  0  0  0  0  0  0  0  0  0  0
  -20.8150  -30.4788   21.7977 C   0  0  0  0  0  0  0  0  0  0  0  0
  -20.2689  -29.4020   23.9806 C   0  0  0  0  0  0  0  0  0  0  0  0
  -26.4348  -32.2400   24.8745 C   0  0  0  0  0  0  0  0  0  0  0  0
  -31.0912  -22.1343   17.6911 C   0  0  0  0  0  0  0  0  0  0  0  0
  -28.7631  -26.5974   17.2004 C   0  0  0  0  0  0  0  0  0  0  0  0
  -27.9920  -27.0636   18.4305 C   0  0  0  0  0  0  0  0  0  1  0  0
  -22.6688  -29.4466   23.1866 C   0  0  1  0  0  0  0  0  0  0  0  0
  -24.0492  -32.7752   24.3631 C   0  0  2  0  0  0  0  0  0  0  0  0
  -21.1852  -29.3141   22.7407 C   0  0  0  0  0  0  0  0  0  0  0  0
  -28.1202  -24.2298   16.9864 N   0  0  0  0  0  0  0  0  0  0  0  0
  -28.3346  -16.8990   20.9517 N   0  0  0  0  0  0  0  0  0  0  0  0
  -29.0878  -25.1242   17.2507 N   0  0  0  0  0  0  0  0  0  0  0  0
  -29.6678  -16.7839   20.8274 N   0  0  0  0  0  0  0  0  0  0  0  0
  -24.1616  -27.5253   23.6384 N   0  0  0  0  0  0  0  0  0  0  0  0
  -30.7135  -20.4564   20.9927 N   0  0  0  0  0  0  0  0  0  0  0  0
  -31.3889  -15.2484   20.2882 N   0  0  0  0  0  0  0  0  0  0  0  0
  -27.6273  -12.7828   19.8793 N   0  0  0  0  0  0  0  0  0  0  0  0
  -23.9353  -23.9475   24.3048 N   0  0  0  0  0  0  0  0  0  0  0  0
  -22.9702  -30.6829   23.9000 N   0  0  0  0  0  0  0  0  0  0  0  0
  -30.7169  -21.2343   18.7592 N   0  0  0  0  0  0  0  0  0  0  0  0
  -25.4593  -33.2559   24.4018 N   0  3  0  0  0  0  0  0  0  0  0  0
  -29.9145  -12.7299   19.7225 O   0  0  0  0  0  0  0  0  0  0  0  0
  -23.1230  -25.3977   22.6740 O   0  0  0  0  0  0  0  0  0  0  0  0
  -22.5204  -28.1546   25.1703 O   0  0  0  0  0  0  0  0  0  0  0  0
  -24.6128  -31.4245   22.4408 O   0  0  0  0  0  0  0  0  0  0  0  0
  -31.8883  -22.3590   20.3778 O   0  0  0  0  0  0  0  0  0  0  0  0
  -22.4160  -14.5609   20.7252 O   0  0  0  0  0  0  0  0  0  0  0  0
  -28.7771  -26.8471   19.6023 O   0  0  0  0  0  0  0  0  0  1  0  0
  -20.7842   -9.8872   23.1539 F   0  0  0  0  0  0  0  0  0  0  0  0
  -23.3005  -12.1052   19.8142 F   0  0  0  0  0  0  0  0  0  0  0  0
  1  2  1  0  0  0  0
  1  5  2  0  0  0  0
  2  6  2  0  0  0  0
  3  8  2  0  0  0  0
  3 16  1  0  0  0  0
  4  9  1  0  0  0  0
  4 16  2  0  0  0  0
  5 18  1  0  0  0  0
  6 20  1  0  0  0  0
  7 10  2  0  0  0  0
  7 19  1  0  0  0  0
  8 23  1  0  0  0  0
  9 23  2  0  0  0  0
 10 24  1  0  0  0  0
 11 12  2  0  0  0  0
 11 25  1  0  0  0  0
 12 26  1  0  0  0  0
 13 21  1  0  0  0  0
 13 24  2  0  0  0  0
 14 26  2  0  0  0  0
 14 27  1  0  0  0  0
 15 22  1  0  0  0  0
 15 60  2  0  0  0  0
 16 28  1  0  0  0  0
 17 28  1  0  0  0  0
 17 30  2  0  0  0  0
 17 31  1  0  0  0  0
 18 20  2  0  0  0  0
 18 36  1  0  0  0  0
 19 21  2  0  0  0  0
 19 37  1  0  0  0  0
 20 45  1  0  0  0  0
 21 38  1  0  0  0  0
 22 29  2  0  0  0  0
 22 54  1  0  0  0  0
 23 77  1  0  0  0  0
 24 78  1  0  0  0  0
 25 27  2  0  0  0  0
 25 77  1  0  0  0  0
 26 79  1  0  0  0  0
 27 80  1  0  0  0  0
 28 61  2  0  0  0  0
 29 48  1  0  0  0  0
 29 62  1  0  0  0  0
 30 63  1  0  0  0  0
 30 66  1  0  0  0  0
 31 67  1  0  0  0  0
 31 72  2  0  0  0  0
 32 46  1  0  0  0  0
 32 68  1  0  0  0  0
 32 73  2  0  0  0  0
 33 57  1  0  0  0  0
 33 64  1  0  0  0  0
 33 74  2  0  0  0  0
 34 58  1  0  0  0  0
 34 69  1  0  0  0  0
 34 75  2  0  0  0  0
 35 65  1  0  0  0  0
 35 70  1  0  0  0  0
 35 76  2  0  0  0  0
 36 39  1  0  0  0  0
 37 46  1  0  0  0  0
 38 64  1  0  0  0  0
 39 41  1  0  0  0  0
 40 42  1  0  0  0  0
 40 43  1  0  0  0  0
 41 45  1  0  0  0  0
 42 47  1  0  0  0  0
 43 65  1  0  0  0  0
 44 47  1  0  0  0  0
 44 65  1  0  0  0  0
 45 68  1  0  0  0  0
 46 64  1  0  0  0  0
 47 63  1  0  0  0  0
 49 58  1  0  0  0  0
 50 59  1  0  0  0  0
 51 59  1  0  0  0  0
 52 59  1  0  0  0  0
 53 71  1  0  0  0  0
 54 70  1  0  0  0  0
 55 56  1  0  0  0  0
 55 62  1  0  0  0  0
 56 78  1  0  0  0  0
 57 59  1  0  0  0  0
 57 69  1  0  0  0  0
 58 71  1  0  0  0  0
 60 62  1  0  0  0  0
 61 63  1  0  0  0  0
M  CHG  1  71   1
M  ISO  4  35 100  56 101  70 100  78 101
M  END
> <Batch ID>
0036

> <Smiles>
CNC(C)C(=O)NC(C(=O)N1Cc2cc([101O:1][101CH2:1]Cn3ncc(C[100NH:0][100C:0](=O)N4CCCC(n5nc(-c6ccc(Oc7ccc(F)cc7F)cc6)c(C(N)=O)c5N)C4)c3C)ccc2CC1C(=O)NC1CCCc2ccccc21)C(C)(C)C

> <Shape>
0.230

> <Color>
0.058

> <Negative vol penalty>
0.000

$$$$

  -OEChem-04052316563D

 84 92  0     1  0  0  0  0  0999 V2000
  -28.1362   -8.4266   30.4565 C   0  0  0  0  0  0  0  0  0  0  0  0
  -28.9540   -9.4945   30.1013 C   0  0  0  0  0  0  0  0  0  0  0  0
  -23.2887   -9.7995   19.9128 C   0  0  0  0  0  0  0  0  0  0  0  0
  -23.7395   -9.9399   22.2822 C   0  0  0  0  0  0  0  0  0  0  0  0
  -26.7620   -8.4976   30.2316 C   0  0  0  0  0  0  0  0  0  0  0  0
  -28.3983  -10.6336   29.5199 C   0  0  0  0  0  0  0  0  0  0  0  0
  -30.2367  -16.4256   30.2805 C   0  0  0  0  0  0  0  0  0  0  0  0
  -22.5625   -8.6268   20.1204 C   0  0  0  0  0  0  0  0  0  0  0  0
  -23.0132   -8.7672   22.4899 C   0  0  0  0  0  0  0  0  0  0  0  0
  -31.0394  -17.2640   29.5081 C   0  0  0  0  0  0  0  0  0  0  0  0
  -20.9745   -6.0067   23.6904 C   0  0  0  0  0  0  0  0  0  0  0  0
  -20.0729   -5.9812   24.7544 C   0  0  0  0  0  0  0  0  0  0  0  0
  -29.0652  -18.2147   28.4991 C   0  0  0  0  0  0  0  0  0  0  0  0
  -32.8230  -15.3334   23.6777 C   0  0  0  0  0  0  0  0  0  0  0  0
  -30.7894  -16.5704   25.1326 C   0  0  0  0  0  0  0  0  0  0  0  0
  -18.8632   -7.8282   23.7735 C   0  0  0  0  0  0  0  0  0  0  0  0
  -23.8773  -10.4560   20.9937 C   0  0  0  0  0  0  0  0  0  0  0  0
  -24.1363  -12.9860   20.7954 C   0  0  0  0  0  0  0  0  0  0  0  0
  -26.1879   -9.6420   29.6559 C   0  0  0  0  0  0  0  0  0  0  0  0
  -28.8403  -16.4678   30.1598 C   0  0  0  0  0  0  0  0  0  0  0  0
  -27.0153  -10.7194   29.2858 C   0  0  0  0  0  0  0  0  0  0  0  0
  -28.2470  -17.3775   29.2729 C   0  0  0  0  0  0  0  0  0  0  0  0
  -31.7225  -14.5918   24.1072 C   0  0  0  0  0  0  0  0  0  0  0  0
  -31.8900  -17.3120   24.7031 C   0  0  0  0  0  0  0  0  0  0  0  0
  -22.4247   -8.1107   21.4089 C   0  0  0  0  0  0  0  0  0  0  0  0
  -30.4538  -18.1567   28.6152 C   0  0  0  0  0  0  0  0  0  0  0  0
  -20.8205   -6.9430   22.6680 C   0  0  0  0  0  0  0  0  0  0  0  0
  -32.9068  -16.6935   23.9757 C   0  0  0  0  0  0  0  0  0  0  0  0
  -19.0172   -6.8919   24.7959 C   0  0  0  0  0  0  0  0  0  0  0  0
  -19.7648   -7.8538   22.7096 C   0  0  0  0  0  0  0  0  0  0  0  0
  -30.7057  -15.2103   24.8346 C   0  0  0  0  0  0  0  0  0  0  0  0
  -24.6281  -11.6670   20.7798 C   0  0  0  0  0  0  0  0  0  0  0  0
  -25.2377  -13.7661   20.5405 C   0  0  0  0  0  0  0  0  0  0  0  0
  -22.8032  -13.4634   21.0202 C   0  0  0  0  0  0  0  0  0  0  0  0
  -26.6011  -14.3910   29.2786 C   0  0  0  0  0  0  0  0  0  0  0  0
  -24.5894  -16.7608   30.2058 C   0  0  0  0  0  0  0  0  0  0  0  0
  -24.0986  -20.0917   30.7636 C   0  0  0  0  0  0  0  0  0  0  0  0
  -31.1088  -12.9237   21.3599 C   0  0  0  0  0  0  0  0  0  0  0  0
  -24.7036   -9.6534   29.3888 C   0  0  0  0  0  0  0  0  0  0  0  0
  -27.9874  -15.5756   31.0195 C   0  0  0  0  0  0  0  0  0  0  0  0
  -26.7518  -17.4763   29.1207 C   0  0  0  0  0  0  0  0  0  0  0  0
  -24.1452  -11.0469   29.1120 C   0  0  0  0  0  0  0  0  0  0  0  0
  -29.4598  -13.6633   18.2923 C   0  0  0  0  0  0  0  0  0  0  0  0
  -25.0316  -11.7892   28.1169 C   0  0  0  0  0  0  0  0  0  0  0  0
  -27.9901  -13.3545   18.5833 C   0  0  0  0  0  0  0  0  0  0  0  0
  -30.3932  -12.6839   19.0005 C   0  0  0  0  0  0  0  0  0  0  0  0
  -28.7067  -12.2541   20.7454 C   0  0  0  0  0  0  0  0  0  0  0  0
  -26.4467  -11.9820   28.6755 C   0  0  1  0  0  0  0  0  0  0  0  0
  -26.5950  -15.3425   30.4415 C   0  0  1  0  0  0  0  0  0  0  0  0
  -27.7286  -13.2493   20.0979 C   0  0  2  0  0  0  0  0  0  0  0  0
  -22.3387  -21.7305   31.4810 C   0  0  0  0  0  0  0  0  0  0  0  0
  -23.2799  -16.5538   27.4577 C   0  0  0  0  0  0  0  0  0  0  0  0
  -22.2147  -18.7809   27.8746 C   0  0  0  0  0  0  0  0  0  0  0  0
  -21.6791  -16.8471   29.3566 C   0  0  0  0  0  0  0  0  0  0  0  0
  -25.6794  -20.9352   33.1191 C   0  0  0  0  0  0  0  0  0  0  0  0
  -34.9807  -16.6915   22.8116 C   0  0  0  0  0  0  0  0  0  0  0  0
  -31.9639  -18.7813   25.0336 C   0  0  0  0  0  0  0  0  0  0  0  0
  -31.6707  -13.1372   23.7678 C   0  0  0  0  0  0  0  0  0  0  0  0
  -32.9340  -19.1088   26.1708 C   0  0  0  0  0  0  0  0  0  0  0  0
  -32.5301  -18.4926   27.5052 C   0  0  0  0  0  0  0  0  0  1  0  0
  -23.9493  -17.9469   29.5258 C   0  0  1  0  0  0  0  0  0  0  0  0
  -23.4829  -20.8370   31.9341 C   0  0  2  0  0  0  0  0  0  0  0  0
  -22.8090  -17.5292   28.5549 C   0  0  0  0  0  0  0  0  0  0  0  0
  -25.9397  -11.6086   20.5342 N   0  0  0  0  0  0  0  0  0  0  0  0
  -26.2814  -12.9006   20.3931 N   0  0  0  0  0  0  0  0  0  0  0  0
  -25.9609  -16.5785   29.9786 N   0  0  0  0  0  0  0  0  0  0  0  0
  -30.0939  -12.6323   20.4336 N   0  0  0  0  0  0  0  0  0  0  0  0
  -25.4055  -15.1010   20.4302 N   0  0  0  0  0  0  0  0  0  0  0  0
  -21.7908  -12.5264   21.2676 N   0  0  0  0  0  0  0  0  0  0  0  0
  -26.4674  -13.0633   29.6373 N   0  0  0  0  0  0  0  0  0  0  0  0
  -23.5263  -18.8491   30.5914 N   0  0  0  0  0  0  0  0  0  0  0  0
  -30.7392  -12.8580   22.6977 N   0  0  0  0  0  0  0  0  0  0  0  0
  -24.5073  -21.6880   32.6029 N   0  3  0  0  0  0  0  0  0  0  0  0
  -22.5152  -14.6838   20.9861 O   0  0  0  0  0  0  0  0  0  0  0  0
  -26.7169  -14.8292   28.1401 O   0  0  0  0  0  0  0  0  0  0  0  0
  -23.8995  -16.0273   30.9183 O   0  0  0  0  0  0  0  0  0  0  0  0
  -24.9948  -20.5660   30.0691 O   0  0  0  0  0  0  0  0  0  0  0  0
  -32.2578  -13.2257   21.0198 O   0  0  0  0  0  0  0  0  0  0  0  0
  -21.7160   -6.9666   21.6119 O   0  0  0  0  0  0  0  0  0  0  0  0
  -33.9887  -17.4032   23.5487 O   0  0  0  0  0  0  0  0  0  0  0  0
  -31.2350  -18.9757   27.8597 O   0  0  0  0  0  0  0  0  0  1  0  0
  -18.1506   -6.8663   25.8170 F   0  0  0  0  0  0  0  0  0  0  0  0
  -19.6110   -8.7549   21.7297 F   0  0  0  0  0  0  0  0  0  0  0  0
  -29.3290  -14.3246   25.3819 Cl  0  0  0  0  0  0  0  0  0  0  0  0
  1  2  1  0  0  0  0
  1  5  2  0  0  0  0
  2  6  2  0  0  0  0
  3  8  2  0  0  0  0
  3 17  1  0  0  0  0
  4  9  1  0  0  0  0
  4 17  2  0  0  0  0
  5 19  1  0  0  0  0
  6 21  1  0  0  0  0
  7 10  2  0  0  0  0
  7 20  1  0  0  0  0
  8 25  1  0  0  0  0
  9 25  2  0  0  0  0
 10 26  1  0  0  0  0
 11 12  2  0  0  0  0
 11 27  1  0  0  0  0
 12 29  1  0  0  0  0
 13 22  1  0  0  0  0
 13 26  2  0  0  0  0
 14 23  2  0  0  0  0
 14 28  1  0  0  0  0
 15 24  1  0  0  0  0
 15 31  2  0  0  0  0
 16 29  2  0  0  0  0
 16 30  1  0  0  0  0
 17 32  1  0  0  0  0
 18 32  1  0  0  0  0
 18 33  2  0  0  0  0
 18 34  1  0  0  0  0
 19 21  2  0  0  0  0
 19 39  1  0  0  0  0
 20 22  2  0  0  0  0
 20 40  1  0  0  0  0
 21 48  1  0  0  0  0
 22 41  1  0  0  0  0
 23 31  1  0  0  0  0
 23 58  1  0  0  0  0
 24 28  2  0  0  0  0
 24 57  1  0  0  0  0
 25 79  1  0  0  0  0
 26 81  1  0  0  0  0
 27 30  2  0  0  0  0
 27 79  1  0  0  0  0
 28 80  1  0  0  0  0
 29 82  1  0  0  0  0
 30 83  1  0  0  0  0
 31 84  1  0  0  0  0
 32 64  2  0  0  0  0
 33 65  1  0  0  0  0
 33 68  1  0  0  0  0
 34 69  1  0  0  0  0
 34 74  2  0  0  0  0
 35 49  1  0  0  0  0
 35 70  1  0  0  0  0
 35 75  2  0  0  0  0
 36 61  1  0  0  0  0
 36 66  1  0  0  0  0
 36 76  2  0  0  0  0
 37 62  1  0  0  0  0
 37 71  1  0  0  0  0
 37 77  2  0  0  0  0
 38 67  1  0  0  0  0
 38 72  1  0  0  0  0
 38 78  2  0  0  0  0
 39 42  1  0  0  0  0
 40 49  1  0  0  0  0
 41 66  1  0  0  0  0
 42 44  1  0  0  0  0
 43 45  1  0  0  0  0
 43 46  1  0  0  0  0
 44 48  1  0  0  0  0
 45 50  1  0  0  0  0
 46 67  1  0  0  0  0
 47 50  1  0  0  0  0
 47 67  1  0  0  0  0
 48 70  1  0  0  0  0
 49 66  1  0  0  0  0
 50 65  1  0  0  0  0
 51 62  1  0  0  0  0
 52 63  1  0  0  0  0
 53 63  1  0  0  0  0
 54 63  1  0  0  0  0
 55 73  1  0  0  0  0
 56 80  1  0  0  0  0
 57 59  1  0  0  0  0
 58 72  1  0  0  0  0
 59 60  1  0  0  0  0
 60 81  1  0  0  0  0
 61 63  1  0  0  0  0
 61 71  1  0  0  0  0
 62 73  1  0  0  0  0
 64 65  1  0  0  0  0
M  CHG  1  73   1
M  ISO  4  38 100  60 101  72 100  81 101
M  END
> <Batch ID>
0036

> <Smiles>
CNC(C)C(=O)NC(C(=O)N1Cc2cc([101O:1][101CH2:1]CCc3cc(Cl)c(C[100NH:0][100C:0](=O)N4CCCC(n5nc(-c6ccc(Oc7ccc(F)cc7F)cc6)c(C(N)=O)c5N)C4)cc3OC)ccc2CC1C(=O)NC1CCCc2ccccc21)C(C)(C)C

> <Shape>
0.130

> <Color>
0.178

> <Negative vol penalty>
0.000

$$$$

  -OEChem-04052316563D

 86 94  0     1  0  0  0  0  0999 V2000
  -26.7029  -37.8865   22.8513 C   0  0  0  0  0  0  0  0  0  0  0  0
  -27.4535  -36.7986   22.4168 C   0  0  0  0  0  0  0  0  0  0  0  0
  -23.7482   -9.9483   22.0433 C   0  0  0  0  0  0  0  0  0  0  0  0
  -24.3433  -11.3148   23.9448 C   0  0  0  0  0  0  0  0  0  0  0  0
  -25.5229  -37.6777   23.5639 C   0  0  0  0  0  0  0  0  0  0  0  0
  -27.0249  -35.5014   22.6957 C   0  0  0  0  0  0  0  0  0  0  0  0
  -27.0602  -28.8940   19.9283 C   0  0  0  0  0  0  0  0  0  0  0  0
  -23.2126   -8.9877   22.9011 C   0  0  0  0  0  0  0  0  0  0  0  0
  -23.8077  -10.3541   24.8027 C   0  0  0  0  0  0  0  0  0  0  0  0
  -27.4038  -27.5861   20.2674 C   0  0  0  0  0  0  0  0  0  0  0  0
  -24.3609   -6.5084   24.8908 C   0  0  0  0  0  0  0  0  0  0  0  0
  -24.6754   -5.1722   24.6434 C   0  0  0  0  0  0  0  0  0  0  0  0
  -25.3081  -27.3453   21.4375 C   0  0  0  0  0  0  0  0  0  0  0  0
  -28.1446  -22.6071   20.4003 C   0  0  0  0  0  0  0  0  0  0  0  0
  -28.7486  -21.9881   23.0526 C   0  0  0  0  0  0  0  0  0  0  0  0
  -22.3287   -4.6721   24.3607 C   0  0  0  0  0  0  0  0  0  0  0  0
  -24.3136  -11.1119   22.5651 C   0  0  0  0  0  0  0  0  0  0  0  0
  -24.1958  -13.1991   21.1032 C   0  0  0  0  0  0  0  0  0  0  0  0
  -25.0746  -36.3771   23.8433 C   0  0  0  0  0  0  0  0  0  0  0  0
  -25.8406  -29.4420   20.3512 C   0  0  0  0  0  0  0  0  0  0  0  0
  -25.8384  -35.2750   23.4139 C   0  0  0  0  0  0  0  0  0  0  0  0
  -24.9502  -28.6595   21.1003 C   0  0  0  0  0  0  0  0  0  0  0  0
  -28.2983  -21.2761   20.7882 C   0  0  0  0  0  0  0  0  0  0  0  0
  -28.6003  -20.9666   22.1143 C   0  0  0  0  0  0  0  0  0  0  0  0
  -28.5949  -23.3191   22.6646 C   0  0  0  0  0  0  0  0  0  0  0  0
  -28.2930  -23.6286   21.3385 C   0  0  0  0  0  0  0  0  0  0  0  0
  -23.2423   -9.1906   24.2808 C   0  0  0  0  0  0  0  0  0  0  0  0
  -26.5290  -26.8125   21.0245 C   0  0  0  0  0  0  0  0  0  0  0  0
  -23.0302   -6.9265   24.8732 C   0  0  0  0  0  0  0  0  0  0  0  0
  -23.6593   -4.2540   24.3784 C   0  0  0  0  0  0  0  0  0  0  0  0
  -22.0141   -6.0083   24.6082 C   0  0  0  0  0  0  0  0  0  0  0  0
  -24.8675  -12.1043   21.6795 C   0  0  0  0  0  0  0  0  0  0  0  0
  -25.1541  -13.8319   20.3497 C   0  0  0  0  0  0  0  0  0  0  0  0
  -22.8280  -13.6076   21.2371 C   0  0  0  0  0  0  0  0  0  0  0  0
  -25.0014  -31.8864   22.2016 C   0  0  0  0  0  0  0  0  0  0  0  0
  -22.0131  -31.1070   21.2090 C   0  0  0  0  0  0  0  0  0  0  0  0
  -19.8963  -28.7281   19.9815 C   0  0  0  0  0  0  0  0  0  0  0  0
  -31.1288  -14.0338   20.6854 C   0  0  0  0  0  0  0  0  0  0  0  0
  -23.8174  -36.2018   24.6578 C   0  0  0  0  0  0  0  0  0  0  0  0
  -25.4730  -30.8455   19.9544 C   0  0  0  0  0  0  0  0  0  0  0  0
  -23.6199  -29.1941   21.5618 C   0  0  0  0  0  0  0  0  0  0  0  0
  -23.2378  -34.7914   24.5875 C   0  0  0  0  0  0  0  0  0  0  0  0
  -29.1757  -12.9618   17.9082 C   0  0  0  0  0  0  0  0  0  0  0  0
  -24.3372  -33.7521   24.7823 C   0  0  0  0  0  0  0  0  0  0  0  0
  -27.7895  -12.7192   18.5078 C   0  0  0  0  0  0  0  0  0  0  0  0
  -30.2871  -12.5646   18.8773 C   0  0  0  0  0  0  0  0  0  0  0  0
  -28.8082  -12.9406   20.8126 C   0  0  0  0  0  0  0  0  0  0  0  0
  -25.3936  -33.8524   23.6754 C   0  0  1  0  0  0  0  0  0  0  0  0
  -24.4305  -31.4730   20.8746 C   0  0  1  0  0  0  0  0  0  0  0  0
  -27.6548  -13.3784   19.8937 C   0  0  2  0  0  0  0  0  0  0  0  0
  -28.1341  -20.1994   19.7663 C   0  0  0  0  0  0  0  0  0  0  0  0
  -27.5397  -24.5228   24.5944 C   0  0  0  0  0  0  0  0  0  0  0  0
  -17.5045  -28.3781   19.3077 C   0  0  0  0  0  0  0  0  0  0  0  0
  -21.2073  -30.9711   24.1488 C   0  0  0  0  0  0  0  0  0  0  0  0
  -19.1506  -29.7233   23.4553 C   0  0  0  0  0  0  0  0  0  0  0  0
  -19.5214  -32.0564   22.6541 C   0  0  0  0  0  0  0  0  0  0  0  0
  -20.6545  -28.0845   17.1940 C   0  0  0  0  0  0  0  0  0  0  0  0
  -28.7593  -24.3959   23.6864 C   0  0  0  0  0  0  0  0  0  0  0  0
  -28.7689  -19.5490   22.5530 C   0  0  0  0  0  0  0  0  0  0  0  0
  -28.1238  -25.0528   20.8976 C   0  0  0  0  0  0  0  0  0  1  0  0
  -30.1302  -18.9722   22.1386 C   0  0  0  0  0  0  0  0  0  0  0  0
  -30.2764  -17.5082   22.5586 C   0  0  0  0  0  0  0  0  0  0  0  0
  -31.6522  -16.9553   22.1753 C   0  0  0  0  0  0  0  0  0  0  0  0
  -31.8260  -15.4920   22.5687 C   0  0  0  0  0  0  0  0  0  0  0  0
  -20.9287  -30.1820   21.7063 C   0  0  1  0  0  0  0  0  0  0  0  0
  -18.8992  -28.7607   18.8373 C   0  0  2  0  0  0  0  0  0  0  0  0
  -20.2278  -30.7235   22.9842 C   0  0  0  0  0  0  0  0  0  0  0  0
  -26.1530  -12.0421   21.3225 N   0  0  0  0  0  0  0  0  0  0  0  0
  -26.2969  -13.1057   20.5137 N   0  0  0  0  0  0  0  0  0  0  0  0
  -23.3088  -30.5741   21.1538 N   0  0  0  0  0  0  0  0  0  0  0  0
  -30.1018  -13.2249   20.1717 N   0  0  0  0  0  0  0  0  0  0  0  0
  -25.1222  -14.9330   19.5693 N   0  0  0  0  0  0  0  0  0  0  0  0
  -21.9793  -12.8443   22.0503 N   0  0  0  0  0  0  0  0  0  0  0  0
  -24.9081  -33.2413   22.4566 N   0  0  0  0  0  0  0  0  0  0  0  0
  -20.0293  -29.9639   20.5785 N   0  0  0  0  0  0  0  0  0  0  0  0
  -30.8692  -14.6274   21.9146 N   0  0  0  0  0  0  0  0  0  0  0  0
  -19.3104  -27.8113   17.7647 N   0  3  0  0  0  0  0  0  0  0  0  0
  -22.3679  -14.6102   20.6399 O   0  0  0  0  0  0  0  0  0  0  0  0
  -25.4889  -31.0387   22.9401 O   0  0  0  0  0  0  0  0  0  0  0  0
  -21.7202  -32.2577   20.8749 O   0  0  0  0  0  0  0  0  0  0  0  0
  -20.4945  -27.7075   20.3149 O   0  0  0  0  0  0  0  0  0  0  0  0
  -32.1959  -14.2180   20.0900 O   0  0  0  0  0  0  0  0  0  0  0  0
  -22.7196   -8.2535   25.1182 O   0  0  0  0  0  0  0  0  0  0  0  0
  -26.8622  -25.5358   21.3575 O   0  0  0  0  0  0  0  0  0  1  0  0
  -23.9617   -2.9712   24.1393 F   0  0  0  0  0  0  0  0  0  0  0  0
  -20.7340   -6.4043   24.5887 F   0  0  0  0  0  0  0  0  0  0  0  0
  1  2  1  0  0  0  0
  1  5  2  0  0  0  0
  2  6  2  0  0  0  0
  3  8  2  0  0  0  0
  3 17  1  0  0  0  0
  4  9  1  0  0  0  0
  4 17  2  0  0  0  0
  5 19  1  0  0  0  0
  6 21  1  0  0  0  0
  7 10  2  0  0  0  0
  7 20  1  0  0  0  0
  8 27  1  0  0  0  0
  9 27  2  0  0  0  0
 10 28  1  0  0  0  0
 11 12  2  0  0  0  0
 11 29  1  0  0  0  0
 12 30  1  0  0  0  0
 13 22  1  0  0  0  0
 13 28  2  0  0  0  0
 14 23  2  0  0  0  0
 14 26  1  0  0  0  0
 15 24  2  0  0  0  0
 15 25  1  0  0  0  0
 16 30  2  0  0  0  0
 16 31  1  0  0  0  0
 17 32  1  0  0  0  0
 18 32  1  0  0  0  0
 18 33  2  0  0  0  0
 18 34  1  0  0  0  0
 19 21  2  0  0  0  0
 19 39  1  0  0  0  0
 20 22  2  0  0  0  0
 20 40  1  0  0  0  0
 21 48  1  0  0  0  0
 22 41  1  0  0  0  0
 23 24  1  0  0  0  0
 23 51  1  0  0  0  0
 24 59  1  0  0  0  0
 25 26  2  0  0  0  0
 25 58  1  0  0  0  0
 26 60  1  0  0  0  0
 27 83  1  0  0  0  0
 28 84  1  0  0  0  0
 29 31  2  0  0  0  0
 29 83  1  0  0  0  0
 30 85  1  0  0  0  0
 31 86  1  0  0  0  0
 32 68  2  0  0  0  0
 33 69  1  0  0  0  0
 33 72  1  0  0  0  0
 34 73  1  0  0  0  0
 34 78  2  0  0  0  0
 35 49  1  0  0  0  0
 35 74  1  0  0  0  0
 35 79  2  0  0  0  0
 36 65  1  0  0  0  0
 36 70  1  0  0  0  0
 36 80  2  0  0  0  0
 37 66  1  0  0  0  0
 37 75  1  0  0  0  0
 37 81  2  0  0  0  0
 38 71  1  0  0  0  0
 38 76  1  0  0  0  0
 38 82  2  0  0  0  0
 39 42  1  0  0  0  0
 40 49  1  0  0  0  0
 41 70  1  0  0  0  0
 42 44  1  0  0  0  0
 43 45  1  0  0  0  0
 43 46  1  0  0  0  0
 44 48  1  0  0  0  0
 45 50  1  0  0  0  0
 46 71  1  0  0  0  0
 47 50  1  0  0  0  0
 47 71  1  0  0  0  0
 48 74  1  0  0  0  0
 49 70  1  0  0  0  0
 50 69  1  0  0  0  0
 52 58  1  0  0  0  0
 53 66  1  0  0  0  0
 54 67  1  0  0  0  0
 55 67  1  0  0  0  0
 56 67  1  0  0  0  0
 57 77  1  0  0  0  0
 59 61  1  0  0  0  0
 60 84  1  0  0  0  0
 61 62  1  0  0  0  0
 62 63  1  0  0  0  0
 63 64  1  0  0  0  0
 64 76  1  0  0  0  0
 65 67  1  0  0  0  0
 65 75  1  0  0  0  0
 66 77  1  0  0  0  0
 68 69  1  0  0  0  0
M  CHG  1  77   1
M  ISO  4  38 100  60 101  76 100  84 101
M  END
> <Batch ID>
0036

> <Smiles>
CCc1cc(CCCCC[100NH:0][100C:0](=O)N2CCCC(n3nc(-c4ccc(Oc5ccc(F)cc5F)cc4)c(C(N)=O)c3N)C2)c(C)cc1[101CH2:1][101O:1]c1ccc2c(c1)CN(C(=O)C(NC(=O)C(C)NC)C(C)(C)C)C(C(=O)NC1CCCc3ccccc31)C2

> <Shape>
0.331

> <Color>
0.154

> <Negative vol penalty>
0.000

$$$$

  -OEChem-04052316563D

 84 92  0     1  0  0  0  0  0999 V2000
  -21.7186  -11.9339   20.5809 C   0  0  0  0  0  0  0  0  0  0  0  0
  -21.5786  -13.2226   21.0861 C   0  0  0  0  0  0  0  0  0  0  0  0
  -25.0401  -28.5287   19.4353 C   0  0  0  0  0  0  0  0  0  0  0  0
  -25.8619  -26.9334   21.0529 C   0  0  0  0  0  0  0  0  0  0  0  0
  -22.9890  -11.4255   20.3134 C   0  0  0  0  0  0  0  0  0  0  0  0
  -22.7091  -14.0032   21.3250 C   0  0  0  0  0  0  0  0  0  0  0  0
  -23.1991  -20.0720   20.6650 C   0  0  0  0  0  0  0  0  0  0  0  0
  -26.2979  -29.1298   19.3890 C   0  0  0  0  0  0  0  0  0  0  0  0
  -27.1198  -27.5345   21.0065 C   0  0  0  0  0  0  0  0  0  0  0  0
  -23.1275  -21.1236   21.5776 C   0  0  0  0  0  0  0  0  0  0  0  0
  -30.6447  -28.4245   21.0442 C   0  0  0  0  0  0  0  0  0  0  0  0
  -31.7599  -27.5909   20.9605 C   0  0  0  0  0  0  0  0  0  0  0  0
  -25.5337  -21.1307   21.7490 C   0  0  0  0  0  0  0  0  0  0  0  0
  -23.8100  -21.7407   26.8414 C   0  0  0  0  0  0  0  0  0  0  0  0
  -22.2669  -23.0057   25.4793 C   0  0  0  0  0  0  0  0  0  0  0  0
  -30.9291  -26.6884   18.8791 C   0  0  0  0  0  0  0  0  0  0  0  0
  -24.8221  -27.4306   20.2673 C   0  0  0  0  0  0  0  0  0  0  0  0
  -23.0549  -25.7530   19.5120 C   0  0  0  0  0  0  0  0  0  0  0  0
  -24.1351  -12.2038   20.5401 C   0  0  0  0  0  0  0  0  0  0  0  0
  -24.4401  -19.5337   20.2953 C   0  0  0  0  0  0  0  0  0  0  0  0
  -23.9961  -13.5042   21.0615 C   0  0  0  0  0  0  0  0  0  0  0  0
  -25.6185  -20.0740   20.8296 C   0  0  0  0  0  0  0  0  0  0  0  0
  -23.5736  -22.7143   25.8710 C   0  0  0  0  0  0  0  0  0  0  0  0
  -22.7398  -21.0583   27.4200 C   0  0  0  0  0  0  0  0  0  0  0  0
  -21.1967  -22.3234   26.0580 C   0  0  0  0  0  0  0  0  0  0  0  0
  -21.4332  -21.3497   27.0283 C   0  0  0  0  0  0  0  0  0  0  0  0
  -27.3378  -28.6327   20.1746 C   0  0  0  0  0  0  0  0  0  0  0  0
  -24.2947  -21.6512   22.1220 C   0  0  0  0  0  0  0  0  0  0  0  0
  -29.6716  -28.3900   20.0453 C   0  0  0  0  0  0  0  0  0  0  0  0
  -31.9021  -26.7229   19.8779 C   0  0  0  0  0  0  0  0  0  0  0  0
  -29.8138  -27.5220   18.9628 C   0  0  0  0  0  0  0  0  0  0  0  0
  -23.5228  -26.8096   20.3160 C   0  0  0  0  0  0  0  0  0  0  0  0
  -21.7712  -25.5323   19.9478 C   0  0  0  0  0  0  0  0  0  0  0  0
  -23.7211  -25.0351   18.4649 C   0  0  0  0  0  0  0  0  0  0  0  0
  -25.8159  -16.6805   20.5593 C   0  0  0  0  0  0  0  0  0  0  0  0
  -28.1374  -18.0666   18.7672 C   0  0  0  0  0  0  0  0  0  0  0  0
  -29.6865  -20.9306   17.7450 C   0  0  0  0  0  0  0  0  0  0  0  0
  -18.9954  -26.5750   25.1497 C   0  0  0  0  0  0  0  0  0  0  0  0
  -25.4898  -11.5939   20.2802 C   0  0  0  0  0  0  0  0  0  0  0  0
  -24.5018  -18.4172   19.2893 C   0  0  0  0  0  0  0  0  0  0  0  0
  -26.9767  -19.5453   20.4499 C   0  0  0  0  0  0  0  0  0  0  0  0
  -26.6166  -12.6213   20.2082 C   0  0  0  0  0  0  0  0  0  0  0  0
  -18.0526  -27.7905   21.9387 C   0  0  0  0  0  0  0  0  0  0  0  0
  -26.5143  -13.6078   21.3672 C   0  0  0  0  0  0  0  0  0  0  0  0
  -19.3054  -27.5816   21.0862 C   0  0  0  0  0  0  0  0  0  0  0  0
  -18.4041  -28.1927   23.3693 C   0  0  0  0  0  0  0  0  0  0  0  0
  -20.5944  -27.0753   23.2030 C   0  0  0  0  0  0  0  0  0  0  0  0
  -25.1970  -14.3907   21.3106 C   0  0  1  0  0  0  0  0  0  0  0  0
  -25.7908  -17.6057   19.3757 C   0  0  1  0  0  0  0  0  0  0  0  0
  -20.2920  -26.6139   21.7670 C   0  0  2  0  0  0  0  0  0  0  0  0
  -23.0200  -20.0209   28.4578 C   0  0  0  0  0  0  0  0  0  0  0  0
  -20.2859  -20.6182   27.6492 C   0  0  0  0  0  0  0  0  0  0  0  0
  -31.5770  -21.7426   16.3083 C   0  0  0  0  0  0  0  0  0  0  0  0
  -30.1326  -17.1996   20.9067 C   0  0  0  0  0  0  0  0  0  0  0  0
  -31.7764  -18.8157   19.9298 C   0  0  0  0  0  0  0  0  0  0  0  0
  -30.9339  -16.9121   18.5552 C   0  0  0  0  0  0  0  0  0  0  0  0
  -27.8547  -22.4681   16.0016 C   0  0  0  0  0  0  0  0  0  0  0  0
  -24.7316  -23.4523   25.2444 C   0  0  0  0  0  0  0  0  0  0  0  0
  -19.8069  -22.6542   25.6211 C   0  0  0  0  0  0  0  0  0  0  0  0
  -19.0404  -23.5785   26.5860 C   0  0  0  0  0  0  0  0  0  0  0  0
  -19.7233  -24.9191   26.8489 C   0  0  0  0  0  0  0  0  0  0  0  0
  -25.2588  -22.7516   23.9969 C   0  0  0  0  0  0  0  0  0  1  0  0
  -29.3928  -18.8505   19.0647 C   0  0  1  0  0  0  0  0  0  0  0  0
  -30.0921  -21.4194   16.3662 C   0  0  2  0  0  0  0  0  0  0  0  0
  -30.5334  -17.9534   19.6229 C   0  0  0  0  0  0  0  0  0  0  0  0
  -22.6105  -27.2311   21.1959 N   0  0  0  0  0  0  0  0  0  0  0  0
  -21.5565  -26.4353   20.9473 N   0  0  0  0  0  0  0  0  0  0  0  0
  -26.9844  -18.4489   19.4674 N   0  0  0  0  0  0  0  0  0  0  0  0
  -19.3416  -27.2335   23.9582 N   0  0  0  0  0  0  0  0  0  0  0  0
  -20.8164  -24.6561   19.5698 N   0  0  0  0  0  0  0  0  0  0  0  0
  -25.0385  -25.3903   18.1447 N   0  0  0  0  0  0  0  0  0  0  0  0
  -25.2720  -15.4347   20.3112 N   0  0  0  0  0  0  0  0  0  0  0  0
  -29.7351  -19.5555   17.8341 N   0  0  0  0  0  0  0  0  0  0  0  0
  -19.9378  -25.6774   25.6366 N   0  0  0  0  0  0  0  0  0  0  0  0
  -29.3293  -22.6483   16.0072 N   0  3  0  0  0  0  0  0  0  0  0  0
  -23.1589  -24.1171   17.8208 O   0  0  0  0  0  0  0  0  0  0  0  0
  -26.2948  -17.0677   21.6188 O   0  0  0  0  0  0  0  0  0  0  0  0
  -28.1767  -17.1536   17.9387 O   0  0  0  0  0  0  0  0  0  0  0  0
  -29.3629  -21.6926   18.6533 O   0  0  0  0  0  0  0  0  0  0  0  0
  -17.9235  -26.7684   25.7332 O   0  0  0  0  0  0  0  0  0  0  0  0
  -28.5654  -29.2188   20.1294 O   0  0  0  0  0  0  0  0  0  0  0  0
  -24.2275  -22.6772   23.0134 O   0  0  0  0  0  0  0  0  0  1  0  0
  -32.9739  -25.9235   19.7969 F   0  0  0  0  0  0  0  0  0  0  0  0
  -28.8829  -27.4852   17.9995 F   0  0  0  0  0  0  0  0  0  0  0  0
  1  2  1  0  0  0  0
  1  5  2  0  0  0  0
  2  6  2  0  0  0  0
  3  8  2  0  0  0  0
  3 17  1  0  0  0  0
  4  9  1  0  0  0  0
  4 17  2  0  0  0  0
  5 19  1  0  0  0  0
  6 21  1  0  0  0  0
  7 10  2  0  0  0  0
  7 20  1  0  0  0  0
  8 27  1  0  0  0  0
  9 27  2  0  0  0  0
 10 28  1  0  0  0  0
 11 12  2  0  0  0  0
 11 29  1  0  0  0  0
 12 30  1  0  0  0  0
 13 22  1  0  0  0  0
 13 28  2  0  0  0  0
 14 23  1  0  0  0  0
 14 24  2  0  0  0  0
 15 23  2  0  0  0  0
 15 25  1  0  0  0  0
 16 30  2  0  0  0  0
 16 31  1  0  0  0  0
 17 32  1  0  0  0  0
 18 32  1  0  0  0  0
 18 33  2  0  0  0  0
 18 34  1  0  0  0  0
 19 21  2  0  0  0  0
 19 39  1  0  0  0  0
 20 22  2  0  0  0  0
 20 40  1  0  0  0  0
 21 48  1  0  0  0  0
 22 41  1  0  0  0  0
 23 58  1  0  0  0  0
 24 26  1  0  0  0  0
 24 51  1  0  0  0  0
 25 26  2  0  0  0  0
 25 59  1  0  0  0  0
 26 52  1  0  0  0  0
 27 81  1  0  0  0  0
 28 82  1  0  0  0  0
 29 31  2  0  0  0  0
 29 81  1  0  0  0  0
 30 83  1  0  0  0  0
 31 84  1  0  0  0  0
 32 66  2  0  0  0  0
 33 67  1  0  0  0  0
 33 70  1  0  0  0  0
 34 71  1  0  0  0  0
 34 76  2  0  0  0  0
 35 49  1  0  0  0  0
 35 72  1  0  0  0  0
 35 77  2  0  0  0  0
 36 63  1  0  0  0  0
 36 68  1  0  0  0  0
 36 78  2  0  0  0  0
 37 64  1  0  0  0  0
 37 73  1  0  0  0  0
 37 79  2  0  0  0  0
 38 69  1  0  0  0  0
 38 74  1  0  0  0  0
 38 80  2  0  0  0  0
 39 42  1  0  0  0  0
 40 49  1  0  0  0  0
 41 68  1  0  0  0  0
 42 44  1  0  0  0  0
 43 45  1  0  0  0  0
 43 46  1  0  0  0  0
 44 48  1  0  0  0  0
 45 50  1  0  0  0  0
 46 69  1  0  0  0  0
 47 50  1  0  0  0  0
 47 69  1  0  0  0  0
 48 72  1  0  0  0  0
 49 68  1  0  0  0  0
 50 67  1  0  0  0  0
 53 64  1  0  0  0  0
 54 65  1  0  0  0  0
 55 65  1  0  0  0  0
 56 65  1  0  0  0  0
 57 75  1  0  0  0  0
 58 62  1  0  0  0  0
 59 60  1  0  0  0  0
 60 61  1  0  0  0  0
 61 74  1  0  0  0  0
 62 82  1  0  0  0  0
 63 65  1  0  0  0  0
 63 73  1  0  0  0  0
 64 75  1  0  0  0  0
 66 67  1  0  0  0  0
M  CHG  1  75   1
M  ISO  4  38 100  62 101  74 100  82 101
M  END
> <Batch ID>
0036

> <Smiles>
CNC(C)C(=O)NC(C(=O)N1Cc2cc([101O:1][101CH2:1]Cc3cc(C)c(C)c(CCC[100NH:0][100C:0](=O)N4CCCC(n5nc(-c6ccc(Oc7ccc(F)cc7F)cc6)c(C(N)=O)c5N)C4)c3)ccc2CC1C(=O)NC1CCCc2ccccc21)C(C)(C)C

> <Shape>
0.196

> <Color>
0.077

> <Negative vol penalty>
0.000

$$$$

  -OEChem-04052316563D

 83 91  0     1  0  0  0  0  0999 V2000
  -22.3584  -24.1764   15.5777 C   0  0  0  0  0  0  0  0  0  0  0  0
  -22.0721  -25.0292   16.6390 C   0  0  0  0  0  0  0  0  0  0  0  0
  -27.9268  -14.3182   20.8927 C   0  0  0  0  0  0  0  0  0  0  0  0
  -25.7544  -14.8022   19.9528 C   0  0  0  0  0  0  0  0  0  0  0  0
  -23.5423  -23.4401   15.5764 C   0  0  0  0  0  0  0  0  0  0  0  0
  -22.9693  -25.1454   17.7001 C   0  0  0  0  0  0  0  0  0  0  0  0
  -23.7656  -30.0369   19.0896 C   0  0  0  0  0  0  0  0  0  0  0  0
  -27.6052  -12.9617   20.9377 C   0  0  0  0  0  0  0  0  0  0  0  0
  -25.4327  -13.4457   19.9977 C   0  0  0  0  0  0  0  0  0  0  0  0
  -22.7971  -30.6709   19.8667 C   0  0  0  0  0  0  0  0  0  0  0  0
  -24.4267  -11.1993   22.3156 C   0  0  0  0  0  0  0  0  0  0  0  0
  -23.1678  -10.8476   22.8024 C   0  0  0  0  0  0  0  0  0  0  0  0
  -24.0968  -30.2159   21.8470 C   0  0  0  0  0  0  0  0  0  0  0  0
  -20.5804  -28.0219   22.4727 C   0  0  0  0  0  0  0  0  0  0  0  0
  -22.6424   -9.8023   20.6885 C   0  0  0  0  0  0  0  0  0  0  0  0
  -18.4418  -28.2162   23.1497 C   0  0  0  0  0  0  0  0  0  0  0  0
  -27.0014  -15.2385   20.4003 C   0  0  0  0  0  0  0  0  0  0  0  0
  -28.3946  -17.2396   19.6507 C   0  0  0  0  0  0  0  0  0  0  0  0
  -24.4590  -23.5547   16.6334 C   0  0  0  0  0  0  0  0  0  0  0  0
  -24.9042  -29.4774   19.6872 C   0  0  0  0  0  0  0  0  0  0  0  0
  -24.1660  -24.4090   17.7136 C   0  0  0  0  0  0  0  0  0  0  0  0
  -25.0805  -29.5796   21.0747 C   0  0  0  0  0  0  0  0  0  0  0  0
  -19.6562  -28.8660   23.1363 C   0  0  0  0  0  0  0  0  0  0  0  0
  -26.3581  -12.5254   20.4902 C   0  0  0  0  0  0  0  0  0  0  0  0
  -22.9615  -30.7585   21.2458 C   0  0  0  0  0  0  0  0  0  0  0  0
  -24.7935  -10.8526   21.0152 C   0  0  0  0  0  0  0  0  0  0  0  0
  -22.2756  -10.1491   21.9889 C   0  0  0  0  0  0  0  0  0  0  0  0
  -23.9014  -10.1540   20.2017 C   0  0  0  0  0  0  0  0  0  0  0  0
  -27.3329  -16.6399   20.3542 C   0  0  0  0  0  0  0  0  0  0  0  0
  -19.9026  -26.8819   22.1006 C   0  0  0  0  0  0  0  0  0  0  0  0
  -28.2775  -18.5795   19.9290 C   0  0  0  0  0  0  0  0  0  0  0  0
  -29.3971  -16.6392   18.8198 C   0  0  0  0  0  0  0  0  0  0  0  0
  -26.2105  -26.5638   19.9112 C   0  0  0  0  0  0  0  0  0  0  0  0
  -23.5601  -21.8338   21.4882 C   0  0  0  0  0  0  0  0  0  0  0  0
  -28.6168  -28.3250   21.3813 C   0  0  0  0  0  0  0  0  0  0  0  0
  -31.1437  -25.8126   20.8236 C   0  0  0  0  0  0  0  0  0  0  0  0
  -25.7035  -22.7029   16.6105 C   0  0  0  0  0  0  0  0  0  0  0  0
  -25.9521  -28.8242   18.8272 C   0  0  0  0  0  0  0  0  0  0  0  0
  -26.2861  -28.9989   21.7631 C   0  0  0  0  0  0  0  0  0  0  0  0
  -26.7766  -23.1660   17.5925 C   0  0  0  0  0  0  0  0  0  0  0  0
  -26.7097  -21.5907   23.2903 C   0  0  0  0  0  0  0  0  0  0  0  0
  -26.1619  -23.4538   18.9585 C   0  0  0  0  0  0  0  0  0  0  0  0
  -27.3094  -20.3209   22.6878 C   0  0  0  0  0  0  0  0  0  0  0  0
  -25.1910  -21.4930   23.4081 C   0  0  0  0  0  0  0  0  0  0  0  0
  -25.1044  -19.9010   21.5154 C   0  0  0  0  0  0  0  0  0  0  0  0
  -25.1258  -24.5809   18.8709 C   0  0  1  0  0  0  0  0  0  0  0  0
  -26.8698  -27.8769   19.5972 C   0  0  1  0  0  0  0  0  0  0  0  0
  -26.6319  -19.9710   21.3513 C   0  0  2  0  0  0  0  0  0  0  0  0
  -33.4928  -25.6407   21.6894 C   0  0  0  0  0  0  0  0  0  0  0  0
  -29.3720  -29.7052   18.7678 C   0  0  0  0  0  0  0  0  0  0  0  0
  -31.3981  -28.2382   18.6608 C   0  0  0  0  0  0  0  0  0  0  0  0
  -31.1144  -29.8338   20.5572 C   0  0  0  0  0  0  0  0  0  0  0  0
  -17.5516  -26.0364   22.3276 C   0  0  0  0  0  0  0  0  0  0  0  0
  -30.6549  -23.1200   21.9505 C   0  0  0  0  0  0  0  0  0  0  0  0
  -19.9470  -30.2251   23.7210 C   0  0  0  0  0  0  0  0  0  0  0  0
  -20.3853  -25.6832   21.3842 C   0  0  0  0  0  0  0  0  0  0  0  0
  -23.0460  -23.0623   22.1955 C   0  0  0  0  0  0  0  0  0  0  0  0
  -19.7327  -31.3775   22.7373 C   0  0  0  0  0  0  0  0  0  0  0  0
  -21.9369  -23.7259   21.3992 C   0  0  0  0  0  0  0  0  0  0  0  0
  -20.6713  -31.3293   21.5372 C   0  0  0  0  0  0  0  0  0  1  0  0
  -29.6624  -27.7669   20.4486 C   0  0  1  0  0  0  0  0  0  0  0  0
  -32.0517  -25.1890   21.8681 C   0  0  2  0  0  0  0  0  0  0  0  0
  -30.3607  -28.8746   19.6103 C   0  0  0  0  0  0  0  0  0  0  0  0
  -26.5957  -17.5262   21.0288 N   0  0  0  0  0  0  0  0  0  0  0  0
  -18.6034  -27.0112   22.5171 N   0  0  0  0  0  0  0  0  0  0  0  0
  -27.1951  -18.6963   20.7506 N   0  0  0  0  0  0  0  0  0  0  0  0
  -27.3172  -28.4486   20.8737 N   0  0  0  0  0  0  0  0  0  0  0  0
  -24.5859  -21.1311   22.1207 N   0  0  0  0  0  0  0  0  0  0  0  0
  -28.9959  -19.6574   19.5487 N   0  0  0  0  0  0  0  0  0  0  0  0
  -29.1340  -16.4998   17.4503 N   0  0  0  0  0  0  0  0  0  0  0  0
  -25.7839  -25.8677   18.7964 N   0  0  0  0  0  0  0  0  0  0  0  0
  -30.5714  -26.9822   21.2771 N   0  0  0  0  0  0  0  0  0  0  0  0
  -32.0096  -23.7025   21.7702 N   0  3  0  0  0  0  0  0  0  0  0  0
  -21.4889  -24.9616   22.0879 N   0  3  0  0  0  0  0  0  0  0  0  0
  -30.4869  -16.2234   19.2811 O   0  0  0  0  0  0  0  0  0  0  0  0
  -26.0986  -26.2078   21.0784 O   0  0  0  0  0  0  0  0  0  0  0  0
  -23.0655  -21.5117   20.4048 O   0  0  0  0  0  0  0  0  0  0  0  0
  -28.9423  -28.6504   22.5265 O   0  0  0  0  0  0  0  0  0  0  0  0
  -30.9634  -25.3140   19.7147 O   0  0  0  0  0  0  0  0  0  0  0  0
  -26.0440  -11.2018   20.5337 O   0  0  0  0  0  0  0  0  0  0  0  0
  -22.0180  -31.3773   22.0066 O   0  0  0  0  0  0  0  0  0  1  0  0
  -21.0673   -9.8100   22.4570 F   0  0  0  0  0  0  0  0  0  0  0  0
  -24.2485   -9.8171   18.9520 F   0  0  0  0  0  0  0  0  0  0  0  0
  1  2  1  0  0  0  0
  1  5  2  0  0  0  0
  2  6  2  0  0  0  0
  3  8  2  0  0  0  0
  3 17  1  0  0  0  0
  4  9  1  0  0  0  0
  4 17  2  0  0  0  0
  5 19  1  0  0  0  0
  6 21  1  0  0  0  0
  7 10  2  0  0  0  0
  7 20  1  0  0  0  0
  8 24  1  0  0  0  0
  9 24  2  0  0  0  0
 10 25  1  0  0  0  0
 11 12  2  0  0  0  0
 11 26  1  0  0  0  0
 12 27  1  0  0  0  0
 13 22  1  0  0  0  0
 13 25  2  0  0  0  0
 14 23  1  0  0  0  0
 14 30  2  0  0  0  0
 15 27  2  0  0  0  0
 15 28  1  0  0  0  0
 16 23  2  0  0  0  0
 16 65  1  0  0  0  0
 17 29  1  0  0  0  0
 18 29  1  0  0  0  0
 18 31  2  0  0  0  0
 18 32  1  0  0  0  0
 19 21  2  0  0  0  0
 19 37  1  0  0  0  0
 20 22  2  0  0  0  0
 20 38  1  0  0  0  0
 21 46  1  0  0  0  0
 22 39  1  0  0  0  0
 23 55  1  0  0  0  0
 24 80  1  0  0  0  0
 25 81  1  0  0  0  0
 26 28  2  0  0  0  0
 26 80  1  0  0  0  0
 27 82  1  0  0  0  0
 28 83  1  0  0  0  0
 29 64  2  0  0  0  0
 30 56  1  0  0  0  0
 30 65  1  0  0  0  0
 31 66  1  0  0  0  0
 31 69  1  0  0  0  0
 32 70  1  0  0  0  0
 32 75  2  0  0  0  0
 33 47  1  0  0  0  0
 33 71  1  0  0  0  0
 33 76  2  0  0  0  0
 34 57  1  0  0  0  0
 34 68  1  0  0  0  0
 34 77  2  0  0  0  0
 35 61  1  0  0  0  0
 35 67  1  0  0  0  0
 35 78  2  0  0  0  0
 36 62  1  0  0  0  0
 36 72  1  0  0  0  0
 36 79  2  0  0  0  0
 37 40  1  0  0  0  0
 38 47  1  0  0  0  0
 39 67  1  0  0  0  0
 40 42  1  0  0  0  0
 41 43  1  0  0  0  0
 41 44  1  0  0  0  0
 42 46  1  0  0  0  0
 43 48  1  0  0  0  0
 44 68  1  0  0  0  0
 45 48  1  0  0  0  0
 45 68  1  0  0  0  0
 46 71  1  0  0  0  0
 47 67  1  0  0  0  0
 48 66  1  0  0  0  0
 49 62  1  0  0  0  0
 50 63  1  0  0  0  0
 51 63  1  0  0  0  0
 52 63  1  0  0  0  0
 53 65  1  0  0  0  0
 54 73  1  0  0  0  0
 55 58  1  0  0  0  0
 56 74  1  0  0  0  0
 57 59  1  0  0  0  0
 58 60  1  0  0  0  0
 59 74  1  0  0  0  0
 60 81  1  0  0  0  0
 61 63  1  0  0  0  0
 61 72  1  0  0  0  0
 62 73  1  0  0  0  0
 64 66  1  0  0  0  0
M  CHG  2  73   1  74   1
M  ISO  4  34 100  57 100  60 101  81 101
M  END
> <Batch ID>
0036

> <Smiles>
CNC(C)C(=O)NC(C(=O)N1Cc2cc([101O:1][101CH2:1]CCc3cc(CNC[100CH2:0][100C:0](=O)N4CCCC(n5nc(-c6ccc(Oc7ccc(F)cc7F)cc6)c(C(N)=O)c5N)C4)n(C)c3)ccc2CC1C(=O)NC1CCCc2ccccc21)C(C)(C)C

> <Shape>
0.248

> <Color>
0.087

> <Negative vol penalty>
0.000

$$$$

  -OEChem-04052316563D

 82 90  0     1  0  0  0  0  0999 V2000
  -18.6740  -24.8872   21.2772 C   0  0  0  0  0  0  0  0  0  0  0  0
  -19.7045  -25.3335   20.4560 C   0  0  0  0  0  0  0  0  0  0  0  0
  -29.2931  -19.4153   22.9876 C   0  0  0  0  0  0  0  0  0  0  0  0
  -28.0398  -18.3015   21.2482 C   0  0  0  0  0  0  0  0  0  0  0  0
  -18.0754  -25.7637   22.1814 C   0  0  0  0  0  0  0  0  0  0  0  0
  -20.1362  -26.6569   20.5377 C   0  0  0  0  0  0  0  0  0  0  0  0
  -25.1845  -27.0552   20.5671 C   0  0  0  0  0  0  0  0  0  0  0  0
  -23.5586  -26.7308   14.5591 C   0  0  0  0  0  0  0  0  0  0  0  0
  -24.5171  -27.6972   14.8637 C   0  0  0  0  0  0  0  0  0  0  0  0
  -28.5057  -18.7908   23.9549 C   0  0  0  0  0  0  0  0  0  0  0  0
  -27.2524  -17.6769   22.2154 C   0  0  0  0  0  0  0  0  0  0  0  0
  -25.8407  -26.9243   19.3440 C   0  0  0  0  0  0  0  0  0  0  0  0
  -28.3067  -15.7511   25.4224 C   0  0  0  0  0  0  0  0  0  0  0  0
  -28.9546  -15.1925   26.5240 C   0  0  0  0  0  0  0  0  0  0  0  0
  -26.0217  -29.3249   19.1910 C   0  0  0  0  0  0  0  0  0  0  0  0
  -25.3136  -25.1467   14.0617 C   0  0  0  0  0  0  0  0  0  0  0  0
  -27.7093  -16.6492   27.9951 C   0  0  0  0  0  0  0  0  0  0  0  0
  -29.0602  -19.1707   21.6343 C   0  0  0  0  0  0  0  0  0  0  0  0
  -31.0731  -19.3372   20.0761 C   0  0  0  0  0  0  0  0  0  0  0  0
  -18.5065  -27.0959   22.2810 C   0  0  0  0  0  0  0  0  0  0  0  0
  -24.9319  -28.3245   21.1070 C   0  0  0  0  0  0  0  0  0  0  0  0
  -19.5419  -27.5523   21.4431 C   0  0  0  0  0  0  0  0  0  0  0  0
  -25.3645  -29.4692   20.4223 C   0  0  0  0  0  0  0  0  0  0  0  0
  -23.9568  -25.4555   14.1582 C   0  0  0  0  0  0  0  0  0  0  0  0
  -25.8739  -27.3884   14.7673 C   0  0  0  0  0  0  0  0  0  0  0  0
  -26.2722  -26.1132   14.3663 C   0  0  0  0  0  0  0  0  0  0  0  0
  -27.4854  -17.9216   23.5688 C   0  0  0  0  0  0  0  0  0  0  0  0
  -26.2568  -28.0593   18.6543 C   0  0  0  0  0  0  0  0  0  0  0  0
  -27.3600  -16.7588   25.6070 C   0  0  0  0  0  0  0  0  0  0  0  0
  -28.6560  -15.6415   27.8104 C   0  0  0  0  0  0  0  0  0  0  0  0
  -27.0613  -17.2078   26.8934 C   0  0  0  0  0  0  0  0  0  0  0  0
  -29.8729  -19.8159   20.6346 C   0  0  0  0  0  0  0  0  0  0  0  0
  -31.4478  -20.3101   19.1819 C   0  0  0  0  0  0  0  0  0  0  0  0
  -31.7856  -18.1217   20.3417 C   0  0  0  0  0  0  0  0  0  0  0  0
  -22.3133  -29.9597   21.8638 C   0  0  0  0  0  0  0  0  0  0  0  0
  -24.4550  -32.0779   23.0673 C   0  0  0  0  0  0  0  0  0  0  0  0
  -27.6319  -33.3241   23.0292 C   0  0  0  0  0  0  0  0  0  0  0  0
  -28.3126  -24.3140   16.1828 C   0  0  0  0  0  0  0  0  0  0  0  0
  -17.7971  -28.0187   23.2401 C   0  0  0  0  0  0  0  0  0  0  0  0
  -24.2467  -28.4479   22.4403 C   0  0  0  0  0  0  0  0  0  0  0  0
  -25.1356  -30.8539   20.9687 C   0  0  0  0  0  0  0  0  0  0  0  0
  -18.5658  -29.3056   23.5283 C   0  0  0  0  0  0  0  0  0  0  0  0
  -31.0847  -25.0181   18.4003 C   0  0  0  0  0  0  0  0  0  0  0  0
  -19.0813  -29.9214   22.2314 C   0  0  0  0  0  0  0  0  0  0  0  0
  -31.1969  -23.7031   19.1739 C   0  0  0  0  0  0  0  0  0  0  0  0
  -29.6273  -25.3711   18.1185 C   0  0  0  0  0  0  0  0  0  0  0  0
  -28.9745  -22.9953   18.1741 C   0  0  0  0  0  0  0  0  0  0  0  0
  -20.0547  -28.9740   21.5197 C   0  0  1  0  0  0  0  0  0  0  0  0
  -23.5853  -29.8068   22.6487 C   0  0  1  0  0  0  0  0  0  0  0  0
  -30.4246  -22.5715   18.4704 C   0  0  2  0  0  0  0  0  0  0  0  0
  -22.5317  -23.5961   15.0516 C   0  0  0  0  0  0  0  0  0  0  0  0
  -29.0727  -35.0783   24.0989 C   0  0  0  0  0  0  0  0  0  0  0  0
  -23.0963  -34.2225   21.3747 C   0  0  0  0  0  0  0  0  0  0  0  0
  -25.1030  -35.6765   21.7313 C   0  0  0  0  0  0  0  0  0  0  0  0
  -23.7241  -34.9566   23.6815 C   0  0  0  0  0  0  0  0  0  0  0  0
  -29.4938  -31.2970   24.1168 C   0  0  0  0  0  0  0  0  0  0  0  0
  -22.9318  -24.4226   13.8321 C   0  0  0  0  0  0  0  0  0  0  0  0
  -26.8926  -28.4511   15.1009 C   0  0  0  0  0  0  0  0  0  0  0  0
  -27.7192  -25.7598   14.2555 C   0  0  0  0  0  0  0  0  0  0  0  0
  -26.7245  -28.9913   16.5169 C   0  0  0  0  0  0  0  0  0  1  0  0
  -25.2046  -33.2684   22.5196 C   0  0  1  0  0  0  0  0  0  0  0  0
  -28.6067  -33.6317   24.1515 C   0  0  2  0  0  0  0  0  0  0  0  0
  -24.2848  -34.5051   22.3153 C   0  0  0  0  0  0  0  0  0  0  0  0
  -29.5092  -21.0010   20.1371 N   0  0  0  0  0  0  0  0  0  0  0  0
  -30.4868  -21.2751   19.2566 N   0  0  0  0  0  0  0  0  0  0  0  0
  -24.4558  -30.9227   22.2728 N   0  0  0  0  0  0  0  0  0  0  0  0
  -28.9542  -24.2598   17.4313 N   0  0  0  0  0  0  0  0  0  0  0  0
  -32.5023  -20.4259   18.3471 N   0  0  0  0  0  0  0  0  0  0  0  0
  -31.2607  -17.2331   21.2899 N   0  0  0  0  0  0  0  0  0  0  0  0
  -21.3531  -29.0105   22.1580 N   0  0  0  0  0  0  0  0  0  0  0  0
  -26.3233  -33.4991   23.4271 N   0  0  0  0  0  0  0  0  0  0  0  0
  -28.3324  -25.5499   15.5481 N   0  0  0  0  0  0  0  0  0  0  0  0
  -29.8033  -32.7487   24.0547 N   0  3  0  0  0  0  0  0  0  0  0  0
  -32.8646  -17.8397   19.7674 O   0  0  0  0  0  0  0  0  0  0  0  0
  -22.2100  -30.8722   21.0524 O   0  0  0  0  0  0  0  0  0  0  0  0
  -23.8956  -32.1674   24.1630 O   0  0  0  0  0  0  0  0  0  0  0  0
  -27.9950  -32.9681   21.9104 O   0  0  0  0  0  0  0  0  0  0  0  0
  -27.7668  -23.3317   15.6687 O   0  0  0  0  0  0  0  0  0  0  0  0
  -26.7170  -17.3118   24.5124 O   0  0  0  0  0  0  0  0  0  0  0  0
  -26.8969  -27.9343   17.4600 O   0  0  0  0  0  0  0  0  0  1  0  0
  -29.2772  -15.1040   28.8684 F   0  0  0  0  0  0  0  0  0  0  0  0
  -26.1520  -18.1748   27.0772 F   0  0  0  0  0  0  0  0  0  0  0  0
  1  2  1  0  0  0  0
  1  5  2  0  0  0  0
  2  6  2  0  0  0  0
  3 10  2  0  0  0  0
  3 18  1  0  0  0  0
  4 11  1  0  0  0  0
  4 18  2  0  0  0  0
  5 20  1  0  0  0  0
  6 22  1  0  0  0  0
  7 12  2  0  0  0  0
  7 21  1  0  0  0  0
  8  9  2  0  0  0  0
  8 24  1  0  0  0  0
  9 25  1  0  0  0  0
 10 27  1  0  0  0  0
 11 27  2  0  0  0  0
 12 28  1  0  0  0  0
 13 14  2  0  0  0  0
 13 29  1  0  0  0  0
 14 30  1  0  0  0  0
 15 23  1  0  0  0  0
 15 28  2  0  0  0  0
 16 24  2  0  0  0  0
 16 26  1  0  0  0  0
 17 30  2  0  0  0  0
 17 31  1  0  0  0  0
 18 32  1  0  0  0  0
 19 32  1  0  0  0  0
 19 33  2  0  0  0  0
 19 34  1  0  0  0  0
 20 22  2  0  0  0  0
 20 39  1  0  0  0  0
 21 23  2  0  0  0  0
 21 40  1  0  0  0  0
 22 48  1  0  0  0  0
 23 41  1  0  0  0  0
 24 57  1  0  0  0  0
 25 26  2  0  0  0  0
 25 58  1  0  0  0  0
 26 59  1  0  0  0  0
 27 79  1  0  0  0  0
 28 80  1  0  0  0  0
 29 31  2  0  0  0  0
 29 79  1  0  0  0  0
 30 81  1  0  0  0  0
 31 82  1  0  0  0  0
 32 64  2  0  0  0  0
 33 65  1  0  0  0  0
 33 68  1  0  0  0  0
 34 69  1  0  0  0  0
 34 74  2  0  0  0  0
 35 49  1  0  0  0  0
 35 70  1  0  0  0  0
 35 75  2  0  0  0  0
 36 61  1  0  0  0  0
 36 66  1  0  0  0  0
 36 76  2  0  0  0  0
 37 62  1  0  0  0  0
 37 71  1  0  0  0  0
 37 77  2  0  0  0  0
 38 67  1  0  0  0  0
 38 72  1  0  0  0  0
 38 78  2  0  0  0  0
 39 42  1  0  0  0  0
 40 49  1  0  0  0  0
 41 66  1  0  0  0  0
 42 44  1  0  0  0  0
 43 45  1  0  0  0  0
 43 46  1  0  0  0  0
 44 48  1  0  0  0  0
 45 50  1  0  0  0  0
 46 67  1  0  0  0  0
 47 50  1  0  0  0  0
 47 67  1  0  0  0  0
 48 70  1  0  0  0  0
 49 66  1  0  0  0  0
 50 65  1  0  0  0  0
 51 57  1  0  0  0  0
 52 62  1  0  0  0  0
 53 63  1  0  0  0  0
 54 63  1  0  0  0  0
 55 63  1  0  0  0  0
 56 73  1  0  0  0  0
 58 60  1  0  0  0  0
 59 72  1  0  0  0  0
 60 80  1  0  0  0  0
 61 63  1  0  0  0  0
 61 71  1  0  0  0  0
 62 73  1  0  0  0  0
 64 65  1  0  0  0  0
M  CHG  1  73   1
M  ISO  4  38 100  60 101  72 100  80 101
M  END
> <Batch ID>
0036

> <Smiles>
CCc1ccc(C[101CH2:1][101O:1]c2ccc3c(c2)CN(C(=O)C(NC(=O)C(C)NC)C(C)(C)C)C(C(=O)NC2CCCc4ccccc42)C3)c(C[100NH:0][100C:0](=O)N2CCCC(n3nc(-c4ccc(Oc5ccc(F)cc5F)cc4)c(C(N)=O)c3N)C2)c1

> <Shape>
0.204

> <Color>
0.085

> <Negative vol penalty>
0.000

$$$$

  -OEChem-04052316563D

 83 91  0     1  0  0  0  0  0999 V2000
  -18.9115  -34.0408   23.8208 C   0  0  0  0  0  0  0  0  0  0  0  0
  -20.2477  -33.9795   23.4385 C   0  0  0  0  0  0  0  0  0  0  0  0
  -24.4605  -14.5706   19.7564 C   0  0  0  0  0  0  0  0  0  0  0  0
  -26.5720  -14.7927   20.9093 C   0  0  0  0  0  0  0  0  0  0  0  0
  -18.2508  -32.8831   24.2296 C   0  0  0  0  0  0  0  0  0  0  0  0
  -20.9244  -32.7606   23.4657 C   0  0  0  0  0  0  0  0  0  0  0  0
  -26.0749  -29.1564   20.0307 C   0  0  0  0  0  0  0  0  0  0  0  0
  -24.5661  -13.1817   19.8303 C   0  0  0  0  0  0  0  0  0  0  0  0
  -26.6777  -13.4038   20.9833 C   0  0  0  0  0  0  0  0  0  0  0  0
  -27.2635  -28.4731   20.2838 C   0  0  0  0  0  0  0  0  0  0  0  0
  -24.1049   -9.5817   20.0352 C   0  0  0  0  0  0  0  0  0  0  0  0
  -22.9713   -8.8645   20.4174 C   0  0  0  0  0  0  0  0  0  0  0  0
  -25.9981  -26.5244   20.9321 C   0  0  0  0  0  0  0  0  0  0  0  0
  -30.9060  -22.6748   20.1868 C   0  0  0  0  0  0  0  0  0  0  0  0
  -22.9337  -10.0466   22.5241 C   0  0  0  0  0  0  0  0  0  0  0  0
  -30.9923  -24.0772   18.2679 C   0  0  0  0  0  0  0  0  0  0  0  0
  -25.4634  -15.3761   20.2959 C   0  0  0  0  0  0  0  0  0  0  0  0
  -24.7523  -17.6692   21.1583 C   0  0  0  0  0  0  0  0  0  0  0  0
  -18.9170  -31.6476   24.2526 C   0  0  0  0  0  0  0  0  0  0  0  0
  -24.8367  -28.5314   20.2372 C   0  0  0  0  0  0  0  0  0  0  0  0
  -20.2723  -31.5855   23.8764 C   0  0  0  0  0  0  0  0  0  0  0  0
  -24.7952  -27.2011   20.6785 C   0  0  0  0  0  0  0  0  0  0  0  0
  -30.9838  -22.7997   18.8042 C   0  0  0  0  0  0  0  0  0  0  0  0
  -30.8400  -23.8151   20.9797 C   0  0  0  0  0  0  0  0  0  0  0  0
  -25.6747  -12.5983   20.4438 C   0  0  0  0  0  0  0  0  0  0  0  0
  -27.2252  -27.1578   20.7373 C   0  0  0  0  0  0  0  0  0  0  0  0
  -24.6530  -10.5313   20.8975 C   0  0  0  0  0  0  0  0  0  0  0  0
  -22.3857   -9.0969   21.6618 C   0  0  0  0  0  0  0  0  0  0  0  0
  -24.0673  -10.7638   22.1420 C   0  0  0  0  0  0  0  0  0  0  0  0
  -25.3551  -16.8108   20.2193 C   0  0  0  0  0  0  0  0  0  0  0  0
  -30.8552  -25.0472   20.3460 C   0  0  0  0  0  0  0  0  0  0  0  0
  -24.9114  -18.9256   20.6267 C   0  0  0  0  0  0  0  0  0  0  0  0
  -24.1065  -17.3585   22.4001 C   0  0  0  0  0  0  0  0  0  0  0  0
  -22.3395  -29.0706   22.1285 C   0  0  0  0  0  0  0  0  0  0  0  0
  -21.0195  -26.6468   20.4241 C   0  0  0  0  0  0  0  0  0  0  0  0
  -21.4878  -23.8686   18.4982 C   0  0  0  0  0  0  0  0  0  0  0  0
  -28.8755  -21.2594   16.7940 C   0  0  0  0  0  0  0  0  0  0  0  0
  -18.1743  -30.4316   24.7471 C   0  0  0  0  0  0  0  0  0  0  0  0
  -23.5639  -29.2734   19.9341 C   0  0  0  0  0  0  0  0  0  0  0  0
  -23.4920  -26.4782   20.8966 C   0  0  0  0  0  0  0  0  0  0  0  0
  -18.8572  -29.1139   24.3899 C   0  0  0  0  0  0  0  0  0  0  0  0
  -25.3340  -21.1915   16.4341 C   0  0  0  0  0  0  0  0  0  0  0  0
  -20.3493  -29.1849   24.6991 C   0  0  0  0  0  0  0  0  0  0  0  0
  -24.8834  -20.1385   17.4481 C   0  0  0  0  0  0  0  0  0  0  0  0
  -26.6604  -20.8129   15.7789 C   0  0  0  0  0  0  0  0  0  0  0  0
  -27.3033  -19.4604   17.7363 C   0  0  0  0  0  0  0  0  0  0  0  0
  -21.0334  -30.2775   23.8687 C   0  0  1  0  0  0  0  0  0  0  0  0
  -22.3531  -28.7084   20.6703 C   0  0  1  0  0  0  0  0  0  0  0  0
  -25.9982  -19.8254   18.4642 C   0  0  2  0  0  0  0  0  0  0  0  0
  -32.0006  -23.8880   24.6611 C   0  0  0  0  0  0  0  0  0  0  0  0
  -20.2184  -22.0776   17.2825 C   0  0  0  0  0  0  0  0  0  0  0  0
  -20.4189  -25.2722   23.0811 C   0  0  0  0  0  0  0  0  0  0  0  0
  -20.0454  -23.1442   21.8161 C   0  0  0  0  0  0  0  0  0  0  0  0
  -18.5833  -25.1198   21.3894 C   0  0  0  0  0  0  0  0  0  0  0  0
  -22.6338  -24.6658   15.8886 C   0  0  0  0  0  0  0  0  0  0  0  0
  -30.7547  -23.6884   22.4616 C   0  0  0  0  0  0  0  0  0  0  0  0
  -31.0564  -21.5999   17.9284 C   0  0  0  0  0  0  0  0  0  0  0  0
  -30.7869  -26.3194   21.1554 C   0  0  0  0  0  0  0  0  0  0  0  0
  -32.0982  -23.9839   23.1468 C   0  0  0  0  0  0  0  0  0  0  0  0
  -29.6030  -27.1952   20.7600 C   0  0  0  0  0  0  0  0  0  1  0  0
  -20.9724  -25.1443   20.5625 C   0  0  1  0  0  0  0  0  0  0  0  0
  -20.8753  -23.4450   17.1754 C   0  0  2  0  0  0  0  0  0  0  0  0
  -20.0297  -24.6841   21.7101 C   0  0  0  0  0  0  0  0  0  0  0  0
  -30.9299  -25.2082   19.0058 N   0  0  0  0  0  0  0  0  0  0  0  0
  -25.8593  -17.4665   19.1706 N   0  0  0  0  0  0  0  0  0  0  0  0
  -25.5736  -18.7502   19.4474 N   0  0  0  0  0  0  0  0  0  0  0  0
  -22.2747  -27.2483   20.5923 N   0  0  0  0  0  0  0  0  0  0  0  0
  -27.6751  -20.5300   16.7969 N   0  0  0  0  0  0  0  0  0  0  0  0
  -24.5479  -20.1522   21.0576 N   0  0  0  0  0  0  0  0  0  0  0  0
  -24.0305  -16.0163   22.7962 N   0  0  0  0  0  0  0  0  0  0  0  0
  -21.2452  -29.8226   22.5113 N   0  0  0  0  0  0  0  0  0  0  0  0
  -20.6116  -24.6243   19.2481 N   0  0  0  0  0  0  0  0  0  0  0  0
  -29.7803  -20.9328   17.7967 N   0  0  0  0  0  0  0  0  0  0  0  0
  -21.9220  -23.3819   16.1165 N   0  3  0  0  0  0  0  0  0  0  0  0
  -23.5969  -18.2434   23.1287 O   0  0  0  0  0  0  0  0  0  0  0  0
  -23.2534  -28.6943   22.8531 O   0  0  0  0  0  0  0  0  0  0  0  0
  -19.9820  -27.2634   20.1688 O   0  0  0  0  0  0  0  0  0  0  0  0
  -22.6282  -23.5569   18.8344 O   0  0  0  0  0  0  0  0  0  0  0  0
  -29.1204  -22.1404   15.9628 O   0  0  0  0  0  0  0  0  0  0  0  0
  -25.7780  -11.2431   20.5163 O   0  0  0  0  0  0  0  0  0  0  0  0
  -28.3839  -26.4888   20.9857 O   0  0  0  0  0  0  0  0  0  1  0  0
  -21.2961   -8.4092   22.0280 F   0  0  0  0  0  0  0  0  0  0  0  0
  -24.5886  -11.6756   22.9741 F   0  0  0  0  0  0  0  0  0  0  0  0
  1  2  1  0  0  0  0
  1  5  2  0  0  0  0
  2  6  2  0  0  0  0
  3  8  2  0  0  0  0
  3 17  1  0  0  0  0
  4  9  1  0  0  0  0
  4 17  2  0  0  0  0
  5 19  1  0  0  0  0
  6 21  1  0  0  0  0
  7 10  2  0  0  0  0
  7 20  1  0  0  0  0
  8 25  1  0  0  0  0
  9 25  2  0  0  0  0
 10 26  1  0  0  0  0
 11 12  2  0  0  0  0
 11 27  1  0  0  0  0
 12 28  1  0  0  0  0
 13 22  1  0  0  0  0
 13 26  2  0  0  0  0
 14 23  2  0  0  0  0
 14 24  1  0  0  0  0
 15 28  2  0  0  0  0
 15 29  1  0  0  0  0
 16 23  1  0  0  0  0
 16 64  2  0  0  0  0
 17 30  1  0  0  0  0
 18 30  1  0  0  0  0
 18 32  2  0  0  0  0
 18 33  1  0  0  0  0
 19 21  2  0  0  0  0
 19 38  1  0  0  0  0
 20 22  2  0  0  0  0
 20 39  1  0  0  0  0
 21 47  1  0  0  0  0
 22 40  1  0  0  0  0
 23 57  1  0  0  0  0
 24 31  2  0  0  0  0
 24 56  1  0  0  0  0
 25 80  1  0  0  0  0
 26 81  1  0  0  0  0
 27 29  2  0  0  0  0
 27 80  1  0  0  0  0
 28 82  1  0  0  0  0
 29 83  1  0  0  0  0
 30 65  2  0  0  0  0
 31 58  1  0  0  0  0
 31 64  1  0  0  0  0
 32 66  1  0  0  0  0
 32 69  1  0  0  0  0
 33 70  1  0  0  0  0
 33 75  2  0  0  0  0
 34 48  1  0  0  0  0
 34 71  1  0  0  0  0
 34 76  2  0  0  0  0
 35 61  1  0  0  0  0
 35 67  1  0  0  0  0
 35 77  2  0  0  0  0
 36 62  1  0  0  0  0
 36 72  1  0  0  0  0
 36 78  2  0  0  0  0
 37 68  1  0  0  0  0
 37 73  1  0  0  0  0
 37 79  2  0  0  0  0
 38 41  1  0  0  0  0
 39 48  1  0  0  0  0
 40 67  1  0  0  0  0
 41 43  1  0  0  0  0
 42 44  1  0  0  0  0
 42 45  1  0  0  0  0
 43 47  1  0  0  0  0
 44 49  1  0  0  0  0
 45 68  1  0  0  0  0
 46 49  1  0  0  0  0
 46 68  1  0  0  0  0
 47 71  1  0  0  0  0
 48 67  1  0  0  0  0
 49 66  1  0  0  0  0
 50 59  1  0  0  0  0
 51 62  1  0  0  0  0
 52 63  1  0  0  0  0
 53 63  1  0  0  0  0
 54 63  1  0  0  0  0
 55 74  1  0  0  0  0
 56 59  1  0  0  0  0
 57 73  1  0  0  0  0
 58 60  1  0  0  0  0
 60 81  1  0  0  0  0
 61 63  1  0  0  0  0
 61 72  1  0  0  0  0
 62 74  1  0  0  0  0
 65 66  1  0  0  0  0
M  CHG  1  74   1
M  ISO  4  37 100  60 101  73 100  81 101
M  END
> <Batch ID>
0036

> <Smiles>
CCCc1cc(C[100NH:0][100C:0](=O)N2CCCC(n3nc(-c4ccc(Oc5ccc(F)cc5F)cc4)c(C(N)=O)c3N)C2)cnc1C[101CH2:1][101O:1]c1ccc2c(c1)CN(C(=O)C(NC(=O)C(C)NC)C(C)(C)C)C(C(=O)NC1CCCc3ccccc31)C2

> <Shape>
0.207

> <Color>
0.099

> <Negative vol penalty>
0.000

$$$$

  -OEChem-04052316563D

 84 92  0     1  0  0  0  0  0999 V2000
  -32.2968  -25.2348   15.7959 C   0  0  0  0  0  0  0  0  0  0  0  0
  -30.9578  -25.4208   15.4673 C   0  0  0  0  0  0  0  0  0  0  0  0
  -24.2099  -11.8564   20.0914 C   0  0  0  0  0  0  0  0  0  0  0  0
  -25.0371  -12.2230   22.3315 C   0  0  0  0  0  0  0  0  0  0  0  0
  -32.6672  -25.0473   17.1269 C   0  0  0  0  0  0  0  0  0  0  0  0
  -29.9882  -25.4182   16.4695 C   0  0  0  0  0  0  0  0  0  0  0  0
  -23.7018  -28.4061   18.1632 C   0  0  0  0  0  0  0  0  0  0  0  0
  -24.1544  -10.4844   20.3363 C   0  0  0  0  0  0  0  0  0  0  0  0
  -24.9816  -10.8509   22.5765 C   0  0  0  0  0  0  0  0  0  0  0  0
  -22.4114  -28.0517   18.5544 C   0  0  0  0  0  0  0  0  0  0  0  0
  -23.4528   -6.9209   20.4924 C   0  0  0  0  0  0  0  0  0  0  0  0
  -22.3089   -6.2350   20.0841 C   0  0  0  0  0  0  0  0  0  0  0  0
  -20.5262  -25.0065   17.5373 C   0  0  0  0  0  0  0  0  0  0  0  0
  -23.1769  -27.7976   20.8279 C   0  0  0  0  0  0  0  0  0  0  0  0
  -21.4894  -24.7017   19.7199 C   0  0  0  0  0  0  0  0  0  0  0  0
  -20.9586   -7.6320   21.5200 C   0  0  0  0  0  0  0  0  0  0  0  0
  -21.1328  -23.8184   17.1629 C   0  0  0  0  0  0  0  0  0  0  0  0
  -24.6513  -12.7257   21.0889 C   0  0  0  0  0  0  0  0  0  0  0  0
  -23.6903  -15.0886   21.0581 C   0  0  0  0  0  0  0  0  0  0  0  0
  -31.7027  -25.0520   18.1469 C   0  0  0  0  0  0  0  0  0  0  0  0
  -24.7435  -28.4484   19.1010 C   0  0  0  0  0  0  0  0  0  0  0  0
  -30.3459  -25.2292   17.8152 C   0  0  0  0  0  0  0  0  0  0  0  0
  -24.4791  -28.1553   20.4465 C   0  0  0  0  0  0  0  0  0  0  0  0
  -20.7129  -25.4497   18.8419 C   0  0  0  0  0  0  0  0  0  0  0  0
  -24.5402   -9.9816   21.5789 C   0  0  0  0  0  0  0  0  0  0  0  0
  -22.1494  -27.7445   19.8864 C   0  0  0  0  0  0  0  0  0  0  0  0
  -23.3495   -7.9623   21.4146 C   0  0  0  0  0  0  0  0  0  0  0  0
  -21.0618   -6.5905   20.5978 C   0  0  0  0  0  0  0  0  0  0  0  0
  -22.1024   -8.3179   21.9284 C   0  0  0  0  0  0  0  0  0  0  0  0
  -24.7094  -14.1431   20.8363 C   0  0  0  0  0  0  0  0  0  0  0  0
  -22.0527  -23.5271   19.2479 C   0  0  0  0  0  0  0  0  0  0  0  0
  -24.2384  -16.2838   20.6610 C   0  0  0  0  0  0  0  0  0  0  0  0
  -22.3666  -14.9031   21.5768 C   0  0  0  0  0  0  0  0  0  0  0  0
  -27.4950  -26.9001   19.4686 C   0  0  0  0  0  0  0  0  0  0  0  0
  -27.9144  -29.0171   21.8903 C   0  0  0  0  0  0  0  0  0  0  0  0
  -26.5024  -31.1250   24.1728 C   0  0  0  0  0  0  0  0  0  0  0  0
  -28.4982  -19.8877   20.5545 C   0  0  0  0  0  0  0  0  0  0  0  0
  -32.1458  -24.7981   19.5660 C   0  0  0  0  0  0  0  0  0  0  0  0
  -26.1243  -28.8586   18.6679 C   0  0  0  0  0  0  0  0  0  0  0  0
  -25.5582  -28.2057   21.4960 C   0  0  0  0  0  0  0  0  0  0  0  0
  -31.0995  -25.1828   20.6089 C   0  0  0  0  0  0  0  0  0  0  0  0
  -28.5119  -17.2701   18.1410 C   0  0  0  0  0  0  0  0  0  0  0  0
  -29.7266  -24.6519   20.2087 C   0  0  0  0  0  0  0  0  0  0  0  0
  -27.4447  -16.2989   18.6487 C   0  0  0  0  0  0  0  0  0  0  0  0
  -29.2874  -17.9082   19.2914 C   0  0  0  0  0  0  0  0  0  0  0  0
  -27.3834  -17.5896   20.8233 C   0  0  0  0  0  0  0  0  0  0  0  0
  -29.2677  -25.2575   18.8767 C   0  0  1  0  0  0  0  0  0  0  0  0
  -27.2170  -28.3695   19.6135 C   0  0  1  0  0  0  0  0  0  0  0  0
  -26.5374  -16.9631   19.7016 C   0  0  2  0  0  0  0  0  0  0  0  0
  -18.6942  -26.5141   19.9073 C   0  0  0  0  0  0  0  0  0  0  0  0
  -27.0985  -32.6895   26.0421 C   0  0  0  0  0  0  0  0  0  0  0  0
  -28.4289  -26.6306   23.7205 C   0  0  0  0  0  0  0  0  0  0  0  0
  -28.0723  -28.1461   25.6812 C   0  0  0  0  0  0  0  0  0  0  0  0
  -29.9492  -28.5804   24.0965 C   0  0  0  0  0  0  0  0  0  0  0  0
  -25.3173  -33.4432   22.7656 C   0  0  0  0  0  0  0  0  0  0  0  0
  -22.8921  -22.6991   20.1626 C   0  0  0  0  0  0  0  0  0  0  0  0
  -24.3747  -23.0962   20.1088 C   0  0  0  0  0  0  0  0  0  0  0  0
  -25.2314  -22.2152   21.0205 C   0  0  0  0  0  0  0  0  0  0  0  0
  -26.7007  -22.6462   20.9882 C   0  0  0  0  0  0  0  0  0  0  0  0
  -27.5854  -21.7786   21.8774 C   0  0  0  0  0  0  0  0  0  0  0  0
  -20.0742  -26.7399   19.3029 C   0  0  1  0  0  0  0  0  0  1  0  0
  -27.5744  -29.0402   23.3609 C   0  0  1  0  0  0  0  0  0  0  0  0
  -26.8226  -32.5595   24.5522 C   0  0  2  0  0  0  0  0  0  0  0  0
  -28.4860  -28.0964   24.1949 C   0  0  0  0  0  0  0  0  0  0  0  0
  -21.8939  -23.0645   17.9875 N   0  0  0  0  0  0  0  0  0  0  0  0
  -25.8208  -14.6904   20.3369 N   0  0  0  0  0  0  0  0  0  0  0  0
  -25.5031  -15.9927   20.2415 N   0  0  0  0  0  0  0  0  0  0  0  0
  -26.8933  -28.6060   21.0218 N   0  0  0  0  0  0  0  0  0  0  0  0
  -28.3689  -18.5217   20.2536 N   0  0  0  0  0  0  0  0  0  0  0  0
  -23.7571  -17.5447   20.6332 N   0  0  0  0  0  0  0  0  0  0  0  0
  -21.9649  -13.6093   21.9360 N   0  0  0  0  0  0  0  0  0  0  0  0
  -28.7869  -26.6081   19.0746 N   0  0  0  0  0  0  0  0  0  0  0  0
  -27.6291  -30.4394   23.7706 N   0  0  0  0  0  0  0  0  0  0  0  0
  -27.5836  -20.3908   21.4716 N   0  0  0  0  0  0  0  0  0  0  0  0
  -25.6820  -33.4539   24.2057 N   0  3  0  0  0  0  0  0  0  0  0  0
  -21.5581  -15.8540   21.7021 O   0  0  0  0  0  0  0  0  0  0  0  0
  -26.6039  -26.0910   19.6987 O   0  0  0  0  0  0  0  0  0  0  0  0
  -29.0421  -29.3582   21.5249 O   0  0  0  0  0  0  0  0  0  0  0  0
  -25.3670  -30.6581   24.2313 O   0  0  0  0  0  0  0  0  0  0  0  0
  -29.3612  -20.6068   20.0396 O   0  0  0  0  0  0  0  0  0  0  0  0
  -24.4860   -8.6429   21.8184 O   0  0  0  0  0  0  0  0  0  0  0  0
  -20.8909  -27.3976   20.2708 O   0  0  0  0  0  0  0  0  0  1  0  0
  -19.9633   -5.9327   20.2045 F   0  0  0  0  0  0  0  0  0  0  0  0
  -21.9968   -9.3183   22.8137 F   0  0  0  0  0  0  0  0  0  0  0  0
  1  2  1  0  0  0  0
  1  5  2  0  0  0  0
  2  6  2  0  0  0  0
  3  8  2  0  0  0  0
  3 18  1  0  0  0  0
  4  9  1  0  0  0  0
  4 18  2  0  0  0  0
  5 20  1  0  0  0  0
  6 22  1  0  0  0  0
  7 10  2  0  0  0  0
  7 21  1  0  0  0  0
  8 25  1  0  0  0  0
  9 25  2  0  0  0  0
 10 26  1  0  0  0  0
 11 12  2  0  0  0  0
 11 27  1  0  0  0  0
 12 28  1  0  0  0  0
 13 17  2  0  0  0  0
 13 24  1  0  0  0  0
 14 23  1  0  0  0  0
 14 26  2  0  0  0  0
 15 24  2  0  0  0  0
 15 31  1  0  0  0  0
 16 28  2  0  0  0  0
 16 29  1  0  0  0  0
 17 65  1  0  0  0  0
 18 30  1  0  0  0  0
 19 30  1  0  0  0  0
 19 32  2  0  0  0  0
 19 33  1  0  0  0  0
 20 22  2  0  0  0  0
 20 38  1  0  0  0  0
 21 23  2  0  0  0  0
 21 39  1  0  0  0  0
 22 47  1  0  0  0  0
 23 40  1  0  0  0  0
 24 61  1  0  0  0  0
 25 81  1  0  0  0  0
 26 82  1  0  0  0  0
 27 29  2  0  0  0  0
 27 81  1  0  0  0  0
 28 83  1  0  0  0  0
 29 84  1  0  0  0  0
 30 66  2  0  0  0  0
 31 56  1  0  0  0  0
 31 65  2  0  0  0  0
 32 67  1  0  0  0  0
 32 70  1  0  0  0  0
 33 71  1  0  0  0  0
 33 76  2  0  0  0  0
 34 48  1  0  0  0  0
 34 72  1  0  0  0  0
 34 77  2  0  0  0  0
 35 62  1  0  0  0  0
 35 68  1  0  0  0  0
 35 78  2  0  0  0  0
 36 63  1  0  0  0  0
 36 73  1  0  0  0  0
 36 79  2  0  0  0  0
 37 69  1  0  0  0  0
 37 74  1  0  0  0  0
 37 80  2  0  0  0  0
 38 41  1  0  0  0  0
 39 48  1  0  0  0  0
 40 68  1  0  0  0  0
 41 43  1  0  0  0  0
 42 44  1  0  0  0  0
 42 45  1  0  0  0  0
 43 47  1  0  0  0  0
 44 49  1  0  0  0  0
 45 69  1  0  0  0  0
 46 49  1  0  0  0  0
 46 69  1  0  0  0  0
 47 72  1  0  0  0  0
 48 68  1  0  0  0  0
 49 67  1  0  0  0  0
 50 61  1  0  0  0  0
 51 63  1  0  0  0  0
 52 64  1  0  0  0  0
 53 64  1  0  0  0  0
 54 64  1  0  0  0  0
 55 75  1  0  0  0  0
 56 57  1  0  0  0  0
 57 58  1  0  0  0  0
 58 59  1  0  0  0  0
 59 60  1  0  0  0  0
 60 74  1  0  0  0  0
 61 82  1  0  0  0  0
 62 64  1  0  0  0  0
 62 73  1  0  0  0  0
 63 75  1  0  0  0  0
 66 67  1  0  0  0  0
M  CHG  1  75   1
M  ISO  4  37 100  61 101  74 100  82 101
M  END
> <Batch ID>
0036

> <Smiles>
CNC(C)C(=O)NC(C(=O)N1Cc2cc([101O:1][101CH:1](C)c3ccnc(CCCCC[100NH:0][100C:0](=O)N4CCCC(n5nc(-c6ccc(Oc7ccc(F)cc7F)cc6)c(C(N)=O)c5N)C4)c3)ccc2CC1C(=O)NC1CCCc2ccccc21)C(C)(C)C

> <Shape>
0.262

> <Color>
0.077

> <Negative vol penalty>
0.000

$$$$

  -OEChem-04052316563D

 80 88  0     1  0  0  0  0  0999 V2000
  -24.9654  -28.5462   11.3258 C   0  0  0  0  0  0  0  0  0  0  0  0
  -25.3807  -27.4047   12.0038 C   0  0  0  0  0  0  0  0  0  0  0  0
  -23.0937   -9.8503   19.9754 C   0  0  0  0  0  0  0  0  0  0  0  0
  -23.8411   -9.9202   22.2718 C   0  0  0  0  0  0  0  0  0  0  0  0
  -25.4067  -29.8018   11.7413 C   0  0  0  0  0  0  0  0  0  0  0  0
  -26.2386  -27.5180   13.0973 C   0  0  0  0  0  0  0  0  0  0  0  0
  -26.2783  -24.0194   18.1236 C   0  0  0  0  0  0  0  0  0  0  0  0
  -22.3558   -8.6991   20.2506 C   0  0  0  0  0  0  0  0  0  0  0  0
  -23.1032   -8.7690   22.5470 C   0  0  0  0  0  0  0  0  0  0  0  0
  -27.0591  -22.9275   18.5003 C   0  0  0  0  0  0  0  0  0  0  0  0
  -19.8769   -7.9659   23.1527 C   0  0  0  0  0  0  0  0  0  0  0  0
  -19.1140   -7.9507   24.3202 C   0  0  0  0  0  0  0  0  0  0  0  0
  -28.5144  -24.4022   19.7360 C   0  0  0  0  0  0  0  0  0  0  0  0
  -29.3071  -18.8129   20.7423 C   0  0  0  0  0  0  0  0  0  0  0  0
  -20.3636   -6.0405   25.1120 C   0  0  0  0  0  0  0  0  0  0  0  0
  -31.3815  -18.5571   19.9047 C   0  0  0  0  0  0  0  0  0  0  0  0
  -23.8364  -10.4609   20.9860 C   0  0  0  0  0  0  0  0  0  0  0  0
  -24.1629  -12.9843   20.8039 C   0  0  0  0  0  0  0  0  0  0  0  0
  -26.2627  -29.9313   12.8463 C   0  0  0  0  0  0  0  0  0  0  0  0
  -26.6165  -25.3144   18.5420 C   0  0  0  0  0  0  0  0  0  0  0  0
  -26.6928  -28.7764   13.5272 C   0  0  0  0  0  0  0  0  0  0  0  0
  -27.7348  -25.5085   19.3653 C   0  0  0  0  0  0  0  0  0  0  0  0
  -30.5075  -18.0683   20.8505 C   0  0  0  0  0  0  0  0  0  0  0  0
  -22.3605   -8.1584   21.5364 C   0  0  0  0  0  0  0  0  0  0  0  0
  -28.1790  -23.1192   19.3042 C   0  0  0  0  0  0  0  0  0  0  0  0
  -20.8832   -7.0183   22.9647 C   0  0  0  0  0  0  0  0  0  0  0  0
  -19.3573   -6.9880   25.2999 C   0  0  0  0  0  0  0  0  0  0  0  0
  -21.1266   -6.0557   23.9444 C   0  0  0  0  0  0  0  0  0  0  0  0
  -24.5993  -11.6498   20.7022 C   0  0  0  0  0  0  0  0  0  0  0  0
  -29.4840  -19.7339   19.7333 C   0  0  0  0  0  0  0  0  0  0  0  0
  -25.2522  -13.7314   20.4274 C   0  0  0  0  0  0  0  0  0  0  0  0
  -22.8870  -13.5024   21.2029 C   0  0  0  0  0  0  0  0  0  0  0  0
  -27.4345  -28.0072   17.0643 C   0  0  0  0  0  0  0  0  0  0  0  0
  -27.2745  -29.2413   20.0599 C   0  0  0  0  0  0  0  0  0  0  0  0
  -27.4168  -28.7024   23.4268 C   0  0  0  0  0  0  0  0  0  0  0  0
  -30.7283  -14.7903   20.6185 C   0  0  0  0  0  0  0  0  0  0  0  0
  -26.7509  -31.3060   13.2292 C   0  0  0  0  0  0  0  0  0  0  0  0
  -25.7486  -26.4784   18.1491 C   0  0  0  0  0  0  0  0  0  0  0  0
  -28.1290  -26.8761   19.8580 C   0  0  0  0  0  0  0  0  0  0  0  0
  -27.3598  -31.3685   14.6276 C   0  0  0  0  0  0  0  0  0  0  0  0
  -29.6187  -12.3389   18.2870 C   0  0  0  0  0  0  0  0  0  0  0  0
  -28.3266  -30.2081   14.8412 C   0  0  0  0  0  0  0  0  0  0  0  0
  -28.1808  -12.0469   18.7197 C   0  0  0  0  0  0  0  0  0  0  0  0
  -30.5279  -12.5959   19.4867 C   0  0  0  0  0  0  0  0  0  0  0  0
  -28.6142  -13.3495   20.8444 C   0  0  0  0  0  0  0  0  0  0  0  0
  -27.6033  -28.8603   14.7331 C   0  0  1  0  0  0  0  0  0  0  0  0
  -26.4800  -27.8159   18.2088 C   0  0  1  0  0  0  0  0  0  0  0  0
  -27.6475  -13.1389   19.6665 C   0  0  2  0  0  0  0  0  0  0  0  0
  -32.3178  -21.3808   18.6676 C   0  0  0  0  0  0  0  0  0  0  0  0
  -27.2886  -29.9109   25.6224 C   0  0  0  0  0  0  0  0  0  0  0  0
  -30.1056  -30.2990   19.6404 C   0  0  0  0  0  0  0  0  0  0  0  0
  -30.2706  -30.6388   22.1154 C   0  0  0  0  0  0  0  0  0  0  0  0
  -28.5595  -31.8875   20.7981 C   0  0  0  0  0  0  0  0  0  0  0  0
  -25.0420  -27.1524   24.2734 C   0  0  0  0  0  0  0  0  0  0  0  0
  -30.7740  -16.9718   21.8009 C   0  0  0  0  0  0  0  0  0  0  0  0
  -28.5397  -20.7708   19.2000 C   0  0  0  0  0  0  0  0  0  1  0  0
  -31.3405  -20.3359   18.1571 C   0  0  0  0  0  0  0  0  0  0  0  0
  -28.2496  -29.4107   21.1999 C   0  0  1  0  0  0  0  0  0  0  0  0
  -26.5104  -29.1528   24.5582 C   0  0  2  0  0  0  0  0  0  0  0  0
  -29.2903  -30.5333   20.9277 C   0  0  0  0  0  0  0  0  0  0  0  0
  -25.8670  -11.5516   20.2931 N   0  0  0  0  0  0  0  0  0  0  0  0
  -30.7485  -19.5690   19.2312 N   0  0  0  0  0  0  0  0  0  0  0  0
  -26.2365  -12.8339   20.1343 N   0  0  0  0  0  0  0  0  0  0  0  0
  -27.2524  -27.9832   19.4415 N   0  0  0  0  0  0  0  0  0  0  0  0
  -29.9661  -13.6429   20.3435 N   0  0  0  0  0  0  0  0  0  0  0  0
  -25.4546  -15.0620   20.3218 N   0  0  0  0  0  0  0  0  0  0  0  0
  -21.8790  -12.5955   21.5578 N   0  0  0  0  0  0  0  0  0  0  0  0
  -26.8638  -28.5849   15.9463 N   0  0  0  0  0  0  0  0  0  0  0  0
  -27.4442  -29.6202   22.3982 N   0  0  0  0  0  0  0  0  0  0  0  0
  -30.1188  -15.7362   21.4337 N   0  0  0  0  0  0  0  0  0  0  0  0
  -25.8600  -27.9758   25.2006 N   0  3  0  0  0  0  0  0  0  0  0  0
  -22.6426  -14.7325   21.2279 O   0  0  0  0  0  0  0  0  0  0  0  0
  -28.6027  -27.6579   17.1870 O   0  0  0  0  0  0  0  0  0  0  0  0
  -26.5538  -30.1882   19.7348 O   0  0  0  0  0  0  0  0  0  0  0  0
  -28.0412  -27.6442   23.4545 O   0  0  0  0  0  0  0  0  0  0  0  0
  -31.8656  -14.9616   20.1666 O   0  0  0  0  0  0  0  0  0  0  0  0
  -21.6404   -7.0352   21.8053 O   0  0  0  0  0  0  0  0  0  0  0  0
  -28.9433  -22.0552   19.6728 O   0  0  0  0  0  0  0  0  0  1  0  0
  -18.6256   -6.9745   26.4218 F   0  0  0  0  0  0  0  0  0  0  0  0
  -22.0927   -5.1436   23.7699 F   0  0  0  0  0  0  0  0  0  0  0  0
  1  2  1  0  0  0  0
  1  5  2  0  0  0  0
  2  6  2  0  0  0  0
  3  8  2  0  0  0  0
  3 17  1  0  0  0  0
  4  9  1  0  0  0  0
  4 17  2  0  0  0  0
  5 19  1  0  0  0  0
  6 21  1  0  0  0  0
  7 10  2  0  0  0  0
  7 20  1  0  0  0  0
  8 24  1  0  0  0  0
  9 24  2  0  0  0  0
 10 25  1  0  0  0  0
 11 12  2  0  0  0  0
 11 26  1  0  0  0  0
 12 27  1  0  0  0  0
 13 22  1  0  0  0  0
 13 25  2  0  0  0  0
 14 23  1  0  0  0  0
 14 30  2  0  0  0  0
 15 27  2  0  0  0  0
 15 28  1  0  0  0  0
 16 23  2  0  0  0  0
 16 62  1  0  0  0  0
 17 29  1  0  0  0  0
 18 29  1  0  0  0  0
 18 31  2  0  0  0  0
 18 32  1  0  0  0  0
 19 21  2  0  0  0  0
 19 37  1  0  0  0  0
 20 22  2  0  0  0  0
 20 38  1  0  0  0  0
 21 46  1  0  0  0  0
 22 39  1  0  0  0  0
 23 55  1  0  0  0  0
 24 77  1  0  0  0  0
 25 78  1  0  0  0  0
 26 28  2  0  0  0  0
 26 77  1  0  0  0  0
 27 79  1  0  0  0  0
 28 80  1  0  0  0  0
 29 61  2  0  0  0  0
 30 56  1  0  0  0  0
 30 62  1  0  0  0  0
 31 63  1  0  0  0  0
 31 66  1  0  0  0  0
 32 67  1  0  0  0  0
 32 72  2  0  0  0  0
 33 47  1  0  0  0  0
 33 68  1  0  0  0  0
 33 73  2  0  0  0  0
 34 58  1  0  0  0  0
 34 64  1  0  0  0  0
 34 74  2  0  0  0  0
 35 59  1  0  0  0  0
 35 69  1  0  0  0  0
 35 75  2  0  0  0  0
 36 65  1  0  0  0  0
 36 70  1  0  0  0  0
 36 76  2  0  0  0  0
 37 40  1  0  0  0  0
 38 47  1  0  0  0  0
 39 64  1  0  0  0  0
 40 42  1  0  0  0  0
 41 43  1  0  0  0  0
 41 44  1  0  0  0  0
 42 46  1  0  0  0  0
 43 48  1  0  0  0  0
 44 65  1  0  0  0  0
 45 48  1  0  0  0  0
 45 65  1  0  0  0  0
 46 68  1  0  0  0  0
 47 64  1  0  0  0  0
 48 63  1  0  0  0  0
 49 57  1  0  0  0  0
 50 59  1  0  0  0  0
 51 60  1  0  0  0  0
 52 60  1  0  0  0  0
 53 60  1  0  0  0  0
 54 71  1  0  0  0  0
 55 70  1  0  0  0  0
 56 78  1  0  0  0  0
 57 62  1  0  0  0  0
 58 60  1  0  0  0  0
 58 69  1  0  0  0  0
 59 71  1  0  0  0  0
 61 63  1  0  0  0  0
M  CHG  1  71   1
M  ISO  4  36 100  56 101  70 100  78 101
M  END
> <Batch ID>
0036

> <Smiles>
CCn1cc(C[100NH:0][100C:0](=O)N2CCCC(n3nc(-c4ccc(Oc5ccc(F)cc5F)cc4)c(C(N)=O)c3N)C2)cc1[101CH2:1][101O:1]c1ccc2c(c1)CN(C(=O)C(NC(=O)C(C)NC)C(C)(C)C)C(C(=O)NC1CCCc3ccccc31)C2

> <Shape>
0.270

> <Color>
0.207

> <Negative vol penalty>
0.000

$$$$

  -OEChem-04052316563D

 88 96  0     1  0  0  0  0  0999 V2000
  -28.2663  -32.4349   27.7669 C   0  0  0  0  0  0  0  0  0  0  0  0
  -28.3727  -31.3648   26.8844 C   0  0  0  0  0  0  0  0  0  0  0  0
  -29.1861  -11.5690   20.5434 C   0  0  0  0  0  0  0  0  0  0  0  0
  -28.2604  -13.3387   19.1839 C   0  0  0  0  0  0  0  0  0  0  0  0
  -27.0304  -33.0464   27.9736 C   0  0  0  0  0  0  0  0  0  0  0  0
  -27.2429  -30.9047   26.2088 C   0  0  0  0  0  0  0  0  0  0  0  0
  -27.0215  -28.6390   20.5235 C   0  0  0  0  0  0  0  0  0  0  0  0
  -30.3840  -11.6502   19.8336 C   0  0  0  0  0  0  0  0  0  0  0  0
  -29.4584  -13.4200   18.4741 C   0  0  0  0  0  0  0  0  0  0  0  0
  -26.9977  -27.3337   20.0342 C   0  0  0  0  0  0  0  0  0  0  0  0
  -33.8097  -11.6389   18.6170 C   0  0  0  0  0  0  0  0  0  0  0  0
  -34.9981  -11.6278   19.3470 C   0  0  0  0  0  0  0  0  0  0  0  0
  -24.5919  -27.4376   19.8914 C   0  0  0  0  0  0  0  0  0  0  0  0
  -26.0479  -20.7062   19.4761 C   0  0  0  0  0  0  0  0  0  0  0  0
  -34.3050  -13.6312   20.5059 C   0  0  0  0  0  0  0  0  0  0  0  0
  -24.4877  -22.5565   18.2160 C   0  0  0  0  0  0  0  0  0  0  0  0
  -28.1242  -12.4132   20.2186 C   0  0  0  0  0  0  0  0  0  0  0  0
  -26.5372  -13.0407   22.1146 C   0  0  0  0  0  0  0  0  0  0  0  0
  -25.8868  -32.5998   27.2929 C   0  0  0  0  0  0  0  0  0  0  0  0
  -25.8279  -29.3507   20.7110 C   0  0  0  0  0  0  0  0  0  0  0  0
  -25.9903  -31.5099   26.4076 C   0  0  0  0  0  0  0  0  0  0  0  0
  -24.6034  -28.7527   20.3808 C   0  0  0  0  0  0  0  0  0  0  0  0
  -26.6491  -21.7914   18.8483 C   0  0  0  0  0  0  0  0  0  0  0  0
  -25.8612  -22.7387   18.2039 C   0  0  0  0  0  0  0  0  0  0  0  0
  -30.5202  -12.5758   18.7989 C   0  0  0  0  0  0  0  0  0  0  0  0
  -25.7826  -26.7318   19.7208 C   0  0  0  0  0  0  0  0  0  0  0  0
  -32.8689  -12.6463   18.8313 C   0  0  0  0  0  0  0  0  0  0  0  0
  -35.2458  -12.6239   20.2915 C   0  0  0  0  0  0  0  0  0  0  0  0
  -33.1166  -13.6424   19.7757 C   0  0  0  0  0  0  0  0  0  0  0  0
  -26.8863  -12.3293   20.9511 C   0  0  0  0  0  0  0  0  0  0  0  0
  -24.6660  -20.6151   19.4314 C   0  0  0  0  0  0  0  0  0  0  0  0
  -25.2684  -12.6080   22.4138 C   0  0  0  0  0  0  0  0  0  0  0  0
  -27.2922  -14.0063   22.8584 C   0  0  0  0  0  0  0  0  0  0  0  0
  -24.3478  -30.6278   23.2174 C   0  0  0  0  0  0  0  0  0  0  0  0
  -22.3338  -31.7782   20.9497 C   0  0  0  0  0  0  0  0  0  0  0  0
  -21.0216  -31.4697   17.8145 C   0  0  0  0  0  0  0  0  0  0  0  0
  -21.1362  -10.0559   18.6789 C   0  0  0  0  0  0  0  0  0  0  0  0
  -24.5635  -33.2620   27.5846 C   0  0  0  0  0  0  0  0  0  0  0  0
  -25.8724  -30.7674   21.2144 C   0  0  0  0  0  0  0  0  0  0  0  0
  -23.2953  -29.4810   20.5447 C   0  0  0  0  0  0  0  0  0  0  0  0
  -23.4870  -32.9551   26.5467 C   0  0  0  0  0  0  0  0  0  0  0  0
  -22.3790   -8.8311   21.9434 C   0  0  0  0  0  0  0  0  0  0  0  0
  -23.4579  -31.4627   26.2329 C   0  0  0  0  0  0  0  0  0  0  0  0
  -23.6850   -9.6052   22.1142 C   0  0  0  0  0  0  0  0  0  0  0  0
  -22.0343   -8.6179   20.4725 C   0  0  0  0  0  0  0  0  0  0  0  0
  -23.2995  -10.6480   19.8461 C   0  0  0  0  0  0  0  0  0  0  0  0
  -24.7925  -30.9980   25.6374 C   0  0  1  0  0  0  0  0  0  0  0  0
  -24.5611  -31.2166   21.8516 C   0  0  1  0  0  0  0  0  0  0  0  0
  -23.6518  -10.9202   21.3162 C   0  0  2  0  0  0  0  0  0  0  0  0
  -28.1361  -21.9189   18.8786 C   0  0  0  0  0  0  0  0  0  0  0  0
  -19.3693  -32.5378   16.2567 C   0  0  0  0  0  0  0  0  0  0  0  0
  -20.0408  -30.5378   22.5352 C   0  0  0  0  0  0  0  0  0  0  0  0
  -18.5930  -30.7951   20.5090 C   0  0  0  0  0  0  0  0  0  0  0  0
  -19.5607  -32.8121   21.6124 C   0  0  0  0  0  0  0  0  0  0  0  0
  -19.7415  -11.5992   17.3550 C   0  0  0  0  0  0  0  0  0  0  0  0
  -23.1178  -32.0622   15.8110 C   0  0  0  0  0  0  0  0  0  0  0  0
  -26.4610  -23.9353   17.5063 C   0  0  0  0  0  0  0  0  0  0  0  0
  -23.9866  -19.4636   20.0942 C   0  0  0  0  0  0  0  0  0  0  0  0
  -23.7859  -18.2372   19.1846 C   0  0  0  0  0  0  0  0  0  0  0  0
  -23.0227  -17.1043   19.8795 C   0  0  0  0  0  0  0  0  0  0  0  0
  -22.7597  -15.9020   18.9672 C   0  0  0  0  0  0  0  0  0  0  0  0
  -21.9339  -14.8007   19.6371 C   0  0  0  0  0  0  0  0  0  0  0  0
  -21.7257  -13.6131   18.6913 C   0  0  0  0  0  0  0  0  0  0  0  0
  -20.9162  -12.4904   19.3327 C   0  0  0  0  0  0  0  0  0  0  0  0
  -26.8851  -25.0248   18.4852 C   0  0  0  0  0  0  0  0  0  1  0  0
  -21.0725  -31.2788   20.2874 C   0  0  1  0  0  0  0  0  0  0  0  0
  -20.8225  -32.4829   16.7017 C   0  0  2  0  0  0  0  0  0  0  0  0
  -19.8411  -31.3413   21.2346 C   0  0  0  0  0  0  0  0  0  0  0  0
  -23.8676  -21.5154   18.8153 N   0  0  0  0  0  0  0  0  0  0  0  0
  -25.9177  -11.5070   20.5393 N   0  0  0  0  0  0  0  0  0  0  0  0
  -24.9474  -11.6989   21.4491 N   0  0  0  0  0  0  0  0  0  0  0  0
  -23.3907  -30.8619   21.0463 N   0  0  0  0  0  0  0  0  0  0  0  0
  -22.0522   -9.8780   19.7287 N   0  0  0  0  0  0  0  0  0  0  0  0
  -24.4072  -12.9203   23.4054 N   0  0  0  0  0  0  0  0  0  0  0  0
  -28.5793  -14.3357   22.4121 N   0  0  0  0  0  0  0  0  0  0  0  0
  -24.8847  -31.3803   24.2446 N   0  0  0  0  0  0  0  0  0  0  0  0
  -20.9220  -32.0529   19.0600 N   0  0  0  0  0  0  0  0  0  0  0  0
  -20.7000  -11.3652   18.4257 N   0  0  0  0  0  0  0  0  0  0  0  0
  -21.6621  -32.1287   15.5224 N   0  3  0  0  0  0  0  0  0  0  0  0
  -26.8452  -14.5485   23.8975 O   0  0  0  0  0  0  0  0  0  0  0  0
  -23.7399  -29.5699   23.3311 O   0  0  0  0  0  0  0  0  0  0  0  0
  -22.3822  -32.9406   21.3597 O   0  0  0  0  0  0  0  0  0  0  0  0
  -21.2396  -30.2793   17.6003 O   0  0  0  0  0  0  0  0  0  0  0  0
  -20.7241   -9.0978   18.0124 O   0  0  0  0  0  0  0  0  0  0  0  0
  -31.6891  -12.6555   18.1062 O   0  0  0  0  0  0  0  0  0  0  0  0
  -25.7565  -25.4576   19.2437 O   0  0  0  0  0  0  0  0  0  1  0  0
  -36.3865  -12.6122   20.9936 F   0  0  0  0  0  0  0  0  0  0  0  0
  -32.2160  -14.6121   19.9869 F   0  0  0  0  0  0  0  0  0  0  0  0
  1  2  1  0  0  0  0
  1  5  2  0  0  0  0
  2  6  2  0  0  0  0
  3  8  2  0  0  0  0
  3 17  1  0  0  0  0
  4  9  1  0  0  0  0
  4 17  2  0  0  0  0
  5 19  1  0  0  0  0
  6 21  1  0  0  0  0
  7 10  2  0  0  0  0
  7 20  1  0  0  0  0
  8 25  1  0  0  0  0
  9 25  2  0  0  0  0
 10 26  1  0  0  0  0
 11 12  2  0  0  0  0
 11 27  1  0  0  0  0
 12 28  1  0  0  0  0
 13 22  1  0  0  0  0
 13 26  2  0  0  0  0
 14 23  1  0  0  0  0
 14 31  2  0  0  0  0
 15 28  2  0  0  0  0
 15 29  1  0  0  0  0
 16 24  1  0  0  0  0
 16 69  2  0  0  0  0
 17 30  1  0  0  0  0
 18 30  1  0  0  0  0
 18 32  2  0  0  0  0
 18 33  1  0  0  0  0
 19 21  2  0  0  0  0
 19 38  1  0  0  0  0
 20 22  2  0  0  0  0
 20 39  1  0  0  0  0
 21 47  1  0  0  0  0
 22 40  1  0  0  0  0
 23 24  2  0  0  0  0
 23 50  1  0  0  0  0
 24 57  1  0  0  0  0
 25 85  1  0  0  0  0
 26 86  1  0  0  0  0
 27 29  2  0  0  0  0
 27 85  1  0  0  0  0
 28 87  1  0  0  0  0
 29 88  1  0  0  0  0
 30 70  2  0  0  0  0
 31 58  1  0  0  0  0
 31 69  1  0  0  0  0
 32 71  1  0  0  0  0
 32 74  1  0  0  0  0
 33 75  1  0  0  0  0
 33 80  2  0  0  0  0
 34 48  1  0  0  0  0
 34 76  1  0  0  0  0
 34 81  2  0  0  0  0
 35 66  1  0  0  0  0
 35 72  1  0  0  0  0
 35 82  2  0  0  0  0
 36 67  1  0  0  0  0
 36 77  1  0  0  0  0
 36 83  2  0  0  0  0
 37 73  1  0  0  0  0
 37 78  1  0  0  0  0
 37 84  2  0  0  0  0
 38 41  1  0  0  0  0
 39 48  1  0  0  0  0
 40 72  1  0  0  0  0
 41 43  1  0  0  0  0
 42 44  1  0  0  0  0
 42 45  1  0  0  0  0
 43 47  1  0  0  0  0
 44 49  1  0  0  0  0
 45 73  1  0  0  0  0
 46 49  1  0  0  0  0
 46 73  1  0  0  0  0
 47 76  1  0  0  0  0
 48 72  1  0  0  0  0
 49 71  1  0  0  0  0
 51 67  1  0  0  0  0
 52 68  1  0  0  0  0
 53 68  1  0  0  0  0
 54 68  1  0  0  0  0
 55 78  1  0  0  0  0
 56 79  1  0  0  0  0
 57 65  1  0  0  0  0
 58 59  1  0  0  0  0
 59 60  1  0  0  0  0
 60 61  1  0  0  0  0
 61 62  1  0  0  0  0
 62 63  1  0  0  0  0
 63 64  1  0  0  0  0
 64 78  1  0  0  0  0
 65 86  1  0  0  0  0
 66 68  1  0  0  0  0
 66 77  1  0  0  0  0
 67 79  1  0  0  0  0
 70 71  1  0  0  0  0
M  CHG  1  79   1
M  ISO  4  37 100  65 101  78 100  86 101
M  END
> <Batch ID>
0036

> <Smiles>
CNC(C)C(=O)NC(C(=O)N1Cc2cc([101O:1][101CH2:1]Cc3cnc(CCCCCCC[100N:0](C)[100C:0](=O)N4CCCC(n5nc(-c6ccc(Oc7ccc(F)cc7F)cc6)c(C(N)=O)c5N)C4)cc3C)ccc2CC1C(=O)NC1CCCc2ccccc21)C(C)(C)C

> <Shape>
0.223

> <Color>
0.101

> <Negative vol penalty>
0.000

$$$$

  -OEChem-04052316563D

 81 89  0     1  0  0  0  0  0999 V2000
  -21.8862  -11.4250   19.3445 C   0  0  0  0  0  0  0  0  0  0  0  0
  -21.5780  -12.7484   19.6430 C   0  0  0  0  0  0  0  0  0  0  0  0
  -30.5066  -27.0503   19.4985 C   0  0  0  0  0  0  0  0  0  0  0  0
  -29.6959  -25.4320   21.0988 C   0  0  0  0  0  0  0  0  0  0  0  0
  -23.1502  -10.9198   19.6458 C   0  0  0  0  0  0  0  0  0  0  0  0
  -22.5335  -13.5671   20.2441 C   0  0  0  0  0  0  0  0  0  0  0  0
  -23.3419  -19.5680   19.3268 C   0  0  0  0  0  0  0  0  0  0  0  0
  -31.8205  -26.7079   19.8179 C   0  0  0  0  0  0  0  0  0  0  0  0
  -31.0098  -25.0896   21.4181 C   0  0  0  0  0  0  0  0  0  0  0  0
  -22.9312  -20.6903   20.0448 C   0  0  0  0  0  0  0  0  0  0  0  0
  -35.3923  -26.5136   20.4719 C   0  0  0  0  0  0  0  0  0  0  0  0
  -36.3057  -27.5501   20.6641 C   0  0  0  0  0  0  0  0  0  0  0  0
  -25.0722  -20.7563   21.1544 C   0  0  0  0  0  0  0  0  0  0  0  0
  -21.3823  -25.1586   24.3576 C   0  0  0  0  0  0  0  0  0  0  0  0
  -34.9538  -28.4057   22.4746 C   0  0  0  0  0  0  0  0  0  0  0  0
  -21.8583  -25.3450   21.6772 C   0  0  0  0  0  0  0  0  0  0  0  0
  -29.4442  -26.4123   20.1390 C   0  0  0  0  0  0  0  0  0  0  0  0
  -27.2752  -26.1884   18.8151 C   0  0  0  0  0  0  0  0  0  0  0  0
  -24.1249  -11.7353   20.2420 C   0  0  0  0  0  0  0  0  0  0  0  0
  -24.6190  -19.0240   19.5255 C   0  0  0  0  0  0  0  0  0  0  0  0
  -23.8114  -13.0718   20.5549 C   0  0  0  0  0  0  0  0  0  0  0  0
  -25.4976  -19.6286   20.4358 C   0  0  0  0  0  0  0  0  0  0  0  0
  -21.5981  -23.9993   23.6209 C   0  0  0  0  0  0  0  0  0  0  0  0
  -21.8413  -24.0856   22.2547 C   0  0  0  0  0  0  0  0  0  0  0  0
  -32.0721  -25.7276   20.7777 C   0  0  0  0  0  0  0  0  0  0  0  0
  -23.7953  -21.2829   20.9609 C   0  0  0  0  0  0  0  0  0  0  0  0
  -34.2596  -26.4232   21.2810 C   0  0  0  0  0  0  0  0  0  0  0  0
  -36.0865  -28.4961   21.6655 C   0  0  0  0  0  0  0  0  0  0  0  0
  -34.0404  -27.3692   22.2823 C   0  0  0  0  0  0  0  0  0  0  0  0
  -28.0867  -26.7659   19.8099 C   0  0  0  0  0  0  0  0  0  0  0  0
  -21.4200  -26.3700   23.6861 C   0  0  0  0  0  0  0  0  0  0  0  0
  -26.0861  -26.8702   18.9035 C   0  0  0  0  0  0  0  0  0  0  0  0
  -27.5697  -25.1303   17.8936 C   0  0  0  0  0  0  0  0  0  0  0  0
  -25.7317  -16.2286   20.5509 C   0  0  0  0  0  0  0  0  0  0  0  0
  -28.5952  -17.5038   19.7162 C   0  0  0  0  0  0  0  0  0  0  0  0
  -30.4682  -20.3010   19.1557 C   0  0  0  0  0  0  0  0  0  0  0  0
  -23.4161  -29.8504   23.3577 C   0  0  0  0  0  0  0  0  0  0  0  0
  -25.4617  -11.1312   20.5922 C   0  0  0  0  0  0  0  0  0  0  0  0
  -25.0565  -17.8290   18.7237 C   0  0  0  0  0  0  0  0  0  0  0  0
  -26.8864  -19.0954   20.6711 C   0  0  0  0  0  0  0  0  0  0  0  0
  -26.5410  -12.1698   20.8870 C   0  0  0  0  0  0  0  0  0  0  0  0
  -24.2946  -31.1272   20.1523 C   0  0  0  0  0  0  0  0  0  0  0  0
  -26.0035  -13.2472   21.8235 C   0  0  0  0  0  0  0  0  0  0  0  0
  -25.2928  -30.1021   19.6113 C   0  0  0  0  0  0  0  0  0  0  0  0
  -24.4505  -31.3263   21.6583 C   0  0  0  0  0  0  0  0  0  0  0  0
  -25.3896  -29.0623   21.9153 C   0  0  0  0  0  0  0  0  0  0  0  0
  -24.8292  -13.9981   21.1843 C   0  0  1  0  0  0  0  0  0  0  0  0
  -26.1926  -17.0516   19.3813 C   0  0  1  0  0  0  0  0  0  0  0  0
  -25.2336  -28.7861   20.4100 C   0  0  2  0  0  0  0  0  0  0  0  0
  -21.5645  -22.6780   24.3149 C   0  0  0  0  0  0  0  0  0  0  0  0
  -32.4517  -21.6760   18.4683 C   0  0  0  0  0  0  0  0  0  0  0  0
  -29.5648  -16.8548   22.5356 C   0  0  0  0  0  0  0  0  0  0  0  0
  -31.4868  -18.4143   22.1584 C   0  0  0  0  0  0  0  0  0  0  0  0
  -31.2279  -16.3877   20.7271 C   0  0  0  0  0  0  0  0  0  0  0  0
  -29.5596  -20.4157   16.3414 C   0  0  0  0  0  0  0  0  0  0  0  0
  -22.0800  -22.8672   21.4122 C   0  0  0  0  0  0  0  0  0  1  0  0
  -21.1925  -27.6348   24.4447 C   0  0  0  0  0  0  0  0  0  0  0  0
  -22.4778  -28.2518   25.0080 C   0  0  0  0  0  0  0  0  0  0  0  0
  -29.6423  -18.3328   20.4200 C   0  0  1  0  0  0  0  0  0  0  0  0
  -31.3948  -20.6809   18.0149 C   0  0  2  0  0  0  0  0  0  0  0  0
  -30.4536  -17.5065   21.4575 C   0  0  0  0  0  0  0  0  0  0  0  0
  -21.6531  -26.4936   22.3602 N   0  0  0  0  0  0  0  0  0  0  0  0
  -27.4658  -27.7397   20.4808 N   0  0  0  0  0  0  0  0  0  0  0  0
  -26.2514  -27.7795   19.9065 N   0  0  0  0  0  0  0  0  0  0  0  0
  -27.2654  -17.9215   19.8676 N   0  0  0  0  0  0  0  0  0  0  0  0
  -24.3835  -30.0407   22.3573 N   0  0  0  0  0  0  0  0  0  0  0  0
  -24.9258  -26.7747   18.2202 N   0  0  0  0  0  0  0  0  0  0  0  0
  -28.8399  -24.5395   17.9384 N   0  0  0  0  0  0  0  0  0  0  0  0
  -25.3109  -14.9566   20.2128 N   0  0  0  0  0  0  0  0  0  0  0  0
  -30.4555  -18.9392   19.3715 N   0  0  0  0  0  0  0  0  0  0  0  0
  -23.4172  -28.6009   23.9656 N   0  0  0  0  0  0  0  0  0  0  0  0
  -30.6192  -21.2944   16.9000 N   0  3  0  0  0  0  0  0  0  0  0  0
  -26.7370  -24.7319   17.0442 O   0  0  0  0  0  0  0  0  0  0  0  0
  -25.7575  -16.7114   21.6770 O   0  0  0  0  0  0  0  0  0  0  0  0
  -28.9450  -16.5258   19.0507 O   0  0  0  0  0  0  0  0  0  0  0  0
  -29.8232  -21.1298   19.7942 O   0  0  0  0  0  0  0  0  0  0  0  0
  -22.6076  -30.7271   23.6813 O   0  0  0  0  0  0  0  0  0  0  0  0
  -33.3541  -25.3931   21.0894 O   0  0  0  0  0  0  0  0  0  0  0  0
  -23.3968  -22.3781   21.6635 O   0  0  0  0  0  0  0  0  0  1  0  0
  -36.9646  -29.4905   21.8510 F   0  0  0  0  0  0  0  0  0  0  0  0
  -32.9547  -27.2868   23.0635 F   0  0  0  0  0  0  0  0  0  0  0  0
  1  2  1  0  0  0  0
  1  5  2  0  0  0  0
  2  6  2  0  0  0  0
  3  8  2  0  0  0  0
  3 17  1  0  0  0  0
  4  9  1  0  0  0  0
  4 17  2  0  0  0  0
  5 19  1  0  0  0  0
  6 21  1  0  0  0  0
  7 10  2  0  0  0  0
  7 20  1  0  0  0  0
  8 25  1  0  0  0  0
  9 25  2  0  0  0  0
 10 26  1  0  0  0  0
 11 12  2  0  0  0  0
 11 27  1  0  0  0  0
 12 28  1  0  0  0  0
 13 22  1  0  0  0  0
 13 26  2  0  0  0  0
 14 23  1  0  0  0  0
 14 31  2  0  0  0  0
 15 28  2  0  0  0  0
 15 29  1  0  0  0  0
 16 24  1  0  0  0  0
 16 62  2  0  0  0  0
 17 30  1  0  0  0  0
 18 30  1  0  0  0  0
 18 32  2  0  0  0  0
 18 33  1  0  0  0  0
 19 21  2  0  0  0  0
 19 38  1  0  0  0  0
 20 22  2  0  0  0  0
 20 39  1  0  0  0  0
 21 47  1  0  0  0  0
 22 40  1  0  0  0  0
 23 24  2  0  0  0  0
 23 50  1  0  0  0  0
 24 56  1  0  0  0  0
 25 78  1  0  0  0  0
 26 79  1  0  0  0  0
 27 29  2  0  0  0  0
 27 78  1  0  0  0  0
 28 80  1  0  0  0  0
 29 81  1  0  0  0  0
 30 63  2  0  0  0  0
 31 57  1  0  0  0  0
 31 62  1  0  0  0  0
 32 64  1  0  0  0  0
 32 67  1  0  0  0  0
 33 68  1  0  0  0  0
 33 73  2  0  0  0  0
 34 48  1  0  0  0  0
 34 69  1  0  0  0  0
 34 74  2  0  0  0  0
 35 59  1  0  0  0  0
 35 65  1  0  0  0  0
 35 75  2  0  0  0  0
 36 60  1  0  0  0  0
 36 70  1  0  0  0  0
 36 76  2  0  0  0  0
 37 66  1  0  0  0  0
 37 71  1  0  0  0  0
 37 77  2  0  0  0  0
 38 41  1  0  0  0  0
 39 48  1  0  0  0  0
 40 65  1  0  0  0  0
 41 43  1  0  0  0  0
 42 44  1  0  0  0  0
 42 45  1  0  0  0  0
 43 47  1  0  0  0  0
 44 49  1  0  0  0  0
 45 66  1  0  0  0  0
 46 49  1  0  0  0  0
 46 66  1  0  0  0  0
 47 69  1  0  0  0  0
 48 65  1  0  0  0  0
 49 64  1  0  0  0  0
 51 60  1  0  0  0  0
 52 61  1  0  0  0  0
 53 61  1  0  0  0  0
 54 61  1  0  0  0  0
 55 72  1  0  0  0  0
 56 79  1  0  0  0  0
 57 58  1  0  0  0  0
 58 71  1  0  0  0  0
 59 61  1  0  0  0  0
 59 70  1  0  0  0  0
 60 72  1  0  0  0  0
 63 64  1  0  0  0  0
M  CHG  1  72   1
M  ISO  4  37 100  56 101  71 100  79 101
M  END
> <Batch ID>
0036

> <Smiles>
CNC(C)C(=O)NC(C(=O)N1Cc2cc([101O:1][101CH2:1]c3cnc(CC[100NH:0][100C:0](=O)N4CCCC(n5nc(-c6ccc(Oc7ccc(F)cc7F)cc6)c(C(N)=O)c5N)C4)cc3C)ccc2CC1C(=O)NC1CCCc2ccccc21)C(C)(C)C

> <Shape>
0.214

> <Color>
0.070

> <Negative vol penalty>
0.000

$$$$

  -OEChem-04052316563D

 86 94  0     1  0  0  0  0  0999 V2000
  -19.7366  -10.7629   21.8065 C   0  0  0  0  0  0  0  0  0  0  0  0
  -20.5872  -11.6842   22.4091 C   0  0  0  0  0  0  0  0  0  0  0  0
  -24.3570  -31.3954   25.7127 C   0  0  0  0  0  0  0  0  0  0  0  0
  -26.7600  -31.3059   25.9470 C   0  0  0  0  0  0  0  0  0  0  0  0
  -20.2666   -9.6611   21.1363 C   0  0  0  0  0  0  0  0  0  0  0  0
  -21.9683  -11.5037   22.3427 C   0  0  0  0  0  0  0  0  0  0  0  0
  -24.4342  -15.7798   21.2115 C   0  0  0  0  0  0  0  0  0  0  0  0
  -28.5761  -23.4525   21.7209 C   0  0  0  0  0  0  0  0  0  0  0  0
  -24.2280  -31.5461   27.0933 C   0  0  0  0  0  0  0  0  0  0  0  0
  -26.6310  -31.4566   27.3277 C   0  0  0  0  0  0  0  0  0  0  0  0
  -24.6117  -16.7037   22.2404 C   0  0  0  0  0  0  0  0  0  0  0  0
  -24.5489  -34.0261   29.3692 C   0  0  0  0  0  0  0  0  0  0  0  0
  -23.6631  -34.9975   29.8353 C   0  0  0  0  0  0  0  0  0  0  0  0
  -29.1612  -22.6084   22.6581 C   0  0  0  0  0  0  0  0  0  0  0  0
  -26.8716  -15.9181   22.5479 C   0  0  0  0  0  0  0  0  0  0  0  0
  -22.3968  -33.2911   30.9851 C   0  0  0  0  0  0  0  0  0  0  0  0
  -25.6230  -31.2753   25.1395 C   0  0  0  0  0  0  0  0  0  0  0  0
  -25.8887  -32.1415   22.7548 C   0  0  0  0  0  0  0  0  0  0  0  0
  -21.6552   -9.4722   21.0534 C   0  0  0  0  0  0  0  0  0  0  0  0
  -25.4723  -14.9092   20.8497 C   0  0  0  0  0  0  0  0  0  0  0  0
  -22.5173  -10.3977   21.6719 C   0  0  0  0  0  0  0  0  0  0  0  0
  -26.7057  -14.9858   21.5123 C   0  0  0  0  0  0  0  0  0  0  0  0
  -27.6831  -22.9349   20.7891 C   0  0  0  0  0  0  0  0  0  0  0  0
  -25.3649  -31.5767   27.9008 C   0  0  0  0  0  0  0  0  0  0  0  0
  -25.8295  -16.7710   22.9107 C   0  0  0  0  0  0  0  0  0  0  0  0
  -24.3587  -32.6871   29.7110 C   0  0  0  0  0  0  0  0  0  0  0  0
  -22.5871  -34.6300   30.6433 C   0  0  0  0  0  0  0  0  0  0  0  0
  -23.2827  -32.3197   30.5190 C   0  0  0  0  0  0  0  0  0  0  0  0
  -25.7569  -31.1190   23.7134 C   0  0  0  0  0  0  0  0  0  0  0  0
  -28.8230  -21.2653   22.6218 C   0  0  0  0  0  0  0  0  0  0  0  0
  -27.4112  -21.5771   20.8364 C   0  0  0  0  0  0  0  0  0  0  0  0
  -25.9817  -31.4782   21.5557 C   0  0  0  0  0  0  0  0  0  0  0  0
  -25.9238  -33.5638   22.9324 C   0  0  0  0  0  0  0  0  0  0  0  0
  -25.8524  -11.7534   20.8402 C   0  0  0  0  0  0  0  0  0  0  0  0
  -28.6477  -12.4856   19.3662 C   0  0  0  0  0  0  0  0  0  0  0  0
  -31.1053  -14.7829   18.7920 C   0  0  0  0  0  0  0  0  0  0  0  0
  -27.8767  -26.2134   20.0399 C   0  0  0  0  0  0  0  0  0  0  0  0
  -22.1800   -8.2407   20.3587 C   0  0  0  0  0  0  0  0  0  0  0  0
  -25.2738  -13.9364   19.7198 C   0  0  0  0  0  0  0  0  0  0  0  0
  -27.8584  -14.0873   21.1486 C   0  0  0  0  0  0  0  0  0  0  0  0
  -23.6646   -8.3225   20.0130 C   0  0  0  0  0  0  0  0  0  0  0  0
  -24.6328  -27.4448   19.3824 C   0  0  0  0  0  0  0  0  0  0  0  0
  -24.4634   -8.8348   21.2073 C   0  0  0  0  0  0  0  0  0  0  0  0
  -24.5604  -28.6332   20.3402 C   0  0  0  0  0  0  0  0  0  0  0  0
  -25.3390  -26.2422   20.0113 C   0  0  0  0  0  0  0  0  0  0  0  0
  -26.6064  -27.7429   21.5161 C   0  0  0  0  0  0  0  0  0  0  0  0
  -24.0217  -10.2497   21.6004 C   0  0  1  0  0  0  0  0  0  0  0  0
  -26.2291  -12.7485   19.7793 C   0  0  1  0  0  0  0  0  0  0  0  0
  -25.9547  -28.9843   20.8877 C   0  0  2  0  0  0  0  0  0  0  0  0
  -26.0475  -19.5526   20.2633 C   0  0  0  0  0  0  0  0  0  0  0  0
  -28.7978  -25.0220   17.1237 C   0  0  0  0  0  0  0  0  0  0  0  0
  -33.2800  -15.0787   17.5753 C   0  0  0  0  0  0  0  0  0  0  0  0
  -30.0619  -10.8168   21.4934 C   0  0  0  0  0  0  0  0  0  0  0  0
  -32.2132  -11.9042   20.8167 C   0  0  0  0  0  0  0  0  0  0  0  0
  -30.9476  -10.5179   19.1737 C   0  0  0  0  0  0  0  0  0  0  0  0
  -30.0189  -16.9916   17.1487 C   0  0  0  0  0  0  0  0  0  0  0  0
  -27.0541  -23.8340   19.7818 C   0  0  0  0  0  0  0  0  0  0  0  0
  -29.4373  -20.3214   23.6246 C   0  0  0  0  0  0  0  0  0  0  0  0
  -26.4576  -20.9664   19.8625 C   0  0  0  0  0  0  0  0  0  0  0  0
  -28.6273  -20.1790   24.9180 C   0  0  0  0  0  0  0  0  0  0  0  0
  -27.2395  -19.5776   24.6920 C   0  0  0  0  0  0  0  0  0  0  0  0
  -29.0488  -24.6239   18.5641 C   0  0  0  0  0  0  0  0  0  0  0  0
  -27.3269  -18.1703   24.1173 C   0  0  0  0  0  0  0  0  0  1  0  0
  -30.0523  -12.7899   19.8282 C   0  0  1  0  0  0  0  0  0  0  0  0
  -31.7701  -15.2473   17.5088 C   0  0  2  0  0  0  0  0  0  0  0  0
  -30.7966  -11.5230   20.3364 C   0  0  0  0  0  0  0  0  0  0  0  0
  -25.7650  -29.8988   23.1701 N   0  0  0  0  0  0  0  0  0  0  0  0
  -27.9599  -20.7259   21.7320 N   0  0  0  0  0  0  0  0  0  0  0  0
  -25.9028  -30.1504   21.8572 N   0  0  0  0  0  0  0  0  0  0  0  0
  -27.6131  -13.1487   20.0412 N   0  0  0  0  0  0  0  0  0  0  0  0
  -26.6441  -26.6311   20.5630 N   0  0  0  0  0  0  0  0  0  0  0  0
  -26.1224  -31.9070   20.2834 N   0  0  0  0  0  0  0  0  0  0  0  0
  -25.8155  -34.0778   24.2318 N   0  0  0  0  0  0  0  0  0  0  0  0
  -24.5841  -11.2256   20.6917 N   0  0  0  0  0  0  0  0  0  0  0  0
  -30.7113  -13.4638   18.7147 N   0  0  0  0  0  0  0  0  0  0  0  0
  -27.9181  -24.9558   19.4194 N   0  0  0  0  0  0  0  0  0  0  0  0
  -31.4683  -16.6854   17.2601 N   0  3  0  0  0  0  0  0  0  0  0  0
  -26.0312  -34.3561   21.9658 O   0  0  0  0  0  0  0  0  0  0  0  0
  -26.6539  -11.4833   21.7270 O   0  0  0  0  0  0  0  0  0  0  0  0
  -28.4753  -11.6943   18.4357 O   0  0  0  0  0  0  0  0  0  0  0  0
  -30.9541  -15.5158   19.7669 O   0  0  0  0  0  0  0  0  0  0  0  0
  -28.8883  -26.9211   20.1290 O   0  0  0  0  0  0  0  0  0  0  0  0
  -25.2394  -31.7240   29.2481 O   0  0  0  0  0  0  0  0  0  0  0  0
  -26.0052  -17.6715   23.9158 O   0  0  0  0  0  0  0  0  0  1  0  0
  -21.7374  -35.5632   31.0921 F   0  0  0  0  0  0  0  0  0  0  0  0
  -23.0954  -31.0351   30.8517 F   0  0  0  0  0  0  0  0  0  0  0  0
  1  2  1  0  0  0  0
  1  5  2  0  0  0  0
  2  6  2  0  0  0  0
  3  9  2  0  0  0  0
  3 17  1  0  0  0  0
  4 10  1  0  0  0  0
  4 17  2  0  0  0  0
  5 19  1  0  0  0  0
  6 21  1  0  0  0  0
  7 11  2  0  0  0  0
  7 20  1  0  0  0  0
  8 14  2  0  0  0  0
  8 23  1  0  0  0  0
  9 24  1  0  0  0  0
 10 24  2  0  0  0  0
 11 25  1  0  0  0  0
 12 13  2  0  0  0  0
 12 26  1  0  0  0  0
 13 27  1  0  0  0  0
 14 30  1  0  0  0  0
 15 22  1  0  0  0  0
 15 25  2  0  0  0  0
 16 27  2  0  0  0  0
 16 28  1  0  0  0  0
 17 29  1  0  0  0  0
 18 29  1  0  0  0  0
 18 32  2  0  0  0  0
 18 33  1  0  0  0  0
 19 21  2  0  0  0  0
 19 38  1  0  0  0  0
 20 22  2  0  0  0  0
 20 39  1  0  0  0  0
 21 47  1  0  0  0  0
 22 40  1  0  0  0  0
 23 31  2  0  0  0  0
 23 57  1  0  0  0  0
 24 83  1  0  0  0  0
 25 84  1  0  0  0  0
 26 28  2  0  0  0  0
 26 83  1  0  0  0  0
 27 85  1  0  0  0  0
 28 86  1  0  0  0  0
 29 67  2  0  0  0  0
 30 58  1  0  0  0  0
 30 68  2  0  0  0  0
 31 59  1  0  0  0  0
 31 68  1  0  0  0  0
 32 69  1  0  0  0  0
 32 72  1  0  0  0  0
 33 73  1  0  0  0  0
 33 78  2  0  0  0  0
 34 48  1  0  0  0  0
 34 74  1  0  0  0  0
 34 79  2  0  0  0  0
 35 64  1  0  0  0  0
 35 70  1  0  0  0  0
 35 80  2  0  0  0  0
 36 65  1  0  0  0  0
 36 75  1  0  0  0  0
 36 81  2  0  0  0  0
 37 71  1  0  0  0  0
 37 76  1  0  0  0  0
 37 82  2  0  0  0  0
 38 41  1  0  0  0  0
 39 48  1  0  0  0  0
 40 70  1  0  0  0  0
 41 43  1  0  0  0  0
 42 44  1  0  0  0  0
 42 45  1  0  0  0  0
 43 47  1  0  0  0  0
 44 49  1  0  0  0  0
 45 71  1  0  0  0  0
 46 49  1  0  0  0  0
 46 71  1  0  0  0  0
 47 74  1  0  0  0  0
 48 70  1  0  0  0  0
 49 69  1  0  0  0  0
 50 59  1  0  0  0  0
 51 62  1  0  0  0  0
 52 65  1  0  0  0  0
 53 66  1  0  0  0  0
 54 66  1  0  0  0  0
 55 66  1  0  0  0  0
 56 77  1  0  0  0  0
 57 76  1  0  0  0  0
 58 60  1  0  0  0  0
 60 61  1  0  0  0  0
 61 63  1  0  0  0  0
 62 76  1  0  0  0  0
 63 84  1  0  0  0  0
 64 66  1  0  0  0  0
 64 75  1  0  0  0  0
 65 77  1  0  0  0  0
 67 69  1  0  0  0  0
M  CHG  1  77   1
M  ISO  4  37 100  63 101  76 100  84 101
M  END
> <Batch ID>
0036

> <Smiles>
CCc1nc(CCC[101CH2:1][101O:1]c2ccc3c(c2)CN(C(=O)C(NC(=O)C(C)NC)C(C)(C)C)C(C(=O)NC2CCCc4ccccc42)C3)ccc1C[100N:0](CC)[100C:0](=O)N1CCCC(n2nc(-c3ccc(Oc4ccc(F)cc4F)cc3)c(C(N)=O)c2N)C1

> <Shape>
0.271

> <Color>
0.078

> <Negative vol penalty>
0.000

$$$$

  -OEChem-04052316563D

 89 97  0     1  0  0  0  0  0999 V2000
  -26.7487  -34.9725   24.1921 C   0  0  0  0  0  0  0  0  0  0  0  0
  -27.1622  -33.6946   23.8296 C   0  0  0  0  0  0  0  0  0  0  0  0
  -29.7529  -19.6137   22.9900 C   0  0  0  0  0  0  0  0  0  0  0  0
  -31.4372  -20.7461   21.6793 C   0  0  0  0  0  0  0  0  0  0  0  0
  -25.4380  -35.1856   24.6170 C   0  0  0  0  0  0  0  0  0  0  0  0
  -26.2654  -32.6287   23.8927 C   0  0  0  0  0  0  0  0  0  0  0  0
  -26.4729  -29.6694   19.7886 C   0  0  0  0  0  0  0  0  0  0  0  0
  -31.6852  -23.3428   15.1501 C   0  0  0  0  0  0  0  0  0  0  0  0
  -30.5814  -23.8811   15.8115 C   0  0  0  0  0  0  0  0  0  0  0  0
  -29.6620  -18.6204   22.0150 C   0  0  0  0  0  0  0  0  0  0  0  0
  -31.3463  -19.7527   20.7043 C   0  0  0  0  0  0  0  0  0  0  0  0
  -27.5310  -28.7650   19.7086 C   0  0  0  0  0  0  0  0  0  0  0  0
  -29.2467  -15.5960   20.0412 C   0  0  0  0  0  0  0  0  0  0  0  0
  -29.2176  -14.2686   20.4685 C   0  0  0  0  0  0  0  0  0  0  0  0
  -26.0686  -26.9974   20.4545 C   0  0  0  0  0  0  0  0  0  0  0  0
  -31.3817  -14.5545   21.5038 C   0  0  0  0  0  0  0  0  0  0  0  0
  -30.6404  -20.6766   22.8221 C   0  0  0  0  0  0  0  0  0  0  0  0
  -31.5908  -21.7229   24.9457 C   0  0  0  0  0  0  0  0  0  0  0  0
  -24.5219  -34.1235   24.6762 C   0  0  0  0  0  0  0  0  0  0  0  0
  -25.2053  -29.2461   20.2133 C   0  0  0  0  0  0  0  0  0  0  0  0
  -24.9415  -32.8275   24.3201 C   0  0  0  0  0  0  0  0  0  0  0  0
  -24.9955  -27.8979   20.5366 C   0  0  0  0  0  0  0  0  0  0  0  0
  -32.9742  -23.6162   15.6078 C   0  0  0  0  0  0  0  0  0  0  0  0
  -30.7665  -24.6931   16.9305 C   0  0  0  0  0  0  0  0  0  0  0  0
  -33.1593  -24.4282   16.7268 C   0  0  0  0  0  0  0  0  0  0  0  0
  -32.0555  -24.9666   17.3881 C   0  0  0  0  0  0  0  0  0  0  0  0
  -30.4587  -18.6899   20.8722 C   0  0  0  0  0  0  0  0  0  0  0  0
  -27.3296  -27.4294   20.0443 C   0  0  0  0  0  0  0  0  0  0  0  0
  -30.3434  -16.4027   20.3451 C   0  0  0  0  0  0  0  0  0  0  0  0
  -30.2851  -13.7478   21.1999 C   0  0  0  0  0  0  0  0  0  0  0  0
  -31.4109  -15.8819   21.0764 C   0  0  0  0  0  0  0  0  0  0  0  0
  -30.7343  -21.7034   23.8286 C   0  0  0  0  0  0  0  0  0  0  0  0
  -31.2956  -22.9027   25.5841 C   0  0  0  0  0  0  0  0  0  0  0  0
  -32.5660  -20.7607   25.3685 C   0  0  0  0  0  0  0  0  0  0  0  0
  -23.3026  -29.9642   22.6562 C   0  0  0  0  0  0  0  0  0  0  0  0
  -21.2137  -28.0394   21.0898 C   0  0  0  0  0  0  0  0  0  0  0  0
  -20.7253  -25.4880   18.8765 C   0  0  0  0  0  0  0  0  0  0  0  0
  -28.9884  -28.0948   23.6947 C   0  0  0  0  0  0  0  0  0  0  0  0
  -23.1289  -34.3940   25.1869 C   0  0  0  0  0  0  0  0  0  0  0  0
  -24.0678  -30.2286   20.2686 C   0  0  0  0  0  0  0  0  0  0  0  0
  -23.6488  -27.3888   20.9788 C   0  0  0  0  0  0  0  0  0  0  0  0
  -22.1361  -33.2791   24.8680 C   0  0  0  0  0  0  0  0  0  0  0  0
  -27.7088  -25.9940   26.2688 C   0  0  0  0  0  0  0  0  0  0  0  0
  -22.7394  -31.9171   25.1961 C   0  0  0  0  0  0  0  0  0  0  0  0
  -28.4163  -24.6579   26.0361 C   0  0  0  0  0  0  0  0  0  0  0  0
  -27.3782  -26.6943   24.9526 C   0  0  0  0  0  0  0  0  0  0  0  0
  -29.2325  -25.5407   23.8104 C   0  0  0  0  0  0  0  0  0  0  0  0
  -23.9911  -31.6503   24.3515 C   0  0  1  0  0  0  0  0  0  0  0  0
  -22.9465  -29.7924   21.2066 C   0  0  1  0  0  0  0  0  0  0  0  0
  -29.6362  -24.8233   25.1099 C   0  0  2  0  0  0  0  0  0  0  0  0
  -34.5427  -24.7187   17.2161 C   0  0  0  0  0  0  0  0  0  0  0  0
  -34.8421  -24.0471   13.9917 C   0  0  0  0  0  0  0  0  0  0  0  0
  -18.9087  -24.1108   17.8274 C   0  0  0  0  0  0  0  0  0  0  0  0
  -20.9122  -26.4642   23.6856 C   0  0  0  0  0  0  0  0  0  0  0  0
  -19.8788  -24.6096   22.3586 C   0  0  0  0  0  0  0  0  0  0  0  0
  -18.7758  -26.8455   22.4426 C   0  0  0  0  0  0  0  0  0  0  0  0
  -21.4467  -26.3991   16.1546 C   0  0  0  0  0  0  0  0  0  0  0  0
  -34.1389  -23.0267   14.8815 C   0  0  0  0  0  0  0  0  0  0  0  0
  -29.5563  -25.2638   17.6256 C   0  0  0  0  0  0  0  0  0  0  0  0
  -32.2523  -25.8389   18.5875 C   0  0  0  0  0  0  0  0  0  0  0  0
  -29.2036  -24.5509   18.9328 C   0  0  0  0  0  0  0  0  0  0  0  0
  -32.7167  -27.2677   18.2596 C   0  0  0  0  0  0  0  0  0  0  0  0
  -32.9751  -28.1115   19.5119 C   0  0  0  0  0  0  0  0  0  0  0  0
  -31.7031  -28.2643   20.3496 C   0  0  0  0  0  0  0  0  0  0  0  0
  -31.9520  -29.1406   21.5808 C   0  0  0  0  0  0  0  0  0  0  0  0
  -30.6894  -29.3627   22.4069 C   0  0  0  0  0  0  0  0  0  0  0  0
  -28.0320  -25.1882   19.6710 C   0  0  0  0  0  0  0  0  0  1  0  0
  -20.9028  -26.5621   21.1056 C   0  0  1  0  0  0  0  0  0  0  0  0
  -19.7844  -25.3469   17.6936 C   0  0  2  0  0  0  0  0  0  0  0  0
  -20.1434  -26.1301   22.3917 C   0  0  0  0  0  0  0  0  0  0  0  0
  -29.9535  -22.7848   23.7586 N   0  0  0  0  0  0  0  0  0  0  0  0
  -30.3181  -23.4948   24.8398 N   0  0  0  0  0  0  0  0  0  0  0  0
  -22.5697  -28.3893   21.0229 N   0  0  0  0  0  0  0  0  0  0  0  0
  -28.5778  -26.8211   24.1215 N   0  0  0  0  0  0  0  0  0  0  0  0
  -31.7794  -23.4808   26.7040 N   0  0  0  0  0  0  0  0  0  0  0  0
  -32.7419  -19.6042   24.5966 N   0  0  0  0  0  0  0  0  0  0  0  0
  -23.6206  -31.2623   23.0074 N   0  0  0  0  0  0  0  0  0  0  0  0
  -20.1862  -26.2825   19.8660 N   0  0  0  0  0  0  0  0  0  0  0  0
  -30.1388  -28.1264   22.9160 N   0  0  0  0  0  0  0  0  0  0  0  0
  -20.5594  -25.2387   16.4253 N   0  3  0  0  0  0  0  0  0  0  0  0
  -33.2494  -20.9140   26.4092 O   0  0  0  0  0  0  0  0  0  0  0  0
  -23.2884  -28.9914   23.4013 O   0  0  0  0  0  0  0  0  0  0  0  0
  -20.2871  -28.8527   21.1280 O   0  0  0  0  0  0  0  0  0  0  0  0
  -21.8268  -24.9445   18.9200 O   0  0  0  0  0  0  0  0  0  0  0  0
  -28.3783  -29.1278   23.9905 O   0  0  0  0  0  0  0  0  0  0  0  0
  -30.3705  -17.7206   19.9207 O   0  0  0  0  0  0  0  0  0  0  0  0
  -28.3608  -26.5447   19.9677 O   0  0  0  0  0  0  0  0  0  1  0  0
  -30.2563  -12.4735   21.6116 F   0  0  0  0  0  0  0  0  0  0  0  0
  -32.4666  -16.6523   21.3724 F   0  0  0  0  0  0  0  0  0  0  0  0
  1  2  1  0  0  0  0
  1  5  2  0  0  0  0
  2  6  2  0  0  0  0
  3 10  2  0  0  0  0
  3 17  1  0  0  0  0
  4 11  1  0  0  0  0
  4 17  2  0  0  0  0
  5 19  1  0  0  0  0
  6 21  1  0  0  0  0
  7 12  2  0  0  0  0
  7 20  1  0  0  0  0
  8  9  2  0  0  0  0
  8 23  1  0  0  0  0
  9 24  1  0  0  0  0
 10 27  1  0  0  0  0
 11 27  2  0  0  0  0
 12 28  1  0  0  0  0
 13 14  2  0  0  0  0
 13 29  1  0  0  0  0
 14 30  1  0  0  0  0
 15 22  1  0  0  0  0
 15 28  2  0  0  0  0
 16 30  2  0  0  0  0
 16 31  1  0  0  0  0
 17 32  1  0  0  0  0
 18 32  1  0  0  0  0
 18 33  2  0  0  0  0
 18 34  1  0  0  0  0
 19 21  2  0  0  0  0
 19 39  1  0  0  0  0
 20 22  2  0  0  0  0
 20 40  1  0  0  0  0
 21 48  1  0  0  0  0
 22 41  1  0  0  0  0
 23 25  2  0  0  0  0
 23 58  1  0  0  0  0
 24 26  2  0  0  0  0
 24 59  1  0  0  0  0
 25 26  1  0  0  0  0
 25 51  1  0  0  0  0
 26 60  1  0  0  0  0
 27 86  1  0  0  0  0
 28 87  1  0  0  0  0
 29 31  2  0  0  0  0
 29 86  1  0  0  0  0
 30 88  1  0  0  0  0
 31 89  1  0  0  0  0
 32 71  2  0  0  0  0
 33 72  1  0  0  0  0
 33 75  1  0  0  0  0
 34 76  1  0  0  0  0
 34 81  2  0  0  0  0
 35 49  1  0  0  0  0
 35 77  1  0  0  0  0
 35 82  2  0  0  0  0
 36 68  1  0  0  0  0
 36 73  1  0  0  0  0
 36 83  2  0  0  0  0
 37 69  1  0  0  0  0
 37 78  1  0  0  0  0
 37 84  2  0  0  0  0
 38 74  1  0  0  0  0
 38 79  1  0  0  0  0
 38 85  2  0  0  0  0
 39 42  1  0  0  0  0
 40 49  1  0  0  0  0
 41 73  1  0  0  0  0
 42 44  1  0  0  0  0
 43 45  1  0  0  0  0
 43 46  1  0  0  0  0
 44 48  1  0  0  0  0
 45 50  1  0  0  0  0
 46 74  1  0  0  0  0
 47 50  1  0  0  0  0
 47 74  1  0  0  0  0
 48 77  1  0  0  0  0
 49 73  1  0  0  0  0
 50 72  1  0  0  0  0
 52 58  1  0  0  0  0
 53 69  1  0  0  0  0
 54 70  1  0  0  0  0
 55 70  1  0  0  0  0
 56 70  1  0  0  0  0
 57 80  1  0  0  0  0
 59 61  1  0  0  0  0
 60 62  1  0  0  0  0
 61 67  1  0  0  0  0
 62 63  1  0  0  0  0
 63 64  1  0  0  0  0
 64 65  1  0  0  0  0
 65 66  1  0  0  0  0
 66 79  1  0  0  0  0
 67 87  1  0  0  0  0
 68 70  1  0  0  0  0
 68 78  1  0  0  0  0
 69 80  1  0  0  0  0
 71 72  1  0  0  0  0
M  CHG  1  80   1
M  ISO  4  38 100  67 101  79 100  87 101
M  END
> <Batch ID>
0036

> <Smiles>
CCc1ccc(CC[101CH2:1][101O:1]c2ccc3c(c2)CN(C(=O)C(NC(=O)C(C)NC)C(C)(C)C)C(C(=O)NC2CCCc4ccccc42)C3)c(CCCCCC[100NH:0][100C:0](=O)N2CCCC(n3nc(-c4ccc(Oc5ccc(F)cc5F)cc4)c(C(N)=O)c3N)C2)c1C

> <Shape>
0.215

> <Color>
0.076

> <Negative vol penalty>
0.000

$$$$

  -OEChem-04052316563D

 79 87  0     1  0  0  0  0  0999 V2000
  -16.7259  -27.6074   22.5154 C   0  0  0  0  0  0  0  0  0  0  0  0
  -17.8060  -27.4328   21.6562 C   0  0  0  0  0  0  0  0  0  0  0  0
  -29.6790  -17.8872   19.4550 C   0  0  0  0  0  0  0  0  0  0  0  0
  -31.2275  -18.0721   21.3003 C   0  0  0  0  0  0  0  0  0  0  0  0
  -16.9052  -28.2577   23.7356 C   0  0  0  0  0  0  0  0  0  0  0  0
  -19.0660  -27.9095   22.0163 C   0  0  0  0  0  0  0  0  0  0  0  0
  -22.7481  -24.5577   21.0929 C   0  0  0  0  0  0  0  0  0  0  0  0
  -30.0165  -16.5420   19.3066 C   0  0  0  0  0  0  0  0  0  0  0  0
  -31.5649  -16.7269   21.1519 C   0  0  0  0  0  0  0  0  0  0  0  0
  -23.1801  -24.4339   19.7731 C   0  0  0  0  0  0  0  0  0  0  0  0
  -29.2730  -13.6067   20.8113 C   0  0  0  0  0  0  0  0  0  0  0  0
  -28.2338  -12.6934   20.6334 C   0  0  0  0  0  0  0  0  0  0  0  0
  -25.0829  -25.8304   20.2712 C   0  0  0  0  0  0  0  0  0  0  0  0
  -29.1632  -12.0518   18.4976 C   0  0  0  0  0  0  0  0  0  0  0  0
  -30.0227  -23.3013   15.2761 C   0  0  0  0  0  0  0  0  0  0  0  0
  -28.8107  -25.1075   15.5992 C   0  0  0  0  0  0  0  0  0  0  0  0
  -30.2845  -18.6523   20.4518 C   0  0  0  0  0  0  0  0  0  0  0  0
  -30.0408  -24.5688   15.8886 C   0  0  0  0  0  0  0  0  0  0  0  0
  -28.9139  -20.5787   21.4100 C   0  0  0  0  0  0  0  0  0  0  0  0
  -18.1700  -28.7341   24.1150 C   0  0  0  0  0  0  0  0  0  0  0  0
  -23.4757  -25.3291   22.0106 C   0  0  0  0  0  0  0  0  0  0  0  0
  -19.2621  -28.5681   23.2421 C   0  0  0  0  0  0  0  0  0  0  0  0
  -24.6594  -25.9603   21.6027 C   0  0  0  0  0  0  0  0  0  0  0  0
  -30.9594  -15.9618   20.1550 C   0  0  0  0  0  0  0  0  0  0  0  0
  -24.3461  -25.0726   19.3614 C   0  0  0  0  0  0  0  0  0  0  0  0
  -30.2573  -13.7425   19.8323 C   0  0  0  0  0  0  0  0  0  0  0  0
  -28.1789  -11.9160   19.4766 C   0  0  0  0  0  0  0  0  0  0  0  0
  -30.2024  -12.9651   18.6755 C   0  0  0  0  0  0  0  0  0  0  0  0
  -29.9368  -20.0422   20.6052 C   0  0  0  0  0  0  0  0  0  0  0  0
  -28.9939  -21.9349   21.2081 C   0  0  0  0  0  0  0  0  0  0  0  0
  -31.1036  -25.2144   16.6699 C   0  0  0  0  0  0  0  0  0  0  0  0
  -27.9755  -19.9108   22.2639 C   0  0  0  0  0  0  0  0  0  0  0  0
  -22.8684  -27.9305   23.7332 C   0  0  0  0  0  0  0  0  0  0  0  0
  -25.7824  -27.2925   25.0075 C   0  0  0  0  0  0  0  0  0  0  0  0
  -28.8377  -25.8133   24.6553 C   0  0  0  0  0  0  0  0  0  0  0  0
  -18.3051  -29.4726   25.4231 C   0  0  0  0  0  0  0  0  0  0  0  0
  -23.0107  -25.4309   23.4374 C   0  0  0  0  0  0  0  0  0  0  0  0
  -25.4876  -26.7834   22.5541 C   0  0  0  0  0  0  0  0  0  0  0  0
  -19.7497  -29.6163   25.8950 C   0  0  0  0  0  0  0  0  0  0  0  0
  -32.1151  -25.3863   20.0888 C   0  0  0  0  0  0  0  0  0  0  0  0
  -20.6432  -30.0758   24.7472 C   0  0  0  0  0  0  0  0  0  0  0  0
  -31.5928  -24.0766   20.6822 C   0  0  0  0  0  0  0  0  0  0  0  0
  -32.5858  -25.2041   18.6480 C   0  0  0  0  0  0  0  0  0  0  0  0
  -31.0565  -23.2883   18.3388 C   0  0  0  0  0  0  0  0  0  0  0  0
  -20.6495  -29.0492   23.6081 C   0  0  1  0  0  0  0  0  0  0  0  0
  -23.5536  -26.6620   24.1563 C   0  0  1  0  0  0  0  0  0  0  0  0
  -30.5248  -23.4394   19.7735 C   0  0  1  0  0  0  0  0  0  0  0  0
  -31.1291  -25.0202   25.3017 C   0  0  0  0  0  0  0  0  0  0  0  0
  -26.5729  -30.1575   24.3170 C   0  0  0  0  0  0  0  0  0  0  0  0
  -28.9672  -29.5007   24.6395 C   0  0  0  0  0  0  0  0  0  0  0  0
  -27.3702  -29.3649   26.5510 C   0  0  0  0  0  0  0  0  0  0  0  0
  -27.7832  -23.2535   25.7013 C   0  0  0  0  0  0  0  0  0  0  0  0
  -25.6900  -24.5680   15.3581 C   0  0  0  0  0  0  0  0  0  0  0  0
  -25.5378  -23.4387   16.3783 C   0  0  0  0  0  0  0  0  0  0  0  0
  -26.7609  -24.2803   14.2997 C   0  0  0  0  0  0  0  0  0  0  0  0
  -24.4425  -23.7440   17.3912 C   0  0  0  0  0  0  0  0  0  1  0  0
  -27.2030  -27.6793   24.6740 C   0  0  1  0  0  0  0  0  0  0  0  0
  -29.6386  -24.9218   25.5871 C   0  0  2  0  0  0  0  0  0  0  0  0
  -27.5119  -29.1618   25.0267 C   0  0  0  0  0  0  0  0  0  0  0  0
  -28.8726  -23.0497   14.6452 N   0  0  0  0  0  0  0  0  0  0  0  0
  -30.6165  -20.9809   19.9414 N   0  0  0  0  0  0  0  0  0  0  0  0
  -28.1564  -24.1664   14.8597 N   0  0  0  0  0  0  0  0  0  0  0  0
  -30.0196  -22.1210   20.3286 N   0  0  0  0  0  0  0  0  0  0  0  0
  -31.5399  -24.5823   17.8368 N   0  0  0  0  0  0  0  0  0  0  0  0
  -24.9881  -26.8579   23.9370 N   0  0  0  0  0  0  0  0  0  0  0  0
  -28.2861  -22.9745   21.6988 N   0  0  0  0  0  0  0  0  0  0  0  0
  -28.0323  -18.5134   22.3553 N   0  0  0  0  0  0  0  0  0  0  0  0
  -21.5025  -27.9288   23.9421 N   0  0  0  0  0  0  0  0  0  0  0  0
  -28.0593  -26.7127   25.3528 N   0  0  0  0  0  0  0  0  0  0  0  0
  -29.2225  -23.4996   25.4278 N   0  3  0  0  0  0  0  0  0  0  0  0
  -31.5247  -26.2849   16.2342 O   0  0  0  0  0  0  0  0  0  0  0  0
  -27.1015  -20.5335   22.9135 O   0  0  0  0  0  0  0  0  0  0  0  0
  -23.5302  -28.8438   23.2540 O   0  0  0  0  0  0  0  0  0  0  0  0
  -25.3940  -27.3662   26.1760 O   0  0  0  0  0  0  0  0  0  0  0  0
  -28.8994  -25.7236   23.4311 O   0  0  0  0  0  0  0  0  0  0  0  0
  -31.2888  -14.6491   20.0107 O   0  0  0  0  0  0  0  0  0  0  0  0
  -24.7696  -24.9538   18.0736 O   0  0  0  0  0  0  0  0  0  1  0  0
  -27.1817  -11.0379   19.3067 F   0  0  0  0  0  0  0  0  0  0  0  0
  -31.1458  -13.0903   17.7320 F   0  0  0  0  0  0  0  0  0  0  0  0
  1  2  1  0  0  0  0
  1  5  2  0  0  0  0
  2  6  2  0  0  0  0
  3  8  2  0  0  0  0
  3 17  1  0  0  0  0
  4  9  1  0  0  0  0
  4 17  2  0  0  0  0
  5 20  1  0  0  0  0
  6 22  1  0  0  0  0
  7 10  2  0  0  0  0
  7 21  1  0  0  0  0
  8 24  1  0  0  0  0
  9 24  2  0  0  0  0
 10 25  1  0  0  0  0
 11 12  2  0  0  0  0
 11 26  1  0  0  0  0
 12 27  1  0  0  0  0
 13 23  1  0  0  0  0
 13 25  2  0  0  0  0
 14 27  2  0  0  0  0
 14 28  1  0  0  0  0
 15 18  1  0  0  0  0
 15 60  2  0  0  0  0
 16 18  2  0  0  0  0
 16 62  1  0  0  0  0
 17 29  1  0  0  0  0
 18 31  1  0  0  0  0
 19 29  1  0  0  0  0
 19 30  2  0  0  0  0
 19 32  1  0  0  0  0
 20 22  2  0  0  0  0
 20 36  1  0  0  0  0
 21 23  2  0  0  0  0
 21 37  1  0  0  0  0
 22 45  1  0  0  0  0
 23 38  1  0  0  0  0
 24 76  1  0  0  0  0
 25 77  1  0  0  0  0
 26 28  2  0  0  0  0
 26 76  1  0  0  0  0
 27 78  1  0  0  0  0
 28 79  1  0  0  0  0
 29 61  2  0  0  0  0
 30 63  1  0  0  0  0
 30 66  1  0  0  0  0
 31 64  1  0  0  0  0
 31 71  2  0  0  0  0
 32 67  1  0  0  0  0
 32 72  2  0  0  0  0
 33 46  1  0  0  0  0
 33 68  1  0  0  0  0
 33 73  2  0  0  0  0
 34 57  1  0  0  0  0
 34 65  1  0  0  0  0
 34 74  2  0  0  0  0
 35 58  1  0  0  0  0
 35 69  1  0  0  0  0
 35 75  2  0  0  0  0
 36 39  1  0  0  0  0
 37 46  1  0  0  0  0
 38 65  1  0  0  0  0
 39 41  1  0  0  0  0
 40 42  1  0  0  0  0
 40 43  1  0  0  0  0
 41 45  1  0  0  0  0
 42 47  1  0  0  0  0
 43 64  1  0  0  0  0
 44 47  1  0  0  0  0
 44 64  1  0  0  0  0
 45 68  1  0  0  0  0
 46 65  1  0  0  0  0
 47 63  1  0  0  0  0
 48 58  1  0  0  0  0
 49 59  1  0  0  0  0
 50 59  1  0  0  0  0
 51 59  1  0  0  0  0
 52 70  1  0  0  0  0
 53 54  1  0  0  0  0
 53 55  1  0  0  0  0
 54 56  1  0  0  0  0
 55 62  1  0  0  0  0
 56 77  1  0  0  0  0
 57 59  1  0  0  0  0
 57 69  1  0  0  0  0
 58 70  1  0  0  0  0
 60 62  1  0  0  0  0
 61 63  1  0  0  0  0
M  CHG  1  70   1
M  ISO  4  18 100  31 100  56 101  77 101
M  END
> <Batch ID>
0036

> <Smiles>
CNC(C)C(=O)NC(C(=O)N1Cc2cc([101O:1][101CH2:1]CCCn3c[100c:0]([100C:0](=O)N4CCCC(n5nc(-c6ccc(Oc7ccc(F)cc7F)cc6)c(C(N)=O)c5N)C4)cn3)ccc2CC1C(=O)NC1CCCc2ccccc21)C(C)(C)C

> <Shape>
0.204

> <Color>
0.062

> <Negative vol penalty>
0.000

$$$$

  -OEChem-04052316563D

 84 92  0     1  0  0  0  0  0999 V2000
  -19.7162   -7.7555   20.3066 C   0  0  0  0  0  0  0  0  0  0  0  0
  -20.1484   -8.7780   21.1451 C   0  0  0  0  0  0  0  0  0  0  0  0
  -26.1127  -29.3292   19.4960 C   0  0  0  0  0  0  0  0  0  0  0  0
  -26.2406  -28.7110   21.8281 C   0  0  0  0  0  0  0  0  0  0  0  0
  -20.6470   -6.9912   19.6041 C   0  0  0  0  0  0  0  0  0  0  0  0
  -21.5119   -9.0362   21.2824 C   0  0  0  0  0  0  0  0  0  0  0  0
  -22.5819  -13.9821   21.0864 C   0  0  0  0  0  0  0  0  0  0  0  0
  -24.8693  -19.9090   23.2142 C   0  0  0  0  0  0  0  0  0  0  0  0
  -23.7116  -19.2030   23.5411 C   0  0  0  0  0  0  0  0  0  0  0  0
  -24.9326  -30.0294   19.7463 C   0  0  0  0  0  0  0  0  0  0  0  0
  -25.0604  -29.4112   22.0784 C   0  0  0  0  0  0  0  0  0  0  0  0
  -22.3314  -14.7336   22.2337 C   0  0  0  0  0  0  0  0  0  0  0  0
  -21.8898  -30.7348   23.2637 C   0  0  0  0  0  0  0  0  0  0  0  0
  -20.9250  -30.1161   24.0587 C   0  0  0  0  0  0  0  0  0  0  0  0
  -24.6722  -14.6272   22.8072 C   0  0  0  0  0  0  0  0  0  0  0  0
  -25.7655  -19.4574   25.4119 C   0  0  0  0  0  0  0  0  0  0  0  0
  -20.7740  -28.3053   22.4664 C   0  0  0  0  0  0  0  0  0  0  0  0
  -26.7667  -28.6699   20.5369 C   0  0  0  0  0  0  0  0  0  0  0  0
  -29.3001  -28.4457   20.3395 C   0  0  0  0  0  0  0  0  0  0  0  0
  -22.0221   -7.2465   19.7254 C   0  0  0  0  0  0  0  0  0  0  0  0
  -23.8798  -13.5374   20.7961 C   0  0  0  0  0  0  0  0  0  0  0  0
  -22.4620   -8.2738   20.5819 C   0  0  0  0  0  0  0  0  0  0  0  0
  -24.9369  -13.8723   21.6543 C   0  0  0  0  0  0  0  0  0  0  0  0
  -25.8963  -20.0362   24.1496 C   0  0  0  0  0  0  0  0  0  0  0  0
  -23.5808  -18.6242   24.8035 C   0  0  0  0  0  0  0  0  0  0  0  0
  -24.6077  -18.7514   25.7389 C   0  0  0  0  0  0  0  0  0  0  0  0
  -24.4065  -30.0704   21.0375 C   0  0  0  0  0  0  0  0  0  0  0  0
  -23.3761  -15.0539   23.0958 C   0  0  0  0  0  0  0  0  0  0  0  0
  -22.2966  -30.1388   22.0700 C   0  0  0  0  0  0  0  0  0  0  0  0
  -20.3671  -28.9014   23.6602 C   0  0  0  0  0  0  0  0  0  0  0  0
  -21.7387  -28.9240   21.6714 C   0  0  0  0  0  0  0  0  0  0  0  0
  -27.9854  -27.9460   20.2789 C   0  0  0  0  0  0  0  0  0  0  0  0
  -30.0912  -27.3716   20.0122 C   0  0  0  0  0  0  0  0  0  0  0  0
  -29.7648  -29.7630   20.6627 C   0  0  0  0  0  0  0  0  0  0  0  0
  -25.2550  -10.6902   20.4704 C   0  0  0  0  0  0  0  0  0  0  0  0
  -27.8163  -12.4642   19.5676 C   0  0  0  0  0  0  0  0  0  0  0  0
  -29.4516  -15.4576   19.6788 C   0  0  0  0  0  0  0  0  0  0  0  0
  -29.2926  -21.4504   20.4031 C   0  0  0  0  0  0  0  0  0  0  0  0
  -22.9927   -6.3629   18.9825 C   0  0  0  0  0  0  0  0  0  0  0  0
  -24.1379  -12.7503   19.5407 C   0  0  0  0  0  0  0  0  0  0  0  0
  -26.3517  -13.4364   21.3773 C   0  0  0  0  0  0  0  0  0  0  0  0
  -24.4013   -6.9447   18.8944 C   0  0  0  0  0  0  0  0  0  0  0  0
  -30.0394  -23.3208   17.4669 C   0  0  0  0  0  0  0  0  0  0  0  0
  -24.8480   -7.4700   20.2551 C   0  0  0  0  0  0  0  0  0  0  0  0
  -29.7163  -24.7633   17.8601 C   0  0  0  0  0  0  0  0  0  0  0  0
  -29.0630  -22.3313   18.0992 C   0  0  0  0  0  0  0  0  0  0  0  0
  -28.6071  -23.8851   19.9571 C   0  0  0  0  0  0  0  0  0  0  0  0
  -23.9313   -8.6005   20.7380 C   0  0  1  0  0  0  0  0  0  0  0  0
  -25.4114  -11.9132   19.6115 C   0  0  1  0  0  0  0  0  0  0  0  0
  -29.5984  -24.9149   19.3886 C   0  0  2  0  0  0  0  0  0  0  0  0
  -23.5830  -18.9502   28.0186 C   0  0  0  0  0  0  0  0  0  0  0  0
  -31.5407  -16.5921   18.8752 C   0  0  0  0  0  0  0  0  0  0  0  0
  -29.4359  -10.9733   21.6805 C   0  0  0  0  0  0  0  0  0  0  0  0
  -31.1851  -12.7550   21.4967 C   0  0  0  0  0  0  0  0  0  0  0  0
  -30.6335  -11.3421   19.5162 C   0  0  0  0  0  0  0  0  0  0  0  0
  -27.9099  -17.4746   18.1577 C   0  0  0  0  0  0  0  0  0  0  0  0
  -27.1337  -20.7915   23.7999 C   0  0  0  0  0  0  0  0  0  0  0  0
  -22.3183  -17.8661   25.1346 C   0  0  0  0  0  0  0  0  0  0  0  0
  -24.4898  -18.1405   27.0967 C   0  0  0  0  0  0  0  0  0  0  0  0
  -28.2483  -19.9334   23.1693 C   0  0  0  0  0  0  0  0  0  0  0  0
  -29.4942  -20.7193   22.7661 C   0  0  0  0  0  0  0  0  0  0  0  0
  -22.0573  -16.7214   24.1616 C   0  0  0  0  0  0  0  0  0  1  0  0
  -28.9842  -13.0976   20.2843 C   0  0  1  0  0  0  0  0  0  0  0  0
  -30.0755  -16.3058   18.5853 C   0  0  2  0  0  0  0  0  0  0  0  0
  -30.0328  -12.0487   20.7509 C   0  0  0  0  0  0  0  0  0  0  0  0
  -27.9397  -26.6549   19.9396 N   0  0  0  0  0  0  0  0  0  0  0  0
  -29.2355  -26.3343   19.7841 N   0  0  0  0  0  0  0  0  0  0  0  0
  -26.5522  -12.6634   20.1404 N   0  0  0  0  0  0  0  0  0  0  0  0
  -28.9990  -22.5267   19.5496 N   0  0  0  0  0  0  0  0  0  0  0  0
  -31.4282  -27.2228   19.9002 N   0  0  0  0  0  0  0  0  0  0  0  0
  -28.8175  -30.7477   20.9749 N   0  0  0  0  0  0  0  0  0  0  0  0
  -24.2507   -9.8364   20.0560 N   0  0  0  0  0  0  0  0  0  0  0  0
  -29.5156  -14.1128   19.3812 N   0  0  0  0  0  0  0  0  0  0  0  0
  -29.2145  -21.7228   21.7634 N   0  0  0  0  0  0  0  0  0  0  0  0
  -29.3574  -17.6061   18.4652 N   0  3  0  0  0  0  0  0  0  0  0  0
  -30.9829  -30.0624   20.6584 O   0  0  0  0  0  0  0  0  0  0  0  0
  -25.9921  -10.5323   21.4366 O   0  0  0  0  0  0  0  0  0  0  0  0
  -28.0174  -11.8225   18.5334 O   0  0  0  0  0  0  0  0  0  0  0  0
  -28.9602  -15.9396   20.6970 O   0  0  0  0  0  0  0  0  0  0  0  0
  -29.6065  -20.3312   19.9839 O   0  0  0  0  0  0  0  0  0  0  0  0
  -23.2551  -30.7538   21.2821 O   0  0  0  0  0  0  0  0  0  0  0  0
  -23.1343  -15.7868   24.2166 O   0  0  0  0  0  0  0  0  0  1  0  0
  -19.4418  -28.3067   24.4245 F   0  0  0  0  0  0  0  0  0  0  0  0
  -22.1264  -28.3460   20.5262 F   0  0  0  0  0  0  0  0  0  0  0  0
  1  2  1  0  0  0  0
  1  5  2  0  0  0  0
  2  6  2  0  0  0  0
  3 10  2  0  0  0  0
  3 18  1  0  0  0  0
  4 11  1  0  0  0  0
  4 18  2  0  0  0  0
  5 20  1  0  0  0  0
  6 22  1  0  0  0  0
  7 12  2  0  0  0  0
  7 21  1  0  0  0  0
  8  9  2  0  0  0  0
  8 24  1  0  0  0  0
  9 25  1  0  0  0  0
 10 27  1  0  0  0  0
 11 27  2  0  0  0  0
 12 28  1  0  0  0  0
 13 14  2  0  0  0  0
 13 29  1  0  0  0  0
 14 30  1  0  0  0  0
 15 23  1  0  0  0  0
 15 28  2  0  0  0  0
 16 24  2  0  0  0  0
 16 26  1  0  0  0  0
 17 30  2  0  0  0  0
 17 31  1  0  0  0  0
 18 32  1  0  0  0  0
 19 32  1  0  0  0  0
 19 33  2  0  0  0  0
 19 34  1  0  0  0  0
 20 22  2  0  0  0  0
 20 39  1  0  0  0  0
 21 23  2  0  0  0  0
 21 40  1  0  0  0  0
 22 48  1  0  0  0  0
 23 41  1  0  0  0  0
 24 57  1  0  0  0  0
 25 26  2  0  0  0  0
 25 58  1  0  0  0  0
 26 59  1  0  0  0  0
 27 81  1  0  0  0  0
 28 82  1  0  0  0  0
 29 31  2  0  0  0  0
 29 81  1  0  0  0  0
 30 83  1  0  0  0  0
 31 84  1  0  0  0  0
 32 66  2  0  0  0  0
 33 67  1  0  0  0  0
 33 70  1  0  0  0  0
 34 71  1  0  0  0  0
 34 76  2  0  0  0  0
 35 49  1  0  0  0  0
 35 72  1  0  0  0  0
 35 77  2  0  0  0  0
 36 63  1  0  0  0  0
 36 68  1  0  0  0  0
 36 78  2  0  0  0  0
 37 64  1  0  0  0  0
 37 73  1  0  0  0  0
 37 79  2  0  0  0  0
 38 69  1  0  0  0  0
 38 74  1  0  0  0  0
 38 80  2  0  0  0  0
 39 42  1  0  0  0  0
 40 49  1  0  0  0  0
 41 68  1  0  0  0  0
 42 44  1  0  0  0  0
 43 45  1  0  0  0  0
 43 46  1  0  0  0  0
 44 48  1  0  0  0  0
 45 50  1  0  0  0  0
 46 69  1  0  0  0  0
 47 50  1  0  0  0  0
 47 69  1  0  0  0  0
 48 72  1  0  0  0  0
 49 68  1  0  0  0  0
 50 67  1  0  0  0  0
 51 59  1  0  0  0  0
 52 64  1  0  0  0  0
 53 65  1  0  0  0  0
 54 65  1  0  0  0  0
 55 65  1  0  0  0  0
 56 75  1  0  0  0  0
 57 60  1  0  0  0  0
 58 62  1  0  0  0  0
 60 61  1  0  0  0  0
 61 74  1  0  0  0  0
 62 82  1  0  0  0  0
 63 65  1  0  0  0  0
 63 73  1  0  0  0  0
 64 75  1  0  0  0  0
 66 67  1  0  0  0  0
M  CHG  1  75   1
M  ISO  4  38 100  62 101  74 100  82 101
M  END
> <Batch ID>
0036

> <Smiles>
CCc1cc(CCC[100NH:0][100C:0](=O)N2CCCC(n3nc(-c4ccc(Oc5ccc(F)cc5F)cc4)c(C(N)=O)c3N)C2)ccc1C[101CH2:1][101O:1]c1ccc2c(c1)CN(C(=O)C(NC(=O)C(C)NC)C(C)(C)C)C(C(=O)NC1CCCc3ccccc31)C2

> <Shape>
0.289

> <Color>
0.061

> <Negative vol penalty>
0.000

$$$$

  -OEChem-04052316563D

 82 90  0     1  0  0  0  0  0999 V2000
  -19.9160  -28.7910   25.8934 C   0  0  0  0  0  0  0  0  0  0  0  0
  -21.2377  -28.3629   25.8218 C   0  0  0  0  0  0  0  0  0  0  0  0
  -24.5760  -14.3151   21.3546 C   0  0  0  0  0  0  0  0  0  0  0  0
  -26.9675  -13.9752   21.3065 C   0  0  0  0  0  0  0  0  0  0  0  0
  -19.0866  -28.6783   24.7783 C   0  0  0  0  0  0  0  0  0  0  0  0
  -21.7306  -27.8208   24.6354 C   0  0  0  0  0  0  0  0  0  0  0  0
  -27.4066  -28.3888   22.4070 C   0  0  0  0  0  0  0  0  0  0  0  0
  -24.3839  -13.0389   20.8254 C   0  0  0  0  0  0  0  0  0  0  0  0
  -26.7754  -12.6989   20.7773 C   0  0  0  0  0  0  0  0  0  0  0  0
  -28.5179  -27.5478   22.4454 C   0  0  0  0  0  0  0  0  0  0  0  0
  -24.4056   -9.8487   21.9455 C   0  0  0  0  0  0  0  0  0  0  0  0
  -23.4226   -9.0473   22.5262 C   0  0  0  0  0  0  0  0  0  0  0  0
  -27.9417  -26.6965   20.2631 C   0  0  0  0  0  0  0  0  0  0  0  0
  -32.7284  -23.5182   22.7308 C   0  0  0  0  0  0  0  0  0  0  0  0
  -31.7208  -23.4838   20.5353 C   0  0  0  0  0  0  0  0  0  0  0  0
  -22.2674   -8.9292   20.4076 C   0  0  0  0  0  0  0  0  0  0  0  0
  -25.8678  -14.7833   21.5951 C   0  0  0  0  0  0  0  0  0  0  0  0
  -26.1448  -16.4555   23.5015 C   0  0  0  0  0  0  0  0  0  0  0  0
  -19.5723  -28.1435   23.5747 C   0  0  0  0  0  0  0  0  0  0  0  0
  -26.5469  -28.3821   21.2991 C   0  0  0  0  0  0  0  0  0  0  0  0
  -20.9065  -27.6996   23.5036 C   0  0  0  0  0  0  0  0  0  0  0  0
  -26.8216  -27.5402   20.2119 C   0  0  0  0  0  0  0  0  0  0  0  0
  -32.2391  -24.1981   21.6155 C   0  0  0  0  0  0  0  0  0  0  0  0
  -32.6997  -22.1241   22.7658 C   0  0  0  0  0  0  0  0  0  0  0  0
  -31.6920  -22.0897   20.5703 C   0  0  0  0  0  0  0  0  0  0  0  0
  -32.1814  -21.4098   21.6856 C   0  0  0  0  0  0  0  0  0  0  0  0
  -25.4836  -12.2308   20.5368 C   0  0  0  0  0  0  0  0  0  0  0  0
  -28.7840  -26.6994   21.3747 C   0  0  0  0  0  0  0  0  0  0  0  0
  -24.3194  -10.1904   20.5959 C   0  0  0  0  0  0  0  0  0  0  0  0
  -22.3535   -8.5876   21.7573 C   0  0  0  0  0  0  0  0  0  0  0  0
  -23.2503   -9.7306   19.8269 C   0  0  0  0  0  0  0  0  0  0  0  0
  -26.0669  -16.1017   22.1412 C   0  0  0  0  0  0  0  0  0  0  0  0
  -26.3387  -17.8152   23.4921 C   0  0  0  0  0  0  0  0  0  0  0  0
  -26.0503  -15.6290   24.6693 C   0  0  0  0  0  0  0  0  0  0  0  0
  -23.4752  -27.7007   20.8475 C   0  0  0  0  0  0  0  0  0  0  0  0
  -24.0805  -28.7724   17.8462 C   0  0  0  0  0  0  0  0  0  0  0  0
  -26.3701  -29.3452   15.3812 C   0  0  0  0  0  0  0  0  0  0  0  0
  -28.6608  -21.5747   19.4517 C   0  0  0  0  0  0  0  0  0  0  0  0
  -18.6248  -27.9982   22.4103 C   0  0  0  0  0  0  0  0  0  0  0  0
  -25.3674  -29.3146   21.2614 C   0  0  0  0  0  0  0  0  0  0  0  0
  -25.9411  -27.5097   18.9903 C   0  0  0  0  0  0  0  0  0  0  0  0
  -19.3297  -27.7581   21.0777 C   0  0  0  0  0  0  0  0  0  0  0  0
  -25.4025  -21.7130   20.8803 C   0  0  0  0  0  0  0  0  0  0  0  0
  -20.4071  -26.6890   21.2287 C   0  0  0  0  0  0  0  0  0  0  0  0
  -25.2103  -20.3225   21.4882 C   0  0  0  0  0  0  0  0  0  0  0  0
  -26.1878  -21.6534   19.5719 C   0  0  0  0  0  0  0  0  0  0  0  0
  -27.2900  -19.5612   20.2659 C   0  0  0  0  0  0  0  0  0  0  0  0
  -21.4849  -27.1290   22.2269 C   0  0  1  0  0  0  0  0  0  0  0  0
  -24.2717  -28.8537   20.3052 C   0  0  1  0  0  0  0  0  0  0  0  0
  -26.5518  -19.5759   21.6154 C   0  0  2  0  0  0  0  0  0  0  0  0
  -33.2290  -21.4201   23.9725 C   0  0  0  0  0  0  0  0  0  0  0  0
  -32.1503  -19.9150   21.7237 C   0  0  0  0  0  0  0  0  0  0  0  0
  -26.5594  -30.1923   13.0266 C   0  0  0  0  0  0  0  0  0  0  0  0
  -22.9334  -26.1417   16.8102 C   0  0  0  0  0  0  0  0  0  0  0  0
  -23.9995  -26.6286   14.5978 C   0  0  0  0  0  0  0  0  0  0  0  0
  -22.2534  -28.1627   15.5036 C   0  0  0  0  0  0  0  0  0  0  0  0
  -28.1577  -31.5581   16.1977 C   0  0  0  0  0  0  0  0  0  0  0  0
  -32.2708  -25.7067   21.5773 C   0  0  0  0  0  0  0  0  0  0  0  0
  -31.1317  -21.3482   19.4007 C   0  0  0  0  0  0  0  0  0  0  0  0
  -31.0015  -26.3281   22.1498 C   0  0  0  0  0  0  0  0  0  1  0  0
  -24.5506  -28.1386   16.5592 C   0  0  1  0  0  0  0  0  0  0  0  0
  -26.6216  -30.5568   14.5017 C   0  0  2  0  0  0  0  0  0  0  0  0
  -23.4499  -27.2668   15.8914 C   0  0  0  0  0  0  0  0  0  0  0  0
  -26.2003  -17.1519   21.3268 N   0  0  0  0  0  0  0  0  0  0  0  0
  -26.3638  -18.1790   22.1779 N   0  0  0  0  0  0  0  0  0  0  0  0
  -24.7965  -28.4354   19.0037 N   0  0  0  0  0  0  0  0  0  0  0  0
  -27.4498  -20.9340   19.7613 N   0  0  0  0  0  0  0  0  0  0  0  0
  -26.4884  -18.7232   24.4798 N   0  0  0  0  0  0  0  0  0  0  0  0
  -25.8505  -14.2523   24.4990 N   0  0  0  0  0  0  0  0  0  0  0  0
  -22.3870  -28.0783   21.6108 N   0  0  0  0  0  0  0  0  0  0  0  0
  -25.0391  -29.2289   15.7219 N   0  0  0  0  0  0  0  0  0  0  0  0
  -29.8104  -20.8243   19.6663 N   0  0  0  0  0  0  0  0  0  0  0  0
  -27.9656  -31.1339   14.7870 N   0  3  0  0  0  0  0  0  0  0  0  0
  -26.1241  -16.0998   25.8296 O   0  0  0  0  0  0  0  0  0  0  0  0
  -23.8215  -26.5535   20.5911 O   0  0  0  0  0  0  0  0  0  0  0  0
  -23.1182  -29.5438   17.8242 O   0  0  0  0  0  0  0  0  0  0  0  0
  -27.2643  -28.5767   15.7279 O   0  0  0  0  0  0  0  0  0  0  0  0
  -28.7140  -22.7318   19.0213 O   0  0  0  0  0  0  0  0  0  0  0  0
  -25.2965  -10.9854   20.0206 O   0  0  0  0  0  0  0  0  0  0  0  0
  -29.8677  -25.8770   21.4100 O   0  0  0  0  0  0  0  0  0  1  0  0
  -21.4105   -7.8168   22.3147 F   0  0  0  0  0  0  0  0  0  0  0  0
  -23.1628  -10.0546   18.5296 F   0  0  0  0  0  0  0  0  0  0  0  0
  1  2  1  0  0  0  0
  1  5  2  0  0  0  0
  2  6  2  0  0  0  0
  3  8  2  0  0  0  0
  3 17  1  0  0  0  0
  4  9  1  0  0  0  0
  4 17  2  0  0  0  0
  5 19  1  0  0  0  0
  6 21  1  0  0  0  0
  7 10  2  0  0  0  0
  7 20  1  0  0  0  0
  8 27  1  0  0  0  0
  9 27  2  0  0  0  0
 10 28  1  0  0  0  0
 11 12  2  0  0  0  0
 11 29  1  0  0  0  0
 12 30  1  0  0  0  0
 13 22  1  0  0  0  0
 13 28  2  0  0  0  0
 14 23  1  0  0  0  0
 14 24  2  0  0  0  0
 15 23  2  0  0  0  0
 15 25  1  0  0  0  0
 16 30  2  0  0  0  0
 16 31  1  0  0  0  0
 17 32  1  0  0  0  0
 18 32  1  0  0  0  0
 18 33  2  0  0  0  0
 18 34  1  0  0  0  0
 19 21  2  0  0  0  0
 19 39  1  0  0  0  0
 20 22  2  0  0  0  0
 20 40  1  0  0  0  0
 21 48  1  0  0  0  0
 22 41  1  0  0  0  0
 23 58  1  0  0  0  0
 24 26  1  0  0  0  0
 24 51  1  0  0  0  0
 25 26  2  0  0  0  0
 25 59  1  0  0  0  0
 26 52  1  0  0  0  0
 27 79  1  0  0  0  0
 28 80  1  0  0  0  0
 29 31  2  0  0  0  0
 29 79  1  0  0  0  0
 30 81  1  0  0  0  0
 31 82  1  0  0  0  0
 32 64  2  0  0  0  0
 33 65  1  0  0  0  0
 33 68  1  0  0  0  0
 34 69  1  0  0  0  0
 34 74  2  0  0  0  0
 35 49  1  0  0  0  0
 35 70  1  0  0  0  0
 35 75  2  0  0  0  0
 36 61  1  0  0  0  0
 36 66  1  0  0  0  0
 36 76  2  0  0  0  0
 37 62  1  0  0  0  0
 37 71  1  0  0  0  0
 37 77  2  0  0  0  0
 38 67  1  0  0  0  0
 38 72  1  0  0  0  0
 38 78  2  0  0  0  0
 39 42  1  0  0  0  0
 40 49  1  0  0  0  0
 41 66  1  0  0  0  0
 42 44  1  0  0  0  0
 43 45  1  0  0  0  0
 43 46  1  0  0  0  0
 44 48  1  0  0  0  0
 45 50  1  0  0  0  0
 46 67  1  0  0  0  0
 47 50  1  0  0  0  0
 47 67  1  0  0  0  0
 48 70  1  0  0  0  0
 49 66  1  0  0  0  0
 50 65  1  0  0  0  0
 53 62  1  0  0  0  0
 54 63  1  0  0  0  0
 55 63  1  0  0  0  0
 56 63  1  0  0  0  0
 57 73  1  0  0  0  0
 58 60  1  0  0  0  0
 59 72  1  0  0  0  0
 60 80  1  0  0  0  0
 61 63  1  0  0  0  0
 61 71  1  0  0  0  0
 62 73  1  0  0  0  0
 64 65  1  0  0  0  0
M  CHG  1  73   1
M  ISO  4  38 100  60 101  72 100  80 101
M  END
> <Batch ID>
0036

> <Smiles>
CNC(C)C(=O)NC(C(=O)N1Cc2cc([101O:1][101CH2:1]Cc3cc(C)c(C)c(C[100NH:0][100C:0](=O)N4CCCC(n5nc(-c6ccc(Oc7ccc(F)cc7F)cc6)c(C(N)=O)c5N)C4)c3)ccc2CC1C(=O)NC1CCCc2ccccc21)C(C)(C)C

> <Shape>
0.199

> <Color>
0.078

> <Negative vol penalty>
0.000

$$$$

  -OEChem-04052316563D

 90 98  0     1  0  0  0  0  0999 V2000
  -28.3146  -38.0850   19.4090 C   0  0  0  0  0  0  0  0  0  0  0  0
  -28.2090  -37.2786   18.2803 C   0  0  0  0  0  0  0  0  0  0  0  0
  -23.0007   -9.8948   19.9820 C   0  0  0  0  0  0  0  0  0  0  0  0
  -23.7303   -9.9449   22.2847 C   0  0  0  0  0  0  0  0  0  0  0  0
  -28.7551  -37.5405   20.6146 C   0  0  0  0  0  0  0  0  0  0  0  0
  -28.5449  -35.9273   18.3563 C   0  0  0  0  0  0  0  0  0  0  0  0
  -25.9023  -31.3013   15.3360 C   0  0  0  0  0  0  0  0  0  0  0  0
  -22.2356   -8.7595   20.2491 C   0  0  0  0  0  0  0  0  0  0  0  0
  -22.9652   -8.8097   22.5518 C   0  0  0  0  0  0  0  0  0  0  0  0
  -26.2564  -30.6151   14.1752 C   0  0  0  0  0  0  0  0  0  0  0  0
  -23.2114   -5.4712   22.0774 C   0  0  0  0  0  0  0  0  0  0  0  0
  -23.8012   -4.4541   22.8278 C   0  0  0  0  0  0  0  0  0  0  0  0
  -27.3035  -28.9032   15.5139 C   0  0  0  0  0  0  0  0  0  0  0  0
  -22.0804   -4.6945   24.5065 C   0  0  0  0  0  0  0  0  0  0  0  0
  -26.9508  -25.5186   12.5788 C   0  0  0  0  0  0  0  0  0  0  0  0
  -23.7481  -10.4875   20.9998 C   0  0  0  0  0  0  0  0  0  0  0  0
  -24.1310  -13.0035   20.8245 C   0  0  0  0  0  0  0  0  0  0  0  0
  -29.0874  -36.1798   20.7078 C   0  0  0  0  0  0  0  0  0  0  0  0
  -26.2562  -30.7983   16.5962 C   0  0  0  0  0  0  0  0  0  0  0  0
  -28.9916  -35.3644   19.5639 C   0  0  0  0  0  0  0  0  0  0  0  0
  -26.9504  -29.5836   16.6892 C   0  0  0  0  0  0  0  0  0  0  0  0
  -22.2178   -8.2169   21.5340 C   0  0  0  0  0  0  0  0  0  0  0  0
  -26.9596  -29.4174   14.2639 C   0  0  0  0  0  0  0  0  0  0  0  0
  -22.0561   -6.1001   22.5416 C   0  0  0  0  0  0  0  0  0  0  0  0
  -23.2357   -4.0657   24.0423 C   0  0  0  0  0  0  0  0  0  0  0  0
  -21.4906   -5.7118   23.7561 C   0  0  0  0  0  0  0  0  0  0  0  0
  -24.5391  -11.6599   20.7243 C   0  0  0  0  0  0  0  0  0  0  0  0
  -26.1279  -26.3892   11.8395 C   0  0  0  0  0  0  0  0  0  0  0  0
  -26.0984  -24.5405   13.0296 C   0  0  0  0  0  0  0  0  0  0  0  0
  -25.2394  -13.7272   20.4584 C   0  0  0  0  0  0  0  0  0  0  0  0
  -22.8633  -13.5486   21.2138 C   0  0  0  0  0  0  0  0  0  0  0  0
  -28.0630  -31.8331   18.9979 C   0  0  0  0  0  0  0  0  0  0  0  0
  -26.8979  -29.2015   20.4945 C   0  0  0  0  0  0  0  0  0  0  0  0
  -25.5433  -26.0802   20.2311 C   0  0  0  0  0  0  0  0  0  0  0  0
  -30.7355  -14.6663   20.6969 C   0  0  0  0  0  0  0  0  0  0  0  0
  -29.6039  -35.6469   22.0208 C   0  0  0  0  0  0  0  0  0  0  0  0
  -25.8434  -31.5369   17.8398 C   0  0  0  0  0  0  0  0  0  0  0  0
  -27.3364  -28.9906   18.0189 C   0  0  0  0  0  0  0  0  0  0  0  0
  -29.5827  -34.1232   22.1105 C   0  0  0  0  0  0  0  0  0  0  0  0
  -29.5923  -12.2430   18.3521 C   0  0  0  0  0  0  0  0  0  0  0  0
  -30.1585  -33.5056   20.8401 C   0  0  0  0  0  0  0  0  0  0  0  0
  -28.1448  -11.9819   18.7724 C   0  0  0  0  0  0  0  0  0  0  0  0
  -30.4968  -12.4785   19.5598 C   0  0  0  0  0  0  0  0  0  0  0  0
  -28.5886  -13.2716   20.9027 C   0  0  0  0  0  0  0  0  0  0  0  0
  -29.3230  -33.8887   19.6127 C   0  0  1  0  0  0  0  0  0  0  0  0
  -26.7042  -31.1942   19.0518 C   0  0  1  0  0  0  0  0  0  0  0  0
  -27.6275  -13.0838   19.7164 C   0  0  2  0  0  0  0  0  0  0  0  0
  -24.7321  -24.1605   21.6289 C   0  0  0  0  0  0  0  0  0  0  0  0
  -29.7861  -28.4054   21.0728 C   0  0  0  0  0  0  0  0  0  0  0  0
  -28.9717  -26.0962   21.5949 C   0  0  0  0  0  0  0  0  0  0  0  0
  -28.2005  -28.0294   22.9699 C   0  0  0  0  0  0  0  0  0  0  0  0
  -23.6317  -24.1476   12.7554 C   0  0  0  0  0  0  0  0  0  0  0  0
  -22.8020  -26.2898   19.1356 C   0  0  0  0  0  0  0  0  0  0  0  0
  -26.5275  -27.6178   11.1328 C   0  0  0  0  0  0  0  0  0  0  0  0
  -26.3511  -23.3243   13.8710 C   0  0  0  0  0  0  0  0  0  0  0  0
  -27.4024  -19.8027   19.5791 C   0  0  0  0  0  0  0  0  0  0  0  0
  -28.8870  -19.4825   19.7619 C   0  0  0  0  0  0  0  0  0  0  0  0
  -27.2001  -20.9751   18.6176 C   0  0  0  0  0  0  0  0  0  0  0  0
  -29.0904  -18.3315   20.7495 C   0  0  0  0  0  0  0  0  0  0  0  0
  -25.7164  -21.3168   18.4611 C   0  0  0  0  0  0  0  0  0  0  0  0
  -30.5747  -17.9843   20.8986 C   0  0  0  0  0  0  0  0  0  0  0  0
  -25.5188  -22.5102   17.5220 C   0  0  0  0  0  0  0  0  0  0  0  0
  -30.8187  -16.8445   21.8832 C   0  0  0  0  0  0  0  0  0  0  0  0
  -26.0483  -22.2677   16.1140 C   0  0  0  0  0  0  0  0  0  0  0  0
  -26.4462  -28.8842   12.0038 C   0  0  0  0  0  0  0  0  0  1  0  0
  -27.3292  -27.7596   20.6119 C   0  0  1  0  0  0  0  0  0  0  0  0
  -24.3439  -25.4423   20.9084 C   0  0  2  0  0  0  0  0  0  0  0  0
  -28.5664  -27.5845   21.5371 C   0  0  0  0  0  0  0  0  0  0  0  0
  -25.8077  -11.5347   20.3256 N   0  0  0  0  0  0  0  0  0  0  0  0
  -24.8508  -25.9985   11.8192 N   0  0  0  0  0  0  0  0  0  0  0  0
  -24.8649  -24.8716   12.5513 N   0  0  0  0  0  0  0  0  0  0  0  0
  -26.2063  -12.8089   20.1720 N   0  0  0  0  0  0  0  0  0  0  0  0
  -26.9156  -29.7534   19.2057 N   0  0  0  0  0  0  0  0  0  0  0  0
  -29.9508  -13.5362   20.4136 N   0  0  0  0  0  0  0  0  0  0  0  0
  -25.4716  -15.0532   20.3567 N   0  0  0  0  0  0  0  0  0  0  0  0
  -21.8329  -12.6634   21.5588 N   0  0  0  0  0  0  0  0  0  0  0  0
  -28.1136  -33.0958   19.5570 N   0  0  0  0  0  0  0  0  0  0  0  0
  -26.1509  -27.0149   21.0426 N   0  0  0  0  0  0  0  0  0  0  0  0
  -30.1399  -15.6240   21.5084 N   0  0  0  0  0  0  0  0  0  0  0  0
  -23.2936  -25.1164   19.9026 N   0  3  0  0  0  0  0  0  0  0  0  0
  -25.8713  -23.4746   15.2727 N   0  3  0  0  0  0  0  0  0  0  0  0
  -22.6456  -14.7837   21.2387 O   0  0  0  0  0  0  0  0  0  0  0  0
  -28.9968  -31.2249   18.4882 O   0  0  0  0  0  0  0  0  0  0  0  0
  -26.5512  -29.8135   21.5078 O   0  0  0  0  0  0  0  0  0  0  0  0
  -25.9073  -25.7769   19.0971 O   0  0  0  0  0  0  0  0  0  0  0  0
  -31.8799  -14.8134   20.2547 O   0  0  0  0  0  0  0  0  0  0  0  0
  -21.4712   -7.1093   21.7951 O   0  0  0  0  0  0  0  0  0  0  0  0
  -27.3096  -28.7412   13.1245 O   0  0  0  0  0  0  0  0  0  1  0  0
  -23.8014   -3.0878   24.7620 F   0  0  0  0  0  0  0  0  0  0  0  0
  -20.3800   -6.3114   24.2066 F   0  0  0  0  0  0  0  0  0  0  0  0
  1  2  1  0  0  0  0
  1  5  2  0  0  0  0
  2  6  2  0  0  0  0
  3  8  2  0  0  0  0
  3 16  1  0  0  0  0
  4  9  1  0  0  0  0
  4 16  2  0  0  0  0
  5 18  1  0  0  0  0
  6 20  1  0  0  0  0
  7 10  2  0  0  0  0
  7 19  1  0  0  0  0
  8 22  1  0  0  0  0
  9 22  2  0  0  0  0
 10 23  1  0  0  0  0
 11 12  2  0  0  0  0
 11 24  1  0  0  0  0
 12 25  1  0  0  0  0
 13 21  1  0  0  0  0
 13 23  2  0  0  0  0
 14 25  2  0  0  0  0
 14 26  1  0  0  0  0
 15 28  1  0  0  0  0
 15 29  2  0  0  0  0
 16 27  1  0  0  0  0
 17 27  1  0  0  0  0
 17 30  2  0  0  0  0
 17 31  1  0  0  0  0
 18 20  2  0  0  0  0
 18 36  1  0  0  0  0
 19 21  2  0  0  0  0
 19 37  1  0  0  0  0
 20 45  1  0  0  0  0
 21 38  1  0  0  0  0
 22 87  1  0  0  0  0
 23 88  1  0  0  0  0
 24 26  2  0  0  0  0
 24 87  1  0  0  0  0
 25 89  1  0  0  0  0
 26 90  1  0  0  0  0
 27 69  2  0  0  0  0
 28 54  1  0  0  0  0
 28 70  2  0  0  0  0
 29 55  1  0  0  0  0
 29 71  1  0  0  0  0
 30 72  1  0  0  0  0
 30 75  1  0  0  0  0
 31 76  1  0  0  0  0
 31 82  2  0  0  0  0
 32 46  1  0  0  0  0
 32 77  1  0  0  0  0
 32 83  2  0  0  0  0
 33 66  1  0  0  0  0
 33 73  1  0  0  0  0
 33 84  2  0  0  0  0
 34 67  1  0  0  0  0
 34 78  1  0  0  0  0
 34 85  2  0  0  0  0
 35 74  1  0  0  0  0
 35 79  1  0  0  0  0
 35 86  2  0  0  0  0
 36 39  1  0  0  0  0
 37 46  1  0  0  0  0
 38 73  1  0  0  0  0
 39 41  1  0  0  0  0
 40 42  1  0  0  0  0
 40 43  1  0  0  0  0
 41 45  1  0  0  0  0
 42 47  1  0  0  0  0
 43 74  1  0  0  0  0
 44 47  1  0  0  0  0
 44 74  1  0  0  0  0
 45 77  1  0  0  0  0
 46 73  1  0  0  0  0
 47 72  1  0  0  0  0
 48 67  1  0  0  0  0
 49 68  1  0  0  0  0
 50 68  1  0  0  0  0
 51 68  1  0  0  0  0
 52 71  1  0  0  0  0
 53 80  1  0  0  0  0
 54 65  1  0  0  0  0
 55 81  1  0  0  0  0
 56 57  1  0  0  0  0
 56 58  1  0  0  0  0
 57 59  1  0  0  0  0
 58 60  1  0  0  0  0
 59 61  1  0  0  0  0
 60 62  1  0  0  0  0
 61 63  1  0  0  0  0
 62 64  1  0  0  0  0
 63 79  1  0  0  0  0
 64 81  1  0  0  0  0
 65 88  1  0  0  0  0
 66 68  1  0  0  0  0
 66 78  1  0  0  0  0
 67 80  1  0  0  0  0
 69 72  1  0  0  0  0
 70 71  1  0  0  0  0
M  CHG  2  80   1  81   1
M  ISO  4  35 100  65 101  79 100  88 101
M  END
> <Batch ID>
0036

> <Smiles>
CNC(C)C(=O)NC(C(=O)N1Cc2cc([101O:1][101CH2:1]Cc3cc(CNCCCCCCCCC[100NH:0][100C:0](=O)N4CCCC(n5nc(-c6ccc(Oc7ccc(F)cc7F)cc6)c(C(N)=O)c5N)C4)n(C)n3)ccc2CC1C(=O)NC1CCCc2ccccc21)C(C)(C)C

> <Shape>
0.240

> <Color>
0.193

> <Negative vol penalty>
0.000

$$$$

  -OEChem-04052316563D

 83 91  0     1  0  0  0  0  0999 V2000
  -16.5075  -28.6175   23.1683 C   0  0  0  0  0  0  0  0  0  0  0  0
  -17.3615  -28.4139   22.0890 C   0  0  0  0  0  0  0  0  0  0  0  0
  -26.5242  -15.4820   21.4078 C   0  0  0  0  0  0  0  0  0  0  0  0
  -26.6873  -15.1426   19.0213 C   0  0  0  0  0  0  0  0  0  0  0  0
  -16.9258  -29.3905   24.2506 C   0  0  0  0  0  0  0  0  0  0  0  0
  -18.6339  -28.9842   22.0910 C   0  0  0  0  0  0  0  0  0  0  0  0
  -23.7447  -26.5908   19.7125 C   0  0  0  0  0  0  0  0  0  0  0  0
  -26.1297  -14.1540   21.5698 C   0  0  0  0  0  0  0  0  0  0  0  0
  -26.2928  -13.8145   19.1833 C   0  0  0  0  0  0  0  0  0  0  0  0
  -24.4046  -26.8022   18.5027 C   0  0  0  0  0  0  0  0  0  0  0  0
  -23.4133  -12.1140   19.6811 C   0  0  0  0  0  0  0  0  0  0  0  0
  -22.4521  -11.6120   18.8038 C   0  0  0  0  0  0  0  0  0  0  0  0
  -25.8671  -28.3866   19.5843 C   0  0  0  0  0  0  0  0  0  0  0  0
  -25.2057  -24.5109   14.1527 C   0  0  0  0  0  0  0  0  0  0  0  0
  -24.0166   -9.9319   18.0510 C   0  0  0  0  0  0  0  0  0  0  0  0
  -27.4261  -24.7047   13.3228 C   0  0  0  0  0  0  0  0  0  0  0  0
  -26.8030  -15.9764   20.1336 C   0  0  0  0  0  0  0  0  0  0  0  0
  -28.5240  -17.8534   19.9833 C   0  0  0  0  0  0  0  0  0  0  0  0
  -18.2076  -29.9626   24.2701 C   0  0  0  0  0  0  0  0  0  0  0  0
  -24.1346  -27.2850   20.8668 C   0  0  0  0  0  0  0  0  0  0  0  0
  -19.0693  -29.7668   23.1740 C   0  0  0  0  0  0  0  0  0  0  0  0
  -25.2121  -28.1804   20.8080 C   0  0  0  0  0  0  0  0  0  0  0  0
  -26.2448  -25.3194   13.7055 C   0  0  0  0  0  0  0  0  0  0  0  0
  -25.3773  -23.1320   14.2027 C   0  0  0  0  0  0  0  0  0  0  0  0
  -26.0140  -13.3202   20.4575 C   0  0  0  0  0  0  0  0  0  0  0  0
  -25.4641  -27.7023   18.4378 C   0  0  0  0  0  0  0  0  0  0  0  0
  -24.6763  -11.5251   19.7432 C   0  0  0  0  0  0  0  0  0  0  0  0
  -22.7537  -10.5209   17.9888 C   0  0  0  0  0  0  0  0  0  0  0  0
  -24.9779  -10.4340   18.9282 C   0  0  0  0  0  0  0  0  0  0  0  0
  -27.2101  -17.3483   19.9656 C   0  0  0  0  0  0  0  0  0  0  0  0
  -26.5974  -22.6153   13.7975 C   0  0  0  0  0  0  0  0  0  0  0  0
  -28.3755  -19.2037   19.7803 C   0  0  0  0  0  0  0  0  0  0  0  0
  -29.7675  -17.1638   20.1669 C   0  0  0  0  0  0  0  0  0  0  0  0
  -22.7245  -29.3568   22.8220 C   0  0  0  0  0  0  0  0  0  0  0  0
  -25.4564  -29.0038   24.5351 C   0  0  0  0  0  0  0  0  0  0  0  0
  -28.7676  -28.1782   24.5705 C   0  0  0  0  0  0  0  0  0  0  0  0
  -24.1155  -22.4871   17.1491 C   0  0  0  0  0  0  0  0  0  0  0  0
  -18.5978  -30.8297   25.4409 C   0  0  0  0  0  0  0  0  0  0  0  0
  -23.4297  -27.0258   22.1700 C   0  0  0  0  0  0  0  0  0  0  0  0
  -25.6827  -28.9356   22.0232 C   0  0  0  0  0  0  0  0  0  0  0  0
  -20.0993  -31.0887   25.5332 C   0  0  0  0  0  0  0  0  0  0  0  0
  -25.2806  -22.7805   20.5007 C   0  0  0  0  0  0  0  0  0  0  0  0
  -20.6588  -31.4784   24.1687 C   0  0  0  0  0  0  0  0  0  0  0  0
  -26.0258  -21.4672   20.7452 C   0  0  0  0  0  0  0  0  0  0  0  0
  -24.0474  -22.5749   19.6238 C   0  0  0  0  0  0  0  0  0  0  0  0
  -25.0503  -20.5761   18.5881 C   0  0  0  0  0  0  0  0  0  0  0  0
  -20.4662  -30.3483   23.1503 C   0  0  1  0  0  0  0  0  0  0  0  0
  -23.5789  -28.1701   23.1678 C   0  0  1  0  0  0  0  0  0  0  0  0
  -26.3327  -20.7418   19.4213 C   0  0  2  0  0  0  0  0  0  0  0  0
  -26.7536  -20.5118   12.4420 C   0  0  0  0  0  0  0  0  0  0  0  0
  -30.7427  -28.0229   26.1107 C   0  0  0  0  0  0  0  0  0  0  0  0
  -25.7374  -32.0415   24.4770 C   0  0  0  0  0  0  0  0  0  0  0  0
  -28.1292  -31.7636   25.1628 C   0  0  0  0  0  0  0  0  0  0  0  0
  -26.3023  -30.9833   26.6715 C   0  0  0  0  0  0  0  0  0  0  0  0
  -29.0592  -25.2721   24.0920 C   0  0  0  0  0  0  0  0  0  0  0  0
  -26.0908  -26.8178   13.6383 C   0  0  0  0  0  0  0  0  0  0  0  0
  -24.2687  -22.2601   14.6825 C   0  0  0  0  0  0  0  0  0  0  0  0
  -26.8382  -21.1413   13.8291 C   0  0  0  0  0  0  0  0  0  0  0  0
  -26.5091  -27.5382   14.9219 C   0  0  0  0  0  0  0  0  0  0  0  0
  -25.6488  -27.1740   16.1264 C   0  0  0  0  0  0  0  0  0  1  0  0
  -26.8008  -29.6901   24.5570 C   0  0  1  0  0  0  0  0  0  0  0  0
  -29.5713  -27.2772   25.4907 C   0  0  2  0  0  0  0  0  0  0  0  0
  -26.7326  -31.1070   25.1936 C   0  0  0  0  0  0  0  0  0  0  0  0
  -27.6299  -23.3688   13.3574 N   0  0  0  0  0  0  0  0  0  0  0  0
  -26.2943  -18.3002   19.7671 N   0  0  0  0  0  0  0  0  0  0  0  0
  -27.0339  -19.4170   19.6584 N   0  0  0  0  0  0  0  0  0  0  0  0
  -24.9574  -28.6525   23.2727 N   0  0  0  0  0  0  0  0  0  0  0  0
  -24.4071  -21.8835   18.3835 N   0  0  0  0  0  0  0  0  0  0  0  0
  -29.2629  -20.2175   19.6960 N   0  0  0  0  0  0  0  0  0  0  0  0
  -29.7394  -15.7763   20.3630 N   0  0  0  0  0  0  0  0  0  0  0  0
  -21.4513  -29.3084   23.3569 N   0  0  0  0  0  0  0  0  0  0  0  0
  -27.7153  -28.7753   25.2317 N   0  0  0  0  0  0  0  0  0  0  0  0
  -24.4956  -21.7675   16.0229 N   0  0  0  0  0  0  0  0  0  0  0  0
  -30.1049  -26.1087   24.7351 N   0  3  0  0  0  0  0  0  0  0  0  0
  -30.8697  -17.7626   20.1735 O   0  0  0  0  0  0  0  0  0  0  0  0
  -23.1868  -30.2509   22.1230 O   0  0  0  0  0  0  0  0  0  0  0  0
  -24.8738  -28.7808   25.5993 O   0  0  0  0  0  0  0  0  0  0  0  0
  -29.0477  -28.3393   23.3847 O   0  0  0  0  0  0  0  0  0  0  0  0
  -23.5624  -23.5883   17.0576 O   0  0  0  0  0  0  0  0  0  0  0  0
  -25.6293  -12.0242   20.6152 O   0  0  0  0  0  0  0  0  0  0  0  0
  -26.1096  -27.9110   17.2581 O   0  0  0  0  0  0  0  0  0  1  0  0
  -21.8300  -10.0379   17.1476 F   0  0  0  0  0  0  0  0  0  0  0  0
  -26.1891   -9.8633   18.9843 F   0  0  0  0  0  0  0  0  0  0  0  0
  1  2  1  0  0  0  0
  1  5  2  0  0  0  0
  2  6  2  0  0  0  0
  3  8  2  0  0  0  0
  3 17  1  0  0  0  0
  4  9  1  0  0  0  0
  4 17  2  0  0  0  0
  5 19  1  0  0  0  0
  6 21  1  0  0  0  0
  7 10  2  0  0  0  0
  7 20  1  0  0  0  0
  8 25  1  0  0  0  0
  9 25  2  0  0  0  0
 10 26  1  0  0  0  0
 11 12  2  0  0  0  0
 11 27  1  0  0  0  0
 12 28  1  0  0  0  0
 13 22  1  0  0  0  0
 13 26  2  0  0  0  0
 14 23  2  0  0  0  0
 14 24  1  0  0  0  0
 15 28  2  0  0  0  0
 15 29  1  0  0  0  0
 16 23  1  0  0  0  0
 16 64  2  0  0  0  0
 17 30  1  0  0  0  0
 18 30  1  0  0  0  0
 18 32  2  0  0  0  0
 18 33  1  0  0  0  0
 19 21  2  0  0  0  0
 19 38  1  0  0  0  0
 20 22  2  0  0  0  0
 20 39  1  0  0  0  0
 21 47  1  0  0  0  0
 22 40  1  0  0  0  0
 23 56  1  0  0  0  0
 24 31  2  0  0  0  0
 24 57  1  0  0  0  0
 25 80  1  0  0  0  0
 26 81  1  0  0  0  0
 27 29  2  0  0  0  0
 27 80  1  0  0  0  0
 28 82  1  0  0  0  0
 29 83  1  0  0  0  0
 30 65  2  0  0  0  0
 31 58  1  0  0  0  0
 31 64  1  0  0  0  0
 32 66  1  0  0  0  0
 32 69  1  0  0  0  0
 33 70  1  0  0  0  0
 33 75  2  0  0  0  0
 34 48  1  0  0  0  0
 34 71  1  0  0  0  0
 34 76  2  0  0  0  0
 35 61  1  0  0  0  0
 35 67  1  0  0  0  0
 35 77  2  0  0  0  0
 36 62  1  0  0  0  0
 36 72  1  0  0  0  0
 36 78  2  0  0  0  0
 37 68  1  0  0  0  0
 37 73  1  0  0  0  0
 37 79  2  0  0  0  0
 38 41  1  0  0  0  0
 39 48  1  0  0  0  0
 40 67  1  0  0  0  0
 41 43  1  0  0  0  0
 42 44  1  0  0  0  0
 42 45  1  0  0  0  0
 43 47  1  0  0  0  0
 44 49  1  0  0  0  0
 45 68  1  0  0  0  0
 46 49  1  0  0  0  0
 46 68  1  0  0  0  0
 47 71  1  0  0  0  0
 48 67  1  0  0  0  0
 49 66  1  0  0  0  0
 50 58  1  0  0  0  0
 51 62  1  0  0  0  0
 52 63  1  0  0  0  0
 53 63  1  0  0  0  0
 54 63  1  0  0  0  0
 55 74  1  0  0  0  0
 56 59  1  0  0  0  0
 57 73  1  0  0  0  0
 59 60  1  0  0  0  0
 60 81  1  0  0  0  0
 61 63  1  0  0  0  0
 61 72  1  0  0  0  0
 62 74  1  0  0  0  0
 65 66  1  0  0  0  0
M  CHG  1  74   1
M  ISO  4  37 100  60 101  73 100  81 101
M  END
> <Batch ID>
0036

> <Smiles>
CCc1ncc(CC[101CH2:1][101O:1]c2ccc3c(c2)CN(C(=O)C(NC(=O)C(C)NC)C(C)(C)C)C(C(=O)NC2CCCc4ccccc42)C3)cc1C[100NH:0][100C:0](=O)N1CCCC(n2nc(-c3ccc(Oc4ccc(F)cc4F)cc3)c(C(N)=O)c2N)C1

> <Shape>
0.202

> <Color>
0.094

> <Negative vol penalty>
0.000

$$$$

  -OEChem-04052316563D

 90 98  0     1  0  0  0  0  0999 V2000
  -31.0276  -15.9352   19.9584 C   0  0  0  0  0  0  0  0  0  0  0  0
  -29.8077  -16.0840   20.6085 C   0  0  0  0  0  0  0  0  0  0  0  0
  -28.4552  -24.0795   22.8490 C   0  0  0  0  0  0  0  0  0  0  0  0
  -26.7677  -24.1538   21.1216 C   0  0  0  0  0  0  0  0  0  0  0  0
  -31.3435  -14.7244   19.3459 C   0  0  0  0  0  0  0  0  0  0  0  0
  -28.9083  -15.0182   20.6565 C   0  0  0  0  0  0  0  0  0  0  0  0
  -24.8996  -15.6007   23.4482 C   0  0  0  0  0  0  0  0  0  0  0  0
  -28.2633  -22.7039   22.9772 C   0  0  0  0  0  0  0  0  0  0  0  0
  -26.5758  -22.7782   21.2498 C   0  0  0  0  0  0  0  0  0  0  0  0
  -23.8488  -16.4447   23.0914 C   0  0  0  0  0  0  0  0  0  0  0  0
  -25.8971  -19.2267   20.8696 C   0  0  0  0  0  0  0  0  0  0  0  0
  -25.8100  -18.4715   19.7001 C   0  0  0  0  0  0  0  0  0  0  0  0
  -22.5404  -14.5278   22.4336 C   0  0  0  0  0  0  0  0  0  0  0  0
  -18.2349  -27.1576   21.1522 C   0  0  0  0  0  0  0  0  0  0  0  0
  -19.5416  -25.2647   22.7308 C   0  0  0  0  0  0  0  0  0  0  0  0
  -28.0306  -19.1871   19.0725 C   0  0  0  0  0  0  0  0  0  0  0  0
  -27.7073  -24.8045   21.9212 C   0  0  0  0  0  0  0  0  0  0  0  0
  -28.8093  -26.8821   20.9328 C   0  0  0  0  0  0  0  0  0  0  0  0
  -30.4418  -13.6478   19.3761 C   0  0  0  0  0  0  0  0  0  0  0  0
  -24.7825  -14.2123   23.2898 C   0  0  0  0  0  0  0  0  0  0  0  0
  -29.2189  -13.7805   20.0648 C   0  0  0  0  0  0  0  0  0  0  0  0
  -23.5902  -13.6682   22.7915 C   0  0  0  0  0  0  0  0  0  0  0  0
  -18.0261  -25.7971   20.9262 C   0  0  0  0  0  0  0  0  0  0  0  0
  -19.0972  -27.5716   22.1675 C   0  0  0  0  0  0  0  0  0  0  0  0
  -19.7505  -26.6252   22.9568 C   0  0  0  0  0  0  0  0  0  0  0  0
  -18.6794  -24.8507   21.7155 C   0  0  0  0  0  0  0  0  0  0  0  0
  -27.3236  -22.0532   22.1777 C   0  0  0  0  0  0  0  0  0  0  0  0
  -22.6701  -15.9086   22.5813 C   0  0  0  0  0  0  0  0  0  0  0  0
  -27.0510  -19.9622   21.1405 C   0  0  0  0  0  0  0  0  0  0  0  0
  -26.8767  -18.4517   18.8016 C   0  0  0  0  0  0  0  0  0  0  0  0
  -28.1177  -19.9424   20.2420 C   0  0  0  0  0  0  0  0  0  0  0  0
  -27.9047  -26.2256   21.7886 C   0  0  0  0  0  0  0  0  0  0  0  0
  -28.6109  -28.2179   21.1830 C   0  0  0  0  0  0  0  0  0  0  0  0
  -29.7453  -26.3334   19.9955 C   0  0  0  0  0  0  0  0  0  0  0  0
  -26.3149  -12.0123   21.5825 C   0  0  0  0  0  0  0  0  0  0  0  0
  -24.4317   -9.9658   23.2521 C   0  0  0  0  0  0  0  0  0  0  0  0
  -21.5543   -9.4606   25.0162 C   0  0  0  0  0  0  0  0  0  0  0  0
  -23.9442  -31.3229   23.2880 C   0  0  0  0  0  0  0  0  0  0  0  0
  -30.8380  -12.3572   18.7034 C   0  0  0  0  0  0  0  0  0  0  0  0
  -25.9151  -13.3136   23.7044 C   0  0  0  0  0  0  0  0  0  0  0  0
  -23.4066  -12.1830   22.6211 C   0  0  0  0  0  0  0  0  0  0  0  0
  -29.6497  -11.4425   18.4252 C   0  0  0  0  0  0  0  0  0  0  0  0
  -27.2324  -31.2140   24.6491 C   0  0  0  0  0  0  0  0  0  0  0  0
  -28.8030  -11.2941   19.6805 C   0  0  0  0  0  0  0  0  0  0  0  0
  -27.8592  -29.9824   23.9931 C   0  0  0  0  0  0  0  0  0  0  0  0
  -25.7510  -30.9999   24.9516 C   0  0  0  0  0  0  0  0  0  0  0  0
  -25.5661  -29.3368   23.1422 C   0  0  0  0  0  0  0  0  0  0  0  0
  -28.2122  -12.6450   20.1036 C   0  0  1  0  0  0  0  0  0  0  0  0
  -25.8785  -11.9512   23.0189 C   0  0  1  0  0  0  0  0  0  0  0  0
  -27.0461  -29.5251   22.7671 C   0  0  2  0  0  0  0  0  0  0  0  0
  -17.0979  -25.3776   19.8340 C   0  0  0  0  0  0  0  0  0  0  0  0
  -22.0830  -26.4775   23.8646 C   0  0  0  0  0  0  0  0  0  0  0  0
  -20.2725   -7.6733   26.2244 C   0  0  0  0  0  0  0  0  0  0  0  0
  -23.5459   -8.7959   20.5769 C   0  0  0  0  0  0  0  0  0  0  0  0
  -21.6219   -7.7199   21.7637 C   0  0  0  0  0  0  0  0  0  0  0  0
  -23.9616   -7.1025   22.3696 C   0  0  0  0  0  0  0  0  0  0  0  0
  -21.7083  -10.9238   27.5841 C   0  0  0  0  0  0  0  0  0  0  0  0
  -20.6787  -27.0447   24.0490 C   0  0  0  0  0  0  0  0  0  0  0  0
  -19.3058  -29.0336   22.3904 C   0  0  0  0  0  0  0  0  0  0  0  0
  -18.4699  -23.3820   21.4914 C   0  0  0  0  0  0  0  0  0  0  0  0
  -20.6453  -29.5216   21.8188 C   0  0  0  0  0  0  0  0  0  0  0  0
  -20.8636  -31.0138   22.0863 C   0  0  0  0  0  0  0  0  0  0  0  0
  -20.7322  -20.3796   22.1302 C   0  0  0  0  0  0  0  0  0  0  0  0
  -20.5946  -18.8699   21.9483 C   0  0  0  0  0  0  0  0  0  0  0  0
  -22.1945  -31.5191   21.5389 C   0  0  0  0  0  0  0  0  0  0  0  0
  -19.4626  -21.0996   21.7008 C   0  0  0  0  0  0  0  0  0  0  0  0
  -21.8415  -18.1315   22.4140 C   0  0  0  0  0  0  0  0  0  1  0  0
  -23.0616   -9.3656   23.0481 C   0  0  1  0  0  0  0  0  0  0  0  0
  -21.2972   -8.7896   26.3534 C   0  0  2  0  0  0  0  0  0  0  0  0
  -23.0516   -8.2741   21.9408 C   0  0  0  0  0  0  0  0  0  0  0  0
  -27.1852  -27.0745   22.5274 N   0  0  0  0  0  0  0  0  0  0  0  0
  -27.6376  -28.2781   22.1365 N   0  0  0  0  0  0  0  0  0  0  0  0
  -24.5451  -11.3462   23.0347 N   0  0  0  0  0  0  0  0  0  0  0  0
  -25.0366  -30.5690   23.7475 N   0  0  0  0  0  0  0  0  0  0  0  0
  -29.1759  -29.3352   20.6782 N   0  0  0  0  0  0  0  0  0  0  0  0
  -29.8199  -24.9400   19.8636 N   0  0  0  0  0  0  0  0  0  0  0  0
  -27.5940  -12.5035   21.4035 N   0  0  0  0  0  0  0  0  0  0  0  0
  -22.6241   -8.8928   24.3571 N   0  0  0  0  0  0  0  0  0  0  0  0
  -23.3275  -30.8484   22.1368 N   0  0  0  0  0  0  0  0  0  0  0  0
  -20.7890   -9.7823   27.3419 N   0  3  0  0  0  0  0  0  0  0  0  0
  -19.6586  -22.5616   21.8521 N   0  3  0  0  0  0  0  0  0  0  0  0
  -30.5048  -27.0567   19.3074 O   0  0  0  0  0  0  0  0  0  0  0  0
  -25.5485  -11.6398   20.7018 O   0  0  0  0  0  0  0  0  0  0  0  0
  -25.3653   -9.2378   23.5987 O   0  0  0  0  0  0  0  0  0  0  0  0
  -20.8718  -10.3926   24.5965 O   0  0  0  0  0  0  0  0  0  0  0  0
  -23.5510  -32.3462   23.8583 O   0  0  0  0  0  0  0  0  0  0  0  0
  -27.1363  -20.7108   22.3024 O   0  0  0  0  0  0  0  0  0  0  0  0
  -21.6431  -16.7302   22.2317 O   0  0  0  0  0  0  0  0  0  1  0  0
  -26.7935  -17.7252   17.6794 F   0  0  0  0  0  0  0  0  0  0  0  0
  -29.2293  -20.6460   20.4974 F   0  0  0  0  0  0  0  0  0  0  0  0
  1  2  1  0  0  0  0
  1  5  2  0  0  0  0
  2  6  2  0  0  0  0
  3  8  2  0  0  0  0
  3 17  1  0  0  0  0
  4  9  1  0  0  0  0
  4 17  2  0  0  0  0
  5 19  1  0  0  0  0
  6 21  1  0  0  0  0
  7 10  2  0  0  0  0
  7 20  1  0  0  0  0
  8 27  1  0  0  0  0
  9 27  2  0  0  0  0
 10 28  1  0  0  0  0
 11 12  2  0  0  0  0
 11 29  1  0  0  0  0
 12 30  1  0  0  0  0
 13 22  1  0  0  0  0
 13 28  2  0  0  0  0
 14 23  2  0  0  0  0
 14 24  1  0  0  0  0
 15 25  1  0  0  0  0
 15 26  2  0  0  0  0
 16 30  2  0  0  0  0
 16 31  1  0  0  0  0
 17 32  1  0  0  0  0
 18 32  1  0  0  0  0
 18 33  2  0  0  0  0
 18 34  1  0  0  0  0
 19 21  2  0  0  0  0
 19 39  1  0  0  0  0
 20 22  2  0  0  0  0
 20 40  1  0  0  0  0
 21 48  1  0  0  0  0
 22 41  1  0  0  0  0
 23 26  1  0  0  0  0
 23 51  1  0  0  0  0
 24 25  2  0  0  0  0
 24 59  1  0  0  0  0
 25 58  1  0  0  0  0
 26 60  1  0  0  0  0
 27 87  1  0  0  0  0
 28 88  1  0  0  0  0
 29 31  2  0  0  0  0
 29 87  1  0  0  0  0
 30 89  1  0  0  0  0
 31 90  1  0  0  0  0
 32 71  2  0  0  0  0
 33 72  1  0  0  0  0
 33 75  1  0  0  0  0
 34 76  1  0  0  0  0
 34 82  2  0  0  0  0
 35 49  1  0  0  0  0
 35 77  1  0  0  0  0
 35 83  2  0  0  0  0
 36 68  1  0  0  0  0
 36 73  1  0  0  0  0
 36 84  2  0  0  0  0
 37 69  1  0  0  0  0
 37 78  1  0  0  0  0
 37 85  2  0  0  0  0
 38 74  1  0  0  0  0
 38 79  1  0  0  0  0
 38 86  2  0  0  0  0
 39 42  1  0  0  0  0
 40 49  1  0  0  0  0
 41 73  1  0  0  0  0
 42 44  1  0  0  0  0
 43 45  1  0  0  0  0
 43 46  1  0  0  0  0
 44 48  1  0  0  0  0
 45 50  1  0  0  0  0
 46 74  1  0  0  0  0
 47 50  1  0  0  0  0
 47 74  1  0  0  0  0
 48 77  1  0  0  0  0
 49 73  1  0  0  0  0
 50 72  1  0  0  0  0
 52 58  1  0  0  0  0
 53 69  1  0  0  0  0
 54 70  1  0  0  0  0
 55 70  1  0  0  0  0
 56 70  1  0  0  0  0
 57 80  1  0  0  0  0
 59 61  1  0  0  0  0
 60 81  1  0  0  0  0
 61 62  1  0  0  0  0
 62 65  1  0  0  0  0
 63 64  1  0  0  0  0
 63 66  1  0  0  0  0
 64 67  1  0  0  0  0
 65 79  1  0  0  0  0
 66 81  1  0  0  0  0
 67 88  1  0  0  0  0
 68 70  1  0  0  0  0
 68 78  1  0  0  0  0
 69 80  1  0  0  0  0
 71 72  1  0  0  0  0
M  CHG  2  80   1  81   1
M  ISO  4  38 100  67 101  79 100  88 101
M  END
> <Batch ID>
0036

> <Smiles>
CCc1cc(CNCCC[101CH2:1][101O:1]c2ccc3c(c2)CN(C(=O)C(NC(=O)C(C)NC)C(C)(C)C)C(C(=O)NC2CCCc4ccccc42)C3)c(C)cc1CCCC[100NH:0][100C:0](=O)N1CCCC(n2nc(-c3ccc(Oc4ccc(F)cc4F)cc3)c(C(N)=O)c2N)C1

> <Shape>
0.264

> <Color>
0.049

> <Negative vol penalty>
0.000

$$$$

  -OEChem-04052316563D

 81 89  0     1  0  0  0  0  0999 V2000
  -24.8208  -23.6299   20.0660 C   0  0  0  0  0  0  0  0  0  0  0  0
  -25.1625  -22.4970   19.3360 C   0  0  0  0  0  0  0  0  0  0  0  0
  -26.2566  -27.8265   18.9079 C   0  0  0  0  0  0  0  0  0  0  0  0
  -26.6399  -27.6523   21.2869 C   0  0  0  0  0  0  0  0  0  0  0  0
  -24.5260  -23.5171   21.4231 C   0  0  0  0  0  0  0  0  0  0  0  0
  -25.1978  -21.2495   19.9599 C   0  0  0  0  0  0  0  0  0  0  0  0
  -26.8607  -15.7938   17.8158 C   0  0  0  0  0  0  0  0  0  0  0  0
  -25.1046  -28.5753   19.1483 C   0  0  0  0  0  0  0  0  0  0  0  0
  -25.4879  -28.4011   21.5273 C   0  0  0  0  0  0  0  0  0  0  0  0
  -28.0211  -15.0237   17.7508 C   0  0  0  0  0  0  0  0  0  0  0  0
  -22.4524  -29.9605   22.7781 C   0  0  0  0  0  0  0  0  0  0  0  0
  -21.5840  -29.5125   23.7735 C   0  0  0  0  0  0  0  0  0  0  0  0
  -27.3355  -13.8343   19.7344 C   0  0  0  0  0  0  0  0  0  0  0  0
  -21.2773  -27.4387   22.5726 C   0  0  0  0  0  0  0  0  0  0  0  0
  -30.6592  -15.6741   21.0900 C   0  0  0  0  0  0  0  0  0  0  0  0
  -27.0243  -27.3650   19.9772 C   0  0  0  0  0  0  0  0  0  0  0  0
  -29.5235  -27.0774   19.5544 C   0  0  0  0  0  0  0  0  0  0  0  0
  -24.5701  -22.2691   22.0660 C   0  0  0  0  0  0  0  0  0  0  0  0
  -25.9327  -15.5970   18.8485 C   0  0  0  0  0  0  0  0  0  0  0  0
  -24.8802  -21.1116   21.3233 C   0  0  0  0  0  0  0  0  0  0  0  0
  -26.1629  -14.6015   19.8087 C   0  0  0  0  0  0  0  0  0  0  0  0
  -31.0497  -16.9746   21.2969 C   0  0  0  0  0  0  0  0  0  0  0  0
  -24.7202  -28.8626   20.4580 C   0  0  0  0  0  0  0  0  0  0  0  0
  -28.2601  -14.0457   18.7118 C   0  0  0  0  0  0  0  0  0  0  0  0
  -22.7333  -29.1476   21.6799 C   0  0  0  0  0  0  0  0  0  0  0  0
  -20.9965  -28.2516   23.6707 C   0  0  0  0  0  0  0  0  0  0  0  0
  -22.1458  -27.8867   21.5772 C   0  0  0  0  0  0  0  0  0  0  0  0
  -28.2141  -26.5910   19.7296 C   0  0  0  0  0  0  0  0  0  0  0  0
  -32.4066  -16.9984   20.9225 C   0  0  0  0  0  0  0  0  0  0  0  0
  -30.2835  -25.9517   19.3504 C   0  0  0  0  0  0  0  0  0  0  0  0
  -30.0094  -28.4262   19.5744 C   0  0  0  0  0  0  0  0  0  0  0  0
  -24.7927  -17.3911   21.2118 C   0  0  0  0  0  0  0  0  0  0  0  0
  -22.8339  -14.8473   21.6757 C   0  0  0  0  0  0  0  0  0  0  0  0
  -22.2874  -11.5018   21.2818 C   0  0  0  0  0  0  0  0  0  0  0  0
  -29.5337  -20.3418   21.0305 C   0  0  0  0  0  0  0  0  0  0  0  0
  -24.2342  -22.2033   23.5350 C   0  0  0  0  0  0  0  0  0  0  0  0
  -24.6730  -16.4178   18.8892 C   0  0  0  0  0  0  0  0  0  0  0  0
  -25.1882  -14.3368   20.9261 C   0  0  0  0  0  0  0  0  0  0  0  0
  -24.7277  -20.9229   24.2009 C   0  0  0  0  0  0  0  0  0  0  0  0
  -29.9883  -21.4950   17.6303 C   0  0  0  0  0  0  0  0  0  0  0  0
  -24.3081  -19.7140   23.3781 C   0  0  0  0  0  0  0  0  0  0  0  0
  -29.7056  -22.9914   17.7763 C   0  0  0  0  0  0  0  0  0  0  0  0
  -29.0701  -20.6690   18.5263 C   0  0  0  0  0  0  0  0  0  0  0  0
  -28.8354  -22.5372   20.1164 C   0  0  0  0  0  0  0  0  0  0  0  0
  -24.9549  -19.7488   21.9876 C   0  0  1  0  0  0  0  0  0  0  0  0
  -24.0456  -16.4810   20.2784 C   0  0  1  0  0  0  0  0  0  0  0  0
  -29.7467  -23.4280   19.2527 C   0  0  2  0  0  0  0  0  0  0  0  0
  -33.3292  -18.1470   20.9436 C   0  0  0  0  0  0  0  0  0  0  0  0
  -20.6132   -9.7051   21.7978 C   0  0  0  0  0  0  0  0  0  0  0  0
  -23.7565  -14.8263   24.5841 C   0  0  0  0  0  0  0  0  0  0  0  0
  -22.8262  -12.5110   24.7896 C   0  0  0  0  0  0  0  0  0  0  0  0
  -21.3098  -14.4204   24.2628 C   0  0  0  0  0  0  0  0  0  0  0  0
  -21.8677  -10.9075   18.4131 C   0  0  0  0  0  0  0  0  0  0  0  0
  -30.2240  -18.0858   21.7990 C   0  0  0  0  0  0  0  0  0  0  0  0
  -31.7898  -13.3170   18.7359 C   0  0  0  0  0  0  0  0  0  0  0  0
  -31.8493  -13.5663   20.2445 C   0  0  0  0  0  0  0  0  0  0  0  0
  -30.5471  -13.9023   18.0754 C   0  0  0  0  0  0  0  0  0  1  0  0
  -22.9043  -13.5785   22.4906 C   0  0  1  0  0  0  0  0  0  0  0  0
  -21.0810  -10.7308   20.7771 C   0  0  2  0  0  0  0  0  0  0  0  0
  -22.7187  -13.8401   24.0120 C   0  0  0  0  0  0  0  0  0  0  0  0
  -28.1427  -25.2600   19.6441 N   0  0  0  0  0  0  0  0  0  0  0  0
  -32.8484  -15.8076   20.5092 N   0  0  0  0  0  0  0  0  0  0  0  0
  -31.7630  -15.0234   20.6227 N   0  0  0  0  0  0  0  0  0  0  0  0
  -29.4169  -24.9004   19.4129 N   0  0  0  0  0  0  0  0  0  0  0  0
  -23.9743  -15.1698   20.9265 N   0  0  0  0  0  0  0  0  0  0  0  0
  -29.1705  -21.1227   19.9206 N   0  0  0  0  0  0  0  0  0  0  0  0
  -31.6019  -25.7684   19.1253 N   0  0  0  0  0  0  0  0  0  0  0  0
  -29.0932  -29.4631   19.7972 N   0  0  0  0  0  0  0  0  0  0  0  0
  -24.3731  -18.7070   21.1702 N   0  0  0  0  0  0  0  0  0  0  0  0
  -21.9186  -12.6692   21.9161 N   0  0  0  0  0  0  0  0  0  0  0  0
  -29.8289  -19.0112   20.7605 N   0  0  0  0  0  0  0  0  0  0  0  0
  -21.4147  -10.0167   19.5123 N   0  3  0  0  0  0  0  0  0  0  0  0
  -31.2175  -28.7048   19.3836 O   0  0  0  0  0  0  0  0  0  0  0  0
  -25.6828  -16.9330   21.9186 O   0  0  0  0  0  0  0  0  0  0  0  0
  -21.8025  -15.5236   21.6975 O   0  0  0  0  0  0  0  0  0  0  0  0
  -23.4413  -11.1060   21.1319 O   0  0  0  0  0  0  0  0  0  0  0  0
  -29.5956  -20.7982   22.1772 O   0  0  0  0  0  0  0  0  0  0  0  0
  -23.5963  -29.5934   20.6929 O   0  0  0  0  0  0  0  0  0  0  0  0
  -29.3922  -13.2931   18.6511 O   0  0  0  0  0  0  0  0  0  1  0  0
  -20.1638  -27.8210   24.6274 F   0  0  0  0  0  0  0  0  0  0  0  0
  -22.4127  -27.1007   20.5251 F   0  0  0  0  0  0  0  0  0  0  0  0
  1  2  1  0  0  0  0
  1  5  2  0  0  0  0
  2  6  2  0  0  0  0
  3  8  2  0  0  0  0
  3 16  1  0  0  0  0
  4  9  1  0  0  0  0
  4 16  2  0  0  0  0
  5 18  1  0  0  0  0
  6 20  1  0  0  0  0
  7 10  2  0  0  0  0
  7 19  1  0  0  0  0
  8 23  1  0  0  0  0
  9 23  2  0  0  0  0
 10 24  1  0  0  0  0
 11 12  2  0  0  0  0
 11 25  1  0  0  0  0
 12 26  1  0  0  0  0
 13 21  1  0  0  0  0
 13 24  2  0  0  0  0
 14 26  2  0  0  0  0
 14 27  1  0  0  0  0
 15 22  2  0  0  0  0
 15 63  1  0  0  0  0
 16 28  1  0  0  0  0
 17 28  1  0  0  0  0
 17 30  2  0  0  0  0
 17 31  1  0  0  0  0
 18 20  2  0  0  0  0
 18 36  1  0  0  0  0
 19 21  2  0  0  0  0
 19 37  1  0  0  0  0
 20 45  1  0  0  0  0
 21 38  1  0  0  0  0
 22 29  1  0  0  0  0
 22 54  1  0  0  0  0
 23 78  1  0  0  0  0
 24 79  1  0  0  0  0
 25 27  2  0  0  0  0
 25 78  1  0  0  0  0
 26 80  1  0  0  0  0
 27 81  1  0  0  0  0
 28 61  2  0  0  0  0
 29 48  1  0  0  0  0
 29 62  2  0  0  0  0
 30 64  1  0  0  0  0
 30 67  1  0  0  0  0
 31 68  1  0  0  0  0
 31 73  2  0  0  0  0
 32 46  1  0  0  0  0
 32 69  1  0  0  0  0
 32 74  2  0  0  0  0
 33 58  1  0  0  0  0
 33 65  1  0  0  0  0
 33 75  2  0  0  0  0
 34 59  1  0  0  0  0
 34 70  1  0  0  0  0
 34 76  2  0  0  0  0
 35 66  1  0  0  0  0
 35 71  1  0  0  0  0
 35 77  2  0  0  0  0
 36 39  1  0  0  0  0
 37 46  1  0  0  0  0
 38 65  1  0  0  0  0
 39 41  1  0  0  0  0
 40 42  1  0  0  0  0
 40 43  1  0  0  0  0
 41 45  1  0  0  0  0
 42 47  1  0  0  0  0
 43 66  1  0  0  0  0
 44 47  1  0  0  0  0
 44 66  1  0  0  0  0
 45 69  1  0  0  0  0
 46 65  1  0  0  0  0
 47 64  1  0  0  0  0
 49 59  1  0  0  0  0
 50 60  1  0  0  0  0
 51 60  1  0  0  0  0
 52 60  1  0  0  0  0
 53 72  1  0  0  0  0
 54 71  1  0  0  0  0
 55 56  1  0  0  0  0
 55 57  1  0  0  0  0
 56 63  1  0  0  0  0
 57 79  1  0  0  0  0
 58 60  1  0  0  0  0
 58 70  1  0  0  0  0
 59 72  1  0  0  0  0
 61 64  1  0  0  0  0
 62 63  1  0  0  0  0
M  CHG  1  72   1
M  ISO  4  35 100  57 101  71 100  79 101
M  END
> <Batch ID>
0036

> <Smiles>
CNC(C)C(=O)NC(C(=O)N1Cc2cc([101O:1][101CH2:1]CCn3cc(C[100NH:0][100C:0](=O)N4CCCC(n5nc(-c6ccc(Oc7ccc(F)cc7F)cc6)c(C(N)=O)c5N)C4)c(C)n3)ccc2CC1C(=O)NC1CCCc2ccccc21)C(C)(C)C

> <Shape>
0.263

> <Color>
0.049

> <Negative vol penalty>
0.000

$$$$

  -OEChem-04052316563D

 83 91  0     1  0  0  0  0  0999 V2000
  -17.5280  -27.6097   25.8858 C   0  0  0  0  0  0  0  0  0  0  0  0
  -18.2151  -26.4051   25.9969 C   0  0  0  0  0  0  0  0  0  0  0  0
  -27.1054  -13.8387   21.9639 C   0  0  0  0  0  0  0  0  0  0  0  0
  -26.8326  -15.7918   20.5682 C   0  0  0  0  0  0  0  0  0  0  0  0
  -17.6722  -28.3900   24.7394 C   0  0  0  0  0  0  0  0  0  0  0  0
  -19.0460  -25.9797   24.9610 C   0  0  0  0  0  0  0  0  0  0  0  0
  -25.1087  -22.3440   23.8023 C   0  0  0  0  0  0  0  0  0  0  0  0
  -25.9174  -13.3112   21.4580 C   0  0  0  0  0  0  0  0  0  0  0  0
  -25.6446  -15.2643   20.0623 C   0  0  0  0  0  0  0  0  0  0  0  0
  -25.5991  -21.2810   23.0451 C   0  0  0  0  0  0  0  0  0  0  0  0
  -22.5991  -13.7413   21.9356 C   0  0  0  0  0  0  0  0  0  0  0  0
  -21.6989  -13.1853   22.8445 C   0  0  0  0  0  0  0  0  0  0  0  0
  -25.8330  -22.7497   21.1458 C   0  0  0  0  0  0  0  0  0  0  0  0
  -21.8680  -11.0585   21.7106 C   0  0  0  0  0  0  0  0  0  0  0  0
  -30.7906  -21.1368   21.5185 C   0  0  0  0  0  0  0  0  0  0  0  0
  -27.5630  -15.0790   21.5191 C   0  0  0  0  0  0  0  0  0  0  0  0
  -30.0882  -15.4406   21.5299 C   0  0  0  0  0  0  0  0  0  0  0  0
  -18.5128  -27.9786   23.6932 C   0  0  0  0  0  0  0  0  0  0  0  0
  -24.9662  -23.6175   23.2327 C   0  0  0  0  0  0  0  0  0  0  0  0
  -19.2006  -26.7546   23.7990 C   0  0  0  0  0  0  0  0  0  0  0  0
  -25.3429  -23.8277   21.8986 C   0  0  0  0  0  0  0  0  0  0  0  0
  -25.1870  -14.0239   20.5072 C   0  0  0  0  0  0  0  0  0  0  0  0
  -25.9587  -21.4831   21.7159 C   0  0  0  0  0  0  0  0  0  0  0  0
  -23.1337  -12.9560   20.9142 C   0  0  0  0  0  0  0  0  0  0  0  0
  -21.3334  -11.8439   22.7320 C   0  0  0  0  0  0  0  0  0  0  0  0
  -22.7681  -11.6146   20.8017 C   0  0  0  0  0  0  0  0  0  0  0  0
  -28.7898  -15.6248   22.0417 C   0  0  0  0  0  0  0  0  0  0  0  0
  -31.1019  -20.8223   20.1821 C   0  0  0  0  0  0  0  0  0  0  0  0
  -31.8950  -20.7383   22.2312 C   0  0  0  0  0  0  0  0  0  0  0  0
  -30.8963  -16.1595   22.3765 C   0  0  0  0  0  0  0  0  0  0  0  0
  -30.5249  -14.6871   20.3909 C   0  0  0  0  0  0  0  0  0  0  0  0
  -22.5170  -25.5676   22.6831 C   0  0  0  0  0  0  0  0  0  0  0  0
  -24.8589  -27.6196   21.7737 C   0  0  0  0  0  0  0  0  0  0  0  0
  -28.0418  -28.0569   20.6226 C   0  0  0  0  0  0  0  0  0  0  0  0
  -30.3901  -21.2265   25.4017 C   0  0  0  0  0  0  0  0  0  0  0  0
  -18.6000  -28.8329   22.4533 C   0  0  0  0  0  0  0  0  0  0  0  0
  -24.4607  -24.7598   24.0706 C   0  0  0  0  0  0  0  0  0  0  0  0
  -25.2283  -25.1803   21.2459 C   0  0  0  0  0  0  0  0  0  0  0  0
  -19.7911  -28.4922   21.5614 C   0  0  0  0  0  0  0  0  0  0  0  0
  -30.4869  -17.8815   26.9838 C   0  0  0  0  0  0  0  0  0  0  0  0
  -19.8993  -26.9828   21.3689 C   0  0  0  0  0  0  0  0  0  0  0  0
  -30.1072  -16.9558   25.8292 C   0  0  0  0  0  0  0  0  0  0  0  0
  -29.8801  -19.2716   26.8194 C   0  0  0  0  0  0  0  0  0  0  0  0
  -29.8204  -18.9927   24.3632 C   0  0  0  0  0  0  0  0  0  0  0  0
  -20.1305  -26.2712   22.7074 C   0  0  1  0  0  0  0  0  0  0  0  0
  -23.8735  -25.8963   23.2395 C   0  0  1  0  0  0  0  0  0  0  0  0
  -30.4539  -17.5978   24.4746 C   0  0  2  0  0  0  0  0  0  0  0  0
  -29.6605  -29.8483   19.9388 C   0  0  0  0  0  0  0  0  0  0  0  0
  -23.3621  -27.9624   19.1370 C   0  0  0  0  0  0  0  0  0  0  0  0
  -25.4416  -28.9637   18.1669 C   0  0  0  0  0  0  0  0  0  0  0  0
  -24.3013  -30.0771   20.0860 C   0  0  0  0  0  0  0  0  0  0  0  0
  -34.0774  -19.6802   21.5738 C   0  0  0  0  0  0  0  0  0  0  0  0
  -31.5257  -23.0979   24.2669 C   0  0  0  0  0  0  0  0  0  0  0  0
  -29.9640  -27.2893   22.7380 C   0  0  0  0  0  0  0  0  0  0  0  0
  -30.2429  -21.0419   18.9623 C   0  0  0  0  0  0  0  0  0  0  0  0
  -32.1889  -20.7968   23.6748 C   0  0  0  0  0  0  0  0  0  0  0  0
  -29.3240  -19.8607   18.6314 C   0  0  0  0  0  0  0  0  0  0  0  0
  -28.2935  -19.5789   19.7257 C   0  0  0  0  0  0  0  0  0  0  0  0
  -27.3617  -20.7648   19.9350 C   0  0  0  0  0  0  0  0  0  1  0  0
  -25.5688  -27.9247   20.4768 C   0  0  1  0  0  0  0  0  0  0  0  0
  -29.1608  -28.9753   21.0794 C   0  0  2  0  0  0  0  0  0  0  0  0
  -24.6689  -28.7059   19.4781 C   0  0  0  0  0  0  0  0  0  0  0  0
  -28.7695  -16.3998   23.1294 N   0  0  0  0  0  0  0  0  0  0  0  0
  -32.3096  -20.2670   20.0509 N   0  0  0  0  0  0  0  0  0  0  0  0
  -32.7669  -20.2294   21.3141 N   0  0  0  0  0  0  0  0  0  0  0  0
  -30.0652  -16.7089   23.3079 N   0  0  0  0  0  0  0  0  0  0  0  0
  -24.7228  -26.2640   22.1047 N   0  0  0  0  0  0  0  0  0  0  0  0
  -30.1888  -19.8404   25.5070 N   0  0  0  0  0  0  0  0  0  0  0  0
  -32.2295  -16.3689   22.4076 N   0  0  0  0  0  0  0  0  0  0  0  0
  -29.5632  -14.0082   19.6302 N   0  0  0  0  0  0  0  0  0  0  0  0
  -21.5108  -26.4076   23.1205 N   0  0  0  0  0  0  0  0  0  0  0  0
  -26.8007  -28.6174   20.8388 N   0  0  0  0  0  0  0  0  0  0  0  0
  -31.2753  -21.6706   24.4078 N   0  0  0  0  0  0  0  0  0  0  0  0
  -30.3076  -28.1767   21.5972 N   0  3  0  0  0  0  0  0  0  0  0  0
  -31.7340  -14.6044   20.0671 O   0  0  0  0  0  0  0  0  0  0  0  0
  -22.3927  -24.6228   21.9126 O   0  0  0  0  0  0  0  0  0  0  0  0
  -24.4468  -28.5500   22.4709 O   0  0  0  0  0  0  0  0  0  0  0  0
  -28.2481  -26.9542   20.1206 O   0  0  0  0  0  0  0  0  0  0  0  0
  -29.8190  -22.0211   26.1596 O   0  0  0  0  0  0  0  0  0  0  0  0
  -24.0278  -13.5094   20.0131 O   0  0  0  0  0  0  0  0  0  0  0  0
  -26.4371  -20.4471   20.9744 O   0  0  0  0  0  0  0  0  0  1  0  0
  -20.4701  -11.3096   23.6058 F   0  0  0  0  0  0  0  0  0  0  0  0
  -23.2793  -10.8549   19.8233 F   0  0  0  0  0  0  0  0  0  0  0  0
  1  2  1  0  0  0  0
  1  5  2  0  0  0  0
  2  6  2  0  0  0  0
  3  8  2  0  0  0  0
  3 16  1  0  0  0  0
  4  9  1  0  0  0  0
  4 16  2  0  0  0  0
  5 18  1  0  0  0  0
  6 20  1  0  0  0  0
  7 10  2  0  0  0  0
  7 19  1  0  0  0  0
  8 22  1  0  0  0  0
  9 22  2  0  0  0  0
 10 23  1  0  0  0  0
 11 12  2  0  0  0  0
 11 24  1  0  0  0  0
 12 25  1  0  0  0  0
 13 21  1  0  0  0  0
 13 23  2  0  0  0  0
 14 25  2  0  0  0  0
 14 26  1  0  0  0  0
 15 28  1  0  0  0  0
 15 29  2  0  0  0  0
 16 27  1  0  0  0  0
 17 27  1  0  0  0  0
 17 30  2  0  0  0  0
 17 31  1  0  0  0  0
 18 20  2  0  0  0  0
 18 36  1  0  0  0  0
 19 21  2  0  0  0  0
 19 37  1  0  0  0  0
 20 45  1  0  0  0  0
 21 38  1  0  0  0  0
 22 80  1  0  0  0  0
 23 81  1  0  0  0  0
 24 26  2  0  0  0  0
 24 80  1  0  0  0  0
 25 82  1  0  0  0  0
 26 83  1  0  0  0  0
 27 63  2  0  0  0  0
 28 55  1  0  0  0  0
 28 64  2  0  0  0  0
 29 56  1  0  0  0  0
 29 65  1  0  0  0  0
 30 66  1  0  0  0  0
 30 69  1  0  0  0  0
 31 70  1  0  0  0  0
 31 75  2  0  0  0  0
 32 46  1  0  0  0  0
 32 71  1  0  0  0  0
 32 76  2  0  0  0  0
 33 60  1  0  0  0  0
 33 67  1  0  0  0  0
 33 77  2  0  0  0  0
 34 61  1  0  0  0  0
 34 72  1  0  0  0  0
 34 78  2  0  0  0  0
 35 68  1  0  0  0  0
 35 73  1  0  0  0  0
 35 79  2  0  0  0  0
 36 39  1  0  0  0  0
 37 46  1  0  0  0  0
 38 67  1  0  0  0  0
 39 41  1  0  0  0  0
 40 42  1  0  0  0  0
 40 43  1  0  0  0  0
 41 45  1  0  0  0  0
 42 47  1  0  0  0  0
 43 68  1  0  0  0  0
 44 47  1  0  0  0  0
 44 68  1  0  0  0  0
 45 71  1  0  0  0  0
 46 67  1  0  0  0  0
 47 66  1  0  0  0  0
 48 61  1  0  0  0  0
 49 62  1  0  0  0  0
 50 62  1  0  0  0  0
 51 62  1  0  0  0  0
 52 65  1  0  0  0  0
 53 73  1  0  0  0  0
 54 74  1  0  0  0  0
 55 57  1  0  0  0  0
 56 73  1  0  0  0  0
 57 58  1  0  0  0  0
 58 59  1  0  0  0  0
 59 81  1  0  0  0  0
 60 62  1  0  0  0  0
 60 72  1  0  0  0  0
 61 74  1  0  0  0  0
 63 66  1  0  0  0  0
 64 65  1  0  0  0  0
M  CHG  1  74   1
M  ISO  4  35 100  59 101  73 100  81 101
M  END
> <Batch ID>
0036

> <Smiles>
CNC(C)C(=O)NC(C(=O)N1Cc2cc([101O:1][101CH2:1]CCCc3cc(C[100N:0](C)[100C:0](=O)N4CCCC(n5nc(-c6ccc(Oc7ccc(F)cc7F)cc6)c(C(N)=O)c5N)C4)n(C)n3)ccc2CC1C(=O)NC1CCCc2ccccc21)C(C)(C)C

> <Shape>
0.207

> <Color>
0.061

> <Negative vol penalty>
0.000

$$$$

  -OEChem-04052316563D

 86 94  0     1  0  0  0  0  0999 V2000
  -32.1802  -31.1427   23.1822 C   0  0  0  0  0  0  0  0  0  0  0  0
  -31.5677  -29.9968   23.6795 C   0  0  0  0  0  0  0  0  0  0  0  0
  -23.0500   -9.9349   20.0036 C   0  0  0  0  0  0  0  0  0  0  0  0
  -23.7973   -9.9955   22.3003 C   0  0  0  0  0  0  0  0  0  0  0  0
  -31.8827  -31.5880   21.8949 C   0  0  0  0  0  0  0  0  0  0  0  0
  -30.6564  -29.2963   22.8901 C   0  0  0  0  0  0  0  0  0  0  0  0
  -31.4016  -24.2896   23.0412 C   0  0  0  0  0  0  0  0  0  0  0  0
  -22.2782   -8.8075   20.2845 C   0  0  0  0  0  0  0  0  0  0  0  0
  -23.0255   -8.8681   22.5813 C   0  0  0  0  0  0  0  0  0  0  0  0
  -30.9376  -23.6105   24.1669 C   0  0  0  0  0  0  0  0  0  0  0  0
  -20.9702   -6.2203   23.9895 C   0  0  0  0  0  0  0  0  0  0  0  0
  -20.2068   -6.2306   25.1568 C   0  0  0  0  0  0  0  0  0  0  0  0
  -28.9867  -22.9102   22.9329 C   0  0  0  0  0  0  0  0  0  0  0  0
  -30.2440  -18.4336   25.5617 C   0  0  0  0  0  0  0  0  0  0  0  0
  -28.6054  -17.3474   24.1575 C   0  0  0  0  0  0  0  0  0  0  0  0
  -28.0194  -19.3556   25.3662 C   0  0  0  0  0  0  0  0  0  0  0  0
  -19.0115   -8.1724   24.3581 C   0  0  0  0  0  0  0  0  0  0  0  0
  -23.8096  -10.5289   21.0115 C   0  0  0  0  0  0  0  0  0  0  0  0
  -24.2107  -13.0405   20.8156 C   0  0  0  0  0  0  0  0  0  0  0  0
  -30.9745  -30.8872   21.0858 C   0  0  0  0  0  0  0  0  0  0  0  0
  -30.6551  -24.2932   21.8541 C   0  0  0  0  0  0  0  0  0  0  0  0
  -30.3454  -29.7334   21.5913 C   0  0  0  0  0  0  0  0  0  0  0  0
  -29.4447  -23.5880   21.7927 C   0  0  0  0  0  0  0  0  0  0  0  0
  -29.8931  -17.4021   24.6908 C   0  0  0  0  0  0  0  0  0  0  0  0
  -29.3072  -19.4103   25.8995 C   0  0  0  0  0  0  0  0  0  0  0  0
  -27.6685  -18.3242   24.4952 C   0  0  0  0  0  0  0  0  0  0  0  0
  -22.2659   -8.2741   21.5733 C   0  0  0  0  0  0  0  0  0  0  0  0
  -29.7286  -22.9231   24.1138 C   0  0  0  0  0  0  0  0  0  0  0  0
  -20.7544   -7.1862   23.0065 C   0  0  0  0  0  0  0  0  0  0  0  0
  -19.2274   -7.2066   25.3411 C   0  0  0  0  0  0  0  0  0  0  0  0
  -19.7751   -8.1622   23.1908 C   0  0  0  0  0  0  0  0  0  0  0  0
  -24.6076  -11.6931   20.7219 C   0  0  0  0  0  0  0  0  0  0  0  0
  -25.3219  -13.7530   20.4361 C   0  0  0  0  0  0  0  0  0  0  0  0
  -22.9503  -13.5982   21.2105 C   0  0  0  0  0  0  0  0  0  0  0  0
  -29.2546  -26.5374   20.0918 C   0  0  0  0  0  0  0  0  0  0  0  0
  -28.7126  -24.0605   18.0686 C   0  0  0  0  0  0  0  0  0  0  0  0
  -28.3610  -20.6931   17.6402 C   0  0  0  0  0  0  0  0  0  0  0  0
  -30.8268  -14.6507   20.6267 C   0  0  0  0  0  0  0  0  0  0  0  0
  -30.6489  -31.4337   19.7184 C   0  0  0  0  0  0  0  0  0  0  0  0
  -31.1825  -25.0083   20.6405 C   0  0  0  0  0  0  0  0  0  0  0  0
  -28.6154  -23.5440   20.5362 C   0  0  0  0  0  0  0  0  0  0  0  0
  -29.9548  -30.4237   18.8082 C   0  0  0  0  0  0  0  0  0  0  0  0
  -29.6471  -12.2201   18.3078 C   0  0  0  0  0  0  0  0  0  0  0  0
  -28.8282  -29.7175   19.5557 C   0  0  0  0  0  0  0  0  0  0  0  0
  -28.2009  -11.9732   18.7407 C   0  0  0  0  0  0  0  0  0  0  0  0
  -30.5625  -12.4569   19.5070 C   0  0  0  0  0  0  0  0  0  0  0  0
  -28.6708  -13.2743   20.8585 C   0  0  0  0  0  0  0  0  0  0  0  0
  -29.3700  -28.9324   20.7563 C   0  0  1  0  0  0  0  0  0  0  0  0
  -30.0900  -25.3730   19.6401 C   0  0  1  0  0  0  0  0  0  0  0  0
  -27.6992  -13.0858   19.6809 C   0  0  2  0  0  0  0  0  0  0  0  0
  -27.8854  -18.9704   15.8785 C   0  0  0  0  0  0  0  0  0  0  0  0
  -25.5706  -16.9403   24.3231 C   0  0  0  0  0  0  0  0  0  0  0  0
  -26.3214  -18.3344   22.3663 C   0  0  0  0  0  0  0  0  0  0  0  0
  -25.3292  -19.4144   24.3739 C   0  0  0  0  0  0  0  0  0  0  0  0
  -25.7609  -24.8319   18.1147 C   0  0  0  0  0  0  0  0  0  0  0  0
  -25.2298  -22.5826   17.1519 C   0  0  0  0  0  0  0  0  0  0  0  0
  -26.6361  -24.1891   15.8619 C   0  0  0  0  0  0  0  0  0  0  0  0
  -30.9760  -19.3724   18.0609 C   0  0  0  0  0  0  0  0  0  0  0  0
  -30.8953  -16.3582   24.3298 C   0  0  0  0  0  0  0  0  0  0  0  0
  -29.6864  -20.5269   26.8416 C   0  0  0  0  0  0  0  0  0  0  0  0
  -31.7424  -16.6903   23.0855 C   0  0  0  0  0  0  0  0  0  0  0  0
  -30.9358  -16.8365   21.7969 C   0  0  0  0  0  0  0  0  0  0  0  0
  -30.2528  -21.7376   26.1077 C   0  0  0  0  0  0  0  0  0  1  0  0
  -27.6103  -23.0439   17.8944 C   0  0  1  0  0  0  0  0  0  0  0  0
  -28.9645  -19.7382   16.6260 C   0  0  2  0  0  0  0  0  0  0  0  0
  -26.2916  -18.2653   23.9247 C   0  0  0  0  0  0  0  0  0  0  0  0
  -26.3237  -23.6641   17.2801 C   0  0  0  0  0  0  0  0  0  0  0  0
  -25.8721  -11.5552   20.3146 N   0  0  0  0  0  0  0  0  0  0  0  0
  -26.2794  -12.8252   20.1489 N   0  0  0  0  0  0  0  0  0  0  0  0
  -29.1704  -24.2640   19.3781 N   0  0  0  0  0  0  0  0  0  0  0  0
  -30.0312  -13.5249   20.3573 N   0  0  0  0  0  0  0  0  0  0  0  0
  -25.5636  -15.0763   20.3233 N   0  0  0  0  0  0  0  0  0  0  0  0
  -21.9157  -12.7236   21.5695 N   0  0  0  0  0  0  0  0  0  0  0  0
  -29.9766  -27.6937   20.3181 N   0  0  0  0  0  0  0  0  0  0  0  0
  -28.1808  -21.9534   17.1109 N   0  0  0  0  0  0  0  0  0  0  0  0
  -30.2448  -15.6188   21.4359 N   0  0  0  0  0  0  0  0  0  0  0  0
  -29.8551  -18.7555   17.3058 N   0  3  0  0  0  0  0  0  0  0  0  0
  -22.7424  -14.8352   21.2284 O   0  0  0  0  0  0  0  0  0  0  0  0
  -28.0443  -26.3976   20.2238 O   0  0  0  0  0  0  0  0  0  0  0  0
  -29.1563  -24.6471   17.0783 O   0  0  0  0  0  0  0  0  0  0  0  0
  -28.0745  -20.3537   18.7862 O   0  0  0  0  0  0  0  0  0  0  0  0
  -31.9689  -14.7858   20.1749 O   0  0  0  0  0  0  0  0  0  0  0  0
  -21.5127   -7.1742   21.8478 O   0  0  0  0  0  0  0  0  0  0  0  0
  -29.2730  -22.2599   25.2113 O   0  0  0  0  0  0  0  0  0  1  0  0
  -18.4933   -7.2154   26.4614 F   0  0  0  0  0  0  0  0  0  0  0  0
  -19.5623   -9.0919   22.2494 F   0  0  0  0  0  0  0  0  0  0  0  0
  1  2  1  0  0  0  0
  1  5  2  0  0  0  0
  2  6  2  0  0  0  0
  3  8  2  0  0  0  0
  3 18  1  0  0  0  0
  4  9  1  0  0  0  0
  4 18  2  0  0  0  0
  5 20  1  0  0  0  0
  6 22  1  0  0  0  0
  7 10  2  0  0  0  0
  7 21  1  0  0  0  0
  8 27  1  0  0  0  0
  9 27  2  0  0  0  0
 10 28  1  0  0  0  0
 11 12  2  0  0  0  0
 11 29  1  0  0  0  0
 12 30  1  0  0  0  0
 13 23  1  0  0  0  0
 13 28  2  0  0  0  0
 14 24  2  0  0  0  0
 14 25  1  0  0  0  0
 15 24  1  0  0  0  0
 15 26  2  0  0  0  0
 16 25  2  0  0  0  0
 16 26  1  0  0  0  0
 17 30  2  0  0  0  0
 17 31  1  0  0  0  0
 18 32  1  0  0  0  0
 19 32  1  0  0  0  0
 19 33  2  0  0  0  0
 19 34  1  0  0  0  0
 20 22  2  0  0  0  0
 20 39  1  0  0  0  0
 21 23  2  0  0  0  0
 21 40  1  0  0  0  0
 22 48  1  0  0  0  0
 23 41  1  0  0  0  0
 24 59  1  0  0  0  0
 25 60  1  0  0  0  0
 26 66  1  0  0  0  0
 27 83  1  0  0  0  0
 28 84  1  0  0  0  0
 29 31  2  0  0  0  0
 29 83  1  0  0  0  0
 30 85  1  0  0  0  0
 31 86  1  0  0  0  0
 32 68  2  0  0  0  0
 33 69  1  0  0  0  0
 33 72  1  0  0  0  0
 34 73  1  0  0  0  0
 34 78  2  0  0  0  0
 35 49  1  0  0  0  0
 35 74  1  0  0  0  0
 35 79  2  0  0  0  0
 36 64  1  0  0  0  0
 36 70  1  0  0  0  0
 36 80  2  0  0  0  0
 37 65  1  0  0  0  0
 37 75  1  0  0  0  0
 37 81  2  0  0  0  0
 38 71  1  0  0  0  0
 38 76  1  0  0  0  0
 38 82  2  0  0  0  0
 39 42  1  0  0  0  0
 40 49  1  0  0  0  0
 41 70  1  0  0  0  0
 42 44  1  0  0  0  0
 43 45  1  0  0  0  0
 43 46  1  0  0  0  0
 44 48  1  0  0  0  0
 45 50  1  0  0  0  0
 46 71  1  0  0  0  0
 47 50  1  0  0  0  0
 47 71  1  0  0  0  0
 48 74  1  0  0  0  0
 49 70  1  0  0  0  0
 50 69  1  0  0  0  0
 51 65  1  0  0  0  0
 52 66  1  0  0  0  0
 53 66  1  0  0  0  0
 54 66  1  0  0  0  0
 55 67  1  0  0  0  0
 56 67  1  0  0  0  0
 57 67  1  0  0  0  0
 58 77  1  0  0  0  0
 59 61  1  0  0  0  0
 60 63  1  0  0  0  0
 61 62  1  0  0  0  0
 62 76  1  0  0  0  0
 63 84  1  0  0  0  0
 64 67  1  0  0  0  0
 64 75  1  0  0  0  0
 65 77  1  0  0  0  0
 68 69  1  0  0  0  0
M  CHG  1  77   1
M  ISO  4  38 100  63 101  76 100  84 101
M  END
> <Batch ID>
0036

> <Smiles>
CNC(C)C(=O)NC(C(=O)N1Cc2cc([101O:1][101CH2:1]Cc3cc(CCC[100NH:0][100C:0](=O)N4CCCC(n5nc(-c6ccc(Oc7ccc(F)cc7F)cc6)c(C(N)=O)c5N)C4)cc(C(C)(C)C)c3)ccc2CC1C(=O)NC1CCCc2ccccc21)C(C)(C)C

> <Shape>
0.229

> <Color>
0.213

> <Negative vol penalty>
0.000

$$$$

  -OEChem-04052316563D

 86 94  0     1  0  0  0  0  0999 V2000
  -28.1710  -25.1307   16.5471 C   0  0  0  0  0  0  0  0  0  0  0  0
  -26.9949  -25.2748   17.2760 C   0  0  0  0  0  0  0  0  0  0  0  0
  -26.2915  -11.7225   20.4605 C   0  0  0  0  0  0  0  0  0  0  0  0
  -24.0527  -12.0673   21.3008 C   0  0  0  0  0  0  0  0  0  0  0  0
  -29.3642  -25.6576   17.0397 C   0  0  0  0  0  0  0  0  0  0  0  0
  -27.0115  -25.9450   18.4987 C   0  0  0  0  0  0  0  0  0  0  0  0
  -23.1578  -29.1942   18.9856 C   0  0  0  0  0  0  0  0  0  0  0  0
  -26.4037  -10.5668   21.2334 C   0  0  0  0  0  0  0  0  0  0  0  0
  -24.1648  -10.9115   22.0736 C   0  0  0  0  0  0  0  0  0  0  0  0
  -21.9103  -28.6593   19.3040 C   0  0  0  0  0  0  0  0  0  0  0  0
  -23.7274   -7.8547   23.9926 C   0  0  0  0  0  0  0  0  0  0  0  0
  -22.6497   -6.9693   23.9967 C   0  0  0  0  0  0  0  0  0  0  0  0
  -22.2402  -29.2790   21.6118 C   0  0  0  0  0  0  0  0  0  0  0  0
  -22.0027  -25.2329   21.7777 C   0  0  0  0  0  0  0  0  0  0  0  0
  -20.4862  -23.3522   21.7831 C   0  0  0  0  0  0  0  0  0  0  0  0
  -22.8750   -6.6839   21.6082 C   0  0  0  0  0  0  0  0  0  0  0  0
  -25.1160  -12.4728   20.4942 C   0  0  0  0  0  0  0  0  0  0  0  0
  -24.5193  -13.7645   18.3769 C   0  0  0  0  0  0  0  0  0  0  0  0
  -29.3936  -26.3430   18.2645 C   0  0  0  0  0  0  0  0  0  0  0  0
  -23.9620  -29.7668   19.9816 C   0  0  0  0  0  0  0  0  0  0  0  0
  -28.2064  -26.4804   19.0089 C   0  0  0  0  0  0  0  0  0  0  0  0
  -23.4965  -29.8228   21.3031 C   0  0  0  0  0  0  0  0  0  0  0  0
  -20.7136  -24.7211   21.9254 C   0  0  0  0  0  0  0  0  0  0  0  0
  -23.0644  -24.3760   21.4876 C   0  0  0  0  0  0  0  0  0  0  0  0
  -21.5480  -22.4953   21.4931 C   0  0  0  0  0  0  0  0  0  0  0  0
  -22.8370  -23.0072   21.3453 C   0  0  0  0  0  0  0  0  0  0  0  0
  -25.3403  -10.1613   22.0399 C   0  0  0  0  0  0  0  0  0  0  0  0
  -21.4526  -28.6991   20.6177 C   0  0  0  0  0  0  0  0  0  0  0  0
  -24.3790   -8.1548   22.7963 C   0  0  0  0  0  0  0  0  0  0  0  0
  -22.2235   -6.3839   22.8045 C   0  0  0  0  0  0  0  0  0  0  0  0
  -23.9528   -7.5694   21.6041 C   0  0  0  0  0  0  0  0  0  0  0  0
  -24.9998  -13.6670   19.6965 C   0  0  0  0  0  0  0  0  0  0  0  0
  -24.6112  -15.1014   18.0758 C   0  0  0  0  0  0  0  0  0  0  0  0
  -24.0332  -12.7382   17.5015 C   0  0  0  0  0  0  0  0  0  0  0  0
  -26.8334  -29.1305   21.1872 C   0  0  0  0  0  0  0  0  0  0  0  0
  -26.3365  -31.8966   22.8071 C   0  0  0  0  0  0  0  0  0  0  0  0
  -24.1112  -34.1570   24.0663 C   0  0  0  0  0  0  0  0  0  0  0  0
  -23.9305  -20.3130   19.2320 C   0  0  0  0  0  0  0  0  0  0  0  0
  -30.7161  -26.8540   18.7788 C   0  0  0  0  0  0  0  0  0  0  0  0
  -25.2937  -30.3634   19.6172 C   0  0  0  0  0  0  0  0  0  0  0  0
  -24.3126  -30.4447   22.4057 C   0  0  0  0  0  0  0  0  0  0  0  0
  -30.5781  -27.8765   19.9039 C   0  0  0  0  0  0  0  0  0  0  0  0
  -26.8976  -18.8873   20.5111 C   0  0  0  0  0  0  0  0  0  0  0  0
  -29.5728  -27.3930   20.9443 C   0  0  0  0  0  0  0  0  0  0  0  0
  -26.6266  -17.3965   20.3135 C   0  0  0  0  0  0  0  0  0  0  0  0
  -25.6499  -19.6417   20.9741 C   0  0  0  0  0  0  0  0  0  0  0  0
  -24.1987  -17.9454   19.9067 C   0  0  0  0  0  0  0  0  0  0  0  0
  -28.1793  -27.2225   20.3275 C   0  0  1  0  0  0  0  0  0  0  0  0
  -26.2495  -30.4603   20.8023 C   0  0  1  0  0  0  0  0  0  0  0  0
  -25.4209  -17.1750   19.3839 C   0  0  2  0  0  0  0  0  0  0  0  0
  -24.4355  -24.9494   21.3354 C   0  0  0  0  0  0  0  0  0  0  0  0
  -21.2780  -21.0333   21.3458 C   0  0  0  0  0  0  0  0  0  0  0  0
  -21.9481  -24.1395   17.5382 C   0  0  0  0  0  0  0  0  0  0  0  0
  -24.0029  -36.2958   25.3743 C   0  0  0  0  0  0  0  0  0  0  0  0
  -26.9323  -30.3553   25.3721 C   0  0  0  0  0  0  0  0  0  0  0  0
  -25.9006  -32.2380   26.6604 C   0  0  0  0  0  0  0  0  0  0  0  0
  -27.9342  -32.6447   25.2741 C   0  0  0  0  0  0  0  0  0  0  0  0
  -22.8006  -35.5914   21.8339 C   0  0  0  0  0  0  0  0  0  0  0  0
  -19.5658  -25.6475   22.2383 C   0  0  0  0  0  0  0  0  0  0  0  0
  -23.9757  -22.0886   21.0348 C   0  0  0  0  0  0  0  0  0  0  0  0
  -22.2328  -23.0648   18.5781 C   0  0  0  0  0  0  0  0  0  0  0  0
  -18.8690  -26.2062   20.9958 C   0  0  0  0  0  0  0  0  0  0  0  0
  -23.7105  -22.7010   18.6598 C   0  0  0  0  0  0  0  0  0  0  0  0
  -19.7742  -27.0836   20.1390 C   0  0  0  0  0  0  0  0  0  1  0  0
  -25.7114  -32.2623   24.1316 C   0  0  1  0  0  0  0  0  0  0  0  0
  -24.0615  -35.6722   23.9885 C   0  0  2  0  0  0  0  0  0  0  0  0
  -26.6048  -31.8615   25.3394 C   0  0  0  0  0  0  0  0  0  0  0  0
  -25.3697  -14.8480   20.1990 N   0  0  0  0  0  0  0  0  0  0  0  0
  -25.1217  -15.7001   19.1898 N   0  0  0  0  0  0  0  0  0  0  0  0
  -25.6106  -31.0089   22.0003 N   0  0  0  0  0  0  0  0  0  0  0  0
  -24.5115  -19.3651   20.0873 N   0  0  0  0  0  0  0  0  0  0  0  0
  -24.3045  -15.8114   16.9694 N   0  0  0  0  0  0  0  0  0  0  0  0
  -24.0065  -11.4176   17.9702 N   0  0  0  0  0  0  0  0  0  0  0  0
  -27.5347  -28.5088   20.1717 N   0  0  0  0  0  0  0  0  0  0  0  0
  -25.4077  -33.6875   24.0600 N   0  0  0  0  0  0  0  0  0  0  0  0
  -23.9704  -21.6550   19.6390 N   0  0  0  0  0  0  0  0  0  0  0  0
  -22.8606  -36.1125   23.2238 N   0  3  0  0  0  0  0  0  0  0  0  0
  -23.6497  -12.9826   16.3325 O   0  0  0  0  0  0  0  0  0  0  0  0
  -26.6618  -28.7009   22.3220 O   0  0  0  0  0  0  0  0  0  0  0  0
  -27.4253  -32.3862   22.4965 O   0  0  0  0  0  0  0  0  0  0  0  0
  -23.1011  -33.4598   24.1303 O   0  0  0  0  0  0  0  0  0  0  0  0
  -23.3976  -19.9788   18.1660 O   0  0  0  0  0  0  0  0  0  0  0  0
  -25.4493   -9.0335   22.7940 O   0  0  0  0  0  0  0  0  0  0  0  0
  -20.2356  -28.1771   20.9313 O   0  0  0  0  0  0  0  0  0  1  0  0
  -21.1895   -5.5324   22.8088 F   0  0  0  0  0  0  0  0  0  0  0  0
  -24.5755   -7.8530   20.4519 F   0  0  0  0  0  0  0  0  0  0  0  0
  1  2  1  0  0  0  0
  1  5  2  0  0  0  0
  2  6  2  0  0  0  0
  3  8  2  0  0  0  0
  3 17  1  0  0  0  0
  4  9  1  0  0  0  0
  4 17  2  0  0  0  0
  5 19  1  0  0  0  0
  6 21  1  0  0  0  0
  7 10  2  0  0  0  0
  7 20  1  0  0  0  0
  8 27  1  0  0  0  0
  9 27  2  0  0  0  0
 10 28  1  0  0  0  0
 11 12  2  0  0  0  0
 11 29  1  0  0  0  0
 12 30  1  0  0  0  0
 13 22  1  0  0  0  0
 13 28  2  0  0  0  0
 14 23  1  0  0  0  0
 14 24  2  0  0  0  0
 15 23  2  0  0  0  0
 15 25  1  0  0  0  0
 16 30  2  0  0  0  0
 16 31  1  0  0  0  0
 17 32  1  0  0  0  0
 18 32  1  0  0  0  0
 18 33  2  0  0  0  0
 18 34  1  0  0  0  0
 19 21  2  0  0  0  0
 19 39  1  0  0  0  0
 20 22  2  0  0  0  0
 20 40  1  0  0  0  0
 21 48  1  0  0  0  0
 22 41  1  0  0  0  0
 23 59  1  0  0  0  0
 24 26  1  0  0  0  0
 24 51  1  0  0  0  0
 25 26  2  0  0  0  0
 25 52  1  0  0  0  0
 26 60  1  0  0  0  0
 27 83  1  0  0  0  0
 28 84  1  0  0  0  0
 29 31  2  0  0  0  0
 29 83  1  0  0  0  0
 30 85  1  0  0  0  0
 31 86  1  0  0  0  0
 32 68  2  0  0  0  0
 33 69  1  0  0  0  0
 33 72  1  0  0  0  0
 34 73  1  0  0  0  0
 34 78  2  0  0  0  0
 35 49  1  0  0  0  0
 35 74  1  0  0  0  0
 35 79  2  0  0  0  0
 36 65  1  0  0  0  0
 36 70  1  0  0  0  0
 36 80  2  0  0  0  0
 37 66  1  0  0  0  0
 37 75  1  0  0  0  0
 37 81  2  0  0  0  0
 38 71  1  0  0  0  0
 38 76  1  0  0  0  0
 38 82  2  0  0  0  0
 39 42  1  0  0  0  0
 40 49  1  0  0  0  0
 41 70  1  0  0  0  0
 42 44  1  0  0  0  0
 43 45  1  0  0  0  0
 43 46  1  0  0  0  0
 44 48  1  0  0  0  0
 45 50  1  0  0  0  0
 46 71  1  0  0  0  0
 47 50  1  0  0  0  0
 47 71  1  0  0  0  0
 48 74  1  0  0  0  0
 49 70  1  0  0  0  0
 50 69  1  0  0  0  0
 53 61  1  0  0  0  0
 54 66  1  0  0  0  0
 55 67  1  0  0  0  0
 56 67  1  0  0  0  0
 57 67  1  0  0  0  0
 58 77  1  0  0  0  0
 59 62  1  0  0  0  0
 60 76  1  0  0  0  0
 61 63  1  0  0  0  0
 62 64  1  0  0  0  0
 63 76  1  0  0  0  0
 64 84  1  0  0  0  0
 65 67  1  0  0  0  0
 65 75  1  0  0  0  0
 66 77  1  0  0  0  0
 68 69  1  0  0  0  0
M  CHG  1  77   1
M  ISO  4  38 100  64 101  76 100  84 101
M  END
> <Batch ID>
0036

> <Smiles>
CCC[100N:0](Cc1c(C)cc(CC[101CH2:1][101O:1]c2ccc3c(c2)CN(C(=O)C(NC(=O)C(C)NC)C(C)(C)C)C(C(=O)NC2CCCc4ccccc42)C3)cc1C)[100C:0](=O)N1CCCC(n2nc(-c3ccc(Oc4ccc(F)cc4F)cc3)c(C(N)=O)c2N)C1

> <Shape>
0.274

> <Color>
0.075

> <Negative vol penalty>
0.000

$$$$

  -OEChem-04052316563D

 85 93  0     1  0  0  0  0  0999 V2000
  -30.0272  -25.1775   18.2157 C   0  0  0  0  0  0  0  0  0  0  0  0
  -28.7326  -25.0326   18.7041 C   0  0  0  0  0  0  0  0  0  0  0  0
  -24.3468  -13.3336   19.7238 C   0  0  0  0  0  0  0  0  0  0  0  0
  -25.0596  -13.4995   22.0263 C   0  0  0  0  0  0  0  0  0  0  0  0
  -30.9311  -26.0088   18.8759 C   0  0  0  0  0  0  0  0  0  0  0  0
  -28.3416  -25.7181   19.8537 C   0  0  0  0  0  0  0  0  0  0  0  0
  -22.8024  -28.0403   21.0501 C   0  0  0  0  0  0  0  0  0  0  0  0
  -25.2904  -12.3303   19.5039 C   0  0  0  0  0  0  0  0  0  0  0  0
  -26.0033  -12.4961   21.8064 C   0  0  0  0  0  0  0  0  0  0  0  0
  -21.7284  -27.5651   21.8014 C   0  0  0  0  0  0  0  0  0  0  0  0
  -28.6192  -12.1188   18.9572 C   0  0  0  0  0  0  0  0  0  0  0  0
  -29.3896  -12.1976   17.7971 C   0  0  0  0  0  0  0  0  0  0  0  0
  -22.4810  -28.8655   23.6886 C   0  0  0  0  0  0  0  0  0  0  0  0
  -22.7710  -25.0510   25.0364 C   0  0  0  0  0  0  0  0  0  0  0  0
  -21.5290  -23.1856   25.9388 C   0  0  0  0  0  0  0  0  0  0  0  0
  -28.5299  -10.0564   17.0807 C   0  0  0  0  0  0  0  0  0  0  0  0
  -24.2314  -13.9183   20.9850 C   0  0  0  0  0  0  0  0  0  0  0  0
  -21.9249  -14.7916   21.6370 C   0  0  0  0  0  0  0  0  0  0  0  0
  -30.5480  -26.7123   20.0287 C   0  0  0  0  0  0  0  0  0  0  0  0
  -23.7315  -28.9247   21.6168 C   0  0  0  0  0  0  0  0  0  0  0  0
  -29.2416  -26.5585   20.5307 C   0  0  0  0  0  0  0  0  0  0  0  0
  -23.5645  -29.3525   22.9416 C   0  0  0  0  0  0  0  0  0  0  0  0
  -21.6162  -24.5434   25.6316 C   0  0  0  0  0  0  0  0  0  0  0  0
  -23.8387  -24.2008   24.7483 C   0  0  0  0  0  0  0  0  0  0  0  0
  -23.7515  -22.8430   25.0554 C   0  0  0  0  0  0  0  0  0  0  0  0
  -26.1187  -11.9115   20.5452 C   0  0  0  0  0  0  0  0  0  0  0  0
  -21.5692  -27.9754   23.1218 C   0  0  0  0  0  0  0  0  0  0  0  0
  -27.8042  -11.0087   19.1792 C   0  0  0  0  0  0  0  0  0  0  0  0
  -29.3449  -11.1665   16.8588 C   0  0  0  0  0  0  0  0  0  0  0  0
  -27.7595   -9.9775   18.2409 C   0  0  0  0  0  0  0  0  0  0  0  0
  -22.5966  -22.3353   25.6506 C   0  0  0  0  0  0  0  0  0  0  0  0
  -23.2572  -14.9552   21.2126 C   0  0  0  0  0  0  0  0  0  0  0  0
  -21.4254  -16.0695   21.7005 C   0  0  0  0  0  0  0  0  0  0  0  0
  -21.2034  -13.5918   21.9463 C   0  0  0  0  0  0  0  0  0  0  0  0
  -26.8526  -28.8226   22.2099 C   0  0  0  0  0  0  0  0  0  0  0  0
  -24.1116  -21.3965   22.4208 C   0  0  0  0  0  0  0  0  0  0  0  0
  -26.3971  -31.9198   23.0597 C   0  0  0  0  0  0  0  0  0  0  0  0
  -24.2492  -34.3417   24.1404 C   0  0  0  0  0  0  0  0  0  0  0  0
  -31.5743  -27.5623   20.7350 C   0  0  0  0  0  0  0  0  0  0  0  0
  -24.8696  -29.4490   20.7848 C   0  0  0  0  0  0  0  0  0  0  0  0
  -24.5227  -30.3165   23.5905 C   0  0  0  0  0  0  0  0  0  0  0  0
  -30.9682  -28.5452   21.7334 C   0  0  0  0  0  0  0  0  0  0  0  0
  -21.9390  -20.4001   19.7511 C   0  0  0  0  0  0  0  0  0  0  0  0
  -29.9305  -27.8473   22.6068 C   0  0  0  0  0  0  0  0  0  0  0  0
  -21.9323  -18.8748   19.8441 C   0  0  0  0  0  0  0  0  0  0  0  0
  -23.3019  -20.9761   20.1225 C   0  0  0  0  0  0  0  0  0  0  0  0
  -23.7905  -19.0237   21.5617 C   0  0  0  0  0  0  0  0  0  0  0  0
  -28.7723  -27.3047   21.7608 C   0  0  1  0  0  0  0  0  0  0  0  0
  -26.0438  -29.9447   21.6231 C   0  0  1  0  0  0  0  0  0  0  0  0
  -22.4233  -18.4029   21.2242 C   0  0  2  0  0  0  0  0  0  0  0  0
  -26.2038  -24.9527   25.1054 C   0  0  0  0  0  0  0  0  0  0  0  0
  -25.5144  -21.3293   26.0146 C   0  0  0  0  0  0  0  0  0  0  0  0
  -24.1763  -36.7668   24.7813 C   0  0  0  0  0  0  0  0  0  0  0  0
  -27.7216  -31.2524   25.7262 C   0  0  0  0  0  0  0  0  0  0  0  0
  -26.7809  -33.3821   26.6470 C   0  0  0  0  0  0  0  0  0  0  0  0
  -28.3967  -33.4528   24.7478 C   0  0  0  0  0  0  0  0  0  0  0  0
  -22.3184  -34.9721   21.9879 C   0  0  0  0  0  0  0  0  0  0  0  0
  -20.4630  -25.4633   25.9437 C   0  0  0  0  0  0  0  0  0  0  0  0
  -25.0625  -24.7717   24.1093 C   0  0  0  0  0  0  0  0  0  0  0  0
  -24.5511  -20.8170   23.7418 C   0  0  0  0  0  0  0  0  0  0  0  0
  -19.4485  -25.5875   24.8049 C   0  0  0  0  0  0  0  0  0  0  0  0
  -20.0319  -26.2101   23.5418 C   0  0  0  0  0  0  0  0  0  1  0  0
  -24.9060  -21.9441   24.7390 C   0  0  1  0  0  0  0  0  0  0  0  0
  -26.0392  -32.6356   24.3397 C   0  0  1  0  0  0  0  0  0  0  0  0
  -24.0030  -35.7590   23.6557 C   0  0  2  0  0  0  0  0  0  0  0  0
  -27.2175  -32.6610   25.3539 C   0  0  0  0  0  0  0  0  0  0  0  0
  -23.5834  -16.2360   21.0199 N   0  0  0  0  0  0  0  0  0  0  0  0
  -22.4489  -16.8888   21.3246 N   0  0  0  0  0  0  0  0  0  0  0  0
  -25.6230  -30.7960   22.7378 N   0  0  0  0  0  0  0  0  0  0  0  0
  -23.7431  -20.4865   21.4298 N   0  0  0  0  0  0  0  0  0  0  0  0
  -20.2149  -16.5609   22.0406 N   0  0  0  0  0  0  0  0  0  0  0  0
  -21.8679  -12.3634   21.8284 N   0  0  0  0  0  0  0  0  0  0  0  0
  -27.8718  -28.3756   21.3908 N   0  0  0  0  0  0  0  0  0  0  0  0
  -25.5592  -33.9565   23.9483 N   0  0  0  0  0  0  0  0  0  0  0  0
  -22.6196  -35.8893   23.1171 N   0  3  0  0  0  0  0  0  0  0  0  0
  -20.0002  -13.6074   22.3006 O   0  0  0  0  0  0  0  0  0  0  0  0
  -26.5737  -28.3951   23.3240 O   0  0  0  0  0  0  0  0  0  0  0  0
  -24.0942  -22.6218   22.2769 O   0  0  0  0  0  0  0  0  0  0  0  0
  -27.3245  -32.3464   22.3672 O   0  0  0  0  0  0  0  0  0  0  0  0
  -23.3685  -33.6471   24.6429 O   0  0  0  0  0  0  0  0  0  0  0  0
  -27.0394  -10.9322   20.3311 O   0  0  0  0  0  0  0  0  0  0  0  0
  -20.5221  -27.5126   23.8575 O   0  0  0  0  0  0  0  0  0  1  0  0
  -30.0835  -11.2430   15.7440 F   0  0  0  0  0  0  0  0  0  0  0  0
  -26.9776   -8.9091   18.4480 F   0  0  0  0  0  0  0  0  0  0  0  0
  -22.4506  -20.6613   26.0477 Cl  0  0  0  0  0  0  0  0  0  0  0  0
  1  2  1  0  0  0  0
  1  5  2  0  0  0  0
  2  6  2  0  0  0  0
  3  8  2  0  0  0  0
  3 17  1  0  0  0  0
  4  9  1  0  0  0  0
  4 17  2  0  0  0  0
  5 19  1  0  0  0  0
  6 21  1  0  0  0  0
  7 10  2  0  0  0  0
  7 20  1  0  0  0  0
  8 26  1  0  0  0  0
  9 26  2  0  0  0  0
 10 27  1  0  0  0  0
 11 12  2  0  0  0  0
 11 28  1  0  0  0  0
 12 29  1  0  0  0  0
 13 22  1  0  0  0  0
 13 27  2  0  0  0  0
 14 23  2  0  0  0  0
 14 24  1  0  0  0  0
 15 23  1  0  0  0  0
 15 31  2  0  0  0  0
 16 29  2  0  0  0  0
 16 30  1  0  0  0  0
 17 32  1  0  0  0  0
 18 32  1  0  0  0  0
 18 33  2  0  0  0  0
 18 34  1  0  0  0  0
 19 21  2  0  0  0  0
 19 39  1  0  0  0  0
 20 22  2  0  0  0  0
 20 40  1  0  0  0  0
 21 48  1  0  0  0  0
 22 41  1  0  0  0  0
 23 58  1  0  0  0  0
 24 25  2  0  0  0  0
 24 59  1  0  0  0  0
 25 31  1  0  0  0  0
 25 63  1  0  0  0  0
 26 81  1  0  0  0  0
 27 82  1  0  0  0  0
 28 30  2  0  0  0  0
 28 81  1  0  0  0  0
 29 83  1  0  0  0  0
 30 84  1  0  0  0  0
 31 85  1  0  0  0  0
 32 67  2  0  0  0  0
 33 68  1  0  0  0  0
 33 71  1  0  0  0  0
 34 72  1  0  0  0  0
 34 76  2  0  0  0  0
 35 49  1  0  0  0  0
 35 73  1  0  0  0  0
 35 77  2  0  0  0  0
 36 60  1  0  0  0  0
 36 70  1  0  0  0  0
 36 78  2  0  0  0  0
 37 64  1  0  0  0  0
 37 69  1  0  0  0  0
 37 79  2  0  0  0  0
 38 65  1  0  0  0  0
 38 74  1  0  0  0  0
 38 80  2  0  0  0  0
 39 42  1  0  0  0  0
 40 49  1  0  0  0  0
 41 69  1  0  0  0  0
 42 44  1  0  0  0  0
 43 45  1  0  0  0  0
 43 46  1  0  0  0  0
 44 48  1  0  0  0  0
 45 50  1  0  0  0  0
 46 70  1  0  0  0  0
 47 50  1  0  0  0  0
 47 70  1  0  0  0  0
 48 73  1  0  0  0  0
 49 69  1  0  0  0  0
 50 68  1  0  0  0  0
 51 59  1  0  0  0  0
 52 63  1  0  0  0  0
 53 65  1  0  0  0  0
 54 66  1  0  0  0  0
 55 66  1  0  0  0  0
 56 66  1  0  0  0  0
 57 75  1  0  0  0  0
 58 61  1  0  0  0  0
 60 63  1  0  0  0  0
 61 62  1  0  0  0  0
 62 82  1  0  0  0  0
 64 66  1  0  0  0  0
 64 74  1  0  0  0  0
 65 75  1  0  0  0  0
 67 68  1  0  0  0  0
M  CHG  1  75   1
M  ISO  4  36 100  60 100  62 101  82 101
M  END
> <Batch ID>
0036

> <Smiles>
CCc1cc(CC[101CH2:1][101O:1]c2ccc3c(c2)CN(C(=O)C(NC(=O)C(C)NC)C(C)(C)C)C(C(=O)NC2CCCc4ccccc42)C3)cc(Cl)c1C(C)[100CH2:0][100C:0](=O)N1CCCC(n2nc(-c3ccc(Oc4ccc(F)cc4F)cc3)c(C(N)=O)c2N)C1

> <Shape>
0.241

> <Color>
0.060

> <Negative vol penalty>
0.000

$$$$

  -OEChem-04052316563D

 86 94  0     1  0  0  0  0  0999 V2000
  -27.6954  -22.6411   15.3500 C   0  0  0  0  0  0  0  0  0  0  0  0
  -26.6156  -22.9337   16.1770 C   0  0  0  0  0  0  0  0  0  0  0  0
  -27.9271  -14.2960   18.5707 C   0  0  0  0  0  0  0  0  0  0  0  0
  -28.3999  -13.7323   20.8719 C   0  0  0  0  0  0  0  0  0  0  0  0
  -28.9973  -22.8062   15.8208 C   0  0  0  0  0  0  0  0  0  0  0  0
  -26.8372  -23.3907   17.4756 C   0  0  0  0  0  0  0  0  0  0  0  0
  -23.8688  -27.3101   18.6890 C   0  0  0  0  0  0  0  0  0  0  0  0
  -28.9896  -13.4932   18.1557 C   0  0  0  0  0  0  0  0  0  0  0  0
  -29.4624  -12.9294   20.4570 C   0  0  0  0  0  0  0  0  0  0  0  0
  -22.5450  -27.0269   19.0223 C   0  0  0  0  0  0  0  0  0  0  0  0
  -31.3520  -11.3065   16.4668 C   0  0  0  0  0  0  0  0  0  0  0  0
  -31.1362  -10.4537   15.3843 C   0  0  0  0  0  0  0  0  0  0  0  0
  -23.1032  -27.2012   21.3626 C   0  0  0  0  0  0  0  0  0  0  0  0
  -29.3740   -9.3444   16.6096 C   0  0  0  0  0  0  0  0  0  0  0  0
  -20.4656  -28.7749   22.0483 C   0  0  0  0  0  0  0  0  0  0  0  0
  -27.6323  -14.4157   19.9288 C   0  0  0  0  0  0  0  0  0  0  0  0
  -25.1946  -14.8557   20.5384 C   0  0  0  0  0  0  0  0  0  0  0  0
  -29.2350  -23.2747   17.1226 C   0  0  0  0  0  0  0  0  0  0  0  0
  -24.8238  -27.5305   19.6920 C   0  0  0  0  0  0  0  0  0  0  0  0
  -28.1436  -23.5610   17.9647 C   0  0  0  0  0  0  0  0  0  0  0  0
  -24.4379  -27.4894   21.0394 C   0  0  0  0  0  0  0  0  0  0  0  0
  -29.7572  -12.8098   19.0988 C   0  0  0  0  0  0  0  0  0  0  0  0
  -22.1626  -26.9696   20.3593 C   0  0  0  0  0  0  0  0  0  0  0  0
  -30.5789  -11.1782   17.6207 C   0  0  0  0  0  0  0  0  0  0  0  0
  -30.1471   -9.4726   15.4557 C   0  0  0  0  0  0  0  0  0  0  0  0
  -29.5899  -10.1972   17.6921 C   0  0  0  0  0  0  0  0  0  0  0  0
  -26.5353  -15.2453   20.3581 C   0  0  0  0  0  0  0  0  0  0  0  0
  -19.5525  -28.9707   23.1018 C   0  0  0  0  0  0  0  0  0  0  0  0
  -24.5569  -16.0002   20.9506 C   0  0  0  0  0  0  0  0  0  0  0  0
  -20.2750  -27.4692   21.6670 C   0  0  0  0  0  0  0  0  0  1  0  0
  -24.5806  -13.5738   20.3501 C   0  0  0  0  0  0  0  0  0  0  0  0
  -27.5145  -26.0916   20.5826 C   0  0  0  0  0  0  0  0  0  0  0  0
  -27.7412  -28.6217   22.5999 C   0  0  0  0  0  0  0  0  0  0  0  0
  -26.1560  -31.1071   24.3195 C   0  0  0  0  0  0  0  0  0  0  0  0
  -25.4930  -20.5468   24.2466 C   0  0  0  0  0  0  0  0  0  0  0  0
  -30.6598  -23.3922   17.6029 C   0  0  0  0  0  0  0  0  0  0  0  0
  -26.2420  -27.8611   19.3155 C   0  0  0  0  0  0  0  0  0  0  0  0
  -25.4203  -27.7386   22.1536 C   0  0  0  0  0  0  0  0  0  0  0  0
  -30.8093  -24.2378   18.8651 C   0  0  0  0  0  0  0  0  0  0  0  0
  -25.5316  -20.8382   20.6395 C   0  0  0  0  0  0  0  0  0  0  0  0
  -29.7620  -23.8408   19.9007 C   0  0  0  0  0  0  0  0  0  0  0  0
  -25.6645  -19.3738   20.2175 C   0  0  0  0  0  0  0  0  0  0  0  0
  -26.3475  -21.1276   21.8960 C   0  0  0  0  0  0  0  0  0  0  0  0
  -26.1581  -18.7845   22.6359 C   0  0  0  0  0  0  0  0  0  0  0  0
  -28.3433  -24.0825   19.3712 C   0  0  1  0  0  0  0  0  0  0  0  0
  -27.2411  -27.5610   20.4286 C   0  0  1  0  0  0  0  0  0  0  0  0
  -25.3382  -18.4227   21.3841 C   0  0  2  0  0  0  0  0  0  0  0  0
  -18.8334  -31.3852   23.0216 C   0  0  0  0  0  0  0  0  0  0  0  0
  -20.5847  -30.6459   24.6773 C   0  0  0  0  0  0  0  0  0  0  0  0
  -26.6016  -32.9932   25.9137 C   0  0  0  0  0  0  0  0  0  0  0  0
  -28.0649  -26.6170   24.8773 C   0  0  0  0  0  0  0  0  0  0  0  0
  -27.5529  -28.4665   26.4851 C   0  0  0  0  0  0  0  0  0  0  0  0
  -29.5675  -28.6110   25.0212 C   0  0  0  0  0  0  0  0  0  0  0  0
  -25.1262  -33.1191   22.4089 C   0  0  0  0  0  0  0  0  0  0  0  0
  -21.3265  -23.7024   24.6623 C   0  0  0  0  0  0  0  0  0  0  0  0
  -20.8228  -24.6211   23.5462 C   0  0  0  0  0  0  0  0  0  0  0  0
  -22.8482  -23.5248   24.6664 C   0  0  0  0  0  0  0  0  0  0  0  0
  -19.2946  -24.7370   23.5728 C   0  0  0  0  0  0  0  0  0  0  0  0
  -23.3479  -22.5795   25.7640 C   0  0  0  0  0  0  0  0  0  0  0  0
  -18.7435  -25.6474   22.4696 C   0  0  0  0  0  0  0  0  0  0  0  0
  -24.8654  -22.4185   25.7498 C   0  0  0  0  0  0  0  0  0  0  0  0
  -19.3338  -30.2003   23.8823 C   0  0  0  0  0  0  0  0  0  0  0  0
  -27.2725  -28.9141   24.0048 C   0  0  1  0  0  0  0  0  0  0  0  0
  -26.4573  -32.5888   24.4548 C   0  0  2  0  0  0  0  0  0  0  0  0
  -28.0961  -28.1455   25.0764 C   0  0  0  0  0  0  0  0  0  0  0  0
  -26.7385  -16.5365   20.6332 N   0  0  0  0  0  0  0  0  0  0  0  0
  -18.8353  -27.8770   23.3725 N   0  0  0  0  0  0  0  0  0  0  0  0
  -25.5169  -16.9681   20.9904 N   0  0  0  0  0  0  0  0  0  0  0  0
  -19.2975  -26.9813   22.4835 N   0  0  0  0  0  0  0  0  0  0  0  0
  -26.7965  -28.0517   21.7346 N   0  0  0  0  0  0  0  0  0  0  0  0
  -25.9756  -20.2000   22.9737 N   0  0  0  0  0  0  0  0  0  0  0  0
  -23.2742  -16.2629   21.2793 N   0  0  0  0  0  0  0  0  0  0  0  0
  -25.3813  -12.5057   19.9231 N   0  0  0  0  0  0  0  0  0  0  0  0
  -28.0101  -25.4890   19.4420 N   0  0  0  0  0  0  0  0  0  0  0  0
  -27.3062  -30.3652   24.1526 N   0  0  0  0  0  0  0  0  0  0  0  0
  -25.3557  -21.9081   24.4889 N   0  0  0  0  0  0  0  0  0  0  0  0
  -25.3620  -33.3975   23.8490 N   0  3  0  0  0  0  0  0  0  0  0  0
  -23.3549  -13.3851   20.5385 O   0  0  0  0  0  0  0  0  0  0  0  0
  -27.2937  -25.5453   21.6570 O   0  0  0  0  0  0  0  0  0  0  0  0
  -28.9005  -28.8956   22.2798 O   0  0  0  0  0  0  0  0  0  0  0  0
  -25.0148  -30.6529   24.3616 O   0  0  0  0  0  0  0  0  0  0  0  0
  -25.2008  -19.7049   25.1028 O   0  0  0  0  0  0  0  0  0  0  0  0
  -30.7938  -12.0261   18.6942 O   0  0  0  0  0  0  0  0  0  0  0  0
  -20.8712  -26.6928   20.6873 O   0  0  0  0  0  0  0  0  0  1  0  0
  -29.9390   -8.6548   14.4155 F   0  0  0  0  0  0  0  0  0  0  0  0
  -28.8432  -10.0699   18.7976 F   0  0  0  0  0  0  0  0  0  0  0  0
  1  2  1  0  0  0  0
  1  5  2  0  0  0  0
  2  6  2  0  0  0  0
  3  8  2  0  0  0  0
  3 16  1  0  0  0  0
  4  9  1  0  0  0  0
  4 16  2  0  0  0  0
  5 18  1  0  0  0  0
  6 20  1  0  0  0  0
  7 10  2  0  0  0  0
  7 19  1  0  0  0  0
  8 22  1  0  0  0  0
  9 22  2  0  0  0  0
 10 23  1  0  0  0  0
 11 12  2  0  0  0  0
 11 24  1  0  0  0  0
 12 25  1  0  0  0  0
 13 21  1  0  0  0  0
 13 23  2  0  0  0  0
 14 25  2  0  0  0  0
 14 26  1  0  0  0  0
 15 28  1  0  0  0  0
 15 30  2  0  0  0  0
 16 27  1  0  0  0  0
 17 27  1  0  0  0  0
 17 29  2  0  0  0  0
 17 31  1  0  0  0  0
 18 20  2  0  0  0  0
 18 36  1  0  0  0  0
 19 21  2  0  0  0  0
 19 37  1  0  0  0  0
 20 45  1  0  0  0  0
 21 38  1  0  0  0  0
 22 83  1  0  0  0  0
 23 84  1  0  0  0  0
 24 26  2  0  0  0  0
 24 83  1  0  0  0  0
 25 85  1  0  0  0  0
 26 86  1  0  0  0  0
 27 66  2  0  0  0  0
 28 62  1  0  0  0  0
 28 67  2  0  0  0  0
 29 68  1  0  0  0  0
 29 72  1  0  0  0  0
 30 69  1  0  0  0  0
 30 84  1  0  0  0  0
 31 73  1  0  0  0  0
 31 78  2  0  0  0  0
 32 46  1  0  0  0  0
 32 74  1  0  0  0  0
 32 79  2  0  0  0  0
 33 63  1  0  0  0  0
 33 70  1  0  0  0  0
 33 80  2  0  0  0  0
 34 64  1  0  0  0  0
 34 75  1  0  0  0  0
 34 81  2  0  0  0  0
 35 71  1  0  0  0  0
 35 76  1  0  0  0  0
 35 82  2  0  0  0  0
 36 39  1  0  0  0  0
 37 46  1  0  0  0  0
 38 70  1  0  0  0  0
 39 41  1  0  0  0  0
 40 42  1  0  0  0  0
 40 43  1  0  0  0  0
 41 45  1  0  0  0  0
 42 47  1  0  0  0  0
 43 71  1  0  0  0  0
 44 47  1  0  0  0  0
 44 71  1  0  0  0  0
 45 74  1  0  0  0  0
 46 70  1  0  0  0  0
 47 68  1  0  0  0  0
 48 62  1  0  0  0  0
 49 62  1  0  0  0  0
 50 64  1  0  0  0  0
 51 65  1  0  0  0  0
 52 65  1  0  0  0  0
 53 65  1  0  0  0  0
 54 77  1  0  0  0  0
 55 56  1  0  0  0  0
 55 57  1  0  0  0  0
 56 58  1  0  0  0  0
 57 59  1  0  0  0  0
 58 60  1  0  0  0  0
 59 61  1  0  0  0  0
 60 69  1  0  0  0  0
 61 76  1  0  0  0  0
 63 65  1  0  0  0  0
 63 75  1  0  0  0  0
 64 77  1  0  0  0  0
 66 68  1  0  0  0  0
 67 69  1  0  0  0  0
M  CHG  1  77   1
M  ISO  4  30 101  35 100  76 100  84 101
M  END
> <Batch ID>
0036

> <Smiles>
CNC(C)C(=O)NC(C(=O)N1Cc2cc([101O:1][101c:1]3cc(C(C)C)nn3CCCCCCC[100NH:0][100C:0](=O)N3CCCC(n4nc(-c5ccc(Oc6ccc(F)cc6F)cc5)c(C(N)=O)c4N)C3)ccc2CC1C(=O)NC1CCCc2ccccc21)C(C)(C)C

> <Shape>
0.252

> <Color>
0.046

> <Negative vol penalty>
0.000

$$$$

  -OEChem-04052316563D

 88 97  0     1  0  0  0  0  0999 V2000
  -27.0034  -34.6463   25.1411 C   0  0  0  0  0  0  0  0  0  0  0  0
  -27.3681  -33.4045   24.6308 C   0  0  0  0  0  0  0  0  0  0  0  0
  -23.2356  -15.2741   22.5404 C   0  0  0  0  0  0  0  0  0  0  0  0
  -22.3363  -14.4051   20.4732 C   0  0  0  0  0  0  0  0  0  0  0  0
  -25.6862  -34.8770   25.5356 C   0  0  0  0  0  0  0  0  0  0  0  0
  -26.4159  -32.3923   24.5158 C   0  0  0  0  0  0  0  0  0  0  0  0
  -26.6709  -29.9814   20.0697 C   0  0  0  0  0  0  0  0  0  0  0  0
  -21.9643  -15.7146   22.9083 C   0  0  0  0  0  0  0  0  0  0  0  0
  -21.0650  -14.8456   20.8411 C   0  0  0  0  0  0  0  0  0  0  0  0
  -27.6840  -29.0361   19.9151 C   0  0  0  0  0  0  0  0  0  0  0  0
  -18.5691  -13.8236   22.8774 C   0  0  0  0  0  0  0  0  0  0  0  0
  -17.5014  -12.9458   22.6902 C   0  0  0  0  0  0  0  0  0  0  0  0
  -26.0987  -27.2732   20.3605 C   0  0  0  0  0  0  0  0  0  0  0  0
  -30.9075  -23.4741   18.5290 C   0  0  0  0  0  0  0  0  0  0  0  0
  -29.8214  -23.9645   21.0514 C   0  0  0  0  0  0  0  0  0  0  0  0
  -16.4499  -14.5402   21.2105 C   0  0  0  0  0  0  0  0  0  0  0  0
  -23.4216  -14.6194   21.3229 C   0  0  0  0  0  0  0  0  0  0  0  0
  -25.3132  -12.9110   21.2172 C   0  0  0  0  0  0  0  0  0  0  0  0
  -24.7152  -33.8701   25.4164 C   0  0  0  0  0  0  0  0  0  0  0  0
  -25.3642  -29.5797   20.3821 C   0  0  0  0  0  0  0  0  0  0  0  0
  -25.0848  -32.6093   24.9104 C   0  0  0  0  0  0  0  0  0  0  0  0
  -25.0703  -28.2152   20.5160 C   0  0  0  0  0  0  0  0  0  0  0  0
  -29.7771  -24.2812   18.6566 C   0  0  0  0  0  0  0  0  0  0  0  0
  -30.9518  -23.1573   20.9237 C   0  0  0  0  0  0  0  0  0  0  0  0
  -31.4949  -22.9121   19.6625 C   0  0  0  0  0  0  0  0  0  0  0  0
  -29.2340  -24.5264   19.9178 C   0  0  0  0  0  0  0  0  0  0  0  0
  -20.8790  -15.5004   22.0587 C   0  0  0  0  0  0  0  0  0  0  0  0
  -27.3986  -27.6820   20.0634 C   0  0  0  0  0  0  0  0  0  0  0  0
  -18.5772  -15.0598   22.2312 C   0  0  0  0  0  0  0  0  0  0  0  0
  -16.4418  -13.3040   21.8568 C   0  0  0  0  0  0  0  0  0  0  0  0
  -17.5176  -15.4180   21.3977 C   0  0  0  0  0  0  0  0  0  0  0  0
  -24.7347  -14.1646   20.9420 C   0  0  0  0  0  0  0  0  0  0  0  0
  -26.5607  -12.9758   20.6463 C   0  0  0  0  0  0  0  0  0  0  0  0
  -24.7712  -11.7883   21.9254 C   0  0  0  0  0  0  0  0  0  0  0  0
  -23.3844  -30.0832   22.8174 C   0  0  0  0  0  0  0  0  0  0  0  0
  -21.2783  -28.4993   20.9259 C   0  0  0  0  0  0  0  0  0  0  0  0
  -20.7682  -26.2875   18.3774 C   0  0  0  0  0  0  0  0  0  0  0  0
  -31.2201  -15.4343   19.6075 C   0  0  0  0  0  0  0  0  0  0  0  0
  -23.3147  -34.1513   25.9001 C   0  0  0  0  0  0  0  0  0  0  0  0
  -24.2770  -30.6100   20.5192 C   0  0  0  0  0  0  0  0  0  0  0  0
  -23.6795  -27.7307   20.8311 C   0  0  0  0  0  0  0  0  0  0  0  0
  -22.2828  -33.1454   25.3963 C   0  0  0  0  0  0  0  0  0  0  0  0
  -34.1169  -16.2034   17.4296 C   0  0  0  0  0  0  0  0  0  0  0  0
  -28.5775  -16.3652   17.4906 C   0  0  0  0  0  0  0  0  0  0  0  0
  -22.7991  -31.7202   25.5669 C   0  0  0  0  0  0  0  0  0  0  0  0
  -34.4539  -17.6379   17.8283 C   0  0  0  0  0  0  0  0  0  0  0  0
  -27.3760  -15.7717   18.2256 C   0  0  0  0  0  0  0  0  0  0  0  0
  -33.4605  -15.4382   18.5736 C   0  0  0  0  0  0  0  0  0  0  0  0
  -29.5868  -16.9909   18.4546 C   0  0  0  0  0  0  0  0  0  0  0  0
  -32.5950  -17.5509   19.5262 C   0  0  0  0  0  0  0  0  0  0  0  0
  -28.8326  -15.4856   20.2663 C   0  0  0  0  0  0  0  0  0  0  0  0
  -24.0751  -31.4939   24.7470 C   0  0  1  0  0  0  0  0  0  0  0  0
  -23.0908  -30.1208   21.3443 C   0  0  1  0  0  0  0  0  0  0  0  0
  -33.2205  -18.3609   18.3855 C   0  0  1  0  0  0  0  0  0  0  0  0
  -27.8288  -14.7978   19.3280 C   0  0  1  0  0  0  0  0  0  0  0  0
  -29.1659  -24.8725   17.4289 C   0  0  0  0  0  0  0  0  0  0  0  0
  -31.5629  -22.5659   22.1514 C   0  0  0  0  0  0  0  0  0  0  0  0
  -18.9366  -25.1633   17.0817 C   0  0  0  0  0  0  0  0  0  0  0  0
  -20.7711  -26.6215   23.2768 C   0  0  0  0  0  0  0  0  0  0  0  0
  -19.7099  -25.0160   21.6754 C   0  0  0  0  0  0  0  0  0  0  0  0
  -18.7199  -27.2815   22.0074 C   0  0  0  0  0  0  0  0  0  0  0  0
  -21.6664  -27.5003   15.8315 C   0  0  0  0  0  0  0  0  0  0  0  0
  -32.7159  -22.0423   19.4996 C   0  0  0  0  0  0  0  0  0  0  0  0
  -28.0246  -25.3877   20.0791 C   0  0  0  0  0  0  0  0  0  1  0  0
  -33.5866  -19.7655   18.8599 C   0  0  0  0  0  0  0  0  0  0  0  0
  -32.3474  -20.6473   18.9868 C   0  0  0  0  0  0  0  0  0  0  0  0
  -20.8920  -27.0525   20.7340 C   0  0  1  0  0  0  0  0  0  0  0  0
  -19.8798  -26.3544   17.1483 C   0  0  2  0  0  0  0  0  0  0  0  0
  -20.0499  -26.5018   21.9194 C   0  0  0  0  0  0  0  0  0  0  0  0
  -25.5481  -14.9671   20.2503 N   0  0  0  0  0  0  0  0  0  0  0  0
  -26.6503  -14.2160   20.0861 N   0  0  0  0  0  0  0  0  0  0  0  0
  -22.6521  -28.7771   20.9619 N   0  0  0  0  0  0  0  0  0  0  0  0
  -32.3147  -16.1664   19.1178 N   0  0  0  0  0  0  0  0  0  0  0  0
  -29.9579  -16.0390   19.5101 N   0  0  0  0  0  0  0  0  0  0  0  0
  -27.5788  -12.0922   20.5740 N   0  0  0  0  0  0  0  0  0  0  0  0
  -23.4745  -11.8904   22.4475 N   0  0  0  0  0  0  0  0  0  0  0  0
  -23.7509  -31.3047   23.3493 N   0  0  0  0  0  0  0  0  0  0  0  0
  -20.2229  -26.9769   19.4398 N   0  0  0  0  0  0  0  0  0  0  0  0
  -20.7089  -26.3671   15.9100 N   0  3  0  0  0  0  0  0  0  0  0  0
  -25.4238  -10.7322   22.1046 O   0  0  0  0  0  0  0  0  0  0  0  0
  -23.2844  -29.0246   23.4266 O   0  0  0  0  0  0  0  0  0  0  0  0
  -20.3937  -29.3524   21.0325 O   0  0  0  0  0  0  0  0  0  0  0  0
  -21.8371  -25.6810   18.3945 O   0  0  0  0  0  0  0  0  0  0  0  0
  -31.3630  -14.3076   20.0987 O   0  0  0  0  0  0  0  0  0  0  0  0
  -19.6383  -15.9299   22.4174 O   0  0  0  0  0  0  0  0  0  0  0  0
  -28.3928  -26.7507   19.9126 O   0  0  0  0  0  0  0  0  0  1  0  0
  -15.4173  -12.4603   21.6759 F   0  0  0  0  0  0  0  0  0  0  0  0
  -17.5203  -16.6037   20.7733 F   0  0  0  0  0  0  0  0  0  0  0  0
  1  2  1  0  0  0  0
  1  5  2  0  0  0  0
  2  6  2  0  0  0  0
  3  8  2  0  0  0  0
  3 17  1  0  0  0  0
  4  9  1  0  0  0  0
  4 17  2  0  0  0  0
  5 19  1  0  0  0  0
  6 21  1  0  0  0  0
  7 10  2  0  0  0  0
  7 20  1  0  0  0  0
  8 27  1  0  0  0  0
  9 27  2  0  0  0  0
 10 28  1  0  0  0  0
 11 12  2  0  0  0  0
 11 29  1  0  0  0  0
 12 30  1  0  0  0  0
 13 22  1  0  0  0  0
 13 28  2  0  0  0  0
 14 23  1  0  0  0  0
 14 25  2  0  0  0  0
 15 24  2  0  0  0  0
 15 26  1  0  0  0  0
 16 30  2  0  0  0  0
 16 31  1  0  0  0  0
 17 32  1  0  0  0  0
 18 32  1  0  0  0  0
 18 33  2  0  0  0  0
 18 34  1  0  0  0  0
 19 21  2  0  0  0  0
 19 39  1  0  0  0  0
 20 22  2  0  0  0  0
 20 40  1  0  0  0  0
 21 52  1  0  0  0  0
 22 41  1  0  0  0  0
 23 26  2  0  0  0  0
 23 56  1  0  0  0  0
 24 25  1  0  0  0  0
 24 57  1  0  0  0  0
 25 63  1  0  0  0  0
 26 64  1  0  0  0  0
 27 85  1  0  0  0  0
 28 86  1  0  0  0  0
 29 31  2  0  0  0  0
 29 85  1  0  0  0  0
 30 87  1  0  0  0  0
 31 88  1  0  0  0  0
 32 70  2  0  0  0  0
 33 71  1  0  0  0  0
 33 75  1  0  0  0  0
 34 76  1  0  0  0  0
 34 80  2  0  0  0  0
 35 53  1  0  0  0  0
 35 77  1  0  0  0  0
 35 81  2  0  0  0  0
 36 67  1  0  0  0  0
 36 72  1  0  0  0  0
 36 82  2  0  0  0  0
 37 68  1  0  0  0  0
 37 78  1  0  0  0  0
 37 83  2  0  0  0  0
 38 73  1  0  0  0  0
 38 74  1  0  0  0  0
 38 84  2  0  0  0  0
 39 42  1  0  0  0  0
 40 53  1  0  0  0  0
 41 72  1  0  0  0  0
 42 45  1  0  0  0  0
 43 46  1  0  0  0  0
 43 48  1  0  0  0  0
 44 47  1  0  0  0  0
 44 49  1  0  0  0  0
 45 52  1  0  0  0  0
 46 54  1  0  0  0  0
 47 55  1  0  0  0  0
 48 73  1  0  0  0  0
 49 74  1  0  0  0  0
 50 54  1  0  0  0  0
 50 73  1  0  0  0  0
 51 55  1  0  0  0  0
 51 74  1  0  0  0  0
 52 77  1  0  0  0  0
 53 72  1  0  0  0  0
 54 65  1  0  0  0  0
 55 71  1  0  0  0  0
 58 68  1  0  0  0  0
 59 69  1  0  0  0  0
 60 69  1  0  0  0  0
 61 69  1  0  0  0  0
 62 79  1  0  0  0  0
 63 66  1  0  0  0  0
 64 86  1  0  0  0  0
 65 66  1  0  0  0  0
 67 69  1  0  0  0  0
 67 78  1  0  0  0  0
 68 79  1  0  0  0  0
 70 71  1  0  0  0  0
M  CHG  1  79   1
M  ISO  4  38 100  64 101  73 100  86 101
M  END
> <Batch ID>
0036

> <Smiles>
CNC(C)C(=O)NC(C(=O)N1Cc2cc([101O:1][101CH2:1]c3cc(C)c(CCCC4CCC[100N:0]([100C:0](=O)N5CCCC(n6nc(-c7ccc(Oc8ccc(F)cc8F)cc7)c(C(N)=O)c6N)C5)C4)cc3C)ccc2CC1C(=O)NC1CCCc2ccccc21)C(C)(C)C

> <Shape>
0.250

> <Color>
0.099

> <Negative vol penalty>
0.000

$$$$

  -OEChem-04052316563D

 82 90  0     1  0  0  0  0  0999 V2000
  -19.4113  -28.7253   15.5687 C   0  0  0  0  0  0  0  0  0  0  0  0
  -19.8604  -27.4150   15.6979 C   0  0  0  0  0  0  0  0  0  0  0  0
  -23.0475   -9.9667   19.8737 C   0  0  0  0  0  0  0  0  0  0  0  0
  -23.8529   -9.8160   22.1465 C   0  0  0  0  0  0  0  0  0  0  0  0
  -20.3088  -29.7390   15.2360 C   0  0  0  0  0  0  0  0  0  0  0  0
  -21.2073  -27.1174   15.4934 C   0  0  0  0  0  0  0  0  0  0  0  0
  -24.5270  -22.8821   18.4170 C   0  0  0  0  0  0  0  0  0  0  0  0
  -29.2889  -18.6472   17.6511 C   0  0  0  0  0  0  0  0  0  0  0  0
  -30.5441  -18.9593   18.1729 C   0  0  0  0  0  0  0  0  0  0  0  0
  -22.3084   -8.7983   20.0581 C   0  0  0  0  0  0  0  0  0  0  0  0
  -23.1137   -8.6476   22.3310 C   0  0  0  0  0  0  0  0  0  0  0  0
  -24.8994  -21.5825   18.0763 C   0  0  0  0  0  0  0  0  0  0  0  0
  -23.3923   -5.3724   21.5398 C   0  0  0  0  0  0  0  0  0  0  0  0
  -24.0215   -4.3005   22.1729 C   0  0  0  0  0  0  0  0  0  0  0  0
  -27.0116  -22.4095   17.2554 C   0  0  0  0  0  0  0  0  0  0  0  0
  -28.5352  -17.9971   19.8526 C   0  0  0  0  0  0  0  0  0  0  0  0
  -22.3544   -4.3541   23.9208 C   0  0  0  0  0  0  0  0  0  0  0  0
  -23.8198  -10.4756   20.9179 C   0  0  0  0  0  0  0  0  0  0  0  0
  -24.1601  -13.0033   20.9658 C   0  0  0  0  0  0  0  0  0  0  0  0
  -21.6691  -29.4553   15.0368 C   0  0  0  0  0  0  0  0  0  0  0  0
  -25.3911  -23.9583   18.1691 C   0  0  0  0  0  0  0  0  0  0  0  0
  -22.1236  -28.1281   15.1565 C   0  0  0  0  0  0  0  0  0  0  0  0
  -26.6488  -23.7215   17.5963 C   0  0  0  0  0  0  0  0  0  0  0  0
  -28.2844  -18.1661   18.4909 C   0  0  0  0  0  0  0  0  0  0  0  0
  -30.7950  -18.7904   19.5346 C   0  0  0  0  0  0  0  0  0  0  0  0
  -29.7906  -18.3092   20.3745 C   0  0  0  0  0  0  0  0  0  0  0  0
  -22.3414   -8.1388   21.2867 C   0  0  0  0  0  0  0  0  0  0  0  0
  -26.1407  -21.3464   17.4927 C   0  0  0  0  0  0  0  0  0  0  0  0
  -22.2441   -5.9352   22.0973 C   0  0  0  0  0  0  0  0  0  0  0  0
  -23.5026   -3.7914   23.3633 C   0  0  0  0  0  0  0  0  0  0  0  0
  -21.7252   -5.4260   23.2877 C   0  0  0  0  0  0  0  0  0  0  0  0
  -24.5841  -11.6822   20.7278 C   0  0  0  0  0  0  0  0  0  0  0  0
  -25.2451  -13.7772   20.6335 C   0  0  0  0  0  0  0  0  0  0  0  0
  -22.8984  -13.4877   21.4445 C   0  0  0  0  0  0  0  0  0  0  0  0
  -25.2482  -26.5846   16.3841 C   0  0  0  0  0  0  0  0  0  0  0  0
  -28.0567  -27.2681   17.8565 C   0  0  0  0  0  0  0  0  0  0  0  0
  -30.8291  -26.1219   19.4833 C   0  0  0  0  0  0  0  0  0  0  0  0
  -30.7319  -14.7864   20.7829 C   0  0  0  0  0  0  0  0  0  0  0  0
  -22.5929  -30.5768   14.6323 C   0  0  0  0  0  0  0  0  0  0  0  0
  -24.9854  -25.3510   18.5670 C   0  0  0  0  0  0  0  0  0  0  0  0
  -27.6213  -24.8398   17.3280 C   0  0  0  0  0  0  0  0  0  0  0  0
  -24.0719  -30.2381   14.7998 C   0  0  0  0  0  0  0  0  0  0  0  0
  -29.5462  -12.5713   18.2602 C   0  0  0  0  0  0  0  0  0  0  0  0
  -24.3713  -28.8563   14.2272 C   0  0  0  0  0  0  0  0  0  0  0  0
  -28.1175  -12.2469   18.7003 C   0  0  0  0  0  0  0  0  0  0  0  0
  -30.4871  -12.7096   19.4550 C   0  0  0  0  0  0  0  0  0  0  0  0
  -28.6136  -13.3412   20.9263 C   0  0  0  0  0  0  0  0  0  0  0  0
  -23.5816  -27.7696   14.9668 C   0  0  1  0  0  0  0  0  0  0  0  0
  -25.7348  -26.4344   17.7978 C   0  0  1  0  0  0  0  0  0  0  0  0
  -27.6161  -13.2474   19.7590 C   0  0  2  0  0  0  0  0  0  0  0  0
  -32.1471  -19.1303   20.0702 C   0  0  0  0  0  0  0  0  0  0  0  0
  -32.9661  -26.9152   20.5327 C   0  0  0  0  0  0  0  0  0  0  0  0
  -29.2724  -27.6525   15.0844 C   0  0  0  0  0  0  0  0  0  0  0  0
  -31.5402  -27.4962   16.1337 C   0  0  0  0  0  0  0  0  0  0  0  0
  -29.9921  -29.3416   16.7825 C   0  0  0  0  0  0  0  0  0  0  0  0
  -30.0467  -25.0801   22.1406 C   0  0  0  0  0  0  0  0  0  0  0  0
  -26.9262  -17.8279   17.9258 C   0  0  0  0  0  0  0  0  0  0  0  0
  -30.0363  -18.1199   21.8355 C   0  0  0  0  0  0  0  0  0  0  0  0
  -30.8231  -16.8465   22.1638 C   0  0  0  0  0  0  0  0  0  0  0  0
  -25.9744  -19.0188   17.9519 C   0  0  0  0  0  0  0  0  0  1  0  0
  -29.5114  -26.9868   17.5675 C   0  0  1  0  0  0  0  0  0  0  0  0
  -31.5028  -26.5735   20.7665 C   0  0  2  0  0  0  0  0  0  0  0  0
  -30.0601  -27.8482   16.3952 C   0  0  0  0  0  0  0  0  0  0  0  0
  -25.8403  -11.6167   20.2788 N   0  0  0  0  0  0  0  0  0  0  0  0
  -26.2151  -12.9065   20.2320 N   0  0  0  0  0  0  0  0  0  0  0  0
  -27.1760  -26.1846   17.7290 N   0  0  0  0  0  0  0  0  0  0  0  0
  -29.9546  -13.6739   20.4207 N   0  0  0  0  0  0  0  0  0  0  0  0
  -25.4545  -15.1108   20.6485 N   0  0  0  0  0  0  0  0  0  0  0  0
  -21.8931  -12.5564   21.7381 N   0  0  0  0  0  0  0  0  0  0  0  0
  -24.2005  -27.4741   16.2412 N   0  0  0  0  0  0  0  0  0  0  0  0
  -30.2213  -27.1722   18.8285 N   0  0  0  0  0  0  0  0  0  0  0  0
  -30.1499  -15.6542   21.6988 N   0  0  0  0  0  0  0  0  0  0  0  0
  -31.4299  -25.4984   21.7959 N   0  3  0  0  0  0  0  0  0  0  0  0
  -22.6638  -14.7112   21.5913 O   0  0  0  0  0  0  0  0  0  0  0  0
  -25.7847  -25.9421   15.4891 O   0  0  0  0  0  0  0  0  0  0  0  0
  -27.7153  -28.4056   18.1901 O   0  0  0  0  0  0  0  0  0  0  0  0
  -30.8440  -24.9548   19.0982 O   0  0  0  0  0  0  0  0  0  0  0  0
  -31.8586  -14.9939   20.3200 O   0  0  0  0  0  0  0  0  0  0  0  0
  -21.6200   -6.9987   21.4671 O   0  0  0  0  0  0  0  0  0  0  0  0
  -26.5064  -20.0789   17.1585 O   0  0  0  0  0  0  0  0  0  1  0  0
  -24.1061   -2.7611   23.9703 F   0  0  0  0  0  0  0  0  0  0  0  0
  -20.6218   -5.9618   23.8274 F   0  0  0  0  0  0  0  0  0  0  0  0
  1  2  1  0  0  0  0
  1  5  2  0  0  0  0
  2  6  2  0  0  0  0
  3 10  2  0  0  0  0
  3 18  1  0  0  0  0
  4 11  1  0  0  0  0
  4 18  2  0  0  0  0
  5 20  1  0  0  0  0
  6 22  1  0  0  0  0
  7 12  2  0  0  0  0
  7 21  1  0  0  0  0
  8  9  2  0  0  0  0
  8 24  1  0  0  0  0
  9 25  1  0  0  0  0
 10 27  1  0  0  0  0
 11 27  2  0  0  0  0
 12 28  1  0  0  0  0
 13 14  2  0  0  0  0
 13 29  1  0  0  0  0
 14 30  1  0  0  0  0
 15 23  1  0  0  0  0
 15 28  2  0  0  0  0
 16 24  2  0  0  0  0
 16 26  1  0  0  0  0
 17 30  2  0  0  0  0
 17 31  1  0  0  0  0
 18 32  1  0  0  0  0
 19 32  1  0  0  0  0
 19 33  2  0  0  0  0
 19 34  1  0  0  0  0
 20 22  2  0  0  0  0
 20 39  1  0  0  0  0
 21 23  2  0  0  0  0
 21 40  1  0  0  0  0
 22 48  1  0  0  0  0
 23 41  1  0  0  0  0
 24 57  1  0  0  0  0
 25 26  2  0  0  0  0
 25 51  1  0  0  0  0
 26 58  1  0  0  0  0
 27 79  1  0  0  0  0
 28 80  1  0  0  0  0
 29 31  2  0  0  0  0
 29 79  1  0  0  0  0
 30 81  1  0  0  0  0
 31 82  1  0  0  0  0
 32 64  2  0  0  0  0
 33 65  1  0  0  0  0
 33 68  1  0  0  0  0
 34 69  1  0  0  0  0
 34 74  2  0  0  0  0
 35 49  1  0  0  0  0
 35 70  1  0  0  0  0
 35 75  2  0  0  0  0
 36 61  1  0  0  0  0
 36 66  1  0  0  0  0
 36 76  2  0  0  0  0
 37 62  1  0  0  0  0
 37 71  1  0  0  0  0
 37 77  2  0  0  0  0
 38 67  1  0  0  0  0
 38 72  1  0  0  0  0
 38 78  2  0  0  0  0
 39 42  1  0  0  0  0
 40 49  1  0  0  0  0
 41 66  1  0  0  0  0
 42 44  1  0  0  0  0
 43 45  1  0  0  0  0
 43 46  1  0  0  0  0
 44 48  1  0  0  0  0
 45 50  1  0  0  0  0
 46 67  1  0  0  0  0
 47 50  1  0  0  0  0
 47 67  1  0  0  0  0
 48 70  1  0  0  0  0
 49 66  1  0  0  0  0
 50 65  1  0  0  0  0
 52 62  1  0  0  0  0
 53 63  1  0  0  0  0
 54 63  1  0  0  0  0
 55 63  1  0  0  0  0
 56 73  1  0  0  0  0
 57 60  1  0  0  0  0
 58 59  1  0  0  0  0
 59 72  1  0  0  0  0
 60 80  1  0  0  0  0
 61 63  1  0  0  0  0
 61 71  1  0  0  0  0
 62 73  1  0  0  0  0
 64 65  1  0  0  0  0
M  CHG  1  73   1
M  ISO  4  38 100  60 101  72 100  80 101
M  END
> <Batch ID>
0036

> <Smiles>
CNC(C)C(=O)NC(C(=O)N1Cc2cc([101O:1][101CH2:1]Cc3ccc(C)c(CC[100NH:0][100C:0](=O)N4CCCC(n5nc(-c6ccc(Oc7ccc(F)cc7F)cc6)c(C(N)=O)c5N)C4)c3)ccc2CC1C(=O)NC1CCCc2ccccc21)C(C)(C)C

> <Shape>
0.246

> <Color>
0.217

> <Negative vol penalty>
0.000

$$$$

  -OEChem-04052316563D

 88 97  0     1  0  0  0  0  0999 V2000
  -31.8582  -24.9302   15.5813 C   0  0  0  0  0  0  0  0  0  0  0  0
  -30.4866  -24.8111   15.7812 C   0  0  0  0  0  0  0  0  0  0  0  0
  -24.5432   -8.9194   21.3295 C   0  0  0  0  0  0  0  0  0  0  0  0
  -23.3319  -10.6388   22.5184 C   0  0  0  0  0  0  0  0  0  0  0  0
  -32.7042  -25.1424   16.6690 C   0  0  0  0  0  0  0  0  0  0  0  0
  -29.9604  -24.9029   17.0693 C   0  0  0  0  0  0  0  0  0  0  0  0
  -25.8318  -27.8281   17.2770 C   0  0  0  0  0  0  0  0  0  0  0  0
  -24.1754   -7.9885   22.3009 C   0  0  0  0  0  0  0  0  0  0  0  0
  -22.9640   -9.7078   23.4899 C   0  0  0  0  0  0  0  0  0  0  0  0
  -24.6331  -27.2700   16.8349 C   0  0  0  0  0  0  0  0  0  0  0  0
  -21.4461   -6.1530   23.0851 C   0  0  0  0  0  0  0  0  0  0  0  0
  -20.9913   -4.9080   22.6505 C   0  0  0  0  0  0  0  0  0  0  0  0
  -25.3976  -19.2060   20.6925 C   0  0  0  0  0  0  0  0  0  0  0  0
  -23.9947  -26.8444   19.1219 C   0  0  0  0  0  0  0  0  0  0  0  0
  -27.5866  -20.0848   20.1865 C   0  0  0  0  0  0  0  0  0  0  0  0
  -22.7974   -3.8326   23.8416 C   0  0  0  0  0  0  0  0  0  0  0  0
  -24.1216  -10.2446   21.4383 C   0  0  0  0  0  0  0  0  0  0  0  0
  -23.8015  -11.5285   19.2573 C   0  0  0  0  0  0  0  0  0  0  0  0
  -32.1871  -25.2466   17.9699 C   0  0  0  0  0  0  0  0  0  0  0  0
  -26.1262  -27.8887   18.6467 C   0  0  0  0  0  0  0  0  0  0  0  0
  -30.8004  -25.1154   18.1756 C   0  0  0  0  0  0  0  0  0  0  0  0
  -24.8167  -20.0627   19.7451 C   0  0  0  0  0  0  0  0  0  0  0  0
  -25.1967  -27.4061   19.5790 C   0  0  0  0  0  0  0  0  0  0  0  0
  -25.6352  -20.9564   19.0290 C   0  0  0  0  0  0  0  0  0  0  0  0
  -26.7750  -19.2154   20.9093 C   0  0  0  0  0  0  0  0  0  0  0  0
  -27.0209  -20.9489   19.2496 C   0  0  0  0  0  0  0  0  0  0  0  0
  -23.3858   -8.3826   23.3810 C   0  0  0  0  0  0  0  0  0  0  0  0
  -23.7156  -26.7754   17.7572 C   0  0  0  0  0  0  0  0  0  0  0  0
  -22.5766   -6.2378   23.8978 C   0  0  0  0  0  0  0  0  0  0  0  0
  -21.6669   -3.7478   23.0288 C   0  0  0  0  0  0  0  0  0  0  0  0
  -23.2522   -5.0776   24.2761 C   0  0  0  0  0  0  0  0  0  0  0  0
  -24.5017  -11.2068   20.4354 C   0  0  0  0  0  0  0  0  0  0  0  0
  -24.5719  -12.4911   18.6520 C   0  0  0  0  0  0  0  0  0  0  0  0
  -22.5652  -11.0043   18.7550 C   0  0  0  0  0  0  0  0  0  0  0  0
  -28.3925  -26.6660   20.5102 C   0  0  0  0  0  0  0  0  0  0  0  0
  -26.9842  -28.5143   22.7735 C   0  0  0  0  0  0  0  0  0  0  0  0
  -24.1859  -30.1399   23.8571 C   0  0  0  0  0  0  0  0  0  0  0  0
  -28.5507  -16.4436   20.7492 C   0  0  0  0  0  0  0  0  0  0  0  0
  -33.1459  -25.4291   19.1198 C   0  0  0  0  0  0  0  0  0  0  0  0
  -27.4118  -28.5181   19.1088 C   0  0  0  0  0  0  0  0  0  0  0  0
  -23.3188  -20.0442   19.5645 C   0  0  0  0  0  0  0  0  0  0  0  0
  -25.0665  -21.8825   17.9808 C   0  0  0  0  0  0  0  0  0  0  0  0
  -25.4561  -27.4660   21.0614 C   0  0  0  0  0  0  0  0  0  0  0  0
  -32.4702  -25.8886   20.4091 C   0  0  0  0  0  0  0  0  0  0  0  0
  -22.8557  -20.7223   18.2755 C   0  0  0  0  0  0  0  0  0  0  0  0
  -29.1095  -13.9574   18.2626 C   0  0  0  0  0  0  0  0  0  0  0  0
  -31.2173  -25.0616   20.6794 C   0  0  0  0  0  0  0  0  0  0  0  0
  -27.9287  -12.9996   18.4312 C   0  0  0  0  0  0  0  0  0  0  0  0
  -29.5871  -14.5062   19.6052 C   0  0  0  0  0  0  0  0  0  0  0  0
  -27.3548  -14.1758   20.5959 C   0  0  0  0  0  0  0  0  0  0  0  0
  -30.1891  -25.2341   19.5548 C   0  0  1  0  0  0  0  0  0  0  0  0
  -27.8341  -28.0609   20.5016 C   0  0  1  0  0  0  0  0  0  0  0  0
  -26.8020  -13.6396   19.2643 C   0  0  2  0  0  0  0  0  0  0  0  0
  -23.5554  -22.0666   18.1150 C   0  0  2  0  0  0  0  0  0  0  0  0
  -27.9385  -21.8650   18.5038 C   0  0  0  0  0  0  0  0  0  0  0  0
  -23.3297  -31.5324   25.7611 C   0  0  0  0  0  0  0  0  0  0  0  0
  -26.7634  -26.0100   24.5026 C   0  0  0  0  0  0  0  0  0  0  0  0
  -25.0981  -27.2234   25.9249 C   0  0  0  0  0  0  0  0  0  0  0  0
  -27.4350  -28.0766   25.7406 C   0  0  0  0  0  0  0  0  0  0  0  0
  -23.6387  -32.4421   22.0797 C   0  0  0  0  0  0  0  0  0  0  0  0
  -23.0022  -21.7810   15.7237 C   0  0  0  0  0  0  0  0  0  0  0  0
  -27.3778  -18.2939   21.9152 C   0  0  0  0  0  0  0  0  0  0  0  0
  -21.5125  -24.4829   16.0494 C   0  0  0  0  0  0  0  0  0  0  0  0
  -21.7480  -23.4223   17.1143 C   0  0  0  0  0  0  0  0  0  0  0  0
  -22.5544  -25.5947   16.0504 C   0  0  0  0  0  0  0  0  0  1  0  0
  -25.8682  -28.3186   23.7711 C   0  0  1  0  0  0  0  0  0  0  0  0
  -23.9803  -31.5477   24.3866 C   0  0  2  0  0  0  0  0  0  0  0  0
  -26.2868  -27.4041   24.9568 C   0  0  0  0  0  0  0  0  0  0  0  0
  -25.6303  -11.9080   20.5723 N   0  0  0  0  0  0  0  0  0  0  0  0
  -25.6451  -12.6798   19.4722 N   0  0  0  0  0  0  0  0  0  0  0  0
  -26.7301  -28.0848   21.4633 N   0  0  0  0  0  0  0  0  0  0  0  0
  -28.4711  -15.1008   20.3448 N   0  0  0  0  0  0  0  0  0  0  0  0
  -24.4293  -13.1859   17.5034 N   0  0  0  0  0  0  0  0  0  0  0  0
  -21.9039  -10.0203   19.5026 N   0  0  0  0  0  0  0  0  0  0  0  0
  -29.4947  -26.4962   19.6942 N   0  0  0  0  0  0  0  0  0  0  0  0
  -25.4381  -29.6545   24.1698 N   0  0  0  0  0  0  0  0  0  0  0  0
  -27.4473  -16.9302   21.4395 N   0  0  0  0  0  0  0  0  0  0  0  0
  -23.1082  -32.3264   23.4625 N   0  3  0  0  0  0  0  0  0  0  0  0
  -23.0429  -22.7374   16.8913 N   0  3  1  0  0  0  0  0  0  0  0  0
  -22.0701  -11.3849   17.6671 O   0  0  0  0  0  0  0  0  0  0  0  0
  -27.8635  -25.8077   21.2068 O   0  0  0  0  0  0  0  0  0  0  0  0
  -28.0398  -29.0358   23.1415 O   0  0  0  0  0  0  0  0  0  0  0  0
  -23.3209  -29.5303   23.2322 O   0  0  0  0  0  0  0  0  0  0  0  0
  -29.5301  -17.1575   20.5081 O   0  0  0  0  0  0  0  0  0  0  0  0
  -23.0264   -7.4745   24.3290 O   0  0  0  0  0  0  0  0  0  0  0  0
  -22.5452  -26.2296   17.3283 O   0  0  0  0  0  0  0  0  0  1  0  0
  -21.2291   -2.5522   22.6127 F   0  0  0  0  0  0  0  0  0  0  0  0
  -24.3382   -5.1526   25.0577 F   0  0  0  0  0  0  0  0  0  0  0  0
  1  2  1  0  0  0  0
  1  5  2  0  0  0  0
  2  6  2  0  0  0  0
  3  8  2  0  0  0  0
  3 17  1  0  0  0  0
  4  9  1  0  0  0  0
  4 17  2  0  0  0  0
  5 19  1  0  0  0  0
  6 21  1  0  0  0  0
  7 10  2  0  0  0  0
  7 20  1  0  0  0  0
  8 27  1  0  0  0  0
  9 27  2  0  0  0  0
 10 28  1  0  0  0  0
 11 12  2  0  0  0  0
 11 29  1  0  0  0  0
 12 30  1  0  0  0  0
 13 22  1  0  0  0  0
 13 25  2  0  0  0  0
 14 23  1  0  0  0  0
 14 28  2  0  0  0  0
 15 25  1  0  0  0  0
 15 26  2  0  0  0  0
 16 30  2  0  0  0  0
 16 31  1  0  0  0  0
 17 32  1  0  0  0  0
 18 32  1  0  0  0  0
 18 33  2  0  0  0  0
 18 34  1  0  0  0  0
 19 21  2  0  0  0  0
 19 39  1  0  0  0  0
 20 23  2  0  0  0  0
 20 40  1  0  0  0  0
 21 51  1  0  0  0  0
 22 24  2  0  0  0  0
 22 41  1  0  0  0  0
 23 43  1  0  0  0  0
 24 26  1  0  0  0  0
 24 42  1  0  0  0  0
 25 62  1  0  0  0  0
 26 55  1  0  0  0  0
 27 85  1  0  0  0  0
 28 86  1  0  0  0  0
 29 31  2  0  0  0  0
 29 85  1  0  0  0  0
 30 87  1  0  0  0  0
 31 88  1  0  0  0  0
 32 69  2  0  0  0  0
 33 70  1  0  0  0  0
 33 73  1  0  0  0  0
 34 74  1  0  0  0  0
 34 80  2  0  0  0  0
 35 52  1  0  0  0  0
 35 75  1  0  0  0  0
 35 81  2  0  0  0  0
 36 66  1  0  0  0  0
 36 71  1  0  0  0  0
 36 82  2  0  0  0  0
 37 67  1  0  0  0  0
 37 76  1  0  0  0  0
 37 83  2  0  0  0  0
 38 72  1  0  0  0  0
 38 77  1  0  0  0  0
 38 84  2  0  0  0  0
 39 44  1  0  0  0  0
 40 52  1  0  0  0  0
 41 45  1  0  0  0  0
 42 54  1  0  0  0  0
 43 71  1  0  0  0  0
 44 47  1  0  0  0  0
 45 54  1  0  0  0  0
 46 48  1  0  0  0  0
 46 49  1  0  0  0  0
 47 51  1  0  0  0  0
 48 53  1  0  0  0  0
 49 72  1  0  0  0  0
 50 53  1  0  0  0  0
 50 72  1  0  0  0  0
 51 75  1  0  0  0  0
 52 71  1  0  0  0  0
 53 70  1  0  0  0  0
 54 79  1  0  0  0  0
 56 67  1  0  0  0  0
 57 68  1  0  0  0  0
 58 68  1  0  0  0  0
 59 68  1  0  0  0  0
 60 78  1  0  0  0  0
 61 79  1  0  0  0  0
 62 77  1  0  0  0  0
 63 64  1  0  0  0  0
 63 65  1  0  0  0  0
 64 79  1  0  0  0  0
 65 86  1  0  0  0  0
 66 68  1  0  0  0  0
 66 76  1  0  0  0  0
 67 78  1  0  0  0  0
 69 70  1  0  0  0  0
M  CHG  2  78   1  79   1
M  ISO  4  38 100  65 101  77 100  86 101
M  END
> <Batch ID>
0036

> <Smiles>
CNC(C)C(=O)NC(C(=O)N1Cc2cc([101O:1][101CH2:1]CCN(C)C3CCc4cc(C[100NH:0][100C:0](=O)N5CCCC(n6nc(-c7ccc(Oc8ccc(F)cc8F)cc7)c(C(N)=O)c6N)C5)cc(C)c4C3)ccc2CC1C(=O)NC1CCCc2ccccc21)C(C)(C)C

> <Shape>
0.225

> <Color>
0.071

> <Negative vol penalty>
0.000

$$$$

  -OEChem-04052316563D

 88 96  0     1  0  0  0  0  0999 V2000
  -21.1928  -38.2767   24.7757 C   0  0  0  0  0  0  0  0  0  0  0  0
  -21.3039  -37.1087   24.0282 C   0  0  0  0  0  0  0  0  0  0  0  0
  -24.7384   -8.6980   21.4260 C   0  0  0  0  0  0  0  0  0  0  0  0
  -23.1002  -10.4601   21.2066 C   0  0  0  0  0  0  0  0  0  0  0  0
  -22.3305  -39.0294   25.0639 C   0  0  0  0  0  0  0  0  0  0  0  0
  -22.5528  -36.6932   23.5675 C   0  0  0  0  0  0  0  0  0  0  0  0
  -23.3296  -31.7375   24.2619 C   0  0  0  0  0  0  0  0  0  0  0  0
  -23.9359   -8.0705   22.3788 C   0  0  0  0  0  0  0  0  0  0  0  0
  -22.2977   -9.8327   22.1595 C   0  0  0  0  0  0  0  0  0  0  0  0
  -22.7161  -30.8649   23.3641 C   0  0  0  0  0  0  0  0  0  0  0  0
  -21.1734   -6.1211   22.4151 C   0  0  0  0  0  0  0  0  0  0  0  0
  -20.9915   -4.7428   22.3032 C   0  0  0  0  0  0  0  0  0  0  0  0
  -24.7971  -30.6464   22.1638 C   0  0  0  0  0  0  0  0  0  0  0  0
  -21.9683   -4.4361   24.4915 C   0  0  0  0  0  0  0  0  0  0  0  0
  -24.3205   -9.8928   20.8399 C   0  0  0  0  0  0  0  0  0  0  0  0
  -25.1254  -10.3463   18.4620 C   0  0  0  0  0  0  0  0  0  0  0  0
  -23.5952  -38.6178   24.6147 C   0  0  0  0  0  0  0  0  0  0  0  0
  -24.6809  -32.0802   24.1107 C   0  0  0  0  0  0  0  0  0  0  0  0
  -23.7082  -37.4418   23.8488 C   0  0  0  0  0  0  0  0  0  0  0  0
  -25.4260  -31.5216   23.0625 C   0  0  0  0  0  0  0  0  0  0  0  0
  -22.7156   -8.6379   22.7456 C   0  0  0  0  0  0  0  0  0  0  0  0
  -23.4491  -30.3215   22.3132 C   0  0  0  0  0  0  0  0  0  0  0  0
  -21.7529   -6.6570   23.5652 C   0  0  0  0  0  0  0  0  0  0  0  0
  -21.3889   -3.9002   23.3414 C   0  0  0  0  0  0  0  0  0  0  0  0
  -22.1503   -5.8145   24.6034 C   0  0  0  0  0  0  0  0  0  0  0  0
  -25.1493  -10.5417   19.8559 C   0  0  0  0  0  0  0  0  0  0  0  0
  -26.0962  -11.1900   17.9803 C   0  0  0  0  0  0  0  0  0  0  0  0
  -24.2994   -9.4796   17.6732 C   0  0  0  0  0  0  0  0  0  0  0  0
  -26.2634  -34.7859   23.5830 C   0  0  0  0  0  0  0  0  0  0  0  0
  -28.4980  -16.2289   20.2056 C   0  0  0  0  0  0  0  0  0  0  0  0
  -28.8624  -32.8964   24.0269 C   0  0  0  0  0  0  0  0  0  0  0  0
  -30.2112  -29.7622   23.9596 C   0  0  0  0  0  0  0  0  0  0  0  0
  -24.7899  -39.4894   24.9110 C   0  0  0  0  0  0  0  0  0  0  0  0
  -25.3348  -33.0020   25.1033 C   0  0  0  0  0  0  0  0  0  0  0  0
  -26.8849  -31.8416   22.8682 C   0  0  0  0  0  0  0  0  0  0  0  0
  -26.1265  -38.7817   24.7041 C   0  0  0  0  0  0  0  0  0  0  0  0
  -30.2256  -13.2506   19.2131 C   0  0  0  0  0  0  0  0  0  0  0  0
  -26.1326  -38.0298   23.3769 C   0  0  0  0  0  0  0  0  0  0  0  0
  -22.9750  -25.0960   21.1664 C   0  0  0  0  0  0  0  0  0  0  0  0
  -23.1088  -26.6135   21.3180 C   0  0  0  0  0  0  0  0  0  0  0  0
  -29.1223  -12.1943   19.1664 C   0  0  0  0  0  0  0  0  0  0  0  0
  -21.8359  -26.6367   18.6056 C   0  0  0  0  0  0  0  0  0  0  0  0
  -29.9866  -14.2586   20.3329 C   0  0  0  0  0  0  0  0  0  0  0  0
  -27.5452  -13.8703   20.2289 C   0  0  0  0  0  0  0  0  0  0  0  0
  -25.0488  -36.9452   23.3523 C   0  0  1  0  0  0  0  0  0  0  0  0
  -26.5836  -33.6838   24.5528 C   0  0  1  0  0  0  0  0  0  0  0  0
  -22.8606  -24.5770   19.7259 C   0  0  2  0  0  0  0  0  0  0  0  0
  -21.7762  -27.3454   21.1368 C   0  0  2  0  0  0  0  0  0  0  0  0
  -21.6781  -25.1346   18.8935 C   0  0  1  0  0  0  0  0  0  0  0  0
  -27.7320  -12.8500   19.0920 C   0  0  2  0  0  0  0  0  0  0  0  0
  -21.4076  -27.6333   19.6776 C   0  0  2  0  0  0  0  0  0  0  0  0
  -19.2113  -25.2506   18.5061 C   0  0  0  0  0  0  0  0  0  0  0  0
  -32.3694  -28.5380   24.3348 C   0  0  0  0  0  0  0  0  0  0  0  0
  -29.8983  -33.9039   21.3396 C   0  0  0  0  0  0  0  0  0  0  0  0
  -31.5147  -31.9921   21.3247 C   0  0  0  0  0  0  0  0  0  0  0  0
  -31.6398  -33.7148   23.1245 C   0  0  0  0  0  0  0  0  0  0  0  0
  -29.0484  -28.1466   26.1496 C   0  0  0  0  0  0  0  0  0  0  0  0
  -27.0884  -16.7553   20.1058 C   0  0  0  0  0  0  0  0  0  0  0  0
  -22.8454  -23.0409   19.7475 C   0  0  0  0  0  0  0  0  0  0  0  0
  -20.2892  -24.7638   19.4166 C   0  0  0  0  0  0  0  0  0  0  0  0
  -21.7859  -28.6683   21.9175 C   0  0  0  0  0  0  0  0  0  1  0  0
  -27.1095  -18.2800   20.0796 C   0  0  0  0  0  0  0  0  0  0  0  0
  -24.2584  -22.4841   19.8575 C   0  0  0  0  0  0  0  0  0  0  0  0
  -25.6922  -18.8525   20.0265 C   0  0  0  0  0  0  0  0  0  0  0  0
  -24.2368  -20.9547   19.9079 C   0  0  0  0  0  0  0  0  0  0  0  0
  -25.6542  -20.3830   19.9860 C   0  0  0  0  0  0  0  0  0  0  0  0
  -29.7356  -32.0517   23.1309 C   0  0  1  0  0  0  0  0  0  0  0  0
  -31.0686  -29.0128   24.9634 C   0  0  2  0  0  0  0  0  0  0  0  0
  -30.6691  -32.9109   22.2322 C   0  0  0  0  0  0  0  0  0  0  0  0
  -26.0630  -11.4391   20.2351 N   0  0  0  0  0  0  0  0  0  0  0  0
  -26.6223  -11.8149   19.0724 N   0  0  0  0  0  0  0  0  0  0  0  0
  -27.4775  -32.7529   23.8612 N   0  0  0  0  0  0  0  0  0  0  0  0
  -28.6472  -14.8424   20.2402 N   0  0  0  0  0  0  0  0  0  0  0  0
  -26.5426  -11.4508   16.7332 N   0  0  0  0  0  0  0  0  0  0  0  0
  -23.3528   -8.6801   18.3283 N   0  0  0  0  0  0  0  0  0  0  0  0
  -25.4736  -35.7889   24.1119 N   0  0  0  0  0  0  0  0  0  0  0  0
  -30.4398  -31.1212   24.0065 N   0  0  0  0  0  0  0  0  0  0  0  0
  -30.3367  -27.8236   25.4841 N   0  3  0  0  0  0  0  0  0  0  0  0
  -24.4090   -9.4038   16.4259 O   0  0  0  0  0  0  0  0  0  0  0  0
  -26.7016  -34.7312   22.4399 O   0  0  0  0  0  0  0  0  0  0  0  0
  -29.4373  -17.0278   20.2484 O   0  0  0  0  0  0  0  0  0  0  0  0
  -29.3895  -33.6503   24.8487 O   0  0  0  0  0  0  0  0  0  0  0  0
  -29.4207  -29.1981   23.2063 O   0  0  0  0  0  0  0  0  0  0  0  0
  -21.9322   -8.0258   23.6752 O   0  0  0  0  0  0  0  0  0  0  0  0
  -22.8466  -29.4614   21.4262 O   0  0  0  0  0  0  0  0  0  1  0  0
  -21.2127   -2.5767   23.2344 F   0  0  0  0  0  0  0  0  0  0  0  0
  -22.7065   -6.3236   25.7113 F   0  0  0  0  0  0  0  0  0  0  0  0
  -20.0469  -27.7631   19.6203 F   0  0  0  0  0  0  0  0  0  0  0  0
  1  2  1  0  0  0  0
  1  5  2  0  0  0  0
  2  6  2  0  0  0  0
  3  8  2  0  0  0  0
  3 15  1  0  0  0  0
  4  9  1  0  0  0  0
  4 15  2  0  0  0  0
  5 17  1  0  0  0  0
  6 19  1  0  0  0  0
  7 10  2  0  0  0  0
  7 18  1  0  0  0  0
  8 21  1  0  0  0  0
  9 21  2  0  0  0  0
 10 22  1  0  0  0  0
 11 12  2  0  0  0  0
 11 23  1  0  0  0  0
 12 24  1  0  0  0  0
 13 20  1  0  0  0  0
 13 22  2  0  0  0  0
 14 24  2  0  0  0  0
 14 25  1  0  0  0  0
 15 26  1  0  0  0  0
 16 26  1  0  0  0  0
 16 27  2  0  0  0  0
 16 28  1  0  0  0  0
 17 19  2  0  0  0  0
 17 33  1  0  0  0  0
 18 20  2  0  0  0  0
 18 34  1  0  0  0  0
 19 45  1  0  0  0  0
 20 35  1  0  0  0  0
 21 84  1  0  0  0  0
 22 85  1  0  0  0  0
 23 25  2  0  0  0  0
 23 84  1  0  0  0  0
 24 86  1  0  0  0  0
 25 87  1  0  0  0  0
 26 70  2  0  0  0  0
 27 71  1  0  0  0  0
 27 74  1  0  0  0  0
 28 75  1  0  0  0  0
 28 79  2  0  0  0  0
 29 46  1  0  0  0  0
 29 76  1  0  0  0  0
 29 80  2  0  0  0  0
 30 58  1  0  0  0  0
 30 73  1  0  0  0  0
 30 81  2  0  0  0  0
 31 67  1  0  0  0  0
 31 72  1  0  0  0  0
 31 82  2  0  0  0  0
 32 68  1  0  0  0  0
 32 77  1  0  0  0  0
 32 83  2  0  0  0  0
 33 36  1  0  0  0  0
 34 46  1  0  0  0  0
 35 72  1  0  0  0  0
 36 38  1  0  0  0  0
 37 41  1  0  0  0  0
 37 43  1  0  0  0  0
 38 45  1  0  0  0  0
 39 40  1  0  0  0  0
 39 47  1  0  0  0  0
 40 48  1  0  0  0  0
 41 50  1  0  0  0  0
 42 49  1  0  0  0  0
 42 51  1  0  0  0  0
 43 73  1  0  0  0  0
 44 50  1  0  0  0  0
 44 73  1  0  0  0  0
 45 76  1  0  0  0  0
 46 72  1  0  0  0  0
 47 49  1  0  0  0  0
 47 59  1  0  0  0  0
 48 51  1  0  0  0  0
 48 61  1  0  0  0  0
 49 60  1  0  0  0  0
 50 71  1  0  0  0  0
 51 88  1  0  0  0  0
 52 60  1  0  0  0  0
 53 68  1  0  0  0  0
 54 69  1  0  0  0  0
 55 69  1  0  0  0  0
 56 69  1  0  0  0  0
 57 78  1  0  0  0  0
 58 62  1  0  0  0  0
 59 63  1  0  0  0  0
 61 85  1  0  0  0  0
 62 64  1  0  0  0  0
 63 65  1  0  0  0  0
 64 66  1  0  0  0  0
 65 66  1  0  0  0  0
 67 69  1  0  0  0  0
 67 77  1  0  0  0  0
 68 78  1  0  0  0  0
 70 71  1  0  0  0  0
M  CHG  1  78   1
M  ISO  4  30 100  58 100  61 101  85 101
M  END
> <Batch ID>
0036

> <Smiles>
CCC1CC(F)C([101CH2:1][101O:1]c2ccc3c(c2)CN(C(=O)C(NC(=O)C(C)NC)C(C)(C)C)C(C(=O)NC2CCCc4ccccc42)C3)CCC1CCCCCC[100CH2:0][100C:0](=O)N1CCCC(n2nc(-c3ccc(Oc4ccc(F)cc4F)cc3)c(C(N)=O)c2N)C1

> <Shape>
0.243

> <Color>
0.085

> <Negative vol penalty>
0.000

$$$$

  -OEChem-04052316563D

 80 88  0     1  0  0  0  0  0999 V2000
  -22.9751  -21.0034   25.3759 C   0  0  0  0  0  0  0  0  0  0  0  0
  -23.7981  -21.5759   24.4114 C   0  0  0  0  0  0  0  0  0  0  0  0
  -26.5746  -12.5456   21.6028 C   0  0  0  0  0  0  0  0  0  0  0  0
  -25.9188  -13.7136   19.5921 C   0  0  0  0  0  0  0  0  0  0  0  0
  -21.6576  -21.4385   25.5137 C   0  0  0  0  0  0  0  0  0  0  0  0
  -23.3039  -22.5831   23.5834 C   0  0  0  0  0  0  0  0  0  0  0  0
  -26.5368  -26.4488   23.0841 C   0  0  0  0  0  0  0  0  0  0  0  0
  -25.3036  -11.9772   21.6872 C   0  0  0  0  0  0  0  0  0  0  0  0
  -24.6479  -13.1451   19.6764 C   0  0  0  0  0  0  0  0  0  0  0  0
  -27.6120  -26.2714   22.2144 C   0  0  0  0  0  0  0  0  0  0  0  0
  -23.6072   -9.4416   20.2292 C   0  0  0  0  0  0  0  0  0  0  0  0
  -23.5242   -8.0782   20.5118 C   0  0  0  0  0  0  0  0  0  0  0  0
  -26.4363  -27.5179   20.5164 C   0  0  0  0  0  0  0  0  0  0  0  0
  -30.4860  -22.2032   18.5963 C   0  0  0  0  0  0  0  0  0  0  0  0
  -22.2619   -8.5697   22.5124 C   0  0  0  0  0  0  0  0  0  0  0  0
  -28.4271  -22.6654   19.6937 C   0  0  0  0  0  0  0  0  0  0  0  0
  -26.8822  -13.4138   20.5553 C   0  0  0  0  0  0  0  0  0  0  0  0
  -29.3174  -13.4794   19.7981 C   0  0  0  0  0  0  0  0  0  0  0  0
  -21.1498  -22.4583   24.6934 C   0  0  0  0  0  0  0  0  0  0  0  0
  -25.3969  -27.1539   22.6720 C   0  0  0  0  0  0  0  0  0  0  0  0
  -21.9780  -23.0313   23.7095 C   0  0  0  0  0  0  0  0  0  0  0  0
  -25.3492  -27.7051   21.3836 C   0  0  0  0  0  0  0  0  0  0  0  0
  -29.4410  -21.7668   19.4031 C   0  0  0  0  0  0  0  0  0  0  0  0
  -30.4851  -23.5063   18.1115 C   0  0  0  0  0  0  0  0  0  0  0  0
  -24.3403  -12.2769   20.7240 C   0  0  0  0  0  0  0  0  0  0  0  0
  -27.5607  -26.8035   20.9293 C   0  0  0  0  0  0  0  0  0  0  0  0
  -23.0175  -10.3690   21.0882 C   0  0  0  0  0  0  0  0  0  0  0  0
  -22.8516   -7.6422   21.6534 C   0  0  0  0  0  0  0  0  0  0  0  0
  -22.3449   -9.9331   22.2297 C   0  0  0  0  0  0  0  0  0  0  0  0
  -28.1947  -14.0018   20.4679 C   0  0  0  0  0  0  0  0  0  0  0  0
  -29.4244  -24.3270   18.4597 C   0  0  0  0  0  0  0  0  0  0  0  0
  -30.3075  -14.4067   20.0129 C   0  0  0  0  0  0  0  0  0  0  0  0
  -29.4530  -12.2646   19.0488 C   0  0  0  0  0  0  0  0  0  0  0  0
  -22.3232  -26.4318   22.3058 C   0  0  0  0  0  0  0  0  0  0  0  0
  -30.1008  -20.2785   21.2745 C   0  0  0  0  0  0  0  0  0  0  0  0
  -22.0487  -29.6093   21.7139 C   0  0  0  0  0  0  0  0  0  0  0  0
  -23.5408  -32.5079   20.7046 C   0  0  0  0  0  0  0  0  0  0  0  0
  -19.7051  -22.8624   24.8480 C   0  0  0  0  0  0  0  0  0  0  0  0
  -24.2567  -27.3595   23.6312 C   0  0  0  0  0  0  0  0  0  0  0  0
  -24.1568  -28.4877   20.8996 C   0  0  0  0  0  0  0  0  0  0  0  0
  -19.3707  -24.1948   24.1820 C   0  0  0  0  0  0  0  0  0  0  0  0
  -31.7404  -17.7067   23.1554 C   0  0  0  0  0  0  0  0  0  0  0  0
  -19.9564  -24.2499   22.7746 C   0  0  0  0  0  0  0  0  0  0  0  0
  -31.0987  -16.4196   22.6388 C   0  0  0  0  0  0  0  0  0  0  0  0
  -30.7367  -18.8547   23.1936 C   0  0  0  0  0  0  0  0  0  0  0  0
  -29.4189  -17.8294   21.3677 C   0  0  0  0  0  0  0  0  0  0  0  0
  -21.4858  -24.1435   22.8090 C   0  0  1  0  0  0  0  0  0  0  0  0
  -22.9332  -27.6539   22.9318 C   0  0  1  0  0  0  0  0  0  0  0  0
  -30.4065  -16.6521   21.2841 C   0  0  2  0  0  0  0  0  0  0  0  0
  -31.6025  -23.9808   17.2480 C   0  0  0  0  0  0  0  0  0  0  0  0
  -23.0517  -34.9334   20.2866 C   0  0  0  0  0  0  0  0  0  0  0  0
  -20.6507  -28.8750   19.1031 C   0  0  0  0  0  0  0  0  0  0  0  0
  -21.0421  -31.2190   18.3153 C   0  0  0  0  0  0  0  0  0  0  0  0
  -19.6286  -30.8011   20.3278 C   0  0  0  0  0  0  0  0  0  0  0  0
  -25.4897  -33.3741   22.7566 C   0  0  0  0  0  0  0  0  0  0  0  0
  -29.4118  -20.3789   19.9369 C   0  0  0  0  0  0  0  0  0  0  0  0
  -29.3696  -25.7510   17.9621 C   0  0  0  0  0  0  0  0  0  0  0  0
  -28.3103  -26.5769   18.6837 C   0  0  0  0  0  0  0  0  0  1  0  0
  -22.1314  -30.4785   20.4823 C   0  0  1  0  0  0  0  0  0  0  0  0
  -23.5325  -33.9049   21.2984 C   0  0  2  0  0  0  0  0  0  0  0  0
  -20.8850  -30.3270   19.5653 C   0  0  0  0  0  0  0  0  0  0  0  0
  -28.3918  -23.9388   19.2411 N   0  0  0  0  0  0  0  0  0  0  0  0
  -28.4473  -15.1702   21.0637 N   0  0  0  0  0  0  0  0  0  0  0  0
  -29.7400  -15.3897   20.7691 N   0  0  0  0  0  0  0  0  0  0  0  0
  -23.0646  -28.6561   21.8723 N   0  0  0  0  0  0  0  0  0  0  0  0
  -30.0846  -19.0289   21.8945 N   0  0  0  0  0  0  0  0  0  0  0  0
  -31.5996  -14.4690   19.6268 N   0  0  0  0  0  0  0  0  0  0  0  0
  -28.3362  -11.4265   18.9271 N   0  0  0  0  0  0  0  0  0  0  0  0
  -22.0718  -25.4080   23.1991 N   0  0  0  0  0  0  0  0  0  0  0  0
  -22.3621  -31.8385   20.9573 N   0  0  0  0  0  0  0  0  0  0  0  0
  -24.9027  -34.2873   21.7424 N   0  3  0  0  0  0  0  0  0  0  0  0
  -30.5369  -11.9241   18.5172 O   0  0  0  0  0  0  0  0  0  0  0  0
  -22.0959  -26.4192   21.1016 O   0  0  0  0  0  0  0  0  0  0  0  0
  -30.6394  -21.2810   21.7511 O   0  0  0  0  0  0  0  0  0  0  0  0
  -21.1209  -29.7750   22.5098 O   0  0  0  0  0  0  0  0  0  0  0  0
  -24.4959  -32.0570   20.0761 O   0  0  0  0  0  0  0  0  0  0  0  0
  -23.1000  -11.7222   20.8058 O   0  0  0  0  0  0  0  0  0  0  0  0
  -28.6084  -26.6312   20.0782 O   0  0  0  0  0  0  0  0  0  1  0  0
  -22.7707   -6.3328   21.9239 F   0  0  0  0  0  0  0  0  0  0  0  0
  -21.7754  -10.8193   23.0581 F   0  0  0  0  0  0  0  0  0  0  0  0
  1  2  1  0  0  0  0
  1  5  2  0  0  0  0
  2  6  2  0  0  0  0
  3  8  2  0  0  0  0
  3 17  1  0  0  0  0
  4  9  1  0  0  0  0
  4 17  2  0  0  0  0
  5 19  1  0  0  0  0
  6 21  1  0  0  0  0
  7 10  2  0  0  0  0
  7 20  1  0  0  0  0
  8 25  1  0  0  0  0
  9 25  2  0  0  0  0
 10 26  1  0  0  0  0
 11 12  2  0  0  0  0
 11 27  1  0  0  0  0
 12 28  1  0  0  0  0
 13 22  1  0  0  0  0
 13 26  2  0  0  0  0
 14 23  2  0  0  0  0
 14 24  1  0  0  0  0
 15 28  2  0  0  0  0
 15 29  1  0  0  0  0
 16 23  1  0  0  0  0
 16 62  2  0  0  0  0
 17 30  1  0  0  0  0
 18 30  1  0  0  0  0
 18 32  2  0  0  0  0
 18 33  1  0  0  0  0
 19 21  2  0  0  0  0
 19 38  1  0  0  0  0
 20 22  2  0  0  0  0
 20 39  1  0  0  0  0
 21 47  1  0  0  0  0
 22 40  1  0  0  0  0
 23 56  1  0  0  0  0
 24 31  2  0  0  0  0
 24 50  1  0  0  0  0
 25 77  1  0  0  0  0
 26 78  1  0  0  0  0
 27 29  2  0  0  0  0
 27 77  1  0  0  0  0
 28 79  1  0  0  0  0
 29 80  1  0  0  0  0
 30 63  2  0  0  0  0
 31 57  1  0  0  0  0
 31 62  1  0  0  0  0
 32 64  1  0  0  0  0
 32 67  1  0  0  0  0
 33 68  1  0  0  0  0
 33 72  2  0  0  0  0
 34 48  1  0  0  0  0
 34 69  1  0  0  0  0
 34 73  2  0  0  0  0
 35 56  1  0  0  0  0
 35 66  1  0  0  0  0
 35 74  2  0  0  0  0
 36 59  1  0  0  0  0
 36 65  1  0  0  0  0
 36 75  2  0  0  0  0
 37 60  1  0  0  0  0
 37 70  1  0  0  0  0
 37 76  2  0  0  0  0
 38 41  1  0  0  0  0
 39 48  1  0  0  0  0
 40 65  1  0  0  0  0
 41 43  1  0  0  0  0
 42 44  1  0  0  0  0
 42 45  1  0  0  0  0
 43 47  1  0  0  0  0
 44 49  1  0  0  0  0
 45 66  1  0  0  0  0
 46 49  1  0  0  0  0
 46 66  1  0  0  0  0
 47 69  1  0  0  0  0
 48 65  1  0  0  0  0
 49 64  1  0  0  0  0
 51 60  1  0  0  0  0
 52 61  1  0  0  0  0
 53 61  1  0  0  0  0
 54 61  1  0  0  0  0
 55 71  1  0  0  0  0
 57 58  1  0  0  0  0
 58 78  1  0  0  0  0
 59 61  1  0  0  0  0
 59 70  1  0  0  0  0
 60 71  1  0  0  0  0
 63 64  1  0  0  0  0
M  CHG  1  71   1
M  ISO  4  35 100  56 100  58 101  78 101
M  END
> <Batch ID>
0036

> <Smiles>
CNC(C)C(=O)NC(C(=O)N1Cc2cc([101O:1][101CH2:1]Cc3ncc([100CH2:0][100C:0](=O)N4CCCC(n5nc(-c6ccc(Oc7ccc(F)cc7F)cc6)c(C(N)=O)c5N)C4)cc3C)ccc2CC1C(=O)NC1CCCc2ccccc21)C(C)(C)C

> <Shape>
0.267

> <Color>
0.074

> <Negative vol penalty>
0.000

$$$$

  -OEChem-04052316563D

 86 94  0     1  0  0  0  0  0999 V2000
  -35.4519  -27.7343   28.5759 C   0  0  0  0  0  0  0  0  0  0  0  0
  -35.6817  -26.5513   27.8808 C   0  0  0  0  0  0  0  0  0  0  0  0
  -23.1775   -9.8314   19.9367 C   0  0  0  0  0  0  0  0  0  0  0  0
  -23.5769  -10.0052   22.3131 C   0  0  0  0  0  0  0  0  0  0  0  0
  -34.1524  -28.2213   28.7104 C   0  0  0  0  0  0  0  0  0  0  0  0
  -34.6118  -25.8540   27.3207 C   0  0  0  0  0  0  0  0  0  0  0  0
  -32.9694  -21.7195   21.7060 C   0  0  0  0  0  0  0  0  0  0  0  0
  -22.4095   -8.6867   20.1495 C   0  0  0  0  0  0  0  0  0  0  0  0
  -22.8088   -8.8605   22.5260 C   0  0  0  0  0  0  0  0  0  0  0  0
  -32.3922  -20.4856   21.4093 C   0  0  0  0  0  0  0  0  0  0  0  0
  -23.1970   -5.5132   22.2510 C   0  0  0  0  0  0  0  0  0  0  0  0
  -23.6999   -4.5483   23.1237 C   0  0  0  0  0  0  0  0  0  0  0  0
  -30.1989  -21.4636   21.6373 C   0  0  0  0  0  0  0  0  0  0  0  0
  -21.7563   -4.8113   24.5345 C   0  0  0  0  0  0  0  0  0  0  0  0
  -30.8350  -17.0567   26.1628 C   0  0  0  0  0  0  0  0  0  0  0  0
  -23.7613  -10.4906   21.0185 C   0  0  0  0  0  0  0  0  0  0  0  0
  -24.1059  -13.0068   20.7775 C   0  0  0  0  0  0  0  0  0  0  0  0
  -33.0672  -27.5347   28.1434 C   0  0  0  0  0  0  0  0  0  0  0  0
  -32.1643  -22.8340   21.9817 C   0  0  0  0  0  0  0  0  0  0  0  0
  -33.2965  -26.3316   27.4489 C   0  0  0  0  0  0  0  0  0  0  0  0
  -30.7683  -22.7111   21.9347 C   0  0  0  0  0  0  0  0  0  0  0  0
  -22.2251   -8.2013   21.4442 C   0  0  0  0  0  0  0  0  0  0  0  0
  -31.0068  -20.3568   21.3777 C   0  0  0  0  0  0  0  0  0  0  0  0
  -21.9738   -6.1272   22.5200 C   0  0  0  0  0  0  0  0  0  0  0  0
  -22.9796   -4.1974   24.2655 C   0  0  0  0  0  0  0  0  0  0  0  0
  -21.2534   -5.7763   23.6618 C   0  0  0  0  0  0  0  0  0  0  0  0
  -24.5553  -11.6728   20.7993 C   0  0  0  0  0  0  0  0  0  0  0  0
  -30.6723  -18.4047   26.0099 C   0  0  0  0  0  0  0  0  0  0  0  0
  -25.2373  -13.7464   20.5340 C   0  0  0  0  0  0  0  0  0  0  0  0
  -29.8462  -17.4087   24.2137 C   0  0  0  0  0  0  0  0  0  0  0  0
  -22.7838  -13.5305   20.9609 C   0  0  0  0  0  0  0  0  0  0  0  0
  -31.7538  -24.7383   24.4935 C   0  0  0  0  0  0  0  0  0  0  0  0
  -29.8671  -26.3938   22.4386 C   0  0  0  0  0  0  0  0  0  0  0  0
  -27.9386  -26.3781   19.6231 C   0  0  0  0  0  0  0  0  0  0  0  0
  -31.0577  -12.7358   21.5107 C   0  0  0  0  0  0  0  0  0  0  0  0
  -31.6753  -28.0753   28.3556 C   0  0  0  0  0  0  0  0  0  0  0  0
  -32.8024  -24.1644   22.2738 C   0  0  0  0  0  0  0  0  0  0  0  0
  -29.8596  -23.8819   22.2033 C   0  0  0  0  0  0  0  0  0  0  0  0
  -30.6376  -27.4734   27.4116 C   0  0  0  0  0  0  0  0  0  0  0  0
  -29.5055  -13.4650   18.3905 C   0  0  0  0  0  0  0  0  0  0  0  0
  -30.7874  -25.9566   27.3507 C   0  0  0  0  0  0  0  0  0  0  0  0
  -28.0202  -13.2088   18.6520 C   0  0  0  0  0  0  0  0  0  0  0  0
  -30.3902  -12.4712   19.1398 C   0  0  0  0  0  0  0  0  0  0  0  0
  -28.6503  -12.1301   20.8516 C   0  0  0  0  0  0  0  0  0  0  0  0
  -32.1647  -25.5597   26.8059 C   0  0  1  0  0  0  0  0  0  0  0  0
  -31.8861  -25.1104   23.0437 C   0  0  1  0  0  0  0  0  0  0  0  0
  -27.7200  -13.1424   20.1616 C   0  0  2  0  0  0  0  0  0  0  0  0
  -34.2544  -21.7016   27.2829 C   0  0  0  0  0  0  0  0  0  0  0  0
  -26.4943  -27.8723   18.2163 C   0  0  0  0  0  0  0  0  0  0  0  0
  -27.6459  -26.2042   24.5220 C   0  0  0  0  0  0  0  0  0  0  0  0
  -26.0112  -26.8393   22.7353 C   0  0  0  0  0  0  0  0  0  0  0  0
  -27.8237  -28.4250   23.3858 C   0  0  0  0  0  0  0  0  0  0  0  0
  -29.6695  -26.0117   17.2506 C   0  0  0  0  0  0  0  0  0  0  0  0
  -31.0309  -19.5278   26.8797 C   0  0  0  0  0  0  0  0  0  0  0  0
  -29.1940  -17.1972   22.8708 C   0  0  0  0  0  0  0  0  0  0  0  0
  -32.8389  -21.2145   27.5484 C   0  0  0  0  0  0  0  0  0  0  0  0
  -32.4532  -20.0732   26.6073 C   0  0  0  0  0  0  0  0  0  0  0  0
  -30.1826  -16.8620   21.7519 C   0  0  0  0  0  0  0  0  0  0  0  0
  -31.6155  -14.4613   24.2955 C   0  0  0  0  0  0  0  0  0  0  0  0
  -30.2804  -15.0380   24.7854 C   0  0  0  0  0  0  0  0  0  0  0  0
  -31.5695  -12.9800   23.9268 C   0  0  0  0  0  0  0  0  0  0  0  0
  -31.1711  -17.9858   21.4629 C   0  0  0  0  0  0  0  0  0  1  0  0
  -28.4065  -26.3531   22.0592 C   0  0  1  0  0  0  0  0  0  0  0  0
  -27.8927  -27.3136   18.4284 C   0  0  2  0  0  0  0  0  0  0  0  0
  -27.4887  -26.9327   23.1724 C   0  0  0  0  0  0  0  0  0  0  0  0
  -25.8698  -11.5681   20.5865 N   0  0  0  0  0  0  0  0  0  0  0  0
  -30.3146  -16.4651   25.0370 N   0  0  0  0  0  0  0  0  0  0  0  0
  -26.2560  -12.8456   20.4286 N   0  0  0  0  0  0  0  0  0  0  0  0
  -30.0584  -18.5937   24.7952 N   0  3  0  0  0  0  0  0  0  0  0  0
  -30.5313  -25.1601   22.4903 N   0  0  0  0  0  0  0  0  0  0  0  0
  -30.0559  -12.4579   20.5660 N   0  0  0  0  0  0  0  0  0  0  0  0
  -25.4503  -15.0729   20.4019 N   0  0  0  0  0  0  0  0  0  0  0  0
  -21.7364  -12.6310   21.2020 N   0  0  0  0  0  0  0  0  0  0  0  0
  -32.2018  -25.7108   25.3671 N   0  0  0  0  0  0  0  0  0  0  0  0
  -28.2984  -27.0411   20.7773 N   0  0  0  0  0  0  0  0  0  0  0  0
  -30.6548  -12.7087   22.8402 N   0  0  0  0  0  0  0  0  0  0  0  0
  -28.3036  -26.5930   17.1903 N   0  3  0  0  0  0  0  0  0  0  0  0
  -22.5359  -14.7584   20.8961 O   0  0  0  0  0  0  0  0  0  0  0  0
  -31.2789  -23.6502   24.7970 O   0  0  0  0  0  0  0  0  0  0  0  0
  -30.4009  -27.4808   22.6734 O   0  0  0  0  0  0  0  0  0  0  0  0
  -27.6774  -25.1800   19.5413 O   0  0  0  0  0  0  0  0  0  0  0  0
  -32.2233  -12.9944   21.1925 O   0  0  0  0  0  0  0  0  0  0  0  0
  -21.4754   -7.0844   21.6522 O   0  0  0  0  0  0  0  0  0  0  0  0
  -30.4408  -19.1534   21.0890 O   0  0  0  0  0  0  0  0  0  1  0  0
  -23.4619   -3.2696   25.1026 F   0  0  0  0  0  0  0  0  0  0  0  0
  -20.0771   -6.3618   23.9249 F   0  0  0  0  0  0  0  0  0  0  0  0
  1  2  1  0  0  0  0
  1  5  2  0  0  0  0
  2  6  2  0  0  0  0
  3  8  2  0  0  0  0
  3 16  1  0  0  0  0
  4  9  1  0  0  0  0
  4 16  2  0  0  0  0
  5 18  1  0  0  0  0
  6 20  1  0  0  0  0
  7 10  2  0  0  0  0
  7 19  1  0  0  0  0
  8 22  1  0  0  0  0
  9 22  2  0  0  0  0
 10 23  1  0  0  0  0
 11 12  2  0  0  0  0
 11 24  1  0  0  0  0
 12 25  1  0  0  0  0
 13 21  1  0  0  0  0
 13 23  2  0  0  0  0
 14 25  2  0  0  0  0
 14 26  1  0  0  0  0
 15 28  2  0  0  0  0
 15 67  1  0  0  0  0
 16 27  1  0  0  0  0
 17 27  1  0  0  0  0
 17 29  2  0  0  0  0
 17 31  1  0  0  0  0
 18 20  2  0  0  0  0
 18 36  1  0  0  0  0
 19 21  2  0  0  0  0
 19 37  1  0  0  0  0
 20 45  1  0  0  0  0
 21 38  1  0  0  0  0
 22 83  1  0  0  0  0
 23 84  1  0  0  0  0
 24 26  2  0  0  0  0
 24 83  1  0  0  0  0
 25 85  1  0  0  0  0
 26 86  1  0  0  0  0
 27 66  2  0  0  0  0
 28 54  1  0  0  0  0
 28 69  1  0  0  0  0
 29 68  1  0  0  0  0
 29 72  1  0  0  0  0
 30 55  1  0  0  0  0
 30 67  1  0  0  0  0
 30 69  2  0  0  0  0
 31 73  1  0  0  0  0
 31 78  2  0  0  0  0
 32 46  1  0  0  0  0
 32 74  1  0  0  0  0
 32 79  2  0  0  0  0
 33 63  1  0  0  0  0
 33 70  1  0  0  0  0
 33 80  2  0  0  0  0
 34 64  1  0  0  0  0
 34 75  1  0  0  0  0
 34 81  2  0  0  0  0
 35 71  1  0  0  0  0
 35 76  1  0  0  0  0
 35 82  2  0  0  0  0
 36 39  1  0  0  0  0
 37 46  1  0  0  0  0
 38 70  1  0  0  0  0
 39 41  1  0  0  0  0
 40 42  1  0  0  0  0
 40 43  1  0  0  0  0
 41 45  1  0  0  0  0
 42 47  1  0  0  0  0
 43 71  1  0  0  0  0
 44 47  1  0  0  0  0
 44 71  1  0  0  0  0
 45 74  1  0  0  0  0
 46 70  1  0  0  0  0
 47 68  1  0  0  0  0
 48 56  1  0  0  0  0
 49 64  1  0  0  0  0
 50 65  1  0  0  0  0
 51 65  1  0  0  0  0
 52 65  1  0  0  0  0
 53 77  1  0  0  0  0
 54 57  1  0  0  0  0
 55 58  1  0  0  0  0
 56 57  1  0  0  0  0
 58 62  1  0  0  0  0
 59 60  1  0  0  0  0
 59 61  1  0  0  0  0
 60 67  1  0  0  0  0
 61 76  1  0  0  0  0
 62 84  1  0  0  0  0
 63 65  1  0  0  0  0
 63 75  1  0  0  0  0
 64 77  1  0  0  0  0
 66 68  1  0  0  0  0
M  CHG  2  69   1  77   1
M  ISO  4  35 100  62 101  76 100  84 101
M  END
> <Batch ID>
0036

> <Smiles>
CCCCc1cn(CCC[100NH:0][100C:0](=O)N2CCCC(n3nc(-c4ccc(Oc5ccc(F)cc5F)cc4)c(C(N)=O)c3N)C2)c(CC[101CH2:1][101O:1]c2ccc3c(c2)CN(C(=O)C(NC(=O)C(C)NC)C(C)(C)C)C(C(=O)NC2CCCc4ccccc42)C3)n1

> <Shape>
0.201

> <Color>
0.180

> <Negative vol penalty>
0.000

$$$$

  -OEChem-04052316563D

 83 91  0     1  0  0  0  0  0999 V2000
  -26.3419  -18.0724   27.7403 C   0  0  0  0  0  0  0  0  0  0  0  0
  -27.3016  -19.0216   27.4035 C   0  0  0  0  0  0  0  0  0  0  0  0
  -26.3426  -12.6039   21.5672 C   0  0  0  0  0  0  0  0  0  0  0  0
  -25.9154  -13.3949   19.3247 C   0  0  0  0  0  0  0  0  0  0  0  0
  -25.2792  -17.8194   26.8740 C   0  0  0  0  0  0  0  0  0  0  0  0
  -27.1996  -19.7176   26.1995 C   0  0  0  0  0  0  0  0  0  0  0  0
  -28.6276  -26.1159   23.3116 C   0  0  0  0  0  0  0  0  0  0  0  0
  -25.1135  -11.9444   21.5687 C   0  0  0  0  0  0  0  0  0  0  0  0
  -24.6863  -12.7354   19.3262 C   0  0  0  0  0  0  0  0  0  0  0  0
  -29.2813  -26.6823   22.2182 C   0  0  0  0  0  0  0  0  0  0  0  0
  -23.8225   -9.0791   20.3212 C   0  0  0  0  0  0  0  0  0  0  0  0
  -23.7890   -7.7715   20.8055 C   0  0  0  0  0  0  0  0  0  0  0  0
  -27.3590  -26.2188   20.8365 C   0  0  0  0  0  0  0  0  0  0  0  0
  -22.2152   -8.4435   22.5110 C   0  0  0  0  0  0  0  0  0  0  0  0
  -26.7436  -13.3292   20.4452 C   0  0  0  0  0  0  0  0  0  0  0  0
  -29.2542  -13.4956   20.0247 C   0  0  0  0  0  0  0  0  0  0  0  0
  -25.1588  -18.5196   25.6633 C   0  0  0  0  0  0  0  0  0  0  0  0
  -27.3368  -25.5858   23.1729 C   0  0  0  0  0  0  0  0  0  0  0  0
  -26.1350  -19.4728   25.3156 C   0  0  0  0  0  0  0  0  0  0  0  0
  -26.6901  -25.6484   21.9303 C   0  0  0  0  0  0  0  0  0  0  0  0
  -30.3392  -23.8932   16.8377 C   0  0  0  0  0  0  0  0  0  0  0  0
  -24.2854  -12.0101   20.4482 C   0  0  0  0  0  0  0  0  0  0  0  0
  -28.6482  -26.7312   20.9797 C   0  0  0  0  0  0  0  0  0  0  0  0
  -23.0524  -10.0690   20.9318 C   0  0  0  0  0  0  0  0  0  0  0  0
  -22.9854   -7.4537   21.9004 C   0  0  0  0  0  0  0  0  0  0  0  0
  -22.2487   -9.7512   22.0267 C   0  0  0  0  0  0  0  0  0  0  0  0
  -28.0128  -14.0111   20.4432 C   0  0  0  0  0  0  0  0  0  0  0  0
  -29.1786  -24.6867   16.7659 C   0  0  0  0  0  0  0  0  0  0  0  0
  -31.2577  -24.6858   17.4816 C   0  0  0  0  0  0  0  0  0  0  0  0
  -30.1383  -14.5285   20.2197 C   0  0  0  0  0  0  0  0  0  0  0  0
  -29.5790  -12.1990   19.5059 C   0  0  0  0  0  0  0  0  0  0  0  0
  -26.0468  -22.7017   23.5213 C   0  0  0  0  0  0  0  0  0  0  0  0
  -23.2750  -24.3078   23.0110 C   0  0  0  0  0  0  0  0  0  0  0  0
  -21.7089  -27.0364   21.6887 C   0  0  0  0  0  0  0  0  0  0  0  0
  -29.4750  -20.4747   20.4504 C   0  0  0  0  0  0  0  0  0  0  0  0
  -24.0184  -18.1780   24.7374 C   0  0  0  0  0  0  0  0  0  0  0  0
  -26.6348  -25.0023   24.3684 C   0  0  0  0  0  0  0  0  0  0  0  0
  -25.2967  -25.1116   21.7336 C   0  0  0  0  0  0  0  0  0  0  0  0
  -23.7785  -19.2262   23.6539 C   0  0  0  0  0  0  0  0  0  0  0  0
  -30.8542  -18.3750   22.9734 C   0  0  0  0  0  0  0  0  0  0  0  0
  -25.0971  -19.6337   23.0042 C   0  0  0  0  0  0  0  0  0  0  0  0
  -30.3944  -16.9720   22.5733 C   0  0  0  0  0  0  0  0  0  0  0  0
  -29.7876  -19.4256   22.6726 C   0  0  0  0  0  0  0  0  0  0  0  0
  -28.8355  -18.0250   20.8821 C   0  0  0  0  0  0  0  0  0  0  0  0
  -26.0453  -20.2661   24.0300 C   0  0  1  0  0  0  0  0  0  0  0  0
  -25.5222  -24.0289   23.9917 C   0  0  1  0  0  0  0  0  0  0  0  0
  -29.8996  -16.9387   21.1147 C   0  0  2  0  0  0  0  0  0  0  0  0
  -27.8775  -24.3331   16.1715 C   0  0  0  0  0  0  0  0  0  0  0  0
  -32.6615  -24.4383   17.8616 C   0  0  0  0  0  0  0  0  0  0  0  0
  -19.4329  -28.0521   21.3962 C   0  0  0  0  0  0  0  0  0  0  0  0
  -22.6693  -22.3050   20.7902 C   0  0  0  0  0  0  0  0  0  0  0  0
  -20.9258  -23.8856   19.9356 C   0  0  0  0  0  0  0  0  0  0  0  0
  -20.7058  -22.9043   22.2185 C   0  0  0  0  0  0  0  0  0  0  0  0
  -22.4565  -29.4438   23.2393 C   0  0  0  0  0  0  0  0  0  0  0  0
  -30.5297  -22.5214   16.3357 C   0  0  0  0  0  0  0  0  0  0  0  0
  -30.4424  -21.4106   17.4120 C   0  0  0  0  0  0  0  0  0  0  0  0
  -31.1898  -27.0702   18.4426 C   0  0  0  0  0  0  0  0  0  0  0  0
  -29.1156  -21.3795   18.1675 C   0  0  0  0  0  0  0  0  0  0  0  0
  -30.7081  -27.1923   19.8842 C   0  0  0  0  0  0  0  0  0  1  0  0
  -22.4604  -24.6745   21.7941 C   0  0  1  0  0  0  0  0  0  0  0  0
  -20.6759  -27.9849   22.2697 C   0  0  2  0  0  0  0  0  0  0  0  0
  -21.7174  -23.4508   21.1875 C   0  0  0  0  0  0  0  0  0  0  0  0
  -28.0968  -15.2733   20.8719 N   0  0  0  0  0  0  0  0  0  0  0  0
  -29.3422  -25.8909   17.3201 N   0  0  0  0  0  0  0  0  0  0  0  0
  -30.6163  -25.8600   17.7464 N   0  0  0  0  0  0  0  0  0  0  0  0
  -29.4015  -15.5596   20.7239 N   0  0  0  0  0  0  0  0  0  0  0  0
  -24.6545  -24.5452   22.9312 N   0  0  0  0  0  0  0  0  0  0  0  0
  -29.3626  -19.3418   21.2732 N   0  0  0  0  0  0  0  0  0  0  0  0
  -31.4662  -14.6462   20.0075 N   0  0  0  0  0  0  0  0  0  0  0  0
  -28.5504  -11.2568   19.3703 N   0  0  0  0  0  0  0  0  0  0  0  0
  -25.6549  -21.6325   24.3040 N   0  0  0  0  0  0  0  0  0  0  0  0
  -21.5813  -25.7641   22.2045 N   0  0  0  0  0  0  0  0  0  0  0  0
  -29.0559  -20.3076   19.1362 N   0  0  0  0  0  0  0  0  0  0  0  0
  -21.2422  -29.3584   22.3877 N   0  3  0  0  0  0  0  0  0  0  0  0
  -30.7497  -11.8800   19.1879 O   0  0  0  0  0  0  0  0  0  0  0  0
  -26.7534  -22.6514   22.5214 O   0  0  0  0  0  0  0  0  0  0  0  0
  -22.7072  -23.8349   23.9988 O   0  0  0  0  0  0  0  0  0  0  0  0
  -22.5430  -27.3880   20.8573 O   0  0  0  0  0  0  0  0  0  0  0  0
  -29.9211  -21.5535   20.8555 O   0  0  0  0  0  0  0  0  0  0  0  0
  -23.0861  -11.3665   20.4493 O   0  0  0  0  0  0  0  0  0  0  0  0
  -29.2842  -27.2830   19.9107 O   0  0  0  0  0  0  0  0  0  1  0  0
  -22.9522   -6.1976   22.3645 F   0  0  0  0  0  0  0  0  0  0  0  0
  -21.5058  -10.6976   22.6167 F   0  0  0  0  0  0  0  0  0  0  0  0
  1  2  1  0  0  0  0
  1  5  2  0  0  0  0
  2  6  2  0  0  0  0
  3  8  2  0  0  0  0
  3 15  1  0  0  0  0
  4  9  1  0  0  0  0
  4 15  2  0  0  0  0
  5 17  1  0  0  0  0
  6 19  1  0  0  0  0
  7 10  2  0  0  0  0
  7 18  1  0  0  0  0
  8 22  1  0  0  0  0
  9 22  2  0  0  0  0
 10 23  1  0  0  0  0
 11 12  2  0  0  0  0
 11 24  1  0  0  0  0
 12 25  1  0  0  0  0
 13 20  1  0  0  0  0
 13 23  2  0  0  0  0
 14 25  2  0  0  0  0
 14 26  1  0  0  0  0
 15 27  1  0  0  0  0
 16 27  1  0  0  0  0
 16 30  2  0  0  0  0
 16 31  1  0  0  0  0
 17 19  2  0  0  0  0
 17 36  1  0  0  0  0
 18 20  2  0  0  0  0
 18 37  1  0  0  0  0
 19 45  1  0  0  0  0
 20 38  1  0  0  0  0
 21 28  1  0  0  0  0
 21 29  2  0  0  0  0
 21 55  1  0  0  0  0
 22 80  1  0  0  0  0
 23 81  1  0  0  0  0
 24 26  2  0  0  0  0
 24 80  1  0  0  0  0
 25 82  1  0  0  0  0
 26 83  1  0  0  0  0
 27 63  2  0  0  0  0
 28 48  1  0  0  0  0
 28 64  2  0  0  0  0
 29 49  1  0  0  0  0
 29 65  1  0  0  0  0
 30 66  1  0  0  0  0
 30 69  1  0  0  0  0
 31 70  1  0  0  0  0
 31 75  2  0  0  0  0
 32 46  1  0  0  0  0
 32 71  1  0  0  0  0
 32 76  2  0  0  0  0
 33 60  1  0  0  0  0
 33 67  1  0  0  0  0
 33 77  2  0  0  0  0
 34 61  1  0  0  0  0
 34 72  1  0  0  0  0
 34 78  2  0  0  0  0
 35 68  1  0  0  0  0
 35 73  1  0  0  0  0
 35 79  2  0  0  0  0
 36 39  1  0  0  0  0
 37 46  1  0  0  0  0
 38 67  1  0  0  0  0
 39 41  1  0  0  0  0
 40 42  1  0  0  0  0
 40 43  1  0  0  0  0
 41 45  1  0  0  0  0
 42 47  1  0  0  0  0
 43 68  1  0  0  0  0
 44 47  1  0  0  0  0
 44 68  1  0  0  0  0
 45 71  1  0  0  0  0
 46 67  1  0  0  0  0
 47 66  1  0  0  0  0
 50 61  1  0  0  0  0
 51 62  1  0  0  0  0
 52 62  1  0  0  0  0
 53 62  1  0  0  0  0
 54 74  1  0  0  0  0
 55 56  1  0  0  0  0
 56 58  1  0  0  0  0
 57 59  1  0  0  0  0
 57 65  1  0  0  0  0
 58 73  1  0  0  0  0
 59 81  1  0  0  0  0
 60 62  1  0  0  0  0
 60 72  1  0  0  0  0
 61 74  1  0  0  0  0
 63 66  1  0  0  0  0
 64 65  1  0  0  0  0
M  CHG  1  74   1
M  ISO  4  35 100  59 101  73 100  81 101
M  END
> <Batch ID>
0036

> <Smiles>
CNC(C)C(=O)NC(C(=O)N1Cc2cc([101O:1][101CH2:1]Cn3nc(C)c(CCC[100NH:0][100C:0](=O)N4CCCC(n5nc(-c6ccc(Oc7ccc(F)cc7F)cc6)c(C(N)=O)c5N)C4)c3C)ccc2CC1C(=O)NC1CCCc2ccccc21)C(C)(C)C

> <Shape>
0.240

> <Color>
0.077

> <Negative vol penalty>
0.000

$$$$

  -OEChem-04052316563D

 82 90  0     1  0  0  0  0  0999 V2000
  -25.4662  -35.1802   23.4403 C   0  0  0  0  0  0  0  0  0  0  0  0
  -26.1057  -33.9696   23.1933 C   0  0  0  0  0  0  0  0  0  0  0  0
  -24.3279  -14.9226   20.0028 C   0  0  0  0  0  0  0  0  0  0  0  0
  -26.6566  -15.1313   20.6117 C   0  0  0  0  0  0  0  0  0  0  0  0
  -24.1456  -35.1912   23.8873 C   0  0  0  0  0  0  0  0  0  0  0  0
  -25.4252  -32.7692   23.3942 C   0  0  0  0  0  0  0  0  0  0  0  0
  -26.1182  -29.4850   19.6023 C   0  0  0  0  0  0  0  0  0  0  0  0
  -24.4332  -13.5337   20.0759 C   0  0  0  0  0  0  0  0  0  0  0  0
  -26.7619  -13.7424   20.6849 C   0  0  0  0  0  0  0  0  0  0  0  0
  -27.3254  -28.7880   19.5763 C   0  0  0  0  0  0  0  0  0  0  0  0
  -23.9958   -9.9448   20.4543 C   0  0  0  0  0  0  0  0  0  0  0  0
  -22.9793   -9.2509   21.1106 C   0  0  0  0  0  0  0  0  0  0  0  0
  -26.2314  -26.8692   20.5462 C   0  0  0  0  0  0  0  0  0  0  0  0
  -30.7756  -22.9346   18.7209 C   0  0  0  0  0  0  0  0  0  0  0  0
  -23.4607  -10.4672   23.1420 C   0  0  0  0  0  0  0  0  0  0  0  0
  -30.4144  -24.3046   16.8106 C   0  0  0  0  0  0  0  0  0  0  0  0
  -25.4396  -15.7215   20.2707 C   0  0  0  0  0  0  0  0  0  0  0  0
  -24.9809  -18.0386   21.2342 C   0  0  0  0  0  0  0  0  0  0  0  0
  -23.4455  -33.9905   24.0846 C   0  0  0  0  0  0  0  0  0  0  0  0
  -24.9590  -28.8821   20.1114 C   0  0  0  0  0  0  0  0  0  0  0  0
  -24.0945  -32.7641   23.8456 C   0  0  0  0  0  0  0  0  0  0  0  0
  -25.0103  -27.5598   20.5752 C   0  0  0  0  0  0  0  0  0  0  0  0
  -30.5209  -23.0361   17.3577 C   0  0  0  0  0  0  0  0  0  0  0  0
  -30.9140  -24.0884   19.4844 C   0  0  0  0  0  0  0  0  0  0  0  0
  -25.6502  -12.9436   20.4170 C   0  0  0  0  0  0  0  0  0  0  0  0
  -27.3828  -27.4809   20.0509 C   0  0  0  0  0  0  0  0  0  0  0  0
  -24.7449  -10.8997   21.1418 C   0  0  0  0  0  0  0  0  0  0  0  0
  -22.7116   -9.5121   22.4544 C   0  0  0  0  0  0  0  0  0  0  0  0
  -24.4773  -11.1609   22.4856 C   0  0  0  0  0  0  0  0  0  0  0  0
  -25.3316  -17.1563   20.1947 C   0  0  0  0  0  0  0  0  0  0  0  0
  -30.7901  -25.3098   18.8420 C   0  0  0  0  0  0  0  0  0  0  0  0
  -25.0213  -19.2837   20.6559 C   0  0  0  0  0  0  0  0  0  0  0  0
  -24.6483  -17.7577   22.6003 C   0  0  0  0  0  0  0  0  0  0  0  0
  -22.9942  -29.4892   22.5352 C   0  0  0  0  0  0  0  0  0  0  0  0
  -21.2779  -27.0585   21.2435 C   0  0  0  0  0  0  0  0  0  0  0  0
  -21.2408  -24.2430   19.3152 C   0  0  0  0  0  0  0  0  0  0  0  0
  -27.9757  -21.4957   15.9410 C   0  0  0  0  0  0  0  0  0  0  0  0
  -22.0346  -34.0515   24.6140 C   0  0  0  0  0  0  0  0  0  0  0  0
  -23.6588  -29.6382   20.1078 C   0  0  0  0  0  0  0  0  0  0  0  0
  -23.7897  -26.8602   21.1130 C   0  0  0  0  0  0  0  0  0  0  0  0
  -21.2630  -32.7454   24.4434 C   0  0  0  0  0  0  0  0  0  0  0  0
  -24.4506  -21.4755   16.4415 C   0  0  0  0  0  0  0  0  0  0  0  0
  -22.1156  -31.5601   24.8849 C   0  0  0  0  0  0  0  0  0  0  0  0
  -24.2450  -20.4458   17.5539 C   0  0  0  0  0  0  0  0  0  0  0  0
  -25.5771  -21.0664   15.4950 C   0  0  0  0  0  0  0  0  0  0  0  0
  -26.6559  -19.7360   17.2670 C   0  0  0  0  0  0  0  0  0  0  0  0
  -23.3817  -31.4417   24.0280 C   0  0  1  0  0  0  0  0  0  0  0  0
  -22.6538  -29.1035   21.1234 C   0  0  1  0  0  0  0  0  0  0  0  0
  -25.5675  -20.1323   18.2792 C   0  0  2  0  0  0  0  0  0  0  0  0
  -32.6467  -24.2678   21.2878 C   0  0  0  0  0  0  0  0  0  0  0  0
  -19.6976  -22.4520   18.4735 C   0  0  0  0  0  0  0  0  0  0  0  0
  -21.3173  -25.7360   23.9929 C   0  0  0  0  0  0  0  0  0  0  0  0
  -20.6284  -23.5938   22.8953 C   0  0  0  0  0  0  0  0  0  0  0  0
  -19.1280  -25.5841   22.7934 C   0  0  0  0  0  0  0  0  0  0  0  0
  -21.7361  -24.9809   16.4922 C   0  0  0  0  0  0  0  0  0  0  0  0
  -31.1852  -23.9867   20.9457 C   0  0  0  0  0  0  0  0  0  0  0  0
  -30.3685  -21.8214   16.5132 C   0  0  0  0  0  0  0  0  0  0  0  0
  -30.9316  -26.5957   19.6196 C   0  0  0  0  0  0  0  0  0  0  0  0
  -29.6970  -27.4828   19.5027 C   0  0  0  0  0  0  0  0  0  1  0  0
  -21.2492  -25.5593   21.4180 C   0  0  1  0  0  0  0  0  0  0  0  0
  -20.3244  -23.8075   18.1860 C   0  0  2  0  0  0  0  0  0  0  0  0
  -20.6043  -25.1318   22.7666 C   0  0  0  0  0  0  0  0  0  0  0  0
  -30.5429  -25.4481   17.5201 N   0  0  0  0  0  0  0  0  0  0  0  0
  -25.5766  -17.7874   19.0434 N   0  0  0  0  0  0  0  0  0  0  0  0
  -25.3795  -19.0795   19.3559 N   0  0  0  0  0  0  0  0  0  0  0  0
  -22.5433  -27.6436   21.0944 N   0  0  0  0  0  0  0  0  0  0  0  0
  -26.8032  -20.7846   16.2455 N   0  0  0  0  0  0  0  0  0  0  0  0
  -24.7851  -20.5224   21.1378 N   0  0  0  0  0  0  0  0  0  0  0  0
  -24.6551  -16.4232   23.0288 N   0  0  0  0  0  0  0  0  0  0  0  0
  -23.0693  -30.8532   22.7432 N   0  0  0  0  0  0  0  0  0  0  0  0
  -20.5781  -25.0238   20.2384 N   0  0  0  0  0  0  0  0  0  0  0  0
  -29.0909  -21.1717   16.7039 N   0  0  0  0  0  0  0  0  0  0  0  0
  -21.0859  -23.7117   16.9086 N   0  3  0  0  0  0  0  0  0  0  0  0
  -24.3379  -18.6617   23.4126 O   0  0  0  0  0  0  0  0  0  0  0  0
  -23.1740  -28.6140   23.3740 O   0  0  0  0  0  0  0  0  0  0  0  0
  -20.2162  -27.6865   21.2324 O   0  0  0  0  0  0  0  0  0  0  0  0
  -22.4250  -23.9196   19.3743 O   0  0  0  0  0  0  0  0  0  0  0  0
  -28.0236  -22.3595   15.0586 O   0  0  0  0  0  0  0  0  0  0  0  0
  -25.7533  -11.5883   20.4886 O   0  0  0  0  0  0  0  0  0  0  0  0
  -28.5599  -26.7985   20.0273 O   0  0  0  0  0  0  0  0  0  1  0  0
  -21.7344   -8.8469   23.0842 F   0  0  0  0  0  0  0  0  0  0  0  0
  -25.1927  -12.0781   23.1510 F   0  0  0  0  0  0  0  0  0  0  0  0
  1  2  1  0  0  0  0
  1  5  2  0  0  0  0
  2  6  2  0  0  0  0
  3  8  2  0  0  0  0
  3 17  1  0  0  0  0
  4  9  1  0  0  0  0
  4 17  2  0  0  0  0
  5 19  1  0  0  0  0
  6 21  1  0  0  0  0
  7 10  2  0  0  0  0
  7 20  1  0  0  0  0
  8 25  1  0  0  0  0
  9 25  2  0  0  0  0
 10 26  1  0  0  0  0
 11 12  2  0  0  0  0
 11 27  1  0  0  0  0
 12 28  1  0  0  0  0
 13 22  1  0  0  0  0
 13 26  2  0  0  0  0
 14 23  2  0  0  0  0
 14 24  1  0  0  0  0
 15 28  2  0  0  0  0
 15 29  1  0  0  0  0
 16 23  1  0  0  0  0
 16 63  2  0  0  0  0
 17 30  1  0  0  0  0
 18 30  1  0  0  0  0
 18 32  2  0  0  0  0
 18 33  1  0  0  0  0
 19 21  2  0  0  0  0
 19 38  1  0  0  0  0
 20 22  2  0  0  0  0
 20 39  1  0  0  0  0
 21 47  1  0  0  0  0
 22 40  1  0  0  0  0
 23 57  1  0  0  0  0
 24 31  2  0  0  0  0
 24 56  1  0  0  0  0
 25 79  1  0  0  0  0
 26 80  1  0  0  0  0
 27 29  2  0  0  0  0
 27 79  1  0  0  0  0
 28 81  1  0  0  0  0
 29 82  1  0  0  0  0
 30 64  2  0  0  0  0
 31 58  1  0  0  0  0
 31 63  1  0  0  0  0
 32 65  1  0  0  0  0
 32 68  1  0  0  0  0
 33 69  1  0  0  0  0
 33 74  2  0  0  0  0
 34 48  1  0  0  0  0
 34 70  1  0  0  0  0
 34 75  2  0  0  0  0
 35 60  1  0  0  0  0
 35 66  1  0  0  0  0
 35 76  2  0  0  0  0
 36 61  1  0  0  0  0
 36 71  1  0  0  0  0
 36 77  2  0  0  0  0
 37 67  1  0  0  0  0
 37 72  1  0  0  0  0
 37 78  2  0  0  0  0
 38 41  1  0  0  0  0
 39 48  1  0  0  0  0
 40 66  1  0  0  0  0
 41 43  1  0  0  0  0
 42 44  1  0  0  0  0
 42 45  1  0  0  0  0
 43 47  1  0  0  0  0
 44 49  1  0  0  0  0
 45 67  1  0  0  0  0
 46 49  1  0  0  0  0
 46 67  1  0  0  0  0
 47 70  1  0  0  0  0
 48 66  1  0  0  0  0
 49 65  1  0  0  0  0
 50 56  1  0  0  0  0
 51 61  1  0  0  0  0
 52 62  1  0  0  0  0
 53 62  1  0  0  0  0
 54 62  1  0  0  0  0
 55 73  1  0  0  0  0
 57 72  1  0  0  0  0
 58 59  1  0  0  0  0
 59 80  1  0  0  0  0
 60 62  1  0  0  0  0
 60 71  1  0  0  0  0
 61 73  1  0  0  0  0
 64 65  1  0  0  0  0
M  CHG  1  73   1
M  ISO  4  37 100  59 101  72 100  80 101
M  END
> <Batch ID>
0036

> <Smiles>
CCc1cc(C[100NH:0][100C:0](=O)N2CCCC(n3nc(-c4ccc(Oc5ccc(F)cc5F)cc4)c(C(N)=O)c3N)C2)cnc1C[101CH2:1][101O:1]c1ccc2c(c1)CN(C(=O)C(NC(=O)C(C)NC)C(C)(C)C)C(C(=O)NC1CCCc3ccccc31)C2

> <Shape>
0.232

> <Color>
0.079

> <Negative vol penalty>
0.000

$$$$

  -OEChem-04052316563D

 83 91  0     1  0  0  0  0  0999 V2000
  -18.3591  -31.3000   23.2675 C   0  0  0  0  0  0  0  0  0  0  0  0
  -19.7485  -31.2853   23.1993 C   0  0  0  0  0  0  0  0  0  0  0  0
  -26.8896  -17.9028   18.8735 C   0  0  0  0  0  0  0  0  0  0  0  0
  -29.1510  -17.5992   19.6678 C   0  0  0  0  0  0  0  0  0  0  0  0
  -17.6431  -30.1112   23.1332 C   0  0  0  0  0  0  0  0  0  0  0  0
  -20.4229  -30.0815   22.9979 C   0  0  0  0  0  0  0  0  0  0  0  0
  -25.5979  -29.2459   19.8315 C   0  0  0  0  0  0  0  0  0  0  0  0
  -26.5781  -16.6000   19.2622 C   0  0  0  0  0  0  0  0  0  0  0  0
  -28.8395  -16.2963   20.0565 C   0  0  0  0  0  0  0  0  0  0  0  0
  -26.9304  -29.1306   20.2254 C   0  0  0  0  0  0  0  0  0  0  0  0
  -28.4744  -13.2762   18.5811 C   0  0  0  0  0  0  0  0  0  0  0  0
  -29.3840  -12.2689   18.2592 C   0  0  0  0  0  0  0  0  0  0  0  0
  -26.7293  -26.7271   20.1807 C   0  0  0  0  0  0  0  0  0  0  0  0
  -32.2093  -27.9023   16.0561 C   0  0  0  0  0  0  0  0  0  0  0  0
  -31.3385  -28.9371   18.0580 C   0  0  0  0  0  0  0  0  0  0  0  0
  -32.5892  -26.8756   18.2098 C   0  0  0  0  0  0  0  0  0  0  0  0
  -29.6509  -11.7600   20.6059 C   0  0  0  0  0  0  0  0  0  0  0  0
  -28.1761  -18.4024   19.0763 C   0  0  0  0  0  0  0  0  0  0  0  0
  -28.3836  -20.9174   19.4498 C   0  0  0  0  0  0  0  0  0  0  0  0
  -18.3086  -28.8936   22.9204 C   0  0  0  0  0  0  0  0  0  0  0  0
  -24.8168  -28.1008   19.6195 C   0  0  0  0  0  0  0  0  0  0  0  0
  -19.7152  -28.8751   22.8620 C   0  0  0  0  0  0  0  0  0  0  0  0
  -25.3880  -26.8305   19.7817 C   0  0  0  0  0  0  0  0  0  0  0  0
  -31.5021  -28.9344   16.6727 C   0  0  0  0  0  0  0  0  0  0  0  0
  -32.7528  -26.8729   16.8246 C   0  0  0  0  0  0  0  0  0  0  0  0
  -31.8821  -27.9078   18.8265 C   0  0  0  0  0  0  0  0  0  0  0  0
  -27.5530  -15.7967   19.8537 C   0  0  0  0  0  0  0  0  0  0  0  0
  -27.4954  -27.8711   20.4029 C   0  0  0  0  0  0  0  0  0  0  0  0
  -28.1532  -13.5255   19.9154 C   0  0  0  0  0  0  0  0  0  0  0  0
  -29.9722  -11.5108   19.2715 C   0  0  0  0  0  0  0  0  0  0  0  0
  -28.7414  -12.7674   20.9278 C   0  0  0  0  0  0  0  0  0  0  0  0
  -28.4986  -19.7480   18.6745 C   0  0  0  0  0  0  0  0  0  0  0  0
  -28.8115  -21.9238   18.6188 C   0  0  0  0  0  0  0  0  0  0  0  0
  -27.9305  -21.0794   20.8004 C   0  0  0  0  0  0  0  0  0  0  0  0
  -22.1798  -26.9092   20.9349 C   0  0  0  0  0  0  0  0  0  0  0  0
  -22.4397  -24.7314   18.5448 C   0  0  0  0  0  0  0  0  0  0  0  0
  -24.4409  -23.1192   16.2993 C   0  0  0  0  0  0  0  0  0  0  0  0
  -32.4319  -23.9398   14.8807 C   0  0  0  0  0  0  0  0  0  0  0  0
  -17.4941  -27.6276   22.8284 C   0  0  0  0  0  0  0  0  0  0  0  0
  -23.3887  -28.2419   19.1689 C   0  0  0  0  0  0  0  0  0  0  0  0
  -24.5979  -25.5699   19.5472 C   0  0  0  0  0  0  0  0  0  0  0  0
  -18.2660  -26.4479   22.2430 C   0  0  0  0  0  0  0  0  0  0  0  0
  -29.7795  -21.9059   13.6540 C   0  0  0  0  0  0  0  0  0  0  0  0
  -19.6432  -26.3374   22.8895 C   0  0  0  0  0  0  0  0  0  0  0  0
  -29.2049  -21.2553   14.9136 C   0  0  0  0  0  0  0  0  0  0  0  0
  -31.2967  -22.0572   13.7389 C   0  0  0  0  0  0  0  0  0  0  0  0
  -31.2081  -22.1082   16.2013 C   0  0  0  0  0  0  0  0  0  0  0  0
  -20.4815  -27.5928   22.6199 C   0  0  1  0  0  0  0  0  0  0  0  0
  -22.5398  -27.0130   19.4798 C   0  0  1  0  0  0  0  0  0  0  0  0
  -29.6748  -21.9854   16.1861 C   0  0  2  0  0  0  0  0  0  0  0  0
  -30.9215  -30.0350   15.8505 C   0  0  0  0  0  0  0  0  0  0  0  0
  -33.0621  -28.0312   21.0361 C   0  0  0  0  0  0  0  0  0  0  0  0
  -24.3747  -21.3655   14.5055 C   0  0  0  0  0  0  0  0  0  0  0  0
  -22.2942  -22.5565   20.6800 C   0  0  0  0  0  0  0  0  0  0  0  0
  -23.1720  -20.9337   18.9876 C   0  0  0  0  0  0  0  0  0  0  0  0
  -20.9849  -22.0709   18.6052 C   0  0  0  0  0  0  0  0  0  0  0  0
  -25.3363  -25.0364   14.2301 C   0  0  0  0  0  0  0  0  0  0  0  0
  -33.5094  -25.7693   16.1657 C   0  0  0  0  0  0  0  0  0  0  0  0
  -30.9394  -26.6786   20.8559 C   0  0  0  0  0  0  0  0  0  0  0  0
  -29.5041  -26.5992   20.3444 C   0  0  0  0  0  0  0  0  0  1  0  0
  -31.7037  -27.9111   20.3350 C   0  0  2  0  0  0  0  0  0  0  0  0
  -23.1264  -23.3966   18.3848 C   0  0  1  0  0  0  0  0  0  0  0  0
  -24.2764  -22.8514   14.8141 C   0  0  2  0  0  0  0  0  0  0  0  0
  -22.4090  -22.2630   19.1708 C   0  0  0  0  0  0  0  0  0  0  0  0
  -28.9631  -19.9879   17.4453 N   0  0  0  0  0  0  0  0  0  0  0  0
  -29.1435  -21.3196   17.4420 N   0  0  0  0  0  0  0  0  0  0  0  0
  -23.2038  -25.7602   19.1138 N   0  0  0  0  0  0  0  0  0  0  0  0
  -31.6761  -22.7590   14.9675 N   0  0  0  0  0  0  0  0  0  0  0  0
  -28.9322  -23.2578   18.7872 N   0  0  0  0  0  0  0  0  0  0  0  0
  -27.5272  -19.9407   21.5110 N   0  0  0  0  0  0  0  0  0  0  0  0
  -21.0125  -27.5665   21.2739 N   0  0  0  0  0  0  0  0  0  0  0  0
  -23.2253  -23.1580   16.9489 N   0  0  0  0  0  0  0  0  0  0  0  0
  -32.7432  -24.5452   16.0920 N   0  0  0  0  0  0  0  0  0  0  0  0
  -25.3320  -23.5631   14.0394 N   0  3  0  0  0  0  0  0  0  0  0  0
  -27.8691  -22.2029   21.3550 O   0  0  0  0  0  0  0  0  0  0  0  0
  -22.9064  -26.2782   21.6935 O   0  0  0  0  0  0  0  0  0  0  0  0
  -21.2707  -24.8587   18.1720 O   0  0  0  0  0  0  0  0  0  0  0  0
  -25.5382  -23.2746   16.8306 O   0  0  0  0  0  0  0  0  0  0  0  0
  -32.7973  -24.4219   13.8032 O   0  0  0  0  0  0  0  0  0  0  0  0
  -27.2494  -14.5254   20.2333 O   0  0  0  0  0  0  0  0  0  0  0  0
  -28.7955  -27.7557   20.7879 O   0  0  0  0  0  0  0  0  0  1  0  0
  -30.8445  -10.5425   18.9622 F   0  0  0  0  0  0  0  0  0  0  0  0
  -28.4358  -13.0014   22.2114 F   0  0  0  0  0  0  0  0  0  0  0  0
  1  2  1  0  0  0  0
  1  5  2  0  0  0  0
  2  6  2  0  0  0  0
  3  8  2  0  0  0  0
  3 18  1  0  0  0  0
  4  9  1  0  0  0  0
  4 18  2  0  0  0  0
  5 20  1  0  0  0  0
  6 22  1  0  0  0  0
  7 10  2  0  0  0  0
  7 21  1  0  0  0  0
  8 27  1  0  0  0  0
  9 27  2  0  0  0  0
 10 28  1  0  0  0  0
 11 12  2  0  0  0  0
 11 29  1  0  0  0  0
 12 30  1  0  0  0  0
 13 23  1  0  0  0  0
 13 28  2  0  0  0  0
 14 24  1  0  0  0  0
 14 25  2  0  0  0  0
 15 24  2  0  0  0  0
 15 26  1  0  0  0  0
 16 25  1  0  0  0  0
 16 26  2  0  0  0  0
 17 30  2  0  0  0  0
 17 31  1  0  0  0  0
 18 32  1  0  0  0  0
 19 32  1  0  0  0  0
 19 33  2  0  0  0  0
 19 34  1  0  0  0  0
 20 22  2  0  0  0  0
 20 39  1  0  0  0  0
 21 23  2  0  0  0  0
 21 40  1  0  0  0  0
 22 48  1  0  0  0  0
 23 41  1  0  0  0  0
 24 51  1  0  0  0  0
 25 58  1  0  0  0  0
 26 61  1  0  0  0  0
 27 80  1  0  0  0  0
 28 81  1  0  0  0  0
 29 31  2  0  0  0  0
 29 80  1  0  0  0  0
 30 82  1  0  0  0  0
 31 83  1  0  0  0  0
 32 65  2  0  0  0  0
 33 66  1  0  0  0  0
 33 69  1  0  0  0  0
 34 70  1  0  0  0  0
 34 75  2  0  0  0  0
 35 49  1  0  0  0  0
 35 71  1  0  0  0  0
 35 76  2  0  0  0  0
 36 62  1  0  0  0  0
 36 67  1  0  0  0  0
 36 77  2  0  0  0  0
 37 63  1  0  0  0  0
 37 72  1  0  0  0  0
 37 78  2  0  0  0  0
 38 68  1  0  0  0  0
 38 73  1  0  0  0  0
 38 79  2  0  0  0  0
 39 42  1  0  0  0  0
 40 49  1  0  0  0  0
 41 67  1  0  0  0  0
 42 44  1  0  0  0  0
 43 45  1  0  0  0  0
 43 46  1  0  0  0  0
 44 48  1  0  0  0  0
 45 50  1  0  0  0  0
 46 68  1  0  0  0  0
 47 50  1  0  0  0  0
 47 68  1  0  0  0  0
 48 71  1  0  0  0  0
 49 67  1  0  0  0  0
 50 66  1  0  0  0  0
 52 61  1  0  0  0  0
 53 63  1  0  0  0  0
 54 64  1  0  0  0  0
 55 64  1  0  0  0  0
 56 64  1  0  0  0  0
 57 74  1  0  0  0  0
 58 73  1  0  0  0  0
 59 60  1  0  0  0  0
 59 61  1  0  0  0  0
 60 81  1  0  0  0  0
 62 64  1  0  0  0  0
 62 72  1  0  0  0  0
 63 74  1  0  0  0  0
 65 66  1  0  0  0  0
M  CHG  1  74   1
M  ISO  4  38 100  60 101  73 100  81 101
M  END
> <Batch ID>
0036

> <Smiles>
CNC(C)C(=O)NC(C(=O)N1Cc2cc([101O:1][101CH2:1]CC(C)c3cc(C)cc(C[100NH:0][100C:0](=O)N4CCCC(n5nc(-c6ccc(Oc7ccc(F)cc7F)cc6)c(C(N)=O)c5N)C4)c3)ccc2CC1C(=O)NC1CCCc2ccccc21)C(C)(C)C

> <Shape>
0.232

> <Color>
0.078

> <Negative vol penalty>
0.000

$$$$

  -OEChem-04052316563D

 84 92  0     1  0  0  0  0  0999 V2000
  -26.1476  -17.3962   14.1588 C   0  0  0  0  0  0  0  0  0  0  0  0
  -26.9019  -17.1216   15.2950 C   0  0  0  0  0  0  0  0  0  0  0  0
  -26.3424  -28.0351   18.9452 C   0  0  0  0  0  0  0  0  0  0  0  0
  -26.2624  -27.2228   21.2192 C   0  0  0  0  0  0  0  0  0  0  0  0
  -24.7944  -17.0620   14.1242 C   0  0  0  0  0  0  0  0  0  0  0  0
  -26.3031  -16.5136   16.3979 C   0  0  0  0  0  0  0  0  0  0  0  0
  -29.1301  -12.7844   18.3333 C   0  0  0  0  0  0  0  0  0  0  0  0
  -25.8932  -29.2836   19.3753 C   0  0  0  0  0  0  0  0  0  0  0  0
  -25.8132  -28.4714   21.6493 C   0  0  0  0  0  0  0  0  0  0  0  0
  -30.2108  -13.1540   19.1329 C   0  0  0  0  0  0  0  0  0  0  0  0
  -24.9900  -31.5514   23.3968 C   0  0  0  0  0  0  0  0  0  0  0  0
  -25.5771  -32.0942   24.5397 C   0  0  0  0  0  0  0  0  0  0  0  0
  -28.9034  -12.6864   21.1055 C   0  0  0  0  0  0  0  0  0  0  0  0
  -27.7342  -32.0508   23.4523 C   0  0  0  0  0  0  0  0  0  0  0  0
  -31.2762  -15.8647   24.0348 C   0  0  0  0  0  0  0  0  0  0  0  0
  -30.5912  -16.8756   22.1577 C   0  0  0  0  0  0  0  0  0  0  0  0
  -26.5270  -27.0047   19.8671 C   0  0  0  0  0  0  0  0  0  0  0  0
  -28.3257  -25.2818   19.3159 C   0  0  0  0  0  0  0  0  0  0  0  0
  -24.1810  -16.4409   15.2236 C   0  0  0  0  0  0  0  0  0  0  0  0
  -27.9224  -12.3727   18.9149 C   0  0  0  0  0  0  0  0  0  0  0  0
  -24.9401  -16.1721   16.3785 C   0  0  0  0  0  0  0  0  0  0  0  0
  -27.8098  -12.3096   20.3111 C   0  0  0  0  0  0  0  0  0  0  0  0
  -30.2000  -16.6587   24.3645 C   0  0  0  0  0  0  0  0  0  0  0  0
  -29.7667  -17.2983   23.1770 C   0  0  0  0  0  0  0  0  0  0  0  0
  -25.6286  -29.5018   20.7274 C   0  0  0  0  0  0  0  0  0  0  0  0
  -30.0966  -13.1078   20.5192 C   0  0  0  0  0  0  0  0  0  0  0  0
  -25.7750  -31.2582   22.2817 C   0  0  0  0  0  0  0  0  0  0  0  0
  -26.9492  -32.3439   24.5675 C   0  0  0  0  0  0  0  0  0  0  0  0
  -27.1470  -31.5079   22.3094 C   0  0  0  0  0  0  0  0  0  0  0  0
  -26.9905  -25.7146   19.4233 C   0  0  0  0  0  0  0  0  0  0  0  0
  -28.2325  -23.9921   18.8528 C   0  0  0  0  0  0  0  0  0  0  0  0
  -29.5417  -25.9829   19.6086 C   0  0  0  0  0  0  0  0  0  0  0  0
  -24.9333  -13.4534   18.8809 C   0  0  0  0  0  0  0  0  0  0  0  0
  -24.3384  -10.7176   20.5191 C   0  0  0  0  0  0  0  0  0  0  0  0
  -25.5259   -8.2264   22.5267 C   0  0  0  0  0  0  0  0  0  0  0  0
  -23.9294  -19.8419   19.1847 C   0  0  0  0  0  0  0  0  0  0  0  0
  -22.7044  -16.1413   15.1573 C   0  0  0  0  0  0  0  0  0  0  0  0
  -26.7748  -11.9518   18.0384 C   0  0  0  0  0  0  0  0  0  0  0  0
  -26.5415  -11.8554   20.9847 C   0  0  0  0  0  0  0  0  0  0  0  0
  -22.2335  -15.1591   16.2269 C   0  0  0  0  0  0  0  0  0  0  0  0
  -25.4177  -21.1508   16.2270 C   0  0  0  0  0  0  0  0  0  0  0  0
  -22.7998  -15.5427   17.5903 C   0  0  0  0  0  0  0  0  0  0  0  0
  -26.1100  -22.4298   16.7011 C   0  0  0  0  0  0  0  0  0  0  0  0
  -24.0984  -20.9183   16.9600 C   0  0  0  0  0  0  0  0  0  0  0  0
  -24.8897  -22.2075   18.9056 C   0  0  0  0  0  0  0  0  0  0  0  0
  -24.3324  -15.4910   17.5855 C   0  0  1  0  0  0  0  0  0  0  0  0
  -25.4232  -12.0399   18.7403 C   0  0  1  0  0  0  0  0  0  0  0  0
  -26.2517  -22.4552   18.2349 C   0  0  2  0  0  0  0  0  0  0  0  0
  -29.6137  -16.8066   25.7114 C   0  0  0  0  0  0  0  0  0  0  0  0
  -24.7939   -6.1517   23.7338 C   0  0  0  0  0  0  0  0  0  0  0  0
  -23.0004  -12.4360   22.6561 C   0  0  0  0  0  0  0  0  0  0  0  0
  -23.1497  -10.4856   24.2188 C   0  0  0  0  0  0  0  0  0  0  0  0
  -21.8007  -10.3061   22.1282 C   0  0  0  0  0  0  0  0  0  0  0  0
  -27.3945   -6.5287   20.9823 C   0  0  0  0  0  0  0  0  0  0  0  0
  -28.6416  -18.2447   23.0437 C   0  0  0  0  0  0  0  0  0  0  0  0
  -27.3865  -17.5964   22.4256 C   0  0  0  0  0  0  0  0  0  0  0  0
  -26.2415  -18.5965   22.2523 C   0  0  0  0  0  0  0  0  0  0  0  0
  -24.9955  -17.9193   21.6739 C   0  0  0  0  0  0  0  0  0  0  0  0
  -32.5944  -15.3038   21.9158 C   0  0  0  0  0  0  0  0  0  0  0  0
  -23.8382  -18.8927   21.4760 C   0  0  0  0  0  0  0  0  0  0  0  0
  -32.0412  -14.4521   20.7784 C   0  0  0  0  0  0  0  0  0  1  0  0
  -24.3244  -10.3260   21.9770 C   0  0  1  0  0  0  0  0  0  0  0  0
  -25.3827   -6.7170   22.4507 C   0  0  2  0  0  0  0  0  0  0  0  0
  -23.0922  -10.8989   22.7326 C   0  0  0  0  0  0  0  0  0  0  0  0
  -26.1132  -24.7761   19.0577 N   0  0  0  0  0  0  0  0  0  0  0  0
  -31.5048  -16.0042   22.6907 N   0  0  0  0  0  0  0  0  0  0  0  0
  -26.8990  -23.7407   18.7160 N   0  0  0  0  0  0  0  0  0  0  0  0
  -25.4456  -11.4601   20.0847 N   0  0  0  0  0  0  0  0  0  0  0  0
  -24.3022  -20.9528   18.4103 N   0  0  0  0  0  0  0  0  0  0  0  0
  -29.1619  -23.0599   18.5533 N   0  0  0  0  0  0  0  0  0  0  0  0
  -29.4567  -27.3015   20.0759 N   0  0  0  0  0  0  0  0  0  0  0  0
  -24.7923  -14.1221   17.6798 N   0  0  0  0  0  0  0  0  0  0  0  0
  -24.4219   -8.8708   22.0098 N   0  0  0  0  0  0  0  0  0  0  0  0
  -24.1626  -19.9547   20.5499 N   0  0  0  0  0  0  0  0  0  0  0  0
  -26.7114   -6.0815   22.2234 N   0  3  0  0  0  0  0  0  0  0  0  0
  -30.6706  -25.4612   19.4447 O   0  0  0  0  0  0  0  0  0  0  0  0
  -24.6990  -13.9036   19.9963 O   0  0  0  0  0  0  0  0  0  0  0  0
  -23.4050  -10.3711   19.7909 O   0  0  0  0  0  0  0  0  0  0  0  0
  -26.5162   -8.7785   23.0009 O   0  0  0  0  0  0  0  0  0  0  0  0
  -23.4309  -18.8227   18.6952 O   0  0  0  0  0  0  0  0  0  0  0  0
  -25.1905  -30.7200   21.1475 O   0  0  0  0  0  0  0  0  0  0  0  0
  -31.1497  -13.4686   21.3020 O   0  0  0  0  0  0  0  0  0  1  0  0
  -27.5126  -32.8667   25.6645 F   0  0  0  0  0  0  0  0  0  0  0  0
  -27.9061  -31.2293   21.2408 F   0  0  0  0  0  0  0  0  0  0  0  0
  1  2  1  0  0  0  0
  1  5  2  0  0  0  0
  2  6  2  0  0  0  0
  3  8  2  0  0  0  0
  3 17  1  0  0  0  0
  4  9  1  0  0  0  0
  4 17  2  0  0  0  0
  5 19  1  0  0  0  0
  6 21  1  0  0  0  0
  7 10  2  0  0  0  0
  7 20  1  0  0  0  0
  8 25  1  0  0  0  0
  9 25  2  0  0  0  0
 10 26  1  0  0  0  0
 11 12  2  0  0  0  0
 11 27  1  0  0  0  0
 12 28  1  0  0  0  0
 13 22  1  0  0  0  0
 13 26  2  0  0  0  0
 14 28  2  0  0  0  0
 14 29  1  0  0  0  0
 15 23  2  0  0  0  0
 15 66  1  0  0  0  0
 16 24  2  0  0  0  0
 16 66  1  0  0  0  0
 17 30  1  0  0  0  0
 18 30  1  0  0  0  0
 18 31  2  0  0  0  0
 18 32  1  0  0  0  0
 19 21  2  0  0  0  0
 19 37  1  0  0  0  0
 20 22  2  0  0  0  0
 20 38  1  0  0  0  0
 21 46  1  0  0  0  0
 22 39  1  0  0  0  0
 23 24  1  0  0  0  0
 23 49  1  0  0  0  0
 24 55  1  0  0  0  0
 25 81  1  0  0  0  0
 26 82  1  0  0  0  0
 27 29  2  0  0  0  0
 27 81  1  0  0  0  0
 28 83  1  0  0  0  0
 29 84  1  0  0  0  0
 30 65  2  0  0  0  0
 31 67  1  0  0  0  0
 31 70  1  0  0  0  0
 32 71  1  0  0  0  0
 32 76  2  0  0  0  0
 33 47  1  0  0  0  0
 33 72  1  0  0  0  0
 33 77  2  0  0  0  0
 34 62  1  0  0  0  0
 34 68  1  0  0  0  0
 34 78  2  0  0  0  0
 35 63  1  0  0  0  0
 35 73  1  0  0  0  0
 35 79  2  0  0  0  0
 36 69  1  0  0  0  0
 36 74  1  0  0  0  0
 36 80  2  0  0  0  0
 37 40  1  0  0  0  0
 38 47  1  0  0  0  0
 39 68  1  0  0  0  0
 40 42  1  0  0  0  0
 41 43  1  0  0  0  0
 41 44  1  0  0  0  0
 42 46  1  0  0  0  0
 43 48  1  0  0  0  0
 44 69  1  0  0  0  0
 45 48  1  0  0  0  0
 45 69  1  0  0  0  0
 46 72  1  0  0  0  0
 47 68  1  0  0  0  0
 48 67  1  0  0  0  0
 50 63  1  0  0  0  0
 51 64  1  0  0  0  0
 52 64  1  0  0  0  0
 53 64  1  0  0  0  0
 54 75  1  0  0  0  0
 55 56  1  0  0  0  0
 56 57  1  0  0  0  0
 57 58  1  0  0  0  0
 58 60  1  0  0  0  0
 59 61  1  0  0  0  0
 59 66  1  0  0  0  0
 60 74  1  0  0  0  0
 61 82  1  0  0  0  0
 62 64  1  0  0  0  0
 62 73  1  0  0  0  0
 63 75  1  0  0  0  0
 65 67  1  0  0  0  0
M  CHG  1  75   1
M  ISO  4  36 100  61 101  74 100  82 101
M  END
> <Batch ID>
0036

> <Smiles>
CNC(C)C(=O)NC(C(=O)N1Cc2cc([101O:1][101CH2:1]Cn3cc(C)c(CCCCC[100NH:0][100C:0](=O)N4CCCC(n5nc(-c6ccc(Oc7ccc(F)cc7F)cc6)c(C(N)=O)c5N)C4)c3)ccc2CC1C(=O)NC1CCCc2ccccc21)C(C)(C)C

> <Shape>
0.234

> <Color>
0.078

> <Negative vol penalty>
0.000

$$$$

  -OEChem-04052316563D

 85 93  0     1  0  0  0  0  0999 V2000
  -30.4523  -33.4246   25.5833 C   0  0  0  0  0  0  0  0  0  0  0  0
  -30.4074  -32.3158   24.7443 C   0  0  0  0  0  0  0  0  0  0  0  0
  -22.9506  -10.0185   20.0192 C   0  0  0  0  0  0  0  0  0  0  0  0
  -23.6915  -10.0694   22.3182 C   0  0  0  0  0  0  0  0  0  0  0  0
  -29.3407  -33.7583   26.3559 C   0  0  0  0  0  0  0  0  0  0  0  0
  -29.2511  -31.5393   24.6782 C   0  0  0  0  0  0  0  0  0  0  0  0
  -27.0212  -28.6684   19.7496 C   0  0  0  0  0  0  0  0  0  0  0  0
  -22.1662   -8.8990   20.2968 C   0  0  0  0  0  0  0  0  0  0  0  0
  -22.9071   -8.9499   22.5959 C   0  0  0  0  0  0  0  0  0  0  0  0
  -27.1056  -27.3459   19.3163 C   0  0  0  0  0  0  0  0  0  0  0  0
  -23.0902   -5.6047   22.1411 C   0  0  0  0  0  0  0  0  0  0  0  0
  -23.6649   -4.5816   22.8951 C   0  0  0  0  0  0  0  0  0  0  0  0
  -24.9653  -26.8840   20.3286 C   0  0  0  0  0  0  0  0  0  0  0  0
  -27.0034  -20.6643   17.3158 C   0  0  0  0  0  0  0  0  0  0  0  0
  -26.9073  -23.0076   16.7355 C   0  0  0  0  0  0  0  0  0  0  0  0
  -27.4116  -22.3444   19.0033 C   0  0  0  0  0  0  0  0  0  0  0  0
  -21.9564   -4.8637   24.5799 C   0  0  0  0  0  0  0  0  0  0  0  0
  -23.7133  -10.6037   21.0299 C   0  0  0  0  0  0  0  0  0  0  0  0
  -24.1412  -13.1112   20.8374 C   0  0  0  0  0  0  0  0  0  0  0  0
  -28.1668  -32.9911   26.2920 C   0  0  0  0  0  0  0  0  0  0  0  0
  -25.9114  -29.1065   20.4864 C   0  0  0  0  0  0  0  0  0  0  0  0
  -28.1232  -31.8622   25.4517 C   0  0  0  0  0  0  0  0  0  0  0  0
  -24.8680  -28.2131   20.7680 C   0  0  0  0  0  0  0  0  0  0  0  0
  -26.8033  -21.6665   16.3664 C   0  0  0  0  0  0  0  0  0  0  0  0
  -27.3075  -21.0033   18.6342 C   0  0  0  0  0  0  0  0  0  0  0  0
  -27.2115  -23.3466   18.0539 C   0  0  0  0  0  0  0  0  0  0  0  0
  -22.1444   -8.3647   21.5851 C   0  0  0  0  0  0  0  0  0  0  0  0
  -26.0789  -26.4528   19.6082 C   0  0  0  0  0  0  0  0  0  0  0  0
  -21.9487   -6.2574   22.6065 C   0  0  0  0  0  0  0  0  0  0  0  0
  -23.0980   -4.2110   24.1145 C   0  0  0  0  0  0  0  0  0  0  0  0
  -21.3818   -5.8869   23.8259 C   0  0  0  0  0  0  0  0  0  0  0  0
  -24.5242  -11.7598   20.7437 C   0  0  0  0  0  0  0  0  0  0  0  0
  -25.2609  -13.8123   20.4619 C   0  0  0  0  0  0  0  0  0  0  0  0
  -22.8854  -13.6817   21.2290 C   0  0  0  0  0  0  0  0  0  0  0  0
  -25.4810  -30.2829   23.4078 C   0  0  0  0  0  0  0  0  0  0  0  0
  -22.4333  -30.6876   22.3733 C   0  0  0  0  0  0  0  0  0  0  0  0
  -19.9527  -29.7445   20.2276 C   0  0  0  0  0  0  0  0  0  0  0  0
  -30.7742  -14.6523   20.6699 C   0  0  0  0  0  0  0  0  0  0  0  0
  -27.0070  -33.3633   27.1813 C   0  0  0  0  0  0  0  0  0  0  0  0
  -25.8231  -30.5430   20.9236 C   0  0  0  0  0  0  0  0  0  0  0  0
  -23.6457  -28.6387   21.5383 C   0  0  0  0  0  0  0  0  0  0  0  0
  -25.6908  -32.7071   26.7724 C   0  0  0  0  0  0  0  0  0  0  0  0
  -29.5763  -12.2361   18.3454 C   0  0  0  0  0  0  0  0  0  0  0  0
  -25.8986  -31.2218   26.4942 C   0  0  0  0  0  0  0  0  0  0  0  0
  -28.1263  -12.0039   18.7737 C   0  0  0  0  0  0  0  0  0  0  0  0
  -30.4905  -12.4623   19.5475 C   0  0  0  0  0  0  0  0  0  0  0  0
  -28.6033  -13.2983   20.8940 C   0  0  0  0  0  0  0  0  0  0  0  0
  -26.8784  -31.0096   25.3339 C   0  0  1  0  0  0  0  0  0  0  0  0
  -24.8860  -30.7501   22.1095 C   0  0  1  0  0  0  0  0  0  0  0  0
  -27.6334  -13.1209   19.7132 C   0  0  2  0  0  0  0  0  0  0  0  0
  -27.7287  -21.1410   14.0962 C   0  0  0  0  0  0  0  0  0  0  0  0
  -17.5602  -30.2303   19.6469 C   0  0  0  0  0  0  0  0  0  0  0  0
  -21.5229  -29.1418   24.8414 C   0  0  0  0  0  0  0  0  0  0  0  0
  -19.2937  -28.8378   23.7429 C   0  0  0  0  0  0  0  0  0  0  0  0
  -20.1157  -31.1312   24.2787 C   0  0  0  0  0  0  0  0  0  0  0  0
  -20.6671  -30.5726   17.4776 C   0  0  0  0  0  0  0  0  0  0  0  0
  -26.4784  -21.3034   14.9568 C   0  0  0  0  0  0  0  0  0  0  0  0
  -27.5220  -19.9321   19.6497 C   0  0  0  0  0  0  0  0  0  0  0  0
  -27.3233  -24.7893   18.4505 C   0  0  0  0  0  0  0  0  0  1  0  0
  -28.9921  -19.4936   19.7307 C   0  0  0  0  0  0  0  0  0  0  0  0
  -29.1937  -18.3675   20.7467 C   0  0  0  0  0  0  0  0  0  0  0  0
  -30.6685  -17.9669   20.8462 C   0  0  0  0  0  0  0  0  0  0  0  0
  -30.9025  -16.8359   21.8424 C   0  0  0  0  0  0  0  0  0  0  0  0
  -21.1809  -29.8447   22.3807 C   0  0  1  0  0  0  0  0  0  0  0  0
  -19.0159  -30.5565   19.3516 C   0  0  2  0  0  0  0  0  0  0  0  0
  -20.5521  -29.7300   23.7981 C   0  0  0  0  0  0  0  0  0  0  0  0
  -25.7885  -11.6090   20.3401 N   0  0  0  0  0  0  0  0  0  0  0  0
  -26.2096  -12.8748   20.1768 N   0  0  0  0  0  0  0  0  0  0  0  0
  -23.6089  -30.0519   21.9494 N   0  0  0  0  0  0  0  0  0  0  0  0
  -29.9678  -13.5351   20.3971 N   0  0  0  0  0  0  0  0  0  0  0  0
  -25.5167  -15.1332   20.3509 N   0  0  0  0  0  0  0  0  0  0  0  0
  -21.8407  -12.8176   21.5840 N   0  0  0  0  0  0  0  0  0  0  0  0
  -26.2202  -31.2465   24.0669 N   0  0  0  0  0  0  0  0  0  0  0  0
  -20.2932  -30.4238   21.3782 N   0  0  0  0  0  0  0  0  0  0  0  0
  -30.1999  -15.6258   21.4782 N   0  0  0  0  0  0  0  0  0  0  0  0
  -19.2781  -30.2743   17.9120 N   0  3  0  0  0  0  0  0  0  0  0  0
  -22.6904  -14.9207   21.2472 O   0  0  0  0  0  0  0  0  0  0  0  0
  -25.2826  -29.1337   23.7844 O   0  0  0  0  0  0  0  0  0  0  0  0
  -22.3694  -31.8686   22.7237 O   0  0  0  0  0  0  0  0  0  0  0  0
  -20.3404  -28.6186   19.9236 O   0  0  0  0  0  0  0  0  0  0  0  0
  -31.9191  -14.7758   20.2217 O   0  0  0  0  0  0  0  0  0  0  0  0
  -21.3789   -7.2725   21.8564 O   0  0  0  0  0  0  0  0  0  0  0  0
  -26.1590  -25.1613   19.1870 O   0  0  0  0  0  0  0  0  0  1  0  0
  -23.6490   -3.2274   24.8377 F   0  0  0  0  0  0  0  0  0  0  0  0
  -20.2845   -6.5094   24.2777 F   0  0  0  0  0  0  0  0  0  0  0  0
  1  2  1  0  0  0  0
  1  5  2  0  0  0  0
  2  6  2  0  0  0  0
  3  8  2  0  0  0  0
  3 18  1  0  0  0  0
  4  9  1  0  0  0  0
  4 18  2  0  0  0  0
  5 20  1  0  0  0  0
  6 22  1  0  0  0  0
  7 10  2  0  0  0  0
  7 21  1  0  0  0  0
  8 27  1  0  0  0  0
  9 27  2  0  0  0  0
 10 28  1  0  0  0  0
 11 12  2  0  0  0  0
 11 29  1  0  0  0  0
 12 30  1  0  0  0  0
 13 23  1  0  0  0  0
 13 28  2  0  0  0  0
 14 24  1  0  0  0  0
 14 25  2  0  0  0  0
 15 24  2  0  0  0  0
 15 26  1  0  0  0  0
 16 25  1  0  0  0  0
 16 26  2  0  0  0  0
 17 30  2  0  0  0  0
 17 31  1  0  0  0  0
 18 32  1  0  0  0  0
 19 32  1  0  0  0  0
 19 33  2  0  0  0  0
 19 34  1  0  0  0  0
 20 22  2  0  0  0  0
 20 39  1  0  0  0  0
 21 23  2  0  0  0  0
 21 40  1  0  0  0  0
 22 48  1  0  0  0  0
 23 41  1  0  0  0  0
 24 57  1  0  0  0  0
 25 58  1  0  0  0  0
 26 59  1  0  0  0  0
 27 82  1  0  0  0  0
 28 83  1  0  0  0  0
 29 31  2  0  0  0  0
 29 82  1  0  0  0  0
 30 84  1  0  0  0  0
 31 85  1  0  0  0  0
 32 67  2  0  0  0  0
 33 68  1  0  0  0  0
 33 71  1  0  0  0  0
 34 72  1  0  0  0  0
 34 77  2  0  0  0  0
 35 49  1  0  0  0  0
 35 73  1  0  0  0  0
 35 78  2  0  0  0  0
 36 64  1  0  0  0  0
 36 69  1  0  0  0  0
 36 79  2  0  0  0  0
 37 65  1  0  0  0  0
 37 74  1  0  0  0  0
 37 80  2  0  0  0  0
 38 70  1  0  0  0  0
 38 75  1  0  0  0  0
 38 81  2  0  0  0  0
 39 42  1  0  0  0  0
 40 49  1  0  0  0  0
 41 69  1  0  0  0  0
 42 44  1  0  0  0  0
 43 45  1  0  0  0  0
 43 46  1  0  0  0  0
 44 48  1  0  0  0  0
 45 50  1  0  0  0  0
 46 70  1  0  0  0  0
 47 50  1  0  0  0  0
 47 70  1  0  0  0  0
 48 73  1  0  0  0  0
 49 69  1  0  0  0  0
 50 68  1  0  0  0  0
 51 57  1  0  0  0  0
 52 65  1  0  0  0  0
 53 66  1  0  0  0  0
 54 66  1  0  0  0  0
 55 66  1  0  0  0  0
 56 76  1  0  0  0  0
 58 60  1  0  0  0  0
 59 83  1  0  0  0  0
 60 61  1  0  0  0  0
 61 62  1  0  0  0  0
 62 63  1  0  0  0  0
 63 75  1  0  0  0  0
 64 66  1  0  0  0  0
 64 74  1  0  0  0  0
 65 76  1  0  0  0  0
 67 68  1  0  0  0  0
M  CHG  1  76   1
M  ISO  4  38 100  59 101  75 100  83 101
M  END
> <Batch ID>
0036

> <Smiles>
CCc1cc(CCCCC[100NH:0][100C:0](=O)N2CCCC(n3nc(-c4ccc(Oc5ccc(F)cc5F)cc4)c(C(N)=O)c3N)C2)cc([101CH2:1][101O:1]c2ccc3c(c2)CN(C(=O)C(NC(=O)C(C)NC)C(C)(C)C)C(C(=O)NC2CCCc4ccccc42)C3)c1

> <Shape>
0.377

> <Color>
0.237

> <Negative vol penalty>
0.000

$$$$

  -OEChem-04052316563D

 94102  0     1  0  0  0  0  0999 V2000
  -25.3457  -38.0928   19.8412 C   0  0  0  0  0  0  0  0  0  0  0  0
  -26.1887  -37.1209   20.3705 C   0  0  0  0  0  0  0  0  0  0  0  0
  -23.9490  -12.1558   21.1801 C   0  0  0  0  0  0  0  0  0  0  0  0
  -25.1033  -14.2731   21.3269 C   0  0  0  0  0  0  0  0  0  0  0  0
  -23.9780  -38.0481   20.1083 C   0  0  0  0  0  0  0  0  0  0  0  0
  -25.6646  -36.1043   21.1682 C   0  0  0  0  0  0  0  0  0  0  0  0
  -26.4710  -29.1794   19.3555 C   0  0  0  0  0  0  0  0  0  0  0  0
  -25.1736  -11.4945   21.0880 C   0  0  0  0  0  0  0  0  0  0  0  0
  -26.3280  -13.6118   21.2348 C   0  0  0  0  0  0  0  0  0  0  0  0
  -26.7647  -27.8260   19.1875 C   0  0  0  0  0  0  0  0  0  0  0  0
  -28.2366  -12.2290   18.8107 C   0  0  0  0  0  0  0  0  0  0  0  0
  -29.1968  -12.7604   17.9498 C   0  0  0  0  0  0  0  0  0  0  0  0
  -25.4218  -27.2832   21.1240 C   0  0  0  0  0  0  0  0  0  0  0  0
  -25.4799  -22.2730   20.1881 C   0  0  0  0  0  0  0  0  0  0  0  0
  -27.7696  -22.9446   20.4896 C   0  0  0  0  0  0  0  0  0  0  0  0
  -30.7091  -13.0452   19.8124 C   0  0  0  0  0  0  0  0  0  0  0  0
  -23.9138  -13.5451   21.2995 C   0  0  0  0  0  0  0  0  0  0  0  0
  -21.9350  -14.5370   22.5676 C   0  0  0  0  0  0  0  0  0  0  0  0
  -23.4355  -37.0250   20.9018 C   0  0  0  0  0  0  0  0  0  0  0  0
  -25.6380  -29.5887   20.4004 C   0  0  0  0  0  0  0  0  0  0  0  0
  -24.2886  -36.0467   21.4473 C   0  0  0  0  0  0  0  0  0  0  0  0
  -25.1139  -28.6362   21.2897 C   0  0  0  0  0  0  0  0  0  0  0  0
  -26.4143  -23.2554   20.4966 C   0  0  0  0  0  0  0  0  0  0  0  0
  -26.3631  -12.2224   21.1154 C   0  0  0  0  0  0  0  0  0  0  0  0
  -26.2416  -26.8803   20.0698 C   0  0  0  0  0  0  0  0  0  0  0  0
  -28.5125  -12.1058   20.1725 C   0  0  0  0  0  0  0  0  0  0  0  0
  -30.4331  -13.1684   18.4507 C   0  0  0  0  0  0  0  0  0  0  0  0
  -29.7487  -12.5139   20.6733 C   0  0  0  0  0  0  0  0  0  0  0  0
  -22.6491  -14.2289   21.3942 C   0  0  0  0  0  0  0  0  0  0  0  0
  -25.9485  -21.0055   19.8819 C   0  0  0  0  0  0  0  0  0  0  0  0
  -28.1356  -21.6470   20.1702 C   0  0  0  0  0  0  0  0  0  0  0  0
  -20.8074  -15.1835   22.1236 C   0  0  0  0  0  0  0  0  0  0  0  0
  -22.2618  -14.2635   23.9366 C   0  0  0  0  0  0  0  0  0  0  0  0
  -23.9363  -32.4367   22.1522 C   0  0  0  0  0  0  0  0  0  0  0  0
  -21.9341  -30.1139   22.0753 C   0  0  0  0  0  0  0  0  0  0  0  0
  -19.8857  -27.4681   21.4110 C   0  0  0  0  0  0  0  0  0  0  0  0
  -19.5841  -18.3055   17.1630 C   0  0  0  0  0  0  0  0  0  0  0  0
  -21.9576  -37.0454   21.2019 C   0  0  0  0  0  0  0  0  0  0  0  0
  -25.3445  -31.0421   20.6560 C   0  0  0  0  0  0  0  0  0  0  0  0
  -24.2505  -29.1261   22.4200 C   0  0  0  0  0  0  0  0  0  0  0  0
  -21.4287  -35.7217   21.7482 C   0  0  0  0  0  0  0  0  0  0  0  0
  -17.8674  -15.4238   18.3567 C   0  0  0  0  0  0  0  0  0  0  0  0
  -22.3484  -35.1905   22.8431 C   0  0  0  0  0  0  0  0  0  0  0  0
  -18.8338  -14.8186   19.3764 C   0  0  0  0  0  0  0  0  0  0  0  0
  -18.6087  -16.0285   17.1664 C   0  0  0  0  0  0  0  0  0  0  0  0
  -20.6208  -16.4013   18.5398 C   0  0  0  0  0  0  0  0  0  0  0  0
  -23.7543  -34.9140   22.2968 C   0  0  1  0  0  0  0  0  0  0  0  0
  -23.9215  -31.2856   21.1900 C   0  0  1  0  0  0  0  0  0  0  0  0
  -19.9227  -15.8288   19.7852 C   0  0  2  0  0  0  0  0  0  0  0  0
  -23.5040  -18.0712   20.4469 C   0  0  0  0  0  0  0  0  0  0  0  0
  -17.5411  -26.6517   21.7767 C   0  0  0  0  0  0  0  0  0  0  0  0
  -22.6193  -29.4555   24.9738 C   0  0  0  0  0  0  0  0  0  0  0  0
  -20.6962  -27.8525   24.9900 C   0  0  0  0  0  0  0  0  0  0  0  0
  -20.2872  -30.2846   24.6152 C   0  0  0  0  0  0  0  0  0  0  0  0
  -19.3507  -27.3465   18.5027 C   0  0  0  0  0  0  0  0  0  0  0  0
  -25.9620  -24.6455   20.8346 C   0  0  0  0  0  0  0  0  0  1  0  0
  -24.9746  -19.9266   19.5443 C   0  0  0  0  0  0  0  0  0  0  0  0
  -29.5814  -21.2780   20.1549 C   0  0  0  0  0  0  0  0  0  0  0  0
  -24.5220  -19.1478   20.7884 C   0  0  0  0  0  0  0  0  0  0  0  0
  -30.2728  -21.4743   18.7936 C   0  0  0  0  0  0  0  0  0  0  0  0
  -29.5957  -20.6914   17.6643 C   0  0  0  0  0  0  0  0  0  0  0  0
  -23.8167  -20.5789   14.9818 C   0  0  0  0  0  0  0  0  0  0  0  0
  -22.9719  -20.2934   16.2253 C   0  0  0  0  0  0  0  0  0  0  0  0
  -25.2571  -20.0942   15.1638 C   0  0  0  0  0  0  0  0  0  0  0  0
  -21.5237  -20.7514   16.0294 C   0  0  0  0  0  0  0  0  0  0  0  0
  -30.3294  -20.8880   16.3363 C   0  0  0  0  0  0  0  0  0  0  0  0
  -26.0892  -20.3445   13.9028 C   0  0  0  0  0  0  0  0  0  0  0  0
  -20.6673  -20.5357   17.2730 C   0  0  0  0  0  0  0  0  0  0  0  0
  -29.6738  -20.0805   15.2259 C   0  0  0  0  0  0  0  0  0  0  0  0
  -27.5136  -19.8125   14.0009 C   0  0  0  0  0  0  0  0  0  0  0  0
  -21.3630  -28.9121   22.7846 C   0  0  1  0  0  0  0  0  0  0  0  0
  -18.4796  -27.4003   20.8430 C   0  0  2  0  0  0  0  0  0  0  0  0
  -21.2623  -29.1236   24.3217 C   0  0  0  0  0  0  0  0  0  0  0  0
  -22.0272  -14.6452   20.2878 N   0  0  0  0  0  0  0  0  0  0  0  0
  -27.2570  -20.6660   19.8650 N   0  0  0  0  0  0  0  0  0  0  0  0
  -20.9105  -15.2215   20.7641 N   0  0  0  0  0  0  0  0  0  0  0  0
  -23.3262  -30.1622   21.9334 N   0  0  0  0  0  0  0  0  0  0  0  0
  -19.6260  -16.9788   17.6224 N   0  0  0  0  0  0  0  0  0  0  0  0
  -19.7478  -15.7175   22.7673 N   0  0  0  0  0  0  0  0  0  0  0  0
  -23.4590  -13.5905   24.2161 N   0  0  0  0  0  0  0  0  0  0  0  0
  -23.7727  -33.6718   21.5545 N   0  0  0  0  0  0  0  0  0  0  0  0
  -20.0884  -28.6231   22.1364 N   0  0  0  0  0  0  0  0  0  0  0  0
  -20.5814  -19.1422   17.6489 N   0  0  0  0  0  0  0  0  0  0  0  0
  -18.4861  -26.7037   19.5256 N   0  3  0  0  0  0  0  0  0  0  0  0
  -28.2554  -20.4928   15.0978 N   0  3  0  0  0  0  0  0  0  0  0  0
  -21.5063  -14.5911   24.8829 O   0  0  0  0  0  0  0  0  0  0  0  0
  -24.0836  -32.2215   23.3496 O   0  0  0  0  0  0  0  0  0  0  0  0
  -21.1694  -30.9902   21.6624 O   0  0  0  0  0  0  0  0  0  0  0  0
  -20.7197  -26.5831   21.2324 O   0  0  0  0  0  0  0  0  0  0  0  0
  -18.7186  -18.7156   16.3821 O   0  0  0  0  0  0  0  0  0  0  0  0
  -27.5583  -11.5774   21.0258 O   0  0  0  0  0  0  0  0  0  0  0  0
  -26.5288  -25.5603   19.8974 O   0  0  0  0  0  0  0  0  0  1  0  0
  -31.3557  -13.6772   17.6236 F   0  0  0  0  0  0  0  0  0  0  0  0
  -30.0200  -12.3969   21.9804 F   0  0  0  0  0  0  0  0  0  0  0  0
  1  2  1  0  0  0  0
  1  5  2  0  0  0  0
  2  6  2  0  0  0  0
  3  8  2  0  0  0  0
  3 17  1  0  0  0  0
  4  9  1  0  0  0  0
  4 17  2  0  0  0  0
  5 19  1  0  0  0  0
  6 21  1  0  0  0  0
  7 10  2  0  0  0  0
  7 20  1  0  0  0  0
  8 24  1  0  0  0  0
  9 24  2  0  0  0  0
 10 25  1  0  0  0  0
 11 12  2  0  0  0  0
 11 26  1  0  0  0  0
 12 27  1  0  0  0  0
 13 22  1  0  0  0  0
 13 25  2  0  0  0  0
 14 23  2  0  0  0  0
 14 30  1  0  0  0  0
 15 23  1  0  0  0  0
 15 31  2  0  0  0  0
 16 27  2  0  0  0  0
 16 28  1  0  0  0  0
 17 29  1  0  0  0  0
 18 29  1  0  0  0  0
 18 32  2  0  0  0  0
 18 33  1  0  0  0  0
 19 21  2  0  0  0  0
 19 38  1  0  0  0  0
 20 22  2  0  0  0  0
 20 39  1  0  0  0  0
 21 47  1  0  0  0  0
 22 40  1  0  0  0  0
 23 56  1  0  0  0  0
 24 91  1  0  0  0  0
 25 92  1  0  0  0  0
 26 28  2  0  0  0  0
 26 91  1  0  0  0  0
 27 93  1  0  0  0  0
 28 94  1  0  0  0  0
 29 74  2  0  0  0  0
 30 57  1  0  0  0  0
 30 75  2  0  0  0  0
 31 58  1  0  0  0  0
 31 75  1  0  0  0  0
 32 76  1  0  0  0  0
 32 79  1  0  0  0  0
 33 80  1  0  0  0  0
 33 86  2  0  0  0  0
 34 48  1  0  0  0  0
 34 81  1  0  0  0  0
 34 87  2  0  0  0  0
 35 71  1  0  0  0  0
 35 77  1  0  0  0  0
 35 88  2  0  0  0  0
 36 72  1  0  0  0  0
 36 82  1  0  0  0  0
 36 89  2  0  0  0  0
 37 78  1  0  0  0  0
 37 83  1  0  0  0  0
 37 90  2  0  0  0  0
 38 41  1  0  0  0  0
 39 48  1  0  0  0  0
 40 77  1  0  0  0  0
 41 43  1  0  0  0  0
 42 44  1  0  0  0  0
 42 45  1  0  0  0  0
 43 47  1  0  0  0  0
 44 49  1  0  0  0  0
 45 78  1  0  0  0  0
 46 49  1  0  0  0  0
 46 78  1  0  0  0  0
 47 81  1  0  0  0  0
 48 77  1  0  0  0  0
 49 76  1  0  0  0  0
 50 59  1  0  0  0  0
 51 72  1  0  0  0  0
 52 73  1  0  0  0  0
 53 73  1  0  0  0  0
 54 73  1  0  0  0  0
 55 84  1  0  0  0  0
 56 92  1  0  0  0  0
 57 59  1  0  0  0  0
 58 60  1  0  0  0  0
 60 61  1  0  0  0  0
 61 66  1  0  0  0  0
 62 63  1  0  0  0  0
 62 64  1  0  0  0  0
 63 65  1  0  0  0  0
 64 67  1  0  0  0  0
 65 68  1  0  0  0  0
 66 69  1  0  0  0  0
 67 70  1  0  0  0  0
 68 83  1  0  0  0  0
 69 85  1  0  0  0  0
 70 85  1  0  0  0  0
 71 73  1  0  0  0  0
 71 82  1  0  0  0  0
 72 84  1  0  0  0  0
 74 76  1  0  0  0  0
M  CHG  2  84   1  85   1
M  ISO  4  37 100  56 101  83 100  92 101
M  END
> <Batch ID>
0036

> <Smiles>
CCCc1cc([101CH2:1][101O:1]c2ccc3c(c2)CN(C(=O)C(NC(=O)C(C)NC)C(C)(C)C)C(C(=O)NC2CCCc4ccccc42)C3)cc(CCCCCNCCCCCCC[100NH:0][100C:0](=O)N2CCCC(n3nc(-c4ccc(Oc5ccc(F)cc5F)cc4)c(C(N)=O)c3N)C2)n1

> <Shape>
0.227

> <Color>
0.088

> <Negative vol penalty>
0.000

$$$$

  -OEChem-04052316563D

 82 90  0     1  0  0  0  0  0999 V2000
  -26.1238  -16.3465   23.4079 C   0  0  0  0  0  0  0  0  0  0  0  0
  -26.8005  -17.5620   23.4208 C   0  0  0  0  0  0  0  0  0  0  0  0
  -26.3373  -12.8720   21.3912 C   0  0  0  0  0  0  0  0  0  0  0  0
  -26.1771  -13.2942   19.0178 C   0  0  0  0  0  0  0  0  0  0  0  0
  -24.8658  -16.2566   22.8137 C   0  0  0  0  0  0  0  0  0  0  0  0
  -26.2198  -18.6881   22.8385 C   0  0  0  0  0  0  0  0  0  0  0  0
  -26.7268  -24.4890   24.7354 C   0  0  0  0  0  0  0  0  0  0  0  0
  -25.1002  -12.2283   21.3602 C   0  0  0  0  0  0  0  0  0  0  0  0
  -24.9401  -12.6505   18.9867 C   0  0  0  0  0  0  0  0  0  0  0  0
  -27.5387  -25.5439   24.3208 C   0  0  0  0  0  0  0  0  0  0  0  0
  -23.8867   -9.2069   20.4485 C   0  0  0  0  0  0  0  0  0  0  0  0
  -23.7696   -7.9945   21.1282 C   0  0  0  0  0  0  0  0  0  0  0  0
  -25.7570  -26.3523   22.9096 C   0  0  0  0  0  0  0  0  0  0  0  0
  -22.0346   -8.9410   22.5178 C   0  0  0  0  0  0  0  0  0  0  0  0
  -31.0509  -24.9714   19.1070 C   0  0  0  0  0  0  0  0  0  0  0  0
  -26.8757  -13.4050   20.2200 C   0  0  0  0  0  0  0  0  0  0  0  0
  -29.4205  -13.4875   20.0621 C   0  0  0  0  0  0  0  0  0  0  0  0
  -24.2652  -17.3844   22.2324 C   0  0  0  0  0  0  0  0  0  0  0  0
  -25.4256  -24.3514   24.2311 C   0  0  0  0  0  0  0  0  0  0  0  0
  -24.9530  -18.6129   22.2348 C   0  0  0  0  0  0  0  0  0  0  0  0
  -24.9298  -25.2963   23.3214 C   0  0  0  0  0  0  0  0  0  0  0  0
  -30.0839  -23.9870   19.0937 C   0  0  0  0  0  0  0  0  0  0  0  0
  -24.4017  -12.1175   20.1580 C   0  0  0  0  0  0  0  0  0  0  0  0
  -27.0548  -26.4741   23.4055 C   0  0  0  0  0  0  0  0  0  0  0  0
  -23.0778  -10.2864   20.8035 C   0  0  0  0  0  0  0  0  0  0  0  0
  -22.8435   -7.8615   22.1628 C   0  0  0  0  0  0  0  0  0  0  0  0
  -22.1517  -10.1535   21.8381 C   0  0  0  0  0  0  0  0  0  0  0  0
  -28.1532  -14.0706   20.2515 C   0  0  0  0  0  0  0  0  0  0  0  0
  -28.8442  -24.3614   19.5704 C   0  0  0  0  0  0  0  0  0  0  0  0
  -30.3019  -14.5333   20.1878 C   0  0  0  0  0  0  0  0  0  0  0  0
  -29.5856  -26.4691   19.9886 C   0  0  0  0  0  0  0  0  0  0  0  0
  -29.7696  -12.1225   19.7962 C   0  0  0  0  0  0  0  0  0  0  0  0
  -23.9028  -22.1435   22.5253 C   0  0  0  0  0  0  0  0  0  0  0  0
  -21.3278  -24.0282   23.1082 C   0  0  0  0  0  0  0  0  0  0  0  0
  -20.1192  -27.1258   23.8769 C   0  0  0  0  0  0  0  0  0  0  0  0
  -29.6765  -20.3344   19.2873 C   0  0  0  0  0  0  0  0  0  0  0  0
  -22.9242  -17.2274   21.5603 C   0  0  0  0  0  0  0  0  0  0  0  0
  -24.5532  -23.2231   24.7088 C   0  0  0  0  0  0  0  0  0  0  0  0
  -23.5330  -25.2049   22.7655 C   0  0  0  0  0  0  0  0  0  0  0  0
  -22.2162  -18.5538   21.2962 C   0  0  0  0  0  0  0  0  0  0  0  0
  -30.7984  -18.7727   22.3532 C   0  0  0  0  0  0  0  0  0  0  0  0
  -23.1826  -19.5617   20.6821 C   0  0  0  0  0  0  0  0  0  0  0  0
  -30.3608  -17.3233   22.1340 C   0  0  0  0  0  0  0  0  0  0  0  0
  -29.7743  -19.7511   21.7859 C   0  0  0  0  0  0  0  0  0  0  0  0
  -29.0189  -18.0960   20.1235 C   0  0  0  0  0  0  0  0  0  0  0  0
  -24.3454  -19.8625   21.6354 C   0  0  1  0  0  0  0  0  0  0  0  0
  -23.4240  -22.8891   23.7388 C   0  0  1  0  0  0  0  0  0  0  0  0
  -30.0234  -17.0574   20.6550 C   0  0  2  0  0  0  0  0  0  0  0  0
  -17.9689  -28.3649   24.2485 C   0  0  0  0  0  0  0  0  0  0  0  0
  -20.8365  -24.0738   20.0972 C   0  0  0  0  0  0  0  0  0  0  0  0
  -19.3177  -26.0335   20.4450 C   0  0  0  0  0  0  0  0  0  0  0  0
  -18.7716  -23.8340   21.4875 C   0  0  0  0  0  0  0  0  0  0  0  0
  -20.8557  -27.8027   26.6623 C   0  0  0  0  0  0  0  0  0  0  0  0
  -30.3651  -22.6169   18.5995 C   0  0  0  0  0  0  0  0  0  0  0  0
  -29.3061  -27.8633   20.4901 C   0  0  0  0  0  0  0  0  0  0  0  0
  -29.8723  -28.1415   21.8842 C   0  0  0  0  0  0  0  0  0  0  0  0
  -29.2530  -27.2716   22.9720 C   0  0  0  0  0  0  0  0  0  1  0  0
  -20.6842  -25.2039   22.4136 C   0  0  1  0  0  0  0  0  0  0  0  0
  -19.0971  -27.5824   24.9023 C   0  0  2  0  0  0  0  0  0  0  0  0
  -19.9295  -24.7872   21.1196 C   0  0  0  0  0  0  0  0  0  0  0  0
  -30.8355  -26.2278   19.5492 N   0  0  0  0  0  0  0  0  0  0  0  0
  -28.2194  -15.3849   20.4804 N   0  0  0  0  0  0  0  0  0  0  0  0
  -28.5590  -25.5984   20.0274 N   0  0  0  0  0  0  0  0  0  0  0  0
  -29.5388  -15.6362   20.4356 N   0  0  0  0  0  0  0  0  0  0  0  0
  -22.7208  -24.0802   23.2583 N   0  0  0  0  0  0  0  0  0  0  0  0
  -29.5117  -19.4552   20.3704 N   0  0  0  0  0  0  0  0  0  0  0  0
  -31.6476  -14.6078   20.1096 N   0  0  0  0  0  0  0  0  0  0  0  0
  -28.7402  -11.1765   19.6981 N   0  0  0  0  0  0  0  0  0  0  0  0
  -23.9211  -20.7705   22.6795 N   0  0  0  0  0  0  0  0  0  0  0  0
  -19.8440  -25.8575   23.4111 N   0  0  0  0  0  0  0  0  0  0  0  0
  -30.1404  -21.6046   19.6072 N   0  0  0  0  0  0  0  0  0  0  0  0
  -19.7426  -28.4537   25.9246 N   0  3  0  0  0  0  0  0  0  0  0  0
  -30.9603  -11.7499   19.6662 O   0  0  0  0  0  0  0  0  0  0  0  0
  -24.2299  -22.7677   21.5228 O   0  0  0  0  0  0  0  0  0  0  0  0
  -20.6197  -23.1012   23.5095 O   0  0  0  0  0  0  0  0  0  0  0  0
  -21.0649  -27.8258   23.5217 O   0  0  0  0  0  0  0  0  0  0  0  0
  -29.4333  -20.0099   18.1200 O   0  0  0  0  0  0  0  0  0  0  0  0
  -23.1946  -11.4892   20.1273 O   0  0  0  0  0  0  0  0  0  0  0  0
  -27.8453  -27.5044   22.9986 O   0  0  0  0  0  0  0  0  0  1  0  0
  -22.7301   -6.6967   22.8144 F   0  0  0  0  0  0  0  0  0  0  0  0
  -21.3710  -11.1867   22.1829 F   0  0  0  0  0  0  0  0  0  0  0  0
  -27.8527  -23.4563   19.5902 F   0  0  0  0  0  0  0  0  0  0  0  0
  1  2  1  0  0  0  0
  1  5  2  0  0  0  0
  2  6  2  0  0  0  0
  3  8  2  0  0  0  0
  3 16  1  0  0  0  0
  4  9  1  0  0  0  0
  4 16  2  0  0  0  0
  5 18  1  0  0  0  0
  6 20  1  0  0  0  0
  7 10  2  0  0  0  0
  7 19  1  0  0  0  0
  8 23  1  0  0  0  0
  9 23  2  0  0  0  0
 10 24  1  0  0  0  0
 11 12  2  0  0  0  0
 11 25  1  0  0  0  0
 12 26  1  0  0  0  0
 13 21  1  0  0  0  0
 13 24  2  0  0  0  0
 14 26  2  0  0  0  0
 14 27  1  0  0  0  0
 15 22  1  0  0  0  0
 15 61  2  0  0  0  0
 16 28  1  0  0  0  0
 17 28  1  0  0  0  0
 17 30  2  0  0  0  0
 17 32  1  0  0  0  0
 18 20  2  0  0  0  0
 18 37  1  0  0  0  0
 19 21  2  0  0  0  0
 19 38  1  0  0  0  0
 20 46  1  0  0  0  0
 21 39  1  0  0  0  0
 22 29  2  0  0  0  0
 22 54  1  0  0  0  0
 23 78  1  0  0  0  0
 24 79  1  0  0  0  0
 25 27  2  0  0  0  0
 25 78  1  0  0  0  0
 26 80  1  0  0  0  0
 27 81  1  0  0  0  0
 28 62  2  0  0  0  0
 29 63  1  0  0  0  0
 29 82  1  0  0  0  0
 30 64  1  0  0  0  0
 30 67  1  0  0  0  0
 31 55  1  0  0  0  0
 31 61  1  0  0  0  0
 31 63  2  0  0  0  0
 32 68  1  0  0  0  0
 32 73  2  0  0  0  0
 33 47  1  0  0  0  0
 33 69  1  0  0  0  0
 33 74  2  0  0  0  0
 34 58  1  0  0  0  0
 34 65  1  0  0  0  0
 34 75  2  0  0  0  0
 35 59  1  0  0  0  0
 35 70  1  0  0  0  0
 35 76  2  0  0  0  0
 36 66  1  0  0  0  0
 36 71  1  0  0  0  0
 36 77  2  0  0  0  0
 37 40  1  0  0  0  0
 38 47  1  0  0  0  0
 39 65  1  0  0  0  0
 40 42  1  0  0  0  0
 41 43  1  0  0  0  0
 41 44  1  0  0  0  0
 42 46  1  0  0  0  0
 43 48  1  0  0  0  0
 44 66  1  0  0  0  0
 45 48  1  0  0  0  0
 45 66  1  0  0  0  0
 46 69  1  0  0  0  0
 47 65  1  0  0  0  0
 48 64  1  0  0  0  0
 49 59  1  0  0  0  0
 50 60  1  0  0  0  0
 51 60  1  0  0  0  0
 52 60  1  0  0  0  0
 53 72  1  0  0  0  0
 54 71  1  0  0  0  0
 55 56  1  0  0  0  0
 56 57  1  0  0  0  0
 57 79  1  0  0  0  0
 58 60  1  0  0  0  0
 58 70  1  0  0  0  0
 59 72  1  0  0  0  0
 62 64  1  0  0  0  0
M  CHG  1  72   1
M  ISO  4  36 100  57 101  71 100  79 101
M  END
> <Batch ID>
0036

> <Smiles>
CNC(C)C(=O)NC(C(=O)N1Cc2cc([101O:1][101CH2:1]CCc3ncc(C[100NH:0][100C:0](=O)N4CCCC(n5nc(-c6ccc(Oc7ccc(F)cc7F)cc6)c(C(N)=O)c5N)C4)c(F)n3)ccc2CC1C(=O)NC1CCCc2ccccc21)C(C)(C)C

> <Shape>
0.232

> <Color>
0.062

> <Negative vol penalty>
0.000

$$$$

  -OEChem-04052316563D

 85 93  0     1  0  0  0  0  0999 V2000
  -23.3368  -19.4273   27.7338 C   0  0  0  0  0  0  0  0  0  0  0  0
  -24.3535  -19.9169   26.9201 C   0  0  0  0  0  0  0  0  0  0  0  0
  -26.8966  -13.0923   21.0049 C   0  0  0  0  0  0  0  0  0  0  0  0
  -26.8079  -13.3354   18.6028 C   0  0  0  0  0  0  0  0  0  0  0  0
  -22.0064  -19.7214   27.4383 C   0  0  0  0  0  0  0  0  0  0  0  0
  -24.0402  -20.7001   25.8098 C   0  0  0  0  0  0  0  0  0  0  0  0
  -27.2911  -25.3833   23.5725 C   0  0  0  0  0  0  0  0  0  0  0  0
  -26.3099  -11.8313   20.8990 C   0  0  0  0  0  0  0  0  0  0  0  0
  -26.2212  -12.0743   18.4969 C   0  0  0  0  0  0  0  0  0  0  0  0
  -28.1994  -25.4760   22.5188 C   0  0  0  0  0  0  0  0  0  0  0  0
  -24.5058   -8.6979   21.2874 C   0  0  0  0  0  0  0  0  0  0  0  0
  -23.4741   -8.3846   22.1723 C   0  0  0  0  0  0  0  0  0  0  0  0
  -26.4314  -26.2484   21.0707 C   0  0  0  0  0  0  0  0  0  0  0  0
  -30.5834  -23.4684   18.2091 C   0  0  0  0  0  0  0  0  0  0  0  0
  -29.0829  -24.4762   16.0841 C   0  0  0  0  0  0  0  0  0  0  0  0
  -22.1811  -10.2398   21.3218 C   0  0  0  0  0  0  0  0  0  0  0  0
  -27.1455  -13.8444   19.8568 C   0  0  0  0  0  0  0  0  0  0  0  0
  -29.1256  -15.4503   19.9453 C   0  0  0  0  0  0  0  0  0  0  0  0
  -21.6772  -20.5167   26.3293 C   0  0  0  0  0  0  0  0  0  0  0  0
  -25.9417  -25.7125   23.3800 C   0  0  0  0  0  0  0  0  0  0  0  0
  -22.7040  -21.0041   25.4984 C   0  0  0  0  0  0  0  0  0  0  0  0
  -25.5086  -26.1614   22.1242 C   0  0  0  0  0  0  0  0  0  0  0  0
  -30.1122  -22.6075   17.2180 C   0  0  0  0  0  0  0  0  0  0  0  0
  -30.3044  -24.8333   18.1378 C   0  0  0  0  0  0  0  0  0  0  0  0
  -29.3619  -23.1114   16.1555 C   0  0  0  0  0  0  0  0  0  0  0  0
  -25.9723  -11.3223   19.6450 C   0  0  0  0  0  0  0  0  0  0  0  0
  -27.7691  -25.9059   21.2669 C   0  0  0  0  0  0  0  0  0  0  0  0
  -24.3752   -9.7823   20.4198 C   0  0  0  0  0  0  0  0  0  0  0  0
  -22.3117   -9.1555   22.1894 C   0  0  0  0  0  0  0  0  0  0  0  0
  -23.2128  -10.5532   20.4369 C   0  0  0  0  0  0  0  0  0  0  0  0
  -29.5542  -25.3372   17.0753 C   0  0  0  0  0  0  0  0  0  0  0  0
  -27.7510  -15.1473   19.9656 C   0  0  0  0  0  0  0  0  0  0  0  0
  -29.1782  -16.8161   20.0807 C   0  0  0  0  0  0  0  0  0  0  0  0
  -30.2540  -14.5755   19.8156 C   0  0  0  0  0  0  0  0  0  0  0  0
  -23.1946  -24.1267   23.5848 C   0  0  0  0  0  0  0  0  0  0  0  0
  -21.9116  -27.0600   23.0636 C   0  0  0  0  0  0  0  0  0  0  0  0
  -22.2969  -30.2088   21.8053 C   0  0  0  0  0  0  0  0  0  0  0  0
  -25.2955  -21.1924   18.8060 C   0  0  0  0  0  0  0  0  0  0  0  0
  -20.2220  -20.7685   26.0230 C   0  0  0  0  0  0  0  0  0  0  0  0
  -24.9799  -25.6327   24.5337 C   0  0  0  0  0  0  0  0  0  0  0  0
  -24.0746  -26.5462   21.8708 C   0  0  0  0  0  0  0  0  0  0  0  0
  -19.9958  -21.9166   25.0426 C   0  0  0  0  0  0  0  0  0  0  0  0
  -26.7625  -20.4871   21.9726 C   0  0  0  0  0  0  0  0  0  0  0  0
  -20.9412  -21.7957   23.8517 C   0  0  0  0  0  0  0  0  0  0  0  0
  -27.3062  -19.0660   21.8155 C   0  0  0  0  0  0  0  0  0  0  0  0
  -25.4448  -20.6733   21.2235 C   0  0  0  0  0  0  0  0  0  0  0  0
  -26.0281  -18.8766   19.6407 C   0  0  0  0  0  0  0  0  0  0  0  0
  -22.4056  -21.8777   24.2993 C   0  0  1  0  0  0  0  0  0  0  0  0
  -23.5257  -25.5019   24.0914 C   0  0  1  0  0  0  0  0  0  0  0  0
  -27.3843  -18.6563   20.3325 C   0  0  2  0  0  0  0  0  0  0  0  0
  -30.4208  -21.1495   17.3155 C   0  0  0  0  0  0  0  0  0  0  0  0
  -21.0606  -32.3700   21.4922 C   0  0  0  0  0  0  0  0  0  0  0  0
  -20.3458  -25.8268   20.7532 C   0  0  0  0  0  0  0  0  0  0  0  0
  -19.8957  -28.1423   19.9140 C   0  0  0  0  0  0  0  0  0  0  0  0
  -19.0443  -27.4409   22.1514 C   0  0  0  0  0  0  0  0  0  0  0  0
  -24.2434  -31.6970   23.4652 C   0  0  0  0  0  0  0  0  0  0  0  0
  -30.8326  -25.7309   19.2303 C   0  0  0  0  0  0  0  0  0  0  0  0
  -28.8446  -22.2081   15.0844 C   0  0  0  0  0  0  0  0  0  0  0  0
  -27.6141  -21.4114   15.5426 C   0  0  0  0  0  0  0  0  0  0  0  0
  -26.4475  -22.3341   15.9079 C   0  0  0  0  0  0  0  0  0  0  0  0
  -25.2085  -21.5644   16.3538 C   0  0  0  0  0  0  0  0  0  0  0  0
  -30.0069  -25.6357   20.5087 C   0  0  0  0  0  0  0  0  0  1  0  0
  -21.5192  -27.8533   21.8406 C   0  0  1  0  0  0  0  0  0  0  0  0
  -21.9900  -31.5737   22.3948 C   0  0  2  0  0  0  0  0  0  0  0  0
  -20.2280  -27.3068   21.1688 C   0  0  0  0  0  0  0  0  0  0  0  0
  -26.9856  -16.2333   20.1032 N   0  0  0  0  0  0  0  0  0  0  0  0
  -27.8823  -17.2319   20.1707 N   0  0  0  0  0  0  0  0  0  0  0  0
  -23.1711  -26.4452   23.0289 N   0  0  0  0  0  0  0  0  0  0  0  0
  -25.5871  -20.2684   19.8229 N   0  0  0  0  0  0  0  0  0  0  0  0
  -30.2060  -17.6900   20.1304 N   0  0  0  0  0  0  0  0  0  0  0  0
  -30.0212  -13.1995   19.6857 N   0  0  0  0  0  0  0  0  0  0  0  0
  -22.7759  -23.2507   24.5681 N   0  0  0  0  0  0  0  0  0  0  0  0
  -21.4269  -29.2449   22.2690 N   0  0  0  0  0  0  0  0  0  0  0  0
  -25.4627  -20.7294   17.5065 N   0  0  0  0  0  0  0  0  0  0  0  0
  -23.2470  -32.3526   22.5795 N   0  3  0  0  0  0  0  0  0  0  0  0
  -31.4345  -14.9996   19.8313 O   0  0  0  0  0  0  0  0  0  0  0  0
  -23.3089  -23.8791   22.3901 O   0  0  0  0  0  0  0  0  0  0  0  0
  -21.1322  -26.9944   24.0175 O   0  0  0  0  0  0  0  0  0  0  0  0
  -23.2142  -30.0177   21.0100 O   0  0  0  0  0  0  0  0  0  0  0  0
  -24.9195  -22.3462   19.0388 O   0  0  0  0  0  0  0  0  0  0  0  0
  -25.4000  -10.0917   19.5413 O   0  0  0  0  0  0  0  0  0  0  0  0
  -28.6534  -25.9967   20.2366 O   0  0  0  0  0  0  0  0  0  1  0  0
  -21.3204   -8.8535   23.0382 F   0  0  0  0  0  0  0  0  0  0  0  0
  -23.0811  -11.5954   19.6049 F   0  0  0  0  0  0  0  0  0  0  0  0
  -29.1889  -27.0198   16.9537 Cl  0  0  0  0  0  0  0  0  0  0  0  0
  1  2  1  0  0  0  0
  1  5  2  0  0  0  0
  2  6  2  0  0  0  0
  3  8  2  0  0  0  0
  3 17  1  0  0  0  0
  4  9  1  0  0  0  0
  4 17  2  0  0  0  0
  5 19  1  0  0  0  0
  6 21  1  0  0  0  0
  7 10  2  0  0  0  0
  7 20  1  0  0  0  0
  8 26  1  0  0  0  0
  9 26  2  0  0  0  0
 10 27  1  0  0  0  0
 11 12  2  0  0  0  0
 11 28  1  0  0  0  0
 12 29  1  0  0  0  0
 13 22  1  0  0  0  0
 13 27  2  0  0  0  0
 14 23  2  0  0  0  0
 14 24  1  0  0  0  0
 15 25  2  0  0  0  0
 15 31  1  0  0  0  0
 16 29  2  0  0  0  0
 16 30  1  0  0  0  0
 17 32  1  0  0  0  0
 18 32  1  0  0  0  0
 18 33  2  0  0  0  0
 18 34  1  0  0  0  0
 19 21  2  0  0  0  0
 19 39  1  0  0  0  0
 20 22  2  0  0  0  0
 20 40  1  0  0  0  0
 21 48  1  0  0  0  0
 22 41  1  0  0  0  0
 23 25  1  0  0  0  0
 23 51  1  0  0  0  0
 24 31  2  0  0  0  0
 24 57  1  0  0  0  0
 25 58  1  0  0  0  0
 26 81  1  0  0  0  0
 27 82  1  0  0  0  0
 28 30  2  0  0  0  0
 28 81  1  0  0  0  0
 29 83  1  0  0  0  0
 30 84  1  0  0  0  0
 31 85  1  0  0  0  0
 32 66  2  0  0  0  0
 33 67  1  0  0  0  0
 33 70  1  0  0  0  0
 34 71  1  0  0  0  0
 34 76  2  0  0  0  0
 35 49  1  0  0  0  0
 35 72  1  0  0  0  0
 35 77  2  0  0  0  0
 36 63  1  0  0  0  0
 36 68  1  0  0  0  0
 36 78  2  0  0  0  0
 37 64  1  0  0  0  0
 37 73  1  0  0  0  0
 37 79  2  0  0  0  0
 38 69  1  0  0  0  0
 38 74  1  0  0  0  0
 38 80  2  0  0  0  0
 39 42  1  0  0  0  0
 40 49  1  0  0  0  0
 41 68  1  0  0  0  0
 42 44  1  0  0  0  0
 43 45  1  0  0  0  0
 43 46  1  0  0  0  0
 44 48  1  0  0  0  0
 45 50  1  0  0  0  0
 46 69  1  0  0  0  0
 47 50  1  0  0  0  0
 47 69  1  0  0  0  0
 48 72  1  0  0  0  0
 49 68  1  0  0  0  0
 50 67  1  0  0  0  0
 52 64  1  0  0  0  0
 53 65  1  0  0  0  0
 54 65  1  0  0  0  0
 55 65  1  0  0  0  0
 56 75  1  0  0  0  0
 57 62  1  0  0  0  0
 58 59  1  0  0  0  0
 59 60  1  0  0  0  0
 60 61  1  0  0  0  0
 61 74  1  0  0  0  0
 62 82  1  0  0  0  0
 63 65  1  0  0  0  0
 63 73  1  0  0  0  0
 64 75  1  0  0  0  0
 66 67  1  0  0  0  0
M  CHG  1  75   1
M  ISO  4  38 100  62 101  74 100  82 101
M  END
> <Batch ID>
0036

> <Smiles>
CNC(C)C(=O)NC(C(=O)N1Cc2cc([101O:1][101CH2:1]Cc3cc(C)c(CCCC[100NH:0][100C:0](=O)N4CCCC(n5nc(-c6ccc(Oc7ccc(F)cc7F)cc6)c(C(N)=O)c5N)C4)cc3Cl)ccc2CC1C(=O)NC1CCCc2ccccc21)C(C)(C)C

> <Shape>
0.211

> <Color>
0.085

> <Negative vol penalty>
0.000

$$$$

  -OEChem-04052316563D

 83 91  0     1  0  0  0  0  0999 V2000
  -31.9598  -25.2009   19.8352 C   0  0  0  0  0  0  0  0  0  0  0  0
  -31.1024  -24.7860   20.8492 C   0  0  0  0  0  0  0  0  0  0  0  0
  -27.8603  -16.6743   18.8574 C   0  0  0  0  0  0  0  0  0  0  0  0
  -28.4826  -16.5632   21.1892 C   0  0  0  0  0  0  0  0  0  0  0  0
  -31.9040  -26.5143   19.3707 C   0  0  0  0  0  0  0  0  0  0  0  0
  -30.1894  -25.6846   21.4000 C   0  0  0  0  0  0  0  0  0  0  0  0
  -25.5763  -23.6712   21.9573 C   0  0  0  0  0  0  0  0  0  0  0  0
  -25.4560  -20.5675   27.5294 C   0  0  0  0  0  0  0  0  0  0  0  0
  -25.1538  -19.8633   28.6948 C   0  0  0  0  0  0  0  0  0  0  0  0
  -28.7101  -17.7665   18.6826 C   0  0  0  0  0  0  0  0  0  0  0  0
  -29.3324  -17.6554   21.0145 C   0  0  0  0  0  0  0  0  0  0  0  0
  -25.3807  -22.8184   23.0427 C   0  0  0  0  0  0  0  0  0  0  0  0
  -30.4442  -20.8102   17.7068 C   0  0  0  0  0  0  0  0  0  0  0  0
  -29.9614  -21.9001   16.9826 C   0  0  0  0  0  0  0  0  0  0  0  0
  -24.3375  -24.6194   24.2621 C   0  0  0  0  0  0  0  0  0  0  0  0
  -23.6466  -19.4488   26.3841 C   0  0  0  0  0  0  0  0  0  0  0  0
  -28.1794  -22.1788   18.5900 C   0  0  0  0  0  0  0  0  0  0  0  0
  -27.7465  -16.0727   20.1107 C   0  0  0  0  0  0  0  0  0  0  0  0
  -27.1916  -13.5829   20.1411 C   0  0  0  0  0  0  0  0  0  0  0  0
  -30.9833  -27.4268   19.9094 C   0  0  0  0  0  0  0  0  0  0  0  0
  -25.1631  -25.0098   22.0203 C   0  0  0  0  0  0  0  0  0  0  0  0
  -30.1223  -27.0118   20.9432 C   0  0  0  0  0  0  0  0  0  0  0  0
  -24.5267  -25.4865   23.1751 C   0  0  0  0  0  0  0  0  0  0  0  0
  -24.7024  -20.3604   26.3740 C   0  0  0  0  0  0  0  0  0  0  0  0
  -24.0980  -18.9517   28.7049 C   0  0  0  0  0  0  0  0  0  0  0  0
  -23.3444  -18.7445   27.5495 C   0  0  0  0  0  0  0  0  0  0  0  0
  -29.4461  -18.2570   19.7611 C   0  0  0  0  0  0  0  0  0  0  0  0
  -24.7638  -23.2932   24.1964 C   0  0  0  0  0  0  0  0  0  0  0  0
  -29.7946  -20.4044   18.8726 C   0  0  0  0  0  0  0  0  0  0  0  0
  -28.8290  -22.5844   17.4242 C   0  0  0  0  0  0  0  0  0  0  0  0
  -28.6622  -21.0888   19.3142 C   0  0  0  0  0  0  0  0  0  0  0  0
  -26.8684  -14.9448   20.2920 C   0  0  0  0  0  0  0  0  0  0  0  0
  -26.0224  -12.9194   20.4224 C   0  0  0  0  0  0  0  0  0  0  0  0
  -28.4373  -12.9723   19.7792 C   0  0  0  0  0  0  0  0  0  0  0  0
  -26.6363  -27.8219   21.8623 C   0  0  0  0  0  0  0  0  0  0  0  0
  -23.6042  -28.9738   21.9039 C   0  0  0  0  0  0  0  0  0  0  0  0
  -20.3329  -28.4911   22.7480 C   0  0  0  0  0  0  0  0  0  0  0  0
  -21.2115  -14.3419   23.6909 C   0  0  0  0  0  0  0  0  0  0  0  0
  -30.9926  -28.8491   19.4075 C   0  0  0  0  0  0  0  0  0  0  0  0
  -25.3573  -25.9098   20.8309 C   0  0  0  0  0  0  0  0  0  0  0  0
  -24.0463  -26.9097   23.2857 C   0  0  0  0  0  0  0  0  0  0  0  0
  -29.7404  -29.6363   19.7851 C   0  0  0  0  0  0  0  0  0  0  0  0
  -21.2722  -13.4619   20.2414 C   0  0  0  0  0  0  0  0  0  0  0  0
  -29.4011  -29.4258   21.2573 C   0  0  0  0  0  0  0  0  0  0  0  0
  -22.7425  -13.6193   19.8496 C   0  0  0  0  0  0  0  0  0  0  0  0
  -20.8397  -14.5252   21.2486 C   0  0  0  0  0  0  0  0  0  0  0  0
  -23.1523  -14.7709   22.0643 C   0  0  0  0  0  0  0  0  0  0  0  0
  -29.1013  -27.9504   21.5488 C   0  0  1  0  0  0  0  0  0  0  0  0
  -25.3601  -27.3909   21.1965 C   0  0  1  0  0  0  0  0  0  0  0  0
  -23.6499  -13.6871   21.0927 C   0  0  2  0  0  0  0  0  0  0  0  0
  -23.7940  -18.2085   29.9641 C   0  0  0  0  0  0  0  0  0  0  0  0
  -18.0955  -29.6261   22.6906 C   0  0  0  0  0  0  0  0  0  0  0  0
  -24.4359  -30.7271   24.2585 C   0  0  0  0  0  0  0  0  0  0  0  0
  -22.0091  -31.0988   24.7490 C   0  0  0  0  0  0  0  0  0  0  0  0
  -22.9722  -31.8624   22.5783 C   0  0  0  0  0  0  0  0  0  0  0  0
  -19.1766  -26.3803   21.0257 C   0  0  0  0  0  0  0  0  0  0  0  0
  -22.2097  -17.7734   27.5365 C   0  0  0  0  0  0  0  0  0  0  0  0
  -25.0280  -21.1177   25.1203 C   0  0  0  0  0  0  0  0  0  1  0  0
  -22.5835  -16.4546   26.8436 C   0  0  0  0  0  0  0  0  0  0  0  0
  -21.4010  -15.4821   26.8043 C   0  0  0  0  0  0  0  0  0  0  0  0
  -21.7445  -14.1690   26.1086 C   0  0  0  0  0  0  0  0  0  0  0  0
  -22.6333  -29.3898   22.9824 C   0  0  1  0  0  0  0  0  0  0  0  0
  -19.0496  -28.6923   21.9623 C   0  0  2  0  0  0  0  0  0  0  0  0
  -23.0233  -30.7432   23.6410 C   0  0  0  0  0  0  0  0  0  0  0  0
  -25.5937  -15.1365   20.6418 N   0  0  0  0  0  0  0  0  0  0  0  0
  -25.1056  -13.8864   20.7130 N   0  0  0  0  0  0  0  0  0  0  0  0
  -24.2647  -27.7525   22.0984 N   0  0  0  0  0  0  0  0  0  0  0  0
  -21.7401  -14.5363   22.4041 N   0  0  0  0  0  0  0  0  0  0  0  0
  -25.6993  -11.6089   20.4469 N   0  0  0  0  0  0  0  0  0  0  0  0
  -29.5384  -13.8011   19.5240 N   0  0  0  0  0  0  0  0  0  0  0  0
  -27.7688  -27.6072   21.1002 N   0  0  0  0  0  0  0  0  0  0  0  0
  -21.3112  -29.3845   22.3657 N   0  0  0  0  0  0  0  0  0  0  0  0
  -22.1344  -14.3607   24.7294 N   0  0  0  0  0  0  0  0  0  0  0  0
  -18.3611  -27.3874   21.7521 N   0  3  0  0  0  0  0  0  0  0  0  0
  -28.5658  -11.7294   19.6688 O   0  0  0  0  0  0  0  0  0  0  0  0
  -26.5963  -28.3144   22.9837 O   0  0  0  0  0  0  0  0  0  0  0  0
  -23.7651  -29.7021   20.9214 O   0  0  0  0  0  0  0  0  0  0  0  0
  -20.4541  -27.6302   23.6167 O   0  0  0  0  0  0  0  0  0  0  0  0
  -20.0071  -14.1594   23.8983 O   0  0  0  0  0  0  0  0  0  0  0  0
  -30.2757  -19.3226   19.5909 O   0  0  0  0  0  0  0  0  0  0  0  0
  -24.5722  -22.4630   25.2576 O   0  0  0  0  0  0  0  0  0  1  0  0
  -28.3664  -23.6321   16.7295 F   0  0  0  0  0  0  0  0  0  0  0  0
  -28.0346  -20.7044   20.4341 F   0  0  0  0  0  0  0  0  0  0  0  0
  1  2  1  0  0  0  0
  1  5  2  0  0  0  0
  2  6  2  0  0  0  0
  3 10  2  0  0  0  0
  3 18  1  0  0  0  0
  4 11  1  0  0  0  0
  4 18  2  0  0  0  0
  5 20  1  0  0  0  0
  6 22  1  0  0  0  0
  7 12  2  0  0  0  0
  7 21  1  0  0  0  0
  8  9  2  0  0  0  0
  8 24  1  0  0  0  0
  9 25  1  0  0  0  0
 10 27  1  0  0  0  0
 11 27  2  0  0  0  0
 12 28  1  0  0  0  0
 13 14  2  0  0  0  0
 13 29  1  0  0  0  0
 14 30  1  0  0  0  0
 15 23  1  0  0  0  0
 15 28  2  0  0  0  0
 16 24  2  0  0  0  0
 16 26  1  0  0  0  0
 17 30  2  0  0  0  0
 17 31  1  0  0  0  0
 18 32  1  0  0  0  0
 19 32  1  0  0  0  0
 19 33  2  0  0  0  0
 19 34  1  0  0  0  0
 20 22  2  0  0  0  0
 20 39  1  0  0  0  0
 21 23  2  0  0  0  0
 21 40  1  0  0  0  0
 22 48  1  0  0  0  0
 23 41  1  0  0  0  0
 24 58  1  0  0  0  0
 25 26  2  0  0  0  0
 25 51  1  0  0  0  0
 26 57  1  0  0  0  0
 27 80  1  0  0  0  0
 28 81  1  0  0  0  0
 29 31  2  0  0  0  0
 29 80  1  0  0  0  0
 30 82  1  0  0  0  0
 31 83  1  0  0  0  0
 32 65  2  0  0  0  0
 33 66  1  0  0  0  0
 33 69  1  0  0  0  0
 34 70  1  0  0  0  0
 34 75  2  0  0  0  0
 35 49  1  0  0  0  0
 35 71  1  0  0  0  0
 35 76  2  0  0  0  0
 36 62  1  0  0  0  0
 36 67  1  0  0  0  0
 36 77  2  0  0  0  0
 37 63  1  0  0  0  0
 37 72  1  0  0  0  0
 37 78  2  0  0  0  0
 38 68  1  0  0  0  0
 38 73  1  0  0  0  0
 38 79  2  0  0  0  0
 39 42  1  0  0  0  0
 40 49  1  0  0  0  0
 41 67  1  0  0  0  0
 42 44  1  0  0  0  0
 43 45  1  0  0  0  0
 43 46  1  0  0  0  0
 44 48  1  0  0  0  0
 45 50  1  0  0  0  0
 46 68  1  0  0  0  0
 47 50  1  0  0  0  0
 47 68  1  0  0  0  0
 48 71  1  0  0  0  0
 49 67  1  0  0  0  0
 50 66  1  0  0  0  0
 52 63  1  0  0  0  0
 53 64  1  0  0  0  0
 54 64  1  0  0  0  0
 55 64  1  0  0  0  0
 56 74  1  0  0  0  0
 57 59  1  0  0  0  0
 58 81  1  0  0  0  0
 59 60  1  0  0  0  0
 60 61  1  0  0  0  0
 61 73  1  0  0  0  0
 62 64  1  0  0  0  0
 62 72  1  0  0  0  0
 63 74  1  0  0  0  0
 65 66  1  0  0  0  0
M  CHG  1  74   1
M  ISO  4  38 100  58 101  73 100  81 101
M  END
> <Batch ID>
0036

> <Smiles>
CNC(C)C(=O)NC(C(=O)N1Cc2cc([101O:1][101CH2:1]c3ccc(C)c(CCCC[100NH:0][100C:0](=O)N4CCCC(n5nc(-c6ccc(Oc7ccc(F)cc7F)cc6)c(C(N)=O)c5N)C4)c3)ccc2CC1C(=O)NC1CCCc2ccccc21)C(C)(C)C

> <Shape>
0.243

> <Color>
0.060

> <Negative vol penalty>
0.000

$$$$

  -OEChem-04052316563D

 84 92  0     1  0  0  0  0  0999 V2000
  -24.8134  -20.1445   20.5672 C   0  0  0  0  0  0  0  0  0  0  0  0
  -26.0601  -20.4684   21.0929 C   0  0  0  0  0  0  0  0  0  0  0  0
  -23.0638   -9.8764   19.9456 C   0  0  0  0  0  0  0  0  0  0  0  0
  -23.8594   -9.8679   22.2268 C   0  0  0  0  0  0  0  0  0  0  0  0
  -24.6038  -20.1976   19.1898 C   0  0  0  0  0  0  0  0  0  0  0  0
  -27.0983  -20.8445   20.2413 C   0  0  0  0  0  0  0  0  0  0  0  0
  -29.6294  -24.8911   21.9334 C   0  0  0  0  0  0  0  0  0  0  0  0
  -22.3277   -8.7188   20.1980 C   0  0  0  0  0  0  0  0  0  0  0  0
  -23.1232   -8.7103   22.4792 C   0  0  0  0  0  0  0  0  0  0  0  0
  -30.5536  -24.6822   22.9561 C   0  0  0  0  0  0  0  0  0  0  0  0
  -20.5232   -5.5622   20.1429 C   0  0  0  0  0  0  0  0  0  0  0  0
  -20.5752   -4.5394   19.1959 C   0  0  0  0  0  0  0  0  0  0  0  0
  -32.3413  -24.7022   21.3365 C   0  0  0  0  0  0  0  0  0  0  0  0
  -32.2744  -18.8121   21.4720 C   0  0  0  0  0  0  0  0  0  0  0  0
  -31.7060  -16.7495   23.2622 C   0  0  0  0  0  0  0  0  0  0  0  0
  -22.9657   -4.3746   19.5052 C   0  0  0  0  0  0  0  0  0  0  0  0
  -23.8297  -10.4509   20.9600 C   0  0  0  0  0  0  0  0  0  0  0  0
  -24.1614  -12.9781   20.8547 C   0  0  0  0  0  0  0  0  0  0  0  0
  -25.6372  -20.5838   18.3217 C   0  0  0  0  0  0  0  0  0  0  0  0
  -30.0539  -24.9964   20.6010 C   0  0  0  0  0  0  0  0  0  0  0  0
  -26.9027  -20.9015   18.8509 C   0  0  0  0  0  0  0  0  0  0  0  0
  -31.4208  -24.9150   20.2990 C   0  0  0  0  0  0  0  0  0  0  0  0
  -31.3754  -17.8071   21.1153 C   0  0  0  0  0  0  0  0  0  0  0  0
  -32.8893  -18.7858   22.7237 C   0  0  0  0  0  0  0  0  0  0  0  0
  -31.0911  -16.7758   22.0104 C   0  0  0  0  0  0  0  0  0  0  0  0
  -22.3574   -8.1358   21.4648 C   0  0  0  0  0  0  0  0  0  0  0  0
  -31.9095  -24.5848   22.6574 C   0  0  0  0  0  0  0  0  0  0  0  0
  -21.6924   -5.9913   20.7710 C   0  0  0  0  0  0  0  0  0  0  0  0
  -21.7964   -3.9456   18.8771 C   0  0  0  0  0  0  0  0  0  0  0  0
  -22.9136   -5.3975   20.4521 C   0  0  0  0  0  0  0  0  0  0  0  0
  -32.6051  -17.7545   23.6189 C   0  0  0  0  0  0  0  0  0  0  0  0
  -24.5908  -11.6464   20.6998 C   0  0  0  0  0  0  0  0  0  0  0  0
  -25.2453  -13.7341   20.4804 C   0  0  0  0  0  0  0  0  0  0  0  0
  -22.8959  -13.4863   21.2974 C   0  0  0  0  0  0  0  0  0  0  0  0
  -29.5290  -23.3363   17.9417 C   0  0  0  0  0  0  0  0  0  0  0  0
  -30.7505  -14.7031   20.6875 C   0  0  0  0  0  0  0  0  0  0  0  0
  -31.2181  -25.7423   16.5704 C   0  0  0  0  0  0  0  0  0  0  0  0
  -33.5143  -28.2413   16.9299 C   0  0  0  0  0  0  0  0  0  0  0  0
  -25.3767  -20.5807   16.8362 C   0  0  0  0  0  0  0  0  0  0  0  0
  -29.0470  -25.2484   19.5124 C   0  0  0  0  0  0  0  0  0  0  0  0
  -31.9299  -25.0416   18.8872 C   0  0  0  0  0  0  0  0  0  0  0  0
  -26.4217  -21.3507   16.0329 C   0  0  0  0  0  0  0  0  0  0  0  0
  -29.5545  -12.4222   18.1961 C   0  0  0  0  0  0  0  0  0  0  0  0
  -27.8282  -20.9749   16.4879 C   0  0  0  0  0  0  0  0  0  0  0  0
  -28.1321  -12.1032   18.6547 C   0  0  0  0  0  0  0  0  0  0  0  0
  -30.4929  -12.6186   19.3826 C   0  0  0  0  0  0  0  0  0  0  0  0
  -28.6093  -13.3358   20.8176 C   0  0  0  0  0  0  0  0  0  0  0  0
  -28.0467  -21.3380   17.9617 C   0  0  1  0  0  0  0  0  0  0  0  0
  -29.5412  -24.8267   18.1321 C   0  0  1  0  0  0  0  0  0  0  0  0
  -27.6221  -13.1603   19.6501 C   0  0  2  0  0  0  0  0  0  0  0  0
  -30.7304  -17.8538   19.7690 C   0  0  0  0  0  0  0  0  0  0  0  0
  -34.7201  -30.0117   15.6226 C   0  0  0  0  0  0  0  0  0  0  0  0
  -33.0391  -23.6101   15.3671 C   0  0  0  0  0  0  0  0  0  0  0  0
  -34.7157  -25.4083   14.8941 C   0  0  0  0  0  0  0  0  0  0  0  0
  -32.4666  -25.4882   13.8181 C   0  0  0  0  0  0  0  0  0  0  0  0
  -32.3539  -30.4105   18.5752 C   0  0  0  0  0  0  0  0  0  0  0  0
  -30.1340  -15.6876   21.6492 C   0  0  0  0  0  0  0  0  0  0  0  0
  -33.8501  -19.8853   23.0688 C   0  0  0  0  0  0  0  0  0  0  0  0
  -33.5582  -22.9109   25.3972 C   0  0  0  0  0  0  0  0  0  0  0  0
  -34.2286  -21.9413   24.4356 C   0  0  0  0  0  0  0  0  0  0  0  0
  -32.3684  -23.6478   24.7946 C   0  0  0  0  0  0  0  0  0  1  0  0
  -32.6788  -25.9960   16.2857 C   0  0  1  0  0  0  0  0  0  0  0  0
  -33.5048  -29.6906   16.4785 C   0  0  2  0  0  0  0  0  0  0  0  0
  -33.2156  -25.1213   15.1178 C   0  0  0  0  0  0  0  0  0  0  0  0
  -25.8493  -11.5581   20.2611 N   0  0  0  0  0  0  0  0  0  0  0  0
  -26.2199  -12.8440   20.1371 N   0  0  0  0  0  0  0  0  0  0  0  0
  -30.9057  -25.2812   17.8571 N   0  0  0  0  0  0  0  0  0  0  0  0
  -29.9622  -13.6138   20.3160 N   0  0  0  0  0  0  0  0  0  0  0  0
  -25.4502  -15.0668   20.4147 N   0  0  0  0  0  0  0  0  0  0  0  0
  -21.8923  -12.5711   21.6432 N   0  0  0  0  0  0  0  0  0  0  0  0
  -28.2841  -22.7587   18.1024 N   0  0  0  0  0  0  0  0  0  0  0  0
  -32.8082  -27.4323   16.0650 N   0  0  0  0  0  0  0  0  0  0  0  0
  -33.5074  -30.6007   17.6587 N   0  3  0  0  0  0  0  0  0  0  0  0
  -33.2836  -20.8766   24.0246 N   0  3  0  0  0  0  0  0  0  0  0  0
  -22.6566  -14.7156   21.3682 O   0  0  0  0  0  0  0  0  0  0  0  0
  -30.5717  -22.7537   17.6676 O   0  0  0  0  0  0  0  0  0  0  0  0
  -31.8975  -14.8996   20.2776 O   0  0  0  0  0  0  0  0  0  0  0  0
  -30.3843  -25.9526   15.6860 O   0  0  0  0  0  0  0  0  0  0  0  0
  -34.0936  -27.8639   17.9461 O   0  0  0  0  0  0  0  0  0  0  0  0
  -21.6390   -7.0063   21.7115 O   0  0  0  0  0  0  0  0  0  0  0  0
  -32.8136  -24.3803   23.6537 O   0  0  0  0  0  0  0  0  0  1  0  0
  -21.8460   -2.9623   17.9688 F   0  0  0  0  0  0  0  0  0  0  0  0
  -24.0401   -5.8047   21.0531 F   0  0  0  0  0  0  0  0  0  0  0  0
  -33.3466  -17.6887   25.1761 Cl  0  0  0  0  0  0  0  0  0  0  0  0
  1  2  1  0  0  0  0
  1  5  2  0  0  0  0
  2  6  2  0  0  0  0
  3  8  2  0  0  0  0
  3 17  1  0  0  0  0
  4  9  1  0  0  0  0
  4 17  2  0  0  0  0
  5 19  1  0  0  0  0
  6 21  1  0  0  0  0
  7 10  2  0  0  0  0
  7 20  1  0  0  0  0
  8 26  1  0  0  0  0
  9 26  2  0  0  0  0
 10 27  1  0  0  0  0
 11 12  2  0  0  0  0
 11 28  1  0  0  0  0
 12 29  1  0  0  0  0
 13 22  1  0  0  0  0
 13 27  2  0  0  0  0
 14 23  2  0  0  0  0
 14 24  1  0  0  0  0
 15 25  2  0  0  0  0
 15 31  1  0  0  0  0
 16 29  2  0  0  0  0
 16 30  1  0  0  0  0
 17 32  1  0  0  0  0
 18 32  1  0  0  0  0
 18 33  2  0  0  0  0
 18 34  1  0  0  0  0
 19 21  2  0  0  0  0
 19 39  1  0  0  0  0
 20 22  2  0  0  0  0
 20 40  1  0  0  0  0
 21 48  1  0  0  0  0
 22 41  1  0  0  0  0
 23 25  1  0  0  0  0
 23 51  1  0  0  0  0
 24 31  2  0  0  0  0
 24 58  1  0  0  0  0
 25 57  1  0  0  0  0
 26 80  1  0  0  0  0
 27 81  1  0  0  0  0
 28 30  2  0  0  0  0
 28 80  1  0  0  0  0
 29 82  1  0  0  0  0
 30 83  1  0  0  0  0
 31 84  1  0  0  0  0
 32 65  2  0  0  0  0
 33 66  1  0  0  0  0
 33 69  1  0  0  0  0
 34 70  1  0  0  0  0
 34 75  2  0  0  0  0
 35 49  1  0  0  0  0
 35 71  1  0  0  0  0
 35 76  2  0  0  0  0
 36 57  1  0  0  0  0
 36 68  1  0  0  0  0
 36 77  2  0  0  0  0
 37 62  1  0  0  0  0
 37 67  1  0  0  0  0
 37 78  2  0  0  0  0
 38 63  1  0  0  0  0
 38 72  1  0  0  0  0
 38 79  2  0  0  0  0
 39 42  1  0  0  0  0
 40 49  1  0  0  0  0
 41 67  1  0  0  0  0
 42 44  1  0  0  0  0
 43 45  1  0  0  0  0
 43 46  1  0  0  0  0
 44 48  1  0  0  0  0
 45 50  1  0  0  0  0
 46 68  1  0  0  0  0
 47 50  1  0  0  0  0
 47 68  1  0  0  0  0
 48 71  1  0  0  0  0
 49 67  1  0  0  0  0
 50 66  1  0  0  0  0
 52 63  1  0  0  0  0
 53 64  1  0  0  0  0
 54 64  1  0  0  0  0
 55 64  1  0  0  0  0
 56 73  1  0  0  0  0
 58 74  1  0  0  0  0
 59 60  1  0  0  0  0
 59 61  1  0  0  0  0
 60 74  1  0  0  0  0
 61 81  1  0  0  0  0
 62 64  1  0  0  0  0
 62 72  1  0  0  0  0
 63 73  1  0  0  0  0
 65 66  1  0  0  0  0
M  CHG  2  73   1  74   1
M  ISO  4  36 100  57 100  61 101  81 101
M  END
> <Batch ID>
0036

> <Smiles>
CNC(C)C(=O)NC(C(=O)N1Cc2cc([101O:1][101CH2:1]CCNCc3cc(C)c([100CH2:0][100C:0](=O)N4CCCC(n5nc(-c6ccc(Oc7ccc(F)cc7F)cc6)c(C(N)=O)c5N)C4)cc3Cl)ccc2CC1C(=O)NC1CCCc2ccccc21)C(C)(C)C

> <Shape>
0.215

> <Color>
0.195

> <Negative vol penalty>
0.000

$$$$

  -OEChem-04052316563D

 89 97  0     1  0  0  0  0  0999 V2000
  -26.1286  -10.6261   19.5656 C   0  0  0  0  0  0  0  0  0  0  0  0
  -25.7275  -11.8165   20.1635 C   0  0  0  0  0  0  0  0  0  0  0  0
  -29.8772  -28.7634   19.8411 C   0  0  0  0  0  0  0  0  0  0  0  0
  -28.8329  -26.6842   20.4919 C   0  0  0  0  0  0  0  0  0  0  0  0
  -27.4506  -10.4654   19.1530 C   0  0  0  0  0  0  0  0  0  0  0  0
  -26.6487  -12.8466   20.3502 C   0  0  0  0  0  0  0  0  0  0  0  0
  -24.7908  -17.3739   19.0476 C   0  0  0  0  0  0  0  0  0  0  0  0
  -31.1265  -28.1437   19.8660 C   0  0  0  0  0  0  0  0  0  0  0  0
  -30.0823  -26.0645   20.5168 C   0  0  0  0  0  0  0  0  0  0  0  0
  -23.9275  -17.9918   19.9513 C   0  0  0  0  0  0  0  0  0  0  0  0
  -33.3979  -27.2111   22.1888 C   0  0  0  0  0  0  0  0  0  0  0  0
  -34.4462  -27.8925   22.8071 C   0  0  0  0  0  0  0  0  0  0  0  0
  -25.7440  -19.3740   20.7319 C   0  0  0  0  0  0  0  0  0  0  0  0
  -21.4593  -20.7929   25.1936 C   0  0  0  0  0  0  0  0  0  0  0  0
  -35.6788  -27.8818   20.7291 C   0  0  0  0  0  0  0  0  0  0  0  0
  -28.7303  -28.0336   20.1541 C   0  0  0  0  0  0  0  0  0  0  0  0
  -26.5605  -28.7717   19.0338 C   0  0  0  0  0  0  0  0  0  0  0  0
  -28.3861  -11.4977   19.3258 C   0  0  0  0  0  0  0  0  0  0  0  0
  -26.1419  -17.7444   18.9867 C   0  0  0  0  0  0  0  0  0  0  0  0
  -27.9848  -12.6991   19.9406 C   0  0  0  0  0  0  0  0  0  0  0  0
  -26.6217  -18.7610   19.8248 C   0  0  0  0  0  0  0  0  0  0  0  0
  -22.4313  -20.2827   24.3402 C   0  0  0  0  0  0  0  0  0  0  0  0
  -23.0711  -21.1277   23.4401 C   0  0  0  0  0  0  0  0  0  0  0  0
  -31.2291  -26.7943   20.2038 C   0  0  0  0  0  0  0  0  0  0  0  0
  -24.4047  -18.9901   20.7957 C   0  0  0  0  0  0  0  0  0  0  0  0
  -33.4900  -26.8650   20.8406 C   0  0  0  0  0  0  0  0  0  0  0  0
  -35.5867  -28.2279   22.0773 C   0  0  0  0  0  0  0  0  0  0  0  0
  -34.6304  -27.2004   20.1108 C   0  0  0  0  0  0  0  0  0  0  0  0
  -27.4395  -28.6733   20.1291 C   0  0  0  0  0  0  0  0  0  0  0  0
  -21.1658  -22.1443   25.1081 C   0  0  0  0  0  0  0  0  0  0  0  0
  -22.7052  -22.4640   23.4329 C   0  0  0  0  0  0  0  0  0  0  0  0
  -25.4804  -29.4659   19.5216 C   0  0  0  0  0  0  0  0  0  0  0  0
  -26.7073  -28.2795   17.6952 C   0  0  0  0  0  0  0  0  0  0  0  0
  -28.9024  -16.2490   19.4836 C   0  0  0  0  0  0  0  0  0  0  0  0
  -30.1600  -19.0354   18.3988 C   0  0  0  0  0  0  0  0  0  0  0  0
  -29.7794  -22.3925   17.9172 C   0  0  0  0  0  0  0  0  0  0  0  0
  -21.6968  -30.4013   23.5159 C   0  0  0  0  0  0  0  0  0  0  0  0
  -29.8153  -11.2599   18.9067 C   0  0  0  0  0  0  0  0  0  0  0  0
  -27.0540  -17.0867   17.9878 C   0  0  0  0  0  0  0  0  0  0  0  0
  -28.0590  -19.2095   19.7847 C   0  0  0  0  0  0  0  0  0  0  0  0
  -30.6399  -12.5401   18.8006 C   0  0  0  0  0  0  0  0  0  0  0  0
  -24.8708  -31.9748   23.8713 C   0  0  0  0  0  0  0  0  0  0  0  0
  -30.4172  -13.4216   20.0253 C   0  0  0  0  0  0  0  0  0  0  0  0
  -25.7505  -31.2602   22.8439 C   0  0  0  0  0  0  0  0  0  0  0  0
  -23.8741  -31.0189   24.5231 C   0  0  0  0  0  0  0  0  0  0  0  0
  -23.9164  -29.5431   22.5498 C   0  0  0  0  0  0  0  0  0  0  0  0
  -28.9488  -13.8489   20.1379 C   0  0  1  0  0  0  0  0  0  0  0  0
  -28.5279  -17.1848   18.3693 C   0  0  1  0  0  0  0  0  0  0  0  0
  -24.9000  -30.4778   21.8252 C   0  0  2  0  0  0  0  0  0  0  0  0
  -22.7665  -18.8294   24.4082 C   0  0  0  0  0  0  0  0  0  0  0  0
  -20.1289  -22.7268   26.0094 C   0  0  0  0  0  0  0  0  0  0  0  0
  -30.9937  -24.4073   17.0435 C   0  0  0  0  0  0  0  0  0  0  0  0
  -31.8435  -19.1206   20.9421 C   0  0  0  0  0  0  0  0  0  0  0  0
  -32.2927  -21.5400   20.4804 C   0  0  0  0  0  0  0  0  0  0  0  0
  -33.0576  -19.8007   18.8641 C   0  0  0  0  0  0  0  0  0  0  0  0
  -27.7396  -22.8581   15.8240 C   0  0  0  0  0  0  0  0  0  0  0  0
  -24.1194  -20.6090   22.5143 C   0  0  0  0  0  0  0  0  0  1  0  0
  -23.3645  -23.4301   22.4802 C   0  0  0  0  0  0  0  0  0  0  0  0
  -22.8792  -23.3270   21.0286 C   0  0  0  0  0  0  0  0  0  0  0  0
  -21.3946  -23.6415   20.8073 C   0  0  0  0  0  0  0  0  0  0  0  0
  -21.0198  -25.0853   21.1501 C   0  0  0  0  0  0  0  0  0  0  0  0
  -19.5332  -25.3935   20.9372 C   0  0  0  0  0  0  0  0  0  0  0  0
  -19.0843  -26.8065   21.3256 C   0  0  0  0  0  0  0  0  0  0  0  0
  -19.4024  -27.1649   22.7788 C   0  0  0  0  0  0  0  0  0  0  0  0
  -18.9424  -28.5738   23.1725 C   0  0  0  0  0  0  0  0  0  0  0  0
  -19.5981  -29.7066   22.3880 C   0  0  0  0  0  0  0  0  0  0  0  0
  -30.5922  -20.3334   19.0370 C   0  0  1  0  0  0  0  0  0  0  0  0
  -30.0388  -23.2723   16.7076 C   0  0  2  0  0  0  0  0  0  0  0  0
  -31.9198  -20.1891   19.8333 C   0  0  0  0  0  0  0  0  0  0  0  0
  -26.9594  -29.2584   21.2296 N   0  0  0  0  0  0  0  0  0  0  0  0
  -21.7658  -22.9960   24.2467 N   0  0  0  0  0  0  0  0  0  0  0  0
  -25.7671  -29.7311   20.8284 N   0  0  0  0  0  0  0  0  0  0  0  0
  -28.9130  -18.5318   18.7953 N   0  0  0  0  0  0  0  0  0  0  0  0
  -23.0984  -30.3096   23.5028 N   0  0  0  0  0  0  0  0  0  0  0  0
  -24.3230  -29.8693   18.9559 N   0  0  0  0  0  0  0  0  0  0  0  0
  -27.8797  -27.5873   17.3626 N   0  0  0  0  0  0  0  0  0  0  0  0
  -28.6604  -14.9173   19.2053 N   0  0  0  0  0  0  0  0  0  0  0  0
  -30.6438  -21.3192   17.9628 N   0  0  0  0  0  0  0  0  0  0  0  0
  -21.0389  -29.7039   22.5102 N   0  0  0  0  0  0  0  0  0  0  0  0
  -28.7628  -23.8624   16.2131 N   0  3  0  0  0  0  0  0  0  0  0  0
  -25.8320  -28.4627   16.8155 O   0  0  0  0  0  0  0  0  0  0  0  0
  -29.3773  -16.7015   20.5187 O   0  0  0  0  0  0  0  0  0  0  0  0
  -30.8983  -18.4921   17.5734 O   0  0  0  0  0  0  0  0  0  0  0  0
  -28.9005  -22.6352   18.7412 O   0  0  0  0  0  0  0  0  0  0  0  0
  -21.0779  -31.0604   24.3582 O   0  0  0  0  0  0  0  0  0  0  0  0
  -32.4481  -26.1892   20.2280 O   0  0  0  0  0  0  0  0  0  0  0  0
  -23.5586  -19.5986   21.6852 O   0  0  0  0  0  0  0  0  0  1  0  0
  -36.5926  -28.8836   22.6708 F   0  0  0  0  0  0  0  0  0  0  0  0
  -34.7242  -26.8716   18.8151 F   0  0  0  0  0  0  0  0  0  0  0  0
  1  2  1  0  0  0  0
  1  5  2  0  0  0  0
  2  6  2  0  0  0  0
  3  8  2  0  0  0  0
  3 16  1  0  0  0  0
  4  9  1  0  0  0  0
  4 16  2  0  0  0  0
  5 18  1  0  0  0  0
  6 20  1  0  0  0  0
  7 10  2  0  0  0  0
  7 19  1  0  0  0  0
  8 24  1  0  0  0  0
  9 24  2  0  0  0  0
 10 25  1  0  0  0  0
 11 12  2  0  0  0  0
 11 26  1  0  0  0  0
 12 27  1  0  0  0  0
 13 21  1  0  0  0  0
 13 25  2  0  0  0  0
 14 22  2  0  0  0  0
 14 30  1  0  0  0  0
 15 27  2  0  0  0  0
 15 28  1  0  0  0  0
 16 29  1  0  0  0  0
 17 29  1  0  0  0  0
 17 32  2  0  0  0  0
 17 33  1  0  0  0  0
 18 20  2  0  0  0  0
 18 38  1  0  0  0  0
 19 21  2  0  0  0  0
 19 39  1  0  0  0  0
 20 47  1  0  0  0  0
 21 40  1  0  0  0  0
 22 23  1  0  0  0  0
 22 50  1  0  0  0  0
 23 31  2  0  0  0  0
 23 57  1  0  0  0  0
 24 86  1  0  0  0  0
 25 87  1  0  0  0  0
 26 28  2  0  0  0  0
 26 86  1  0  0  0  0
 27 88  1  0  0  0  0
 28 89  1  0  0  0  0
 29 70  2  0  0  0  0
 30 51  1  0  0  0  0
 30 71  2  0  0  0  0
 31 58  1  0  0  0  0
 31 71  1  0  0  0  0
 32 72  1  0  0  0  0
 32 75  1  0  0  0  0
 33 76  1  0  0  0  0
 33 81  2  0  0  0  0
 34 48  1  0  0  0  0
 34 77  1  0  0  0  0
 34 82  2  0  0  0  0
 35 67  1  0  0  0  0
 35 73  1  0  0  0  0
 35 83  2  0  0  0  0
 36 68  1  0  0  0  0
 36 78  1  0  0  0  0
 36 84  2  0  0  0  0
 37 74  1  0  0  0  0
 37 79  1  0  0  0  0
 37 85  2  0  0  0  0
 38 41  1  0  0  0  0
 39 48  1  0  0  0  0
 40 73  1  0  0  0  0
 41 43  1  0  0  0  0
 42 44  1  0  0  0  0
 42 45  1  0  0  0  0
 43 47  1  0  0  0  0
 44 49  1  0  0  0  0
 45 74  1  0  0  0  0
 46 49  1  0  0  0  0
 46 74  1  0  0  0  0
 47 77  1  0  0  0  0
 48 73  1  0  0  0  0
 49 72  1  0  0  0  0
 52 68  1  0  0  0  0
 53 69  1  0  0  0  0
 54 69  1  0  0  0  0
 55 69  1  0  0  0  0
 56 80  1  0  0  0  0
 57 87  1  0  0  0  0
 58 59  1  0  0  0  0
 59 60  1  0  0  0  0
 60 61  1  0  0  0  0
 61 62  1  0  0  0  0
 62 63  1  0  0  0  0
 63 64  1  0  0  0  0
 64 65  1  0  0  0  0
 65 66  1  0  0  0  0
 66 79  1  0  0  0  0
 67 69  1  0  0  0  0
 67 78  1  0  0  0  0
 68 80  1  0  0  0  0
 70 72  1  0  0  0  0
M  CHG  1  80   1
M  ISO  4  37 100  57 101  79 100  87 101
M  END
> <Batch ID>
0036

> <Smiles>
CNC(C)C(=O)NC(C(=O)N1Cc2cc([101O:1][101CH2:1]c3c(C)cc(C)nc3CCCCCCCCC[100NH:0][100C:0](=O)N3CCCC(n4nc(-c5ccc(Oc6ccc(F)cc6F)cc5)c(C(N)=O)c4N)C3)ccc2CC1C(=O)NC1CCCc2ccccc21)C(C)(C)C

> <Shape>
0.241

> <Color>
0.057

> <Negative vol penalty>
0.000

$$$$

  -OEChem-04052316563D

 98106  0     1  0  0  0  0  0999 V2000
  -30.5839  -23.6544   18.6209 C   0  0  0  0  0  0  0  0  0  0  0  0
  -29.2406  -23.9111   18.8757 C   0  0  0  0  0  0  0  0  0  0  0  0
  -24.3705   -9.1825   19.9559 C   0  0  0  0  0  0  0  0  0  0  0  0
  -24.4598   -9.6758   22.3193 C   0  0  0  0  0  0  0  0  0  0  0  0
  -31.5663  -24.2111   19.4388 C   0  0  0  0  0  0  0  0  0  0  0  0
  -28.8788  -24.7240   19.9494 C   0  0  0  0  0  0  0  0  0  0  0  0
  -25.3020  -28.0909   18.7182 C   0  0  0  0  0  0  0  0  0  0  0  0
  -24.1357   -7.8384   20.2453 C   0  0  0  0  0  0  0  0  0  0  0  0
  -24.2249   -8.3316   22.6087 C   0  0  0  0  0  0  0  0  0  0  0  0
  -23.9902  -27.6256   18.6377 C   0  0  0  0  0  0  0  0  0  0  0  0
  -23.2899   -5.0930   23.9707 C   0  0  0  0  0  0  0  0  0  0  0  0
  -22.3538   -4.7961   24.9613 C   0  0  0  0  0  0  0  0  0  0  0  0
  -23.5470  -28.5129   20.8367 C   0  0  0  0  0  0  0  0  0  0  0  0
  -20.6439   -5.9294   23.6850 C   0  0  0  0  0  0  0  0  0  0  0  0
  -24.5327  -10.1012   20.9929 C   0  0  0  0  0  0  0  0  0  0  0  0
  -23.8142  -12.5027   20.5197 C   0  0  0  0  0  0  0  0  0  0  0  0
  -31.2167  -25.0390   20.5173 C   0  0  0  0  0  0  0  0  0  0  0  0
  -25.7500  -28.7623   19.8649 C   0  0  0  0  0  0  0  0  0  0  0  0
  -29.8573  -25.2912   20.7834 C   0  0  0  0  0  0  0  0  0  0  0  0
  -24.8642  -28.9880   20.9282 C   0  0  0  0  0  0  0  0  0  0  0  0
  -24.0628   -7.4129   21.5717 C   0  0  0  0  0  0  0  0  0  0  0  0
  -23.1133  -27.8340   19.6982 C   0  0  0  0  0  0  0  0  0  0  0  0
  -22.9030   -5.8082   22.8373 C   0  0  0  0  0  0  0  0  0  0  0  0
  -21.0308   -5.2142   24.8184 C   0  0  0  0  0  0  0  0  0  0  0  0
  -21.5800   -6.2263   22.6945 C   0  0  0  0  0  0  0  0  0  0  0  0
  -24.7759  -11.4897   20.6946 C   0  0  0  0  0  0  0  0  0  0  0  0
  -24.5495  -13.6326   20.2570 C   0  0  0  0  0  0  0  0  0  0  0  0
  -22.3840  -12.4290   20.5887 C   0  0  0  0  0  0  0  0  0  0  0  0
  -27.9887  -28.2147   22.0540 C   0  0  0  0  0  0  0  0  0  0  0  0
  -28.8994  -16.9404   21.4518 C   0  0  0  0  0  0  0  0  0  0  0  0
  -27.1399  -31.1667   23.0967 C   0  0  0  0  0  0  0  0  0  0  0  0
  -24.7631  -33.6106   23.2561 C   0  0  0  0  0  0  0  0  0  0  0  0
  -32.3119  -25.5798   21.4020 C   0  0  0  0  0  0  0  0  0  0  0  0
  -27.1604  -29.2815   19.9252 C   0  0  0  0  0  0  0  0  0  0  0  0
  -25.2900  -29.7210   22.1731 C   0  0  0  0  0  0  0  0  0  0  0  0
  -31.8605  -26.7337   22.2936 C   0  0  0  0  0  0  0  0  0  0  0  0
  -29.4552  -14.2073   19.2020 C   0  0  0  0  0  0  0  0  0  0  0  0
  -30.5315  -26.4017   22.9646 C   0  0  0  0  0  0  0  0  0  0  0  0
  -28.2230  -13.3249   19.3978 C   0  0  0  0  0  0  0  0  0  0  0  0
  -29.8770  -14.8748   20.5072 C   0  0  0  0  0  0  0  0  0  0  0  0
  -27.5573  -14.7811   21.3629 C   0  0  0  0  0  0  0  0  0  0  0  0
  -19.2429  -24.8685   21.8017 C   0  0  0  0  0  0  0  0  0  0  0  0
  -20.3016  -27.0951   21.4121 C   0  0  0  0  0  0  0  0  0  0  0  0
  -29.4261  -26.1879   21.9236 C   0  0  1  0  0  0  0  0  0  0  0  0
  -27.6561  -29.5004   21.3513 C   0  0  1  0  0  0  0  0  0  0  0  0
  -20.3587  -24.1686   21.0166 C   0  0  2  0  0  0  0  0  0  0  0  0
  -20.9762  -25.1162   19.9603 C   0  0  1  0  0  0  0  0  0  0  0  0
  -27.0794  -14.1120   20.0620 C   0  0  2  0  0  0  0  0  0  0  0  0
  -21.4210  -26.4382   20.6167 C   0  0  1  0  0  0  0  0  0  1  0  0
  -19.1837  -20.4866   20.8107 C   0  0  0  0  0  0  0  0  0  0  0  0
  -25.5983  -23.1500   20.3720 C   0  0  0  0  0  0  0  0  0  0  0  0
  -24.3465  -35.8940   24.2100 C   0  0  0  0  0  0  0  0  0  0  0  0
  -26.7231  -29.9350   25.8570 C   0  0  0  0  0  0  0  0  0  0  0  0
  -25.4317  -31.9817   26.4986 C   0  0  0  0  0  0  0  0  0  0  0  0
  -27.8384  -32.1734   25.8711 C   0  0  0  0  0  0  0  0  0  0  0  0
  -24.3892  -34.7921   20.5685 C   0  0  0  0  0  0  0  0  0  0  0  0
  -27.7017  -17.6132   22.0738 C   0  0  0  0  0  0  0  0  0  0  0  0
  -19.7930  -22.8856   20.3987 C   0  0  0  0  0  0  0  0  0  0  0  0
  -22.1481  -24.4600   19.2166 C   0  0  0  0  0  0  0  0  0  0  0  0
  -19.7679  -21.7528   21.4164 C   0  0  0  0  0  0  0  0  0  0  0  0
  -24.4510  -23.4797   19.4304 C   0  0  0  0  0  0  0  0  0  0  0  0
  -28.0001  -19.0772   22.3846 C   0  0  0  0  0  0  0  0  0  0  0  0
  -23.2742  -24.1052   20.1788 C   0  0  0  0  0  0  0  0  0  0  0  0
  -26.8262  -19.7787   23.0765 C   0  0  0  0  0  0  0  0  0  0  0  0
  -27.0987  -21.2534   23.3937 C   0  0  0  0  0  0  0  0  0  0  0  0
  -25.9782  -21.9914   24.1347 C   0  0  0  0  0  0  0  0  0  0  0  0
  -26.3172  -23.4519   24.4416 C   0  0  0  0  0  0  0  0  0  0  0  0
  -25.2069  -24.1903   25.1980 C   0  0  0  0  0  0  0  0  0  0  0  0
  -25.5285  -25.6678   25.4355 C   0  0  0  0  0  0  0  0  0  0  0  0
  -24.4728  -26.4014   26.2680 C   0  0  0  0  0  0  0  0  0  0  0  0
  -23.0702  -26.4792   25.6557 C   0  0  0  0  0  0  0  0  0  0  0  0
  -22.0299  -27.2624   26.4637 C   0  0  0  0  0  0  0  0  0  0  0  0
  -20.6758  -27.3796   25.7604 C   0  0  0  0  0  0  0  0  0  0  0  0
  -20.0287  -26.0227   25.4633 C   0  0  0  0  0  0  0  0  0  0  0  0
  -18.7082  -26.0691   24.6852 C   0  0  0  0  0  0  0  0  0  0  0  0
  -18.7556  -26.7720   23.3341 C   0  0  0  0  0  0  0  0  0  0  0  0
  -26.1227  -31.7037   24.0745 C   0  0  1  0  0  0  0  0  0  0  0  0
  -24.8376  -35.1060   23.0056 C   0  0  2  0  0  0  0  0  0  0  0  0
  -26.5212  -31.4329   25.5527 C   0  0  0  0  0  0  0  0  0  0  0  0
  -26.0268  -11.9365   20.5546 N   0  0  0  0  0  0  0  0  0  0  0  0
  -25.8561  -13.2428   20.2889 N   0  0  0  0  0  0  0  0  0  0  0  0
  -26.6807  -30.2038   22.1869 N   0  0  0  0  0  0  0  0  0  0  0  0
  -28.7573  -15.5933   21.1182 N   0  0  0  0  0  0  0  0  0  0  0  0
  -24.1995  -14.9117   20.0040 N   0  0  0  0  0  0  0  0  0  0  0  0
  -21.7915  -11.1901   20.8689 N   0  0  0  0  0  0  0  0  0  0  0  0
  -28.9554  -27.4596   21.4178 N   0  0  0  0  0  0  0  0  0  0  0  0
  -25.9513  -33.1159   23.7509 N   0  0  0  0  0  0  0  0  0  0  0  0
  -19.7595  -26.1384   22.4486 N   0  3  1  0  0  0  0  0  0  0  0  0
  -24.0014  -35.4763   21.8289 N   0  3  0  0  0  0  0  0  0  0  0  0
  -21.6524  -13.4287   20.3910 O   0  0  0  0  0  0  0  0  0  0  0  0
  -27.4121  -27.9295   23.0970 O   0  0  0  0  0  0  0  0  0  0  0  0
  -29.9286  -17.5949   21.2660 O   0  0  0  0  0  0  0  0  0  0  0  0
  -28.2974  -31.5915   23.1340 O   0  0  0  0  0  0  0  0  0  0  0  0
  -23.7509  -32.9483   23.0385 O   0  0  0  0  0  0  0  0  0  0  0  0
  -23.8334   -6.1014   21.8544 O   0  0  0  0  0  0  0  0  0  0  0  0
  -21.8257  -27.3779   19.6221 O   0  0  0  0  0  0  0  0  0  1  0  0
  -20.1316   -4.9277   25.7690 F   0  0  0  0  0  0  0  0  0  0  0  0
  -21.2021   -6.9127   21.6073 F   0  0  0  0  0  0  0  0  0  0  0  0
  1  2  1  0  0  0  0
  1  5  2  0  0  0  0
  2  6  2  0  0  0  0
  3  8  2  0  0  0  0
  3 15  1  0  0  0  0
  4  9  1  0  0  0  0
  4 15  2  0  0  0  0
  5 17  1  0  0  0  0
  6 19  1  0  0  0  0
  7 10  2  0  0  0  0
  7 18  1  0  0  0  0
  8 21  1  0  0  0  0
  9 21  2  0  0  0  0
 10 22  1  0  0  0  0
 11 12  2  0  0  0  0
 11 23  1  0  0  0  0
 12 24  1  0  0  0  0
 13 20  1  0  0  0  0
 13 22  2  0  0  0  0
 14 24  2  0  0  0  0
 14 25  1  0  0  0  0
 15 26  1  0  0  0  0
 16 26  1  0  0  0  0
 16 27  2  0  0  0  0
 16 28  1  0  0  0  0
 17 19  2  0  0  0  0
 17 33  1  0  0  0  0
 18 20  2  0  0  0  0
 18 34  1  0  0  0  0
 19 44  1  0  0  0  0
 20 35  1  0  0  0  0
 21 95  1  0  0  0  0
 22 96  1  0  0  0  0
 23 25  2  0  0  0  0
 23 95  1  0  0  0  0
 24 97  1  0  0  0  0
 25 98  1  0  0  0  0
 26 80  2  0  0  0  0
 27 81  1  0  0  0  0
 27 84  1  0  0  0  0
 28 85  1  0  0  0  0
 28 90  2  0  0  0  0
 29 45  1  0  0  0  0
 29 86  1  0  0  0  0
 29 91  2  0  0  0  0
 30 57  1  0  0  0  0
 30 83  1  0  0  0  0
 30 92  2  0  0  0  0
 31 77  1  0  0  0  0
 31 82  1  0  0  0  0
 31 93  2  0  0  0  0
 32 78  1  0  0  0  0
 32 87  1  0  0  0  0
 32 94  2  0  0  0  0
 33 36  1  0  0  0  0
 34 45  1  0  0  0  0
 35 82  1  0  0  0  0
 36 38  1  0  0  0  0
 37 39  1  0  0  0  0
 37 40  1  0  0  0  0
 38 44  1  0  0  0  0
 39 48  1  0  0  0  0
 40 83  1  0  0  0  0
 41 48  1  0  0  0  0
 41 83  1  0  0  0  0
 42 46  1  0  0  0  0
 42 88  1  0  0  0  0
 43 49  1  0  0  0  0
 43 88  1  0  0  0  0
 44 86  1  0  0  0  0
 45 82  1  0  0  0  0
 46 47  1  0  0  0  0
 46 58  1  0  0  0  0
 47 49  1  0  0  0  0
 47 59  1  0  0  0  0
 48 81  1  0  0  0  0
 49 96  1  0  0  0  0
 50 60  1  0  0  0  0
 51 61  1  0  0  0  0
 52 78  1  0  0  0  0
 53 79  1  0  0  0  0
 54 79  1  0  0  0  0
 55 79  1  0  0  0  0
 56 89  1  0  0  0  0
 57 62  1  0  0  0  0
 58 60  1  0  0  0  0
 59 63  1  0  0  0  0
 61 63  1  0  0  0  0
 62 64  1  0  0  0  0
 64 65  1  0  0  0  0
 65 66  1  0  0  0  0
 66 67  1  0  0  0  0
 67 68  1  0  0  0  0
 68 69  1  0  0  0  0
 69 70  1  0  0  0  0
 70 71  1  0  0  0  0
 71 72  1  0  0  0  0
 72 73  1  0  0  0  0
 73 74  1  0  0  0  0
 74 75  1  0  0  0  0
 75 76  1  0  0  0  0
 76 88  1  0  0  0  0
 77 79  1  0  0  0  0
 77 87  1  0  0  0  0
 78 89  1  0  0  0  0
 80 81  1  0  0  0  0
M  CHG  2  88   1  89   1
M  ISO  4  30 100  49 101  57 100  96 101
M  END
> <Batch ID>
0036

> <Smiles>
CCCCC1C(CCC)CN(CCCCCCCCCCCCCC[100CH2:0][100C:0](=O)N2CCCC(n3nc(-c4ccc(Oc5ccc(F)cc5F)cc4)c(C(N)=O)c3N)C2)C[101CH:1]1[101O:1]c1ccc2c(c1)CN(C(=O)C(NC(=O)C(C)NC)C(C)(C)C)C(C(=O)NC1CCCc3ccccc31)C2

> <Shape>
0.330

> <Color>
0.100

> <Negative vol penalty>
0.000

$$$$

  -OEChem-04052316563D

 85 93  0     1  0  0  0  0  0999 V2000
  -17.2238  -29.9269   24.2852 C   0  0  0  0  0  0  0  0  0  0  0  0
  -18.5901  -30.1508   24.4215 C   0  0  0  0  0  0  0  0  0  0  0  0
  -22.4932  -15.5020   22.5813 C   0  0  0  0  0  0  0  0  0  0  0  0
  -24.2529  -14.7407   21.1113 C   0  0  0  0  0  0  0  0  0  0  0  0
  -16.7671  -28.8615   23.5104 C   0  0  0  0  0  0  0  0  0  0  0  0
  -19.5005  -29.3087   23.7839 C   0  0  0  0  0  0  0  0  0  0  0  0
  -25.9564  -29.3934   20.6805 C   0  0  0  0  0  0  0  0  0  0  0  0
  -21.7774  -14.3314   22.3307 C   0  0  0  0  0  0  0  0  0  0  0  0
  -23.5371  -13.5700   20.8608 C   0  0  0  0  0  0  0  0  0  0  0  0
  -27.1825  -28.7314   20.7270 C   0  0  0  0  0  0  0  0  0  0  0  0
  -22.9531  -10.6281   22.4179 C   0  0  0  0  0  0  0  0  0  0  0  0
  -23.6545   -9.4227   22.4465 C   0  0  0  0  0  0  0  0  0  0  0  0
  -26.2770  -26.9700   19.3497 C   0  0  0  0  0  0  0  0  0  0  0  0
  -29.3478  -23.2598   17.2213 C   0  0  0  0  0  0  0  0  0  0  0  0
  -23.0429   -9.0122   20.1455 C   0  0  0  0  0  0  0  0  0  0  0  0
  -31.4022  -22.8460   18.3460 C   0  0  0  0  0  0  0  0  0  0  0  0
  -23.7310  -15.7067   21.9715 C   0  0  0  0  0  0  0  0  0  0  0  0
  -25.4166  -17.1328   23.2492 C   0  0  0  0  0  0  0  0  0  0  0  0
  -17.6722  -28.0118   22.8552 C   0  0  0  0  0  0  0  0  0  0  0  0
  -24.8763  -28.8423   19.9762 C   0  0  0  0  0  0  0  0  0  0  0  0
  -19.0555  -28.2302   23.0007 C   0  0  0  0  0  0  0  0  0  0  0  0
  -25.0389  -27.6283   19.2937 C   0  0  0  0  0  0  0  0  0  0  0  0
  -30.5409  -23.7479   17.7422 C   0  0  0  0  0  0  0  0  0  0  0  0
  -29.0564  -21.9037   17.3187 C   0  0  0  0  0  0  0  0  0  0  0  0
  -22.2994  -13.3653   21.4705 C   0  0  0  0  0  0  0  0  0  0  0  0
  -27.3421  -27.5181   20.0640 C   0  0  0  0  0  0  0  0  0  0  0  0
  -22.2965  -11.0255   21.2531 C   0  0  0  0  0  0  0  0  0  0  0  0
  -23.6994   -8.6148   21.3103 C   0  0  0  0  0  0  0  0  0  0  0  0
  -22.3414  -10.2176   20.1169 C   0  0  0  0  0  0  0  0  0  0  0  0
  -24.4706  -16.9161   22.2294 C   0  0  0  0  0  0  0  0  0  0  0  0
  -29.9842  -21.0842   17.9412 C   0  0  0  0  0  0  0  0  0  0  0  0
  -25.8269  -18.4309   23.0667 C   0  0  0  0  0  0  0  0  0  0  0  0
  -25.8828  -16.2406   24.2701 C   0  0  0  0  0  0  0  0  0  0  0  0
  -21.9682  -27.8285   20.7630 C   0  0  0  0  0  0  0  0  0  0  0  0
  -21.6359  -27.5074   17.5522 C   0  0  0  0  0  0  0  0  0  0  0  0
  -23.1295  -27.0879   14.5125 C   0  0  0  0  0  0  0  0  0  0  0  0
  -25.9373  -22.0387   18.2894 C   0  0  0  0  0  0  0  0  0  0  0  0
  -17.1319  -26.8449   22.0670 C   0  0  0  0  0  0  0  0  0  0  0  0
  -23.5681  -29.5820   19.9135 C   0  0  0  0  0  0  0  0  0  0  0  0
  -23.9166  -27.0044   18.5066 C   0  0  0  0  0  0  0  0  0  0  0  0
  -18.1551  -26.2238   21.1196 C   0  0  0  0  0  0  0  0  0  0  0  0
  -24.2943  -22.6417   21.3900 C   0  0  0  0  0  0  0  0  0  0  0  0
  -19.4872  -26.0173   21.8336 C   0  0  0  0  0  0  0  0  0  0  0  0
  -24.2386  -21.2622   22.0488 C   0  0  0  0  0  0  0  0  0  0  0  0
  -24.1066  -22.5526   19.8771 C   0  0  0  0  0  0  0  0  0  0  0  0
  -24.9695  -20.2443   19.8514 C   0  0  0  0  0  0  0  0  0  0  0  0
  -20.0737  -27.3536   22.3045 C   0  0  1  0  0  0  0  0  0  0  0  0
  -22.3837  -28.6753   19.5934 C   0  0  1  0  0  0  0  0  0  0  0  0
  -25.2097  -20.2773   21.3705 C   0  0  2  0  0  0  0  0  0  0  0  0
  -22.5953  -26.8225   12.0750 C   0  0  0  0  0  0  0  0  0  0  0  0
  -20.7898  -24.6192   18.0546 C   0  0  0  0  0  0  0  0  0  0  0  0
  -21.1925  -24.1524   15.6281 C   0  0  0  0  0  0  0  0  0  0  0  0
  -19.4544  -25.8083   16.3061 C   0  0  0  0  0  0  0  0  0  0  0  0
  -24.6127  -29.5481   13.8006 C   0  0  0  0  0  0  0  0  0  0  0  0
  -30.8873  -25.2127   17.6522 C   0  0  0  0  0  0  0  0  0  0  0  0
  -27.7790  -21.3743   16.7643 C   0  0  0  0  0  0  0  0  0  0  0  0
  -30.4004  -26.0353   18.8471 C   0  0  0  0  0  0  0  0  0  0  0  0
  -28.8823  -26.0652   18.9811 C   0  0  0  0  0  0  0  0  0  1  0  0
  -21.8987  -26.4047   16.5552 C   0  0  1  0  0  0  0  0  0  0  0  0
  -22.9348  -27.8024   13.1874 C   0  0  2  0  0  0  0  0  0  0  0  0
  -29.7249  -19.6190   18.0739 C   0  0  0  0  0  0  0  0  0  0  0  0
  -20.8546  -25.2567   16.6524 C   0  0  0  0  0  0  0  0  0  0  0  0
  -31.1536  -21.5220   18.4593 N   0  0  0  0  0  0  0  0  0  0  0  0
  -24.2904  -17.9903   21.4564 N   0  0  0  0  0  0  0  0  0  0  0  0
  -25.1286  -18.8947   21.9908 N   0  0  0  0  0  0  0  0  0  0  0  0
  -22.6550  -27.7629   18.4806 N   0  0  0  0  0  0  0  0  0  0  0  0
  -25.0587  -21.6035   19.2952 N   0  0  0  0  0  0  0  0  0  0  0  0
  -26.7131  -19.2093   23.7232 N   0  0  0  0  0  0  0  0  0  0  0  0
  -25.3567  -14.9423   24.3141 N   0  0  0  0  0  0  0  0  0  0  0  0
  -20.6761  -28.0603   21.1945 N   0  0  0  0  0  0  0  0  0  0  0  0
  -21.9626  -27.0450   15.2459 N   0  0  0  0  0  0  0  0  0  0  0  0
  -26.8112  -21.0773   17.7968 N   0  0  0  0  0  0  0  0  0  0  0  0
  -24.1757  -28.5344   12.8063 N   0  3  0  0  0  0  0  0  0  0  0  0
  -26.7284  -16.5898   25.1284 O   0  0  0  0  0  0  0  0  0  0  0  0
  -22.7606  -27.0234   21.2378 O   0  0  0  0  0  0  0  0  0  0  0  0
  -20.5687  -28.1242   17.5044 O   0  0  0  0  0  0  0  0  0  0  0  0
  -24.2079  -26.6120   14.8605 O   0  0  0  0  0  0  0  0  0  0  0  0
  -25.9461  -23.1995   17.8658 O   0  0  0  0  0  0  0  0  0  0  0  0
  -21.6013  -12.2228   21.2260 O   0  0  0  0  0  0  0  0  0  0  0  0
  -28.5377  -26.8696   20.1082 O   0  0  0  0  0  0  0  0  0  1  0  0
  -24.3742   -7.4581   21.3375 F   0  0  0  0  0  0  0  0  0  0  0  0
  -21.7136  -10.5946   18.9946 F   0  0  0  0  0  0  0  0  0  0  0  0
  -28.5336  -19.2255   17.5362 F   0  0  0  0  0  0  0  0  0  0  0  0
  -30.6671  -18.8422   17.4642 F   0  0  0  0  0  0  0  0  0  0  0  0
  -29.6951  -19.2092   19.3744 F   0  0  0  0  0  0  0  0  0  0  0  0
  1  2  1  0  0  0  0
  1  5  2  0  0  0  0
  2  6  2  0  0  0  0
  3  8  2  0  0  0  0
  3 17  1  0  0  0  0
  4  9  1  0  0  0  0
  4 17  2  0  0  0  0
  5 19  1  0  0  0  0
  6 21  1  0  0  0  0
  7 10  2  0  0  0  0
  7 20  1  0  0  0  0
  8 25  1  0  0  0  0
  9 25  2  0  0  0  0
 10 26  1  0  0  0  0
 11 12  2  0  0  0  0
 11 27  1  0  0  0  0
 12 28  1  0  0  0  0
 13 22  1  0  0  0  0
 13 26  2  0  0  0  0
 14 23  2  0  0  0  0
 14 24  1  0  0  0  0
 15 28  2  0  0  0  0
 15 29  1  0  0  0  0
 16 23  1  0  0  0  0
 16 63  2  0  0  0  0
 17 30  1  0  0  0  0
 18 30  1  0  0  0  0
 18 32  2  0  0  0  0
 18 33  1  0  0  0  0
 19 21  2  0  0  0  0
 19 38  1  0  0  0  0
 20 22  2  0  0  0  0
 20 39  1  0  0  0  0
 21 47  1  0  0  0  0
 22 40  1  0  0  0  0
 23 55  1  0  0  0  0
 24 31  2  0  0  0  0
 24 56  1  0  0  0  0
 25 79  1  0  0  0  0
 26 80  1  0  0  0  0
 27 29  2  0  0  0  0
 27 79  1  0  0  0  0
 28 81  1  0  0  0  0
 29 82  1  0  0  0  0
 30 64  2  0  0  0  0
 31 61  1  0  0  0  0
 31 63  1  0  0  0  0
 32 65  1  0  0  0  0
 32 68  1  0  0  0  0
 33 69  1  0  0  0  0
 33 74  2  0  0  0  0
 34 48  1  0  0  0  0
 34 70  1  0  0  0  0
 34 75  2  0  0  0  0
 35 59  1  0  0  0  0
 35 66  1  0  0  0  0
 35 76  2  0  0  0  0
 36 60  1  0  0  0  0
 36 71  1  0  0  0  0
 36 77  2  0  0  0  0
 37 67  1  0  0  0  0
 37 72  1  0  0  0  0
 37 78  2  0  0  0  0
 38 41  1  0  0  0  0
 39 48  1  0  0  0  0
 40 66  1  0  0  0  0
 41 43  1  0  0  0  0
 42 44  1  0  0  0  0
 42 45  1  0  0  0  0
 43 47  1  0  0  0  0
 44 49  1  0  0  0  0
 45 67  1  0  0  0  0
 46 49  1  0  0  0  0
 46 67  1  0  0  0  0
 47 70  1  0  0  0  0
 48 66  1  0  0  0  0
 49 65  1  0  0  0  0
 50 60  1  0  0  0  0
 51 62  1  0  0  0  0
 52 62  1  0  0  0  0
 53 62  1  0  0  0  0
 54 73  1  0  0  0  0
 55 57  1  0  0  0  0
 56 72  1  0  0  0  0
 57 58  1  0  0  0  0
 58 80  1  0  0  0  0
 59 62  1  0  0  0  0
 59 71  1  0  0  0  0
 60 73  1  0  0  0  0
 61 83  1  0  0  0  0
 61 84  1  0  0  0  0
 61 85  1  0  0  0  0
 64 65  1  0  0  0  0
M  CHG  1  73   1
M  ISO  4  37 100  58 101  72 100  80 101
M  END
> <Batch ID>
0036

> <Smiles>
CNC(C)C(=O)NC(C(=O)N1Cc2cc([101O:1][101CH2:1]CCc3cnc(C(F)(F)F)c(C[100NH:0][100C:0](=O)N4CCCC(n5nc(-c6ccc(Oc7ccc(F)cc7F)cc6)c(C(N)=O)c5N)C4)c3)ccc2CC1C(=O)NC1CCCc2ccccc21)C(C)(C)C

> <Shape>
0.223

> <Color>
0.075

> <Negative vol penalty>
0.000

$$$$

  -OEChem-04052316563D

 83 91  0     1  0  0  0  0  0999 V2000
  -31.2228  -22.8419   22.5310 C   0  0  0  0  0  0  0  0  0  0  0  0
  -29.9217  -23.2370   22.8251 C   0  0  0  0  0  0  0  0  0  0  0  0
  -26.1797  -28.1922   21.5159 C   0  0  0  0  0  0  0  0  0  0  0  0
  -25.1347  -29.2644   19.6197 C   0  0  0  0  0  0  0  0  0  0  0  0
  -31.4588  -21.9409   21.4935 C   0  0  0  0  0  0  0  0  0  0  0  0
  -28.8559  -22.7320   22.0811 C   0  0  0  0  0  0  0  0  0  0  0  0
  -21.9712  -20.8675   22.7457 C   0  0  0  0  0  0  0  0  0  0  0  0
  -27.3869  -28.1371   20.8194 C   0  0  0  0  0  0  0  0  0  0  0  0
  -26.3420  -29.2093   18.9232 C   0  0  0  0  0  0  0  0  0  0  0  0
  -20.7302  -21.1014   22.1551 C   0  0  0  0  0  0  0  0  0  0  0  0
  -28.7832  -26.2305   18.4028 C   0  0  0  0  0  0  0  0  0  0  0  0
  -29.5001  -25.0347   18.4438 C   0  0  0  0  0  0  0  0  0  0  0  0
  -21.2508  -19.4897   20.4373 C   0  0  0  0  0  0  0  0  0  0  0  0
  -15.9109  -23.5781   17.9413 C   0  0  0  0  0  0  0  0  0  0  0  0
  -31.3698  -26.1901   19.4472 C   0  0  0  0  0  0  0  0  0  0  0  0
  -18.2829  -23.7203   18.0413 C   0  0  0  0  0  0  0  0  0  0  0  0
  -25.0535  -28.7558   20.9160 C   0  0  0  0  0  0  0  0  0  0  0  0
  -23.3531  -29.8504   22.4709 C   0  0  0  0  0  0  0  0  0  0  0  0
  -30.3945  -21.4172   20.7427 C   0  0  0  0  0  0  0  0  0  0  0  0
  -22.8673  -19.9494   22.1795 C   0  0  0  0  0  0  0  0  0  0  0  0
  -29.0780  -21.8242   21.0317 C   0  0  0  0  0  0  0  0  0  0  0  0
  -22.5016  -19.2441   21.0242 C   0  0  0  0  0  0  0  0  0  0  0  0
  -17.0645  -24.3467   17.8338 C   0  0  0  0  0  0  0  0  0  0  0  0
  -16.0093  -22.2257   18.2486 C   0  0  0  0  0  0  0  0  0  0  0  0
  -27.4681  -28.6457   19.5231 C   0  0  0  0  0  0  0  0  0  0  0  0
  -20.3710  -20.4146   20.9990 C   0  0  0  0  0  0  0  0  0  0  0  0
  -29.3595  -27.4061   18.8840 C   0  0  0  0  0  0  0  0  0  0  0  0
  -30.7934  -25.0145   18.9660 C   0  0  0  0  0  0  0  0  0  0  0  0
  -30.6528  -27.3859   19.4062 C   0  0  0  0  0  0  0  0  0  0  0  0
  -23.8060  -28.8124   21.6347 C   0  0  0  0  0  0  0  0  0  0  0  0
  -17.2749  -21.6941   18.4373 C   0  0  0  0  0  0  0  0  0  0  0  0
  -22.1221  -29.4264   22.9085 C   0  0  0  0  0  0  0  0  0  0  0  0
  -23.9882  -31.0872   22.8209 C   0  0  0  0  0  0  0  0  0  0  0  0
  -25.7917  -20.1371   20.9481 C   0  0  0  0  0  0  0  0  0  0  0  0
  -25.5222  -16.9071   20.8181 C   0  0  0  0  0  0  0  0  0  0  0  0
  -23.4843  -14.1729   20.6859 C   0  0  0  0  0  0  0  0  0  0  0  0
  -18.0709  -25.6432   20.6445 C   0  0  0  0  0  0  0  0  0  0  0  0
  -30.7030  -20.4824   19.6001 C   0  0  0  0  0  0  0  0  0  0  0  0
  -24.1914  -19.6889   22.8439 C   0  0  0  0  0  0  0  0  0  0  0  0
  -23.4193  -18.2332   20.3883 C   0  0  0  0  0  0  0  0  0  0  0  0
  -29.4865  -19.7057   19.1030 C   0  0  0  0  0  0  0  0  0  0  0  0
  -19.6458  -25.4380   23.8311 C   0  0  0  0  0  0  0  0  0  0  0  0
  -28.2923  -20.6386   18.9287 C   0  0  0  0  0  0  0  0  0  0  0  0
  -20.8497  -26.3732   23.7050 C   0  0  0  0  0  0  0  0  0  0  0  0
  -19.3710  -24.6928   22.5268 C   0  0  0  0  0  0  0  0  0  0  0  0
  -20.4276  -26.4909   21.2136 C   0  0  0  0  0  0  0  0  0  0  0  0
  -27.8934  -21.2795   20.2635 C   0  0  1  0  0  0  0  0  0  0  0  0
  -25.2337  -19.1100   21.8922 C   0  0  1  0  0  0  0  0  0  0  0  0
  -20.7098  -27.3062   22.4871 C   0  0  2  0  0  0  0  0  0  0  0  0
  -14.0451  -21.6272   19.6874 C   0  0  0  0  0  0  0  0  0  0  0  0
  -23.5549  -11.6681   20.5492 C   0  0  0  0  0  0  0  0  0  0  0  0
  -26.2420  -17.0914   17.8587 C   0  0  0  0  0  0  0  0  0  0  0  0
  -25.3809  -14.7576   17.5755 C   0  0  0  0  0  0  0  0  0  0  0  0
  -27.3228  -15.1948   19.0791 C   0  0  0  0  0  0  0  0  0  0  0  0
  -22.0721  -13.8762   23.2698 C   0  0  0  0  0  0  0  0  0  0  0  0
  -16.9934  -25.7956   17.5055 C   0  0  0  0  0  0  0  0  0  0  0  0
  -14.7771  -21.3968   18.3671 C   0  0  0  0  0  0  0  0  0  0  0  0
  -17.4433  -20.2320   18.7722 C   0  0  0  0  0  0  0  0  0  0  0  0
  -16.8883  -26.7044   18.7381 C   0  0  0  0  0  0  0  0  0  0  0  0
  -18.8576  -19.9028   19.2373 C   0  0  0  0  0  0  0  0  0  1  0  0
  -25.0097  -15.9172   19.8000 C   0  0  1  0  0  0  0  0  0  0  0  0
  -23.4883  -12.8746   21.4726 C   0  0  2  0  0  0  0  0  0  0  0  0
  -25.9721  -15.7606   18.5890 C   0  0  0  0  0  0  0  0  0  0  0  0
  -18.4183  -22.4091   18.3413 N   0  0  0  0  0  0  0  0  0  0  0  0
  -22.9338  -27.8048   21.5449 N   0  0  0  0  0  0  0  0  0  0  0  0
  -21.9205  -28.2076   22.3305 N   0  0  0  0  0  0  0  0  0  0  0  0
  -24.7055  -18.0182   21.0717 N   0  0  0  0  0  0  0  0  0  0  0  0
  -19.2474  -25.6349   21.4118 N   0  0  0  0  0  0  0  0  0  0  0  0
  -21.2033  -29.9809   23.7275 N   0  0  0  0  0  0  0  0  0  0  0  0
  -25.2520  -31.3651   22.2824 N   0  0  0  0  0  0  0  0  0  0  0  0
  -27.1530  -20.3375   21.0752 N   0  0  0  0  0  0  0  0  0  0  0  0
  -24.7575  -14.6777   20.5270 N   0  0  0  0  0  0  0  0  0  0  0  0
  -18.0333  -26.5712   19.6110 N   0  0  0  0  0  0  0  0  0  0  0  0
  -22.2531  -12.7661   22.2993 N   0  3  0  0  0  0  0  0  0  0  0  0
  -23.4582  -31.9140   23.6013 O   0  0  0  0  0  0  0  0  0  0  0  0
  -25.0429  -20.7047   20.1615 O   0  0  0  0  0  0  0  0  0  0  0  0
  -26.6039  -16.6985   21.3732 O   0  0  0  0  0  0  0  0  0  0  0  0
  -22.4550  -14.6858   20.2523 O   0  0  0  0  0  0  0  0  0  0  0  0
  -17.1219  -24.8837   20.8676 O   0  0  0  0  0  0  0  0  0  0  0  0
  -28.6461  -28.5923   18.8433 O   0  0  0  0  0  0  0  0  0  0  0  0
  -19.1605  -20.6414   20.4201 O   0  0  0  0  0  0  0  0  0  1  0  0
  -31.4812  -23.8659   19.0067 F   0  0  0  0  0  0  0  0  0  0  0  0
  -31.2113  -28.5119   19.8709 F   0  0  0  0  0  0  0  0  0  0  0  0
  1  2  1  0  0  0  0
  1  5  2  0  0  0  0
  2  6  2  0  0  0  0
  3  8  2  0  0  0  0
  3 17  1  0  0  0  0
  4  9  1  0  0  0  0
  4 17  2  0  0  0  0
  5 19  1  0  0  0  0
  6 21  1  0  0  0  0
  7 10  2  0  0  0  0
  7 20  1  0  0  0  0
  8 25  1  0  0  0  0
  9 25  2  0  0  0  0
 10 26  1  0  0  0  0
 11 12  2  0  0  0  0
 11 27  1  0  0  0  0
 12 28  1  0  0  0  0
 13 22  1  0  0  0  0
 13 26  2  0  0  0  0
 14 23  2  0  0  0  0
 14 24  1  0  0  0  0
 15 28  2  0  0  0  0
 15 29  1  0  0  0  0
 16 23  1  0  0  0  0
 16 64  2  0  0  0  0
 17 30  1  0  0  0  0
 18 30  1  0  0  0  0
 18 32  2  0  0  0  0
 18 33  1  0  0  0  0
 19 21  2  0  0  0  0
 19 38  1  0  0  0  0
 20 22  2  0  0  0  0
 20 39  1  0  0  0  0
 21 47  1  0  0  0  0
 22 40  1  0  0  0  0
 23 56  1  0  0  0  0
 24 31  2  0  0  0  0
 24 57  1  0  0  0  0
 25 80  1  0  0  0  0
 26 81  1  0  0  0  0
 27 29  2  0  0  0  0
 27 80  1  0  0  0  0
 28 82  1  0  0  0  0
 29 83  1  0  0  0  0
 30 65  2  0  0  0  0
 31 58  1  0  0  0  0
 31 64  1  0  0  0  0
 32 66  1  0  0  0  0
 32 69  1  0  0  0  0
 33 70  1  0  0  0  0
 33 75  2  0  0  0  0
 34 48  1  0  0  0  0
 34 71  1  0  0  0  0
 34 76  2  0  0  0  0
 35 61  1  0  0  0  0
 35 67  1  0  0  0  0
 35 77  2  0  0  0  0
 36 62  1  0  0  0  0
 36 72  1  0  0  0  0
 36 78  2  0  0  0  0
 37 68  1  0  0  0  0
 37 73  1  0  0  0  0
 37 79  2  0  0  0  0
 38 41  1  0  0  0  0
 39 48  1  0  0  0  0
 40 67  1  0  0  0  0
 41 43  1  0  0  0  0
 42 44  1  0  0  0  0
 42 45  1  0  0  0  0
 43 47  1  0  0  0  0
 44 49  1  0  0  0  0
 45 68  1  0  0  0  0
 46 49  1  0  0  0  0
 46 68  1  0  0  0  0
 47 71  1  0  0  0  0
 48 67  1  0  0  0  0
 49 66  1  0  0  0  0
 50 57  1  0  0  0  0
 51 62  1  0  0  0  0
 52 63  1  0  0  0  0
 53 63  1  0  0  0  0
 54 63  1  0  0  0  0
 55 74  1  0  0  0  0
 56 59  1  0  0  0  0
 58 60  1  0  0  0  0
 59 73  1  0  0  0  0
 60 81  1  0  0  0  0
 61 63  1  0  0  0  0
 61 72  1  0  0  0  0
 62 74  1  0  0  0  0
 65 66  1  0  0  0  0
M  CHG  1  74   1
M  ISO  4  37 100  60 101  73 100  81 101
M  END
> <Batch ID>
0036

> <Smiles>
CCc1cc(CC[100NH:0][100C:0](=O)N2CCCC(n3nc(-c4ccc(Oc5ccc(F)cc5F)cc4)c(C(N)=O)c3N)C2)cnc1C[101CH2:1][101O:1]c1ccc2c(c1)CN(C(=O)C(NC(=O)C(C)NC)C(C)(C)C)C(C(=O)NC1CCCc3ccccc31)C2

> <Shape>
0.212

> <Color>
0.079

> <Negative vol penalty>
0.000

$$$$

  -OEChem-04052316563D

 86 94  0     1  0  0  0  0  0999 V2000
  -22.3516  -12.6989   20.0583 C   0  0  0  0  0  0  0  0  0  0  0  0
  -22.1127  -14.0325   19.7422 C   0  0  0  0  0  0  0  0  0  0  0  0
  -26.0909  -28.9260   20.5879 C   0  0  0  0  0  0  0  0  0  0  0  0
  -26.2963  -27.5106   22.5351 C   0  0  0  0  0  0  0  0  0  0  0  0
  -23.3880  -12.3650   20.9291 C   0  0  0  0  0  0  0  0  0  0  0  0
  -22.9094  -15.0330   20.2977 C   0  0  0  0  0  0  0  0  0  0  0  0
  -24.3356  -18.4969   16.8900 C   0  0  0  0  0  0  0  0  0  0  0  0
  -27.0414  -28.1506   19.9240 C   0  0  0  0  0  0  0  0  0  0  0  0
  -27.2468  -26.7352   21.8712 C   0  0  0  0  0  0  0  0  0  0  0  0
  -23.3937  -19.4585   16.5270 C   0  0  0  0  0  0  0  0  0  0  0  0
  -30.4056  -27.8261   19.8874 C   0  0  0  0  0  0  0  0  0  0  0  0
  -31.4081  -28.4932   19.1835 C   0  0  0  0  0  0  0  0  0  0  0  0
  -24.4384  -21.0375   18.0217 C   0  0  0  0  0  0  0  0  0  0  0  0
  -20.7726  -23.1688   14.3164 C   0  0  0  0  0  0  0  0  0  0  0  0
  -19.6824  -22.8384   16.4470 C   0  0  0  0  0  0  0  0  0  0  0  0
  -30.6834  -27.4266   17.1404 C   0  0  0  0  0  0  0  0  0  0  0  0
  -25.7184  -28.6061   21.8935 C   0  0  0  0  0  0  0  0  0  0  0  0
  -24.8168  -30.7813   22.8752 C   0  0  0  0  0  0  0  0  0  0  0  0
  -24.2039  -13.3612   21.4880 C   0  0  0  0  0  0  0  0  0  0  0  0
  -25.3312  -18.7955   17.8314 C   0  0  0  0  0  0  0  0  0  0  0  0
  -23.9568  -14.7122   21.1779 C   0  0  0  0  0  0  0  0  0  0  0  0
  -25.3934  -20.0787   18.3931 C   0  0  0  0  0  0  0  0  0  0  0  0
  -20.6432  -22.4584   15.5098 C   0  0  0  0  0  0  0  0  0  0  0  0
  -19.9413  -24.2593   14.0602 C   0  0  0  0  0  0  0  0  0  0  0  0
  -18.8511  -23.9288   16.1908 C   0  0  0  0  0  0  0  0  0  0  0  0
  -18.9806  -24.6392   14.9974 C   0  0  0  0  0  0  0  0  0  0  0  0
  -27.6193  -27.0552   20.5656 C   0  0  0  0  0  0  0  0  0  0  0  0
  -23.4432  -20.7281   17.0950 C   0  0  0  0  0  0  0  0  0  0  0  0
  -29.5420  -26.9591   19.2178 C   0  0  0  0  0  0  0  0  0  0  0  0
  -31.5470  -28.2935   17.8100 C   0  0  0  0  0  0  0  0  0  0  0  0
  -29.6809  -26.7594   17.8443 C   0  0  0  0  0  0  0  0  0  0  0  0
  -24.7370  -29.4071   22.5801 C   0  0  0  0  0  0  0  0  0  0  0  0
  -23.6427  -31.0605   23.5308 C   0  0  0  0  0  0  0  0  0  0  0  0
  -25.8591  -31.7213   22.5826 C   0  0  0  0  0  0  0  0  0  0  0  0
  -26.1143  -17.6736   20.7005 C   0  0  0  0  0  0  0  0  0  0  0  0
  -28.6486  -19.6694   20.3589 C   0  0  0  0  0  0  0  0  0  0  0  0
  -29.9672  -22.4521   18.8878 C   0  0  0  0  0  0  0  0  0  0  0  0
  -18.2385  -28.4827   23.4924 C   0  0  0  0  0  0  0  0  0  0  0  0
  -25.2821  -12.9551   22.4613 C   0  0  0  0  0  0  0  0  0  0  0  0
  -26.3561  -17.7554   18.1923 C   0  0  0  0  0  0  0  0  0  0  0  0
  -26.4545  -20.4560   19.3932 C   0  0  0  0  0  0  0  0  0  0  0  0
  -26.3178  -14.0477   22.7137 C   0  0  0  0  0  0  0  0  0  0  0  0
  -20.3346  -29.0189   26.3200 C   0  0  0  0  0  0  0  0  0  0  0  0
  -25.6313  -15.3868   22.9630 C   0  0  0  0  0  0  0  0  0  0  0  0
  -21.7078  -29.3032   25.7088 C   0  0  0  0  0  0  0  0  0  0  0  0
  -19.5668  -27.9694   25.5194 C   0  0  0  0  0  0  0  0  0  0  0  0
  -20.8060  -28.5484   23.4692 C   0  0  0  0  0  0  0  0  0  0  0  0
  -24.8149  -15.8243   21.7409 C   0  0  1  0  0  0  0  0  0  0  0  0
  -27.0142  -18.0093   19.5450 C   0  0  1  0  0  0  0  0  0  0  0  0
  -21.5953  -29.6413   24.2100 C   0  0  2  0  0  0  0  0  0  0  0  0
  -20.0995  -25.0026   12.7741 C   0  0  0  0  0  0  0  0  0  0  0  0
  -18.0891  -25.8081   14.7222 C   0  0  0  0  0  0  0  0  0  0  0  0
  -32.0479  -23.8541   18.8349 C   0  0  0  0  0  0  0  0  0  0  0  0
  -27.8961  -20.8837   23.0551 C   0  0  0  0  0  0  0  0  0  0  0  0
  -29.3663  -22.8350   22.5080 C   0  0  0  0  0  0  0  0  0  0  0  0
  -30.3506  -20.5517   22.7091 C   0  0  0  0  0  0  0  0  0  0  0  0
  -30.3827  -21.9336   16.0038 C   0  0  0  0  0  0  0  0  0  0  0  0
  -17.8302  -24.3153   17.2106 C   0  0  0  0  0  0  0  0  0  0  0  0
  -21.5378  -21.2859   15.7857 C   0  0  0  0  0  0  0  0  0  1  0  0
  -16.5939  -27.7491   20.7021 C   0  0  0  0  0  0  0  0  0  0  0  0
  -17.6321  -27.2172   19.7070 C   0  0  0  0  0  0  0  0  0  0  0  0
  -17.0477  -29.0354   21.3863 C   0  0  0  0  0  0  0  0  0  0  0  0
  -17.1696  -25.9722   18.9591 C   0  0  0  0  0  0  0  0  0  0  0  0
  -28.9249  -21.1142   20.6983 C   0  0  1  0  0  0  0  0  0  0  0  0
  -31.2989  -22.6928   18.1999 C   0  0  2  0  0  0  0  0  0  0  0  0
  -29.1132  -21.3388   22.2252 C   0  0  0  0  0  0  0  0  0  0  0  0
  -23.6019  -28.8519   23.0130 N   0  0  0  0  0  0  0  0  0  0  0  0
  -22.9578  -29.8824   23.5868 N   0  0  0  0  0  0  0  0  0  0  0  0
  -27.4302  -19.4026   19.7185 N   0  0  0  0  0  0  0  0  0  0  0  0
  -19.4948  -28.3507   24.1068 N   0  0  0  0  0  0  0  0  0  0  0  0
  -23.1397  -32.1963   24.0593 N   0  0  0  0  0  0  0  0  0  0  0  0
  -26.8837  -31.8969   23.5227 N   0  0  0  0  0  0  0  0  0  0  0  0
  -25.6859  -16.3600   20.7167 N   0  0  0  0  0  0  0  0  0  0  0  0
  -30.0728  -21.5110   19.8900 N   0  0  0  0  0  0  0  0  0  0  0  0
  -18.2598  -28.8534   22.1534 N   0  0  0  0  0  0  0  0  0  0  0  0
  -31.0883  -23.0019   16.7573 N   0  3  0  0  0  0  0  0  0  0  0  0
  -18.1976  -25.5363   17.9777 N   0  3  0  0  0  0  0  0  0  0  0  0
  -25.8725  -32.3979   21.5264 O   0  0  0  0  0  0  0  0  0  0  0  0
  -25.8309  -18.5417   21.5176 O   0  0  0  0  0  0  0  0  0  0  0  0
  -29.4862  -18.8102   20.6449 O   0  0  0  0  0  0  0  0  0  0  0  0
  -28.9373  -23.0429   18.5705 O   0  0  0  0  0  0  0  0  0  0  0  0
  -17.1765  -28.2901   24.0941 O   0  0  0  0  0  0  0  0  0  0  0  0
  -28.5467  -26.2981   19.9179 O   0  0  0  0  0  0  0  0  0  0  0  0
  -22.5246  -21.6684   16.7429 O   0  0  0  0  0  0  0  0  0  1  0  0
  -32.5088  -28.9354   17.1339 F   0  0  0  0  0  0  0  0  0  0  0  0
  -28.8534  -25.9287   17.1954 F   0  0  0  0  0  0  0  0  0  0  0  0
  1  2  1  0  0  0  0
  1  5  2  0  0  0  0
  2  6  2  0  0  0  0
  3  8  2  0  0  0  0
  3 17  1  0  0  0  0
  4  9  1  0  0  0  0
  4 17  2  0  0  0  0
  5 19  1  0  0  0  0
  6 21  1  0  0  0  0
  7 10  2  0  0  0  0
  7 20  1  0  0  0  0
  8 27  1  0  0  0  0
  9 27  2  0  0  0  0
 10 28  1  0  0  0  0
 11 12  2  0  0  0  0
 11 29  1  0  0  0  0
 12 30  1  0  0  0  0
 13 22  1  0  0  0  0
 13 28  2  0  0  0  0
 14 23  1  0  0  0  0
 14 24  2  0  0  0  0
 15 23  2  0  0  0  0
 15 25  1  0  0  0  0
 16 30  2  0  0  0  0
 16 31  1  0  0  0  0
 17 32  1  0  0  0  0
 18 32  1  0  0  0  0
 18 33  2  0  0  0  0
 18 34  1  0  0  0  0
 19 21  2  0  0  0  0
 19 39  1  0  0  0  0
 20 22  2  0  0  0  0
 20 40  1  0  0  0  0
 21 48  1  0  0  0  0
 22 41  1  0  0  0  0
 23 59  1  0  0  0  0
 24 26  1  0  0  0  0
 24 51  1  0  0  0  0
 25 26  2  0  0  0  0
 25 58  1  0  0  0  0
 26 52  1  0  0  0  0
 27 83  1  0  0  0  0
 28 84  1  0  0  0  0
 29 31  2  0  0  0  0
 29 83  1  0  0  0  0
 30 85  1  0  0  0  0
 31 86  1  0  0  0  0
 32 67  2  0  0  0  0
 33 68  1  0  0  0  0
 33 71  1  0  0  0  0
 34 72  1  0  0  0  0
 34 78  2  0  0  0  0
 35 49  1  0  0  0  0
 35 73  1  0  0  0  0
 35 79  2  0  0  0  0
 36 64  1  0  0  0  0
 36 69  1  0  0  0  0
 36 80  2  0  0  0  0
 37 65  1  0  0  0  0
 37 74  1  0  0  0  0
 37 81  2  0  0  0  0
 38 70  1  0  0  0  0
 38 75  1  0  0  0  0
 38 82  2  0  0  0  0
 39 42  1  0  0  0  0
 40 49  1  0  0  0  0
 41 69  1  0  0  0  0
 42 44  1  0  0  0  0
 43 45  1  0  0  0  0
 43 46  1  0  0  0  0
 44 48  1  0  0  0  0
 45 50  1  0  0  0  0
 46 70  1  0  0  0  0
 47 50  1  0  0  0  0
 47 70  1  0  0  0  0
 48 73  1  0  0  0  0
 49 69  1  0  0  0  0
 50 68  1  0  0  0  0
 53 65  1  0  0  0  0
 54 66  1  0  0  0  0
 55 66  1  0  0  0  0
 56 66  1  0  0  0  0
 57 76  1  0  0  0  0
 58 77  1  0  0  0  0
 59 84  1  0  0  0  0
 60 61  1  0  0  0  0
 60 62  1  0  0  0  0
 61 63  1  0  0  0  0
 62 75  1  0  0  0  0
 63 77  1  0  0  0  0
 64 66  1  0  0  0  0
 64 74  1  0  0  0  0
 65 76  1  0  0  0  0
 67 68  1  0  0  0  0
M  CHG  2  76   1  77   1
M  ISO  4  38 100  59 101  75 100  84 101
M  END
> <Batch ID>
0036

> <Smiles>
CNC(C)C(=O)NC(C(=O)N1Cc2cc([101O:1][101CH2:1]c3cc(C)c(C)c(CNCCCC[100NH:0][100C:0](=O)N4CCCC(n5nc(-c6ccc(Oc7ccc(F)cc7F)cc6)c(C(N)=O)c5N)C4)c3)ccc2CC1C(=O)NC1CCCc2ccccc21)C(C)(C)C

> <Shape>
0.206

> <Color>
0.075

> <Negative vol penalty>
0.000

$$$$

  -OEChem-04052316563D

 86 94  0     1  0  0  0  0  0999 V2000
  -18.8040  -25.1731   19.7871 C   0  0  0  0  0  0  0  0  0  0  0  0
  -20.1406  -25.4828   19.5569 C   0  0  0  0  0  0  0  0  0  0  0  0
  -24.1391  -14.1540   20.8378 C   0  0  0  0  0  0  0  0  0  0  0  0
  -26.5522  -14.0444   20.8807 C   0  0  0  0  0  0  0  0  0  0  0  0
  -18.1181  -25.7858   20.8349 C   0  0  0  0  0  0  0  0  0  0  0  0
  -20.7918  -26.4063   20.3739 C   0  0  0  0  0  0  0  0  0  0  0  0
  -25.4013  -24.8479   21.7771 C   0  0  0  0  0  0  0  0  0  0  0  0
  -24.0844  -12.8083   20.4750 C   0  0  0  0  0  0  0  0  0  0  0  0
  -26.4976  -12.6986   20.5180 C   0  0  0  0  0  0  0  0  0  0  0  0
  -26.4261  -24.9658   20.8392 C   0  0  0  0  0  0  0  0  0  0  0  0
  -23.2989   -9.3075   19.8896 C   0  0  0  0  0  0  0  0  0  0  0  0
  -22.3749   -8.4956   20.5474 C   0  0  0  0  0  0  0  0  0  0  0  0
  -27.1815  -26.9821   21.9270 C   0  0  0  0  0  0  0  0  0  0  0  0
  -31.4475  -22.8277   21.3809 C   0  0  0  0  0  0  0  0  0  0  0  0
  -30.4163  -23.7942   18.9757 C   0  0  0  0  0  0  0  0  0  0  0  0
  -23.4422   -8.9906   22.6576 C   0  0  0  0  0  0  0  0  0  0  0  0
  -25.3730  -14.7721   21.0406 C   0  0  0  0  0  0  0  0  0  0  0  0
  -25.4312  -16.6923   22.7190 C   0  0  0  0  0  0  0  0  0  0  0  0
  -18.7639  -26.7101   21.6712 C   0  0  0  0  0  0  0  0  0  0  0  0
  -25.2520  -25.8038   22.7922 C   0  0  0  0  0  0  0  0  0  0  0  0
  -20.1135  -27.0330   21.4332 C   0  0  0  0  0  0  0  0  0  0  0  0
  -26.1555  -26.8726   22.8780 C   0  0  0  0  0  0  0  0  0  0  0  0
  -31.0318  -21.9361   20.3920 C   0  0  0  0  0  0  0  0  0  0  0  0
  -31.3475  -24.2025   21.1673 C   0  0  0  0  0  0  0  0  0  0  0  0
  -30.8319  -24.6857   19.9647 C   0  0  0  0  0  0  0  0  0  0  0  0
  -30.5163  -22.4194   19.1894 C   0  0  0  0  0  0  0  0  0  0  0  0
  -25.2636  -12.0806   20.3152 C   0  0  0  0  0  0  0  0  0  0  0  0
  -27.3147  -26.0345   20.9124 C   0  0  0  0  0  0  0  0  0  0  0  0
  -24.2946   -9.9610   20.6158 C   0  0  0  0  0  0  0  0  0  0  0  0
  -22.4466   -8.3371   21.9314 C   0  0  0  0  0  0  0  0  0  0  0  0
  -24.3662   -9.8025   21.9998 C   0  0  0  0  0  0  0  0  0  0  0  0
  -25.4302  -16.1624   21.4148 C   0  0  0  0  0  0  0  0  0  0  0  0
  -25.4971  -18.0521   22.5370 C   0  0  0  0  0  0  0  0  0  0  0  0
  -25.3776  -16.0159   23.9821 C   0  0  0  0  0  0  0  0  0  0  0  0
  -22.9776  -27.8668   23.6136 C   0  0  0  0  0  0  0  0  0  0  0  0
  -24.9146  -28.3890   26.1627 C   0  0  0  0  0  0  0  0  0  0  0  0
  -28.0584  -28.2697   27.4851 C   0  0  0  0  0  0  0  0  0  0  0  0
  -27.5839  -21.4743   18.0890 C   0  0  0  0  0  0  0  0  0  0  0  0
  -17.9679  -27.3820   22.7619 C   0  0  0  0  0  0  0  0  0  0  0  0
  -24.1575  -25.6477   23.8120 C   0  0  0  0  0  0  0  0  0  0  0  0
  -26.0507  -27.9145   23.9606 C   0  0  0  0  0  0  0  0  0  0  0  0
  -18.8351  -28.0692   23.8136 C   0  0  0  0  0  0  0  0  0  0  0  0
  -24.2832  -21.4764   19.4238 C   0  0  0  0  0  0  0  0  0  0  0  0
  -19.9279  -28.8978   23.1460 C   0  0  0  0  0  0  0  0  0  0  0  0
  -24.2030  -20.1625   20.2031 C   0  0  0  0  0  0  0  0  0  0  0  0
  -25.1119  -21.3272   18.1498 C   0  0  0  0  0  0  0  0  0  0  0  0
  -26.3827  -19.4573   19.1307 C   0  0  0  0  0  0  0  0  0  0  0  0
  -20.8614  -28.0111   22.3130 C   0  0  1  0  0  0  0  0  0  0  0  0
  -23.7871  -26.9598   24.4966 C   0  0  1  0  0  0  0  0  0  0  0  0
  -25.6038  -19.5719   20.4523 C   0  0  2  0  0  0  0  0  0  0  0  0
  -31.1491  -20.4686   20.6430 C   0  0  0  0  0  0  0  0  0  0  0  0
  -29.3359  -28.7981   29.5794 C   0  0  0  0  0  0  0  0  0  0  0  0
  -33.8848  -24.3691   23.4229 C   0  0  0  0  0  0  0  0  0  0  0  0
  -34.0626  -25.0830   21.0392 C   0  0  0  0  0  0  0  0  0  0  0  0
  -33.6705  -26.7849   22.8382 C   0  0  0  0  0  0  0  0  0  0  0  0
  -24.8158  -31.3590   25.4708 C   0  0  0  0  0  0  0  0  0  0  0  0
  -26.8055  -31.6990   26.9520 C   0  0  0  0  0  0  0  0  0  0  0  0
  -24.6660  -30.8518   27.9151 C   0  0  0  0  0  0  0  0  0  0  0  0
  -28.8652  -25.4450   27.8441 C   0  0  0  0  0  0  0  0  0  0  0  0
  -30.7133  -26.1689   19.7110 C   0  0  0  0  0  0  0  0  0  0  0  0
  -31.7980  -25.1378   22.2409 C   0  0  0  0  0  0  0  0  0  0  0  0
  -30.0655  -21.4839   18.1159 C   0  0  0  0  0  0  0  0  0  0  0  0
  -29.5187  -26.7864   20.4298 C   0  0  0  0  0  0  0  0  0  1  0  0
  -26.0608  -29.3252   26.4605 C   0  0  1  0  0  0  0  0  0  0  0  0
  -28.5755  -27.7314   28.8069 C   0  0  2  0  0  0  0  0  0  0  0  0
  -33.3402  -25.3571   22.3696 C   0  0  0  0  0  0  0  0  0  0  0  0
  -25.5881  -30.7903   26.6779 C   0  0  0  0  0  0  0  0  0  0  0  0
  -25.4904  -17.1083   20.4738 N   0  0  0  0  0  0  0  0  0  0  0  0
  -25.5298  -18.2464   21.1874 N   0  0  0  0  0  0  0  0  0  0  0  0
  -24.9600  -27.7217   24.9305 N   0  0  0  0  0  0  0  0  0  0  0  0
  -26.4290  -20.7637   18.4555 N   0  0  0  0  0  0  0  0  0  0  0  0
  -25.5295  -19.0886   23.4013 N   0  0  0  0  0  0  0  0  0  0  0  0
  -25.3132  -14.6159   23.9880 N   0  0  0  0  0  0  0  0  0  0  0  0
  -21.7924  -27.3107   23.1715 N   0  0  0  0  0  0  0  0  0  0  0  0
  -26.7714  -28.7515   27.5981 N   0  0  0  0  0  0  0  0  0  0  0  0
  -28.7914  -20.8724   18.4215 N   0  0  0  0  0  0  0  0  0  0  0  0
  -29.4899  -26.5779   28.5743 N   0  3  0  0  0  0  0  0  0  0  0  0
  -25.3700  -16.6355   25.0727 O   0  0  0  0  0  0  0  0  0  0  0  0
  -23.3965  -28.9888   23.3539 O   0  0  0  0  0  0  0  0  0  0  0  0
  -24.0158  -28.2493   26.9960 O   0  0  0  0  0  0  0  0  0  0  0  0
  -28.7305  -28.2668   26.4560 O   0  0  0  0  0  0  0  0  0  0  0  0
  -27.5420  -22.5668   17.5132 O   0  0  0  0  0  0  0  0  0  0  0  0
  -25.2106  -10.7673   19.9614 O   0  0  0  0  0  0  0  0  0  0  0  0
  -28.3155  -26.1524   19.9978 O   0  0  0  0  0  0  0  0  0  1  0  0
  -21.5583   -7.5586   22.5631 F   0  0  0  0  0  0  0  0  0  0  0  0
  -25.3198  -10.4287   22.7030 F   0  0  0  0  0  0  0  0  0  0  0  0
  1  2  1  0  0  0  0
  1  5  2  0  0  0  0
  2  6  2  0  0  0  0
  3  8  2  0  0  0  0
  3 17  1  0  0  0  0
  4  9  1  0  0  0  0
  4 17  2  0  0  0  0
  5 19  1  0  0  0  0
  6 21  1  0  0  0  0
  7 10  2  0  0  0  0
  7 20  1  0  0  0  0
  8 27  1  0  0  0  0
  9 27  2  0  0  0  0
 10 28  1  0  0  0  0
 11 12  2  0  0  0  0
 11 29  1  0  0  0  0
 12 30  1  0  0  0  0
 13 22  1  0  0  0  0
 13 28  2  0  0  0  0
 14 23  2  0  0  0  0
 14 24  1  0  0  0  0
 15 25  1  0  0  0  0
 15 26  2  0  0  0  0
 16 30  2  0  0  0  0
 16 31  1  0  0  0  0
 17 32  1  0  0  0  0
 18 32  1  0  0  0  0
 18 33  2  0  0  0  0
 18 34  1  0  0  0  0
 19 21  2  0  0  0  0
 19 39  1  0  0  0  0
 20 22  2  0  0  0  0
 20 40  1  0  0  0  0
 21 48  1  0  0  0  0
 22 41  1  0  0  0  0
 23 26  1  0  0  0  0
 23 51  1  0  0  0  0
 24 25  2  0  0  0  0
 24 61  1  0  0  0  0
 25 60  1  0  0  0  0
 26 62  1  0  0  0  0
 27 83  1  0  0  0  0
 28 84  1  0  0  0  0
 29 31  2  0  0  0  0
 29 83  1  0  0  0  0
 30 85  1  0  0  0  0
 31 86  1  0  0  0  0
 32 68  2  0  0  0  0
 33 69  1  0  0  0  0
 33 72  1  0  0  0  0
 34 73  1  0  0  0  0
 34 78  2  0  0  0  0
 35 49  1  0  0  0  0
 35 74  1  0  0  0  0
 35 79  2  0  0  0  0
 36 64  1  0  0  0  0
 36 70  1  0  0  0  0
 36 80  2  0  0  0  0
 37 65  1  0  0  0  0
 37 75  1  0  0  0  0
 37 81  2  0  0  0  0
 38 71  1  0  0  0  0
 38 76  1  0  0  0  0
 38 82  2  0  0  0  0
 39 42  1  0  0  0  0
 40 49  1  0  0  0  0
 41 70  1  0  0  0  0
 42 44  1  0  0  0  0
 43 45  1  0  0  0  0
 43 46  1  0  0  0  0
 44 48  1  0  0  0  0
 45 50  1  0  0  0  0
 46 71  1  0  0  0  0
 47 50  1  0  0  0  0
 47 71  1  0  0  0  0
 48 74  1  0  0  0  0
 49 70  1  0  0  0  0
 50 69  1  0  0  0  0
 52 65  1  0  0  0  0
 53 66  1  0  0  0  0
 54 66  1  0  0  0  0
 55 66  1  0  0  0  0
 56 67  1  0  0  0  0
 57 67  1  0  0  0  0
 58 67  1  0  0  0  0
 59 77  1  0  0  0  0
 60 63  1  0  0  0  0
 61 66  1  0  0  0  0
 62 76  1  0  0  0  0
 63 84  1  0  0  0  0
 64 67  1  0  0  0  0
 64 75  1  0  0  0  0
 65 77  1  0  0  0  0
 68 69  1  0  0  0  0
M  CHG  1  77   1
M  ISO  4  38 100  63 101  76 100  84 101
M  END
> <Batch ID>
0036

> <Smiles>
CNC(C)C(=O)NC(C(=O)N1Cc2cc([101O:1][101CH2:1]Cc3cc(C[100NH:0][100C:0](=O)N4CCCC(n5nc(-c6ccc(Oc7ccc(F)cc7F)cc6)c(C(N)=O)c5N)C4)c(C)cc3CC(C)(C)C)ccc2CC1C(=O)NC1CCCc2ccccc21)C(C)(C)C

> <Shape>
0.206

> <Color>
0.087

> <Negative vol penalty>
0.000

$$$$

  -OEChem-04052316563D

 86 94  0     1  0  0  0  0  0999 V2000
  -32.2851  -25.3089   19.5102 C   0  0  0  0  0  0  0  0  0  0  0  0
  -31.1020  -24.6921   19.1164 C   0  0  0  0  0  0  0  0  0  0  0  0
  -23.1837   -9.7933   20.2945 C   0  0  0  0  0  0  0  0  0  0  0  0
  -23.3073  -10.4618   22.6128 C   0  0  0  0  0  0  0  0  0  0  0  0
  -32.3791  -25.8921   20.7731 C   0  0  0  0  0  0  0  0  0  0  0  0
  -30.0123  -24.6572   19.9859 C   0  0  0  0  0  0  0  0  0  0  0  0
  -25.6517  -25.8091   17.6830 C   0  0  0  0  0  0  0  0  0  0  0  0
  -22.3655   -8.7203   20.6475 C   0  0  0  0  0  0  0  0  0  0  0  0
  -22.4890   -9.3888   22.9659 C   0  0  0  0  0  0  0  0  0  0  0  0
  -25.0574  -24.8128   16.9098 C   0  0  0  0  0  0  0  0  0  0  0  0
  -20.1383   -7.0352   24.4332 C   0  0  0  0  0  0  0  0  0  0  0  0
  -19.0972   -7.2797   25.3287 C   0  0  0  0  0  0  0  0  0  0  0  0
  -23.5426  -24.3191   18.7211 C   0  0  0  0  0  0  0  0  0  0  0  0
  -27.2321  -18.8189   17.3938 C   0  0  0  0  0  0  0  0  0  0  0  0
  -25.5005  -20.7006   18.5088 C   0  0  0  0  0  0  0  0  0  0  0  0
  -18.1510   -8.8847   23.7906 C   0  0  0  0  0  0  0  0  0  0  0  0
  -23.6546  -10.6641   21.2772 C   0  0  0  0  0  0  0  0  0  0  0  0
  -24.0926  -13.0728   20.5602 C   0  0  0  0  0  0  0  0  0  0  0  0
  -31.2869  -25.8728   21.6548 C   0  0  0  0  0  0  0  0  0  0  0  0
  -25.2023  -26.0610   18.9873 C   0  0  0  0  0  0  0  0  0  0  0  0
  -30.0922  -25.2395   21.2623 C   0  0  0  0  0  0  0  0  0  0  0  0
  -24.1312  -25.3209   19.5079 C   0  0  0  0  0  0  0  0  0  0  0  0
  -25.9671  -19.0166   16.8404 C   0  0  0  0  0  0  0  0  0  0  0  0
  -27.6313  -19.5619   18.5048 C   0  0  0  0  0  0  0  0  0  0  0  0
  -25.1013  -19.9575   17.3978 C   0  0  0  0  0  0  0  0  0  0  0  0
  -22.0181   -8.5180   21.9831 C   0  0  0  0  0  0  0  0  0  0  0  0
  -24.0046  -24.0656   17.4298 C   0  0  0  0  0  0  0  0  0  0  0  0
  -20.1858   -7.7155   23.2163 C   0  0  0  0  0  0  0  0  0  0  0  0
  -18.1036   -8.2044   25.0074 C   0  0  0  0  0  0  0  0  0  0  0  0
  -19.1921   -8.6402   22.8950 C   0  0  0  0  0  0  0  0  0  0  0  0
  -26.7655  -20.5028   19.0622 C   0  0  0  0  0  0  0  0  0  0  0  0
  -24.5004  -11.7725   20.9132 C   0  0  0  0  0  0  0  0  0  0  0  0
  -25.2642  -13.7428   20.3054 C   0  0  0  0  0  0  0  0  0  0  0  0
  -22.7728  -13.6257   20.4706 C   0  0  0  0  0  0  0  0  0  0  0  0
  -26.5104  -25.9043   21.8800 C   0  0  0  0  0  0  0  0  0  0  0  0
  -23.6906  -27.2179   22.7996 C   0  0  0  0  0  0  0  0  0  0  0  0
  -20.3807  -27.7270   22.1426 C   0  0  0  0  0  0  0  0  0  0  0  0
  -30.5295  -15.0207   21.6431 C   0  0  0  0  0  0  0  0  0  0  0  0
  -31.4515  -26.4751   23.0277 C   0  0  0  0  0  0  0  0  0  0  0  0
  -25.8364  -27.1573   19.7987 C   0  0  0  0  0  0  0  0  0  0  0  0
  -23.5981  -25.5658   20.8951 C   0  0  0  0  0  0  0  0  0  0  0  0
  -30.1280  -26.7233   23.7466 C   0  0  0  0  0  0  0  0  0  0  0  0
  -29.9945  -12.0254   19.7942 C   0  0  0  0  0  0  0  0  0  0  0  0
  -29.2213  -25.5020   23.6326 C   0  0  0  0  0  0  0  0  0  0  0  0
  -28.4855  -11.7968   19.8968 C   0  0  0  0  0  0  0  0  0  0  0  0
  -30.5662  -12.6075   21.0851 C   0  0  0  0  0  0  0  0  0  0  0  0
  -28.3877  -13.6035   21.6645 C   0  0  0  0  0  0  0  0  0  0  0  0
  -28.8802  -25.2029   22.1677 C   0  0  1  0  0  0  0  0  0  0  0  0
  -25.6366  -26.9807   21.3008 C   0  0  1  0  0  0  0  0  0  0  0  0
  -27.7563  -13.0696   20.3674 C   0  0  2  0  0  0  0  0  0  0  0  0
  -25.5596  -18.2084   15.6524 C   0  0  0  0  0  0  0  0  0  0  0  0
  -18.3262  -28.8064   23.0973 C   0  0  0  0  0  0  0  0  0  0  0  0
  -23.4190  -24.9280   24.7978 C   0  0  0  0  0  0  0  0  0  0  0  0
  -20.9936  -25.5061   25.0246 C   0  0  0  0  0  0  0  0  0  0  0  0
  -22.7362  -27.1672   25.6780 C   0  0  0  0  0  0  0  0  0  0  0  0
  -20.1093  -29.5365   19.8165 C   0  0  0  0  0  0  0  0  0  0  0  0
  -28.9945  -19.3200   19.0679 C   0  0  0  0  0  0  0  0  0  0  0  0
  -23.7282  -20.1864   16.8184 C   0  0  0  0  0  0  0  0  0  0  0  0
  -28.9500  -18.4697   20.3456 C   0  0  0  0  0  0  0  0  0  0  0  0
  -23.7335  -21.0091   15.5281 C   0  0  0  0  0  0  0  0  0  0  0  0
  -30.3489  -18.2599   20.9326 C   0  0  0  0  0  0  0  0  0  0  0  0
  -30.3299  -17.4284   22.2111 C   0  0  0  0  0  0  0  0  0  0  0  0
  -24.2493  -22.4305   15.7204 C   0  0  0  0  0  0  0  0  0  1  0  0
  -22.3483  -26.6763   23.2284 C   0  0  1  0  0  0  0  0  0  0  0  0
  -19.5275  -28.9820   22.1814 C   0  0  2  0  0  0  0  0  0  0  0  0
  -22.3854  -26.0632   24.6567 C   0  0  0  0  0  0  0  0  0  0  0  0
  -25.8274  -11.6230   20.8861 N   0  0  0  0  0  0  0  0  0  0  0  0
  -26.2636  -12.8381   20.5129 N   0  0  0  0  0  0  0  0  0  0  0  0
  -24.2554  -26.6443   21.6516 N   0  0  0  0  0  0  0  0  0  0  0  0
  -29.8317  -13.8133   21.4756 N   0  0  0  0  0  0  0  0  0  0  0  0
  -25.5268  -15.0115   19.9263 N   0  0  0  0  0  0  0  0  0  0  0  0
  -21.6805  -12.7988   20.7665 N   0  0  0  0  0  0  0  0  0  0  0  0
  -27.8628  -26.1142   21.6894 N   0  0  0  0  0  0  0  0  0  0  0  0
  -21.3975  -27.7718   23.0728 N   0  0  0  0  0  0  0  0  0  0  0  0
  -29.7568  -16.1165   22.0077 N   0  0  0  0  0  0  0  0  0  0  0  0
  -19.0325  -29.3142   20.8155 N   0  3  0  0  0  0  0  0  0  0  0  0
  -22.5673  -14.8131   20.1222 O   0  0  0  0  0  0  0  0  0  0  0  0
  -25.9958  -24.9544   22.4584 O   0  0  0  0  0  0  0  0  0  0  0  0
  -24.2154  -28.1217   23.4549 O   0  0  0  0  0  0  0  0  0  0  0  0
  -20.1643  -26.7981   21.3675 O   0  0  0  0  0  0  0  0  0  0  0  0
  -31.7499  -15.1165   21.4746 O   0  0  0  0  0  0  0  0  0  0  0  0
  -21.2195   -7.4711   22.3279 O   0  0  0  0  0  0  0  0  0  0  0  0
  -23.4232  -23.0921   16.6775 O   0  0  0  0  0  0  0  0  0  1  0  0
  -17.1031   -8.4379   25.8669 F   0  0  0  0  0  0  0  0  0  0  0  0
  -19.2317   -9.2959   21.7270 F   0  0  0  0  0  0  0  0  0  0  0  0
  -27.2245  -21.4404   20.4368 Cl  0  0  0  0  0  0  0  0  0  0  0  0
  1  2  1  0  0  0  0
  1  5  2  0  0  0  0
  2  6  2  0  0  0  0
  3  8  2  0  0  0  0
  3 17  1  0  0  0  0
  4  9  1  0  0  0  0
  4 17  2  0  0  0  0
  5 19  1  0  0  0  0
  6 21  1  0  0  0  0
  7 10  2  0  0  0  0
  7 20  1  0  0  0  0
  8 26  1  0  0  0  0
  9 26  2  0  0  0  0
 10 27  1  0  0  0  0
 11 12  2  0  0  0  0
 11 28  1  0  0  0  0
 12 29  1  0  0  0  0
 13 22  1  0  0  0  0
 13 27  2  0  0  0  0
 14 23  1  0  0  0  0
 14 24  2  0  0  0  0
 15 25  1  0  0  0  0
 15 31  2  0  0  0  0
 16 29  2  0  0  0  0
 16 30  1  0  0  0  0
 17 32  1  0  0  0  0
 18 32  1  0  0  0  0
 18 33  2  0  0  0  0
 18 34  1  0  0  0  0
 19 21  2  0  0  0  0
 19 39  1  0  0  0  0
 20 22  2  0  0  0  0
 20 40  1  0  0  0  0
 21 48  1  0  0  0  0
 22 41  1  0  0  0  0
 23 25  2  0  0  0  0
 23 51  1  0  0  0  0
 24 31  1  0  0  0  0
 24 57  1  0  0  0  0
 25 58  1  0  0  0  0
 26 82  1  0  0  0  0
 27 83  1  0  0  0  0
 28 30  2  0  0  0  0
 28 82  1  0  0  0  0
 29 84  1  0  0  0  0
 30 85  1  0  0  0  0
 31 86  1  0  0  0  0
 32 67  2  0  0  0  0
 33 68  1  0  0  0  0
 33 71  1  0  0  0  0
 34 72  1  0  0  0  0
 34 77  2  0  0  0  0
 35 49  1  0  0  0  0
 35 73  1  0  0  0  0
 35 78  2  0  0  0  0
 36 64  1  0  0  0  0
 36 69  1  0  0  0  0
 36 79  2  0  0  0  0
 37 65  1  0  0  0  0
 37 74  1  0  0  0  0
 37 80  2  0  0  0  0
 38 70  1  0  0  0  0
 38 75  1  0  0  0  0
 38 81  2  0  0  0  0
 39 42  1  0  0  0  0
 40 49  1  0  0  0  0
 41 69  1  0  0  0  0
 42 44  1  0  0  0  0
 43 45  1  0  0  0  0
 43 46  1  0  0  0  0
 44 48  1  0  0  0  0
 45 50  1  0  0  0  0
 46 70  1  0  0  0  0
 47 50  1  0  0  0  0
 47 70  1  0  0  0  0
 48 73  1  0  0  0  0
 49 69  1  0  0  0  0
 50 68  1  0  0  0  0
 52 65  1  0  0  0  0
 53 66  1  0  0  0  0
 54 66  1  0  0  0  0
 55 66  1  0  0  0  0
 56 76  1  0  0  0  0
 57 59  1  0  0  0  0
 58 60  1  0  0  0  0
 59 61  1  0  0  0  0
 60 63  1  0  0  0  0
 61 62  1  0  0  0  0
 62 75  1  0  0  0  0
 63 83  1  0  0  0  0
 64 66  1  0  0  0  0
 64 74  1  0  0  0  0
 65 76  1  0  0  0  0
 67 68  1  0  0  0  0
M  CHG  1  76   1
M  ISO  4  38 100  63 101  75 100  83 101
M  END
> <Batch ID>
0036

> <Smiles>
CNC(C)C(=O)NC(C(=O)N1Cc2cc([101O:1][101CH2:1]CCc3cc(Cl)c(CCCC[100NH:0][100C:0](=O)N4CCCC(n5nc(-c6ccc(Oc7ccc(F)cc7F)cc6)c(C(N)=O)c5N)C4)cc3C)ccc2CC1C(=O)NC1CCCc2ccccc21)C(C)(C)C

> <Shape>
0.239

> <Color>
0.124

> <Negative vol penalty>
0.000

$$$$

  -OEChem-04052316563D

 85 93  0     1  0  0  0  0  0999 V2000
  -19.0514  -33.6566   20.4378 C   0  0  0  0  0  0  0  0  0  0  0  0
  -20.3976  -33.3736   20.2303 C   0  0  0  0  0  0  0  0  0  0  0  0
  -27.4344  -17.3042   20.4215 C   0  0  0  0  0  0  0  0  0  0  0  0
  -28.8722  -16.8450   18.5350 C   0  0  0  0  0  0  0  0  0  0  0  0
  -18.3596  -33.0280   21.4723 C   0  0  0  0  0  0  0  0  0  0  0  0
  -21.0531  -32.4626   21.0578 C   0  0  0  0  0  0  0  0  0  0  0  0
  -25.4973  -28.5668   19.4524 C   0  0  0  0  0  0  0  0  0  0  0  0
  -26.6554  -16.1933   20.0983 C   0  0  0  0  0  0  0  0  0  0  0  0
  -28.0932  -15.7339   18.2118 C   0  0  0  0  0  0  0  0  0  0  0  0
  -26.8849  -28.6248   19.5748 C   0  0  0  0  0  0  0  0  0  0  0  0
  -24.4988  -13.2691   19.9815 C   0  0  0  0  0  0  0  0  0  0  0  0
  -24.1203  -12.4182   21.0198 C   0  0  0  0  0  0  0  0  0  0  0  0
  -26.7521  -27.3472   21.6167 C   0  0  0  0  0  0  0  0  0  0  0  0
  -32.5900  -27.1175   21.6310 C   0  0  0  0  0  0  0  0  0  0  0  0
  -26.4456  -11.9855   21.5129 C   0  0  0  0  0  0  0  0  0  0  0  0
  -31.8597  -28.5443   19.8739 C   0  0  0  0  0  0  0  0  0  0  0  0
  -28.5428  -17.6301   19.6398 C   0  0  0  0  0  0  0  0  0  0  0  0
  -30.4709  -18.8115   20.8206 C   0  0  0  0  0  0  0  0  0  0  0  0
  -19.0044  -32.1016   22.3069 C   0  0  0  0  0  0  0  0  0  0  0  0
  -24.7245  -27.9068   20.4186 C   0  0  0  0  0  0  0  0  0  0  0  0
  -20.3695  -31.8221   22.1053 C   0  0  0  0  0  0  0  0  0  0  0  0
  -25.3551  -27.2801   21.5029 C   0  0  0  0  0  0  0  0  0  0  0  0
  -31.7493  -28.1347   21.1930 C   0  0  0  0  0  0  0  0  0  0  0  0
  -33.5023  -26.5490   20.7492 C   0  0  0  0  0  0  0  0  0  0  0  0
  -26.9847  -15.4081   18.9935 C   0  0  0  0  0  0  0  0  0  0  0  0
  -27.5123  -28.0174   20.6586 C   0  0  0  0  0  0  0  0  0  0  0  0
  -25.8507  -13.4781   19.7087 C   0  0  0  0  0  0  0  0  0  0  0  0
  -25.0936  -11.7764   21.7856 C   0  0  0  0  0  0  0  0  0  0  0  0
  -26.8241  -12.8364   20.4744 C   0  0  0  0  0  0  0  0  0  0  0  0
  -29.3475  -18.7780   19.9729 C   0  0  0  0  0  0  0  0  0  0  0  0
  -33.5341  -27.0295   19.4499 C   0  0  0  0  0  0  0  0  0  0  0  0
  -30.8729  -20.1247   20.8062 C   0  0  0  0  0  0  0  0  0  0  0  0
  -31.0953  -17.7504   21.5554 C   0  0  0  0  0  0  0  0  0  0  0  0
  -22.4484  -28.7874   22.4551 C   0  0  0  0  0  0  0  0  0  0  0  0
  -22.2819  -25.6013   23.0408 C   0  0  0  0  0  0  0  0  0  0  0  0
  -23.8317  -22.5611   22.9890 C   0  0  0  0  0  0  0  0  0  0  0  0
  -29.7386  -24.4074   16.5741 C   0  0  0  0  0  0  0  0  0  0  0  0
  -18.2271  -31.4829   23.4417 C   0  0  0  0  0  0  0  0  0  0  0  0
  -23.2309  -27.8303   20.2580 C   0  0  0  0  0  0  0  0  0  0  0  0
  -24.5725  -26.5415   22.5567 C   0  0  0  0  0  0  0  0  0  0  0  0
  -18.8991  -30.2491   24.0388 C   0  0  0  0  0  0  0  0  0  0  0  0
  -29.1928  -24.5612   20.2320 C   0  0  0  0  0  0  0  0  0  0  0  0
  -20.3818  -30.5133   24.2808 C   0  0  0  0  0  0  0  0  0  0  0  0
  -29.1965  -23.0867   20.6316 C   0  0  0  0  0  0  0  0  0  0  0  0
  -28.7202  -24.7582   18.7948 C   0  0  0  0  0  0  0  0  0  0  0  0
  -29.4839  -22.4841   18.1955 C   0  0  0  0  0  0  0  0  0  0  0  0
  -21.1091  -30.8211   22.9663 C   0  0  1  0  0  0  0  0  0  0  0  0
  -22.5010  -27.5725   21.5726 C   0  0  1  0  0  0  0  0  0  0  0  0
  -29.9993  -22.2469   19.6229 C   0  0  2  0  0  0  0  0  0  0  0  0
  -34.4072  -25.4600   21.2125 C   0  0  0  0  0  0  0  0  0  0  0  0
  -23.4547  -20.1478   23.5645 C   0  0  0  0  0  0  0  0  0  0  0  0
  -22.6407  -26.2533   25.9999 C   0  0  0  0  0  0  0  0  0  0  0  0
  -23.2041  -23.8454   26.3906 C   0  0  0  0  0  0  0  0  0  0  0  0
  -20.9515  -24.4722   25.5215 C   0  0  0  0  0  0  0  0  0  0  0  0
  -30.9690  -23.8776   14.5041 C   0  0  0  0  0  0  0  0  0  0  0  0
  -24.2280  -21.7098   20.1824 C   0  0  0  0  0  0  0  0  0  0  0  0
  -30.7474  -28.7722   22.1246 C   0  0  0  0  0  0  0  0  0  0  0  0
  -34.4933  -26.4559   18.4587 C   0  0  0  0  0  0  0  0  0  0  0  0
  -34.0272  -25.0941   17.9229 C   0  0  0  0  0  0  0  0  0  0  0  0
  -32.6871  -25.2044   17.1896 C   0  0  0  0  0  0  0  0  0  0  0  0
  -32.2095  -23.8657   16.6364 C   0  0  0  0  0  0  0  0  0  0  0  0
  -29.4004  -28.0579   22.1041 C   0  0  0  0  0  0  0  0  0  1  0  0
  -22.9619  -24.6534   23.9991 C   0  0  1  0  0  0  0  0  0  0  0  0
  -23.3762  -21.2070   22.4760 C   0  0  2  0  0  0  0  0  0  0  0  0
  -22.4544  -24.8216   25.4591 C   0  0  0  0  0  0  0  0  0  0  0  0
  -32.7335  -28.0161   18.9880 N   0  0  0  0  0  0  0  0  0  0  0  0
  -29.0546  -19.9749   19.4575 N   0  0  0  0  0  0  0  0  0  0  0  0
  -29.9997  -20.7728   19.9830 N   0  0  0  0  0  0  0  0  0  0  0  0
  -23.1142  -26.5000   22.3587 N   0  0  0  0  0  0  0  0  0  0  0  0
  -29.4709  -23.9164   17.8625 N   0  0  0  0  0  0  0  0  0  0  0  0
  -31.8846  -20.7768   21.4175 N   0  0  0  0  0  0  0  0  0  0  0  0
  -30.5539  -16.4613   21.4576 N   0  0  0  0  0  0  0  0  0  0  0  0
  -21.3552  -29.6014   22.2272 N   0  0  0  0  0  0  0  0  0  0  0  0
  -22.7734  -23.3144   23.4514 N   0  0  0  0  0  0  0  0  0  0  0  0
  -30.9204  -23.9713   15.9562 N   0  0  0  0  0  0  0  0  0  0  0  0
  -24.2297  -20.7718   21.3344 N   0  3  0  0  0  0  0  0  0  0  0  0
  -32.0935  -17.9429   22.2902 O   0  0  0  0  0  0  0  0  0  0  0  0
  -23.3332  -28.9719   23.2827 O   0  0  0  0  0  0  0  0  0  0  0  0
  -21.0582  -25.5415   22.8973 O   0  0  0  0  0  0  0  0  0  0  0  0
  -25.0090  -22.9139   22.9838 O   0  0  0  0  0  0  0  0  0  0  0  0
  -28.9702  -25.1984   16.0122 O   0  0  0  0  0  0  0  0  0  0  0  0
  -26.2249  -14.3238   18.6779 O   0  0  0  0  0  0  0  0  0  0  0  0
  -28.8665  -28.0731   20.7808 O   0  0  0  0  0  0  0  0  0  1  0  0
  -24.7300  -10.9605   22.7837 F   0  0  0  0  0  0  0  0  0  0  0  0
  -28.1244  -13.0342   20.2179 F   0  0  0  0  0  0  0  0  0  0  0  0
  1  2  1  0  0  0  0
  1  5  2  0  0  0  0
  2  6  2  0  0  0  0
  3  8  2  0  0  0  0
  3 17  1  0  0  0  0
  4  9  1  0  0  0  0
  4 17  2  0  0  0  0
  5 19  1  0  0  0  0
  6 21  1  0  0  0  0
  7 10  2  0  0  0  0
  7 20  1  0  0  0  0
  8 25  1  0  0  0  0
  9 25  2  0  0  0  0
 10 26  1  0  0  0  0
 11 12  2  0  0  0  0
 11 27  1  0  0  0  0
 12 28  1  0  0  0  0
 13 22  1  0  0  0  0
 13 26  2  0  0  0  0
 14 23  2  0  0  0  0
 14 24  1  0  0  0  0
 15 28  2  0  0  0  0
 15 29  1  0  0  0  0
 16 23  1  0  0  0  0
 16 66  2  0  0  0  0
 17 30  1  0  0  0  0
 18 30  1  0  0  0  0
 18 32  2  0  0  0  0
 18 33  1  0  0  0  0
 19 21  2  0  0  0  0
 19 38  1  0  0  0  0
 20 22  2  0  0  0  0
 20 39  1  0  0  0  0
 21 47  1  0  0  0  0
 22 40  1  0  0  0  0
 23 57  1  0  0  0  0
 24 31  2  0  0  0  0
 24 50  1  0  0  0  0
 25 82  1  0  0  0  0
 26 83  1  0  0  0  0
 27 29  2  0  0  0  0
 27 82  1  0  0  0  0
 28 84  1  0  0  0  0
 29 85  1  0  0  0  0
 30 67  2  0  0  0  0
 31 58  1  0  0  0  0
 31 66  1  0  0  0  0
 32 68  1  0  0  0  0
 32 71  1  0  0  0  0
 33 72  1  0  0  0  0
 33 77  2  0  0  0  0
 34 48  1  0  0  0  0
 34 73  1  0  0  0  0
 34 78  2  0  0  0  0
 35 63  1  0  0  0  0
 35 69  1  0  0  0  0
 35 79  2  0  0  0  0
 36 64  1  0  0  0  0
 36 74  1  0  0  0  0
 36 80  2  0  0  0  0
 37 70  1  0  0  0  0
 37 75  1  0  0  0  0
 37 81  2  0  0  0  0
 38 41  1  0  0  0  0
 39 48  1  0  0  0  0
 40 69  1  0  0  0  0
 41 43  1  0  0  0  0
 42 44  1  0  0  0  0
 42 45  1  0  0  0  0
 43 47  1  0  0  0  0
 44 49  1  0  0  0  0
 45 70  1  0  0  0  0
 46 49  1  0  0  0  0
 46 70  1  0  0  0  0
 47 73  1  0  0  0  0
 48 69  1  0  0  0  0
 49 68  1  0  0  0  0
 51 64  1  0  0  0  0
 52 65  1  0  0  0  0
 53 65  1  0  0  0  0
 54 65  1  0  0  0  0
 55 75  1  0  0  0  0
 56 76  1  0  0  0  0
 57 62  1  0  0  0  0
 58 59  1  0  0  0  0
 59 60  1  0  0  0  0
 60 61  1  0  0  0  0
 61 75  1  0  0  0  0
 62 83  1  0  0  0  0
 63 65  1  0  0  0  0
 63 74  1  0  0  0  0
 64 76  1  0  0  0  0
 67 68  1  0  0  0  0
M  CHG  1  76   1
M  ISO  4  37 100  62 101  75 100  83 101
M  END
> <Batch ID>
0036

> <Smiles>
CNC(C)C(=O)NC(C(=O)N1Cc2cc([101O:1][101CH2:1]Cc3cnc(CCCC[100N:0](C)[100C:0](=O)N4CCCC(n5nc(-c6ccc(Oc7ccc(F)cc7F)cc6)c(C(N)=O)c5N)C4)c(C)c3)ccc2CC1C(=O)NC1CCCc2ccccc21)C(C)(C)C

> <Shape>
0.214

> <Color>
0.086

> <Negative vol penalty>
0.000

$$$$

  -OEChem-04052316563D

 84 92  0     1  0  0  0  0  0999 V2000
  -29.1080  -23.4686   18.6848 C   0  0  0  0  0  0  0  0  0  0  0  0
  -27.7979  -23.9127   18.5367 C   0  0  0  0  0  0  0  0  0  0  0  0
  -27.2936  -15.7536   21.6055 C   0  0  0  0  0  0  0  0  0  0  0  0
  -24.9618  -15.9585   21.0072 C   0  0  0  0  0  0  0  0  0  0  0  0
  -29.8392  -23.8234   19.8177 C   0  0  0  0  0  0  0  0  0  0  0  0
  -27.2180  -24.7110   19.5220 C   0  0  0  0  0  0  0  0  0  0  0  0
  -23.1867  -29.2448   18.6858 C   0  0  0  0  0  0  0  0  0  0  0  0
  -27.2462  -14.3885   21.3228 C   0  0  0  0  0  0  0  0  0  0  0  0
  -24.9144  -14.5934   20.7245 C   0  0  0  0  0  0  0  0  0  0  0  0
  -21.7980  -29.2977   18.7978 C   0  0  0  0  0  0  0  0  0  0  0  0
  -26.1488  -11.5697   22.8309 C   0  0  0  0  0  0  0  0  0  0  0  0
  -26.7424  -10.6985   23.7443 C   0  0  0  0  0  0  0  0  0  0  0  0
  -22.0176  -30.1518   21.0431 C   0  0  0  0  0  0  0  0  0  0  0  0
  -18.5749  -26.5711   21.5643 C   0  0  0  0  0  0  0  0  0  0  0  0
  -28.2382   -9.9089   22.0191 C   0  0  0  0  0  0  0  0  0  0  0  0
  -18.2980  -28.0561   23.8367 C   0  0  0  0  0  0  0  0  0  0  0  0
  -26.1514  -16.5386   21.4477 C   0  0  0  0  0  0  0  0  0  0  0  0
  -26.5194  -18.9910   20.8496 C   0  0  0  0  0  0  0  0  0  0  0  0
  -29.2712  -24.6344   20.8127 C   0  0  0  0  0  0  0  0  0  0  0  0
  -24.0026  -29.6353   19.7574 C   0  0  0  0  0  0  0  0  0  0  0  0
  -27.9418  -25.0758   20.6698 C   0  0  0  0  0  0  0  0  0  0  0  0
  -23.4164  -30.1053   20.9413 C   0  0  0  0  0  0  0  0  0  0  0  0
  -18.1456  -27.8901   21.4690 C   0  0  0  0  0  0  0  0  0  0  0  0
  -18.0019  -28.6536   22.6222 C   0  0  0  0  0  0  0  0  0  0  0  0
  -26.0566  -13.8084   20.8823 C   0  0  0  0  0  0  0  0  0  0  0  0
  -21.2132  -29.7485   19.9776 C   0  0  0  0  0  0  0  0  0  0  0  0
  -26.5999  -11.6104   21.5116 C   0  0  0  0  0  0  0  0  0  0  0  0
  -27.7871   -9.8681   23.3384 C   0  0  0  0  0  0  0  0  0  0  0  0
  -27.6445  -10.7800   21.1057 C   0  0  0  0  0  0  0  0  0  0  0  0
  -26.1996  -17.9487   21.7401 C   0  0  0  0  0  0  0  0  0  0  0  0
  -18.8455  -26.0668   22.8262 C   0  0  0  0  0  0  0  0  0  0  0  0
  -26.4242  -20.1321   21.6082 C   0  0  0  0  0  0  0  0  0  0  0  0
  -26.8711  -18.9331   19.4608 C   0  0  0  0  0  0  0  0  0  0  0  0
  -26.1526  -28.1757   21.5877 C   0  0  0  0  0  0  0  0  0  0  0  0
  -26.6090  -31.1651   22.7614 C   0  0  0  0  0  0  0  0  0  0  0  0
  -25.3534  -34.2950   23.2849 C   0  0  0  0  0  0  0  0  0  0  0  0
  -23.7549  -23.2577   25.3832 C   0  0  0  0  0  0  0  0  0  0  0  0
  -30.0849  -24.9526   22.0420 C   0  0  0  0  0  0  0  0  0  0  0  0
  -25.4991  -29.5976   19.6111 C   0  0  0  0  0  0  0  0  0  0  0  0
  -24.2481  -30.5553   22.1136 C   0  0  0  0  0  0  0  0  0  0  0  0
  -29.5226  -26.1112   22.8617 C   0  0  0  0  0  0  0  0  0  0  0  0
  -25.9439  -20.7309   26.6079 C   0  0  0  0  0  0  0  0  0  0  0  0
  -28.0179  -25.9492   23.0525 C   0  0  0  0  0  0  0  0  0  0  0  0
  -26.2266  -19.8648   25.3791 C   0  0  0  0  0  0  0  0  0  0  0  0
  -24.5061  -21.2453   26.6171 C   0  0  0  0  0  0  0  0  0  0  0  0
  -24.3760  -21.0857   24.1612 C   0  0  0  0  0  0  0  0  0  0  0  0
  -27.2861  -25.9638   21.7050 C   0  0  1  0  0  0  0  0  0  0  0  0
  -26.2288  -29.5338   20.9493 C   0  0  1  0  0  0  0  0  0  0  0  0
  -25.8298  -20.5896   24.0790 C   0  0  2  0  0  0  0  0  0  0  0  0
  -17.5452  -30.0705   22.5774 C   0  0  0  0  0  0  0  0  0  0  0  0
  -25.9466  -36.5107   24.3029 C   0  0  0  0  0  0  0  0  0  0  0  0
  -26.1429  -30.0078   25.5459 C   0  0  0  0  0  0  0  0  0  0  0  0
  -25.8024  -32.3426   26.3833 C   0  0  0  0  0  0  0  0  0  0  0  0
  -27.9997  -31.6774   25.4075 C   0  0  0  0  0  0  0  0  0  0  0  0
  -25.0841  -35.6907   20.6890 C   0  0  0  0  0  0  0  0  0  0  0  0
  -17.8427  -28.4700   20.1088 C   0  0  0  0  0  0  0  0  0  0  0  0
  -19.3079  -24.6549   22.9664 C   0  0  0  0  0  0  0  0  0  0  0  0
  -20.8385  -24.5362   22.9042 C   0  0  0  0  0  0  0  0  0  0  0  0
  -21.5128  -25.3082   24.0421 C   0  0  0  0  0  0  0  0  0  0  0  0
  -23.0334  -25.1936   24.0081 C   0  0  0  0  0  0  0  0  0  0  0  0
  -19.1073  -28.8438   19.3432 C   0  0  0  0  0  0  0  0  0  1  0  0
  -26.0059  -31.9773   23.8820 C   0  0  1  0  0  0  0  0  0  0  0  0
  -25.9425  -35.6715   23.0346 C   0  0  2  0  0  0  0  0  0  0  0  0
  -26.4718  -31.4910   25.2835 C   0  0  0  0  0  0  0  0  0  0  0  0
  -18.7176  -26.7778   23.9689 N   0  0  0  0  0  0  0  0  0  0  0  0
  -25.9220  -18.3885   22.9704 N   0  0  0  0  0  0  0  0  0  0  0  0
  -26.0673  -19.7198   22.8584 N   0  0  0  0  0  0  0  0  0  0  0  0
  -25.7068  -30.4937   21.9241 N   0  0  0  0  0  0  0  0  0  0  0  0
  -24.1940  -21.9237   25.3568 N   0  0  0  0  0  0  0  0  0  0  0  0
  -26.6118  -21.4377   21.3212 N   0  0  0  0  0  0  0  0  0  0  0  0
  -26.9220  -17.6794   18.8363 N   0  0  0  0  0  0  0  0  0  0  0  0
  -27.1678  -27.3182   21.2088 N   0  0  0  0  0  0  0  0  0  0  0  0
  -26.3285  -33.3709   23.5954 N   0  0  0  0  0  0  0  0  0  0  0  0
  -23.4870  -23.8274   24.1445 N   0  0  0  0  0  0  0  0  0  0  0  0
  -25.1523  -36.3923   21.9968 N   0  3  0  0  0  0  0  0  0  0  0  0
  -27.1485  -19.9611   18.7977 O   0  0  0  0  0  0  0  0  0  0  0  0
  -25.2412  -27.9249   22.3676 O   0  0  0  0  0  0  0  0  0  0  0  0
  -27.8350  -31.1336   22.6294 O   0  0  0  0  0  0  0  0  0  0  0  0
  -24.1483  -34.0636   23.2157 O   0  0  0  0  0  0  0  0  0  0  0  0
  -23.6171  -23.8955   26.4326 O   0  0  0  0  0  0  0  0  0  0  0  0
  -26.0101  -12.4765   20.6062 O   0  0  0  0  0  0  0  0  0  0  0  0
  -19.8580  -29.8005   20.0898 O   0  0  0  0  0  0  0  0  0  1  0  0
  -28.3580   -9.0327   24.2161 F   0  0  0  0  0  0  0  0  0  0  0  0
  -28.0830  -10.8155   19.8399 F   0  0  0  0  0  0  0  0  0  0  0  0
  1  2  1  0  0  0  0
  1  5  2  0  0  0  0
  2  6  2  0  0  0  0
  3  8  2  0  0  0  0
  3 17  1  0  0  0  0
  4  9  1  0  0  0  0
  4 17  2  0  0  0  0
  5 19  1  0  0  0  0
  6 21  1  0  0  0  0
  7 10  2  0  0  0  0
  7 20  1  0  0  0  0
  8 25  1  0  0  0  0
  9 25  2  0  0  0  0
 10 26  1  0  0  0  0
 11 12  2  0  0  0  0
 11 27  1  0  0  0  0
 12 28  1  0  0  0  0
 13 22  1  0  0  0  0
 13 26  2  0  0  0  0
 14 23  1  0  0  0  0
 14 31  2  0  0  0  0
 15 28  2  0  0  0  0
 15 29  1  0  0  0  0
 16 24  1  0  0  0  0
 16 65  2  0  0  0  0
 17 30  1  0  0  0  0
 18 30  1  0  0  0  0
 18 32  2  0  0  0  0
 18 33  1  0  0  0  0
 19 21  2  0  0  0  0
 19 38  1  0  0  0  0
 20 22  2  0  0  0  0
 20 39  1  0  0  0  0
 21 47  1  0  0  0  0
 22 40  1  0  0  0  0
 23 24  2  0  0  0  0
 23 56  1  0  0  0  0
 24 50  1  0  0  0  0
 25 81  1  0  0  0  0
 26 82  1  0  0  0  0
 27 29  2  0  0  0  0
 27 81  1  0  0  0  0
 28 83  1  0  0  0  0
 29 84  1  0  0  0  0
 30 66  2  0  0  0  0
 31 57  1  0  0  0  0
 31 65  1  0  0  0  0
 32 67  1  0  0  0  0
 32 70  1  0  0  0  0
 33 71  1  0  0  0  0
 33 76  2  0  0  0  0
 34 48  1  0  0  0  0
 34 72  1  0  0  0  0
 34 77  2  0  0  0  0
 35 62  1  0  0  0  0
 35 68  1  0  0  0  0
 35 78  2  0  0  0  0
 36 63  1  0  0  0  0
 36 73  1  0  0  0  0
 36 79  2  0  0  0  0
 37 69  1  0  0  0  0
 37 74  1  0  0  0  0
 37 80  2  0  0  0  0
 38 41  1  0  0  0  0
 39 48  1  0  0  0  0
 40 68  1  0  0  0  0
 41 43  1  0  0  0  0
 42 44  1  0  0  0  0
 42 45  1  0  0  0  0
 43 47  1  0  0  0  0
 44 49  1  0  0  0  0
 45 69  1  0  0  0  0
 46 49  1  0  0  0  0
 46 69  1  0  0  0  0
 47 72  1  0  0  0  0
 48 68  1  0  0  0  0
 49 67  1  0  0  0  0
 51 63  1  0  0  0  0
 52 64  1  0  0  0  0
 53 64  1  0  0  0  0
 54 64  1  0  0  0  0
 55 75  1  0  0  0  0
 56 61  1  0  0  0  0
 57 58  1  0  0  0  0
 58 59  1  0  0  0  0
 59 60  1  0  0  0  0
 60 74  1  0  0  0  0
 61 82  1  0  0  0  0
 62 64  1  0  0  0  0
 62 73  1  0  0  0  0
 63 75  1  0  0  0  0
 66 67  1  0  0  0  0
M  CHG  1  75   1
M  ISO  4  37 100  61 101  74 100  82 101
M  END
> <Batch ID>
0036

> <Smiles>
CNC(C)C(=O)NC(C(=O)N1Cc2cc([101O:1][101CH2:1]Cc3cc(CCCC[100NH:0][100C:0](=O)N4CCCC(n5nc(-c6ccc(Oc7ccc(F)cc7F)cc6)c(C(N)=O)c5N)C4)ncc3C)ccc2CC1C(=O)NC1CCCc2ccccc21)C(C)(C)C

> <Shape>
0.242

> <Color>
0.060

> <Negative vol penalty>
0.000

$$$$

  -OEChem-04052316563D

 81 89  0     1  0  0  0  0  0999 V2000
  -17.6976  -26.7298   14.4865 C   0  0  0  0  0  0  0  0  0  0  0  0
  -19.0531  -26.4811   14.6763 C   0  0  0  0  0  0  0  0  0  0  0  0
  -22.9991   -9.8950   19.9823 C   0  0  0  0  0  0  0  0  0  0  0  0
  -23.7289   -9.9456   22.2849 C   0  0  0  0  0  0  0  0  0  0  0  0
  -16.7538  -26.0933   15.2916 C   0  0  0  0  0  0  0  0  0  0  0  0
  -19.4658  -25.5966   15.6722 C   0  0  0  0  0  0  0  0  0  0  0  0
  -24.5947  -20.8064   17.1093 C   0  0  0  0  0  0  0  0  0  0  0  0
  -22.2336   -8.7600   20.2498 C   0  0  0  0  0  0  0  0  0  0  0  0
  -22.9634   -8.8106   22.5524 C   0  0  0  0  0  0  0  0  0  0  0  0
  -25.5305  -20.4931   18.0942 C   0  0  0  0  0  0  0  0  0  0  0  0
  -21.4859   -5.7165   23.7578 C   0  0  0  0  0  0  0  0  0  0  0  0
  -22.0739   -4.7007   24.5115 C   0  0  0  0  0  0  0  0  0  0  0  0
  -23.8071  -19.3907   19.3724 C   0  0  0  0  0  0  0  0  0  0  0  0
  -29.1078  -18.3847   20.9498 C   0  0  0  0  0  0  0  0  0  0  0  0
  -23.7970   -4.4549   22.8359 C   0  0  0  0  0  0  0  0  0  0  0  0
  -28.9847  -19.6254   23.3770 C   0  0  0  0  0  0  0  0  0  0  0  0
  -23.7468  -10.4877   20.9998 C   0  0  0  0  0  0  0  0  0  0  0  0
  -24.1305  -13.0036   20.8238 C   0  0  0  0  0  0  0  0  0  0  0  0
  -17.1547  -25.1932   16.2915 C   0  0  0  0  0  0  0  0  0  0  0  0
  -23.2536  -20.4230   17.2540 C   0  0  0  0  0  0  0  0  0  0  0  0
  -18.5266  -24.9485   16.4923 C   0  0  0  0  0  0  0  0  0  0  0  0
  -22.8568  -19.6981   18.3868 C   0  0  0  0  0  0  0  0  0  0  0  0
  -28.2411  -19.4580   21.1241 C   0  0  0  0  0  0  0  0  0  0  0  0
  -22.2158   -8.2179   21.5349 C   0  0  0  0  0  0  0  0  0  0  0  0
  -25.1362  -19.7877   19.2273 C   0  0  0  0  0  0  0  0  0  0  0  0
  -22.0533   -6.1014   22.5431 C   0  0  0  0  0  0  0  0  0  0  0  0
  -28.1724  -20.0956   22.3577 C   0  0  0  0  0  0  0  0  0  0  0  0
  -23.2295   -4.0700   24.0506 C   0  0  0  0  0  0  0  0  0  0  0  0
  -23.2089   -5.4707   22.0821 C   0  0  0  0  0  0  0  0  0  0  0  0
  -24.5381  -11.6598   20.7239 C   0  0  0  0  0  0  0  0  0  0  0  0
  -29.8784  -17.9912   22.0320 C   0  0  0  0  0  0  0  0  0  0  0  0
  -25.2392  -13.7268   20.4574 C   0  0  0  0  0  0  0  0  0  0  0  0
  -22.8630  -13.5492   21.2131 C   0  0  0  0  0  0  0  0  0  0  0  0
  -20.4882  -21.9748   17.4733 C   0  0  0  0  0  0  0  0  0  0  0  0
  -19.2450  -18.9811   17.3527 C   0  0  0  0  0  0  0  0  0  0  0  0
  -19.6905  -15.6363   17.8636 C   0  0  0  0  0  0  0  0  0  0  0  0
  -30.7356  -14.6640   20.6952 C   0  0  0  0  0  0  0  0  0  0  0  0
  -16.1002  -24.5653   17.1682 C   0  0  0  0  0  0  0  0  0  0  0  0
  -22.2619  -20.7454   16.1700 C   0  0  0  0  0  0  0  0  0  0  0  0
  -21.4333  -19.2457   18.5803 C   0  0  0  0  0  0  0  0  0  0  0  0
  -16.6019  -23.3562   17.9535 C   0  0  0  0  0  0  0  0  0  0  0  0
  -29.5913  -12.2405   18.3512 C   0  0  0  0  0  0  0  0  0  0  0  0
  -17.9474  -23.6628   18.6035 C   0  0  0  0  0  0  0  0  0  0  0  0
  -28.1438  -11.9800   18.7717 C   0  0  0  0  0  0  0  0  0  0  0  0
  -30.4961  -12.4760   19.5587 C   0  0  0  0  0  0  0  0  0  0  0  0
  -28.5883  -13.2701   20.9016 C   0  0  0  0  0  0  0  0  0  0  0  0
  -19.0124  -23.9767   17.5458 C   0  0  1  0  0  0  0  0  0  0  0  0
  -20.8184  -20.7528   16.6637 C   0  0  1  0  0  0  0  0  0  0  0  0
  -27.6269  -13.0824   19.7155 C   0  0  2  0  0  0  0  0  0  0  0  0
  -18.4818  -13.4423   17.7124 C   0  0  0  0  0  0  0  0  0  0  0  0
  -17.7282  -19.6428   19.9162 C   0  0  0  0  0  0  0  0  0  0  0  0
  -17.3202  -17.1919   20.2248 C   0  0  0  0  0  0  0  0  0  0  0  0
  -16.4056  -18.3643   18.2219 C   0  0  0  0  0  0  0  0  0  0  0  0
  -21.6069  -14.5859   15.8679 C   0  0  0  0  0  0  0  0  0  0  0  0
  -27.3485  -21.7284   23.8779 C   0  0  0  0  0  0  0  0  0  0  0  0
  -27.3903  -19.9133   19.9751 C   0  0  0  0  0  0  0  0  0  1  0  0
  -30.8196  -16.8426   21.8809 C   0  0  0  0  0  0  0  0  0  0  0  0
  -18.8913  -17.9284   18.3754 C   0  0  1  0  0  0  0  0  0  0  0  0
  -19.3807  -14.4339   16.9902 C   0  0  2  0  0  0  0  0  0  0  0  0
  -17.6128  -18.2919   19.1821 C   0  0  0  0  0  0  0  0  0  0  0  0
  -29.8390  -18.5859   23.2454 N   0  0  0  0  0  0  0  0  0  0  0  0
  -25.8066  -11.5341   20.3252 N   0  0  0  0  0  0  0  0  0  0  0  0
  -26.2057  -12.8081   20.1712 N   0  0  0  0  0  0  0  0  0  0  0  0
  -20.4996  -19.5906   17.4955 N   0  0  0  0  0  0  0  0  0  0  0  0
  -29.9505  -13.5341   20.4122 N   0  0  0  0  0  0  0  0  0  0  0  0
  -25.4718  -15.0527   20.3553 N   0  0  0  0  0  0  0  0  0  0  0  0
  -21.8324  -12.6645   21.5584 N   0  0  0  0  0  0  0  0  0  0  0  0
  -19.4872  -22.7566   16.9290 N   0  0  0  0  0  0  0  0  0  0  0  0
  -18.8003  -16.6670   17.6480 N   0  0  0  0  0  0  0  0  0  0  0  0
  -30.1404  -15.6222   21.5065 N   0  0  0  0  0  0  0  0  0  0  0  0
  -20.6394  -13.7343   16.6067 N   0  3  0  0  0  0  0  0  0  0  0  0
  -22.6458  -14.7844   21.2376 O   0  0  0  0  0  0  0  0  0  0  0  0
  -21.0955  -22.1915   18.5154 O   0  0  0  0  0  0  0  0  0  0  0  0
  -18.4409  -19.2474   16.4560 O   0  0  0  0  0  0  0  0  0  0  0  0
  -20.6261  -15.6576   18.6602 O   0  0  0  0  0  0  0  0  0  0  0  0
  -31.8800  -14.8106   20.2528 O   0  0  0  0  0  0  0  0  0  0  0  0
  -21.4688   -7.1105   21.7963 O   0  0  0  0  0  0  0  0  0  0  0  0
  -27.3407  -21.1463   22.5734 O   0  0  0  0  0  0  0  0  0  0  0  0
  -26.0474  -19.4812   20.1904 O   0  0  0  0  0  0  0  0  0  1  0  0
  -23.7949   -3.0956   24.7752 F   0  0  0  0  0  0  0  0  0  0  0  0
  -23.7593   -5.8370   20.9165 F   0  0  0  0  0  0  0  0  0  0  0  0
  1  2  1  0  0  0  0
  1  5  2  0  0  0  0
  2  6  2  0  0  0  0
  3  8  2  0  0  0  0
  3 17  1  0  0  0  0
  4  9  1  0  0  0  0
  4 17  2  0  0  0  0
  5 19  1  0  0  0  0
  6 21  1  0  0  0  0
  7 10  2  0  0  0  0
  7 20  1  0  0  0  0
  8 24  1  0  0  0  0
  9 24  2  0  0  0  0
 10 25  1  0  0  0  0
 11 12  2  0  0  0  0
 11 26  1  0  0  0  0
 12 28  1  0  0  0  0
 13 22  1  0  0  0  0
 13 25  2  0  0  0  0
 14 23  1  0  0  0  0
 14 31  2  0  0  0  0
 15 28  2  0  0  0  0
 15 29  1  0  0  0  0
 16 27  1  0  0  0  0
 16 61  2  0  0  0  0
 17 30  1  0  0  0  0
 18 30  1  0  0  0  0
 18 32  2  0  0  0  0
 18 33  1  0  0  0  0
 19 21  2  0  0  0  0
 19 38  1  0  0  0  0
 20 22  2  0  0  0  0
 20 39  1  0  0  0  0
 21 47  1  0  0  0  0
 22 40  1  0  0  0  0
 23 27  2  0  0  0  0
 23 56  1  0  0  0  0
 24 77  1  0  0  0  0
 25 79  1  0  0  0  0
 26 29  2  0  0  0  0
 26 77  1  0  0  0  0
 27 78  1  0  0  0  0
 28 80  1  0  0  0  0
 29 81  1  0  0  0  0
 30 62  2  0  0  0  0
 31 57  1  0  0  0  0
 31 61  1  0  0  0  0
 32 63  1  0  0  0  0
 32 66  1  0  0  0  0
 33 67  1  0  0  0  0
 33 72  2  0  0  0  0
 34 48  1  0  0  0  0
 34 68  1  0  0  0  0
 34 73  2  0  0  0  0
 35 58  1  0  0  0  0
 35 64  1  0  0  0  0
 35 74  2  0  0  0  0
 36 59  1  0  0  0  0
 36 69  1  0  0  0  0
 36 75  2  0  0  0  0
 37 65  1  0  0  0  0
 37 70  1  0  0  0  0
 37 76  2  0  0  0  0
 38 41  1  0  0  0  0
 39 48  1  0  0  0  0
 40 64  1  0  0  0  0
 41 43  1  0  0  0  0
 42 44  1  0  0  0  0
 42 45  1  0  0  0  0
 43 47  1  0  0  0  0
 44 49  1  0  0  0  0
 45 65  1  0  0  0  0
 46 49  1  0  0  0  0
 46 65  1  0  0  0  0
 47 68  1  0  0  0  0
 48 64  1  0  0  0  0
 49 63  1  0  0  0  0
 50 59  1  0  0  0  0
 51 60  1  0  0  0  0
 52 60  1  0  0  0  0
 53 60  1  0  0  0  0
 54 71  1  0  0  0  0
 55 78  1  0  0  0  0
 56 79  1  0  0  0  0
 57 70  1  0  0  0  0
 58 60  1  0  0  0  0
 58 69  1  0  0  0  0
 59 71  1  0  0  0  0
 62 63  1  0  0  0  0
M  CHG  1  71   1
M  ISO  4  37 100  56 101  70 100  79 101
M  END
> <Batch ID>
0036

> <Smiles>
CNC(C)C(=O)NC(C(=O)N1Cc2cc([101O:1][101CH2:1]c3cc(C[100NH:0][100C:0](=O)N4CCCC(n5nc(-c6ccc(Oc7ccc(F)cc7F)cc6)c(C(N)=O)c5N)C4)ncc3OC)ccc2CC1C(=O)NC1CCCc2ccccc21)C(C)(C)C

> <Shape>
0.192

> <Color>
0.197

> <Negative vol penalty>
0.000

$$$$

  -OEChem-04052316563D

 88 97  0     1  0  0  0  0  0999 V2000
  -29.8418  -36.2263   19.2983 C   0  0  0  0  0  0  0  0  0  0  0  0
  -29.8843  -34.8387   19.2087 C   0  0  0  0  0  0  0  0  0  0  0  0
  -23.5952  -11.0356   23.2313 C   0  0  0  0  0  0  0  0  0  0  0  0
  -24.5160   -9.3222   21.7984 C   0  0  0  0  0  0  0  0  0  0  0  0
  -29.0889  -36.8363   20.3007 C   0  0  0  0  0  0  0  0  0  0  0  0
  -29.1746  -34.0602   20.1224 C   0  0  0  0  0  0  0  0  0  0  0  0
  -26.4197  -28.7000   19.0337 C   0  0  0  0  0  0  0  0  0  0  0  0
  -23.0979  -10.0528   24.0871 C   0  0  0  0  0  0  0  0  0  0  0  0
  -24.0188   -8.3393   22.6542 C   0  0  0  0  0  0  0  0  0  0  0  0
  -26.8102  -27.3813   19.2619 C   0  0  0  0  0  0  0  0  0  0  0  0
  -21.0482   -6.8507   23.2792 C   0  0  0  0  0  0  0  0  0  0  0  0
  -20.4035   -5.7559   22.7035 C   0  0  0  0  0  0  0  0  0  0  0  0
  -25.5829  -27.3834   21.3386 C   0  0  0  0  0  0  0  0  0  0  0  0
  -31.7689  -18.0199   21.2319 C   0  0  0  0  0  0  0  0  0  0  0  0
  -22.0352   -4.2745   23.6936 C   0  0  0  0  0  0  0  0  0  0  0  0
  -29.7182  -17.9823   22.4360 C   0  0  0  0  0  0  0  0  0  0  0  0
  -24.3042  -10.6704   22.0869 C   0  0  0  0  0  0  0  0  0  0  0  0
  -24.0776  -12.6598   20.5063 C   0  0  0  0  0  0  0  0  0  0  0  0
  -28.3619  -36.0650   21.2212 C   0  0  0  0  0  0  0  0  0  0  0  0
  -25.6154  -29.3751   19.9632 C   0  0  0  0  0  0  0  0  0  0  0  0
  -28.4123  -34.6604   21.1389 C   0  0  0  0  0  0  0  0  0  0  0  0
  -25.1813  -28.7098   21.1187 C   0  0  0  0  0  0  0  0  0  0  0  0
  -30.8876  -17.3387   22.0641 C   0  0  0  0  0  0  0  0  0  0  0  0
  -31.4584  -19.3055   20.8031 C   0  0  0  0  0  0  0  0  0  0  0  0
  -23.3097   -8.7046   23.7985 C   0  0  0  0  0  0  0  0  0  0  0  0
  -26.3942  -26.7237   20.4158 C   0  0  0  0  0  0  0  0  0  0  0  0
  -22.1864   -6.6574   24.0620 C   0  0  0  0  0  0  0  0  0  0  0  0
  -20.8970   -4.4678   22.9107 C   0  0  0  0  0  0  0  0  0  0  0  0
  -22.6799   -5.3693   24.2692 C   0  0  0  0  0  0  0  0  0  0  0  0
  -24.8176  -11.6852   21.2022 C   0  0  0  0  0  0  0  0  0  0  0  0
  -30.2634  -19.8610   21.2312 C   0  0  0  0  0  0  0  0  0  0  0  0
  -25.0212  -13.3752   19.8103 C   0  0  0  0  0  0  0  0  0  0  0  0
  -22.6637  -12.8973   20.4904 C   0  0  0  0  0  0  0  0  0  0  0  0
  -25.9708  -31.9613   21.7767 C   0  0  0  0  0  0  0  0  0  0  0  0
  -22.8508  -31.4198   22.4799 C   0  0  0  0  0  0  0  0  0  0  0  0
  -20.2687  -29.1969   22.6765 C   0  0  0  0  0  0  0  0  0  0  0  0
  -30.8645  -14.3465   20.6842 C   0  0  0  0  0  0  0  0  0  0  0  0
  -27.6003  -36.7687   22.3164 C   0  0  0  0  0  0  0  0  0  0  0  0
  -25.1806  -30.7888   19.6894 C   0  0  0  0  0  0  0  0  0  0  0  0
  -24.3004  -29.3834   22.1378 C   0  0  0  0  0  0  0  0  0  0  0  0
  -26.5762  -35.8781   23.0152 C   0  0  0  0  0  0  0  0  0  0  0  0
  -29.3397  -12.9151   17.8028 C   0  0  0  0  0  0  0  0  0  0  0  0
  -27.1923  -34.5263   23.3613 C   0  0  0  0  0  0  0  0  0  0  0  0
  -29.0590  -21.9915   21.8771 C   0  0  0  0  0  0  0  0  0  0  0  0
  -29.1165  -21.2517   19.4545 C   0  0  0  0  0  0  0  0  0  0  0  0
  -28.6799  -23.4042   21.4334 C   0  0  0  0  0  0  0  0  0  0  0  0
  -28.7372  -22.6662   19.0169 C   0  0  0  0  0  0  0  0  0  0  0  0
  -27.9410  -12.5255   18.2845 C   0  0  0  0  0  0  0  0  0  0  0  0
  -30.3903  -12.7047   18.8909 C   0  0  0  0  0  0  0  0  0  0  0  0
  -28.6932  -12.9749   20.6575 C   0  0  0  0  0  0  0  0  0  0  0  0
  -27.6361  -33.7821   22.0961 C   0  0  1  0  0  0  0  0  0  0  0  0
  -29.8710  -21.2608   20.7946 C   0  0  0  0  0  0  0  0  0  0  0  0
  -24.7847  -31.5473   20.9524 C   0  0  1  0  0  0  0  0  0  0  0  0
  -27.9272  -23.3959   20.0965 C   0  0  0  0  0  0  0  0  0  0  0  0
  -27.5912  -13.2224   19.6131 C   0  0  2  0  0  0  0  0  0  0  0  0
  -32.6014  -19.3380   18.5567 C   0  0  0  0  0  0  0  0  0  0  0  0
  -33.7663  -20.2939   20.5776 C   0  0  0  0  0  0  0  0  0  0  0  0
  -17.8484  -29.0409   23.3208 C   0  0  0  0  0  0  0  0  0  0  0  0
  -23.6342  -31.4811   25.4282 C   0  0  0  0  0  0  0  0  0  0  0  0
  -21.4399  -30.4002   25.9619 C   0  0  0  0  0  0  0  0  0  0  0  0
  -21.4910  -32.6539   24.8937 C   0  0  0  0  0  0  0  0  0  0  0  0
  -19.4756  -28.3708   19.9475 C   0  0  0  0  0  0  0  0  0  0  0  0
  -31.1898  -15.9623   22.5396 C   0  0  0  0  0  0  0  0  0  0  0  0
  -27.6002  -24.8209   19.6536 C   0  0  0  0  0  0  0  0  0  1  0  0
  -32.3991  -20.0416   19.9128 C   0  0  0  0  0  0  0  0  0  0  0  0
  -22.1141  -30.6201   23.5271 C   0  0  1  0  0  0  0  0  0  0  0  0
  -18.8340  -29.2736   22.1863 C   0  0  2  0  0  0  0  0  0  0  0  0
  -22.1880  -31.2765   24.9347 C   0  0  0  0  0  0  0  0  0  0  0  0
  -29.3822  -19.2303   22.0396 N   0  0  0  0  0  0  0  0  0  0  0  0
  -26.1300  -11.7706   20.9694 N   0  0  0  0  0  0  0  0  0  0  0  0
  -26.2222  -12.8074   20.1194 N   0  0  0  0  0  0  0  0  0  0  0  0
  -23.9072  -30.7679   21.8281 N   0  0  0  0  0  0  0  0  0  0  0  0
  -29.9993  -13.3923   20.1239 N   0  0  0  0  0  0  0  0  0  0  0  0
  -24.9325  -14.4281   18.9702 N   0  0  0  0  0  0  0  0  0  0  0  0
  -21.8860  -12.2369   19.5295 N   0  0  0  0  0  0  0  0  0  0  0  0
  -26.4947  -33.1921   21.4302 N   0  0  0  0  0  0  0  0  0  0  0  0
  -20.7572  -30.4390   23.0228 N   0  0  0  0  0  0  0  0  0  0  0  0
  -30.4146  -14.9557   21.8492 N   0  0  0  0  0  0  0  0  0  0  0  0
  -18.5906  -28.2465   21.1342 N   0  3  0  0  0  0  0  0  0  0  0  0
  -22.1088  -13.6849   21.2938 O   0  0  0  0  0  0  0  0  0  0  0  0
  -26.3794  -31.2197   22.6626 O   0  0  0  0  0  0  0  0  0  0  0  0
  -22.4971  -32.5777   22.2436 O   0  0  0  0  0  0  0  0  0  0  0  0
  -20.8924  -28.1403   22.7488 O   0  0  0  0  0  0  0  0  0  0  0  0
  -31.9546  -14.6380   20.1805 O   0  0  0  0  0  0  0  0  0  0  0  0
  -22.8249   -7.7453   24.6335 O   0  0  0  0  0  0  0  0  0  0  0  0
  -26.7746  -25.4367   20.6413 O   0  0  0  0  0  0  0  0  0  1  0  0
  -20.2769   -3.4165   22.3591 F   0  0  0  0  0  0  0  0  0  0  0  0
  -23.7723   -5.1773   25.0213 F   0  0  0  0  0  0  0  0  0  0  0  0
  1  2  1  0  0  0  0
  1  5  2  0  0  0  0
  2  6  2  0  0  0  0
  3  8  2  0  0  0  0
  3 17  1  0  0  0  0
  4  9  1  0  0  0  0
  4 17  2  0  0  0  0
  5 19  1  0  0  0  0
  6 21  1  0  0  0  0
  7 10  2  0  0  0  0
  7 20  1  0  0  0  0
  8 25  1  0  0  0  0
  9 25  2  0  0  0  0
 10 26  1  0  0  0  0
 11 12  2  0  0  0  0
 11 27  1  0  0  0  0
 12 28  1  0  0  0  0
 13 22  1  0  0  0  0
 13 26  2  0  0  0  0
 14 23  2  0  0  0  0
 14 24  1  0  0  0  0
 15 28  2  0  0  0  0
 15 29  1  0  0  0  0
 16 23  1  0  0  0  0
 16 69  2  0  0  0  0
 17 30  1  0  0  0  0
 18 30  1  0  0  0  0
 18 32  2  0  0  0  0
 18 33  1  0  0  0  0
 19 21  2  0  0  0  0
 19 38  1  0  0  0  0
 20 22  2  0  0  0  0
 20 39  1  0  0  0  0
 21 51  1  0  0  0  0
 22 40  1  0  0  0  0
 23 63  1  0  0  0  0
 24 31  2  0  0  0  0
 24 65  1  0  0  0  0
 25 85  1  0  0  0  0
 26 86  1  0  0  0  0
 27 29  2  0  0  0  0
 27 85  1  0  0  0  0
 28 87  1  0  0  0  0
 29 88  1  0  0  0  0
 30 70  2  0  0  0  0
 31 52  1  0  0  0  0
 31 69  1  0  0  0  0
 32 71  1  0  0  0  0
 32 74  1  0  0  0  0
 33 75  1  0  0  0  0
 33 80  2  0  0  0  0
 34 53  1  0  0  0  0
 34 76  1  0  0  0  0
 34 81  2  0  0  0  0
 35 66  1  0  0  0  0
 35 72  1  0  0  0  0
 35 82  2  0  0  0  0
 36 67  1  0  0  0  0
 36 77  1  0  0  0  0
 36 83  2  0  0  0  0
 37 73  1  0  0  0  0
 37 78  1  0  0  0  0
 37 84  2  0  0  0  0
 38 41  1  0  0  0  0
 39 53  1  0  0  0  0
 40 72  1  0  0  0  0
 41 43  1  0  0  0  0
 42 48  1  0  0  0  0
 42 49  1  0  0  0  0
 43 51  1  0  0  0  0
 44 46  1  0  0  0  0
 44 52  1  0  0  0  0
 45 47  1  0  0  0  0
 45 52  1  0  0  0  0
 46 54  1  0  0  0  0
 47 54  1  0  0  0  0
 48 55  1  0  0  0  0
 49 73  1  0  0  0  0
 50 55  1  0  0  0  0
 50 73  1  0  0  0  0
 51 76  1  0  0  0  0
 53 72  1  0  0  0  0
 54 64  1  0  0  0  0
 55 71  1  0  0  0  0
 56 65  1  0  0  0  0
 57 65  1  0  0  0  0
 58 67  1  0  0  0  0
 59 68  1  0  0  0  0
 60 68  1  0  0  0  0
 61 68  1  0  0  0  0
 62 79  1  0  0  0  0
 63 78  1  0  0  0  0
 64 86  1  0  0  0  0
 66 68  1  0  0  0  0
 66 77  1  0  0  0  0
 67 79  1  0  0  0  0
 70 71  1  0  0  0  0
M  CHG  1  79   1
M  ISO  4  37 100  64 101  78 100  86 101
M  END
> <Batch ID>
0036

> <Smiles>
CNC(C)C(=O)NC(C(=O)N1Cc2cc([101O:1][101CH2:1]C3CCC(c4ncc(C[100NH:0][100C:0](=O)N5CCCC(n6nc(-c7ccc(Oc8ccc(F)cc8F)cc7)c(C(N)=O)c6N)C5)cc4C(C)C)CC3)ccc2CC1C(=O)NC1CCCc2ccccc21)C(C)(C)C

> <Shape>
0.331

> <Color>
0.139

> <Negative vol penalty>
0.000

$$$$

  -OEChem-04052316563D

 84 92  0     1  0  0  0  0  0999 V2000
  -31.9629  -25.1993   19.8424 C   0  0  0  0  0  0  0  0  0  0  0  0
  -31.1046  -24.7843   20.8555 C   0  0  0  0  0  0  0  0  0  0  0  0
  -27.8627  -16.6737   18.8586 C   0  0  0  0  0  0  0  0  0  0  0  0
  -28.4830  -16.5619   21.1910 C   0  0  0  0  0  0  0  0  0  0  0  0
  -31.9079  -26.5128   19.3782 C   0  0  0  0  0  0  0  0  0  0  0  0
  -30.1914  -25.6829   21.4058 C   0  0  0  0  0  0  0  0  0  0  0  0
  -25.5774  -23.6702   21.9585 C   0  0  0  0  0  0  0  0  0  0  0  0
  -25.4517  -20.5650   27.5297 C   0  0  0  0  0  0  0  0  0  0  0  0
  -25.1483  -19.8605   28.6946 C   0  0  0  0  0  0  0  0  0  0  0  0
  -28.7129  -17.7658   18.6849 C   0  0  0  0  0  0  0  0  0  0  0  0
  -29.3332  -17.6540   21.0173 C   0  0  0  0  0  0  0  0  0  0  0  0
  -25.3807  -22.8171   23.0436 C   0  0  0  0  0  0  0  0  0  0  0  0
  -30.4484  -20.8095   17.7114 C   0  0  0  0  0  0  0  0  0  0  0  0
  -29.9664  -21.8997   16.9871 C   0  0  0  0  0  0  0  0  0  0  0  0
  -24.3368  -24.6180   24.2626 C   0  0  0  0  0  0  0  0  0  0  0  0
  -23.6431  -19.4470   26.3825 C   0  0  0  0  0  0  0  0  0  0  0  0
  -28.1831  -22.1782   18.5931 C   0  0  0  0  0  0  0  0  0  0  0  0
  -27.7477  -16.0718   20.1117 C   0  0  0  0  0  0  0  0  0  0  0  0
  -27.1923  -13.5822   20.1409 C   0  0  0  0  0  0  0  0  0  0  0  0
  -30.9869  -27.4254   19.9164 C   0  0  0  0  0  0  0  0  0  0  0  0
  -25.1644  -25.0088   22.0216 C   0  0  0  0  0  0  0  0  0  0  0  0
  -30.1248  -27.0103   20.9493 C   0  0  0  0  0  0  0  0  0  0  0  0
  -24.5271  -25.4854   23.1760 C   0  0  0  0  0  0  0  0  0  0  0  0
  -24.6990  -20.3583   26.3736 C   0  0  0  0  0  0  0  0  0  0  0  0
  -24.0924  -18.9491   28.7035 C   0  0  0  0  0  0  0  0  0  0  0  0
  -23.3398  -18.7423   27.5475 C   0  0  0  0  0  0  0  0  0  0  0  0
  -29.4481  -18.2559   19.7642 C   0  0  0  0  0  0  0  0  0  0  0  0
  -24.7629  -23.2917   24.1969 C   0  0  0  0  0  0  0  0  0  0  0  0
  -29.7977  -20.4035   18.8766 C   0  0  0  0  0  0  0  0  0  0  0  0
  -28.8338  -22.5841   17.4280 C   0  0  0  0  0  0  0  0  0  0  0  0
  -28.6651  -21.0879   19.3174 C   0  0  0  0  0  0  0  0  0  0  0  0
  -26.8693  -14.9440   20.2920 C   0  0  0  0  0  0  0  0  0  0  0  0
  -26.0227  -12.9187   20.4210 C   0  0  0  0  0  0  0  0  0  0  0  0
  -28.4382  -12.9714   19.7799 C   0  0  0  0  0  0  0  0  0  0  0  0
  -26.6382  -27.8208   21.8656 C   0  0  0  0  0  0  0  0  0  0  0  0
  -23.6063  -28.9732   21.9049 C   0  0  0  0  0  0  0  0  0  0  0  0
  -20.3342  -28.4909   22.7461 C   0  0  0  0  0  0  0  0  0  0  0  0
  -21.2093  -14.3412   23.6858 C   0  0  0  0  0  0  0  0  0  0  0  0
  -30.9968  -28.8478   19.4149 C   0  0  0  0  0  0  0  0  0  0  0  0
  -25.3598  -25.9091   20.8326 C   0  0  0  0  0  0  0  0  0  0  0  0
  -24.0468  -26.9087   23.2866 C   0  0  0  0  0  0  0  0  0  0  0  0
  -29.7444  -29.6351   19.7916 C   0  0  0  0  0  0  0  0  0  0  0  0
  -21.2729  -13.4622   20.2361 C   0  0  0  0  0  0  0  0  0  0  0  0
  -29.4038  -29.4242   21.2634 C   0  0  0  0  0  0  0  0  0  0  0  0
  -22.7435  -13.6194   19.8456 C   0  0  0  0  0  0  0  0  0  0  0  0
  -20.8396  -14.5253   21.2433 C   0  0  0  0  0  0  0  0  0  0  0  0
  -23.1516  -14.7704   22.0610 C   0  0  0  0  0  0  0  0  0  0  0  0
  -29.1035  -27.9489   21.5543 C   0  0  1  0  0  0  0  0  0  0  0  0
  -25.3626  -27.3902   21.1986 C   0  0  1  0  0  0  0  0  0  0  0  0
  -23.6499  -13.6867   21.0895 C   0  0  2  0  0  0  0  0  0  0  0  0
  -22.5684  -18.7696   30.6864 C   0  0  0  0  0  0  0  0  0  0  0  0
  -18.0971  -29.6264   22.6871 C   0  0  0  0  0  0  0  0  0  0  0  0
  -24.4363  -30.7257   24.2608 C   0  0  0  0  0  0  0  0  0  0  0  0
  -22.0092  -31.0977   24.7493 C   0  0  0  0  0  0  0  0  0  0  0  0
  -22.9743  -31.8618   22.5796 C   0  0  0  0  0  0  0  0  0  0  0  0
  -19.1790  -26.3808   21.0223 C   0  0  0  0  0  0  0  0  0  0  0  0
  -23.7872  -18.2056   29.9623 C   0  0  0  0  0  0  0  0  0  0  0  0
  -22.2049  -17.7715   27.5333 C   0  0  0  0  0  0  0  0  0  0  0  0
  -25.0259  -21.1160   25.1204 C   0  0  0  0  0  0  0  0  0  1  0  0
  -22.5790  -16.4528   26.8403 C   0  0  0  0  0  0  0  0  0  0  0  0
  -21.3964  -15.4805   26.7997 C   0  0  0  0  0  0  0  0  0  0  0  0
  -21.7402  -14.1676   26.1039 C   0  0  0  0  0  0  0  0  0  0  0  0
  -22.6346  -29.3891   22.9828 C   0  0  1  0  0  0  0  0  0  0  0  0
  -19.0517  -28.6925   21.9594 C   0  0  2  0  0  0  0  0  0  0  0  0
  -23.0243  -30.7422   23.6421 C   0  0  0  0  0  0  0  0  0  0  0  0
  -25.5943  -15.1359   20.6407 N   0  0  0  0  0  0  0  0  0  0  0  0
  -25.1059  -13.8859   20.7111 N   0  0  0  0  0  0  0  0  0  0  0  0
  -24.2664  -27.7517   22.0997 N   0  0  0  0  0  0  0  0  0  0  0  0
  -21.7390  -14.5359   22.3995 N   0  0  0  0  0  0  0  0  0  0  0  0
  -25.6994  -11.6083   20.4449 N   0  0  0  0  0  0  0  0  0  0  0  0
  -29.5397  -13.8001   19.5259 N   0  0  0  0  0  0  0  0  0  0  0  0
  -27.7714  -27.6060   21.1045 N   0  0  0  0  0  0  0  0  0  0  0  0
  -21.3130  -29.3842   22.3649 N   0  0  0  0  0  0  0  0  0  0  0  0
  -22.1314  -14.3596   24.7251 N   0  0  0  0  0  0  0  0  0  0  0  0
  -18.3631  -27.3879   21.7482 N   0  3  0  0  0  0  0  0  0  0  0  0
  -28.5666  -11.7285   19.6692 O   0  0  0  0  0  0  0  0  0  0  0  0
  -26.5974  -28.3129   22.9872 O   0  0  0  0  0  0  0  0  0  0  0  0
  -23.7682  -29.7018   20.9228 O   0  0  0  0  0  0  0  0  0  0  0  0
  -20.4545  -27.6297   23.6147 O   0  0  0  0  0  0  0  0  0  0  0  0
  -20.0047  -14.1589   23.8921 O   0  0  0  0  0  0  0  0  0  0  0  0
  -30.2780  -19.3214   19.5950 O   0  0  0  0  0  0  0  0  0  0  0  0
  -24.5703  -22.4613   25.2576 O   0  0  0  0  0  0  0  0  0  1  0  0
  -28.3720  -23.6320   16.7332 F   0  0  0  0  0  0  0  0  0  0  0  0
  -28.0364  -20.7034   20.4367 F   0  0  0  0  0  0  0  0  0  0  0  0
  1  2  1  0  0  0  0
  1  5  2  0  0  0  0
  2  6  2  0  0  0  0
  3 10  2  0  0  0  0
  3 18  1  0  0  0  0
  4 11  1  0  0  0  0
  4 18  2  0  0  0  0
  5 20  1  0  0  0  0
  6 22  1  0  0  0  0
  7 12  2  0  0  0  0
  7 21  1  0  0  0  0
  8  9  2  0  0  0  0
  8 24  1  0  0  0  0
  9 25  1  0  0  0  0
 10 27  1  0  0  0  0
 11 27  2  0  0  0  0
 12 28  1  0  0  0  0
 13 14  2  0  0  0  0
 13 29  1  0  0  0  0
 14 30  1  0  0  0  0
 15 23  1  0  0  0  0
 15 28  2  0  0  0  0
 16 24  2  0  0  0  0
 16 26  1  0  0  0  0
 17 30  2  0  0  0  0
 17 31  1  0  0  0  0
 18 32  1  0  0  0  0
 19 32  1  0  0  0  0
 19 33  2  0  0  0  0
 19 34  1  0  0  0  0
 20 22  2  0  0  0  0
 20 39  1  0  0  0  0
 21 23  2  0  0  0  0
 21 40  1  0  0  0  0
 22 48  1  0  0  0  0
 23 41  1  0  0  0  0
 24 59  1  0  0  0  0
 25 26  2  0  0  0  0
 25 57  1  0  0  0  0
 26 58  1  0  0  0  0
 27 81  1  0  0  0  0
 28 82  1  0  0  0  0
 29 31  2  0  0  0  0
 29 81  1  0  0  0  0
 30 83  1  0  0  0  0
 31 84  1  0  0  0  0
 32 66  2  0  0  0  0
 33 67  1  0  0  0  0
 33 70  1  0  0  0  0
 34 71  1  0  0  0  0
 34 76  2  0  0  0  0
 35 49  1  0  0  0  0
 35 72  1  0  0  0  0
 35 77  2  0  0  0  0
 36 63  1  0  0  0  0
 36 68  1  0  0  0  0
 36 78  2  0  0  0  0
 37 64  1  0  0  0  0
 37 73  1  0  0  0  0
 37 79  2  0  0  0  0
 38 69  1  0  0  0  0
 38 74  1  0  0  0  0
 38 80  2  0  0  0  0
 39 42  1  0  0  0  0
 40 49  1  0  0  0  0
 41 68  1  0  0  0  0
 42 44  1  0  0  0  0
 43 45  1  0  0  0  0
 43 46  1  0  0  0  0
 44 48  1  0  0  0  0
 45 50  1  0  0  0  0
 46 69  1  0  0  0  0
 47 50  1  0  0  0  0
 47 69  1  0  0  0  0
 48 72  1  0  0  0  0
 49 68  1  0  0  0  0
 50 67  1  0  0  0  0
 51 57  1  0  0  0  0
 52 64  1  0  0  0  0
 53 65  1  0  0  0  0
 54 65  1  0  0  0  0
 55 65  1  0  0  0  0
 56 75  1  0  0  0  0
 58 60  1  0  0  0  0
 59 82  1  0  0  0  0
 60 61  1  0  0  0  0
 61 62  1  0  0  0  0
 62 74  1  0  0  0  0
 63 65  1  0  0  0  0
 63 73  1  0  0  0  0
 64 75  1  0  0  0  0
 66 67  1  0  0  0  0
M  CHG  1  75   1
M  ISO  4  38 100  59 101  74 100  82 101
M  END
> <Batch ID>
0036

> <Smiles>
CCc1ccc([101CH2:1][101O:1]c2ccc3c(c2)CN(C(=O)C(NC(=O)C(C)NC)C(C)(C)C)C(C(=O)NC2CCCc4ccccc42)C3)cc1CCCC[100NH:0][100C:0](=O)N1CCCC(n2nc(-c3ccc(Oc4ccc(F)cc4F)cc3)c(C(N)=O)c2N)C1

> <Shape>
0.242

> <Color>
0.059

> <Negative vol penalty>
0.000

$$$$

  -OEChem-04052316563D

 88 96  0     1  0  0  0  0  0999 V2000
  -10.4057  -26.5006   10.4936 C   0  0  0  0  0  0  0  0  0  0  0  0
  -11.5683  -25.8912   10.9545 C   0  0  0  0  0  0  0  0  0  0  0  0
  -22.9987   -9.8980   19.9810 C   0  0  0  0  0  0  0  0  0  0  0  0
  -23.7332   -9.9411   22.2823 C   0  0  0  0  0  0  0  0  0  0  0  0
  -10.1726  -27.8486   10.7632 C   0  0  0  0  0  0  0  0  0  0  0  0
  -12.4990  -26.6297   11.6844 C   0  0  0  0  0  0  0  0  0  0  0  0
  -15.9999  -24.6177   16.2889 C   0  0  0  0  0  0  0  0  0  0  0  0
  -22.2335   -8.7624   20.2465 C   0  0  0  0  0  0  0  0  0  0  0  0
  -22.9679   -8.8055   22.5478 C   0  0  0  0  0  0  0  0  0  0  0  0
  -17.3262  -24.1912   16.3417 C   0  0  0  0  0  0  0  0  0  0  0  0
  -23.2110   -5.4683   22.0633 C   0  0  0  0  0  0  0  0  0  0  0  0
  -23.8017   -4.4486   22.8095 C   0  0  0  0  0  0  0  0  0  0  0  0
  -18.0029  -26.4009   17.0337 C   0  0  0  0  0  0  0  0  0  0  0  0
  -22.2638  -23.5069   15.6272 C   0  0  0  0  0  0  0  0  0  0  0  0
  -22.0846   -4.6853   24.4924 C   0  0  0  0  0  0  0  0  0  0  0  0
  -21.8474  -22.3237   17.6479 C   0  0  0  0  0  0  0  0  0  0  0  0
  -23.7486  -10.4873   20.9989 C   0  0  0  0  0  0  0  0  0  0  0  0
  -24.1327  -13.0036   20.8301 C   0  0  0  0  0  0  0  0  0  0  0  0
  -11.0964  -28.6015   11.5051 C   0  0  0  0  0  0  0  0  0  0  0  0
  -15.6659  -25.9441   16.5981 C   0  0  0  0  0  0  0  0  0  0  0  0
  -12.2786  -27.9893   11.9631 C   0  0  0  0  0  0  0  0  0  0  0  0
  -16.6713  -26.8410   16.9865 C   0  0  0  0  0  0  0  0  0  0  0  0
  -21.3542  -23.0413   16.5701 C   0  0  0  0  0  0  0  0  0  0  0  0
  -23.6197  -23.2443   15.7885 C   0  0  0  0  0  0  0  0  0  0  0  0
  -22.2181   -8.2162   21.5299 C   0  0  0  0  0  0  0  0  0  0  0  0
  -18.3283  -25.0836   16.7113 C   0  0  0  0  0  0  0  0  0  0  0  0
  -22.0570   -6.0966   22.5317 C   0  0  0  0  0  0  0  0  0  0  0  0
  -23.2385   -4.0571   24.0240 C   0  0  0  0  0  0  0  0  0  0  0  0
  -21.4938   -5.7051   23.7462 C   0  0  0  0  0  0  0  0  0  0  0  0
  -24.5398  -11.6600   20.7252 C   0  0  0  0  0  0  0  0  0  0  0  0
  -24.0115  -22.5178   16.9014 C   0  0  0  0  0  0  0  0  0  0  0  0
  -25.2409  -13.7276   20.4638 C   0  0  0  0  0  0  0  0  0  0  0  0
  -22.8662  -13.5483   21.2236 C   0  0  0  0  0  0  0  0  0  0  0  0
  -14.3504  -28.3568   15.0005 C   0  0  0  0  0  0  0  0  0  0  0  0
  -14.4445  -29.8144   17.8968 C   0  0  0  0  0  0  0  0  0  0  0  0
  -15.8730  -30.0256   20.9890 C   0  0  0  0  0  0  0  0  0  0  0  0
  -30.7380  -14.6625   20.6934 C   0  0  0  0  0  0  0  0  0  0  0  0
  -10.8232  -30.0675   11.7309 C   0  0  0  0  0  0  0  0  0  0  0  0
  -14.2272  -26.3815   16.5622 C   0  0  0  0  0  0  0  0  0  0  0  0
  -16.3627  -28.2703   17.3477 C   0  0  0  0  0  0  0  0  0  0  0  0
  -11.6820  -30.6845   12.8318 C   0  0  0  0  0  0  0  0  0  0  0  0
  -29.5884  -12.2468   18.3441 C   0  0  0  0  0  0  0  0  0  0  0  0
  -13.1410  -30.2716   12.6654 C   0  0  0  0  0  0  0  0  0  0  0  0
  -28.1416  -11.9853   18.7666 C   0  0  0  0  0  0  0  0  0  0  0  0
  -30.4956  -12.4781   19.5505 C   0  0  0  0  0  0  0  0  0  0  0  0
  -28.5907  -13.2686   20.8997 C   0  0  0  0  0  0  0  0  0  0  0  0
  -13.3004  -28.7507   12.7794 C   0  0  1  0  0  0  0  0  0  0  0  0
  -14.0651  -27.8897   16.3998 C   0  0  1  0  0  0  0  0  0  0  0  0
  -27.6270  -13.0849   19.7149 C   0  0  2  0  0  0  0  0  0  0  0  0
  -24.6034  -22.8934   13.5092 C   0  0  0  0  0  0  0  0  0  0  0  0
  -15.7640  -31.3403   23.1237 C   0  0  0  0  0  0  0  0  0  0  0  0
  -15.9170  -32.1216   16.5482 C   0  0  0  0  0  0  0  0  0  0  0  0
  -16.6035  -32.9195   18.8198 C   0  0  0  0  0  0  0  0  0  0  0  0
  -14.1860  -32.8197   18.2127 C   0  0  0  0  0  0  0  0  0  0  0  0
  -15.1569  -27.6259   22.5662 C   0  0  0  0  0  0  0  0  0  0  0  0
  -24.5994  -23.7387   14.7810 C   0  0  0  0  0  0  0  0  0  0  0  0
  -19.8848  -23.3083   16.4258 C   0  0  0  0  0  0  0  0  0  1  0  0
  -25.4550  -22.2065   17.1268 C   0  0  0  0  0  0  0  0  0  0  0  0
  -25.7119  -21.1319   18.1977 C   0  0  0  0  0  0  0  0  0  0  0  0
  -27.2033  -20.8533   18.4147 C   0  0  0  0  0  0  0  0  0  0  0  0
  -27.4159  -19.8029   19.5078 C   0  0  0  0  0  0  0  0  0  0  0  0
  -28.8871  -19.4328   19.7182 C   0  0  0  0  0  0  0  0  0  0  0  0
  -29.0950  -18.3299   20.7597 C   0  0  0  0  0  0  0  0  0  0  0  0
  -30.5800  -17.9803   20.9051 C   0  0  0  0  0  0  0  0  0  0  0  0
  -30.8251  -16.8373   21.8858 C   0  0  0  0  0  0  0  0  0  0  0  0
  -15.4486  -30.6697   18.6311 C   0  0  1  0  0  0  0  0  0  0  0  0
  -15.2632  -30.1141   22.3763 C   0  0  2  0  0  0  0  0  0  0  0  0
  -15.5452  -32.1063   18.0443 C   0  0  0  0  0  0  0  0  0  0  0  0
  -23.1573  -22.0490   17.8385 N   0  0  0  0  0  0  0  0  0  0  0  0
  -25.8075  -11.5351   20.3234 N   0  0  0  0  0  0  0  0  0  0  0  0
  -26.2066  -12.8095   20.1726 N   0  0  0  0  0  0  0  0  0  0  0  0
  -14.9418  -28.6517   17.2914 N   0  0  0  0  0  0  0  0  0  0  0  0
  -29.9520  -13.5338   20.4085 N   0  0  0  0  0  0  0  0  0  0  0  0
  -25.4737  -15.0537   20.3654 N   0  0  0  0  0  0  0  0  0  0  0  0
  -21.8360  -12.6628   21.5682 N   0  0  0  0  0  0  0  0  0  0  0  0
  -13.2490  -28.3398   14.1661 N   0  0  0  0  0  0  0  0  0  0  0  0
  -15.0715  -30.6236   20.0397 N   0  0  0  0  0  0  0  0  0  0  0  0
  -30.1448  -15.6183   21.5090 N   0  0  0  0  0  0  0  0  0  0  0  0
  -15.6108  -28.9036   23.1731 N   0  3  0  0  0  0  0  0  0  0  0  0
  -22.6494  -14.7835   21.2526 O   0  0  0  0  0  0  0  0  0  0  0  0
  -15.4854  -28.7080   14.7004 O   0  0  0  0  0  0  0  0  0  0  0  0
  -13.2611  -30.1615   17.8677 O   0  0  0  0  0  0  0  0  0  0  0  0
  -16.9541  -29.4836   20.7699 O   0  0  0  0  0  0  0  0  0  0  0  0
  -31.8816  -14.8102   20.2492 O   0  0  0  0  0  0  0  0  0  0  0  0
  -21.4713   -7.1082   21.7893 O   0  0  0  0  0  0  0  0  0  0  0  0
  -19.6237  -24.6701   16.7630 O   0  0  0  0  0  0  0  0  0  1  0  0
  -23.8051   -3.0768   24.7398 F   0  0  0  0  0  0  0  0  0  0  0  0
  -20.3846   -6.3041   24.2008 F   0  0  0  0  0  0  0  0  0  0  0  0
  1  2  1  0  0  0  0
  1  5  2  0  0  0  0
  2  6  2  0  0  0  0
  3  8  2  0  0  0  0
  3 17  1  0  0  0  0
  4  9  1  0  0  0  0
  4 17  2  0  0  0  0
  5 19  1  0  0  0  0
  6 21  1  0  0  0  0
  7 10  2  0  0  0  0
  7 20  1  0  0  0  0
  8 25  1  0  0  0  0
  9 25  2  0  0  0  0
 10 26  1  0  0  0  0
 11 12  2  0  0  0  0
 11 27  1  0  0  0  0
 12 28  1  0  0  0  0
 13 22  1  0  0  0  0
 13 26  2  0  0  0  0
 14 23  2  0  0  0  0
 14 24  1  0  0  0  0
 15 28  2  0  0  0  0
 15 29  1  0  0  0  0
 16 23  1  0  0  0  0
 16 69  2  0  0  0  0
 17 30  1  0  0  0  0
 18 30  1  0  0  0  0
 18 32  2  0  0  0  0
 18 33  1  0  0  0  0
 19 21  2  0  0  0  0
 19 38  1  0  0  0  0
 20 22  2  0  0  0  0
 20 39  1  0  0  0  0
 21 47  1  0  0  0  0
 22 40  1  0  0  0  0
 23 57  1  0  0  0  0
 24 31  2  0  0  0  0
 24 56  1  0  0  0  0
 25 85  1  0  0  0  0
 26 86  1  0  0  0  0
 27 29  2  0  0  0  0
 27 85  1  0  0  0  0
 28 87  1  0  0  0  0
 29 88  1  0  0  0  0
 30 70  2  0  0  0  0
 31 58  1  0  0  0  0
 31 69  1  0  0  0  0
 32 71  1  0  0  0  0
 32 74  1  0  0  0  0
 33 75  1  0  0  0  0
 33 80  2  0  0  0  0
 34 48  1  0  0  0  0
 34 76  1  0  0  0  0
 34 81  2  0  0  0  0
 35 66  1  0  0  0  0
 35 72  1  0  0  0  0
 35 82  2  0  0  0  0
 36 67  1  0  0  0  0
 36 77  1  0  0  0  0
 36 83  2  0  0  0  0
 37 73  1  0  0  0  0
 37 78  1  0  0  0  0
 37 84  2  0  0  0  0
 38 41  1  0  0  0  0
 39 48  1  0  0  0  0
 40 72  1  0  0  0  0
 41 43  1  0  0  0  0
 42 44  1  0  0  0  0
 42 45  1  0  0  0  0
 43 47  1  0  0  0  0
 44 49  1  0  0  0  0
 45 73  1  0  0  0  0
 46 49  1  0  0  0  0
 46 73  1  0  0  0  0
 47 76  1  0  0  0  0
 48 72  1  0  0  0  0
 49 71  1  0  0  0  0
 50 56  1  0  0  0  0
 51 67  1  0  0  0  0
 52 68  1  0  0  0  0
 53 68  1  0  0  0  0
 54 68  1  0  0  0  0
 55 79  1  0  0  0  0
 57 86  1  0  0  0  0
 58 59  1  0  0  0  0
 59 60  1  0  0  0  0
 60 61  1  0  0  0  0
 61 62  1  0  0  0  0
 62 63  1  0  0  0  0
 63 64  1  0  0  0  0
 64 65  1  0  0  0  0
 65 78  1  0  0  0  0
 66 68  1  0  0  0  0
 66 77  1  0  0  0  0
 67 79  1  0  0  0  0
 70 71  1  0  0  0  0
M  CHG  1  79   1
M  ISO  4  37 100  57 101  78 100  86 101
M  END
> <Batch ID>
0036

> <Smiles>
CCc1cc([101CH2:1][101O:1]c2ccc3c(c2)CN(C(=O)C(NC(=O)C(C)NC)C(C)(C)C)C(C(=O)NC2CCCc4ccccc42)C3)cnc1CCCCCCCC[100NH:0][100C:0](=O)N1CCCC(n2nc(-c3ccc(Oc4ccc(F)cc4F)cc3)c(C(N)=O)c2N)C1

> <Shape>
0.201

> <Color>
0.197

> <Negative vol penalty>
0.000

$$$$

  -OEChem-04052316563D

 90 99  0     1  0  0  0  0  0999 V2000
  -24.0588  -14.9688   28.6189 C   0  0  0  0  0  0  0  0  0  0  0  0
  -24.6293  -14.7288   27.3730 C   0  0  0  0  0  0  0  0  0  0  0  0
  -20.8997  -26.2906   23.3771 C   0  0  0  0  0  0  0  0  0  0  0  0
  -22.0531  -25.8831   21.2937 C   0  0  0  0  0  0  0  0  0  0  0  0
  -23.4282  -16.1860   28.8728 C   0  0  0  0  0  0  0  0  0  0  0  0
  -24.5685  -15.7056   26.3797 C   0  0  0  0  0  0  0  0  0  0  0  0
  -28.9889  -16.3209   23.9868 C   0  0  0  0  0  0  0  0  0  0  0  0
  -21.8187  -27.2920   23.6901 C   0  0  0  0  0  0  0  0  0  0  0  0
  -22.9722  -26.8846   21.6067 C   0  0  0  0  0  0  0  0  0  0  0  0
  -29.3287  -15.3724   23.0231 C   0  0  0  0  0  0  0  0  0  0  0  0
  -25.4107  -29.5799   21.6913 C   0  0  0  0  0  0  0  0  0  0  0  0
  -25.7488  -30.4876   20.6877 C   0  0  0  0  0  0  0  0  0  0  0  0
  -24.2560  -12.3247   21.6209 C   0  0  0  0  0  0  0  0  0  0  0  0
  -25.8377  -11.5068   19.9881 C   0  0  0  0  0  0  0  0  0  0  0  0
  -28.6015  -16.8830   21.2886 C   0  0  0  0  0  0  0  0  0  0  0  0
  -26.0697  -13.7394   20.8817 C   0  0  0  0  0  0  0  0  0  0  0  0
  -23.4369  -31.1707   20.5268 C   0  0  0  0  0  0  0  0  0  0  0  0
  -21.0169  -25.5860   22.1789 C   0  0  0  0  0  0  0  0  0  0  0  0
  -18.8557  -24.6979   21.1551 C   0  0  0  0  0  0  0  0  0  0  0  0
  -23.3680  -17.1820   27.8853 C   0  0  0  0  0  0  0  0  0  0  0  0
  -28.4418  -17.5554   23.6085 C   0  0  0  0  0  0  0  0  0  0  0  0
  -23.9352  -16.9368   26.6201 C   0  0  0  0  0  0  0  0  0  0  0  0
  -24.7059  -11.3079   20.7787 C   0  0  0  0  0  0  0  0  0  0  0  0
  -28.2580  -17.8465   22.2493 C   0  0  0  0  0  0  0  0  0  0  0  0
  -24.9379  -13.5405   21.6724 C   0  0  0  0  0  0  0  0  0  0  0  0
  -26.5196  -12.7226   20.0395 C   0  0  0  0  0  0  0  0  0  0  0  0
  -22.8550  -27.5891   22.8049 C   0  0  0  0  0  0  0  0  0  0  0  0
  -29.1323  -15.6522   21.6739 C   0  0  0  0  0  0  0  0  0  0  0  0
  -24.0858  -29.4675   22.1127 C   0  0  0  0  0  0  0  0  0  0  0  0
  -24.7619  -31.2830   20.1054 C   0  0  0  0  0  0  0  0  0  0  0  0
  -23.0989  -30.2629   21.5305 C   0  0  0  0  0  0  0  0  0  0  0  0
  -20.0681  -24.5510   21.8553 C   0  0  0  0  0  0  0  0  0  0  0  0
  -18.3292  -23.4301   21.1106 C   0  0  0  0  0  0  0  0  0  0  0  0
  -18.2589  -25.8750   20.5949 C   0  0  0  0  0  0  0  0  0  0  0  0
  -25.6829  -19.0428   24.1376 C   0  0  0  0  0  0  0  0  0  0  0  0
  -27.1565  -21.4919   22.6037 C   0  0  0  0  0  0  0  0  0  0  0  0
  -29.5706  -22.5059   20.4149 C   0  0  0  0  0  0  0  0  0  0  0  0
  -20.8719  -18.1057   21.3104 C   0  0  0  0  0  0  0  0  0  0  0  0
  -22.6343  -18.4638   28.1907 C   0  0  0  0  0  0  0  0  0  0  0  0
  -28.1054  -18.5783   24.6588 C   0  0  0  0  0  0  0  0  0  0  0  0
  -27.6929  -19.1648   21.7899 C   0  0  0  0  0  0  0  0  0  0  0  0
  -22.9409  -19.5903   27.2073 C   0  0  0  0  0  0  0  0  0  0  0  0
  -21.8318   -8.0753   21.4744 C   0  0  0  0  0  0  0  0  0  0  0  0
  -21.8014   -8.8040   20.1343 C   0  0  0  0  0  0  0  0  0  0  0  0
  -23.2572   -7.9094   21.9924 C   0  0  0  0  0  0  0  0  0  0  0  0
  -18.2854  -19.3060   23.5390 C   0  0  0  0  0  0  0  0  0  0  0  0
  -22.5242  -10.1479   20.2065 C   0  0  0  0  0  0  0  0  0  0  0  0
  -23.9872   -9.2489   22.0738 C   0  0  0  0  0  0  0  0  0  0  0  0
  -22.8704  -19.0797   25.7717 C   0  0  0  0  0  0  0  0  0  0  0  0
  -18.3408  -20.8135   23.2852 C   0  0  0  0  0  0  0  0  0  0  0  0
  -19.6805  -18.6888   23.5089 C   0  0  0  0  0  0  0  0  0  0  0  0
  -20.4998  -20.4569   22.0002 C   0  0  0  0  0  0  0  0  0  0  0  0
  -23.9658   -9.9887   20.7236 C   0  0  0  0  0  0  0  0  0  0  0  0
  -23.9114  -17.9811   25.5252 C   0  0  1  0  0  0  0  0  0  0  0  0
  -27.0767  -19.6018   24.1882 C   0  0  1  0  0  0  0  0  0  0  0  0
  -19.1184  -21.1364   21.9955 C   0  0  2  0  0  0  0  0  0  0  0  0
  -30.5085  -24.5665   19.3325 C   0  0  0  0  0  0  0  0  0  0  0  0
  -24.7551  -21.5947   20.7243 C   0  0  0  0  0  0  0  0  0  0  0  0
  -26.1359  -22.9639   19.1474 C   0  0  0  0  0  0  0  0  0  0  0  0
  -25.6241  -23.8311   21.4297 C   0  0  0  0  0  0  0  0  0  0  0  0
  -32.2367  -22.0679   21.6230 C   0  0  0  0  0  0  0  0  0  0  0  0
  -24.4575  -14.6280   22.5730 C   0  0  0  0  0  0  0  0  0  0  0  0
  -27.7430  -12.9372   19.1846 C   0  0  0  0  0  0  0  0  0  0  0  0
  -23.4501  -15.5568   21.8772 C   0  0  0  0  0  0  0  0  0  0  0  0
  -29.0504  -12.5282   19.8666 C   0  0  0  0  0  0  0  0  0  0  0  0
  -22.1937  -14.8006   21.4353 C   0  0  0  0  0  0  0  0  0  0  0  0
  -21.1735  -15.7065   20.7535 C   0  0  0  0  0  0  0  0  0  0  0  0
  -29.3684  -13.3546   21.1073 C   0  0  0  0  0  0  0  0  0  1  0  0
  -27.2760  -21.9354   21.1657 C   0  0  1  0  0  0  0  0  0  0  0  0
  -30.6151  -23.6039   20.5050 C   0  0  2  0  0  0  0  0  0  0  0  0
  -25.9567  -22.5556   20.6252 C   0  0  0  0  0  0  0  0  0  0  0  0
  -20.2982  -23.2895   22.2289 N   0  0  0  0  0  0  0  0  0  0  0  0
  -19.2232  -22.6321   21.7618 N   0  0  0  0  0  0  0  0  0  0  0  0
  -27.3737  -20.1298   22.8551 N   0  0  0  0  0  0  0  0  0  0  0  0
  -20.3597  -19.0180   22.2477 N   0  0  0  0  0  0  0  0  0  0  0  0
  -17.1932  -22.9313   20.5785 N   0  0  0  0  0  0  0  0  0  0  0  0
  -18.9339  -27.0958   20.7308 N   0  0  0  0  0  0  0  0  0  0  0  0
  -25.2258  -18.5606   25.3492 N   0  0  0  0  0  0  0  0  0  0  0  0
  -28.4250  -22.8326   21.1093 N   0  0  0  0  0  0  0  0  0  0  0  0
  -20.7045  -16.7622   21.6232 N   0  0  0  0  0  0  0  0  0  0  0  0
  -31.9848  -23.0168   20.5080 N   0  3  0  0  0  0  0  0  0  0  0  0
  -17.1516  -25.8480   20.0061 O   0  0  0  0  0  0  0  0  0  0  0  0
  -25.0672  -19.0499   23.0781 O   0  0  0  0  0  0  0  0  0  0  0  0
  -26.8877  -22.3248   23.4730 O   0  0  0  0  0  0  0  0  0  0  0  0
  -29.7515  -21.4643   19.7881 O   0  0  0  0  0  0  0  0  0  0  0  0
  -21.4326  -18.4620   20.2684 O   0  0  0  0  0  0  0  0  0  0  0  0
  -23.7519  -28.5664   23.1098 O   0  0  0  0  0  0  0  0  0  0  0  0
  -29.4625  -14.7280   20.7313 O   0  0  0  0  0  0  0  0  0  1  0  0
  -25.0869  -32.1557   19.1427 F   0  0  0  0  0  0  0  0  0  0  0  0
  -21.8245  -30.1603   21.9320 F   0  0  0  0  0  0  0  0  0  0  0  0
  1  2  1  0  0  0  0
  1  5  2  0  0  0  0
  2  6  2  0  0  0  0
  3  8  2  0  0  0  0
  3 18  1  0  0  0  0
  4  9  1  0  0  0  0
  4 18  2  0  0  0  0
  5 20  1  0  0  0  0
  6 22  1  0  0  0  0
  7 10  2  0  0  0  0
  7 21  1  0  0  0  0
  8 27  1  0  0  0  0
  9 27  2  0  0  0  0
 10 28  1  0  0  0  0
 11 12  2  0  0  0  0
 11 29  1  0  0  0  0
 12 30  1  0  0  0  0
 13 23  2  0  0  0  0
 13 25  1  0  0  0  0
 14 23  1  0  0  0  0
 14 26  2  0  0  0  0
 15 24  1  0  0  0  0
 15 28  2  0  0  0  0
 16 25  2  0  0  0  0
 16 26  1  0  0  0  0
 17 30  2  0  0  0  0
 17 31  1  0  0  0  0
 18 32  1  0  0  0  0
 19 32  1  0  0  0  0
 19 33  2  0  0  0  0
 19 34  1  0  0  0  0
 20 22  2  0  0  0  0
 20 39  1  0  0  0  0
 21 24  2  0  0  0  0
 21 40  1  0  0  0  0
 22 54  1  0  0  0  0
 23 53  1  0  0  0  0
 24 41  1  0  0  0  0
 25 62  1  0  0  0  0
 26 63  1  0  0  0  0
 27 87  1  0  0  0  0
 28 88  1  0  0  0  0
 29 31  2  0  0  0  0
 29 87  1  0  0  0  0
 30 89  1  0  0  0  0
 31 90  1  0  0  0  0
 32 72  2  0  0  0  0
 33 73  1  0  0  0  0
 33 76  1  0  0  0  0
 34 77  1  0  0  0  0
 34 82  2  0  0  0  0
 35 55  1  0  0  0  0
 35 78  1  0  0  0  0
 35 83  2  0  0  0  0
 36 69  1  0  0  0  0
 36 74  1  0  0  0  0
 36 84  2  0  0  0  0
 37 70  1  0  0  0  0
 37 79  1  0  0  0  0
 37 85  2  0  0  0  0
 38 75  1  0  0  0  0
 38 80  1  0  0  0  0
 38 86  2  0  0  0  0
 39 42  1  0  0  0  0
 40 55  1  0  0  0  0
 41 74  1  0  0  0  0
 42 49  1  0  0  0  0
 43 44  1  0  0  0  0
 43 45  1  0  0  0  0
 44 47  1  0  0  0  0
 45 48  1  0  0  0  0
 46 50  1  0  0  0  0
 46 51  1  0  0  0  0
 47 53  1  0  0  0  0
 48 53  1  0  0  0  0
 49 54  1  0  0  0  0
 50 56  1  0  0  0  0
 51 75  1  0  0  0  0
 52 56  1  0  0  0  0
 52 75  1  0  0  0  0
 54 78  1  0  0  0  0
 55 74  1  0  0  0  0
 56 73  1  0  0  0  0
 57 70  1  0  0  0  0
 58 71  1  0  0  0  0
 59 71  1  0  0  0  0
 60 71  1  0  0  0  0
 61 81  1  0  0  0  0
 62 64  1  0  0  0  0
 63 65  1  0  0  0  0
 64 66  1  0  0  0  0
 65 68  1  0  0  0  0
 66 67  1  0  0  0  0
 67 80  1  0  0  0  0
 68 88  1  0  0  0  0
 69 71  1  0  0  0  0
 69 79  1  0  0  0  0
 70 81  1  0  0  0  0
 72 73  1  0  0  0  0
M  CHG  1  81   1
M  ISO  4  38 100  68 101  80 100  88 101
M  END
> <Batch ID>
0036

> <Smiles>
CNC(C)C(=O)NC(C(=O)N1Cc2cc([101O:1][101CH2:1]CCc3cc(CCCC[100NH:0][100C:0](=O)N4CCCC(n5nc(-c6ccc(Oc7ccc(F)cc7F)cc6)c(C(N)=O)c5N)C4)cc(C4CCCCC4)c3)ccc2CC1C(=O)NC1CCCc2ccccc21)C(C)(C)C

> <Shape>
0.207

> <Color>
0.074

> <Negative vol penalty>
0.000

$$$$

  -OEChem-04052316563D

 86 94  0     1  0  0  0  0  0999 V2000
  -28.6902  -26.3560   27.7292 C   0  0  0  0  0  0  0  0  0  0  0  0
  -28.5362  -25.0105   27.4108 C   0  0  0  0  0  0  0  0  0  0  0  0
  -21.1819  -25.5998   21.4147 C   0  0  0  0  0  0  0  0  0  0  0  0
  -22.9660  -25.9417   23.0076 C   0  0  0  0  0  0  0  0  0  0  0  0
  -28.5163  -27.3283   26.7451 C   0  0  0  0  0  0  0  0  0  0  0  0
  -28.2072  -24.6366   26.1084 C   0  0  0  0  0  0  0  0  0  0  0  0
  -30.0658  -19.6128   23.1397 C   0  0  0  0  0  0  0  0  0  0  0  0
  -21.1946  -26.9605   21.1084 C   0  0  0  0  0  0  0  0  0  0  0  0
  -22.9787  -27.3024   22.7013 C   0  0  0  0  0  0  0  0  0  0  0  0
  -29.4578  -18.3790   22.9119 C   0  0  0  0  0  0  0  0  0  0  0  0
  -24.1840  -29.2906   20.2487 C   0  0  0  0  0  0  0  0  0  0  0  0
  -25.4245  -29.8978   20.0536 C   0  0  0  0  0  0  0  0  0  0  0  0
  -28.7057  -19.1545   20.7551 C   0  0  0  0  0  0  0  0  0  0  0  0
  -25.7363  -12.9397   20.1308 C   0  0  0  0  0  0  0  0  0  0  0  0
  -27.7052  -14.3135   19.9884 C   0  0  0  0  0  0  0  0  0  0  0  0
  -24.9707  -31.4119   21.8808 C   0  0  0  0  0  0  0  0  0  0  0  0
  -22.0676  -25.0904   22.3643 C   0  0  0  0  0  0  0  0  0  0  0  0
  -22.8033  -22.6666   22.0618 C   0  0  0  0  0  0  0  0  0  0  0  0
  -28.1944  -26.9656   25.4278 C   0  0  0  0  0  0  0  0  0  0  0  0
  -29.9888  -20.6322   22.1798 C   0  0  0  0  0  0  0  0  0  0  0  0
  -28.0275  -25.6051   25.1061 C   0  0  0  0  0  0  0  0  0  0  0  0
  -29.3157  -20.3995   20.9719 C   0  0  0  0  0  0  0  0  0  0  0  0
  -27.1098  -13.0576   19.9502 C   0  0  0  0  0  0  0  0  0  0  0  0
  -22.0930  -27.8119   21.7516 C   0  0  0  0  0  0  0  0  0  0  0  0
  -28.7751  -18.1507   21.7207 C   0  0  0  0  0  0  0  0  0  0  0  0
  -23.3368  -29.7441   21.2598 C   0  0  0  0  0  0  0  0  0  0  0  0
  -25.8179  -30.9584   20.8696 C   0  0  0  0  0  0  0  0  0  0  0  0
  -23.7302  -30.8047   22.0759 C   0  0  0  0  0  0  0  0  0  0  0  0
  -22.0545  -23.6849   22.6816 C   0  0  0  0  0  0  0  0  0  0  0  0
  -25.0084  -14.0992   20.3447 C   0  0  0  0  0  0  0  0  0  0  0  0
  -26.8892  -15.4115   20.2084 C   0  0  0  0  0  0  0  0  0  0  0  0
  -22.4350  -21.5196   22.7217 C   0  0  0  0  0  0  0  0  0  0  0  0
  -23.7473  -22.7499   20.9860 C   0  0  0  0  0  0  0  0  0  0  0  0
  -28.7635  -23.5644   22.1149 C   0  0  0  0  0  0  0  0  0  0  0  0
  -30.1924  -23.6763   19.2049 C   0  0  0  0  0  0  0  0  0  0  0  0
  -31.4155  -21.9759   16.5106 C   0  0  0  0  0  0  0  0  0  0  0  0
  -21.3246  -18.7670   27.4478 C   0  0  0  0  0  0  0  0  0  0  0  0
  -27.9699  -28.0549   24.4091 C   0  0  0  0  0  0  0  0  0  0  0  0
  -30.6728  -21.9484   22.4293 C   0  0  0  0  0  0  0  0  0  0  0  0
  -29.2214  -21.4540   19.9007 C   0  0  0  0  0  0  0  0  0  0  0  0
  -27.9902  -27.5541   22.9672 C   0  0  0  0  0  0  0  0  0  0  0  0
  -18.6838  -20.6717   26.0073 C   0  0  0  0  0  0  0  0  0  0  0  0
  -27.1429  -26.2934   22.8281 C   0  0  0  0  0  0  0  0  0  0  0  0
  -19.3878  -21.5453   24.9676 C   0  0  0  0  0  0  0  0  0  0  0  0
  -19.5423  -20.4766   27.2551 C   0  0  0  0  0  0  0  0  0  0  0  0
  -21.6060  -20.8401   25.9580 C   0  0  0  0  0  0  0  0  0  0  0  0
  -27.6953  -25.1584   23.6989 C   0  0  1  0  0  0  0  0  0  0  0  0
  -30.0928  -23.0898   21.5998 C   0  0  1  0  0  0  0  0  0  0  0  0
  -20.8024  -21.0193   24.6586 C   0  0  2  0  0  0  0  0  0  0  0  0
  -27.9413  -11.8418   19.7175 C   0  0  0  0  0  0  0  0  0  0  0  0
  -32.4869  -22.3416   14.2710 C   0  0  0  0  0  0  0  0  0  0  0  0
  -27.4898  -24.4938   18.0483 C   0  0  0  0  0  0  0  0  0  0  0  0
  -28.3680  -23.9214   15.7747 C   0  0  0  0  0  0  0  0  0  0  0  0
  -29.4462  -25.7346   17.1061 C   0  0  0  0  0  0  0  0  0  0  0  0
  -33.8542  -20.5000   17.3066 C   0  0  0  0  0  0  0  0  0  0  0  0
  -23.5322  -14.0107   20.5441 C   0  0  0  0  0  0  0  0  0  0  0  0
  -27.4976  -16.7823   20.2540 C   0  0  0  0  0  0  0  0  0  1  0  0
  -23.1003  -13.8389   22.0123 C   0  0  0  0  0  0  0  0  0  0  0  0
  -23.4944  -15.0332   22.8882 C   0  0  0  0  0  0  0  0  0  0  0  0
  -23.0161  -14.9057   24.3380 C   0  0  0  0  0  0  0  0  0  0  0  0
  -23.3446  -16.1305   25.1956 C   0  0  0  0  0  0  0  0  0  0  0  0
  -22.8699  -15.9373   26.6398 C   0  0  0  0  0  0  0  0  0  0  0  0
  -23.1935  -17.1360   27.5263 C   0  0  0  0  0  0  0  0  0  0  0  0
  -29.7782  -23.3251   17.7963 C   0  0  1  0  0  0  0  0  0  0  0  0
  -32.7254  -22.0970   15.7529 C   0  0  2  0  0  0  0  0  0  0  0  0
  -28.7705  -24.3493   17.2022 C   0  0  0  0  0  0  0  0  0  0  0  0
  -21.2698  -23.2254   23.6599 N   0  0  0  0  0  0  0  0  0  0  0  0
  -25.5514  -15.3364   20.3883 N   0  0  0  0  0  0  0  0  0  0  0  0
  -21.5234  -21.9056   23.6598 N   0  0  0  0  0  0  0  0  0  0  0  0
  -29.9011  -22.7265   20.1943 N   0  0  0  0  0  0  0  0  0  0  0  0
  -20.8701  -19.9748   26.8930 N   0  0  0  0  0  0  0  0  0  0  0  0
  -22.8053  -20.2286   22.5851 N   0  0  0  0  0  0  0  0  0  0  0  0
  -24.0088  -24.0062   20.4224 N   0  0  0  0  0  0  0  0  0  0  0  0
  -28.8528  -24.5576   23.0715 N   0  0  0  0  0  0  0  0  0  0  0  0
  -31.0122  -23.1877   17.0303 N   0  0  0  0  0  0  0  0  0  0  0  0
  -22.5913  -18.3601   27.0470 N   0  0  0  0  0  0  0  0  0  0  0  0
  -33.5264  -20.8490   15.9003 N   0  3  0  0  0  0  0  0  0  0  0  0
  -24.3291  -21.7379   20.5267 O   0  0  0  0  0  0  0  0  0  0  0  0
  -27.7330  -23.0674   21.6759 O   0  0  0  0  0  0  0  0  0  0  0  0
  -30.7600  -24.7505   19.4183 O   0  0  0  0  0  0  0  0  0  0  0  0
  -30.8088  -20.9133   16.6265 O   0  0  0  0  0  0  0  0  0  0  0  0
  -20.6493  -18.0981   28.2373 O   0  0  0  0  0  0  0  0  0  0  0  0
  -22.1059  -29.1397   21.4528 O   0  0  0  0  0  0  0  0  0  0  0  0
  -28.1802  -16.9475   21.4962 O   0  0  0  0  0  0  0  0  0  1  0  0
  -27.0098  -31.5404   20.6831 F   0  0  0  0  0  0  0  0  0  0  0  0
  -22.9212  -31.2439   23.0497 F   0  0  0  0  0  0  0  0  0  0  0  0
  1  2  1  0  0  0  0
  1  5  2  0  0  0  0
  2  6  2  0  0  0  0
  3  8  2  0  0  0  0
  3 17  1  0  0  0  0
  4  9  1  0  0  0  0
  4 17  2  0  0  0  0
  5 19  1  0  0  0  0
  6 21  1  0  0  0  0
  7 10  2  0  0  0  0
  7 20  1  0  0  0  0
  8 24  1  0  0  0  0
  9 24  2  0  0  0  0
 10 25  1  0  0  0  0
 11 12  2  0  0  0  0
 11 26  1  0  0  0  0
 12 27  1  0  0  0  0
 13 22  1  0  0  0  0
 13 25  2  0  0  0  0
 14 23  1  0  0  0  0
 14 30  2  0  0  0  0
 15 23  2  0  0  0  0
 15 31  1  0  0  0  0
 16 27  2  0  0  0  0
 16 28  1  0  0  0  0
 17 29  1  0  0  0  0
 18 29  1  0  0  0  0
 18 32  2  0  0  0  0
 18 33  1  0  0  0  0
 19 21  2  0  0  0  0
 19 38  1  0  0  0  0
 20 22  2  0  0  0  0
 20 39  1  0  0  0  0
 21 47  1  0  0  0  0
 22 40  1  0  0  0  0
 23 50  1  0  0  0  0
 24 83  1  0  0  0  0
 25 84  1  0  0  0  0
 26 28  2  0  0  0  0
 26 83  1  0  0  0  0
 27 85  1  0  0  0  0
 28 86  1  0  0  0  0
 29 67  2  0  0  0  0
 30 56  1  0  0  0  0
 30 68  1  0  0  0  0
 31 57  1  0  0  0  0
 31 68  2  0  0  0  0
 32 69  1  0  0  0  0
 32 72  1  0  0  0  0
 33 73  1  0  0  0  0
 33 78  2  0  0  0  0
 34 48  1  0  0  0  0
 34 74  1  0  0  0  0
 34 79  2  0  0  0  0
 35 64  1  0  0  0  0
 35 70  1  0  0  0  0
 35 80  2  0  0  0  0
 36 65  1  0  0  0  0
 36 75  1  0  0  0  0
 36 81  2  0  0  0  0
 37 71  1  0  0  0  0
 37 76  1  0  0  0  0
 37 82  2  0  0  0  0
 38 41  1  0  0  0  0
 39 48  1  0  0  0  0
 40 70  1  0  0  0  0
 41 43  1  0  0  0  0
 42 44  1  0  0  0  0
 42 45  1  0  0  0  0
 43 47  1  0  0  0  0
 44 49  1  0  0  0  0
 45 71  1  0  0  0  0
 46 49  1  0  0  0  0
 46 71  1  0  0  0  0
 47 74  1  0  0  0  0
 48 70  1  0  0  0  0
 49 69  1  0  0  0  0
 51 65  1  0  0  0  0
 52 66  1  0  0  0  0
 53 66  1  0  0  0  0
 54 66  1  0  0  0  0
 55 77  1  0  0  0  0
 56 58  1  0  0  0  0
 57 84  1  0  0  0  0
 58 59  1  0  0  0  0
 59 60  1  0  0  0  0
 60 61  1  0  0  0  0
 61 62  1  0  0  0  0
 62 63  1  0  0  0  0
 63 76  1  0  0  0  0
 64 66  1  0  0  0  0
 64 75  1  0  0  0  0
 65 77  1  0  0  0  0
 67 69  1  0  0  0  0
M  CHG  1  77   1
M  ISO  4  37 100  57 101  76 100  84 101
M  END
> <Batch ID>
0036

> <Smiles>
CNC(C)C(=O)NC(C(=O)N1Cc2cc([101O:1][101CH2:1]c3cc(C)cc(CCCCCCC[100NH:0][100C:0](=O)N4CCCC(n5nc(-c6ccc(Oc7ccc(F)cc7F)cc6)c(C(N)=O)c5N)C4)n3)ccc2CC1C(=O)NC1CCCc2ccccc21)C(C)(C)C

> <Shape>
0.182

> <Color>
0.048

> <Negative vol penalty>
0.000

$$$$

  -OEChem-04052316563D

 87 96  0     1  0  0  0  0  0999 V2000
  -27.1288  -31.8129   24.7915 C   0  0  0  0  0  0  0  0  0  0  0  0
  -26.3793  -30.7795   24.2385 C   0  0  0  0  0  0  0  0  0  0  0  0
  -26.0007  -15.6632   22.6734 C   0  0  0  0  0  0  0  0  0  0  0  0
  -24.6238  -16.4824   20.8651 C   0  0  0  0  0  0  0  0  0  0  0  0
  -28.3714  -32.1386   24.2495 C   0  0  0  0  0  0  0  0  0  0  0  0
  -26.8715  -30.0719   23.1425 C   0  0  0  0  0  0  0  0  0  0  0  0
  -26.2660  -25.0678   23.6296 C   0  0  0  0  0  0  0  0  0  0  0  0
  -26.3359  -14.5441   21.9112 C   0  0  0  0  0  0  0  0  0  0  0  0
  -24.9590  -15.3634   20.1029 C   0  0  0  0  0  0  0  0  0  0  0  0
  -24.9942  -24.5532   23.3815 C   0  0  0  0  0  0  0  0  0  0  0  0
  -27.8406  -11.6510   20.3047 C   0  0  0  0  0  0  0  0  0  0  0  0
  -29.1800  -11.2627   20.2771 C   0  0  0  0  0  0  0  0  0  0  0  0
  -25.7035  -23.8799   21.1763 C   0  0  0  0  0  0  0  0  0  0  0  0
  -19.9228  -28.4213   22.2691 C   0  0  0  0  0  0  0  0  0  0  0  0
  -17.9701  -27.4323   23.3353 C   0  0  0  0  0  0  0  0  0  0  0  0
  -29.7830  -13.4091   19.3460 C   0  0  0  0  0  0  0  0  0  0  0  0
  -25.1446  -16.6323   22.1504 C   0  0  0  0  0  0  0  0  0  0  0  0
  -25.4744  -19.0218   22.9807 C   0  0  0  0  0  0  0  0  0  0  0  0
  -28.8834  -31.4283   23.1523 C   0  0  0  0  0  0  0  0  0  0  0  0
  -27.2646  -25.0020   22.6473 C   0  0  0  0  0  0  0  0  0  0  0  0
  -28.1216  -30.3893   22.5844 C   0  0  0  0  0  0  0  0  0  0  0  0
  -26.9878  -24.3921   21.4154 C   0  0  0  0  0  0  0  0  0  0  0  0
  -18.6980  -28.5569   22.9266 C   0  0  0  0  0  0  0  0  0  0  0  0
  -20.4644  -27.1608   21.9962 C   0  0  0  0  0  0  0  0  0  0  0  0
  -18.4992  -26.1581   23.0691 C   0  0  0  0  0  0  0  0  0  0  0  0
  -19.7222  -26.0550   22.4122 C   0  0  0  0  0  0  0  0  0  0  0  0
  -25.8151  -14.3943   20.6259 C   0  0  0  0  0  0  0  0  0  0  0  0
  -24.7120  -23.9617   22.1537 C   0  0  0  0  0  0  0  0  0  0  0  0
  -27.4723  -12.9183   19.8529 C   0  0  0  0  0  0  0  0  0  0  0  0
  -30.1512  -12.1418   19.7978 C   0  0  0  0  0  0  0  0  0  0  0  0
  -28.4435  -13.7973   19.3736 C   0  0  0  0  0  0  0  0  0  0  0  0
  -24.7974  -17.7882   22.9375 C   0  0  0  0  0  0  0  0  0  0  0  0
  -24.7530  -19.7783   23.8716 C   0  0  0  0  0  0  0  0  0  0  0  0
  -18.8835  -24.0651   22.8933 C   0  0  0  0  0  0  0  0  0  0  0  0
  -26.6501  -19.4459   22.2782 C   0  0  0  0  0  0  0  0  0  0  0  0
  -28.9606  -27.1460   21.0255 C   0  0  0  0  0  0  0  0  0  0  0  0
  -30.5096  -24.5155   19.9287 C   0  0  0  0  0  0  0  0  0  0  0  0
  -30.4406  -21.1598   19.3110 C   0  0  0  0  0  0  0  0  0  0  0  0
  -19.0451  -19.6169   25.6729 C   0  0  0  0  0  0  0  0  0  0  0  0
  -30.2105  -31.8478   22.5713 C   0  0  0  0  0  0  0  0  0  0  0  0
  -28.6392  -25.5378   22.9402 C   0  0  0  0  0  0  0  0  0  0  0  0
  -28.0309  -24.2781   20.3348 C   0  0  0  0  0  0  0  0  0  0  0  0
  -30.8271  -30.8033   21.6444 C   0  0  0  0  0  0  0  0  0  0  0  0
  -21.9449  -19.3631   27.7230 C   0  0  0  0  0  0  0  0  0  0  0  0
  -29.7822  -30.2732   20.6676 C   0  0  0  0  0  0  0  0  0  0  0  0
  -23.0659  -19.0420   26.7329 C   0  0  0  0  0  0  0  0  0  0  0  0
  -20.6337  -18.6861   27.3300 C   0  0  0  0  0  0  0  0  0  0  0  0
  -21.3082  -18.6337   24.9602 C   0  0  0  0  0  0  0  0  0  0  0  0
  -28.6326  -29.5822   21.4107 C   0  0  1  0  0  0  0  0  0  0  0  0
  -29.4292  -25.8773   21.6801 C   0  0  1  0  0  0  0  0  0  0  0  0
  -22.6362  -19.3394   25.2837 C   0  0  2  0  0  0  0  0  0  0  0  0
  -18.1548  -29.9207   23.1993 C   0  0  0  0  0  0  0  0  0  0  0  0
  -21.7766  -27.0655   21.2932 C   0  0  0  0  0  0  0  0  0  0  0  0
  -31.2999  -18.8942   18.6581 C   0  0  0  0  0  0  0  0  0  0  0  0
  -29.9494  -25.5180   17.1018 C   0  0  0  0  0  0  0  0  0  0  0  0
  -30.4990  -23.2269   16.2552 C   0  0  0  0  0  0  0  0  0  0  0  0
  -32.2385  -24.5683   17.4374 C   0  0  0  0  0  0  0  0  0  0  0  0
  -31.3331  -20.5748   22.0714 C   0  0  0  0  0  0  0  0  0  0  0  0
  -18.7952  -22.5920   22.9626 C   0  0  0  0  0  0  0  0  0  0  0  0
  -17.6687  -22.0484   23.8737 C   0  0  0  0  0  0  0  0  0  0  0  0
  -21.1369  -24.0334   21.6792 C   0  0  0  0  0  0  0  0  0  0  0  0
  -17.5671  -20.5248   23.8979 C   0  0  0  0  0  0  0  0  0  0  0  0
  -22.3737  -24.0881   22.5692 C   0  0  0  0  0  0  0  0  0  1  0  0
  -30.3265  -23.5762   18.7611 C   0  0  1  0  0  0  0  0  0  0  0  0
  -31.4329  -20.0562   19.6301 C   0  0  2  0  0  0  0  0  0  0  0  0
  -30.7329  -24.2261   17.4083 C   0  0  0  0  0  0  0  0  0  0  0  0
  -17.9936  -24.9119   23.3600 N   0  0  0  0  0  0  0  0  0  0  0  0
  -23.7283  -17.7585   23.7375 N   0  0  0  0  0  0  0  0  0  0  0  0
  -19.9432  -24.7052   22.3133 N   0  0  0  0  0  0  0  0  0  0  0  0
  -23.7280  -18.9827   24.2918 N   0  0  0  0  0  0  0  0  0  0  0  0
  -29.3579  -24.8226   20.6669 N   0  0  0  0  0  0  0  0  0  0  0  0
  -20.2821  -19.0097   25.9453 N   0  0  0  0  0  0  0  0  0  0  0  0
  -24.9019  -21.0397   24.3288 N   0  0  0  0  0  0  0  0  0  0  0  0
  -27.2664  -18.5431   21.4009 N   0  0  0  0  0  0  0  0  0  0  0  0
  -29.0317  -28.2593   21.8410 N   0  0  0  0  0  0  0  0  0  0  0  0
  -31.0715  -22.3658   19.0902 N   0  0  0  0  0  0  0  0  0  0  0  0
  -18.7935  -19.8957   24.3351 N   0  0  0  0  0  0  0  0  0  0  0  0
  -31.2093  -19.5419   21.0109 N   0  3  0  0  0  0  0  0  0  0  0  0
  -27.1491  -20.5858   22.4365 O   0  0  0  0  0  0  0  0  0  0  0  0
  -28.5654  -27.1173   19.8660 O   0  0  0  0  0  0  0  0  0  0  0  0
  -31.6344  -24.9547   20.1809 O   0  0  0  0  0  0  0  0  0  0  0  0
  -29.2274  -20.9701   19.2588 O   0  0  0  0  0  0  0  0  0  0  0  0
  -18.2278  -19.8950   26.5570 O   0  0  0  0  0  0  0  0  0  0  0  0
  -26.1422  -13.3026   19.8818 O   0  0  0  0  0  0  0  0  0  0  0  0
  -23.4712  -23.4592   21.9087 O   0  0  0  0  0  0  0  0  0  1  0  0
  -31.4376  -11.7694   19.7727 F   0  0  0  0  0  0  0  0  0  0  0  0
  -28.0959  -15.0165   18.9394 F   0  0  0  0  0  0  0  0  0  0  0  0
  1  2  1  0  0  0  0
  1  5  2  0  0  0  0
  2  6  2  0  0  0  0
  3  8  2  0  0  0  0
  3 17  1  0  0  0  0
  4  9  1  0  0  0  0
  4 17  2  0  0  0  0
  5 19  1  0  0  0  0
  6 21  1  0  0  0  0
  7 10  2  0  0  0  0
  7 20  1  0  0  0  0
  8 27  1  0  0  0  0
  9 27  2  0  0  0  0
 10 28  1  0  0  0  0
 11 12  2  0  0  0  0
 11 29  1  0  0  0  0
 12 30  1  0  0  0  0
 13 22  1  0  0  0  0
 13 28  2  0  0  0  0
 14 23  1  0  0  0  0
 14 24  2  0  0  0  0
 15 23  2  0  0  0  0
 15 25  1  0  0  0  0
 16 30  2  0  0  0  0
 16 31  1  0  0  0  0
 17 32  1  0  0  0  0
 18 32  1  0  0  0  0
 18 33  2  0  0  0  0
 18 35  1  0  0  0  0
 19 21  2  0  0  0  0
 19 40  1  0  0  0  0
 20 22  2  0  0  0  0
 20 41  1  0  0  0  0
 21 49  1  0  0  0  0
 22 42  1  0  0  0  0
 23 52  1  0  0  0  0
 24 26  1  0  0  0  0
 24 53  1  0  0  0  0
 25 26  2  0  0  0  0
 25 67  1  0  0  0  0
 26 69  1  0  0  0  0
 27 84  1  0  0  0  0
 28 85  1  0  0  0  0
 29 31  2  0  0  0  0
 29 84  1  0  0  0  0
 30 86  1  0  0  0  0
 31 87  1  0  0  0  0
 32 68  2  0  0  0  0
 33 70  1  0  0  0  0
 33 73  1  0  0  0  0
 34 59  1  0  0  0  0
 34 67  2  0  0  0  0
 34 69  1  0  0  0  0
 35 74  1  0  0  0  0
 35 79  2  0  0  0  0
 36 50  1  0  0  0  0
 36 75  1  0  0  0  0
 36 80  2  0  0  0  0
 37 64  1  0  0  0  0
 37 71  1  0  0  0  0
 37 81  2  0  0  0  0
 38 65  1  0  0  0  0
 38 76  1  0  0  0  0
 38 82  2  0  0  0  0
 39 72  1  0  0  0  0
 39 77  1  0  0  0  0
 39 83  2  0  0  0  0
 40 43  1  0  0  0  0
 41 50  1  0  0  0  0
 42 71  1  0  0  0  0
 43 45  1  0  0  0  0
 44 46  1  0  0  0  0
 44 47  1  0  0  0  0
 45 49  1  0  0  0  0
 46 51  1  0  0  0  0
 47 72  1  0  0  0  0
 48 51  1  0  0  0  0
 48 72  1  0  0  0  0
 49 75  1  0  0  0  0
 50 71  1  0  0  0  0
 51 70  1  0  0  0  0
 54 65  1  0  0  0  0
 55 66  1  0  0  0  0
 56 66  1  0  0  0  0
 57 66  1  0  0  0  0
 58 78  1  0  0  0  0
 59 60  1  0  0  0  0
 60 62  1  0  0  0  0
 61 63  1  0  0  0  0
 61 69  1  0  0  0  0
 62 77  1  0  0  0  0
 63 85  1  0  0  0  0
 64 66  1  0  0  0  0
 64 76  1  0  0  0  0
 65 78  1  0  0  0  0
 68 70  1  0  0  0  0
M  CHG  1  78   1
M  ISO  4  39 100  63 101  77 100  85 101
M  END
> <Batch ID>
0036

> <Smiles>
CNC(C)C(=O)NC(C(=O)N1Cc2cc([101O:1][101CH2:1]Cn3c(CCC[100NH:0][100C:0](=O)N4CCCC(n5nc(-c6ccc(Oc7ccc(F)cc7F)cc6)c(C(N)=O)c5N)C4)nc4cc(C)cc(C)c43)ccc2CC1C(=O)NC1CCCc2ccccc21)C(C)(C)C

> <Shape>
0.207

> <Color>
0.062

> <Negative vol penalty>
0.000

$$$$

  -OEChem-04052316563D

 87 95  0     1  0  0  0  0  0999 V2000
  -32.5310  -27.1969   14.7483 C   0  0  0  0  0  0  0  0  0  0  0  0
  -31.4834  -26.3279   15.0361 C   0  0  0  0  0  0  0  0  0  0  0  0
  -22.4633  -15.8575   21.8978 C   0  0  0  0  0  0  0  0  0  0  0  0
  -22.6919  -16.1488   19.5103 C   0  0  0  0  0  0  0  0  0  0  0  0
  -33.0249  -28.0438   15.7396 C   0  0  0  0  0  0  0  0  0  0  0  0
  -30.9298  -26.3046   16.3157 C   0  0  0  0  0  0  0  0  0  0  0  0
  -25.0628  -25.3226   17.7716 C   0  0  0  0  0  0  0  0  0  0  0  0
  -27.1445  -19.4398   17.1694 C   0  0  0  0  0  0  0  0  0  0  0  0
  -21.4274  -16.7915   21.9126 C   0  0  0  0  0  0  0  0  0  0  0  0
  -21.6560  -17.0828   19.5251 C   0  0  0  0  0  0  0  0  0  0  0  0
  -24.3814  -24.1860   18.2047 C   0  0  0  0  0  0  0  0  0  0  0  0
  -26.3150  -19.4869   18.2898 C   0  0  0  0  0  0  0  0  0  0  0  0
  -18.2790  -17.0527   19.6491 C   0  0  0  0  0  0  0  0  0  0  0  0
  -17.3016  -16.9500   18.6592 C   0  0  0  0  0  0  0  0  0  0  0  0
  -24.6384  -24.9107   20.4912 C   0  0  0  0  0  0  0  0  0  0  0  0
  -27.8017  -21.0866   19.3232 C   0  0  0  0  0  0  0  0  0  0  0  0
  -17.8511  -19.1720   17.8861 C   0  0  0  0  0  0  0  0  0  0  0  0
  -23.0956  -15.5362   20.6967 C   0  0  0  0  0  0  0  0  0  0  0  0
  -24.0541  -13.1803   20.5001 C   0  0  0  0  0  0  0  0  0  0  0  0
  -32.4707  -28.0377   17.0293 C   0  0  0  0  0  0  0  0  0  0  0  0
  -25.5474  -26.2579   18.6972 C   0  0  0  0  0  0  0  0  0  0  0  0
  -31.4177  -27.1513   17.3255 C   0  0  0  0  0  0  0  0  0  0  0  0
  -25.3234  -26.0597   20.0671 C   0  0  0  0  0  0  0  0  0  0  0  0
  -28.3027  -20.2160   17.1259 C   0  0  0  0  0  0  0  0  0  0  0  0
  -28.6313  -21.0394   18.2028 C   0  0  0  0  0  0  0  0  0  0  0  0
  -21.0238  -17.4041   20.7263 C   0  0  0  0  0  0  0  0  0  0  0  0
  -24.1716  -23.9785   19.5649 C   0  0  0  0  0  0  0  0  0  0  0  0
  -26.6436  -20.3103   19.3667 C   0  0  0  0  0  0  0  0  0  0  0  0
  -19.0424  -18.2152   19.7575 C   0  0  0  0  0  0  0  0  0  0  0  0
  -17.0877  -18.0096   17.7777 C   0  0  0  0  0  0  0  0  0  0  0  0
  -18.8284  -19.2748   18.8760 C   0  0  0  0  0  0  0  0  0  0  0  0
  -24.1661  -14.5719   20.6808 C   0  0  0  0  0  0  0  0  0  0  0  0
  -25.3465  -12.7202   20.5669 C   0  0  0  0  0  0  0  0  0  0  0  0
  -22.8862  -12.3754   20.2905 C   0  0  0  0  0  0  0  0  0  0  0  0
  -28.4273  -27.3471   19.4870 C   0  0  0  0  0  0  0  0  0  0  0  0
  -26.7188  -29.3828   21.3468 C   0  0  0  0  0  0  0  0  0  0  0  0
  -23.8213  -30.0299   23.0299 C   0  0  0  0  0  0  0  0  0  0  0  0
  -30.6499  -15.2935   19.5164 C   0  0  0  0  0  0  0  0  0  0  0  0
  -33.0695  -28.9379   18.0810 C   0  0  0  0  0  0  0  0  0  0  0  0
  -26.2571  -27.4922   18.2122 C   0  0  0  0  0  0  0  0  0  0  0  0
  -25.8058  -27.0438   21.1001 C   0  0  0  0  0  0  0  0  0  0  0  0
  -32.1789  -29.1176   19.3077 C   0  0  0  0  0  0  0  0  0  0  0  0
  -29.5861  -13.7376   22.5371 C   0  0  0  0  0  0  0  0  0  0  0  0
  -31.6395  -27.7704   19.7777 C   0  0  0  0  0  0  0  0  0  0  0  0
  -28.0663  -13.6494   22.3876 C   0  0  0  0  0  0  0  0  0  0  0  0
  -30.1398  -15.0226   21.9254 C   0  0  0  0  0  0  0  0  0  0  0  0
  -28.2316  -15.1697   20.3726 C   0  0  0  0  0  0  0  0  0  0  0  0
  -30.7744  -27.1143   18.6948 C   0  0  1  0  0  0  0  0  0  0  0  0
  -27.1566  -28.1198   19.2726 C   0  0  1  0  0  0  0  0  0  0  0  0
  -27.6333  -13.8646   20.9249 C   0  0  2  0  0  0  0  0  0  0  0  0
  -29.8665  -21.8784   18.1791 C   0  0  0  0  0  0  0  0  0  0  0  0
  -22.7344  -31.7588   24.4884 C   0  0  0  0  0  0  0  0  0  0  0  0
  -28.4276  -28.4663   23.7026 C   0  0  0  0  0  0  0  0  0  0  0  0
  -26.7226  -29.4668   25.2388 C   0  0  0  0  0  0  0  0  0  0  0  0
  -27.9671  -30.9236   23.6415 C   0  0  0  0  0  0  0  0  0  0  0  0
  -21.6328  -30.4626   21.0851 C   0  0  0  0  0  0  0  0  0  0  0  0
  -29.1750  -20.1487   15.9157 C   0  0  0  0  0  0  0  0  0  0  0  0
  -30.4277  -19.2925   16.1510 C   0  0  0  0  0  0  0  0  0  0  0  0
  -30.0685  -17.8423   16.4817 C   0  0  0  0  0  0  0  0  0  0  0  0
  -31.3235  -17.0075   16.7529 C   0  0  0  0  0  0  0  0  0  0  0  0
  -23.6269  -20.8516   21.3077 C   0  0  0  0  0  0  0  0  0  0  0  0
  -31.0008  -15.5517   17.0732 C   0  0  0  0  0  0  0  0  0  0  0  0
  -23.8597  -22.3539   21.2735 C   0  0  0  0  0  0  0  0  0  1  0  0
  -24.4435  -20.1252   20.2505 C   0  0  0  0  0  0  0  0  0  0  0  0
  -26.1926  -29.3524   22.7615 C   0  0  1  0  0  0  0  0  0  0  0  0
  -22.9300  -31.2583   23.0657 C   0  0  2  0  0  0  0  0  0  0  0  0
  -27.3200  -29.5326   23.8170 C   0  0  0  0  0  0  0  0  0  0  0  0
  -25.4299  -14.9698   20.8499 N   0  0  0  0  0  0  0  0  0  0  0  0
  -26.1238  -13.8213   20.7758 N   0  0  0  0  0  0  0  0  0  0  0  0
  -26.4999  -28.2319   20.5765 N   0  0  0  0  0  0  0  0  0  0  0  0
  -29.6937  -15.1659   20.5374 N   0  0  0  0  0  0  0  0  0  0  0  0
  -25.8825  -11.4853   20.4668 N   0  0  0  0  0  0  0  0  0  0  0  0
  -21.6367  -13.0091   20.2489 N   0  0  0  0  0  0  0  0  0  0  0  0
  -29.4636  -27.7264   18.6554 N   0  0  0  0  0  0  0  0  0  0  0  0
  -25.1438  -30.3642   22.8288 N   0  0  0  0  0  0  0  0  0  0  0  0
  -30.1423  -15.4182   18.2290 N   0  0  0  0  0  0  0  0  0  0  0  0
  -21.5918  -30.9442   22.4898 N   0  3  0  0  0  0  0  0  0  0  0  0
  -22.9472  -11.1292   20.1608 O   0  0  0  0  0  0  0  0  0  0  0  0
  -28.4651  -26.4725   20.3445 O   0  0  0  0  0  0  0  0  0  0  0  0
  -27.2962  -30.3933   20.9379 O   0  0  0  0  0  0  0  0  0  0  0  0
  -23.3882  -28.8883   23.1703 O   0  0  0  0  0  0  0  0  0  0  0  0
  -31.8660  -15.2907   19.7354 O   0  0  0  0  0  0  0  0  0  0  0  0
  -20.0128  -18.3154   20.7403 O   0  0  0  0  0  0  0  0  0  0  0  0
  -23.5074  -22.8696   19.9904 O   0  0  0  0  0  0  0  0  0  1  0  0
  -25.8288  -20.3564   20.4679 O   0  0  0  0  0  0  0  0  0  0  0  0
  -16.1502  -17.9102   16.8262 F   0  0  0  0  0  0  0  0  0  0  0  0
  -19.5595  -20.3936   18.9745 F   0  0  0  0  0  0  0  0  0  0  0  0
  1  2  1  0  0  0  0
  1  5  2  0  0  0  0
  2  6  2  0  0  0  0
  3  9  2  0  0  0  0
  3 18  1  0  0  0  0
  4 10  1  0  0  0  0
  4 18  2  0  0  0  0
  5 20  1  0  0  0  0
  6 22  1  0  0  0  0
  7 11  2  0  0  0  0
  7 21  1  0  0  0  0
  8 12  2  0  0  0  0
  8 24  1  0  0  0  0
  9 26  1  0  0  0  0
 10 26  2  0  0  0  0
 11 27  1  0  0  0  0
 12 28  1  0  0  0  0
 13 14  2  0  0  0  0
 13 29  1  0  0  0  0
 14 30  1  0  0  0  0
 15 23  1  0  0  0  0
 15 27  2  0  0  0  0
 16 25  1  0  0  0  0
 16 28  2  0  0  0  0
 17 30  2  0  0  0  0
 17 31  1  0  0  0  0
 18 32  1  0  0  0  0
 19 32  1  0  0  0  0
 19 33  2  0  0  0  0
 19 34  1  0  0  0  0
 20 22  2  0  0  0  0
 20 39  1  0  0  0  0
 21 23  2  0  0  0  0
 21 40  1  0  0  0  0
 22 48  1  0  0  0  0
 23 41  1  0  0  0  0
 24 25  2  0  0  0  0
 24 57  1  0  0  0  0
 25 51  1  0  0  0  0
 26 83  1  0  0  0  0
 27 84  1  0  0  0  0
 28 85  1  0  0  0  0
 29 31  2  0  0  0  0
 29 83  1  0  0  0  0
 30 86  1  0  0  0  0
 31 87  1  0  0  0  0
 32 68  2  0  0  0  0
 33 69  1  0  0  0  0
 33 72  1  0  0  0  0
 34 73  1  0  0  0  0
 34 78  2  0  0  0  0
 35 49  1  0  0  0  0
 35 74  1  0  0  0  0
 35 79  2  0  0  0  0
 36 65  1  0  0  0  0
 36 70  1  0  0  0  0
 36 80  2  0  0  0  0
 37 66  1  0  0  0  0
 37 75  1  0  0  0  0
 37 81  2  0  0  0  0
 38 71  1  0  0  0  0
 38 76  1  0  0  0  0
 38 82  2  0  0  0  0
 39 42  1  0  0  0  0
 40 49  1  0  0  0  0
 41 70  1  0  0  0  0
 42 44  1  0  0  0  0
 43 45  1  0  0  0  0
 43 46  1  0  0  0  0
 44 48  1  0  0  0  0
 45 50  1  0  0  0  0
 46 71  1  0  0  0  0
 47 50  1  0  0  0  0
 47 71  1  0  0  0  0
 48 74  1  0  0  0  0
 49 70  1  0  0  0  0
 50 69  1  0  0  0  0
 52 66  1  0  0  0  0
 53 67  1  0  0  0  0
 54 67  1  0  0  0  0
 55 67  1  0  0  0  0
 56 77  1  0  0  0  0
 57 58  1  0  0  0  0
 58 59  1  0  0  0  0
 59 60  1  0  0  0  0
 60 62  1  0  0  0  0
 61 63  1  0  0  0  0
 61 64  1  0  0  0  0
 62 76  1  0  0  0  0
 63 84  1  0  0  0  0
 64 85  1  0  0  0  0
 65 67  1  0  0  0  0
 65 75  1  0  0  0  0
 66 77  1  0  0  0  0
 68 69  1  0  0  0  0
M  CHG  1  77   1
M  ISO  4  38 100  63 101  76 100  84 101
M  END
> <Batch ID>
0036

> <Smiles>
CNC(C)C(=O)NC(C(=O)N1Cc2cc([101O:1][101CH2:1]CCOc3ccc(CCCCC[100NH:0][100C:0](=O)N4CCCC(n5nc(-c6ccc(Oc7ccc(F)cc7F)cc6)c(C(N)=O)c5N)C4)c(C)c3)ccc2CC1C(=O)NC1CCCc2ccccc21)C(C)(C)C

> <Shape>
0.188

> <Color>
0.093

> <Negative vol penalty>
0.000

$$$$

  -OEChem-04052316562D

  0  0  0     0  0  0  0  0  0999 V2000
M  END
$$$$

  -OEChem-04052316563D

 87 95  0     1  0  0  0  0  0999 V2000
  -18.8954  -24.7578   20.7684 C   0  0  0  0  0  0  0  0  0  0  0  0
  -19.9086  -25.6337   21.1451 C   0  0  0  0  0  0  0  0  0  0  0  0
  -26.8621  -13.5404   21.6427 C   0  0  0  0  0  0  0  0  0  0  0  0
  -24.5178  -14.0032   21.2859 C   0  0  0  0  0  0  0  0  0  0  0  0
  -19.1587  -23.3926   20.6645 C   0  0  0  0  0  0  0  0  0  0  0  0
  -21.1853  -25.1446   21.4193 C   0  0  0  0  0  0  0  0  0  0  0  0
  -24.8348  -27.9474   19.3048 C   0  0  0  0  0  0  0  0  0  0  0  0
  -26.6863  -12.2550   21.1305 C   0  0  0  0  0  0  0  0  0  0  0  0
  -24.3420  -12.7177   20.7737 C   0  0  0  0  0  0  0  0  0  0  0  0
  -25.1654  -29.1448   19.9378 C   0  0  0  0  0  0  0  0  0  0  0  0
  -23.1996   -9.4367   19.7061 C   0  0  0  0  0  0  0  0  0  0  0  0
  -22.0893   -8.7123   20.1395 C   0  0  0  0  0  0  0  0  0  0  0  0
  -27.0800  -28.0770   20.9444 C   0  0  0  0  0  0  0  0  0  0  0  0
  -22.8855   -8.8540   22.4162 C   0  0  0  0  0  0  0  0  0  0  0  0
  -28.8143  -32.1762   25.1740 C   0  0  0  0  0  0  0  0  0  0  0  0
  -25.7778  -14.4145   21.7204 C   0  0  0  0  0  0  0  0  0  0  0  0
  -26.2972  -16.9050   21.5321 C   0  0  0  0  0  0  0  0  0  0  0  0
  -20.4417  -22.8877   20.9282 C   0  0  0  0  0  0  0  0  0  0  0  0
  -25.6194  -26.8009   19.4959 C   0  0  0  0  0  0  0  0  0  0  0  0
  -21.4656  -23.7712   21.3201 C   0  0  0  0  0  0  0  0  0  0  0  0
  -26.7586  -26.8669   20.3108 C   0  0  0  0  0  0  0  0  0  0  0  0
  -27.6827  -31.4871   24.8120 C   0  0  0  0  0  0  0  0  0  0  0  0
  -25.4263  -11.8436   20.6960 C   0  0  0  0  0  0  0  0  0  0  0  0
  -26.2865  -29.2090   20.7600 C   0  0  0  0  0  0  0  0  0  0  0  0
  -24.1530   -9.8697   20.6277 C   0  0  0  0  0  0  0  0  0  0  0  0
  -21.9321   -8.4210   21.4946 C   0  0  0  0  0  0  0  0  0  0  0  0
  -23.9959   -9.5784   21.9827 C   0  0  0  0  0  0  0  0  0  0  0  0
  -25.9586  -15.7423   22.2500 C   0  0  0  0  0  0  0  0  0  0  0  0
  -27.3333  -30.7550   25.9625 C   0  0  0  0  0  0  0  0  0  0  0  0
  -26.3467  -17.8940   22.4839 C   0  0  0  0  0  0  0  0  0  0  0  0
  -26.5447  -17.0758   20.1302 C   0  0  0  0  0  0  0  0  0  0  0  0
  -25.1081  -23.9105   20.7157 C   0  0  0  0  0  0  0  0  0  0  0  0
  -28.1209  -23.3547   19.6497 C   0  0  0  0  0  0  0  0  0  0  0  0
  -31.1617  -24.6264   18.7645 C   0  0  0  0  0  0  0  0  0  0  0  0
  -24.2068  -20.4553   26.9567 C   0  0  0  0  0  0  0  0  0  0  0  0
  -20.6663  -21.3985   20.8485 C   0  0  0  0  0  0  0  0  0  0  0  0
  -25.2644  -25.5240   18.7848 C   0  0  0  0  0  0  0  0  0  0  0  0
  -27.6454  -25.6699   20.5325 C   0  0  0  0  0  0  0  0  0  0  0  0
  -22.1407  -21.0070   20.7925 C   0  0  0  0  0  0  0  0  0  0  0  0
  -26.2681  -17.6102   27.5336 C   0  0  0  0  0  0  0  0  0  0  0  0
  -22.9360  -21.7697   21.8474 C   0  0  0  0  0  0  0  0  0  0  0  0
  -26.3939  -16.9636   26.1530 C   0  0  0  0  0  0  0  0  0  0  0  0
  -24.8801  -18.2082   27.7525 C   0  0  0  0  0  0  0  0  0  0  0  0
  -24.5655  -18.5037   25.3261 C   0  0  0  0  0  0  0  0  0  0  0  0
  -22.8697  -23.2819   21.6017 C   0  0  1  0  0  0  0  0  0  0  0  0
  -25.8428  -24.2838   19.4592 C   0  0  1  0  0  0  0  0  0  0  0  0
  -25.9657  -17.9359   25.0374 C   0  0  2  0  0  0  0  0  0  0  0  0
  -29.7136  -33.3598   28.2808 C   0  0  0  0  0  0  0  0  0  0  0  0
  -33.4362  -23.9225   17.9718 C   0  0  0  0  0  0  0  0  0  0  0  0
  -28.8130  -22.4220   22.4712 C   0  0  0  0  0  0  0  0  0  0  0  0
  -31.2346  -22.6444   21.8758 C   0  0  0  0  0  0  0  0  0  0  0  0
  -29.7920  -21.0262   20.6416 C   0  0  0  0  0  0  0  0  0  0  0  0
  -30.8881  -26.1624   16.2496 C   0  0  0  0  0  0  0  0  0  0  0  0
  -26.9812  -31.5168   23.4758 C   0  0  0  0  0  0  0  0  0  0  0  0
  -26.1932  -29.8383   26.1379 C   0  0  0  0  0  0  0  0  0  0  0  0
  -26.5448  -28.3339   26.0425 C   0  0  0  0  0  0  0  0  0  0  0  0
  -25.3101  -27.4352   26.1722 C   0  0  0  0  0  0  0  0  0  0  0  0
  -25.6267  -25.9443   26.0173 C   0  0  0  0  0  0  0  0  0  0  0  0
  -24.3848  -25.0509   26.0731 C   0  0  0  0  0  0  0  0  0  0  0  0
  -24.7619  -23.5714   25.9419 C   0  0  0  0  0  0  0  0  0  0  0  0
  -30.1560  -32.2998   27.2868 C   0  0  0  0  0  0  0  0  0  0  0  0
  -23.5470  -22.6510   26.0064 C   0  0  0  0  0  0  0  0  0  0  0  0
  -27.2817  -30.2804   22.6355 C   0  0  0  0  0  0  0  0  0  1  0  0
  -29.5057  -23.5046   20.2320 C   0  0  1  0  0  0  0  0  0  0  0  0
  -32.0453  -24.3755   17.5559 C   0  0  2  0  0  0  0  0  0  0  0  0
  -29.8187  -22.4215   21.3027 C   0  0  0  0  0  0  0  0  0  0  0  0
  -25.8041  -15.9700   23.5570 N   0  0  0  0  0  0  0  0  0  0  0  0
  -28.1748  -30.9597   26.9793 N   0  0  0  0  0  0  0  0  0  0  0  0
  -29.0643  -31.8283   26.4689 N   0  0  0  0  0  0  0  0  0  0  0  0
  -26.0468  -17.2871   23.6679 N   0  0  0  0  0  0  0  0  0  0  0  0
  -27.2530  -24.4425   19.8203 N   0  0  0  0  0  0  0  0  0  0  0  0
  -24.5353  -19.1221   26.6608 N   0  0  0  0  0  0  0  0  0  0  0  0
  -26.6171  -19.2148   22.4151 N   0  0  0  0  0  0  0  0  0  0  0  0
  -26.4515  -15.9550   19.2939 N   0  0  0  0  0  0  0  0  0  0  0  0
  -23.7625  -23.6590   20.5270 N   0  0  0  0  0  0  0  0  0  0  0  0
  -30.4261  -23.5095   19.1001 N   0  0  0  0  0  0  0  0  0  0  0  0
  -23.8988  -21.2558   25.8634 N   0  0  0  0  0  0  0  0  0  0  0  0
  -32.1788  -25.6186   16.7448 N   0  3  0  0  0  0  0  0  0  0  0  0
  -26.8558  -18.1861   19.6364 O   0  0  0  0  0  0  0  0  0  0  0  0
  -25.7173  -23.8535   21.7774 O   0  0  0  0  0  0  0  0  0  0  0  0
  -27.8228  -22.3138   19.0588 O   0  0  0  0  0  0  0  0  0  0  0  0
  -31.1301  -25.7042   19.3543 O   0  0  0  0  0  0  0  0  0  0  0  0
  -24.1943  -20.9008   28.1092 O   0  0  0  0  0  0  0  0  0  0  0  0
  -25.2544  -10.5894   20.1959 O   0  0  0  0  0  0  0  0  0  0  0  0
  -26.6111  -30.3763   21.3795 O   0  0  0  0  0  0  0  0  0  1  0  0
  -20.8650   -7.7267   21.9109 F   0  0  0  0  0  0  0  0  0  0  0  0
  -24.9079   -9.9927   22.8729 F   0  0  0  0  0  0  0  0  0  0  0  0
  1  2  1  0  0  0  0
  1  5  2  0  0  0  0
  2  6  2  0  0  0  0
  3  8  2  0  0  0  0
  3 16  1  0  0  0  0
  4  9  1  0  0  0  0
  4 16  2  0  0  0  0
  5 18  1  0  0  0  0
  6 20  1  0  0  0  0
  7 10  2  0  0  0  0
  7 19  1  0  0  0  0
  8 23  1  0  0  0  0
  9 23  2  0  0  0  0
 10 24  1  0  0  0  0
 11 12  2  0  0  0  0
 11 25  1  0  0  0  0
 12 26  1  0  0  0  0
 13 21  1  0  0  0  0
 13 24  2  0  0  0  0
 14 26  2  0  0  0  0
 14 27  1  0  0  0  0
 15 22  2  0  0  0  0
 15 69  1  0  0  0  0
 16 28  1  0  0  0  0
 17 28  1  0  0  0  0
 17 30  2  0  0  0  0
 17 31  1  0  0  0  0
 18 20  2  0  0  0  0
 18 36  1  0  0  0  0
 19 21  2  0  0  0  0
 19 37  1  0  0  0  0
 20 45  1  0  0  0  0
 21 38  1  0  0  0  0
 22 29  1  0  0  0  0
 22 54  1  0  0  0  0
 23 84  1  0  0  0  0
 24 85  1  0  0  0  0
 25 27  2  0  0  0  0
 25 84  1  0  0  0  0
 26 86  1  0  0  0  0
 27 87  1  0  0  0  0
 28 67  2  0  0  0  0
 29 55  1  0  0  0  0
 29 68  2  0  0  0  0
 30 70  1  0  0  0  0
 30 73  1  0  0  0  0
 31 74  1  0  0  0  0
 31 79  2  0  0  0  0
 32 46  1  0  0  0  0
 32 75  1  0  0  0  0
 32 80  2  0  0  0  0
 33 64  1  0  0  0  0
 33 71  1  0  0  0  0
 33 81  2  0  0  0  0
 34 65  1  0  0  0  0
 34 76  1  0  0  0  0
 34 82  2  0  0  0  0
 35 72  1  0  0  0  0
 35 77  1  0  0  0  0
 35 83  2  0  0  0  0
 36 39  1  0  0  0  0
 37 46  1  0  0  0  0
 38 71  1  0  0  0  0
 39 41  1  0  0  0  0
 40 42  1  0  0  0  0
 40 43  1  0  0  0  0
 41 45  1  0  0  0  0
 42 47  1  0  0  0  0
 43 72  1  0  0  0  0
 44 47  1  0  0  0  0
 44 72  1  0  0  0  0
 45 75  1  0  0  0  0
 46 71  1  0  0  0  0
 47 70  1  0  0  0  0
 48 61  1  0  0  0  0
 49 65  1  0  0  0  0
 50 66  1  0  0  0  0
 51 66  1  0  0  0  0
 52 66  1  0  0  0  0
 53 78  1  0  0  0  0
 54 63  1  0  0  0  0
 55 56  1  0  0  0  0
 56 57  1  0  0  0  0
 57 58  1  0  0  0  0
 58 59  1  0  0  0  0
 59 60  1  0  0  0  0
 60 62  1  0  0  0  0
 61 69  1  0  0  0  0
 62 77  1  0  0  0  0
 63 85  1  0  0  0  0
 64 66  1  0  0  0  0
 64 76  1  0  0  0  0
 65 78  1  0  0  0  0
 67 70  1  0  0  0  0
 68 69  1  0  0  0  0
M  CHG  1  78   1
M  ISO  4  35 100  63 101  77 100  85 101
M  END
> <Batch ID>
0036

> <Smiles>
CCn1cc(C[101CH2:1][101O:1]c2ccc3c(c2)CN(C(=O)C(NC(=O)C(C)NC)C(C)(C)C)C(C(=O)NC2CCCc4ccccc42)C3)c(CCCCCCC[100NH:0][100C:0](=O)N2CCCC(n3nc(-c4ccc(Oc5ccc(F)cc5F)cc4)c(C(N)=O)c3N)C2)n1

> <Shape>
0.208

> <Color>
0.066

> <Negative vol penalty>
0.000

$$$$

  -OEChem-04052316563D

 84 92  0     1  0  0  0  0  0999 V2000
  -17.2125  -29.8600   24.2640 C   0  0  0  0  0  0  0  0  0  0  0  0
  -18.5749  -30.1104   24.3934 C   0  0  0  0  0  0  0  0  0  0  0  0
  -22.4451  -15.6754   22.6161 C   0  0  0  0  0  0  0  0  0  0  0  0
  -24.1974  -14.8841   21.1530 C   0  0  0  0  0  0  0  0  0  0  0  0
  -16.7733  -28.7744   23.5074 C   0  0  0  0  0  0  0  0  0  0  0  0
  -19.4988  -29.2746   23.7671 C   0  0  0  0  0  0  0  0  0  0  0  0
  -25.9455  -29.4247   20.6472 C   0  0  0  0  0  0  0  0  0  0  0  0
  -21.7115  -14.5161   22.3644 C   0  0  0  0  0  0  0  0  0  0  0  0
  -23.4637  -13.7248   20.9013 C   0  0  0  0  0  0  0  0  0  0  0  0
  -27.1834  -28.7855   20.7013 C   0  0  0  0  0  0  0  0  0  0  0  0
  -22.2143  -10.3929   20.1557 C   0  0  0  0  0  0  0  0  0  0  0  0
  -22.8940   -9.1753   20.1854 C   0  0  0  0  0  0  0  0  0  0  0  0
  -26.3065  -26.9865   19.3545 C   0  0  0  0  0  0  0  0  0  0  0  0
  -31.5243  -22.9522   18.4123 C   0  0  0  0  0  0  0  0  0  0  0  0
  -29.4278  -23.3200   17.2694 C   0  0  0  0  0  0  0  0  0  0  0  0
  -23.5071   -9.5735   22.4881 C   0  0  0  0  0  0  0  0  0  0  0  0
  -23.6881  -15.8594   22.0103 C   0  0  0  0  0  0  0  0  0  0  0  0
  -25.3920  -17.2598   23.2922 C   0  0  0  0  0  0  0  0  0  0  0  0
  -17.6920  -27.9305   22.8636 C   0  0  0  0  0  0  0  0  0  0  0  0
  -24.8739  -28.8433   19.9544 C   0  0  0  0  0  0  0  0  0  0  0  0
  -19.0714  -28.1759   23.0023 C   0  0  0  0  0  0  0  0  0  0  0  0
  -25.0568  -27.6215   19.2910 C   0  0  0  0  0  0  0  0  0  0  0  0
  -30.6239  -23.8156   17.7883 C   0  0  0  0  0  0  0  0  0  0  0  0
  -31.2285  -21.5930   18.5174 C   0  0  0  0  0  0  0  0  0  0  0  0
  -29.1320  -21.9609   17.3745 C   0  0  0  0  0  0  0  0  0  0  0  0
  -30.0324  -21.0974   17.9985 C   0  0  0  0  0  0  0  0  0  0  0  0
  -22.2208  -13.5408   21.5071 C   0  0  0  0  0  0  0  0  0  0  0  0
  -27.3632  -27.5648   20.0573 C   0  0  0  0  0  0  0  0  0  0  0  0
  -22.1811  -11.2010   21.2923 C   0  0  0  0  0  0  0  0  0  0  0  0
  -23.5403   -8.7655   21.3515 C   0  0  0  0  0  0  0  0  0  0  0  0
  -22.8274  -10.7912   22.4584 C   0  0  0  0  0  0  0  0  0  0  0  0
  -24.4462  -17.0570   22.2694 C   0  0  0  0  0  0  0  0  0  0  0  0
  -25.8237  -18.5509   23.1096 C   0  0  0  0  0  0  0  0  0  0  0  0
  -25.8404  -16.3614   24.3157 C   0  0  0  0  0  0  0  0  0  0  0  0
  -21.9861  -27.7905   20.7642 C   0  0  0  0  0  0  0  0  0  0  0  0
  -21.6527  -27.4122   17.5599 C   0  0  0  0  0  0  0  0  0  0  0  0
  -23.1472  -26.9709   14.5236 C   0  0  0  0  0  0  0  0  0  0  0  0
  -26.0083  -22.1509   18.3287 C   0  0  0  0  0  0  0  0  0  0  0  0
  -17.1710  -26.7418   22.0955 C   0  0  0  0  0  0  0  0  0  0  0  0
  -23.5526  -29.5584   19.8831 C   0  0  0  0  0  0  0  0  0  0  0  0
  -23.9441  -26.9653   18.5166 C   0  0  0  0  0  0  0  0  0  0  0  0
  -18.2031  -26.1239   21.1556 C   0  0  0  0  0  0  0  0  0  0  0  0
  -24.3647  -22.7838   21.4230 C   0  0  0  0  0  0  0  0  0  0  0  0
  -19.5402  -25.9526   21.8696 C   0  0  0  0  0  0  0  0  0  0  0  0
  -24.2845  -21.4061   22.0831 C   0  0  0  0  0  0  0  0  0  0  0  0
  -24.1807  -22.6960   19.9096 C   0  0  0  0  0  0  0  0  0  0  0  0
  -25.0065  -20.3740   19.8894 C   0  0  0  0  0  0  0  0  0  0  0  0
  -20.1037  -27.3065   22.3177 C   0  0  1  0  0  0  0  0  0  0  0  0
  -22.3840  -28.6257   19.5803 C   0  0  1  0  0  0  0  0  0  0  0  0
  -25.2420  -20.4049   21.4093 C   0  0  2  0  0  0  0  0  0  0  0  0
  -29.7153  -19.6402   18.1117 C   0  0  0  0  0  0  0  0  0  0  0  0
  -31.7768  -20.3204   20.6070 C   0  0  0  0  0  0  0  0  0  0  0  0
  -22.6126  -26.6571   12.0919 C   0  0  0  0  0  0  0  0  0  0  0  0
  -20.8595  -24.5177   18.1103 C   0  0  0  0  0  0  0  0  0  0  0  0
  -21.2653  -24.0195   15.6905 C   0  0  0  0  0  0  0  0  0  0  0  0
  -19.4994  -25.6548   16.3463 C   0  0  0  0  0  0  0  0  0  0  0  0
  -24.5847  -29.4454   13.7689 C   0  0  0  0  0  0  0  0  0  0  0  0
  -30.9439  -25.2847   17.6741 C   0  0  0  0  0  0  0  0  0  0  0  0
  -32.2091  -20.6897   19.1913 C   0  0  0  0  0  0  0  0  0  0  0  0
  -27.8442  -21.4552   16.8107 C   0  0  0  0  0  0  0  0  0  0  0  0
  -30.4449  -26.1175   18.8568 C   0  0  0  0  0  0  0  0  0  0  0  0
  -28.9268  -26.1224   18.9940 C   0  0  0  0  0  0  0  0  0  1  0  0
  -21.9331  -26.2986   16.5799 C   0  0  1  0  0  0  0  0  0  0  0  0
  -22.9369  -27.6605   13.1877 C   0  0  2  0  0  0  0  0  0  0  0  0
  -20.9099  -25.1338   16.6979 C   0  0  0  0  0  0  0  0  0  0  0  0
  -24.2858  -18.1332   21.4946 N   0  0  0  0  0  0  0  0  0  0  0  0
  -25.1367  -19.0246   22.0308 N   0  0  0  0  0  0  0  0  0  0  0  0
  -22.6691  -27.7006   18.4816 N   0  0  0  0  0  0  0  0  0  0  0  0
  -25.1193  -21.7310   19.3320 N   0  0  0  0  0  0  0  0  0  0  0  0
  -26.7201  -19.3158   23.7683 N   0  0  0  0  0  0  0  0  0  0  0  0
  -25.2934  -15.0718   24.3593 N   0  0  0  0  0  0  0  0  0  0  0  0
  -20.6910  -28.0061   21.1951 N   0  0  0  0  0  0  0  0  0  0  0  0
  -21.9828  -26.9189   15.2604 N   0  0  0  0  0  0  0  0  0  0  0  0
  -26.8683  -21.1750   17.8402 N   0  0  0  0  0  0  0  0  0  0  0  0
  -24.1637  -28.4083   12.7920 N   0  3  0  0  0  0  0  0  0  0  0  0
  -26.6885  -16.6980   25.1765 O   0  0  0  0  0  0  0  0  0  0  0  0
  -22.7938  -27.0073   21.2499 O   0  0  0  0  0  0  0  0  0  0  0  0
  -20.5746  -28.0090   17.5048 O   0  0  0  0  0  0  0  0  0  0  0  0
  -24.2346  -26.5199   14.8766 O   0  0  0  0  0  0  0  0  0  0  0  0
  -26.0372  -23.3109   17.9039 O   0  0  0  0  0  0  0  0  0  0  0  0
  -21.5052  -12.4093   21.2615 O   0  0  0  0  0  0  0  0  0  0  0  0
  -28.5703  -26.9385   20.1090 O   0  0  0  0  0  0  0  0  0  1  0  0
  -24.1917   -7.5954   21.3803 F   0  0  0  0  0  0  0  0  0  0  0  0
  -22.7980  -11.5627   23.5538 F   0  0  0  0  0  0  0  0  0  0  0  0
  1  2  1  0  0  0  0
  1  5  2  0  0  0  0
  2  6  2  0  0  0  0
  3  8  2  0  0  0  0
  3 17  1  0  0  0  0
  4  9  1  0  0  0  0
  4 17  2  0  0  0  0
  5 19  1  0  0  0  0
  6 21  1  0  0  0  0
  7 10  2  0  0  0  0
  7 20  1  0  0  0  0
  8 27  1  0  0  0  0
  9 27  2  0  0  0  0
 10 28  1  0  0  0  0
 11 12  2  0  0  0  0
 11 29  1  0  0  0  0
 12 30  1  0  0  0  0
 13 22  1  0  0  0  0
 13 28  2  0  0  0  0
 14 23  2  0  0  0  0
 14 24  1  0  0  0  0
 15 23  1  0  0  0  0
 15 25  2  0  0  0  0
 16 30  2  0  0  0  0
 16 31  1  0  0  0  0
 17 32  1  0  0  0  0
 18 32  1  0  0  0  0
 18 33  2  0  0  0  0
 18 34  1  0  0  0  0
 19 21  2  0  0  0  0
 19 39  1  0  0  0  0
 20 22  2  0  0  0  0
 20 40  1  0  0  0  0
 21 48  1  0  0  0  0
 22 41  1  0  0  0  0
 23 58  1  0  0  0  0
 24 26  2  0  0  0  0
 24 59  1  0  0  0  0
 25 26  1  0  0  0  0
 25 60  1  0  0  0  0
 26 51  1  0  0  0  0
 27 81  1  0  0  0  0
 28 82  1  0  0  0  0
 29 31  2  0  0  0  0
 29 81  1  0  0  0  0
 30 83  1  0  0  0  0
 31 84  1  0  0  0  0
 32 66  2  0  0  0  0
 33 67  1  0  0  0  0
 33 70  1  0  0  0  0
 34 71  1  0  0  0  0
 34 76  2  0  0  0  0
 35 49  1  0  0  0  0
 35 72  1  0  0  0  0
 35 77  2  0  0  0  0
 36 63  1  0  0  0  0
 36 68  1  0  0  0  0
 36 78  2  0  0  0  0
 37 64  1  0  0  0  0
 37 73  1  0  0  0  0
 37 79  2  0  0  0  0
 38 69  1  0  0  0  0
 38 74  1  0  0  0  0
 38 80  2  0  0  0  0
 39 42  1  0  0  0  0
 40 49  1  0  0  0  0
 41 68  1  0  0  0  0
 42 44  1  0  0  0  0
 43 45  1  0  0  0  0
 43 46  1  0  0  0  0
 44 48  1  0  0  0  0
 45 50  1  0  0  0  0
 46 69  1  0  0  0  0
 47 50  1  0  0  0  0
 47 69  1  0  0  0  0
 48 72  1  0  0  0  0
 49 68  1  0  0  0  0
 50 67  1  0  0  0  0
 52 59  1  0  0  0  0
 53 64  1  0  0  0  0
 54 65  1  0  0  0  0
 55 65  1  0  0  0  0
 56 65  1  0  0  0  0
 57 75  1  0  0  0  0
 58 61  1  0  0  0  0
 60 74  1  0  0  0  0
 61 62  1  0  0  0  0
 62 82  1  0  0  0  0
 63 65  1  0  0  0  0
 63 73  1  0  0  0  0
 64 75  1  0  0  0  0
 66 67  1  0  0  0  0
M  CHG  1  75   1
M  ISO  4  38 100  62 101  74 100  82 101
M  END
> <Batch ID>
0036

> <Smiles>
CCc1cc(CC[101CH2:1][101O:1]c2ccc3c(c2)CN(C(=O)C(NC(=O)C(C)NC)C(C)(C)C)C(C(=O)NC2CCCc4ccccc42)C3)cc(C[100NH:0][100C:0](=O)N2CCCC(n3nc(-c4ccc(Oc5ccc(F)cc5F)cc4)c(C(N)=O)c3N)C2)c1C

> <Shape>
0.212

> <Color>
0.070

> <Negative vol penalty>
0.000

$$$$

  -OEChem-04052316563D

 82 90  0     1  0  0  0  0  0999 V2000
  -25.9197  -13.3675   25.8738 C   0  0  0  0  0  0  0  0  0  0  0  0
  -26.7504  -12.9572   24.8360 C   0  0  0  0  0  0  0  0  0  0  0  0
  -23.1618   -9.8526   19.9153 C   0  0  0  0  0  0  0  0  0  0  0  0
  -23.8315   -9.9041   22.2360 C   0  0  0  0  0  0  0  0  0  0  0  0
  -26.3398  -14.3705   26.7464 C   0  0  0  0  0  0  0  0  0  0  0  0
  -28.0013  -13.5504   24.6696 C   0  0  0  0  0  0  0  0  0  0  0  0
  -34.6524  -12.0346   22.4829 C   0  0  0  0  0  0  0  0  0  0  0  0
  -35.5742  -17.2702   17.9181 C   0  0  0  0  0  0  0  0  0  0  0  0
  -34.2308  -17.5400   17.6577 C   0  0  0  0  0  0  0  0  0  0  0  0
  -22.4340   -8.6863   20.1512 C   0  0  0  0  0  0  0  0  0  0  0  0
  -23.1037   -8.7378   22.4720 C   0  0  0  0  0  0  0  0  0  0  0  0
  -35.6293  -12.4995   21.6034 C   0  0  0  0  0  0  0  0  0  0  0  0
  -19.4495   -7.8419   21.4976 C   0  0  0  0  0  0  0  0  0  0  0  0
  -18.1639   -7.7608   20.9628 C   0  0  0  0  0  0  0  0  0  0  0  0
  -36.2819  -14.1672   23.2196 C   0  0  0  0  0  0  0  0  0  0  0  0
  -34.9772  -16.3920   20.0882 C   0  0  0  0  0  0  0  0  0  0  0  0
  -18.8167   -5.8148   19.6884 C   0  0  0  0  0  0  0  0  0  0  0  0
  -23.8606  -10.4615   20.9577 C   0  0  0  0  0  0  0  0  0  0  0  0
  -24.1519  -12.9920   20.8184 C   0  0  0  0  0  0  0  0  0  0  0  0
  -27.6004  -14.9695   26.5965 C   0  0  0  0  0  0  0  0  0  0  0  0
  -34.4754  -12.6406   23.7350 C   0  0  0  0  0  0  0  0  0  0  0  0
  -28.4381  -14.5632   25.5403 C   0  0  0  0  0  0  0  0  0  0  0  0
  -35.3039  -13.7065   24.1141 C   0  0  0  0  0  0  0  0  0  0  0  0
  -35.9475  -16.6962   19.1334 C   0  0  0  0  0  0  0  0  0  0  0  0
  -33.2605  -17.2359   18.6125 C   0  0  0  0  0  0  0  0  0  0  0  0
  -33.6337  -16.6618   19.8278 C   0  0  0  0  0  0  0  0  0  0  0  0
  -22.4049   -8.1289   21.4295 C   0  0  0  0  0  0  0  0  0  0  0  0
  -36.4423  -13.5678   21.9706 C   0  0  0  0  0  0  0  0  0  0  0  0
  -20.4189   -6.9096   21.1277 C   0  0  0  0  0  0  0  0  0  0  0  0
  -17.8474   -6.7473   20.0582 C   0  0  0  0  0  0  0  0  0  0  0  0
  -20.1025   -5.8960   20.2231 C   0  0  0  0  0  0  0  0  0  0  0  0
  -24.6131  -11.6660   20.7145 C   0  0  0  0  0  0  0  0  0  0  0  0
  -25.2408  -13.7611   20.4879 C   0  0  0  0  0  0  0  0  0  0  0  0
  -22.8552  -13.4845   21.1811 C   0  0  0  0  0  0  0  0  0  0  0  0
  -32.0946  -14.1913   25.1601 C   0  0  0  0  0  0  0  0  0  0  0  0
  -34.0872  -14.1036   27.7183 C   0  0  0  0  0  0  0  0  0  0  0  0
  -37.2805  -13.8547   28.8962 C   0  0  0  0  0  0  0  0  0  0  0  0
  -30.5626  -14.9348   20.9857 C   0  0  0  0  0  0  0  0  0  0  0  0
  -27.9915  -16.0827   27.5359 C   0  0  0  0  0  0  0  0  0  0  0  0
  -33.4350  -12.1101   24.6829 C   0  0  0  0  0  0  0  0  0  0  0  0
  -35.1678  -14.3785   25.4551 C   0  0  0  0  0  0  0  0  0  0  0  0
  -29.4849  -16.3987   27.5177 C   0  0  0  0  0  0  0  0  0  0  0  0
  -29.7011  -12.4679   18.4819 C   0  0  0  0  0  0  0  0  0  0  0  0
  -29.9924  -16.4961   26.0825 C   0  0  0  0  0  0  0  0  0  0  0  0
  -28.2519  -12.1497   18.8544 C   0  0  0  0  0  0  0  0  0  0  0  0
  -30.5541  -12.6975   19.7260 C   0  0  0  0  0  0  0  0  0  0  0  0
  -28.5882  -13.4371   21.0153 C   0  0  0  0  0  0  0  0  0  0  0  0
  -29.8123  -15.1653   25.3422 C   0  0  1  0  0  0  0  0  0  0  0  0
  -32.9998  -13.1341   25.7265 C   0  0  1  0  0  0  0  0  0  0  0  0
  -27.6692  -13.2167   19.7999 C   0  0  2  0  0  0  0  0  0  0  0  0
  -31.8285  -17.5349   18.3116 C   0  0  0  0  0  0  0  0  0  0  0  0
  -38.5978  -13.8526   31.0322 C   0  0  0  0  0  0  0  0  0  0  0  0
  -33.7523  -17.1293   27.9249 C   0  0  0  0  0  0  0  0  0  0  0  0
  -35.7689  -17.1813   29.4077 C   0  0  0  0  0  0  0  0  0  0  0  0
  -33.7335  -15.9256   30.1169 C   0  0  0  0  0  0  0  0  0  0  0  0
  -38.2979  -11.1198   28.4020 C   0  0  0  0  0  0  0  0  0  0  0  0
  -37.3999  -16.4051   19.4149 C   0  0  0  0  0  0  0  0  0  0  0  0
  -32.6124  -16.3279   20.8653 C   0  0  0  0  0  0  0  0  0  0  0  0
  -37.8453  -15.0094   18.9729 C   0  0  0  0  0  0  0  0  0  0  0  0
  -37.1353  -13.8849   19.7177 C   0  0  0  0  0  0  0  0  0  1  0  0
  -35.1751  -15.0007   28.2573 C   0  0  1  0  0  0  0  0  0  0  0  0
  -37.8851  -12.9990   29.9947 C   0  0  2  0  0  0  0  0  0  0  0  0
  -34.6090  -16.2981   28.9006 C   0  0  0  0  0  0  0  0  0  0  0  0
  -25.8951  -11.5932   20.3467 N   0  0  0  0  0  0  0  0  0  0  0  0
  -26.2487  -12.8832   20.2165 N   0  0  0  0  0  0  0  0  0  0  0  0
  -34.1319  -13.8276   26.3444 N   0  0  0  0  0  0  0  0  0  0  0  0
  -29.9544  -13.7374   20.5740 N   0  0  0  0  0  0  0  0  0  0  0  0
  -25.4249  -15.0960   20.4059 N   0  0  0  0  0  0  0  0  0  0  0  0
  -21.8509  -12.5572   21.4908 N   0  0  0  0  0  0  0  0  0  0  0  0
  -30.8391  -14.2247   25.7363 N   0  0  0  0  0  0  0  0  0  0  0  0
  -35.9681  -14.1800   29.1662 N   0  0  0  0  0  0  0  0  0  0  0  0
  -31.8592  -15.1399   20.5302 N   0  0  0  0  0  0  0  0  0  0  0  0
  -38.8690  -12.0381   29.4206 N   0  3  0  0  0  0  0  0  0  0  0  0
  -22.5902  -14.7101   21.2134 O   0  0  0  0  0  0  0  0  0  0  0  0
  -32.5054  -14.9235   24.2675 O   0  0  0  0  0  0  0  0  0  0  0  0
  -33.2335  -13.6581   28.4893 O   0  0  0  0  0  0  0  0  0  0  0  0
  -37.9107  -14.2029   27.9002 O   0  0  0  0  0  0  0  0  0  0  0  0
  -29.9904  -15.7632   21.7023 O   0  0  0  0  0  0  0  0  0  0  0  0
  -21.6947   -6.9910   21.6601 O   0  0  0  0  0  0  0  0  0  0  0  0
  -37.3961  -14.0240   21.1138 O   0  0  0  0  0  0  0  0  0  1  0  0
  -16.6123   -6.6686   19.5460 F   0  0  0  0  0  0  0  0  0  0  0  0
  -21.0291   -4.9967   19.8649 F   0  0  0  0  0  0  0  0  0  0  0  0
  1  2  1  0  0  0  0
  1  5  2  0  0  0  0
  2  6  2  0  0  0  0
  3 10  2  0  0  0  0
  3 18  1  0  0  0  0
  4 11  1  0  0  0  0
  4 18  2  0  0  0  0
  5 20  1  0  0  0  0
  6 22  1  0  0  0  0
  7 12  2  0  0  0  0
  7 21  1  0  0  0  0
  8  9  2  0  0  0  0
  8 24  1  0  0  0  0
  9 25  1  0  0  0  0
 10 27  1  0  0  0  0
 11 27  2  0  0  0  0
 12 28  1  0  0  0  0
 13 14  2  0  0  0  0
 13 29  1  0  0  0  0
 14 30  1  0  0  0  0
 15 23  1  0  0  0  0
 15 28  2  0  0  0  0
 16 24  2  0  0  0  0
 16 26  1  0  0  0  0
 17 30  2  0  0  0  0
 17 31  1  0  0  0  0
 18 32  1  0  0  0  0
 19 32  1  0  0  0  0
 19 33  2  0  0  0  0
 19 34  1  0  0  0  0
 20 22  2  0  0  0  0
 20 39  1  0  0  0  0
 21 23  2  0  0  0  0
 21 40  1  0  0  0  0
 22 48  1  0  0  0  0
 23 41  1  0  0  0  0
 24 57  1  0  0  0  0
 25 26  2  0  0  0  0
 25 51  1  0  0  0  0
 26 58  1  0  0  0  0
 27 79  1  0  0  0  0
 28 80  1  0  0  0  0
 29 31  2  0  0  0  0
 29 79  1  0  0  0  0
 30 81  1  0  0  0  0
 31 82  1  0  0  0  0
 32 64  2  0  0  0  0
 33 65  1  0  0  0  0
 33 68  1  0  0  0  0
 34 69  1  0  0  0  0
 34 74  2  0  0  0  0
 35 49  1  0  0  0  0
 35 70  1  0  0  0  0
 35 75  2  0  0  0  0
 36 61  1  0  0  0  0
 36 66  1  0  0  0  0
 36 76  2  0  0  0  0
 37 62  1  0  0  0  0
 37 71  1  0  0  0  0
 37 77  2  0  0  0  0
 38 67  1  0  0  0  0
 38 72  1  0  0  0  0
 38 78  2  0  0  0  0
 39 42  1  0  0  0  0
 40 49  1  0  0  0  0
 41 66  1  0  0  0  0
 42 44  1  0  0  0  0
 43 45  1  0  0  0  0
 43 46  1  0  0  0  0
 44 48  1  0  0  0  0
 45 50  1  0  0  0  0
 46 67  1  0  0  0  0
 47 50  1  0  0  0  0
 47 67  1  0  0  0  0
 48 70  1  0  0  0  0
 49 66  1  0  0  0  0
 50 65  1  0  0  0  0
 52 62  1  0  0  0  0
 53 63  1  0  0  0  0
 54 63  1  0  0  0  0
 55 63  1  0  0  0  0
 56 73  1  0  0  0  0
 57 59  1  0  0  0  0
 58 72  1  0  0  0  0
 59 60  1  0  0  0  0
 60 80  1  0  0  0  0
 61 63  1  0  0  0  0
 61 71  1  0  0  0  0
 62 73  1  0  0  0  0
 64 65  1  0  0  0  0
M  CHG  1  73   1
M  ISO  4  38 100  60 101  72 100  80 101
M  END
> <Batch ID>
0036

> <Smiles>
CNC(C)C(=O)NC(C(=O)N1Cc2cc([101O:1][101CH2:1]CCc3ccc(C)c(C[100NH:0][100C:0](=O)N4CCCC(n5nc(-c6ccc(Oc7ccc(F)cc7F)cc6)c(C(N)=O)c5N)C4)c3)ccc2CC1C(=O)NC1CCCc2ccccc21)C(C)(C)C

> <Shape>
0.136

> <Color>
0.178

> <Negative vol penalty>
0.000

$$$$

  -OEChem-04052316563D

 85 93  0     1  0  0  0  0  0999 V2000
  -20.9849  -34.6490   21.1628 C   0  0  0  0  0  0  0  0  0  0  0  0
  -22.1391  -33.9260   20.8794 C   0  0  0  0  0  0  0  0  0  0  0  0
  -27.0042  -13.2294   21.0323 C   0  0  0  0  0  0  0  0  0  0  0  0
  -26.9618  -13.3974   18.6225 C   0  0  0  0  0  0  0  0  0  0  0  0
  -20.0866  -34.1790   22.1200 C   0  0  0  0  0  0  0  0  0  0  0  0
  -22.3963  -32.7329   21.5538 C   0  0  0  0  0  0  0  0  0  0  0  0
  -25.1467  -27.7478   19.2976 C   0  0  0  0  0  0  0  0  0  0  0  0
  -29.0091  -24.9170   14.7189 C   0  0  0  0  0  0  0  0  0  0  0  0
  -28.5441  -23.6206   14.4980 C   0  0  0  0  0  0  0  0  0  0  0  0
  -26.3446  -12.0026   20.9584 C   0  0  0  0  0  0  0  0  0  0  0  0
  -26.3022  -12.1706   18.5486 C   0  0  0  0  0  0  0  0  0  0  0  0
  -26.4562  -27.2776   19.3868 C   0  0  0  0  0  0  0  0  0  0  0  0
  -23.1848  -10.8982   20.4892 C   0  0  0  0  0  0  0  0  0  0  0  0
  -22.1237  -10.6797   21.3679 C   0  0  0  0  0  0  0  0  0  0  0  0
  -25.8169  -25.8657   21.2353 C   0  0  0  0  0  0  0  0  0  0  0  0
  -23.2878   -8.7793   22.3010 C   0  0  0  0  0  0  0  0  0  0  0  0
  -27.3127  -13.9269   19.8644 C   0  0  0  0  0  0  0  0  0  0  0  0
  -29.3839  -15.4146   19.9308 C   0  0  0  0  0  0  0  0  0  0  0  0
  -20.3282  -32.9746   22.7995 C   0  0  0  0  0  0  0  0  0  0  0  0
  -24.1633  -27.2879   20.1852 C   0  0  0  0  0  0  0  0  0  0  0  0
  -21.5011  -32.2469   22.5219 C   0  0  0  0  0  0  0  0  0  0  0  0
  -24.4951  -26.3298   21.1537 C   0  0  0  0  0  0  0  0  0  0  0  0
  -29.7119  -25.2164   15.8860 C   0  0  0  0  0  0  0  0  0  0  0  0
  -28.7819  -22.6237   15.4441 C   0  0  0  0  0  0  0  0  0  0  0  0
  -29.4847  -22.9231   16.6112 C   0  0  0  0  0  0  0  0  0  0  0  0
  -29.9497  -24.2194   16.8322 C   0  0  0  0  0  0  0  0  0  0  0  0
  -25.9937  -11.4731   19.7165 C   0  0  0  0  0  0  0  0  0  0  0  0
  -26.7921  -26.3386   20.3576 C   0  0  0  0  0  0  0  0  0  0  0  0
  -24.2973  -10.0572   20.5164 C   0  0  0  0  0  0  0  0  0  0  0  0
  -22.1752   -9.6203   22.2738 C   0  0  0  0  0  0  0  0  0  0  0  0
  -24.3488   -8.9978   21.4223 C   0  0  0  0  0  0  0  0  0  0  0  0
  -27.9935  -15.1945   19.9401 C   0  0  0  0  0  0  0  0  0  0  0  0
  -29.5163  -16.7786   20.0227 C   0  0  0  0  0  0  0  0  0  0  0  0
  -30.4597  -14.4705   19.8465 C   0  0  0  0  0  0  0  0  0  0  0  0
  -22.3183  -28.6459   22.3886 C   0  0  0  0  0  0  0  0  0  0  0  0
  -20.9851  -25.6922   22.5326 C   0  0  0  0  0  0  0  0  0  0  0  0
  -21.3175  -22.3352   22.0163 C   0  0  0  0  0  0  0  0  0  0  0  0
  -25.9193  -21.3327   18.5486 C   0  0  0  0  0  0  0  0  0  0  0  0
  -19.3516  -32.5308   23.8597 C   0  0  0  0  0  0  0  0  0  0  0  0
  -22.7493  -27.7850   20.0586 C   0  0  0  0  0  0  0  0  0  0  0  0
  -23.4717  -25.7889   22.1174 C   0  0  0  0  0  0  0  0  0  0  0  0
  -19.5118  -31.0667   24.2609 C   0  0  0  0  0  0  0  0  0  0  0  0
  -27.2997  -20.6472   21.7582 C   0  0  0  0  0  0  0  0  0  0  0  0
  -20.9822  -30.7349   24.4942 C   0  0  0  0  0  0  0  0  0  0  0  0
  -27.7595  -19.1918   21.6553 C   0  0  0  0  0  0  0  0  0  0  0  0
  -26.0054  -20.8862   20.9837 C   0  0  0  0  0  0  0  0  0  0  0  0
  -26.5011  -19.0065   19.4688 C   0  0  0  0  0  0  0  0  0  0  0  0
  -21.8029  -30.9357   23.2145 C   0  0  1  0  0  0  0  0  0  0  0  0
  -21.9445  -27.6312   21.3454 C   0  0  1  0  0  0  0  0  0  0  0  0
  -27.8325  -18.7293   20.1877 C   0  0  2  0  0  0  0  0  0  0  0  0
  -30.1992  -26.6126   16.0978 C   0  0  0  0  0  0  0  0  0  0  0  0
  -29.7375  -21.8529   17.6256 C   0  0  0  0  0  0  0  0  0  0  0  0
  -20.0711  -20.1712   22.2631 C   0  0  0  0  0  0  0  0  0  0  0  0
  -21.4863  -25.7496   25.5418 C   0  0  0  0  0  0  0  0  0  0  0  0
  -21.1214  -23.2729   25.5794 C   0  0  0  0  0  0  0  0  0  0  0  0
  -19.2751  -24.7933   24.8706 C   0  0  0  0  0  0  0  0  0  0  0  0
  -21.4424  -21.7976   19.1087 C   0  0  0  0  0  0  0  0  0  0  0  0
  -28.2713  -21.2440   15.1838 C   0  0  0  0  0  0  0  0  0  0  0  0
  -30.7109  -24.5457   18.0922 C   0  0  0  0  0  0  0  0  0  0  0  0
  -26.7562  -21.1669   14.9166 C   0  0  0  0  0  0  0  0  0  0  0  0
  -29.8227  -24.6796   19.3311 C   0  0  0  0  0  0  0  0  0  0  0  0
  -25.8870  -21.6278   16.0847 C   0  0  0  0  0  0  0  0  0  0  0  0
  -28.8296  -25.8323   19.2403 C   0  0  0  0  0  0  0  0  0  1  0  0
  -21.2485  -24.4381   23.3306 C   0  0  1  0  0  0  0  0  0  0  0  0
  -20.4111  -21.3263   21.3343 C   0  0  2  0  0  0  0  0  0  0  0  0
  -20.8028  -24.5749   24.8139 C   0  0  0  0  0  0  0  0  0  0  0  0
  -27.2927  -16.3279   20.0310 N   0  0  0  0  0  0  0  0  0  0  0  0
  -28.2465  -17.2733   20.0797 N   0  0  0  0  0  0  0  0  0  0  0  0
  -22.1043  -26.3106   21.9576 N   0  0  0  0  0  0  0  0  0  0  0  0
  -26.1417  -20.4273   19.5992 N   0  0  0  0  0  0  0  0  0  0  0  0
  -30.5937  -17.5911   20.0597 N   0  0  0  0  0  0  0  0  0  0  0  0
  -30.1468  -13.1072   19.7577 N   0  0  0  0  0  0  0  0  0  0  0  0
  -21.6039  -29.8260   22.3071 N   0  0  0  0  0  0  0  0  0  0  0  0
  -20.5969  -23.3506   22.6087 N   0  0  0  0  0  0  0  0  0  0  0  0
  -26.0756  -20.8178   17.2676 N   0  0  0  0  0  0  0  0  0  0  0  0
  -21.0736  -20.7731   20.1194 N   0  3  0  0  0  0  0  0  0  0  0  0
  -31.6630  -14.8241   19.8663 O   0  0  0  0  0  0  0  0  0  0  0  0
  -23.1892  -28.3775   23.2079 O   0  0  0  0  0  0  0  0  0  0  0  0
  -19.8279  -26.1039   22.4176 O   0  0  0  0  0  0  0  0  0  0  0  0
  -22.5421  -22.2308   22.0260 O   0  0  0  0  0  0  0  0  0  0  0  0
  -25.6099  -22.5139   18.7383 O   0  0  0  0  0  0  0  0  0  0  0  0
  -25.3503  -10.2759   19.6440 O   0  0  0  0  0  0  0  0  0  0  0  0
  -28.0696  -25.8784   20.4473 O   0  0  0  0  0  0  0  0  0  1  0  0
  -21.1569   -9.4115   23.1185 F   0  0  0  0  0  0  0  0  0  0  0  0
  -25.4155   -8.1873   21.4540 F   0  0  0  0  0  0  0  0  0  0  0  0
  1  2  1  0  0  0  0
  1  5  2  0  0  0  0
  2  6  2  0  0  0  0
  3 10  2  0  0  0  0
  3 17  1  0  0  0  0
  4 11  1  0  0  0  0
  4 17  2  0  0  0  0
  5 19  1  0  0  0  0
  6 21  1  0  0  0  0
  7 12  2  0  0  0  0
  7 20  1  0  0  0  0
  8  9  1  0  0  0  0
  8 23  2  0  0  0  0
  9 24  2  0  0  0  0
 10 27  1  0  0  0  0
 11 27  2  0  0  0  0
 12 28  1  0  0  0  0
 13 14  2  0  0  0  0
 13 29  1  0  0  0  0
 14 30  1  0  0  0  0
 15 22  1  0  0  0  0
 15 28  2  0  0  0  0
 16 30  2  0  0  0  0
 16 31  1  0  0  0  0
 17 32  1  0  0  0  0
 18 32  1  0  0  0  0
 18 33  2  0  0  0  0
 18 34  1  0  0  0  0
 19 21  2  0  0  0  0
 19 39  1  0  0  0  0
 20 22  2  0  0  0  0
 20 40  1  0  0  0  0
 21 48  1  0  0  0  0
 22 41  1  0  0  0  0
 23 26  1  0  0  0  0
 23 51  1  0  0  0  0
 24 25  1  0  0  0  0
 24 58  1  0  0  0  0
 25 26  2  0  0  0  0
 25 52  1  0  0  0  0
 26 59  1  0  0  0  0
 27 82  1  0  0  0  0
 28 83  1  0  0  0  0
 29 31  2  0  0  0  0
 29 82  1  0  0  0  0
 30 84  1  0  0  0  0
 31 85  1  0  0  0  0
 32 67  2  0  0  0  0
 33 68  1  0  0  0  0
 33 71  1  0  0  0  0
 34 72  1  0  0  0  0
 34 77  2  0  0  0  0
 35 49  1  0  0  0  0
 35 73  1  0  0  0  0
 35 78  2  0  0  0  0
 36 64  1  0  0  0  0
 36 69  1  0  0  0  0
 36 79  2  0  0  0  0
 37 65  1  0  0  0  0
 37 74  1  0  0  0  0
 37 80  2  0  0  0  0
 38 70  1  0  0  0  0
 38 75  1  0  0  0  0
 38 81  2  0  0  0  0
 39 42  1  0  0  0  0
 40 49  1  0  0  0  0
 41 69  1  0  0  0  0
 42 44  1  0  0  0  0
 43 45  1  0  0  0  0
 43 46  1  0  0  0  0
 44 48  1  0  0  0  0
 45 50  1  0  0  0  0
 46 70  1  0  0  0  0
 47 50  1  0  0  0  0
 47 70  1  0  0  0  0
 48 73  1  0  0  0  0
 49 69  1  0  0  0  0
 50 68  1  0  0  0  0
 53 65  1  0  0  0  0
 54 66  1  0  0  0  0
 55 66  1  0  0  0  0
 56 66  1  0  0  0  0
 57 76  1  0  0  0  0
 58 60  1  0  0  0  0
 59 61  1  0  0  0  0
 60 62  1  0  0  0  0
 61 63  1  0  0  0  0
 62 75  1  0  0  0  0
 63 83  1  0  0  0  0
 64 66  1  0  0  0  0
 64 74  1  0  0  0  0
 65 76  1  0  0  0  0
 67 68  1  0  0  0  0
M  CHG  1  76   1
M  ISO  4  38 100  63 101  75 100  83 101
M  END
> <Batch ID>
0036

> <Smiles>
CNC(C)C(=O)NC(C(=O)N1Cc2cc([101O:1][101CH2:1]CCc3c(C)ccc(CCC[100NH:0][100C:0](=O)N4CCCC(n5nc(-c6ccc(Oc7ccc(F)cc7F)cc6)c(C(N)=O)c5N)C4)c3C)ccc2CC1C(=O)NC1CCCc2ccccc21)C(C)(C)C

> <Shape>
0.205

> <Color>
0.093

> <Negative vol penalty>
0.000

$$$$

  -OEChem-04052316563D

 85 94  0     1  0  0  0  0  0999 V2000
  -27.4328  -39.6162   24.8241 C   0  0  0  0  0  0  0  0  0  0  0  0
  -28.1740  -38.5407   24.3453 C   0  0  0  0  0  0  0  0  0  0  0  0
  -24.3130   -9.2476   21.0445 C   0  0  0  0  0  0  0  0  0  0  0  0
  -25.0689   -9.9982   23.2130 C   0  0  0  0  0  0  0  0  0  0  0  0
  -26.2685  -39.3880   25.5564 C   0  0  0  0  0  0  0  0  0  0  0  0
  -27.7519  -37.2363   24.5994 C   0  0  0  0  0  0  0  0  0  0  0  0
  -28.3397  -32.3902   20.9014 C   0  0  0  0  0  0  0  0  0  0  0  0
  -24.0138   -7.9958   21.5821 C   0  0  0  0  0  0  0  0  0  0  0  0
  -24.7696   -8.7464   23.7506 C   0  0  0  0  0  0  0  0  0  0  0  0
  -29.2652  -31.3483   20.8604 C   0  0  0  0  0  0  0  0  0  0  0  0
  -21.5450   -6.6015   23.4244 C   0  0  0  0  0  0  0  0  0  0  0  0
  -20.3237   -6.0229   23.0791 C   0  0  0  0  0  0  0  0  0  0  0  0
  -27.7546  -29.9643   22.1339 C   0  0  0  0  0  0  0  0  0  0  0  0
  -29.4789  -22.5155   18.8382 C   0  0  0  0  0  0  0  0  0  0  0  0
  -21.4890   -4.1378   22.1169 C   0  0  0  0  0  0  0  0  0  0  0  0
  -30.4498  -22.0482   20.8182 C   0  0  0  0  0  0  0  0  0  0  0  0
  -24.8406  -10.2488   21.8599 C   0  0  0  0  0  0  0  0  0  0  0  0
  -24.2951  -12.6566   21.2176 C   0  0  0  0  0  0  0  0  0  0  0  0
  -25.8267  -38.0802   25.8114 C   0  0  0  0  0  0  0  0  0  0  0  0
  -27.1171  -32.2303   21.5694 C   0  0  0  0  0  0  0  0  0  0  0  0
  -26.5813  -36.9903   25.3370 C   0  0  0  0  0  0  0  0  0  0  0  0
  -26.8142  -31.0048   22.1797 C   0  0  0  0  0  0  0  0  0  0  0  0
  -30.2533  -23.0522   19.8949 C   0  0  0  0  0  0  0  0  0  0  0  0
  -24.2420   -7.7451   22.9351 C   0  0  0  0  0  0  0  0  0  0  0  0
  -28.9740  -30.1361   21.4792 C   0  0  0  0  0  0  0  0  0  0  0  0
  -22.7383   -5.9484   23.1159 C   0  0  0  0  0  0  0  0  0  0  0  0
  -20.2957   -4.7910   22.4254 C   0  0  0  0  0  0  0  0  0  0  0  0
  -22.7103   -4.7165   22.4622 C   0  0  0  0  0  0  0  0  0  0  0  0
  -25.1505  -11.5419   21.3051 C   0  0  0  0  0  0  0  0  0  0  0  0
  -29.2226  -21.1963   19.1458 C   0  0  0  0  0  0  0  0  0  0  0  0
  -25.0575  -13.6281   20.6165 C   0  0  0  0  0  0  0  0  0  0  0  0
  -28.5134  -20.1450   18.5010 C   0  0  0  0  0  0  0  0  0  0  0  0
  -29.7550  -19.6588   20.9683 C   0  0  0  0  0  0  0  0  0  0  0  0
  -28.4362  -18.9199   19.0695 C   0  0  0  0  0  0  0  0  0  0  0  0
  -29.0863  -18.6540   20.3678 C   0  0  0  0  0  0  0  0  0  0  0  0
  -22.9331  -12.8009   21.6419 C   0  0  0  0  0  0  0  0  0  0  0  0
  -25.7190  -33.6338   24.0551 C   0  0  0  0  0  0  0  0  0  0  0  0
  -29.9079  -16.3838   20.2057 C   0  0  0  0  0  0  0  0  0  0  0  0
  -23.2078  -31.7668   23.2003 C   0  0  0  0  0  0  0  0  0  0  0  0
  -22.0947  -28.9512   21.6255 C   0  0  0  0  0  0  0  0  0  0  0  0
  -24.5874  -37.8828   26.6480 C   0  0  0  0  0  0  0  0  0  0  0  0
  -26.1183  -33.3549   21.5815 C   0  0  0  0  0  0  0  0  0  0  0  0
  -25.5073  -30.7755   22.8925 C   0  0  0  0  0  0  0  0  0  0  0  0
  -24.0067  -36.4742   26.5535 C   0  0  0  0  0  0  0  0  0  0  0  0
  -29.5515  -13.3526   18.3283 C   0  0  0  0  0  0  0  0  0  0  0  0
  -25.1103  -35.4311   26.6974 C   0  0  0  0  0  0  0  0  0  0  0  0
  -28.3227  -12.6887   18.9484 C   0  0  0  0  0  0  0  0  0  0  0  0
  -30.3701  -14.1009   19.3757 C   0  0  0  0  0  0  0  0  0  0  0  0
  -28.3577  -14.4481   20.7727 C   0  0  0  0  0  0  0  0  0  0  0  0
  -26.1425  -35.5610   25.5708 C   0  0  1  0  0  0  0  0  0  0  0  0
  -25.1197  -33.2546   22.7305 C   0  0  1  0  0  0  0  0  0  0  0  0
  -27.4863  -13.7070   19.7433 C   0  0  2  0  0  0  0  0  0  0  0  0
  -27.6881  -17.8075   18.3901 C   0  0  0  0  0  0  0  0  0  0  0  0
  -19.9935  -27.6729   21.1271 C   0  0  0  0  0  0  0  0  0  0  0  0
  -23.1520  -30.7426   26.0739 C   0  0  0  0  0  0  0  0  0  0  0  0
  -21.7223  -28.8408   25.2947 C   0  0  0  0  0  0  0  0  0  0  0  0
  -20.9001  -31.1862   25.0807 C   0  0  0  0  0  0  0  0  0  0  0  0
  -22.4691  -29.2478   18.7048 C   0  0  0  0  0  0  0  0  0  0  0  0
  -30.7704  -24.4652   19.9945 C   0  0  0  0  0  0  0  0  0  0  0  0
  -28.9960  -17.2929   20.9905 C   0  0  0  0  0  0  0  0  0  0  0  0
  -29.8096  -25.4279   20.7010 C   0  0  0  0  0  0  0  0  0  0  0  0
  -30.3168  -26.8705   20.7241 C   0  0  0  0  0  0  0  0  0  0  0  0
  -29.3565  -27.7889   21.4676 C   0  0  0  0  0  0  0  0  0  1  0  0
  -22.7425  -30.3743   23.5515 C   0  0  1  0  0  0  0  0  0  0  0  0
  -20.9676  -28.7311   20.6328 C   0  0  2  0  0  0  0  0  0  0  0  0
  -22.1548  -30.2906   24.9885 C   0  0  0  0  0  0  0  0  0  0  0  0
  -26.3634  -11.7819   20.7998 N   0  0  0  0  0  0  0  0  0  0  0  0
  -29.8208  -20.9111   20.3637 N   0  0  0  0  0  0  0  0  0  0  0  0
  -26.2756  -13.0584   20.3890 N   0  0  0  0  0  0  0  0  0  0  0  0
  -24.5660  -31.9075   22.8822 N   0  0  0  0  0  0  0  0  0  0  0  0
  -29.5351  -15.0420   20.1242 N   0  0  0  0  0  0  0  0  0  0  0  0
  -24.7979  -14.9056   20.2656 N   0  0  0  0  0  0  0  0  0  0  0  0
  -22.3003  -11.7035   22.2415 N   0  0  0  0  0  0  0  0  0  0  0  0
  -25.6310  -34.9815   24.3473 N   0  0  0  0  0  0  0  0  0  0  0  0
  -21.8111  -29.9780   22.5009 N   0  0  0  0  0  0  0  0  0  0  0  0
  -21.5139  -28.2897   19.3183 N   0  3  0  0  0  0  0  0  0  0  0  0
  -22.2911  -13.8661   21.4788 O   0  0  0  0  0  0  0  0  0  0  0  0
  -26.2225  -32.7675   24.7606 O   0  0  0  0  0  0  0  0  0  0  0  0
  -30.9194  -16.8547   19.6789 O   0  0  0  0  0  0  0  0  0  0  0  0
  -22.3945  -32.6943   23.2010 O   0  0  0  0  0  0  0  0  0  0  0  0
  -23.1224  -28.2770   21.6268 O   0  0  0  0  0  0  0  0  0  0  0  0
  -23.9499   -6.5238   23.4601 O   0  0  0  0  0  0  0  0  0  0  0  0
  -29.8759  -29.1178   21.4414 O   0  0  0  0  0  0  0  0  0  1  0  0
  -19.1228   -4.2347   22.0952 F   0  0  0  0  0  0  0  0  0  0  0  0
  -23.8533   -4.0837   22.1642 F   0  0  0  0  0  0  0  0  0  0  0  0
  1  2  1  0  0  0  0
  1  5  2  0  0  0  0
  2  6  2  0  0  0  0
  3  8  2  0  0  0  0
  3 17  1  0  0  0  0
  4  9  1  0  0  0  0
  4 17  2  0  0  0  0
  5 19  1  0  0  0  0
  6 21  1  0  0  0  0
  7 10  2  0  0  0  0
  7 20  1  0  0  0  0
  8 24  1  0  0  0  0
  9 24  2  0  0  0  0
 10 25  1  0  0  0  0
 11 12  2  0  0  0  0
 11 26  1  0  0  0  0
 12 27  1  0  0  0  0
 13 22  1  0  0  0  0
 13 25  2  0  0  0  0
 14 23  1  0  0  0  0
 14 30  2  0  0  0  0
 15 27  2  0  0  0  0
 15 28  1  0  0  0  0
 16 23  2  0  0  0  0
 16 68  1  0  0  0  0
 17 29  1  0  0  0  0
 18 29  1  0  0  0  0
 18 31  2  0  0  0  0
 18 36  1  0  0  0  0
 19 21  2  0  0  0  0
 19 41  1  0  0  0  0
 20 22  2  0  0  0  0
 20 42  1  0  0  0  0
 21 50  1  0  0  0  0
 22 43  1  0  0  0  0
 23 59  1  0  0  0  0
 24 82  1  0  0  0  0
 25 83  1  0  0  0  0
 26 28  2  0  0  0  0
 26 82  1  0  0  0  0
 27 84  1  0  0  0  0
 28 85  1  0  0  0  0
 29 67  2  0  0  0  0
 30 32  1  0  0  0  0
 30 68  1  0  0  0  0
 31 69  1  0  0  0  0
 31 72  1  0  0  0  0
 32 34  2  0  0  0  0
 33 35  2  0  0  0  0
 33 68  1  0  0  0  0
 34 35  1  0  0  0  0
 34 53  1  0  0  0  0
 35 60  1  0  0  0  0
 36 73  1  0  0  0  0
 36 77  2  0  0  0  0
 37 51  1  0  0  0  0
 37 74  1  0  0  0  0
 37 78  2  0  0  0  0
 38 60  1  0  0  0  0
 38 71  1  0  0  0  0
 38 79  2  0  0  0  0
 39 64  1  0  0  0  0
 39 70  1  0  0  0  0
 39 80  2  0  0  0  0
 40 65  1  0  0  0  0
 40 75  1  0  0  0  0
 40 81  2  0  0  0  0
 41 44  1  0  0  0  0
 42 51  1  0  0  0  0
 43 70  1  0  0  0  0
 44 46  1  0  0  0  0
 45 47  1  0  0  0  0
 45 48  1  0  0  0  0
 46 50  1  0  0  0  0
 47 52  1  0  0  0  0
 48 71  1  0  0  0  0
 49 52  1  0  0  0  0
 49 71  1  0  0  0  0
 50 74  1  0  0  0  0
 51 70  1  0  0  0  0
 52 69  1  0  0  0  0
 54 65  1  0  0  0  0
 55 66  1  0  0  0  0
 56 66  1  0  0  0  0
 57 66  1  0  0  0  0
 58 76  1  0  0  0  0
 59 61  1  0  0  0  0
 61 62  1  0  0  0  0
 62 63  1  0  0  0  0
 63 83  1  0  0  0  0
 64 66  1  0  0  0  0
 64 75  1  0  0  0  0
 65 76  1  0  0  0  0
 67 69  1  0  0  0  0
M  CHG  1  76   1
M  ISO  4  38 100  60 100  63 101  83 101
M  END
> <Batch ID>
0036

> <Smiles>
CNC(C)C(=O)NC(C(=O)N1Cc2cc([101O:1][101CH2:1]CCCc3cc4cc(C)c([100CH2:0][100C:0](=O)N5CCCC(n6nc(-c7ccc(Oc8ccc(F)cc8F)cc7)c(C(N)=O)c6N)C5)cn4c3)ccc2CC1C(=O)NC1CCCc2ccccc21)C(C)(C)C

> <Shape>
0.357

> <Color>
0.117

> <Negative vol penalty>
0.000

$$$$

  -OEChem-04052316563D

 84 92  0     1  0  0  0  0  0999 V2000
  -28.6726  -11.2782   19.9212 C   0  0  0  0  0  0  0  0  0  0  0  0
  -28.8474  -12.6231   19.6112 C   0  0  0  0  0  0  0  0  0  0  0  0
  -18.7824  -27.1786   20.7668 C   0  0  0  0  0  0  0  0  0  0  0  0
  -20.1854  -25.2466   20.3978 C   0  0  0  0  0  0  0  0  0  0  0  0
  -27.4051  -10.7987   20.2490 C   0  0  0  0  0  0  0  0  0  0  0  0
  -27.7546  -13.4891   19.6277 C   0  0  0  0  0  0  0  0  0  0  0  0
  -28.7836  -17.8719   21.9464 C   0  0  0  0  0  0  0  0  0  0  0  0
  -17.7310  -26.5409   20.1085 C   0  0  0  0  0  0  0  0  0  0  0  0
  -19.1339  -24.6089   19.7395 C   0  0  0  0  0  0  0  0  0  0  0  0
  -29.5127  -18.8173   21.2264 C   0  0  0  0  0  0  0  0  0  0  0  0
  -16.7074  -22.3300   18.2778 C   0  0  0  0  0  0  0  0  0  0  0  0
  -16.4571  -20.9950   18.5951 C   0  0  0  0  0  0  0  0  0  0  0  0
  -27.4699  -19.9937   20.7142 C   0  0  0  0  0  0  0  0  0  0  0  0
  -16.0578  -21.6166   20.8954 C   0  0  0  0  0  0  0  0  0  0  0  0
  -33.1095  -25.9231   19.2783 C   0  0  0  0  0  0  0  0  0  0  0  0
  -20.0097  -26.5315   20.9115 C   0  0  0  0  0  0  0  0  0  0  0  0
  -21.3925  -27.1421   22.9664 C   0  0  0  0  0  0  0  0  0  0  0  0
  -26.2979  -11.6611   20.2789 C   0  0  0  0  0  0  0  0  0  0  0  0
  -27.3887  -17.9744   22.0468 C   0  0  0  0  0  0  0  0  0  0  0  0
  -26.4708  -13.0203   19.9549 C   0  0  0  0  0  0  0  0  0  0  0  0
  -26.7257  -19.0497   21.4382 C   0  0  0  0  0  0  0  0  0  0  0  0
  -30.6742  -26.8937   19.8590 C   0  0  0  0  0  0  0  0  0  0  0  0
  -17.9068  -25.2561   19.5948 C   0  0  0  0  0  0  0  0  0  0  0  0
  -28.8556  -19.8768   20.6077 C   0  0  0  0  0  0  0  0  0  0  0  0
  -16.6330  -23.3083   19.2693 C   0  0  0  0  0  0  0  0  0  0  0  0
  -16.1323  -20.6382   19.9039 C   0  0  0  0  0  0  0  0  0  0  0  0
  -16.3081  -22.9516   20.5781 C   0  0  0  0  0  0  0  0  0  0  0  0
  -21.0963  -27.1900   21.5910 C   0  0  0  0  0  0  0  0  0  0  0  0
  -31.7889  -27.7035   19.7814 C   0  0  0  0  0  0  0  0  0  0  0  0
  -30.8927  -25.5526   19.6185 C   0  0  0  0  0  0  0  0  0  0  0  0
  -22.5111  -27.9270   23.1043 C   0  0  0  0  0  0  0  0  0  0  0  0
  -20.7168  -26.4499   24.0247 C   0  0  0  0  0  0  0  0  0  0  0  0
  -24.9362  -16.1611   21.1519 C   0  0  0  0  0  0  0  0  0  0  0  0
  -23.2104  -18.3706   22.7835 C   0  0  0  0  0  0  0  0  0  0  0  0
  -22.9876  -21.5511   24.0009 C   0  0  0  0  0  0  0  0  0  0  0  0
  -26.8761  -29.5054   19.3219 C   0  0  0  0  0  0  0  0  0  0  0  0
  -24.9389  -11.0872   20.5930 C   0  0  0  0  0  0  0  0  0  0  0  0
  -26.6196  -16.9612   22.8495 C   0  0  0  0  0  0  0  0  0  0  0  0
  -25.2318  -19.2163   21.5328 C   0  0  0  0  0  0  0  0  0  0  0  0
  -23.8992  -12.1453   20.9527 C   0  0  0  0  0  0  0  0  0  0  0  0
  -24.7155  -31.6849   21.1270 C   0  0  0  0  0  0  0  0  0  0  0  0
  -23.9476  -13.3010   19.9583 C   0  0  0  0  0  0  0  0  0  0  0  0
  -23.5697  -30.7757   21.5747 C   0  0  0  0  0  0  0  0  0  0  0  0
  -25.2270  -31.3063   19.7388 C   0  0  0  0  0  0  0  0  0  0  0  0
  -24.4644  -28.9812   20.0327 C   0  0  0  0  0  0  0  0  0  0  0  0
  -25.3143  -13.9958   19.9860 C   0  0  1  0  0  0  0  0  0  0  0  0
  -25.1482  -16.8785   22.4550 C   0  0  1  0  0  0  0  0  0  0  0  0
  -23.9524  -29.2887   21.4503 C   0  0  2  0  0  0  0  0  0  0  0  0
  -32.9255  -29.9298   19.5859 C   0  0  0  0  0  0  0  0  0  0  0  0
  -21.4408  -23.0750   25.2587 C   0  0  0  0  0  0  0  0  0  0  0  0
  -21.5128  -18.7165   20.2718 C   0  0  0  0  0  0  0  0  0  0  0  0
  -20.6418  -20.8551   21.2394 C   0  0  0  0  0  0  0  0  0  0  0  0
  -20.2179  -18.6941   22.4112 C   0  0  0  0  0  0  0  0  0  0  0  0
  -24.9323  -21.8961   26.2051 C   0  0  0  0  0  0  0  0  0  0  0  0
  -29.3251  -27.4314   20.1809 C   0  0  0  0  0  0  0  0  0  0  0  0
  -31.6747  -29.1729   20.0223 C   0  0  0  0  0  0  0  0  0  0  0  0
  -29.7500  -24.5705   19.6752 C   0  0  0  0  0  0  0  0  0  0  0  0
  -30.1966  -23.1075   19.7148 C   0  0  0  0  0  0  0  0  0  0  0  0
  -28.4159  -27.5940   18.9550 C   0  0  0  0  0  0  0  0  0  0  0  0
  -29.0388  -22.1264   19.8583 C   0  0  0  0  0  0  0  0  0  1  0  0
  -22.5459  -19.6800   22.4330 C   0  0  1  0  0  0  0  0  0  0  0  0
  -22.5871  -22.0814   25.3657 C   0  0  2  0  0  0  0  0  0  0  0  0
  -21.2576  -19.4825   21.5853 C   0  0  0  0  0  0  0  0  0  0  0  0
  -33.0263  -27.2500   19.4923 N   0  0  0  0  0  0  0  0  0  0  0  0
  -32.1017  -25.0310   19.3241 N   0  0  0  0  0  0  0  0  0  0  0  0
  -21.9572  -27.9457   20.9042 N   0  0  0  0  0  0  0  0  0  0  0  0
  -22.8053  -28.3800   21.8519 N   0  0  0  0  0  0  0  0  0  0  0  0
  -24.5234  -18.1963   22.3235 N   0  0  0  0  0  0  0  0  0  0  0  0
  -25.5740  -29.8840   19.6883 N   0  0  0  0  0  0  0  0  0  0  0  0
  -23.2619  -28.2671   24.1734 N   0  0  0  0  0  0  0  0  0  0  0  0
  -19.5836  -25.6883   23.7084 N   0  0  0  0  0  0  0  0  0  0  0  0
  -25.4160  -14.8654   21.1384 N   0  0  0  0  0  0  0  0  0  0  0  0
  -22.3293  -20.3787   23.6953 N   0  0  0  0  0  0  0  0  0  0  0  0
  -27.1229  -28.1381   19.3055 N   0  0  0  0  0  0  0  0  0  0  0  0
  -23.7416  -22.7640   26.0154 N   0  3  0  0  0  0  0  0  0  0  0  0
  -21.0969  -26.5183   25.2182 O   0  0  0  0  0  0  0  0  0  0  0  0
  -24.3772  -16.7399   20.2276 O   0  0  0  0  0  0  0  0  0  0  0  0
  -22.5900  -17.5363   23.4473 O   0  0  0  0  0  0  0  0  0  0  0  0
  -23.8002  -22.1218   23.2767 O   0  0  0  0  0  0  0  0  0  0  0  0
  -27.7552  -30.3255   19.0362 O   0  0  0  0  0  0  0  0  0  0  0  0
  -16.8809  -24.6334   18.9525 O   0  0  0  0  0  0  0  0  0  0  0  0
  -29.5647  -20.8006   19.9038 O   0  0  0  0  0  0  0  0  0  1  0  0
  -15.8904  -19.3564   20.2081 F   0  0  0  0  0  0  0  0  0  0  0  0
  -16.2340  -23.8872   21.5346 F   0  0  0  0  0  0  0  0  0  0  0  0
  1  2  1  0  0  0  0
  1  5  2  0  0  0  0
  2  6  2  0  0  0  0
  3  8  2  0  0  0  0
  3 16  1  0  0  0  0
  4  9  1  0  0  0  0
  4 16  2  0  0  0  0
  5 18  1  0  0  0  0
  6 20  1  0  0  0  0
  7 10  2  0  0  0  0
  7 19  1  0  0  0  0
  8 23  1  0  0  0  0
  9 23  2  0  0  0  0
 10 24  1  0  0  0  0
 11 12  2  0  0  0  0
 11 25  1  0  0  0  0
 12 26  1  0  0  0  0
 13 21  1  0  0  0  0
 13 24  2  0  0  0  0
 14 26  2  0  0  0  0
 14 27  1  0  0  0  0
 15 64  2  0  0  0  0
 15 65  1  0  0  0  0
 16 28  1  0  0  0  0
 17 28  1  0  0  0  0
 17 31  2  0  0  0  0
 17 32  1  0  0  0  0
 18 20  2  0  0  0  0
 18 37  1  0  0  0  0
 19 21  2  0  0  0  0
 19 38  1  0  0  0  0
 20 46  1  0  0  0  0
 21 39  1  0  0  0  0
 22 29  2  0  0  0  0
 22 30  1  0  0  0  0
 22 55  1  0  0  0  0
 23 81  1  0  0  0  0
 24 82  1  0  0  0  0
 25 27  2  0  0  0  0
 25 81  1  0  0  0  0
 26 83  1  0  0  0  0
 27 84  1  0  0  0  0
 28 66  2  0  0  0  0
 29 56  1  0  0  0  0
 29 64  1  0  0  0  0
 30 57  1  0  0  0  0
 30 65  2  0  0  0  0
 31 67  1  0  0  0  0
 31 70  1  0  0  0  0
 32 71  1  0  0  0  0
 32 76  2  0  0  0  0
 33 47  1  0  0  0  0
 33 72  1  0  0  0  0
 33 77  2  0  0  0  0
 34 61  1  0  0  0  0
 34 68  1  0  0  0  0
 34 78  2  0  0  0  0
 35 62  1  0  0  0  0
 35 73  1  0  0  0  0
 35 79  2  0  0  0  0
 36 69  1  0  0  0  0
 36 74  1  0  0  0  0
 36 80  2  0  0  0  0
 37 40  1  0  0  0  0
 38 47  1  0  0  0  0
 39 68  1  0  0  0  0
 40 42  1  0  0  0  0
 41 43  1  0  0  0  0
 41 44  1  0  0  0  0
 42 46  1  0  0  0  0
 43 48  1  0  0  0  0
 44 69  1  0  0  0  0
 45 48  1  0  0  0  0
 45 69  1  0  0  0  0
 46 72  1  0  0  0  0
 47 68  1  0  0  0  0
 48 67  1  0  0  0  0
 49 56  1  0  0  0  0
 50 62  1  0  0  0  0
 51 63  1  0  0  0  0
 52 63  1  0  0  0  0
 53 63  1  0  0  0  0
 54 75  1  0  0  0  0
 55 59  1  0  0  0  0
 57 58  1  0  0  0  0
 58 60  1  0  0  0  0
 59 74  1  0  0  0  0
 60 82  1  0  0  0  0
 61 63  1  0  0  0  0
 61 73  1  0  0  0  0
 62 75  1  0  0  0  0
 66 67  1  0  0  0  0
M  CHG  1  75   1
M  ISO  4  36 100  60 101  74 100  82 101
M  END
> <Batch ID>
0036

> <Smiles>
CCc1ncnc(CC[101CH2:1][101O:1]c2ccc3c(c2)CN(C(=O)C(NC(=O)C(C)NC)C(C)(C)C)C(C(=O)NC2CCCc4ccccc42)C3)c1CC[100NH:0][100C:0](=O)N1CCCC(n2nc(-c3ccc(Oc4ccc(F)cc4F)cc3)c(C(N)=O)c2N)C1

> <Shape>
0.219

> <Color>
0.068

> <Negative vol penalty>
0.000

$$$$

  -OEChem-04052316563D

 86 95  0     1  0  0  0  0  0999 V2000
  -18.5984  -25.0373   21.8727 C   0  0  0  0  0  0  0  0  0  0  0  0
  -19.8989  -25.1780   21.3993 C   0  0  0  0  0  0  0  0  0  0  0  0
  -25.5188  -17.7778   18.9003 C   0  0  0  0  0  0  0  0  0  0  0  0
  -25.0827  -16.3803   16.9784 C   0  0  0  0  0  0  0  0  0  0  0  0
  -17.8392  -26.1687   22.1686 C   0  0  0  0  0  0  0  0  0  0  0  0
  -20.4407  -26.4504   21.2204 C   0  0  0  0  0  0  0  0  0  0  0  0
  -25.1672  -26.8173   23.0011 C   0  0  0  0  0  0  0  0  0  0  0  0
  -25.2917  -18.9149   18.1251 C   0  0  0  0  0  0  0  0  0  0  0  0
  -24.8555  -17.5174   16.2031 C   0  0  0  0  0  0  0  0  0  0  0  0
  -26.1868  -26.2806   22.2162 C   0  0  0  0  0  0  0  0  0  0  0  0
  -24.4732  -22.1749   16.7402 C   0  0  0  0  0  0  0  0  0  0  0  0
  -23.6795  -23.1838   17.2858 C   0  0  0  0  0  0  0  0  0  0  0  0
  -26.7160  -28.4896   21.4040 C   0  0  0  0  0  0  0  0  0  0  0  0
  -21.8365  -21.6328   17.4728 C   0  0  0  0  0  0  0  0  0  0  0  0
  -30.7354  -21.2367   18.0010 C   0  0  0  0  0  0  0  0  0  0  0  0
  -25.4144  -16.5105   18.3269 C   0  0  0  0  0  0  0  0  0  0  0  0
  -24.6998  -14.6093   19.8704 C   0  0  0  0  0  0  0  0  0  0  0  0
  -18.3753  -27.4554   22.0023 C   0  0  0  0  0  0  0  0  0  0  0  0
  -24.9068  -28.1951   22.9851 C   0  0  0  0  0  0  0  0  0  0  0  0
  -19.6875  -27.6001   21.5130 C   0  0  0  0  0  0  0  0  0  0  0  0
  -25.6942  -29.0416   22.1917 C   0  0  0  0  0  0  0  0  0  0  0  0
  -24.9600  -18.7847   16.7765 C   0  0  0  0  0  0  0  0  0  0  0  0
  -26.9595  -27.1164   21.4153 C   0  0  0  0  0  0  0  0  0  0  0  0
  -23.9486  -20.8949   16.5608 C   0  0  0  0  0  0  0  0  0  0  0  0
  -22.3612  -22.9128   17.6521 C   0  0  0  0  0  0  0  0  0  0  0  0
  -22.6302  -20.6239   16.9272 C   0  0  0  0  0  0  0  0  0  0  0  0
  -25.6494  -15.3355   19.1271 C   0  0  0  0  0  0  0  0  0  0  0  0
  -30.9275  -19.9806   18.5135 C   0  0  0  0  0  0  0  0  0  0  0  0
  -29.6186  -21.0906   17.1590 C   0  0  0  0  0  0  0  0  0  0  0  0
  -25.4199  -13.5912   20.4462 C   0  0  0  0  0  0  0  0  0  0  0  0
  -31.8813  -19.4182   19.4305 C   0  0  0  0  0  0  0  0  0  0  0  0
  -29.9352  -17.8201   18.3465 C   0  0  0  0  0  0  0  0  0  0  0  0
  -30.8636  -17.3627   19.2132 C   0  0  0  0  0  0  0  0  0  0  0  0
  -23.2924  -14.8347   20.0264 C   0  0  0  0  0  0  0  0  0  0  0  0
  -22.4214  -29.9989   22.1646 C   0  0  0  0  0  0  0  0  0  0  0  0
  -24.2604  -32.3906   23.3564 C   0  0  0  0  0  0  0  0  0  0  0  0
  -27.3820  -33.5402   24.1183 C   0  0  0  0  0  0  0  0  0  0  0  0
  -30.3774  -15.0662   18.6863 C   0  0  0  0  0  0  0  0  0  0  0  0
  -17.5000  -28.6493   22.2906 C   0  0  0  0  0  0  0  0  0  0  0  0
  -23.8208  -28.7618   23.8579 C   0  0  0  0  0  0  0  0  0  0  0  0
  -25.4684  -30.5302   22.1543 C   0  0  0  0  0  0  0  0  0  0  0  0
  -18.2778  -29.9556   22.4290 C   0  0  0  0  0  0  0  0  0  0  0  0
  -28.7372  -11.9725   18.1492 C   0  0  0  0  0  0  0  0  0  0  0  0
  -19.2883  -30.0979   21.2953 C   0  0  0  0  0  0  0  0  0  0  0  0
  -28.0224  -11.6726   19.4629 C   0  0  0  0  0  0  0  0  0  0  0  0
  -30.0861  -12.6272   18.4066 C   0  0  0  0  0  0  0  0  0  0  0  0
  -29.2476  -13.6727   20.4980 C   0  0  0  0  0  0  0  0  0  0  0  0
  -20.3190  -28.9630   21.3293 C   0  0  1  0  0  0  0  0  0  0  0  0
  -23.3083  -30.1140   23.3720 C   0  0  1  0  0  0  0  0  0  0  0  0
  -27.9129  -12.9012   20.3814 C   0  0  1  0  0  0  0  0  0  0  0  0
  -28.5705  -35.5466   25.0452 C   0  0  0  0  0  0  0  0  0  0  0  0
  -23.8655  -33.8467   20.7042 C   0  0  0  0  0  0  0  0  0  0  0  0
  -25.7898  -35.3288   21.3113 C   0  0  0  0  0  0  0  0  0  0  0  0
  -23.7364  -35.3109   22.7275 C   0  0  0  0  0  0  0  0  0  0  0  0
  -31.5231  -15.7193   20.8533 C   0  0  0  0  0  0  0  0  0  0  0  0
  -28.4704  -31.9896   26.3921 C   0  0  0  0  0  0  0  0  0  0  0  0
  -28.9550  -22.1596   16.3278 C   0  0  0  0  0  0  0  0  0  0  0  0
  -29.0634  -23.5665   16.9266 C   0  0  0  0  0  0  0  0  0  0  0  0
  -28.3553  -23.6987   18.2787 C   0  0  0  0  0  0  0  0  0  0  0  0
  -28.5149  -25.1058   18.8516 C   0  0  0  0  0  0  0  0  0  0  0  0
  -27.7794  -25.2600   20.1753 C   0  0  0  0  0  0  0  0  0  1  0  0
  -25.3001  -33.3251   22.7865 C   0  0  1  0  0  0  0  0  0  0  0  0
  -27.9342  -34.2034   25.3672 C   0  0  2  0  0  0  0  0  0  0  0  0
  -24.6762  -34.4246   21.8814 C   0  0  0  0  0  0  0  0  0  0  0  0
  -26.8791  -14.8225   19.2204 N   0  0  0  0  0  0  0  0  0  0  0  0
  -29.1376  -19.8443   17.1356 N   0  0  0  0  0  0  0  0  0  0  0  0
  -31.8559  -18.1598   19.7713 N   0  0  0  0  0  0  0  0  0  0  0  0
  -29.9523  -19.1614   17.9763 N   0  0  0  0  0  0  0  0  0  0  0  0
  -26.7071  -13.7631   20.0292 N   0  0  0  0  0  0  0  0  0  0  0  0
  -24.3906  -31.0356   23.0206 N   0  0  0  0  0  0  0  0  0  0  0  0
  -29.9551  -13.8363   19.2189 N   0  0  0  0  0  0  0  0  0  0  0  0
  -25.0714  -12.5748   21.2634 N   0  0  0  0  0  0  0  0  0  0  0  0
  -22.7133  -15.9262   19.3651 N   0  0  0  0  0  0  0  0  0  0  0  0
  -21.3058  -29.2072   22.3594 N   0  0  0  0  0  0  0  0  0  0  0  0
  -26.0509  -33.8434   23.9250 N   0  0  0  0  0  0  0  0  0  0  0  0
  -30.8545  -16.0349   19.5867 N   0  0  0  0  0  0  0  0  0  0  0  0
  -28.9655  -33.3349   26.0021 N   0  3  0  0  0  0  0  0  0  0  0  0
  -22.5730  -14.0997   20.7446 O   0  0  0  0  0  0  0  0  0  0  0  0
  -22.7260  -30.5861   21.1330 O   0  0  0  0  0  0  0  0  0  0  0  0
  -23.3698  -32.8451   24.0788 O   0  0  0  0  0  0  0  0  0  0  0  0
  -28.0644  -32.8276   23.3854 O   0  0  0  0  0  0  0  0  0  0  0  0
  -30.3314  -15.2832   17.4674 O   0  0  0  0  0  0  0  0  0  0  0  0
  -24.7381  -19.8941   16.0198 O   0  0  0  0  0  0  0  0  0  0  0  0
  -27.9549  -26.5951   20.6476 O   0  0  0  0  0  0  0  0  0  1  0  0
  -21.5996  -23.8813   18.1775 F   0  0  0  0  0  0  0  0  0  0  0  0
  -22.1210  -19.3959   16.7583 F   0  0  0  0  0  0  0  0  0  0  0  0
  1  2  1  0  0  0  0
  1  5  2  0  0  0  0
  2  6  2  0  0  0  0
  3  8  2  0  0  0  0
  3 16  1  0  0  0  0
  4  9  1  0  0  0  0
  4 16  2  0  0  0  0
  5 18  1  0  0  0  0
  6 20  1  0  0  0  0
  7 10  2  0  0  0  0
  7 19  1  0  0  0  0
  8 22  1  0  0  0  0
  9 22  2  0  0  0  0
 10 23  1  0  0  0  0
 11 12  2  0  0  0  0
 11 24  1  0  0  0  0
 12 25  1  0  0  0  0
 13 21  1  0  0  0  0
 13 23  2  0  0  0  0
 14 25  2  0  0  0  0
 14 26  1  0  0  0  0
 15 28  2  0  0  0  0
 15 29  1  0  0  0  0
 16 27  1  0  0  0  0
 17 27  1  0  0  0  0
 17 30  2  0  0  0  0
 17 34  1  0  0  0  0
 18 20  2  0  0  0  0
 18 39  1  0  0  0  0
 19 21  2  0  0  0  0
 19 40  1  0  0  0  0
 20 48  1  0  0  0  0
 21 41  1  0  0  0  0
 22 83  1  0  0  0  0
 23 84  1  0  0  0  0
 24 26  2  0  0  0  0
 24 83  1  0  0  0  0
 25 85  1  0  0  0  0
 26 86  1  0  0  0  0
 27 65  2  0  0  0  0
 28 31  1  0  0  0  0
 28 68  1  0  0  0  0
 29 57  1  0  0  0  0
 29 66  2  0  0  0  0
 30 69  1  0  0  0  0
 30 72  1  0  0  0  0
 31 67  2  0  0  0  0
 32 33  2  0  0  0  0
 32 68  1  0  0  0  0
 33 67  1  0  0  0  0
 33 76  1  0  0  0  0
 34 73  1  0  0  0  0
 34 78  2  0  0  0  0
 35 49  1  0  0  0  0
 35 74  1  0  0  0  0
 35 79  2  0  0  0  0
 36 62  1  0  0  0  0
 36 70  1  0  0  0  0
 36 80  2  0  0  0  0
 37 63  1  0  0  0  0
 37 75  1  0  0  0  0
 37 81  2  0  0  0  0
 38 71  1  0  0  0  0
 38 76  1  0  0  0  0
 38 82  2  0  0  0  0
 39 42  1  0  0  0  0
 40 49  1  0  0  0  0
 41 70  1  0  0  0  0
 42 44  1  0  0  0  0
 43 45  1  0  0  0  0
 43 46  1  0  0  0  0
 44 48  1  0  0  0  0
 45 50  1  0  0  0  0
 46 71  1  0  0  0  0
 47 50  1  0  0  0  0
 47 71  1  0  0  0  0
 48 74  1  0  0  0  0
 49 70  1  0  0  0  0
 50 69  1  0  0  0  0
 51 63  1  0  0  0  0
 52 64  1  0  0  0  0
 53 64  1  0  0  0  0
 54 64  1  0  0  0  0
 55 76  1  0  0  0  0
 56 77  1  0  0  0  0
 57 58  1  0  0  0  0
 58 59  1  0  0  0  0
 59 60  1  0  0  0  0
 60 61  1  0  0  0  0
 61 84  1  0  0  0  0
 62 64  1  0  0  0  0
 62 75  1  0  0  0  0
 63 77  1  0  0  0  0
 65 69  1  0  0  0  0
 66 68  1  0  0  0  0
M  CHG  1  77   1
M  ISO  4  38 100  61 101  76 100  84 101
M  END
> <Batch ID>
0036

> <Smiles>
CNC(C)C(=O)NC(C(=O)N1Cc2cc([101O:1][101CH2:1]CCCCc3cc4cnc([100N:0](C)[100C:0](=O)N5CCCC(n6nc(-c7ccc(Oc8ccc(F)cc8F)cc7)c(C(N)=O)c6N)C5)cn4n3)ccc2CC1C(=O)NC1CCCc2ccccc21)C(C)(C)C

> <Shape>
0.259

> <Color>
0.096

> <Negative vol penalty>
0.000

$$$$

  -OEChem-04052316563D

 84 92  0     1  0  0  0  0  0999 V2000
  -25.6380  -35.8742   26.4456 C   0  0  0  0  0  0  0  0  0  0  0  0
  -25.0328  -35.7692   25.1974 C   0  0  0  0  0  0  0  0  0  0  0  0
  -22.9522   -9.9549   20.0441 C   0  0  0  0  0  0  0  0  0  0  0  0
  -24.3973   -9.3806   21.8932 C   0  0  0  0  0  0  0  0  0  0  0  0
  -26.8207  -35.1834   26.7060 C   0  0  0  0  0  0  0  0  0  0  0  0
  -25.6107  -34.9740   24.2083 C   0  0  0  0  0  0  0  0  0  0  0  0
  -21.9785  -29.4949   21.2627 C   0  0  0  0  0  0  0  0  0  0  0  0
  -21.9461   -9.1516   20.5808 C   0  0  0  0  0  0  0  0  0  0  0  0
  -23.3911   -8.5773   22.4300 C   0  0  0  0  0  0  0  0  0  0  0  0
  -21.2743  -28.5615   20.5017 C   0  0  0  0  0  0  0  0  0  0  0  0
  -22.1096   -5.4956   21.8900 C   0  0  0  0  0  0  0  0  0  0  0  0
  -22.4693   -4.2309   22.3557 C   0  0  0  0  0  0  0  0  0  0  0  0
  -23.2752  -28.0676   19.2365 C   0  0  0  0  0  0  0  0  0  0  0  0
  -21.6920   -4.8234   24.5652 C   0  0  0  0  0  0  0  0  0  0  0  0
  -24.1778  -10.0693   20.7003 C   0  0  0  0  0  0  0  0  0  0  0  0
  -25.8352  -10.7608   18.8884 C   0  0  0  0  0  0  0  0  0  0  0  0
  -27.4083  -34.3718   25.7229 C   0  0  0  0  0  0  0  0  0  0  0  0
  -23.3390  -29.7073   21.0234 C   0  0  0  0  0  0  0  0  0  0  0  0
  -26.8032  -34.2728   24.4554 C   0  0  0  0  0  0  0  0  0  0  0  0
  -23.9887  -28.9922   20.0039 C   0  0  0  0  0  0  0  0  0  0  0  0
  -22.1656   -8.4628   21.7738 C   0  0  0  0  0  0  0  0  0  0  0  0
  -21.9211  -27.8499   19.4910 C   0  0  0  0  0  0  0  0  0  0  0  0
  -21.5412   -6.4242   22.7619 C   0  0  0  0  0  0  0  0  0  0  0  0
  -22.2605   -3.8948   23.6933 C   0  0  0  0  0  0  0  0  0  0  0  0
  -21.3323   -6.0881   24.0995 C   0  0  0  0  0  0  0  0  0  0  0  0
  -25.2177  -10.8985   20.1460 C   0  0  0  0  0  0  0  0  0  0  0  0
  -26.7479  -11.7860   18.8399 C   0  0  0  0  0  0  0  0  0  0  0  0
  -25.6042   -9.7927   17.8563 C   0  0  0  0  0  0  0  0  0  0  0  0
  -26.4630  -31.5529   21.9776 C   0  0  0  0  0  0  0  0  0  0  0  0
  -26.9920  -17.0786   21.6756 C   0  0  0  0  0  0  0  0  0  0  0  0
  -27.2820  -28.6535   21.4007 C   0  0  0  0  0  0  0  0  0  0  0  0
  -27.7008  -25.2826   21.0865 C   0  0  0  0  0  0  0  0  0  0  0  0
  -28.7124  -33.6817   26.0354 C   0  0  0  0  0  0  0  0  0  0  0  0
  -24.1226  -30.7471   21.7775 C   0  0  0  0  0  0  0  0  0  0  0  0
  -25.4450  -29.2786   19.7590 C   0  0  0  0  0  0  0  0  0  0  0  0
  -29.0598  -32.5635   25.0560 C   0  0  0  0  0  0  0  0  0  0  0  0
  -29.4874  -14.5071   21.6522 C   0  0  0  0  0  0  0  0  0  0  0  0
  -28.8524  -33.0295   23.6184 C   0  0  0  0  0  0  0  0  0  0  0  0
  -21.3491  -22.8192   18.0995 C   0  0  0  0  0  0  0  0  0  0  0  0
  -21.7140  -22.9298   20.5957 C   0  0  0  0  0  0  0  0  0  0  0  0
  -21.0093  -24.3085   18.0832 C   0  0  0  0  0  0  0  0  0  0  0  0
  -21.3741  -24.4190   20.5795 C   0  0  0  0  0  0  0  0  0  0  0  0
  -28.7249  -13.2713   21.1763 C   0  0  0  0  0  0  0  0  0  0  0  0
  -28.6089  -15.4070   22.5156 C   0  0  0  0  0  0  0  0  0  0  0  0
  -26.5684  -14.5875   21.3815 C   0  0  0  0  0  0  0  0  0  0  0  0
  -27.3863  -33.4006   23.3648 C   0  0  1  0  0  0  0  0  0  0  0  0
  -25.5851  -30.3371   22.0272 C   0  0  1  0  0  0  0  0  0  0  0  0
  -22.2954  -22.4663   19.2540 C   0  0  0  0  0  0  0  0  0  0  0  0
  -20.4279  -24.7719   19.4249 C   0  0  0  0  0  0  0  0  0  0  0  0
  -27.4103  -13.6667   20.4806 C   0  0  2  0  0  0  0  0  0  0  0  0
  -18.5610  -28.0722   18.5718 C   0  0  0  0  0  0  0  0  0  0  0  0
  -29.4651  -23.5002   21.1739 C   0  0  0  0  0  0  0  0  0  0  0  0
  -28.2730  -29.5044   18.6443 C   0  0  0  0  0  0  0  0  0  0  0  0
  -29.2900  -27.2313   18.3864 C   0  0  0  0  0  0  0  0  0  0  0  0
  -30.0689  -28.7445   20.2102 C   0  0  0  0  0  0  0  0  0  0  0  0
  -26.3694  -23.9128   23.3470 C   0  0  0  0  0  0  0  0  0  0  0  0
  -25.6948  -17.3445   20.9540 C   0  0  0  0  0  0  0  0  0  0  0  0
  -22.5800  -20.9658   19.2789 C   0  0  0  0  0  0  0  0  0  0  0  0
  -18.8476  -26.5781   18.6451 C   0  0  0  0  0  0  0  0  0  0  0  0
  -25.4186  -18.8418   20.8597 C   0  0  0  0  0  0  0  0  0  0  0  0
  -23.8728  -20.6607   20.0297 C   0  0  0  0  0  0  0  0  0  0  0  0
  -24.1374  -19.1545   20.0805 C   0  0  0  0  0  0  0  0  0  0  0  0
  -27.7914  -27.6609   20.3865 C   0  0  1  0  0  0  0  0  0  0  0  0
  -28.4170  -24.2703   21.9621 C   0  0  2  0  0  0  0  0  0  0  0  0
  -20.1431  -26.2724   19.4001 C   0  0  2  0  0  0  0  0  0  1  0  0
  -28.8280  -28.2882   19.4122 C   0  0  0  0  0  0  0  0  0  0  0  0
  -25.6978  -11.9299   20.8460 N   0  0  0  0  0  0  0  0  0  0  0  0
  -26.6266  -12.4494   20.0254 N   0  0  0  0  0  0  0  0  0  0  0  0
  -26.1551  -29.4029   21.0416 N   0  0  0  0  0  0  0  0  0  0  0  0
  -27.3603  -15.7418   21.8285 N   0  0  0  0  0  0  0  0  0  0  0  0
  -27.6344  -12.1756   17.8993 N   0  0  0  0  0  0  0  0  0  0  0  0
  -26.3495   -8.6059   17.8746 N   0  0  0  0  0  0  0  0  0  0  0  0
  -26.5863  -32.2076   23.1882 N   0  0  0  0  0  0  0  0  0  0  0  0
  -28.2983  -26.5238   21.1472 N   0  0  0  0  0  0  0  0  0  0  0  0
  -27.4435  -23.2942   22.5281 N   0  3  0  0  0  0  0  0  0  0  0  0
  -24.7737   -9.9820   16.9355 O   0  0  0  0  0  0  0  0  0  0  0  0
  -26.9915  -31.8738   20.9195 O   0  0  0  0  0  0  0  0  0  0  0  0
  -27.6581  -18.0318   22.0877 O   0  0  0  0  0  0  0  0  0  0  0  0
  -27.8688  -28.7675   22.4805 O   0  0  0  0  0  0  0  0  0  0  0  0
  -26.7125  -24.9995   20.4129 O   0  0  0  0  0  0  0  0  0  0  0  0
  -21.1839   -7.6791   22.2979 O   0  0  0  0  0  0  0  0  0  0  0  0
  -21.2287  -26.9369   18.7548 O   0  0  0  0  0  0  0  0  0  1  0  0
  -22.6045   -2.6798   24.1400 F   0  0  0  0  0  0  0  0  0  0  0  0
  -20.7856   -6.9757   24.9416 F   0  0  0  0  0  0  0  0  0  0  0  0
  1  2  1  0  0  0  0
  1  5  2  0  0  0  0
  2  6  2  0  0  0  0
  3  8  2  0  0  0  0
  3 15  1  0  0  0  0
  4  9  1  0  0  0  0
  4 15  2  0  0  0  0
  5 17  1  0  0  0  0
  6 19  1  0  0  0  0
  7 10  2  0  0  0  0
  7 18  1  0  0  0  0
  8 21  1  0  0  0  0
  9 21  2  0  0  0  0
 10 22  1  0  0  0  0
 11 12  2  0  0  0  0
 11 23  1  0  0  0  0
 12 24  1  0  0  0  0
 13 20  1  0  0  0  0
 13 22  2  0  0  0  0
 14 24  2  0  0  0  0
 14 25  1  0  0  0  0
 15 26  1  0  0  0  0
 16 26  1  0  0  0  0
 16 27  2  0  0  0  0
 16 28  1  0  0  0  0
 17 19  2  0  0  0  0
 17 33  1  0  0  0  0
 18 20  2  0  0  0  0
 18 34  1  0  0  0  0
 19 46  1  0  0  0  0
 20 35  1  0  0  0  0
 21 81  1  0  0  0  0
 22 82  1  0  0  0  0
 23 25  2  0  0  0  0
 23 81  1  0  0  0  0
 24 83  1  0  0  0  0
 25 84  1  0  0  0  0
 26 67  2  0  0  0  0
 27 68  1  0  0  0  0
 27 71  1  0  0  0  0
 28 72  1  0  0  0  0
 28 76  2  0  0  0  0
 29 47  1  0  0  0  0
 29 73  1  0  0  0  0
 29 77  2  0  0  0  0
 30 57  1  0  0  0  0
 30 70  1  0  0  0  0
 30 78  2  0  0  0  0
 31 63  1  0  0  0  0
 31 69  1  0  0  0  0
 31 79  2  0  0  0  0
 32 64  1  0  0  0  0
 32 74  1  0  0  0  0
 32 80  2  0  0  0  0
 33 36  1  0  0  0  0
 34 47  1  0  0  0  0
 35 69  1  0  0  0  0
 36 38  1  0  0  0  0
 37 43  1  0  0  0  0
 37 44  1  0  0  0  0
 38 46  1  0  0  0  0
 39 41  1  0  0  0  0
 39 48  1  0  0  0  0
 40 42  1  0  0  0  0
 40 48  1  0  0  0  0
 41 49  1  0  0  0  0
 42 49  1  0  0  0  0
 43 50  1  0  0  0  0
 44 70  1  0  0  0  0
 45 50  1  0  0  0  0
 45 70  1  0  0  0  0
 46 73  1  0  0  0  0
 47 69  1  0  0  0  0
 48 58  1  0  0  0  0
 49 65  1  0  0  0  0
 50 68  1  0  0  0  0
 51 59  1  0  0  0  0
 52 64  1  0  0  0  0
 53 66  1  0  0  0  0
 54 66  1  0  0  0  0
 55 66  1  0  0  0  0
 56 75  1  0  0  0  0
 57 60  1  0  0  0  0
 58 61  1  0  0  0  0
 59 65  1  0  0  0  0
 60 62  1  0  0  0  0
 61 62  1  0  0  0  0
 63 66  1  0  0  0  0
 63 74  1  0  0  0  0
 64 75  1  0  0  0  0
 65 82  1  0  0  0  0
 67 68  1  0  0  0  0
M  CHG  1  75   1
M  ISO  4  30 100  57 100  65 101  82 101
M  END
> <Batch ID>
0036

> <Smiles>
CC[101CH:1](C1CCC(CCCC[100CH2:0][100C:0](=O)N2CCCC(n3nc(-c4ccc(Oc5ccc(F)cc5F)cc4)c(C(N)=O)c3N)C2)CC1)[101O:1]c1ccc2c(c1)CN(C(=O)C(NC(=O)C(C)NC)C(C)(C)C)C(C(=O)NC1CCCc3ccccc31)C2

> <Shape>
0.271

> <Color>
0.074

> <Negative vol penalty>
0.000

$$$$
