
  -OEChem-04052316593D

 85 93  0     1  0  0  0  0  0999 V2000
  -22.6750  -28.5859   24.1341 C   0  0  0  0  0  0  0  0  0  0  0  0
  -22.7201  -27.2193   24.3909 C   0  0  0  0  0  0  0  0  0  0  0  0
  -26.5687  -28.1402   18.6138 C   0  0  0  0  0  0  0  0  0  0  0  0
  -26.1643  -27.4347   20.8889 C   0  0  0  0  0  0  0  0  0  0  0  0
  -21.5732  -29.1349   23.4794 C   0  0  0  0  0  0  0  0  0  0  0  0
  -21.6630  -26.4012   23.9940 C   0  0  0  0  0  0  0  0  0  0  0  0
  -22.0257  -20.6141   22.0231 C   0  0  0  0  0  0  0  0  0  0  0  0
  -26.1742  -29.4363   18.9456 C   0  0  0  0  0  0  0  0  0  0  0  0
  -25.7698  -28.7308   21.2207 C   0  0  0  0  0  0  0  0  0  0  0  0
  -21.8259  -19.3913   22.6622 C   0  0  0  0  0  0  0  0  0  0  0  0
  -27.2578  -31.6817   21.9270 C   0  0  0  0  0  0  0  0  0  0  0  0
  -27.7547  -32.2255   23.1114 C   0  0  0  0  0  0  0  0  0  0  0  0
  -19.5592  -19.3380   21.8387 C   0  0  0  0  0  0  0  0  0  0  0  0
  -23.0431  -13.4733   21.2552 C   0  0  0  0  0  0  0  0  0  0  0  0
  -24.3222  -15.1263   22.4670 C   0  0  0  0  0  0  0  0  0  0  0  0
  -25.4998  -32.4802   23.9406 C   0  0  0  0  0  0  0  0  0  0  0  0
  -26.5637  -27.1393   19.5854 C   0  0  0  0  0  0  0  0  0  0  0  0
  -28.2706  -25.2639   19.3081 C   0  0  0  0  0  0  0  0  0  0  0  0
  -20.5065  -28.3216   23.0656 C   0  0  0  0  0  0  0  0  0  0  0  0
  -20.9885  -21.2144   21.2948 C   0  0  0  0  0  0  0  0  0  0  0  0
  -20.5454  -26.9401   23.3343 C   0  0  0  0  0  0  0  0  0  0  0  0
  -19.7491  -20.5672   21.1891 C   0  0  0  0  0  0  0  0  0  0  0  0
  -23.2134  -14.2848   22.3769 C   0  0  0  0  0  0  0  0  0  0  0  0
  -23.9817  -13.5032   20.2237 C   0  0  0  0  0  0  0  0  0  0  0  0
  -25.2607  -15.1563   21.4355 C   0  0  0  0  0  0  0  0  0  0  0  0
  -25.0904  -14.3448   20.3138 C   0  0  0  0  0  0  0  0  0  0  0  0
  -25.7748  -29.7316   20.2491 C   0  0  0  0  0  0  0  0  0  0  0  0
  -20.5916  -18.7544   22.5725 C   0  0  0  0  0  0  0  0  0  0  0  0
  -25.8818  -31.5371   21.7494 C   0  0  0  0  0  0  0  0  0  0  0  0
  -26.8758  -32.6248   24.1182 C   0  0  0  0  0  0  0  0  0  0  0  0
  -25.0028  -31.9363   22.7562 C   0  0  0  0  0  0  0  0  0  0  0  0
  -26.9706  -25.8002   19.2432 C   0  0  0  0  0  0  0  0  0  0  0  0
  -28.1284  -23.9662   18.8813 C   0  0  0  0  0  0  0  0  0  0  0  0
  -29.4970  -25.8834   19.7178 C   0  0  0  0  0  0  0  0  0  0  0  0
  -19.3679  -23.9388   21.5290 C   0  0  0  0  0  0  0  0  0  0  0  0
  -18.0793  -22.9610   18.7173 C   0  0  0  0  0  0  0  0  0  0  0  0
  -17.3265  -20.3776   16.6183 C   0  0  0  0  0  0  0  0  0  0  0  0
  -24.3869  -19.5568   19.1518 C   0  0  0  0  0  0  0  0  0  0  0  0
  -19.3155  -28.9678   22.4033 C   0  0  0  0  0  0  0  0  0  0  0  0
  -21.2284  -22.5208   20.5889 C   0  0  0  0  0  0  0  0  0  0  0  0
  -18.6096  -21.1599   20.4026 C   0  0  0  0  0  0  0  0  0  0  0  0
  -18.4069  -27.9755   21.6821 C   0  0  0  0  0  0  0  0  0  0  0  0
  -24.7593  -21.5265   16.2093 C   0  0  0  0  0  0  0  0  0  0  0  0
  -18.1319  -26.7634   22.5664 C   0  0  0  0  0  0  0  0  0  0  0  0
  -25.4883  -22.7795   16.6977 C   0  0  0  0  0  0  0  0  0  0  0  0
  -23.7636  -21.0125   17.2468 C   0  0  0  0  0  0  0  0  0  0  0  0
  -25.0601  -22.0343   19.0768 C   0  0  0  0  0  0  0  0  0  0  0  0
  -19.4294  -26.0161   22.8972 C   0  0  1  0  0  0  0  0  0  0  0  0
  -19.9424  -23.2896   20.3017 C   0  0  1  0  0  0  0  0  0  0  0  0
  -26.1152  -22.5576   18.0873 C   0  0  2  0  0  0  0  0  0  0  0  0
  -23.7754  -12.6252   19.0329 C   0  0  0  0  0  0  0  0  0  0  0  0
  -26.0963  -14.3770   19.2075 C   0  0  0  0  0  0  0  0  0  0  0  0
  -16.2394  -19.8859   14.4106 C   0  0  0  0  0  0  0  0  0  0  0  0
  -15.3315  -23.3402   19.9886 C   0  0  0  0  0  0  0  0  0  0  0  0
  -14.3612  -21.9654   18.1348 C   0  0  0  0  0  0  0  0  0  0  0  0
  -15.5019  -24.1232   17.6196 C   0  0  0  0  0  0  0  0  0  0  0  0
  -19.8291  -19.2579   15.5039 C   0  0  0  0  0  0  0  0  0  0  0  0
  -22.1993  -14.2519   23.4922 C   0  0  0  0  0  0  0  0  0  0  0  0
  -26.4393  -16.0663   21.5562 C   0  0  0  0  0  0  0  0  0  0  0  0
  -21.0609  -15.2598   23.3195 C   0  0  0  0  0  0  0  0  0  0  0  0
  -26.3150  -17.3769   20.7561 C   0  0  0  0  0  0  0  0  0  0  0  0
  -25.0974  -18.2236   21.1207 C   0  0  0  0  0  0  0  0  0  0  0  0
  -21.5295  -16.7101   23.3451 C   0  0  0  0  0  0  0  0  0  1  0  0
  -16.8851  -22.1266   18.3214 C   0  0  1  0  0  0  0  0  0  0  0  0
  -17.5447  -20.1949   15.1271 C   0  0  2  0  0  0  0  0  0  0  0  0
  -15.5406  -22.8784   18.5326 C   0  0  0  0  0  0  0  0  0  0  0  0
  -26.0690  -24.9155   18.8091 N   0  0  0  0  0  0  0  0  0  0  0  0
  -26.8036  -23.8102   18.5973 N   0  0  0  0  0  0  0  0  0  0  0  0
  -18.8913  -22.4418   19.7355 N   0  0  0  0  0  0  0  0  0  0  0  0
  -24.4217  -20.8215   18.5415 N   0  0  0  0  0  0  0  0  0  0  0  0
  -29.0087  -22.9547   18.7248 N   0  0  0  0  0  0  0  0  0  0  0  0
  -29.4646  -27.2235   20.1268 N   0  0  0  0  0  0  0  0  0  0  0  0
  -19.8503  -25.2110   21.7707 N   0  0  0  0  0  0  0  0  0  0  0  0
  -17.1223  -21.7013   16.9462 N   0  0  0  0  0  0  0  0  0  0  0  0
  -25.0406  -19.4606   20.3742 N   0  0  0  0  0  0  0  0  0  0  0  0
  -18.4952  -19.0749   14.8761 N   0  3  0  0  0  0  0  0  0  0  0  0
  -30.5921  -25.2716   19.7054 O   0  0  0  0  0  0  0  0  0  0  0  0
  -18.5467  -23.3311   22.2058 O   0  0  0  0  0  0  0  0  0  0  0  0
  -18.2880  -24.0307   18.1394 O   0  0  0  0  0  0  0  0  0  0  0  0
  -17.3325  -19.4395   17.4122 O   0  0  0  0  0  0  0  0  0  0  0  0
  -23.8202  -18.5841   18.6423 O   0  0  0  0  0  0  0  0  0  0  0  0
  -25.3900  -30.9963   20.5732 O   0  0  0  0  0  0  0  0  0  0  0  0
  -20.3938  -17.5611   23.1960 O   0  0  0  0  0  0  0  0  0  1  0  0
  -27.3533  -33.1456   25.2562 F   0  0  0  0  0  0  0  0  0  0  0  0
  -23.6800  -31.7988   22.5918 F   0  0  0  0  0  0  0  0  0  0  0  0
  1  2  1  0  0  0  0
  1  5  2  0  0  0  0
  2  6  2  0  0  0  0
  3  8  2  0  0  0  0
  3 17  1  0  0  0  0
  4  9  1  0  0  0  0
  4 17  2  0  0  0  0
  5 19  1  0  0  0  0
  6 21  1  0  0  0  0
  7 10  2  0  0  0  0
  7 20  1  0  0  0  0
  8 27  1  0  0  0  0
  9 27  2  0  0  0  0
 10 28  1  0  0  0  0
 11 12  2  0  0  0  0
 11 29  1  0  0  0  0
 12 30  1  0  0  0  0
 13 22  1  0  0  0  0
 13 28  2  0  0  0  0
 14 23  1  0  0  0  0
 14 24  2  0  0  0  0
 15 23  2  0  0  0  0
 15 25  1  0  0  0  0
 16 30  2  0  0  0  0
 16 31  1  0  0  0  0
 17 32  1  0  0  0  0
 18 32  1  0  0  0  0
 18 33  2  0  0  0  0
 18 34  1  0  0  0  0
 19 21  2  0  0  0  0
 19 39  1  0  0  0  0
 20 22  2  0  0  0  0
 20 40  1  0  0  0  0
 21 48  1  0  0  0  0
 22 41  1  0  0  0  0
 23 58  1  0  0  0  0
 24 26  1  0  0  0  0
 24 51  1  0  0  0  0
 25 26  2  0  0  0  0
 25 59  1  0  0  0  0
 26 52  1  0  0  0  0
 27 82  1  0  0  0  0
 28 83  1  0  0  0  0
 29 31  2  0  0  0  0
 29 82  1  0  0  0  0
 30 84  1  0  0  0  0
 31 85  1  0  0  0  0
 32 67  2  0  0  0  0
 33 68  1  0  0  0  0
 33 71  1  0  0  0  0
 34 72  1  0  0  0  0
 34 77  2  0  0  0  0
 35 49  1  0  0  0  0
 35 73  1  0  0  0  0
 35 78  2  0  0  0  0
 36 64  1  0  0  0  0
 36 69  1  0  0  0  0
 36 79  2  0  0  0  0
 37 65  1  0  0  0  0
 37 74  1  0  0  0  0
 37 80  2  0  0  0  0
 38 70  1  0  0  0  0
 38 75  1  0  0  0  0
 38 81  2  0  0  0  0
 39 42  1  0  0  0  0
 40 49  1  0  0  0  0
 41 69  1  0  0  0  0
 42 44  1  0  0  0  0
 43 45  1  0  0  0  0
 43 46  1  0  0  0  0
 44 48  1  0  0  0  0
 45 50  1  0  0  0  0
 46 70  1  0  0  0  0
 47 50  1  0  0  0  0
 47 70  1  0  0  0  0
 48 73  1  0  0  0  0
 49 69  1  0  0  0  0
 50 68  1  0  0  0  0
 53 65  1  0  0  0  0
 54 66  1  0  0  0  0
 55 66  1  0  0  0  0
 56 66  1  0  0  0  0
 57 76  1  0  0  0  0
 58 60  1  0  0  0  0
 59 61  1  0  0  0  0
 60 63  1  0  0  0  0
 61 62  1  0  0  0  0
 62 75  1  0  0  0  0
 63 83  1  0  0  0  0
 64 66  1  0  0  0  0
 64 74  1  0  0  0  0
 65 76  1  0  0  0  0
 67 68  1  0  0  0  0
M  CHG  1  76   1
M  ISO  4  38 100  63 101  75 100  83 101
M  END
> <Batch ID>
0037

> <Smiles>
CNC(C)C(=O)NC(C(=O)N1Cc2cc([101O:1][101CH2:1]CCc3cc(C)c(C)c(CCC[100NH:0][100C:0](=O)N4CCCC(n5nc(-c6ccc(Oc7ccc(F)cc7F)cc6)c(C(N)=O)c5N)C4)c3)ccc2CC1C(=O)NC1CCCc2ccccc21)C(C)(C)C

> <Shape>
0.185

> <Color>
0.075

> <Negative vol penalty>
0.000

$$$$

  -OEChem-04052316593D

 85 93  0     1  0  0  0  0  0999 V2000
  -30.6009  -23.1104   18.6937 C   0  0  0  0  0  0  0  0  0  0  0  0
  -29.8566  -22.9043   19.8508 C   0  0  0  0  0  0  0  0  0  0  0  0
  -23.8081  -12.3903   19.5437 C   0  0  0  0  0  0  0  0  0  0  0  0
  -25.0262  -12.0983   21.6096 C   0  0  0  0  0  0  0  0  0  0  0  0
  -30.6872  -24.3870   18.1399 C   0  0  0  0  0  0  0  0  0  0  0  0
  -29.1991  -23.9750   20.4555 C   0  0  0  0  0  0  0  0  0  0  0  0
  -24.4648  -22.8198   21.8328 C   0  0  0  0  0  0  0  0  0  0  0  0
  -28.1424  -20.6283   27.1370 C   0  0  0  0  0  0  0  0  0  0  0  0
  -23.7202  -11.0057   19.3998 C   0  0  0  0  0  0  0  0  0  0  0  0
  -24.9382  -10.7137   21.4657 C   0  0  0  0  0  0  0  0  0  0  0  0
  -24.3053  -22.0727   22.9991 C   0  0  0  0  0  0  0  0  0  0  0  0
  -21.8579   -8.4830   20.6652 C   0  0  0  0  0  0  0  0  0  0  0  0
  -20.6241   -7.9466   20.2973 C   0  0  0  0  0  0  0  0  0  0  0  0
  -27.0199  -21.3444   27.5375 C   0  0  0  0  0  0  0  0  0  0  0  0
  -23.7717  -24.0891   24.2108 C   0  0  0  0  0  0  0  0  0  0  0  0
  -21.6242   -7.0111   18.3069 C   0  0  0  0  0  0  0  0  0  0  0  0
  -24.4611  -12.9366   20.6486 C   0  0  0  0  0  0  0  0  0  0  0  0
  -23.6402  -15.2132   21.4553 C   0  0  0  0  0  0  0  0  0  0  0  0
  -30.0225  -25.4721   18.7327 C   0  0  0  0  0  0  0  0  0  0  0  0
  -24.2893  -24.2110   21.8492 C   0  0  0  0  0  0  0  0  0  0  0  0
  -29.2777  -25.2676   19.9099 C   0  0  0  0  0  0  0  0  0  0  0  0
  -23.9270  -24.8513   23.0429 C   0  0  0  0  0  0  0  0  0  0  0  0
  -27.9878  -19.4562   26.4050 C   0  0  0  0  0  0  0  0  0  0  0  0
  -24.2852  -10.1674   20.3608 C   0  0  0  0  0  0  0  0  0  0  0  0
  -23.9615  -22.7076   24.1889 C   0  0  0  0  0  0  0  0  0  0  0  0
  -22.9750   -8.2836   19.8539 C   0  0  0  0  0  0  0  0  0  0  0  0
  -20.5072   -7.2106   19.1182 C   0  0  0  0  0  0  0  0  0  0  0  0
  -22.8581   -7.5476   18.6748 C   0  0  0  0  0  0  0  0  0  0  0  0
  -24.5527  -14.3668   20.7975 C   0  0  0  0  0  0  0  0  0  0  0  0
  -25.7749  -20.8501   27.1834 C   0  0  0  0  0  0  0  0  0  0  0  0
  -26.6995  -19.0463   26.1018 C   0  0  0  0  0  0  0  0  0  0  0  0
  -24.1769  -16.4700   21.3175 C   0  0  0  0  0  0  0  0  0  0  0  0
  -22.4170  -14.8921   22.1307 C   0  0  0  0  0  0  0  0  0  0  0  0
  -26.1564  -26.7146   21.2578 C   0  0  0  0  0  0  0  0  0  0  0  0
  -23.3957  -28.3726   21.6475 C   0  0  0  0  0  0  0  0  0  0  0  0
  -20.2620  -28.5069   22.9924 C   0  0  0  0  0  0  0  0  0  0  0  0
  -29.7642  -18.4469   20.4662 C   0  0  0  0  0  0  0  0  0  0  0  0
  -30.1840  -26.8426   18.1242 C   0  0  0  0  0  0  0  0  0  0  0  0
  -24.4388  -24.9993   20.5770 C   0  0  0  0  0  0  0  0  0  0  0  0
  -23.7072  -26.3399   23.1092 C   0  0  0  0  0  0  0  0  0  0  0  0
  -29.1507  -27.8530   18.6159 C   0  0  0  0  0  0  0  0  0  0  0  0
  -26.9361  -19.0633   18.3930 C   0  0  0  0  0  0  0  0  0  0  0  0
  -29.0159  -27.7830   20.1337 C   0  0  0  0  0  0  0  0  0  0  0  0
  -25.9222  -18.0059   18.8335 C   0  0  0  0  0  0  0  0  0  0  0  0
  -28.3642  -18.5233   18.4241 C   0  0  0  0  0  0  0  0  0  0  0  0
  -27.7600  -16.8720   20.1509 C   0  0  0  0  0  0  0  0  0  0  0  0
  -28.5299  -26.3991   20.5812 C   0  0  1  0  0  0  0  0  0  0  0  0
  -24.7391  -26.4751   20.8202 C   0  0  1  0  0  0  0  0  0  0  0  0
  -26.3110  -17.3869   20.1896 C   0  0  2  0  0  0  0  0  0  0  0  0
  -25.1785  -17.0920   25.7096 C   0  0  0  0  0  0  0  0  0  0  0  0
  -18.2574  -30.0060   23.1706 C   0  0  0  0  0  0  0  0  0  0  0  0
  -24.8585  -30.0793   23.7109 C   0  0  0  0  0  0  0  0  0  0  0  0
  -22.6310  -30.8896   24.5171 C   0  0  0  0  0  0  0  0  0  0  0  0
  -23.3543  -31.3587   22.1763 C   0  0  0  0  0  0  0  0  0  0  0  0
  -18.5238  -26.5382   21.6281 C   0  0  0  0  0  0  0  0  0  0  0  0
  -29.1865  -18.6841   25.9743 C   0  0  0  0  0  0  0  0  0  0  0  0
  -24.5346  -21.6028   27.5999 C   0  0  0  0  0  0  0  0  0  0  0  0
  -26.4729  -17.7969   25.3154 C   0  0  0  0  0  0  0  0  0  0  0  0
  -29.5160  -18.8991   24.4880 C   0  0  0  0  0  0  0  0  0  0  0  0
  -30.7271  -18.0708   24.0487 C   0  0  0  0  0  0  0  0  0  0  0  0
  -31.0627  -18.2600   22.5729 C   0  0  0  0  0  0  0  0  0  0  0  0
  -24.1060  -22.6339   26.5616 C   0  0  0  0  0  0  0  0  0  1  0  0
  -22.6858  -29.0067   22.8192 C   0  0  1  0  0  0  0  0  0  0  0  0
  -18.9217  -28.8841   22.3877 C   0  0  2  0  0  0  0  0  0  0  0  0
  -23.3883  -30.3058   23.3054 C   0  0  0  0  0  0  0  0  0  0  0  0
  -25.5903  -15.0300   20.2800 N   0  0  0  0  0  0  0  0  0  0  0  0
  -25.5850  -19.7154   26.4734 N   0  0  0  0  0  0  0  0  0  0  0  0
  -25.3330  -16.3064   20.6126 N   0  0  0  0  0  0  0  0  0  0  0  0
  -23.8714  -27.0678   21.8401 N   0  0  0  0  0  0  0  0  0  0  0  0
  -28.6700  -17.9518   19.7377 N   0  0  0  0  0  0  0  0  0  0  0  0
  -23.7679  -17.6880   21.7317 N   0  0  0  0  0  0  0  0  0  0  0  0
  -22.0125  -13.5510   22.1788 N   0  0  0  0  0  0  0  0  0  0  0  0
  -27.1059  -26.2674   20.3590 N   0  0  0  0  0  0  0  0  0  0  0  0
  -21.3004  -29.1965   22.4030 N   0  0  0  0  0  0  0  0  0  0  0  0
  -29.9802  -17.8543   21.7044 N   0  0  0  0  0  0  0  0  0  0  0  0
  -18.0062  -27.7082   22.3832 N   0  3  0  0  0  0  0  0  0  0  0  0
  -21.6954  -15.7704   22.6612 O   0  0  0  0  0  0  0  0  0  0  0  0
  -26.3725  -27.2656   22.3308 O   0  0  0  0  0  0  0  0  0  0  0  0
  -23.5172  -29.0087   20.5977 O   0  0  0  0  0  0  0  0  0  0  0  0
  -20.3760  -27.6856   23.8997 O   0  0  0  0  0  0  0  0  0  0  0  0
  -30.4914  -19.3537   20.0468 O   0  0  0  0  0  0  0  0  0  0  0  0
  -24.1994   -8.8162   20.2208 O   0  0  0  0  0  0  0  0  0  0  0  0
  -23.8059  -21.9808   25.3288 O   0  0  0  0  0  0  0  0  0  1  0  0
  -19.3225   -6.6942   18.7659 F   0  0  0  0  0  0  0  0  0  0  0  0
  -23.9279   -7.3517   17.8919 F   0  0  0  0  0  0  0  0  0  0  0  0
  1  2  1  0  0  0  0
  1  5  2  0  0  0  0
  2  6  2  0  0  0  0
  3  9  2  0  0  0  0
  3 17  1  0  0  0  0
  4 10  1  0  0  0  0
  4 17  2  0  0  0  0
  5 19  1  0  0  0  0
  6 21  1  0  0  0  0
  7 11  2  0  0  0  0
  7 20  1  0  0  0  0
  8 14  2  0  0  0  0
  8 23  1  0  0  0  0
  9 24  1  0  0  0  0
 10 24  2  0  0  0  0
 11 25  1  0  0  0  0
 12 13  2  0  0  0  0
 12 26  1  0  0  0  0
 13 27  1  0  0  0  0
 14 30  1  0  0  0  0
 15 22  1  0  0  0  0
 15 25  2  0  0  0  0
 16 27  2  0  0  0  0
 16 28  1  0  0  0  0
 17 29  1  0  0  0  0
 18 29  1  0  0  0  0
 18 32  2  0  0  0  0
 18 33  1  0  0  0  0
 19 21  2  0  0  0  0
 19 38  1  0  0  0  0
 20 22  2  0  0  0  0
 20 39  1  0  0  0  0
 21 47  1  0  0  0  0
 22 40  1  0  0  0  0
 23 31  2  0  0  0  0
 23 56  1  0  0  0  0
 24 82  1  0  0  0  0
 25 83  1  0  0  0  0
 26 28  2  0  0  0  0
 26 82  1  0  0  0  0
 27 84  1  0  0  0  0
 28 85  1  0  0  0  0
 29 66  2  0  0  0  0
 30 57  1  0  0  0  0
 30 67  2  0  0  0  0
 31 58  1  0  0  0  0
 31 67  1  0  0  0  0
 32 68  1  0  0  0  0
 32 71  1  0  0  0  0
 33 72  1  0  0  0  0
 33 77  2  0  0  0  0
 34 48  1  0  0  0  0
 34 73  1  0  0  0  0
 34 78  2  0  0  0  0
 35 63  1  0  0  0  0
 35 69  1  0  0  0  0
 35 79  2  0  0  0  0
 36 64  1  0  0  0  0
 36 74  1  0  0  0  0
 36 80  2  0  0  0  0
 37 70  1  0  0  0  0
 37 75  1  0  0  0  0
 37 81  2  0  0  0  0
 38 41  1  0  0  0  0
 39 48  1  0  0  0  0
 40 69  1  0  0  0  0
 41 43  1  0  0  0  0
 42 44  1  0  0  0  0
 42 45  1  0  0  0  0
 43 47  1  0  0  0  0
 44 49  1  0  0  0  0
 45 70  1  0  0  0  0
 46 49  1  0  0  0  0
 46 70  1  0  0  0  0
 47 73  1  0  0  0  0
 48 69  1  0  0  0  0
 49 68  1  0  0  0  0
 50 58  1  0  0  0  0
 51 64  1  0  0  0  0
 52 65  1  0  0  0  0
 53 65  1  0  0  0  0
 54 65  1  0  0  0  0
 55 76  1  0  0  0  0
 56 59  1  0  0  0  0
 57 62  1  0  0  0  0
 59 60  1  0  0  0  0
 60 61  1  0  0  0  0
 61 75  1  0  0  0  0
 62 83  1  0  0  0  0
 63 65  1  0  0  0  0
 63 74  1  0  0  0  0
 64 76  1  0  0  0  0
 66 68  1  0  0  0  0
M  CHG  1  76   1
M  ISO  4  37 100  62 101  75 100  83 101
M  END
> <Batch ID>
0037

> <Smiles>
CCc1nc(C[101CH2:1][101O:1]c2ccc3c(c2)CN(C(=O)C(NC(=O)C(C)NC)C(C)(C)C)C(C(=O)NC2CCCc4ccccc42)C3)ccc1CCCC[100NH:0][100C:0](=O)N1CCCC(n2nc(-c3ccc(Oc4ccc(F)cc4F)cc3)c(C(N)=O)c2N)C1

> <Shape>
0.234

> <Color>
0.051

> <Negative vol penalty>
0.000

$$$$

  -OEChem-04052316593D

 84 92  0     1  0  0  0  0  0999 V2000
  -39.4852  -25.5810   13.8108 C   0  0  0  0  0  0  0  0  0  0  0  0
  -38.7472  -24.6468   14.5306 C   0  0  0  0  0  0  0  0  0  0  0  0
  -23.2967   -9.7834   19.9236 C   0  0  0  0  0  0  0  0  0  0  0  0
  -23.7408   -9.9444   22.2930 C   0  0  0  0  0  0  0  0  0  0  0  0
  -39.5945  -26.8904   14.2771 C   0  0  0  0  0  0  0  0  0  0  0  0
  -38.1189  -25.0213   15.7178 C   0  0  0  0  0  0  0  0  0  0  0  0
  -32.7642  -22.9596   17.8583 C   0  0  0  0  0  0  0  0  0  0  0  0
  -22.5757   -8.6089   20.1385 C   0  0  0  0  0  0  0  0  0  0  0  0
  -23.0197   -8.7699   22.5080 C   0  0  0  0  0  0  0  0  0  0  0  0
  -32.4441  -21.9856   18.8031 C   0  0  0  0  0  0  0  0  0  0  0  0
  -19.4958   -7.7415   21.2315 C   0  0  0  0  0  0  0  0  0  0  0  0
  -18.2691   -7.6058   20.5816 C   0  0  0  0  0  0  0  0  0  0  0  0
  -32.2540  -23.6961   20.4934 C   0  0  0  0  0  0  0  0  0  0  0  0
  -31.9798  -18.0348   23.8106 C   0  0  0  0  0  0  0  0  0  0  0  0
  -30.1477  -18.6534   21.7998 C   0  0  0  0  0  0  0  0  0  0  0  0
  -19.0833   -5.6284   19.4574 C   0  0  0  0  0  0  0  0  0  0  0  0
  -23.8793  -10.4512   21.0008 C   0  0  0  0  0  0  0  0  0  0  0  0
  -24.1266  -12.9808   20.7834 C   0  0  0  0  0  0  0  0  0  0  0  0
  -38.9593  -27.2835   15.4656 C   0  0  0  0  0  0  0  0  0  0  0  0
  -32.8424  -24.3103   18.2270 C   0  0  0  0  0  0  0  0  0  0  0  0
  -38.2209  -26.3368   16.2012 C   0  0  0  0  0  0  0  0  0  0  0  0
  -32.5728  -24.6857   19.5509 C   0  0  0  0  0  0  0  0  0  0  0  0
  -32.3593  -18.8582   22.7506 C   0  0  0  0  0  0  0  0  0  0  0  0
  -29.7682  -17.8300   22.8598 C   0  0  0  0  0  0  0  0  0  0  0  0
  -30.6842  -17.5207   23.8652 C   0  0  0  0  0  0  0  0  0  0  0  0
  -31.4432  -19.1675   21.7452 C   0  0  0  0  0  0  0  0  0  0  0  0
  -22.4371   -8.1022   21.4307 C   0  0  0  0  0  0  0  0  0  0  0  0
  -32.1918  -22.3534   20.1215 C   0  0  0  0  0  0  0  0  0  0  0  0
  -20.5163   -6.8206   20.9943 C   0  0  0  0  0  0  0  0  0  0  0  0
  -18.0628   -6.5493   19.6946 C   0  0  0  0  0  0  0  0  0  0  0  0
  -20.3100   -5.7641   20.1073 C   0  0  0  0  0  0  0  0  0  0  0  0
  -24.6248  -11.6641   20.7794 C   0  0  0  0  0  0  0  0  0  0  0  0
  -25.2249  -13.7642   20.5252 C   0  0  0  0  0  0  0  0  0  0  0  0
  -22.7907  -13.4535   21.0012 C   0  0  0  0  0  0  0  0  0  0  0  0
  -35.1447  -26.5019   18.2414 C   0  0  0  0  0  0  0  0  0  0  0  0
  -32.7201  -28.4803   19.0955 C   0  0  0  0  0  0  0  0  0  0  0  0
  -29.6304  -28.8377   20.5000 C   0  0  0  0  0  0  0  0  0  0  0  0
  -31.0979  -12.9569   21.3661 C   0  0  0  0  0  0  0  0  0  0  0  0
  -39.1452  -28.6981   15.9545 C   0  0  0  0  0  0  0  0  0  0  0  0
  -33.1627  -25.3518   17.1902 C   0  0  0  0  0  0  0  0  0  0  0  0
  -32.6239  -26.1244   19.9933 C   0  0  0  0  0  0  0  0  0  0  0  0
  -38.1390  -29.1094   17.0262 C   0  0  0  0  0  0  0  0  0  0  0  0
  -29.4532  -13.6645   18.2886 C   0  0  0  0  0  0  0  0  0  0  0  0
  -38.0166  -28.0221   18.0890 C   0  0  0  0  0  0  0  0  0  0  0  0
  -27.9843  -13.3508   18.5784 C   0  0  0  0  0  0  0  0  0  0  0  0
  -30.3895  -12.6952   19.0069 C   0  0  0  0  0  0  0  0  0  0  0  0
  -28.7006  -12.2708   20.7508 C   0  0  0  0  0  0  0  0  0  0  0  0
  -37.5044  -26.7110   17.4805 C   0  0  1  0  0  0  0  0  0  0  0  0
  -33.7185  -26.6401   17.7891 C   0  0  1  0  0  0  0  0  0  0  0  0
  -27.7193  -13.2561   20.0930 C   0  0  2  0  0  0  0  0  0  0  0  0
  -33.7515  -19.3974   22.7138 C   0  0  0  0  0  0  0  0  0  0  0  0
  -28.3760  -17.2907   22.8967 C   0  0  0  0  0  0  0  0  0  0  0  0
  -27.9257  -30.5812   21.0928 C   0  0  0  0  0  0  0  0  0  0  0  0
  -34.4164  -29.3218   21.4881 C   0  0  0  0  0  0  0  0  0  0  0  0
  -32.3528  -30.2932   22.5208 C   0  0  0  0  0  0  0  0  0  0  0  0
  -33.2057  -31.1952   20.3571 C   0  0  0  0  0  0  0  0  0  0  0  0
  -27.5990  -27.6217   18.7242 C   0  0  0  0  0  0  0  0  0  0  0  0
  -30.3009  -16.6406   25.0094 C   0  0  0  0  0  0  0  0  0  0  0  0
  -31.8285  -20.0515   20.5957 C   0  0  0  0  0  0  0  0  0  1  0  0
  -30.2738  -15.1564   24.6152 C   0  0  0  0  0  0  0  0  0  0  0  0
  -31.6515  -14.6679   24.1582 C   0  0  0  0  0  0  0  0  0  0  0  0
  -31.6525  -13.1919   23.7737 C   0  0  0  0  0  0  0  0  0  0  0  0
  -32.1081  -28.9181   20.4042 C   0  0  1  0  0  0  0  0  0  0  0  0
  -28.3953  -29.5904   20.0391 C   0  0  2  0  0  0  0  0  0  0  0  0
  -33.0216  -29.9047   21.1850 C   0  0  0  0  0  0  0  0  0  0  0  0
  -25.9373  -11.6102   20.5376 N   0  0  0  0  0  0  0  0  0  0  0  0
  -26.2732  -12.9027   20.3873 N   0  0  0  0  0  0  0  0  0  0  0  0
  -32.9476  -27.1051   18.9440 N   0  0  0  0  0  0  0  0  0  0  0  0
  -30.0868  -12.6533   20.4395 N   0  0  0  0  0  0  0  0  0  0  0  0
  -25.3864  -15.0991   20.4050 N   0  0  0  0  0  0  0  0  0  0  0  0
  -21.7821  -12.5135   21.2533 N   0  0  0  0  0  0  0  0  0  0  0  0
  -36.0759  -26.7807   17.2592 N   0  0  0  0  0  0  0  0  0  0  0  0
  -30.7903  -29.4535   20.0796 N   0  0  0  0  0  0  0  0  0  0  0  0
  -30.7251  -12.8998   22.7035 N   0  0  0  0  0  0  0  0  0  0  0  0
  -27.2829  -28.6387   19.7599 N   0  3  0  0  0  0  0  0  0  0  0  0
  -22.4968  -14.6722   20.9568 O   0  0  0  0  0  0  0  0  0  0  0  0
  -35.3827  -26.1684   19.3963 O   0  0  0  0  0  0  0  0  0  0  0  0
  -32.9800  -29.3265   18.2363 O   0  0  0  0  0  0  0  0  0  0  0  0
  -29.5722  -27.8086   21.1695 O   0  0  0  0  0  0  0  0  0  0  0  0
  -32.2462  -13.2618   21.0266 O   0  0  0  0  0  0  0  0  0  0  0  0
  -21.7334   -6.9562   21.6408 O   0  0  0  0  0  0  0  0  0  0  0  0
  -31.8798  -21.4046   21.0458 O   0  0  0  0  0  0  0  0  0  1  0  0
  -16.8842   -6.4182   19.0718 F   0  0  0  0  0  0  0  0  0  0  0  0
  -21.2863   -4.8756   19.8763 F   0  0  0  0  0  0  0  0  0  0  0  0
  1  2  1  0  0  0  0
  1  5  2  0  0  0  0
  2  6  2  0  0  0  0
  3  8  2  0  0  0  0
  3 17  1  0  0  0  0
  4  9  1  0  0  0  0
  4 17  2  0  0  0  0
  5 19  1  0  0  0  0
  6 21  1  0  0  0  0
  7 10  2  0  0  0  0
  7 20  1  0  0  0  0
  8 27  1  0  0  0  0
  9 27  2  0  0  0  0
 10 28  1  0  0  0  0
 11 12  2  0  0  0  0
 11 29  1  0  0  0  0
 12 30  1  0  0  0  0
 13 22  1  0  0  0  0
 13 28  2  0  0  0  0
 14 23  1  0  0  0  0
 14 25  2  0  0  0  0
 15 24  2  0  0  0  0
 15 26  1  0  0  0  0
 16 30  2  0  0  0  0
 16 31  1  0  0  0  0
 17 32  1  0  0  0  0
 18 32  1  0  0  0  0
 18 33  2  0  0  0  0
 18 34  1  0  0  0  0
 19 21  2  0  0  0  0
 19 39  1  0  0  0  0
 20 22  2  0  0  0  0
 20 40  1  0  0  0  0
 21 48  1  0  0  0  0
 22 41  1  0  0  0  0
 23 26  2  0  0  0  0
 23 51  1  0  0  0  0
 24 25  1  0  0  0  0
 24 52  1  0  0  0  0
 25 58  1  0  0  0  0
 26 59  1  0  0  0  0
 27 81  1  0  0  0  0
 28 82  1  0  0  0  0
 29 31  2  0  0  0  0
 29 81  1  0  0  0  0
 30 83  1  0  0  0  0
 31 84  1  0  0  0  0
 32 66  2  0  0  0  0
 33 67  1  0  0  0  0
 33 70  1  0  0  0  0
 34 71  1  0  0  0  0
 34 76  2  0  0  0  0
 35 49  1  0  0  0  0
 35 72  1  0  0  0  0
 35 77  2  0  0  0  0
 36 63  1  0  0  0  0
 36 68  1  0  0  0  0
 36 78  2  0  0  0  0
 37 64  1  0  0  0  0
 37 73  1  0  0  0  0
 37 79  2  0  0  0  0
 38 69  1  0  0  0  0
 38 74  1  0  0  0  0
 38 80  2  0  0  0  0
 39 42  1  0  0  0  0
 40 49  1  0  0  0  0
 41 68  1  0  0  0  0
 42 44  1  0  0  0  0
 43 45  1  0  0  0  0
 43 46  1  0  0  0  0
 44 48  1  0  0  0  0
 45 50  1  0  0  0  0
 46 69  1  0  0  0  0
 47 50  1  0  0  0  0
 47 69  1  0  0  0  0
 48 72  1  0  0  0  0
 49 68  1  0  0  0  0
 50 67  1  0  0  0  0
 53 64  1  0  0  0  0
 54 65  1  0  0  0  0
 55 65  1  0  0  0  0
 56 65  1  0  0  0  0
 57 75  1  0  0  0  0
 58 60  1  0  0  0  0
 59 82  1  0  0  0  0
 60 61  1  0  0  0  0
 61 62  1  0  0  0  0
 62 74  1  0  0  0  0
 63 65  1  0  0  0  0
 63 73  1  0  0  0  0
 64 75  1  0  0  0  0
 66 67  1  0  0  0  0
M  CHG  1  75   1
M  ISO  4  38 100  59 101  74 100  82 101
M  END
> <Batch ID>
0037

> <Smiles>
CNC(C)C(=O)NC(C(=O)N1Cc2cc([101O:1][101CH2:1]c3cc(C)c(CCCC[100NH:0][100C:0](=O)N4CCCC(n5nc(-c6ccc(Oc7ccc(F)cc7F)cc6)c(C(N)=O)c5N)C4)cc3C)ccc2CC1C(=O)NC1CCCc2ccccc21)C(C)(C)C

> <Shape>
0.169

> <Color>
0.182

> <Negative vol penalty>
0.000

$$$$

  -OEChem-04052316593D

 86 94  0     1  0  0  0  0  0999 V2000
  -17.5688  -34.2210   24.4993 C   0  0  0  0  0  0  0  0  0  0  0  0
  -18.3672  -33.9429   23.3945 C   0  0  0  0  0  0  0  0  0  0  0  0
  -24.6580   -9.1473   21.8554 C   0  0  0  0  0  0  0  0  0  0  0  0
  -22.9579  -10.4494   20.7369 C   0  0  0  0  0  0  0  0  0  0  0  0
  -18.0802  -34.0582   25.7862 C   0  0  0  0  0  0  0  0  0  0  0  0
  -19.6779  -33.5029   23.5758 C   0  0  0  0  0  0  0  0  0  0  0  0
  -22.7405  -29.5168   20.0777 C   0  0  0  0  0  0  0  0  0  0  0  0
  -23.6687   -8.4571   22.5558 C   0  0  0  0  0  0  0  0  0  0  0  0
  -21.9685   -9.7592   21.4372 C   0  0  0  0  0  0  0  0  0  0  0  0
  -23.6709  -29.6891   19.0537 C   0  0  0  0  0  0  0  0  0  0  0  0
  -21.4935   -5.9376   21.9613 C   0  0  0  0  0  0  0  0  0  0  0  0
  -21.6109   -4.5506   22.0513 C   0  0  0  0  0  0  0  0  0  0  0  0
  -25.4633  -29.3949   20.6411 C   0  0  0  0  0  0  0  0  0  0  0  0
  -21.6925   -4.7140   24.4604 C   0  0  0  0  0  0  0  0  0  0  0  0
  -27.3755  -26.4825   16.6012 C   0  0  0  0  0  0  0  0  0  0  0  0
  -24.3026  -10.1435   20.9460 C   0  0  0  0  0  0  0  0  0  0  0  0
  -25.8807  -10.5134   18.9761 C   0  0  0  0  0  0  0  0  0  0  0  0
  -19.3947  -33.6068   25.9835 C   0  0  0  0  0  0  0  0  0  0  0  0
  -23.1653  -29.2927   21.3951 C   0  0  0  0  0  0  0  0  0  0  0  0
  -20.2078  -33.3353   24.8665 C   0  0  0  0  0  0  0  0  0  0  0  0
  -24.5363  -29.2175   21.6795 C   0  0  0  0  0  0  0  0  0  0  0  0
  -22.3240   -8.7630   22.3467 C   0  0  0  0  0  0  0  0  0  0  0  0
  -25.0326  -29.6311   19.3359 C   0  0  0  0  0  0  0  0  0  0  0  0
  -21.4757   -6.7128   23.1208 C   0  0  0  0  0  0  0  0  0  0  0  0
  -21.7104   -3.9388   23.3009 C   0  0  0  0  0  0  0  0  0  0  0  0
  -21.5751   -6.1010   24.3703 C   0  0  0  0  0  0  0  0  0  0  0  0
  -25.3241  -10.8572   20.2227 C   0  0  0  0  0  0  0  0  0  0  0  0
  -27.5515  -27.8582   16.8423 C   0  0  0  0  0  0  0  0  0  0  0  0
  -28.3066  -25.8712   17.4049 C   0  0  0  0  0  0  0  0  0  0  0  0
  -26.8009  -11.5021   18.7266 C   0  0  0  0  0  0  0  0  0  0  0  0
  -25.5917   -9.4000   18.1203 C   0  0  0  0  0  0  0  0  0  0  0  0
  -22.8397  -30.8423   24.1513 C   0  0  0  0  0  0  0  0  0  0  0  0
  -24.2876  -28.2027   25.3587 C   0  0  0  0  0  0  0  0  0  0  0  0
  -26.3127  -25.5083   24.8235 C   0  0  0  0  0  0  0  0  0  0  0  0
  -26.9479  -17.1189   21.0392 C   0  0  0  0  0  0  0  0  0  0  0  0
  -19.9188  -33.4914   27.3930 C   0  0  0  0  0  0  0  0  0  0  0  0
  -22.1489  -29.0822   22.4837 C   0  0  0  0  0  0  0  0  0  0  0  0
  -25.0440  -28.9592   23.0738 C   0  0  0  0  0  0  0  0  0  0  0  0
  -21.1961  -32.6626   27.5020 C   0  0  0  0  0  0  0  0  0  0  0  0
  -29.6968  -14.5839   20.9431 C   0  0  0  0  0  0  0  0  0  0  0  0
  -22.1947  -33.0768   26.4258 C   0  0  0  0  0  0  0  0  0  0  0  0
  -28.9020  -13.3008   20.7058 C   0  0  0  0  0  0  0  0  0  0  0  0
  -28.8674  -15.6151   21.6988 C   0  0  0  0  0  0  0  0  0  0  0  0
  -26.7673  -14.6680   20.7991 C   0  0  0  0  0  0  0  0  0  0  0  0
  -21.6265  -32.8323   25.0226 C   0  0  1  0  0  0  0  0  0  0  0  0
  -22.6975  -29.3718   23.8775 C   0  0  1  0  0  0  0  0  0  0  0  0
  -27.5589  -13.6043   20.0202 C   0  0  2  0  0  0  0  0  0  0  0  0
  -27.3442  -23.5527   26.0104 C   0  0  0  0  0  0  0  0  0  0  0  0
  -26.3290  -30.0666   26.6505 C   0  0  0  0  0  0  0  0  0  0  0  0
  -27.8177  -28.0834   26.9955 C   0  0  0  0  0  0  0  0  0  0  0  0
  -25.5831  -28.1706   28.1008 C   0  0  0  0  0  0  0  0  0  0  0  0
  -30.0292  -26.7433   19.0132 C   0  0  0  0  0  0  0  0  0  0  0  0
  -28.8919  -18.0211   22.3833 C   0  0  0  0  0  0  0  0  0  0  0  0
  -24.9201  -23.5660   23.0779 C   0  0  0  0  0  0  0  0  0  0  0  0
  -26.7917  -29.0053   16.2217 C   0  0  0  0  0  0  0  0  0  0  0  0
  -28.6252  -24.4459   17.6068 C   0  0  0  0  0  0  0  0  0  0  0  0
  -27.8276  -23.7522   18.7360 C   0  0  0  0  0  0  0  0  0  0  0  0
  -28.2420  -22.2910   18.9366 C   0  0  0  0  0  0  0  0  0  0  0  0
  -27.4533  -21.6426   20.0770 C   0  0  0  0  0  0  0  0  0  0  0  0
  -27.8954  -20.1938   20.3034 C   0  0  0  0  0  0  0  0  0  0  0  0
  -27.1706  -19.5359   21.4728 C   0  0  0  0  0  0  0  0  0  0  0  0
  -25.5553  -29.3860   17.0288 C   0  0  0  0  0  0  0  0  0  1  0  0
  -25.7175  -27.7862   25.6056 C   0  0  1  0  0  0  0  0  0  0  0  0
  -26.1595  -24.0440   25.1931 C   0  0  2  0  0  0  0  0  0  0  0  0
  -26.3526  -28.5335   26.8121 C   0  0  0  0  0  0  0  0  0  0  0  0
  -25.8472  -11.9767   20.7298 N   0  0  0  0  0  0  0  0  0  0  0  0
  -28.5182  -28.1067   17.7299 N   0  0  0  0  0  0  0  0  0  0  0  0
  -28.9580  -26.8787   18.0536 N   0  0  0  0  0  0  0  0  0  0  0  0
  -26.7421  -12.3449   19.7973 N   0  0  0  0  0  0  0  0  0  0  0  0
  -24.0111  -28.7661   24.1050 N   0  0  0  0  0  0  0  0  0  0  0  0
  -27.5787  -15.8638   21.0390 N   0  0  0  0  0  0  0  0  0  0  0  0
  -27.6465  -11.7240   17.6980 N   0  0  0  0  0  0  0  0  0  0  0  0
  -24.6181   -8.4783   18.5288 N   0  0  0  0  0  0  0  0  0  0  0  0
  -21.7064  -31.4279   24.6826 N   0  0  0  0  0  0  0  0  0  0  0  0
  -25.7016  -26.3339   25.7435 N   0  0  0  0  0  0  0  0  0  0  0  0
  -27.6094  -18.1660   21.6983 N   0  0  0  0  0  0  0  0  0  0  0  0
  -26.0573  -23.2074   23.9640 N   0  3  0  0  0  0  0  0  0  0  0  0
  -26.1910   -9.2186   17.0334 O   0  0  0  0  0  0  0  0  0  0  0  0
  -23.8996  -31.4039   23.9005 O   0  0  0  0  0  0  0  0  0  0  0  0
  -23.4456  -28.0278   26.2430 O   0  0  0  0  0  0  0  0  0  0  0  0
  -26.9173  -25.8826   23.8210 O   0  0  0  0  0  0  0  0  0  0  0  0
  -25.8613  -17.2956   20.4736 O   0  0  0  0  0  0  0  0  0  0  0  0
  -21.3583   -8.0896   23.0297 O   0  0  0  0  0  0  0  0  0  0  0  0
  -25.9428  -29.7996   18.3384 O   0  0  0  0  0  0  0  0  0  1  0  0
  -21.8216   -2.6068   23.3873 F   0  0  0  0  0  0  0  0  0  0  0  0
  -21.5574   -6.8404   25.4879 F   0  0  0  0  0  0  0  0  0  0  0  0
  1  2  1  0  0  0  0
  1  5  2  0  0  0  0
  2  6  2  0  0  0  0
  3  8  2  0  0  0  0
  3 16  1  0  0  0  0
  4  9  1  0  0  0  0
  4 16  2  0  0  0  0
  5 18  1  0  0  0  0
  6 20  1  0  0  0  0
  7 10  2  0  0  0  0
  7 19  1  0  0  0  0
  8 22  1  0  0  0  0
  9 22  2  0  0  0  0
 10 23  1  0  0  0  0
 11 12  2  0  0  0  0
 11 24  1  0  0  0  0
 12 25  1  0  0  0  0
 13 21  1  0  0  0  0
 13 23  2  0  0  0  0
 14 25  2  0  0  0  0
 14 26  1  0  0  0  0
 15 28  1  0  0  0  0
 15 29  2  0  0  0  0
 16 27  1  0  0  0  0
 17 27  1  0  0  0  0
 17 30  2  0  0  0  0
 17 31  1  0  0  0  0
 18 20  2  0  0  0  0
 18 36  1  0  0  0  0
 19 21  2  0  0  0  0
 19 37  1  0  0  0  0
 20 45  1  0  0  0  0
 21 38  1  0  0  0  0
 22 83  1  0  0  0  0
 23 84  1  0  0  0  0
 24 26  2  0  0  0  0
 24 83  1  0  0  0  0
 25 85  1  0  0  0  0
 26 86  1  0  0  0  0
 27 66  2  0  0  0  0
 28 55  1  0  0  0  0
 28 67  2  0  0  0  0
 29 56  1  0  0  0  0
 29 68  1  0  0  0  0
 30 69  1  0  0  0  0
 30 72  1  0  0  0  0
 31 73  1  0  0  0  0
 31 78  2  0  0  0  0
 32 46  1  0  0  0  0
 32 74  1  0  0  0  0
 32 79  2  0  0  0  0
 33 63  1  0  0  0  0
 33 70  1  0  0  0  0
 33 80  2  0  0  0  0
 34 64  1  0  0  0  0
 34 75  1  0  0  0  0
 34 81  2  0  0  0  0
 35 71  1  0  0  0  0
 35 76  1  0  0  0  0
 35 82  2  0  0  0  0
 36 39  1  0  0  0  0
 37 46  1  0  0  0  0
 38 70  1  0  0  0  0
 39 41  1  0  0  0  0
 40 42  1  0  0  0  0
 40 43  1  0  0  0  0
 41 45  1  0  0  0  0
 42 47  1  0  0  0  0
 43 71  1  0  0  0  0
 44 47  1  0  0  0  0
 44 71  1  0  0  0  0
 45 74  1  0  0  0  0
 46 70  1  0  0  0  0
 47 69  1  0  0  0  0
 48 64  1  0  0  0  0
 49 65  1  0  0  0  0
 50 65  1  0  0  0  0
 51 65  1  0  0  0  0
 52 68  1  0  0  0  0
 53 76  1  0  0  0  0
 54 77  1  0  0  0  0
 55 62  1  0  0  0  0
 56 57  1  0  0  0  0
 57 58  1  0  0  0  0
 58 59  1  0  0  0  0
 59 60  1  0  0  0  0
 60 61  1  0  0  0  0
 61 76  1  0  0  0  0
 62 84  1  0  0  0  0
 63 65  1  0  0  0  0
 63 75  1  0  0  0  0
 64 77  1  0  0  0  0
 66 69  1  0  0  0  0
 67 68  1  0  0  0  0
M  CHG  1  77   1
M  ISO  4  35 100  62 101  76 100  84 101
M  END
> <Batch ID>
0037

> <Smiles>
CNC(C)C(=O)NC(C(=O)N1Cc2cc([101O:1][101CH2:1]Cc3cc(CCCCCC[100N:0](C)[100C:0](=O)N4CCCC(n5nc(-c6ccc(Oc7ccc(F)cc7F)cc6)c(C(N)=O)c5N)C4)n(C)n3)ccc2CC1C(=O)NC1CCCc2ccccc21)C(C)(C)C

> <Shape>
0.220

> <Color>
0.065

> <Negative vol penalty>
0.000

$$$$

  -OEChem-04052316593D

 83 91  0     1  0  0  0  0  0999 V2000
  -31.6160  -25.6498   14.3850 C   0  0  0  0  0  0  0  0  0  0  0  0
  -30.5302  -24.7811   14.4272 C   0  0  0  0  0  0  0  0  0  0  0  0
  -28.0359  -17.0006   21.3348 C   0  0  0  0  0  0  0  0  0  0  0  0
  -27.0776  -17.3254   19.1409 C   0  0  0  0  0  0  0  0  0  0  0  0
  -32.0803  -26.2410   15.5592 C   0  0  0  0  0  0  0  0  0  0  0  0
  -29.9086  -24.5024   15.6440 C   0  0  0  0  0  0  0  0  0  0  0  0
  -23.4761  -22.9887   18.4094 C   0  0  0  0  0  0  0  0  0  0  0  0
  -21.7206  -18.3283   25.3246 C   0  0  0  0  0  0  0  0  0  0  0  0
  -21.6741  -17.3779   26.3444 C   0  0  0  0  0  0  0  0  0  0  0  0
  -28.6281  -18.2614   21.2628 C   0  0  0  0  0  0  0  0  0  0  0  0
  -27.6698  -18.5863   19.0689 C   0  0  0  0  0  0  0  0  0  0  0  0
  -22.8485  -22.0477   19.2245 C   0  0  0  0  0  0  0  0  0  0  0  0
  -27.6832  -21.4836   21.6593 C   0  0  0  0  0  0  0  0  0  0  0  0
  -27.5922  -22.3075   22.7810 C   0  0  0  0  0  0  0  0  0  0  0  0
  -23.6871  -23.1888   21.1774 C   0  0  0  0  0  0  0  0  0  0  0  0
  -20.2603  -16.9540   23.9770 C   0  0  0  0  0  0  0  0  0  0  0  0
  -30.0028  -22.3686   22.9316 C   0  0  0  0  0  0  0  0  0  0  0  0
  -27.2607  -16.5325   20.2738 C   0  0  0  0  0  0  0  0  0  0  0  0
  -27.3018  -13.9916   20.4961 C   0  0  0  0  0  0  0  0  0  0  0  0
  -31.4581  -25.9770   16.7895 C   0  0  0  0  0  0  0  0  0  0  0  0
  -24.2243  -24.0324   18.9729 C   0  0  0  0  0  0  0  0  0  0  0  0
  -30.3659  -25.0897   16.8359 C   0  0  0  0  0  0  0  0  0  0  0  0
  -24.3211  -24.1432   20.3674 C   0  0  0  0  0  0  0  0  0  0  0  0
  -21.0136  -18.1164   24.1409 C   0  0  0  0  0  0  0  0  0  0  0  0
  -20.9208  -16.2154   26.1805 C   0  0  0  0  0  0  0  0  0  0  0  0
  -20.2139  -16.0034   24.9968 C   0  0  0  0  0  0  0  0  0  0  0  0
  -28.4451  -19.0542   20.1299 C   0  0  0  0  0  0  0  0  0  0  0  0
  -22.9563  -22.1459   20.6086 C   0  0  0  0  0  0  0  0  0  0  0  0
  -28.9339  -21.1021   21.1737 C   0  0  0  0  0  0  0  0  0  0  0  0
  -28.7520  -22.7501   23.4172 C   0  0  0  0  0  0  0  0  0  0  0  0
  -30.0937  -21.5447   21.8098 C   0  0  0  0  0  0  0  0  0  0  0  0
  -26.6491  -15.2300   20.3473 C   0  0  0  0  0  0  0  0  0  0  0  0
  -26.2857  -13.0675   20.5112 C   0  0  0  0  0  0  0  0  0  0  0  0
  -28.7015  -13.7023   20.6105 C   0  0  0  0  0  0  0  0  0  0  0  0
  -27.2711  -24.9294   18.8483 C   0  0  0  0  0  0  0  0  0  0  0  0
  -26.1843  -27.4793   20.5332 C   0  0  0  0  0  0  0  0  0  0  0  0
  -23.8169  -28.7759   22.6217 C   0  0  0  0  0  0  0  0  0  0  0  0
  -20.4885  -13.4054   21.9705 C   0  0  0  0  0  0  0  0  0  0  0  0
  -32.0253  -26.6029   18.0390 C   0  0  0  0  0  0  0  0  0  0  0  0
  -24.8730  -25.0547   18.0806 C   0  0  0  0  0  0  0  0  0  0  0  0
  -25.0957  -25.2565   21.0225 C   0  0  0  0  0  0  0  0  0  0  0  0
  -31.0760  -26.5470   19.2332 C   0  0  0  0  0  0  0  0  0  0  0  0
  -21.8544  -12.3475   18.8573 C   0  0  0  0  0  0  0  0  0  0  0  0
  -30.4740  -25.1522   19.3717 C   0  0  0  0  0  0  0  0  0  0  0  0
  -23.2970  -12.8545   18.8996 C   0  0  0  0  0  0  0  0  0  0  0  0
  -20.8924  -13.3258   19.5277 C   0  0  0  0  0  0  0  0  0  0  0  0
  -22.7004  -14.2153   20.9468 C   0  0  0  0  0  0  0  0  0  0  0  0
  -29.6496  -24.7817   18.1329 C   0  0  1  0  0  0  0  0  0  0  0  0
  -26.0363  -25.7799   18.7501 C   0  0  1  0  0  0  0  0  0  0  0  0
  -23.7154  -13.2363   20.3322 C   0  0  2  0  0  0  0  0  0  0  0  0
  -20.8871  -15.2116   27.2859 C   0  0  0  0  0  0  0  0  0  0  0  0
  -23.2180  -30.8759   23.8580 C   0  0  0  0  0  0  0  0  0  0  0  0
  -28.3450  -26.8753   22.6012 C   0  0  0  0  0  0  0  0  0  0  0  0
  -27.1203  -28.3520   24.2098 C   0  0  0  0  0  0  0  0  0  0  0  0
  -28.0363  -29.3047   22.0941 C   0  0  0  0  0  0  0  0  0  0  0  0
  -21.2593  -29.0466   21.1574 C   0  0  0  0  0  0  0  0  0  0  0  0
  -21.0645  -19.1438   23.0385 C   0  0  0  0  0  0  0  0  0  0  0  0
  -19.4009  -14.7663   24.7988 C   0  0  0  0  0  0  0  0  0  0  0  0
  -22.2004  -18.9184   22.0383 C   0  0  0  0  0  0  0  0  0  0  0  0
  -20.2384  -13.5351   24.4362 C   0  0  0  0  0  0  0  0  0  0  0  0
  -22.1918  -19.9105   20.8811 C   0  0  0  0  0  0  0  0  0  1  0  0
  -26.0094  -27.7964   21.9988 C   0  0  1  0  0  0  0  0  0  0  0  0
  -23.0377  -30.0779   22.5761 C   0  0  2  0  0  0  0  0  0  0  0  0
  -27.3647  -28.0599   22.7139 C   0  0  0  0  0  0  0  0  0  0  0  0
  -25.3212  -15.1073   20.2731 N   0  0  0  0  0  0  0  0  0  0  0  0
  -25.1312  -13.7808   20.3755 N   0  0  0  0  0  0  0  0  0  0  0  0
  -25.7173  -26.2278   20.1072 N   0  0  0  0  0  0  0  0  0  0  0  0
  -21.3454  -13.6455   20.8837 N   0  0  0  0  0  0  0  0  0  0  0  0
  -26.2762  -11.7226   20.6271 N   0  0  0  0  0  0  0  0  0  0  0  0
  -29.4319  -13.4616   19.4388 N   0  0  0  0  0  0  0  0  0  0  0  0
  -28.3608  -25.4391   18.1683 N   0  0  0  0  0  0  0  0  0  0  0  0
  -25.0716  -28.9119   22.0661 N   0  0  0  0  0  0  0  0  0  0  0  0
  -20.9982  -13.7307   23.2216 N   0  0  0  0  0  0  0  0  0  0  0  0
  -21.5840  -29.8053   22.3926 N   0  3  0  0  0  0  0  0  0  0  0  0
  -29.2836  -13.6425   21.7200 O   0  0  0  0  0  0  0  0  0  0  0  0
  -27.2381  -23.8887   19.4944 O   0  0  0  0  0  0  0  0  0  0  0  0
  -26.7091  -28.3143   19.7923 O   0  0  0  0  0  0  0  0  0  0  0  0
  -23.3599  -27.7426   23.1054 O   0  0  0  0  0  0  0  0  0  0  0  0
  -19.3555  -12.9309   21.8363 O   0  0  0  0  0  0  0  0  0  0  0  0
  -29.0226  -20.2847   20.0594 O   0  0  0  0  0  0  0  0  0  0  0  0
  -22.3453  -21.2284   21.4065 O   0  0  0  0  0  0  0  0  0  1  0  0
  -28.6645  -23.5426   24.4936 F   0  0  0  0  0  0  0  0  0  0  0  0
  -31.2981  -21.1825   21.3473 F   0  0  0  0  0  0  0  0  0  0  0  0
  1  2  1  0  0  0  0
  1  5  2  0  0  0  0
  2  6  2  0  0  0  0
  3 10  2  0  0  0  0
  3 18  1  0  0  0  0
  4 11  1  0  0  0  0
  4 18  2  0  0  0  0
  5 20  1  0  0  0  0
  6 22  1  0  0  0  0
  7 12  2  0  0  0  0
  7 21  1  0  0  0  0
  8  9  2  0  0  0  0
  8 24  1  0  0  0  0
  9 25  1  0  0  0  0
 10 27  1  0  0  0  0
 11 27  2  0  0  0  0
 12 28  1  0  0  0  0
 13 14  2  0  0  0  0
 13 29  1  0  0  0  0
 14 30  1  0  0  0  0
 15 23  1  0  0  0  0
 15 28  2  0  0  0  0
 16 24  2  0  0  0  0
 16 26  1  0  0  0  0
 17 30  2  0  0  0  0
 17 31  1  0  0  0  0
 18 32  1  0  0  0  0
 19 32  1  0  0  0  0
 19 33  2  0  0  0  0
 19 34  1  0  0  0  0
 20 22  2  0  0  0  0
 20 39  1  0  0  0  0
 21 23  2  0  0  0  0
 21 40  1  0  0  0  0
 22 48  1  0  0  0  0
 23 41  1  0  0  0  0
 24 57  1  0  0  0  0
 25 26  2  0  0  0  0
 25 51  1  0  0  0  0
 26 58  1  0  0  0  0
 27 80  1  0  0  0  0
 28 81  1  0  0  0  0
 29 31  2  0  0  0  0
 29 80  1  0  0  0  0
 30 82  1  0  0  0  0
 31 83  1  0  0  0  0
 32 65  2  0  0  0  0
 33 66  1  0  0  0  0
 33 69  1  0  0  0  0
 34 70  1  0  0  0  0
 34 75  2  0  0  0  0
 35 49  1  0  0  0  0
 35 71  1  0  0  0  0
 35 76  2  0  0  0  0
 36 62  1  0  0  0  0
 36 67  1  0  0  0  0
 36 77  2  0  0  0  0
 37 63  1  0  0  0  0
 37 72  1  0  0  0  0
 37 78  2  0  0  0  0
 38 68  1  0  0  0  0
 38 73  1  0  0  0  0
 38 79  2  0  0  0  0
 39 42  1  0  0  0  0
 40 49  1  0  0  0  0
 41 67  1  0  0  0  0
 42 44  1  0  0  0  0
 43 45  1  0  0  0  0
 43 46  1  0  0  0  0
 44 48  1  0  0  0  0
 45 50  1  0  0  0  0
 46 68  1  0  0  0  0
 47 50  1  0  0  0  0
 47 68  1  0  0  0  0
 48 71  1  0  0  0  0
 49 67  1  0  0  0  0
 50 66  1  0  0  0  0
 52 63  1  0  0  0  0
 53 64  1  0  0  0  0
 54 64  1  0  0  0  0
 55 64  1  0  0  0  0
 56 74  1  0  0  0  0
 57 59  1  0  0  0  0
 58 60  1  0  0  0  0
 59 61  1  0  0  0  0
 60 73  1  0  0  0  0
 61 81  1  0  0  0  0
 62 64  1  0  0  0  0
 62 72  1  0  0  0  0
 63 74  1  0  0  0  0
 65 66  1  0  0  0  0
M  CHG  1  74   1
M  ISO  4  38 100  61 101  73 100  81 101
M  END
> <Batch ID>
0037

> <Smiles>
CNC(C)C(=O)NC(C(=O)N1Cc2cc([101O:1][101CH2:1]CCc3ccc(C)c(CC[100NH:0][100C:0](=O)N4CCCC(n5nc(-c6ccc(Oc7ccc(F)cc7F)cc6)c(C(N)=O)c5N)C4)c3)ccc2CC1C(=O)NC1CCCc2ccccc21)C(C)(C)C

> <Shape>
0.198

> <Color>
0.077

> <Negative vol penalty>
0.000

$$$$

  -OEChem-04052316593D

 82 90  0     1  0  0  0  0  0999 V2000
  -30.9427  -22.2867   15.7131 C   0  0  0  0  0  0  0  0  0  0  0  0
  -30.4864  -22.1639   17.0215 C   0  0  0  0  0  0  0  0  0  0  0  0
  -26.6347  -17.4240   18.4439 C   0  0  0  0  0  0  0  0  0  0  0  0
  -26.7293  -18.2966   20.6949 C   0  0  0  0  0  0  0  0  0  0  0  0
  -31.1518  -23.5514   15.1648 C   0  0  0  0  0  0  0  0  0  0  0  0
  -30.2399  -23.3058   17.7829 C   0  0  0  0  0  0  0  0  0  0  0  0
  -25.8691  -23.0387   20.3264 C   0  0  0  0  0  0  0  0  0  0  0  0
  -28.0237  -17.2973   18.4347 C   0  0  0  0  0  0  0  0  0  0  0  0
  -28.1183  -18.1699   20.6856 C   0  0  0  0  0  0  0  0  0  0  0  0
  -25.8550  -22.2693   21.4890 C   0  0  0  0  0  0  0  0  0  0  0  0
  -31.6594  -17.7382   21.3874 C   0  0  0  0  0  0  0  0  0  0  0  0
  -32.2685  -17.1855   22.5139 C   0  0  0  0  0  0  0  0  0  0  0  0
  -26.0752  -24.2747   22.8116 C   0  0  0  0  0  0  0  0  0  0  0  0
  -31.0072  -15.1493   22.1968 C   0  0  0  0  0  0  0  0  0  0  0  0
  -22.0787  -23.0744   24.4737 C   0  0  0  0  0  0  0  0  0  0  0  0
  -25.9874  -17.9237   19.5740 C   0  0  0  0  0  0  0  0  0  0  0  0
  -23.6134  -17.0917   19.9973 C   0  0  0  0  0  0  0  0  0  0  0  0
  -30.8985  -24.7096   15.9165 C   0  0  0  0  0  0  0  0  0  0  0  0
  -25.9975  -24.4333   20.3974 C   0  0  0  0  0  0  0  0  0  0  0  0
  -30.4470  -24.5872   17.2445 C   0  0  0  0  0  0  0  0  0  0  0  0
  -26.0881  -25.0597   21.6486 C   0  0  0  0  0  0  0  0  0  0  0  0
  -20.8744  -22.7755   23.8849 C   0  0  0  0  0  0  0  0  0  0  0  0
  -28.7656  -17.6702   19.5555 C   0  0  0  0  0  0  0  0  0  0  0  0
  -25.9609  -22.8870   22.7317 C   0  0  0  0  0  0  0  0  0  0  0  0
  -30.7242  -16.9965   20.6656 C   0  0  0  0  0  0  0  0  0  0  0  0
  -31.9424  -15.8910   22.9186 C   0  0  0  0  0  0  0  0  0  0  0  0
  -30.3981  -15.7021   21.0703 C   0  0  0  0  0  0  0  0  0  0  0  0
  -24.5526  -18.0554   19.5840 C   0  0  0  0  0  0  0  0  0  0  0  0
  -20.6802  -21.4077   24.1555 C   0  0  0  0  0  0  0  0  0  0  0  0
  -22.3951  -17.6988   19.8140 C   0  0  0  0  0  0  0  0  0  0  0  0
  -23.8234  -15.7661   20.5019 C   0  0  0  0  0  0  0  0  0  0  0  0
  -28.1365  -26.5444   19.3621 C   0  0  0  0  0  0  0  0  0  0  0  0
  -25.9705  -28.6939   20.4623 C   0  0  0  0  0  0  0  0  0  0  0  0
  -23.3736  -29.3700   22.5708 C   0  0  0  0  0  0  0  0  0  0  0  0
  -20.6812  -23.4335   19.6486 C   0  0  0  0  0  0  0  0  0  0  0  0
  -31.1844  -26.0544   15.2966 C   0  0  0  0  0  0  0  0  0  0  0  0
  -25.9842  -25.2512   19.1351 C   0  0  0  0  0  0  0  0  0  0  0  0
  -26.2075  -26.5553   21.7798 C   0  0  0  0  0  0  0  0  0  0  0  0
  -30.5418  -27.2193   16.0453 C   0  0  0  0  0  0  0  0  0  0  0  0
  -20.2203  -20.9871   17.1032 C   0  0  0  0  0  0  0  0  0  0  0  0
  -30.7805  -27.0859   17.5460 C   0  0  0  0  0  0  0  0  0  0  0  0
  -21.1936  -19.8714   17.4876 C   0  0  0  0  0  0  0  0  0  0  0  0
  -20.7930  -22.3679   17.4151 C   0  0  0  0  0  0  0  0  0  0  0  0
  -22.2250  -21.4328   19.1896 C   0  0  0  0  0  0  0  0  0  0  0  0
  -30.1446  -25.8026   18.0939 C   0  0  1  0  0  0  0  0  0  0  0  0
  -26.6370  -26.6198   19.3031 C   0  0  1  0  0  0  0  0  0  0  0  0
  -21.6689  -20.0195   18.9455 C   0  0  2  0  0  0  0  0  0  0  0  0
  -19.5428  -20.5605   23.7558 C   0  0  0  0  0  0  0  0  0  0  0  0
  -21.4978  -30.6720   23.6118 C   0  0  0  0  0  0  0  0  0  0  0  0
  -28.2268  -29.9460   22.0905 C   0  0  0  0  0  0  0  0  0  0  0  0
  -26.4925  -31.1347   23.4497 C   0  0  0  0  0  0  0  0  0  0  0  0
  -26.6869  -31.5905   21.0049 C   0  0  0  0  0  0  0  0  0  0  0  0
  -21.4228  -28.3731   20.5810 C   0  0  0  0  0  0  0  0  0  0  0  0
  -19.9932  -23.6903   23.1398 C   0  0  0  0  0  0  0  0  0  0  0  0
  -24.6968  -20.6180   25.2390 C   0  0  0  0  0  0  0  0  0  0  0  0
  -23.7986  -21.7188   25.8074 C   0  0  0  0  0  0  0  0  0  0  0  0
  -20.6691  -24.3840   21.9411 C   0  0  0  0  0  0  0  0  0  0  0  0
  -25.2066  -20.9195   23.8345 C   0  0  0  0  0  0  0  0  0  1  0  0
  -25.7256  -29.3850   21.7819 C   0  0  1  0  0  0  0  0  0  0  0  0
  -22.0336  -30.0432   22.3349 C   0  0  2  0  0  0  0  0  0  0  0  0
  -26.7826  -30.4857   22.0795 C   0  0  0  0  0  0  0  0  0  0  0  0
  -23.9802  -19.1886   19.1692 N   0  0  0  0  0  0  0  0  0  0  0  0
  -21.6811  -20.8745   24.8612 N   0  0  0  0  0  0  0  0  0  0  0  0
  -22.5158  -21.9126   25.0389 N   0  0  0  0  0  0  0  0  0  0  0  0
  -22.6680  -18.9408   19.3209 N   0  0  0  0  0  0  0  0  0  0  0  0
  -26.1962  -27.3111   20.5164 N   0  0  0  0  0  0  0  0  0  0  0  0
  -21.2234  -22.4429   18.8134 N   0  0  0  0  0  0  0  0  0  0  0  0
  -21.1277  -17.2861   20.0280 N   0  0  0  0  0  0  0  0  0  0  0  0
  -25.1390  -15.2994   20.6267 N   0  0  0  0  0  0  0  0  0  0  0  0
  -28.7153  -25.9717   18.2456 N   0  0  0  0  0  0  0  0  0  0  0  0
  -24.3512  -29.8726   21.7384 N   0  0  0  0  0  0  0  0  0  0  0  0
  -21.1384  -23.4303   20.9608 N   0  0  0  0  0  0  0  0  0  0  0  0
  -21.0350  -29.0517   21.8444 N   0  3  0  0  0  0  0  0  0  0  0  0
  -22.8719  -15.0118   20.8168 O   0  0  0  0  0  0  0  0  0  0  0  0
  -28.7249  -26.9752   20.3469 O   0  0  0  0  0  0  0  0  0  0  0  0
  -25.9547  -29.3552   19.4211 O   0  0  0  0  0  0  0  0  0  0  0  0
  -23.5376  -28.4892   23.4121 O   0  0  0  0  0  0  0  0  0  0  0  0
  -19.8472  -24.2562   19.2556 O   0  0  0  0  0  0  0  0  0  0  0  0
  -30.1210  -17.5464   19.5469 O   0  0  0  0  0  0  0  0  0  0  0  0
  -25.9481  -22.1383   23.8681 O   0  0  0  0  0  0  0  0  0  1  0  0
  -32.5285  -15.3598   23.9996 F   0  0  0  0  0  0  0  0  0  0  0  0
  -29.5013  -14.9843   20.3801 F   0  0  0  0  0  0  0  0  0  0  0  0
  1  2  1  0  0  0  0
  1  5  2  0  0  0  0
  2  6  2  0  0  0  0
  3  8  2  0  0  0  0
  3 16  1  0  0  0  0
  4  9  1  0  0  0  0
  4 16  2  0  0  0  0
  5 18  1  0  0  0  0
  6 20  1  0  0  0  0
  7 10  2  0  0  0  0
  7 19  1  0  0  0  0
  8 23  1  0  0  0  0
  9 23  2  0  0  0  0
 10 24  1  0  0  0  0
 11 12  2  0  0  0  0
 11 25  1  0  0  0  0
 12 26  1  0  0  0  0
 13 21  1  0  0  0  0
 13 24  2  0  0  0  0
 14 26  2  0  0  0  0
 14 27  1  0  0  0  0
 15 22  2  0  0  0  0
 15 64  1  0  0  0  0
 16 28  1  0  0  0  0
 17 28  1  0  0  0  0
 17 30  2  0  0  0  0
 17 31  1  0  0  0  0
 18 20  2  0  0  0  0
 18 36  1  0  0  0  0
 19 21  2  0  0  0  0
 19 37  1  0  0  0  0
 20 45  1  0  0  0  0
 21 38  1  0  0  0  0
 22 29  1  0  0  0  0
 22 54  1  0  0  0  0
 23 79  1  0  0  0  0
 24 80  1  0  0  0  0
 25 27  2  0  0  0  0
 25 79  1  0  0  0  0
 26 81  1  0  0  0  0
 27 82  1  0  0  0  0
 28 62  2  0  0  0  0
 29 48  1  0  0  0  0
 29 63  2  0  0  0  0
 30 65  1  0  0  0  0
 30 68  1  0  0  0  0
 31 69  1  0  0  0  0
 31 74  2  0  0  0  0
 32 46  1  0  0  0  0
 32 70  1  0  0  0  0
 32 75  2  0  0  0  0
 33 59  1  0  0  0  0
 33 66  1  0  0  0  0
 33 76  2  0  0  0  0
 34 60  1  0  0  0  0
 34 71  1  0  0  0  0
 34 77  2  0  0  0  0
 35 67  1  0  0  0  0
 35 72  1  0  0  0  0
 35 78  2  0  0  0  0
 36 39  1  0  0  0  0
 37 46  1  0  0  0  0
 38 66  1  0  0  0  0
 39 41  1  0  0  0  0
 40 42  1  0  0  0  0
 40 43  1  0  0  0  0
 41 45  1  0  0  0  0
 42 47  1  0  0  0  0
 43 67  1  0  0  0  0
 44 47  1  0  0  0  0
 44 67  1  0  0  0  0
 45 70  1  0  0  0  0
 46 66  1  0  0  0  0
 47 65  1  0  0  0  0
 49 60  1  0  0  0  0
 50 61  1  0  0  0  0
 51 61  1  0  0  0  0
 52 61  1  0  0  0  0
 53 73  1  0  0  0  0
 54 57  1  0  0  0  0
 55 56  1  0  0  0  0
 55 58  1  0  0  0  0
 56 64  1  0  0  0  0
 57 72  1  0  0  0  0
 58 80  1  0  0  0  0
 59 61  1  0  0  0  0
 59 71  1  0  0  0  0
 60 73  1  0  0  0  0
 62 65  1  0  0  0  0
 63 64  1  0  0  0  0
M  CHG  1  73   1
M  ISO  4  35 100  58 101  72 100  80 101
M  END
> <Batch ID>
0037

> <Smiles>
CNC(C)C(=O)NC(C(=O)N1Cc2cc([101O:1][101CH2:1]CCn3cc(CC[100NH:0][100C:0](=O)N4CCCC(n5nc(-c6ccc(Oc7ccc(F)cc7F)cc6)c(C(N)=O)c5N)C4)c(C)n3)ccc2CC1C(=O)NC1CCCc2ccccc21)C(C)(C)C

> <Shape>
0.175

> <Color>
0.090

> <Negative vol penalty>
0.000

$$$$

  -OEChem-04052316593D

 87 95  0     1  0  0  0  0  0999 V2000
  -19.9351  -32.0518   22.1155 C   0  0  0  0  0  0  0  0  0  0  0  0
  -21.0329  -31.2157   22.2921 C   0  0  0  0  0  0  0  0  0  0  0  0
  -23.1634   -9.7352   19.9697 C   0  0  0  0  0  0  0  0  0  0  0  0
  -23.6568  -10.0387   22.3152 C   0  0  0  0  0  0  0  0  0  0  0  0
  -18.6643  -31.6214   22.4948 C   0  0  0  0  0  0  0  0  0  0  0  0
  -20.8607  -29.9490   22.8492 C   0  0  0  0  0  0  0  0  0  0  0  0
  -23.9668  -24.8594   21.4517 C   0  0  0  0  0  0  0  0  0  0  0  0
  -22.4332   -8.5858   20.2720 C   0  0  0  0  0  0  0  0  0  0  0  0
  -22.9265   -8.8894   22.6176 C   0  0  0  0  0  0  0  0  0  0  0  0
  -25.0483  -24.2236   22.0601 C   0  0  0  0  0  0  0  0  0  0  0  0
  -23.3850   -5.5420   22.4938 C   0  0  0  0  0  0  0  0  0  0  0  0
  -23.9473   -4.6343   23.3913 C   0  0  0  0  0  0  0  0  0  0  0  0
  -23.5251  -22.7573   23.2215 C   0  0  0  0  0  0  0  0  0  0  0  0
  -28.9492  -21.2430   23.2545 C   0  0  0  0  0  0  0  0  0  0  0  0
  -30.0995  -20.6676   25.2996 C   0  0  0  0  0  0  0  0  0  0  0  0
  -28.4085  -22.3931   25.3092 C   0  0  0  0  0  0  0  0  0  0  0  0
  -22.0581   -4.9252   24.8690 C   0  0  0  0  0  0  0  0  0  0  0  0
  -23.7753  -10.4616   20.9913 C   0  0  0  0  0  0  0  0  0  0  0  0
  -24.0476  -12.9693   20.6103 C   0  0  0  0  0  0  0  0  0  0  0  0
  -18.4751  -30.3451   23.0479 C   0  0  0  0  0  0  0  0  0  0  0  0
  -22.6537  -24.4553   21.7325 C   0  0  0  0  0  0  0  0  0  0  0  0
  -19.5864  -29.5017   23.2375 C   0  0  0  0  0  0  0  0  0  0  0  0
  -22.4289  -23.3878   22.6134 C   0  0  0  0  0  0  0  0  0  0  0  0
  -29.8963  -20.4760   23.9329 C   0  0  0  0  0  0  0  0  0  0  0  0
  -28.2053  -22.2016   23.9426 C   0  0  0  0  0  0  0  0  0  0  0  0
  -29.3556  -21.6261   25.9877 C   0  0  0  0  0  0  0  0  0  0  0  0
  -22.3147   -8.1630   21.5959 C   0  0  0  0  0  0  0  0  0  0  0  0
  -24.8274  -23.1743   22.9474 C   0  0  0  0  0  0  0  0  0  0  0  0
  -22.1593   -6.1413   22.7838 C   0  0  0  0  0  0  0  0  0  0  0  0
  -23.2838   -4.3259   24.5789 C   0  0  0  0  0  0  0  0  0  0  0  0
  -21.4958   -5.8329   23.9714 C   0  0  0  0  0  0  0  0  0  0  0  0
  -24.5302  -11.6486   20.6795 C   0  0  0  0  0  0  0  0  0  0  0  0
  -25.1495  -13.7207   20.2822 C   0  0  0  0  0  0  0  0  0  0  0  0
  -22.7219  -13.4718   20.8237 C   0  0  0  0  0  0  0  0  0  0  0  0
  -20.1050  -25.8496   23.0222 C   0  0  0  0  0  0  0  0  0  0  0  0
  -30.5526  -14.9468   21.0521 C   0  0  0  0  0  0  0  0  0  0  0  0
  -18.6426  -23.0836   22.1657 C   0  0  0  0  0  0  0  0  0  0  0  0
  -18.9278  -19.7645   21.4251 C   0  0  0  0  0  0  0  0  0  0  0  0
  -17.0894  -29.9421   23.4864 C   0  0  0  0  0  0  0  0  0  0  0  0
  -21.4992  -25.1337   21.0474 C   0  0  0  0  0  0  0  0  0  0  0  0
  -21.0393  -22.9025   22.9329 C   0  0  0  0  0  0  0  0  0  0  0  0
  -16.9378  -28.4417   23.7233 C   0  0  0  0  0  0  0  0  0  0  0  0
  -29.7529  -12.3300   18.7385 C   0  0  0  0  0  0  0  0  0  0  0  0
  -18.1051  -27.9111   24.5495 C   0  0  0  0  0  0  0  0  0  0  0  0
  -28.2925  -12.0074   19.0522 C   0  0  0  0  0  0  0  0  0  0  0  0
  -30.5240  -12.7099   19.9987 C   0  0  0  0  0  0  0  0  0  0  0  0
  -28.4512  -13.5134   21.0848 C   0  0  0  0  0  0  0  0  0  0  0  0
  -19.4365  -28.1112   23.8155 C   0  0  1  0  0  0  0  0  0  0  0  0
  -20.1819  -24.9776   21.8010 C   0  0  1  0  0  0  0  0  0  0  0  0
  -27.6288  -13.1544   19.8346 C   0  0  2  0  0  0  0  0  0  0  0  0
  -31.4353  -23.5839   27.0246 C   0  0  0  0  0  0  0  0  0  0  0  0
  -17.5528  -17.7602   20.8009 C   0  0  0  0  0  0  0  0  0  0  0  0
  -17.6994  -22.8334   25.0567 C   0  0  0  0  0  0  0  0  0  0  0  0
  -17.1771  -20.4269   24.6047 C   0  0  0  0  0  0  0  0  0  0  0  0
  -15.9849  -22.2184   23.3430 C   0  0  0  0  0  0  0  0  0  0  0  0
  -20.3421  -19.4533   18.8441 C   0  0  0  0  0  0  0  0  0  0  0  0
  -30.6911  -19.4510   23.1967 C   0  0  0  0  0  0  0  0  0  0  0  0
  -27.1861  -23.0266   23.2134 C   0  0  0  0  0  0  0  0  0  1  0  0
  -29.7897  -16.0130   21.7972 C   0  0  0  0  0  0  0  0  0  0  0  0
  -30.1229  -23.2614   27.7265 C   0  0  0  0  0  0  0  0  0  0  0  0
  -28.3027  -21.5498   28.3099 C   0  0  0  0  0  0  0  0  0  0  0  0
  -30.6725  -17.2136   22.0866 C   0  0  0  0  0  0  0  0  0  0  0  0
  -27.7224  -20.1434   28.1634 C   0  0  0  0  0  0  0  0  0  0  0  0
  -29.5733  -21.8307   27.4491 C   0  0  1  0  0  0  0  0  0  0  0  0
  -18.4144  -21.7458   22.8269 C   0  0  1  0  0  0  0  0  0  0  0  0
  -18.3677  -18.9354   20.2835 C   0  0  2  0  0  0  0  0  0  0  0  0
  -17.3451  -21.8163   23.9535 C   0  0  0  0  0  0  0  0  0  0  0  0
  -25.8369  -11.5626   20.4163 N   0  0  0  0  0  0  0  0  0  0  0  0
  -26.1847  -12.8388   20.1784 N   0  0  0  0  0  0  0  0  0  0  0  0
  -19.9431  -23.6021   22.2427 N   0  0  0  0  0  0  0  0  0  0  0  0
  -29.8495  -13.7871   20.7253 N   0  0  0  0  0  0  0  0  0  0  0  0
  -25.3242  -15.0432   20.0750 N   0  0  0  0  0  0  0  0  0  0  0  0
  -21.7077  -12.5625   21.1539 N   0  0  0  0  0  0  0  0  0  0  0  0
  -19.5982  -27.1123   22.7808 N   0  0  0  0  0  0  0  0  0  0  0  0
  -18.0920  -20.8104   21.7548 N   0  0  0  0  0  0  0  0  0  0  0  0
  -28.7160  -19.1215   28.5677 N   0  3  0  0  0  0  0  0  0  0  0  0
  -19.4738  -18.4042   19.4377 N   0  3  0  0  0  0  0  0  0  0  0  0
  -29.9142  -18.2234   22.8701 N   0  3  0  0  0  0  0  0  0  0  0  0
  -22.4414  -14.6890   20.7083 O   0  0  0  0  0  0  0  0  0  0  0  0
  -20.4763  -25.4089   24.1036 O   0  0  0  0  0  0  0  0  0  0  0  0
  -31.7371  -15.1419   20.7673 O   0  0  0  0  0  0  0  0  0  0  0  0
  -17.7035  -23.6445   21.5956 O   0  0  0  0  0  0  0  0  0  0  0  0
  -19.9979  -19.5076   21.9724 O   0  0  0  0  0  0  0  0  0  0  0  0
  -21.6020   -7.0417   21.8913 O   0  0  0  0  0  0  0  0  0  0  0  0
  -25.8811  -22.5525   23.5431 O   0  0  0  0  0  0  0  0  0  1  0  0
  -23.8231   -3.4531   25.4400 F   0  0  0  0  0  0  0  0  0  0  0  0
  -20.3174   -6.4046   24.2550 F   0  0  0  0  0  0  0  0  0  0  0  0
  1  2  1  0  0  0  0
  1  5  2  0  0  0  0
  2  6  2  0  0  0  0
  3  8  2  0  0  0  0
  3 18  1  0  0  0  0
  4  9  1  0  0  0  0
  4 18  2  0  0  0  0
  5 20  1  0  0  0  0
  6 22  1  0  0  0  0
  7 10  2  0  0  0  0
  7 21  1  0  0  0  0
  8 27  1  0  0  0  0
  9 27  2  0  0  0  0
 10 28  1  0  0  0  0
 11 12  2  0  0  0  0
 11 29  1  0  0  0  0
 12 30  1  0  0  0  0
 13 23  1  0  0  0  0
 13 28  2  0  0  0  0
 14 24  1  0  0  0  0
 14 25  2  0  0  0  0
 15 24  2  0  0  0  0
 15 26  1  0  0  0  0
 16 25  1  0  0  0  0
 16 26  2  0  0  0  0
 17 30  2  0  0  0  0
 17 31  1  0  0  0  0
 18 32  1  0  0  0  0
 19 32  1  0  0  0  0
 19 33  2  0  0  0  0
 19 34  1  0  0  0  0
 20 22  2  0  0  0  0
 20 39  1  0  0  0  0
 21 23  2  0  0  0  0
 21 40  1  0  0  0  0
 22 48  1  0  0  0  0
 23 41  1  0  0  0  0
 24 57  1  0  0  0  0
 25 58  1  0  0  0  0
 26 64  1  0  0  0  0
 27 84  1  0  0  0  0
 28 85  1  0  0  0  0
 29 31  2  0  0  0  0
 29 84  1  0  0  0  0
 30 86  1  0  0  0  0
 31 87  1  0  0  0  0
 32 68  2  0  0  0  0
 33 69  1  0  0  0  0
 33 72  1  0  0  0  0
 34 73  1  0  0  0  0
 34 79  2  0  0  0  0
 35 49  1  0  0  0  0
 35 74  1  0  0  0  0
 35 80  2  0  0  0  0
 36 59  1  0  0  0  0
 36 71  1  0  0  0  0
 36 81  2  0  0  0  0
 37 65  1  0  0  0  0
 37 70  1  0  0  0  0
 37 82  2  0  0  0  0
 38 66  1  0  0  0  0
 38 75  1  0  0  0  0
 38 83  2  0  0  0  0
 39 42  1  0  0  0  0
 40 49  1  0  0  0  0
 41 70  1  0  0  0  0
 42 44  1  0  0  0  0
 43 45  1  0  0  0  0
 43 46  1  0  0  0  0
 44 48  1  0  0  0  0
 45 50  1  0  0  0  0
 46 71  1  0  0  0  0
 47 50  1  0  0  0  0
 47 71  1  0  0  0  0
 48 74  1  0  0  0  0
 49 70  1  0  0  0  0
 50 69  1  0  0  0  0
 51 60  1  0  0  0  0
 52 66  1  0  0  0  0
 53 67  1  0  0  0  0
 54 67  1  0  0  0  0
 55 67  1  0  0  0  0
 56 77  1  0  0  0  0
 57 78  1  0  0  0  0
 58 85  1  0  0  0  0
 59 62  1  0  0  0  0
 60 64  1  0  0  0  0
 61 63  1  0  0  0  0
 61 64  1  0  0  0  0
 62 78  1  0  0  0  0
 63 76  1  0  0  0  0
 65 67  1  0  0  0  0
 65 75  1  0  0  0  0
 66 77  1  0  0  0  0
 68 69  1  0  0  0  0
M  CHG  3  76   1  77   1  78   1
M  ISO  4  36 100  58 101  59 100  85 101
M  END
> <Batch ID>
0037

> <Smiles>
CCC(CCN)c1cc(CNC[100CH2:0][100C:0](=O)N2CCCC(n3nc(-c4ccc(Oc5ccc(F)cc5F)cc4)c(C(N)=O)c3N)C2)cc([101CH2:1][101O:1]c2ccc3c(c2)CN(C(=O)C(NC(=O)C(C)NC)C(C)(C)C)C(C(=O)NC2CCCc4ccccc42)C3)c1

> <Shape>
0.225

> <Color>
0.188

> <Negative vol penalty>
0.000

$$$$

  -OEChem-04052316593D

 83 91  0     1  0  0  0  0  0999 V2000
  -25.7121   -6.8927   22.6622 C   0  0  0  0  0  0  0  0  0  0  0  0
  -26.4998   -7.9236   22.1599 C   0  0  0  0  0  0  0  0  0  0  0  0
  -26.1506  -31.4706   20.6782 C   0  0  0  0  0  0  0  0  0  0  0  0
  -26.4891  -30.2005   22.7054 C   0  0  0  0  0  0  0  0  0  0  0  0
  -24.3255   -6.9475   22.5274 C   0  0  0  0  0  0  0  0  0  0  0  0
  -25.9014   -9.0093   21.5216 C   0  0  0  0  0  0  0  0  0  0  0  0
  -27.7683  -14.8406   21.6476 C   0  0  0  0  0  0  0  0  0  0  0  0
  -26.2544  -32.6570   21.4042 C   0  0  0  0  0  0  0  0  0  0  0  0
  -26.5930  -31.3869   23.4314 C   0  0  0  0  0  0  0  0  0  0  0  0
  -28.5130  -15.6067   20.7518 C   0  0  0  0  0  0  0  0  0  0  0  0
  -26.0719  -36.0170   22.7830 C   0  0  0  0  0  0  0  0  0  0  0  0
  -25.1371  -37.0199   22.5265 C   0  0  0  0  0  0  0  0  0  0  0  0
  -26.4706  -16.4713   19.8029 C   0  0  0  0  0  0  0  0  0  0  0  0
  -23.3541  -35.5235   23.1734 C   0  0  0  0  0  0  0  0  0  0  0  0
  -28.1658  -20.1844   18.1351 C   0  0  0  0  0  0  0  0  0  0  0  0
  -26.2679  -30.2422   21.3288 C   0  0  0  0  0  0  0  0  0  0  0  0
  -27.2045  -28.3045   19.9593 C   0  0  0  0  0  0  0  0  0  0  0  0
  -23.7091   -8.0391   21.8956 C   0  0  0  0  0  0  0  0  0  0  0  0
  -26.3668  -14.8759   21.6205 C   0  0  0  0  0  0  0  0  0  0  0  0
  -24.5053   -9.0780   21.3770 C   0  0  0  0  0  0  0  0  0  0  0  0
  -25.7105  -15.7067   20.7011 C   0  0  0  0  0  0  0  0  0  0  0  0
  -26.4756  -32.6152   22.7808 C   0  0  0  0  0  0  0  0  0  0  0  0
  -27.8641  -16.4200   19.8273 C   0  0  0  0  0  0  0  0  0  0  0  0
  -25.6478  -34.7672   23.2346 C   0  0  0  0  0  0  0  0  0  0  0  0
  -23.7782  -36.7732   22.7217 C   0  0  0  0  0  0  0  0  0  0  0  0
  -24.2889  -34.5205   23.4299 C   0  0  0  0  0  0  0  0  0  0  0  0
  -26.1602  -29.0163   20.5795 C   0  0  0  0  0  0  0  0  0  0  0  0
  -27.3275  -21.2282   18.4700 C   0  0  0  0  0  0  0  0  0  0  0  0
  -29.2686  -20.0200   18.9481 C   0  0  0  0  0  0  0  0  0  0  0  0
  -26.5872  -27.2206   19.3844 C   0  0  0  0  0  0  0  0  0  0  0  0
  -28.6490  -21.7905   20.2320 C   0  0  0  0  0  0  0  0  0  0  0  0
  -28.6072  -28.5968   19.9078 C   0  0  0  0  0  0  0  0  0  0  0  0
  -24.0791  -12.7363   21.0797 C   0  0  0  0  0  0  0  0  0  0  0  0
  -22.1282  -15.1829   21.9345 C   0  0  0  0  0  0  0  0  0  0  0  0
  -21.6658  -18.5509   22.2336 C   0  0  0  0  0  0  0  0  0  0  0  0
  -22.9388  -23.0043   19.6240 C   0  0  0  0  0  0  0  0  0  0  0  0
  -22.2098   -8.0312   21.7317 C   0  0  0  0  0  0  0  0  0  0  0  0
  -25.5784  -14.0640   22.6113 C   0  0  0  0  0  0  0  0  0  0  0  0
  -24.2081  -15.7958   20.6445 C   0  0  0  0  0  0  0  0  0  0  0  0
  -21.6290   -9.3968   21.3742 C   0  0  0  0  0  0  0  0  0  0  0  0
  -21.6787  -26.2049   18.7049 C   0  0  0  0  0  0  0  0  0  0  0  0
  -22.4420  -10.0476   20.2595 C   0  0  0  0  0  0  0  0  0  0  0  0
  -22.8155  -27.1629   19.0652 C   0  0  0  0  0  0  0  0  0  0  0  0
  -21.5630  -25.0624   19.7115 C   0  0  0  0  0  0  0  0  0  0  0  0
  -23.9473  -25.2675   20.3002 C   0  0  0  0  0  0  0  0  0  0  0  0
  -23.8916  -10.2844   20.7002 C   0  0  1  0  0  0  0  0  0  0  0  0
  -24.1501  -13.7852   22.1533 C   0  0  1  0  0  0  0  0  0  0  0  0
  -24.1392  -26.4054   19.2831 C   0  0  2  0  0  0  0  0  0  0  0  0
  -28.9160  -22.6798   21.3989 C   0  0  0  0  0  0  0  0  0  0  0  0
  -19.9542  -20.2505   22.9258 C   0  0  0  0  0  0  0  0  0  0  0  0
  -20.6328  -14.7415   19.3117 C   0  0  0  0  0  0  0  0  0  0  0  0
  -19.5914  -16.9991   19.6063 C   0  0  0  0  0  0  0  0  0  0  0  0
  -19.1660  -15.2028   21.2841 C   0  0  0  0  0  0  0  0  0  0  0  0
  -23.4027  -19.5917   24.3920 C   0  0  0  0  0  0  0  0  0  0  0  0
  -26.1081  -21.4843   17.6493 C   0  0  0  0  0  0  0  0  0  0  0  0
  -30.2431  -18.9033   18.6622 C   0  0  0  0  0  0  0  0  0  0  0  0
  -24.8492  -20.7343   18.1269 C   0  0  0  0  0  0  0  0  0  0  0  0
  -24.4478  -21.0348   19.5695 C   0  0  0  0  0  0  0  0  0  0  0  0
  -29.8736  -17.6122   19.3845 C   0  0  0  0  0  0  0  0  0  1  0  0
  -21.4387  -16.3072   21.1999 C   0  0  1  0  0  0  0  0  0  0  0  0
  -21.1299  -19.3967   23.3746 C   0  0  2  0  0  0  0  0  0  0  0  0
  -20.2355  -15.8097   20.3500 C   0  0  0  0  0  0  0  0  0  0  0  0
  -24.9697  -28.4338   20.4139 N   0  0  0  0  0  0  0  0  0  0  0  0
  -27.5395  -22.0540   19.5157 N   0  0  0  0  0  0  0  0  0  0  0  0
  -29.5422  -20.8076   20.0088 N   0  0  0  0  0  0  0  0  0  0  0  0
  -25.2622  -27.3445   19.6831 N   0  0  0  0  0  0  0  0  0  0  0  0
  -23.4814  -14.9780   21.6297 N   0  0  0  0  0  0  0  0  0  0  0  0
  -22.8516  -24.3843   19.8710 N   0  0  0  0  0  0  0  0  0  0  0  0
  -27.0538  -26.1833   18.6573 N   0  0  0  0  0  0  0  0  0  0  0  0
  -29.0733  -29.7508   20.5521 N   0  0  0  0  0  0  0  0  0  0  0  0
  -23.9750  -11.4451   21.5607 N   0  0  0  0  0  0  0  0  0  0  0  0
  -21.0872  -17.2996   22.2099 N   0  0  0  0  0  0  0  0  0  0  0  0
  -24.1980  -22.4414   19.7923 N   0  0  0  0  0  0  0  0  0  0  0  0
  -22.1952  -20.2999   23.8946 N   0  3  0  0  0  0  0  0  0  0  0  0
  -29.4207  -27.8652   19.2941 O   0  0  0  0  0  0  0  0  0  0  0  0
  -24.1146  -13.0737   19.9022 O   0  0  0  0  0  0  0  0  0  0  0  0
  -21.4917  -14.5158   22.7539 O   0  0  0  0  0  0  0  0  0  0  0  0
  -22.5103  -18.9608   21.4402 O   0  0  0  0  0  0  0  0  0  0  0  0
  -21.9676  -22.3252   19.2739 O   0  0  0  0  0  0  0  0  0  0  0  0
  -26.5772  -33.7728   23.4896 O   0  0  0  0  0  0  0  0  0  0  0  0
  -28.5885  -17.1682   18.9514 O   0  0  0  0  0  0  0  0  0  1  0  0
  -22.8807  -37.7369   22.4768 F   0  0  0  0  0  0  0  0  0  0  0  0
  -23.8756  -33.3222   23.8647 F   0  0  0  0  0  0  0  0  0  0  0  0
  1  2  1  0  0  0  0
  1  5  2  0  0  0  0
  2  6  2  0  0  0  0
  3  8  2  0  0  0  0
  3 16  1  0  0  0  0
  4  9  1  0  0  0  0
  4 16  2  0  0  0  0
  5 18  1  0  0  0  0
  6 20  1  0  0  0  0
  7 10  2  0  0  0  0
  7 19  1  0  0  0  0
  8 22  1  0  0  0  0
  9 22  2  0  0  0  0
 10 23  1  0  0  0  0
 11 12  2  0  0  0  0
 11 24  1  0  0  0  0
 12 25  1  0  0  0  0
 13 21  1  0  0  0  0
 13 23  2  0  0  0  0
 14 25  2  0  0  0  0
 14 26  1  0  0  0  0
 15 28  2  0  0  0  0
 15 29  1  0  0  0  0
 16 27  1  0  0  0  0
 17 27  1  0  0  0  0
 17 30  2  0  0  0  0
 17 32  1  0  0  0  0
 18 20  2  0  0  0  0
 18 37  1  0  0  0  0
 19 21  2  0  0  0  0
 19 38  1  0  0  0  0
 20 46  1  0  0  0  0
 21 39  1  0  0  0  0
 22 80  1  0  0  0  0
 23 81  1  0  0  0  0
 24 26  2  0  0  0  0
 24 80  1  0  0  0  0
 25 82  1  0  0  0  0
 26 83  1  0  0  0  0
 27 63  2  0  0  0  0
 28 55  1  0  0  0  0
 28 64  1  0  0  0  0
 29 56  1  0  0  0  0
 29 65  2  0  0  0  0
 30 66  1  0  0  0  0
 30 69  1  0  0  0  0
 31 49  1  0  0  0  0
 31 64  2  0  0  0  0
 31 65  1  0  0  0  0
 32 70  1  0  0  0  0
 32 75  2  0  0  0  0
 33 47  1  0  0  0  0
 33 71  1  0  0  0  0
 33 76  2  0  0  0  0
 34 60  1  0  0  0  0
 34 67  1  0  0  0  0
 34 77  2  0  0  0  0
 35 61  1  0  0  0  0
 35 72  1  0  0  0  0
 35 78  2  0  0  0  0
 36 68  1  0  0  0  0
 36 73  1  0  0  0  0
 36 79  2  0  0  0  0
 37 40  1  0  0  0  0
 38 47  1  0  0  0  0
 39 67  1  0  0  0  0
 40 42  1  0  0  0  0
 41 43  1  0  0  0  0
 41 44  1  0  0  0  0
 42 46  1  0  0  0  0
 43 48  1  0  0  0  0
 44 68  1  0  0  0  0
 45 48  1  0  0  0  0
 45 68  1  0  0  0  0
 46 71  1  0  0  0  0
 47 67  1  0  0  0  0
 48 66  1  0  0  0  0
 50 61  1  0  0  0  0
 51 62  1  0  0  0  0
 52 62  1  0  0  0  0
 53 62  1  0  0  0  0
 54 74  1  0  0  0  0
 55 57  1  0  0  0  0
 56 59  1  0  0  0  0
 57 58  1  0  0  0  0
 58 73  1  0  0  0  0
 59 81  1  0  0  0  0
 60 62  1  0  0  0  0
 60 72  1  0  0  0  0
 61 74  1  0  0  0  0
 63 66  1  0  0  0  0
M  CHG  1  74   1
M  ISO  4  36 100  59 101  73 100  81 101
M  END
> <Batch ID>
0037

> <Smiles>
CNC(C)C(=O)NC(C(=O)N1Cc2cc([101O:1][101CH2:1]Cc3cc(CCC[100NH:0][100C:0](=O)N4CCCC(n5nc(-c6ccc(Oc7ccc(F)cc7F)cc6)c(C(N)=O)c5N)C4)nc(C)n3)ccc2CC1C(=O)NC1CCCc2ccccc21)C(C)(C)C

> <Shape>
0.247

> <Color>
0.057

> <Negative vol penalty>
0.000

$$$$

  -OEChem-04052316593D

 88 97  0     1  0  0  0  0  0999 V2000
  -27.8752  -34.1786   25.6520 C   0  0  0  0  0  0  0  0  0  0  0  0
  -28.0977  -32.9927   24.9595 C   0  0  0  0  0  0  0  0  0  0  0  0
  -22.4965  -14.9261   21.7538 C   0  0  0  0  0  0  0  0  0  0  0  0
  -22.9385  -15.5098   19.4514 C   0  0  0  0  0  0  0  0  0  0  0  0
  -26.6206  -34.4388   26.2015 C   0  0  0  0  0  0  0  0  0  0  0  0
  -27.0657  -32.0657   24.8170 C   0  0  0  0  0  0  0  0  0  0  0  0
  -26.7325  -30.2383   20.1059 C   0  0  0  0  0  0  0  0  0  0  0  0
  -30.2854  -23.7841   17.3500 C   0  0  0  0  0  0  0  0  0  0  0  0
  -21.4849  -15.8852   21.8028 C   0  0  0  0  0  0  0  0  0  0  0  0
  -21.9269  -16.4689   19.5004 C   0  0  0  0  0  0  0  0  0  0  0  0
  -27.6534  -29.2590   19.7362 C   0  0  0  0  0  0  0  0  0  0  0  0
  -21.5260  -19.6087   20.6887 C   0  0  0  0  0  0  0  0  0  0  0  0
  -21.7960  -20.8639   20.1436 C   0  0  0  0  0  0  0  0  0  0  0  0
  -29.2322  -24.6275   17.6857 C   0  0  0  0  0  0  0  0  0  0  0  0
  -25.9876  -27.5567   20.1183 C   0  0  0  0  0  0  0  0  0  0  0  0
  -19.9744  -20.5778   18.5825 C   0  0  0  0  0  0  0  0  0  0  0  0
  -30.4843  -23.2036   19.6479 C   0  0  0  0  0  0  0  0  0  0  0  0
  -31.4493  -20.5086   16.0577 C   0  0  0  0  0  0  0  0  0  0  0  0
  -23.2234  -14.7385   20.5781 C   0  0  0  0  0  0  0  0  0  0  0  0
  -24.1412  -12.3954   20.1594 C   0  0  0  0  0  0  0  0  0  0  0  0
  -25.5700  -33.5189   26.0574 C   0  0  0  0  0  0  0  0  0  0  0  0
  -25.4333  -29.8826   20.4957 C   0  0  0  0  0  0  0  0  0  0  0  0
  -25.7962  -32.3133   25.3663 C   0  0  0  0  0  0  0  0  0  0  0  0
  -25.0512  -28.5335   20.4901 C   0  0  0  0  0  0  0  0  0  0  0  0
  -30.9287  -23.0550   18.3439 C   0  0  0  0  0  0  0  0  0  0  0  0
  -31.6311  -20.8176   17.4191 C   0  0  0  0  0  0  0  0  0  0  0  0
  -21.2001  -16.6566   20.6761 C   0  0  0  0  0  0  0  0  0  0  0  0
  -27.2819  -27.9178   19.7452 C   0  0  0  0  0  0  0  0  0  0  0  0
  -20.4802  -18.8380   20.1807 C   0  0  0  0  0  0  0  0  0  0  0  0
  -21.0202  -21.3485   19.0905 C   0  0  0  0  0  0  0  0  0  0  0  0
  -19.7044  -19.3226   19.1276 C   0  0  0  0  0  0  0  0  0  0  0  0
  -24.2689  -13.7483   20.5271 C   0  0  0  0  0  0  0  0  0  0  0  0
  -28.8636  -24.7056   19.0191 C   0  0  0  0  0  0  0  0  0  0  0  0
  -31.3348  -19.6499   18.0788 C   0  0  0  0  0  0  0  0  0  0  0  0
  -25.4121  -11.8871   20.2736 C   0  0  0  0  0  0  0  0  0  0  0  0
  -22.9779  -11.6636   19.7510 C   0  0  0  0  0  0  0  0  0  0  0  0
  -23.7272  -30.1909   23.1599 C   0  0  0  0  0  0  0  0  0  0  0  0
  -21.3444  -29.0004   21.3086 C   0  0  0  0  0  0  0  0  0  0  0  0
  -20.4395  -27.1730   18.5721 C   0  0  0  0  0  0  0  0  0  0  0  0
  -30.8442  -14.3919   20.0100 C   0  0  0  0  0  0  0  0  0  0  0  0
  -24.2444  -33.8228   26.7095 C   0  0  0  0  0  0  0  0  0  0  0  0
  -24.4436  -30.9530   20.8660 C   0  0  0  0  0  0  0  0  0  0  0  0
  -23.6625  -28.1009   20.8809 C   0  0  0  0  0  0  0  0  0  0  0  0
  -23.0984  -32.9575   26.1919 C   0  0  0  0  0  0  0  0  0  0  0  0
  -29.4864  -12.5025   22.7051 C   0  0  0  0  0  0  0  0  0  0  0  0
  -23.5196  -31.4925   26.1340 C   0  0  0  0  0  0  0  0  0  0  0  0
  -27.9837  -12.4855   22.4193 C   0  0  0  0  0  0  0  0  0  0  0  0
  -30.1204  -13.8352   22.3128 C   0  0  0  0  0  0  0  0  0  0  0  0
  -28.3584  -14.2425   20.6385 C   0  0  0  0  0  0  0  0  0  0  0  0
  -24.6949  -31.2942   25.1692 C   0  0  1  0  0  0  0  0  0  0  0  0
  -23.3041  -30.4369   21.7393 C   0  0  1  0  0  0  0  0  0  0  0  0
  -27.6847  -12.8989   20.9657 C   0  0  2  0  0  0  0  0  0  0  0  0
  -31.3335  -19.3169   19.5159 C   0  0  0  0  0  0  0  0  0  0  0  0
  -18.4182  -26.3431   17.3380 C   0  0  0  0  0  0  0  0  0  0  0  0
  -20.9142  -26.8703   23.4505 C   0  0  0  0  0  0  0  0  0  0  0  0
  -19.5939  -25.5552   21.7786 C   0  0  0  0  0  0  0  0  0  0  0  0
  -18.8111  -27.8165   22.4830 C   0  0  0  0  0  0  0  0  0  0  0  0
  -21.1903  -28.6455   16.1171 C   0  0  0  0  0  0  0  0  0  0  0  0
  -32.0587  -22.1446   18.0172 C   0  0  0  0  0  0  0  0  0  0  0  0
  -27.7309  -25.6054   19.4174 C   0  0  0  0  0  0  0  0  0  1  0  0
  -31.7960  -16.4204   17.5558 C   0  0  0  0  0  0  0  0  0  0  0  0
  -30.6172  -17.3699   17.3030 C   0  0  0  0  0  0  0  0  0  0  0  0
  -31.4121  -14.9458   17.6585 C   0  0  0  0  0  0  0  0  0  0  0  0
  -20.8348  -27.6178   20.9805 C   0  0  1  0  0  0  0  0  0  0  0  0
  -19.4502  -27.4539   17.4555 C   0  0  2  0  0  0  0  0  0  0  0  0
  -20.0653  -26.9726   22.1676 C   0  0  0  0  0  0  0  0  0  0  0  0
  -29.4647  -24.0130   20.0123 N   0  0  0  0  0  0  0  0  0  0  0  0
  -31.0673  -19.2437   15.8627 N   0  0  0  0  0  0  0  0  0  0  0  0
  -25.5219  -14.0786   20.8509 N   0  0  0  0  0  0  0  0  0  0  0  0
  -31.0067  -18.7475   17.1102 N   0  0  0  0  0  0  0  0  0  0  0  0
  -26.1932  -12.9259   20.6871 N   0  0  0  0  0  0  0  0  0  0  0  0
  -22.7328  -29.1842   21.2409 N   0  0  0  0  0  0  0  0  0  0  0  0
  -29.8001  -14.1683   20.9227 N   0  0  0  0  0  0  0  0  0  0  0  0
  -25.9264  -10.6574   20.0599 N   0  0  0  0  0  0  0  0  0  0  0  0
  -21.7516  -12.3393   19.6877 N   0  0  0  0  0  0  0  0  0  0  0  0
  -24.2314  -31.3079   23.7983 N   0  0  0  0  0  0  0  0  0  0  0  0
  -20.0467  -27.7522   19.7601 N   0  0  0  0  0  0  0  0  0  0  0  0
  -30.4534  -14.6960   18.7117 N   0  0  0  0  0  0  0  0  0  0  0  0
  -20.1615  -27.5743   16.1514 N   0  3  0  0  0  0  0  0  0  0  0  0
  -23.0214  -10.4426   19.4669 O   0  0  0  0  0  0  0  0  0  0  0  0
  -23.6039  -29.0709   23.6417 O   0  0  0  0  0  0  0  0  0  0  0  0
  -20.5398  -29.8865   21.6068 O   0  0  0  0  0  0  0  0  0  0  0  0
  -21.4569  -26.5033   18.4079 O   0  0  0  0  0  0  0  0  0  0  0  0
  -32.0363  -14.3203   20.3274 O   0  0  0  0  0  0  0  0  0  0  0  0
  -20.2128  -17.5924   20.7235 O   0  0  0  0  0  0  0  0  0  0  0  0
  -28.1791  -26.9599   19.3854 O   0  0  0  0  0  0  0  0  0  1  0  0
  -21.2787  -22.5545   18.5681 F   0  0  0  0  0  0  0  0  0  0  0  0
  -18.6976  -18.5873   18.6362 F   0  0  0  0  0  0  0  0  0  0  0  0
  1  2  1  0  0  0  0
  1  5  2  0  0  0  0
  2  6  2  0  0  0  0
  3  9  2  0  0  0  0
  3 19  1  0  0  0  0
  4 10  1  0  0  0  0
  4 19  2  0  0  0  0
  5 21  1  0  0  0  0
  6 23  1  0  0  0  0
  7 11  2  0  0  0  0
  7 22  1  0  0  0  0
  8 14  2  0  0  0  0
  8 25  1  0  0  0  0
  9 27  1  0  0  0  0
 10 27  2  0  0  0  0
 11 28  1  0  0  0  0
 12 13  2  0  0  0  0
 12 29  1  0  0  0  0
 13 30  1  0  0  0  0
 14 33  1  0  0  0  0
 15 24  1  0  0  0  0
 15 28  2  0  0  0  0
 16 30  2  0  0  0  0
 16 31  1  0  0  0  0
 17 25  2  0  0  0  0
 17 67  1  0  0  0  0
 18 26  1  0  0  0  0
 18 68  2  0  0  0  0
 19 32  1  0  0  0  0
 20 32  1  0  0  0  0
 20 35  2  0  0  0  0
 20 36  1  0  0  0  0
 21 23  2  0  0  0  0
 21 41  1  0  0  0  0
 22 24  2  0  0  0  0
 22 42  1  0  0  0  0
 23 50  1  0  0  0  0
 24 43  1  0  0  0  0
 25 59  1  0  0  0  0
 26 34  2  0  0  0  0
 26 59  1  0  0  0  0
 27 85  1  0  0  0  0
 28 86  1  0  0  0  0
 29 31  2  0  0  0  0
 29 85  1  0  0  0  0
 30 87  1  0  0  0  0
 31 88  1  0  0  0  0
 32 69  2  0  0  0  0
 33 60  1  0  0  0  0
 33 67  2  0  0  0  0
 34 53  1  0  0  0  0
 34 70  1  0  0  0  0
 35 71  1  0  0  0  0
 35 74  1  0  0  0  0
 36 75  1  0  0  0  0
 36 80  2  0  0  0  0
 37 51  1  0  0  0  0
 37 76  1  0  0  0  0
 37 81  2  0  0  0  0
 38 64  1  0  0  0  0
 38 72  1  0  0  0  0
 38 82  2  0  0  0  0
 39 65  1  0  0  0  0
 39 77  1  0  0  0  0
 39 83  2  0  0  0  0
 40 73  1  0  0  0  0
 40 78  1  0  0  0  0
 40 84  2  0  0  0  0
 41 44  1  0  0  0  0
 42 51  1  0  0  0  0
 43 72  1  0  0  0  0
 44 46  1  0  0  0  0
 45 47  1  0  0  0  0
 45 48  1  0  0  0  0
 46 50  1  0  0  0  0
 47 52  1  0  0  0  0
 48 73  1  0  0  0  0
 49 52  1  0  0  0  0
 49 73  1  0  0  0  0
 50 76  1  0  0  0  0
 51 72  1  0  0  0  0
 52 71  1  0  0  0  0
 54 65  1  0  0  0  0
 55 66  1  0  0  0  0
 56 66  1  0  0  0  0
 57 66  1  0  0  0  0
 58 79  1  0  0  0  0
 60 86  1  0  0  0  0
 61 62  1  0  0  0  0
 61 63  1  0  0  0  0
 62 70  1  0  0  0  0
 63 78  1  0  0  0  0
 64 66  1  0  0  0  0
 64 77  1  0  0  0  0
 65 79  1  0  0  0  0
 68 70  1  0  0  0  0
 69 71  1  0  0  0  0
M  CHG  1  79   1
M  ISO  4  40 100  60 101  78 100  86 101
M  END
> <Batch ID>
0037

> <Smiles>
CNC(C)C(=O)NC(C(=O)N1Cc2cc([101O:1][101CH2:1]c3ccc(Cc4cnn(CCC[100NH:0][100C:0](=O)N5CCCC(n6nc(-c7ccc(Oc8ccc(F)cc8F)cc7)c(C(N)=O)c6N)C5)c4C)cn3)ccc2CC1C(=O)NC1CCCc2ccccc21)C(C)(C)C

> <Shape>
0.272

> <Color>
0.090

> <Negative vol penalty>
0.000

$$$$

  -OEChem-04052316593D

 88 96  0     1  0  0  0  0  0999 V2000
  -22.3970  -12.6591   20.0494 C   0  0  0  0  0  0  0  0  0  0  0  0
  -22.1531  -13.9930   19.7387 C   0  0  0  0  0  0  0  0  0  0  0  0
  -26.7203  -27.9509   22.6475 C   0  0  0  0  0  0  0  0  0  0  0  0
  -25.6698  -28.4512   20.5301 C   0  0  0  0  0  0  0  0  0  0  0  0
  -23.4426  -12.3246   20.9090 C   0  0  0  0  0  0  0  0  0  0  0  0
  -22.9541  -14.9934   20.2884 C   0  0  0  0  0  0  0  0  0  0  0  0
  -24.3412  -18.4666   16.8740 C   0  0  0  0  0  0  0  0  0  0  0  0
  -27.6679  -27.1651   21.9917 C   0  0  0  0  0  0  0  0  0  0  0  0
  -26.6174  -27.6654   19.8743 C   0  0  0  0  0  0  0  0  0  0  0  0
  -23.3944  -19.4278   16.5227 C   0  0  0  0  0  0  0  0  0  0  0  0
  -28.9751  -26.0824   17.6041 C   0  0  0  0  0  0  0  0  0  0  0  0
  -29.5517  -26.5951   16.4421 C   0  0  0  0  0  0  0  0  0  0  0  0
  -24.4522  -21.0049   18.0103 C   0  0  0  0  0  0  0  0  0  0  0  0
  -18.9589  -24.6054   15.0481 C   0  0  0  0  0  0  0  0  0  0  0  0
  -20.7465  -23.1393   14.3468 C   0  0  0  0  0  0  0  0  0  0  0  0
  -19.6777  -22.8029   16.4873 C   0  0  0  0  0  0  0  0  0  0  0  0
  -30.4055  -28.4758   17.6956 C   0  0  0  0  0  0  0  0  0  0  0  0
  -25.7212  -28.5940   21.9167 C   0  0  0  0  0  0  0  0  0  0  0  0
  -24.8269  -30.7818   22.8764 C   0  0  0  0  0  0  0  0  0  0  0  0
  -24.2628  -13.3207   21.4618 C   0  0  0  0  0  0  0  0  0  0  0  0
  -25.3459  -18.7645   17.8059 C   0  0  0  0  0  0  0  0  0  0  0  0
  -24.0108  -14.6720   21.1572 C   0  0  0  0  0  0  0  0  0  0  0  0
  -25.4122  -20.0465   18.3698 C   0  0  0  0  0  0  0  0  0  0  0  0
  -19.9110  -24.2289   14.1009 C   0  0  0  0  0  0  0  0  0  0  0  0
  -18.8422  -23.8925   16.2413 C   0  0  0  0  0  0  0  0  0  0  0  0
  -20.6298  -22.4263   15.5401 C   0  0  0  0  0  0  0  0  0  0  0  0
  -27.6165  -27.0223   20.6051 C   0  0  0  0  0  0  0  0  0  0  0  0
  -23.4480  -20.6962   17.0930 C   0  0  0  0  0  0  0  0  0  0  0  0
  -29.1136  -26.7665   18.8119 C   0  0  0  0  0  0  0  0  0  0  0  0
  -30.2670  -27.7918   16.4879 C   0  0  0  0  0  0  0  0  0  0  0  0
  -29.8288  -27.9631   18.8576 C   0  0  0  0  0  0  0  0  0  0  0  0
  -24.7417  -29.4054   22.5937 C   0  0  0  0  0  0  0  0  0  0  0  0
  -23.6525  -31.0721   23.5268 C   0  0  0  0  0  0  0  0  0  0  0  0
  -25.8740  -31.7147   22.5778 C   0  0  0  0  0  0  0  0  0  0  0  0
  -26.1596  -17.6373   20.6644 C   0  0  0  0  0  0  0  0  0  0  0  0
  -28.6877  -19.6372   20.3016 C   0  0  0  0  0  0  0  0  0  0  0  0
  -29.9877  -22.4249   18.8233 C   0  0  0  0  0  0  0  0  0  0  0  0
  -18.2372  -28.5176   23.4988 C   0  0  0  0  0  0  0  0  0  0  0  0
  -25.3513  -12.9139   22.4232 C   0  0  0  0  0  0  0  0  0  0  0  0
  -26.3757  -17.7250   18.1541 C   0  0  0  0  0  0  0  0  0  0  0  0
  -26.4829  -20.4230   19.3599 C   0  0  0  0  0  0  0  0  0  0  0  0
  -26.3882  -14.0073   22.6674 C   0  0  0  0  0  0  0  0  0  0  0  0
  -20.3290  -29.0704   26.3265 C   0  0  0  0  0  0  0  0  0  0  0  0
  -25.7025  -15.3449   22.9267 C   0  0  0  0  0  0  0  0  0  0  0  0
  -21.7048  -29.3431   25.7160 C   0  0  0  0  0  0  0  0  0  0  0  0
  -19.5585  -28.0170   25.5336 C   0  0  0  0  0  0  0  0  0  0  0  0
  -20.8049  -28.5719   23.4812 C   0  0  0  0  0  0  0  0  0  0  0  0
  -24.8732  -15.7840   21.7139 C   0  0  1  0  0  0  0  0  0  0  0  0
  -27.0473  -17.9768   19.5006 C   0  0  1  0  0  0  0  0  0  0  0  0
  -21.5973  -29.6680   24.2139 C   0  0  2  0  0  0  0  0  0  0  0  0
  -32.0659  -23.8297   18.7524 C   0  0  0  0  0  0  0  0  0  0  0  0
  -22.4477  -25.7134   13.2234 C   0  0  0  0  0  0  0  0  0  0  0  0
  -21.0407  -26.9270   11.5467 C   0  0  0  0  0  0  0  0  0  0  0  0
  -27.9609  -20.8446   23.0079 C   0  0  0  0  0  0  0  0  0  0  0  0
  -29.4230  -22.7990   22.4503 C   0  0  0  0  0  0  0  0  0  0  0  0
  -30.4122  -20.5166   22.6363 C   0  0  0  0  0  0  0  0  0  0  0  0
  -30.3745  -21.9133   15.9341 C   0  0  0  0  0  0  0  0  0  0  0  0
  -20.0351  -24.9914   12.8251 C   0  0  0  0  0  0  0  0  0  0  0  0
  -17.8240  -24.2944   17.2544 C   0  0  0  0  0  0  0  0  0  0  0  0
  -21.5288  -21.2543   15.8043 C   0  0  0  0  0  0  0  0  0  1  0  0
  -16.5959  -27.7658   20.7114 C   0  0  0  0  0  0  0  0  0  0  0  0
  -17.6340  -27.2204   19.7236 C   0  0  0  0  0  0  0  0  0  0  0  0
  -17.0537  -29.0563   21.3850 C   0  0  0  0  0  0  0  0  0  0  0  0
  -17.1679  -25.9707   18.9860 C   0  0  0  0  0  0  0  0  0  0  0  0
  -28.9655  -21.0816   20.6413 C   0  0  1  0  0  0  0  0  0  0  0  0
  -31.3120  -22.6688   18.1225 C   0  0  2  0  0  0  0  0  0  0  0  0
  -21.0295  -26.1771   12.8811 C   0  0  0  0  0  0  0  0  0  0  0  0
  -29.1690  -21.3031   22.1668 C   0  0  0  0  0  0  0  0  0  0  0  0
  -23.6032  -28.8591   23.0289 N   0  0  0  0  0  0  0  0  0  0  0  0
  -22.9622  -29.8975   23.5918 N   0  0  0  0  0  0  0  0  0  0  0  0
  -27.4632  -19.3702   19.6730 N   0  0  0  0  0  0  0  0  0  0  0  0
  -19.4914  -28.3858   24.1174 N   0  0  0  0  0  0  0  0  0  0  0  0
  -23.1532  -32.2149   24.0437 N   0  0  0  0  0  0  0  0  0  0  0  0
  -27.0115  -31.2491   21.9043 N   0  0  0  0  0  0  0  0  0  0  0  0
  -25.7331  -16.3231   20.6821 N   0  0  0  0  0  0  0  0  0  0  0  0
  -30.1046  -21.4817   19.8223 N   0  0  0  0  0  0  0  0  0  0  0  0
  -18.2632  -28.8760   22.1566 N   0  0  0  0  0  0  0  0  0  0  0  0
  -31.0864  -22.9808   16.6828 N   0  3  0  0  0  0  0  0  0  0  0  0
  -18.1960  -25.5216   18.0113 N   0  3  0  0  0  0  0  0  0  0  0  0
  -25.8102  -32.9217   22.9133 O   0  0  0  0  0  0  0  0  0  0  0  0
  -25.8833  -18.5033   21.4863 O   0  0  0  0  0  0  0  0  0  0  0  0
  -29.5292  -18.7784   20.5772 O   0  0  0  0  0  0  0  0  0  0  0  0
  -28.9538  -23.0150   18.5178 O   0  0  0  0  0  0  0  0  0  0  0  0
  -17.1730  -28.3351   24.0997 O   0  0  0  0  0  0  0  0  0  0  0  0
  -28.5411  -26.2558   19.9648 O   0  0  0  0  0  0  0  0  0  0  0  0
  -22.5247  -21.6360   16.7523 O   0  0  0  0  0  0  0  0  0  1  0  0
  -30.8220  -28.2832   15.3723 F   0  0  0  0  0  0  0  0  0  0  0  0
  -29.9662  -28.6242   20.0152 F   0  0  0  0  0  0  0  0  0  0  0  0
  1  2  1  0  0  0  0
  1  5  2  0  0  0  0
  2  6  2  0  0  0  0
  3  8  2  0  0  0  0
  3 18  1  0  0  0  0
  4  9  1  0  0  0  0
  4 18  2  0  0  0  0
  5 20  1  0  0  0  0
  6 22  1  0  0  0  0
  7 10  2  0  0  0  0
  7 21  1  0  0  0  0
  8 27  1  0  0  0  0
  9 27  2  0  0  0  0
 10 28  1  0  0  0  0
 11 12  2  0  0  0  0
 11 29  1  0  0  0  0
 12 30  1  0  0  0  0
 13 23  1  0  0  0  0
 13 28  2  0  0  0  0
 14 24  2  0  0  0  0
 14 25  1  0  0  0  0
 15 24  1  0  0  0  0
 15 26  2  0  0  0  0
 16 25  2  0  0  0  0
 16 26  1  0  0  0  0
 17 30  2  0  0  0  0
 17 31  1  0  0  0  0
 18 32  1  0  0  0  0
 19 32  1  0  0  0  0
 19 33  2  0  0  0  0
 19 34  1  0  0  0  0
 20 22  2  0  0  0  0
 20 39  1  0  0  0  0
 21 23  2  0  0  0  0
 21 40  1  0  0  0  0
 22 48  1  0  0  0  0
 23 41  1  0  0  0  0
 24 58  1  0  0  0  0
 25 59  1  0  0  0  0
 26 60  1  0  0  0  0
 27 85  1  0  0  0  0
 28 86  1  0  0  0  0
 29 31  2  0  0  0  0
 29 85  1  0  0  0  0
 30 87  1  0  0  0  0
 31 88  1  0  0  0  0
 32 69  2  0  0  0  0
 33 70  1  0  0  0  0
 33 73  1  0  0  0  0
 34 74  1  0  0  0  0
 34 80  2  0  0  0  0
 35 49  1  0  0  0  0
 35 75  1  0  0  0  0
 35 81  2  0  0  0  0
 36 65  1  0  0  0  0
 36 71  1  0  0  0  0
 36 82  2  0  0  0  0
 37 66  1  0  0  0  0
 37 76  1  0  0  0  0
 37 83  2  0  0  0  0
 38 72  1  0  0  0  0
 38 77  1  0  0  0  0
 38 84  2  0  0  0  0
 39 42  1  0  0  0  0
 40 49  1  0  0  0  0
 41 71  1  0  0  0  0
 42 44  1  0  0  0  0
 43 45  1  0  0  0  0
 43 46  1  0  0  0  0
 44 48  1  0  0  0  0
 45 50  1  0  0  0  0
 46 72  1  0  0  0  0
 47 50  1  0  0  0  0
 47 72  1  0  0  0  0
 48 75  1  0  0  0  0
 49 71  1  0  0  0  0
 50 70  1  0  0  0  0
 51 66  1  0  0  0  0
 52 67  1  0  0  0  0
 53 67  1  0  0  0  0
 54 68  1  0  0  0  0
 55 68  1  0  0  0  0
 56 68  1  0  0  0  0
 57 78  1  0  0  0  0
 58 67  1  0  0  0  0
 59 79  1  0  0  0  0
 60 86  1  0  0  0  0
 61 62  1  0  0  0  0
 61 63  1  0  0  0  0
 62 64  1  0  0  0  0
 63 77  1  0  0  0  0
 64 79  1  0  0  0  0
 65 68  1  0  0  0  0
 65 76  1  0  0  0  0
 66 78  1  0  0  0  0
 69 70  1  0  0  0  0
M  CHG  2  78   1  79   1
M  ISO  4  38 100  60 101  77 100  86 101
M  END
> <Batch ID>
0037

> <Smiles>
CNC(C)C(=O)NC(C(=O)N1Cc2cc([101O:1][101CH2:1]c3cc(CNCCCC[100NH:0][100C:0](=O)N4CCCC(n5nc(-c6ccc(Oc7ccc(F)cc7F)cc6)c(C(N)=O)c5N)C4)cc(CC(C)C)c3)ccc2CC1C(=O)NC1CCCc2ccccc21)C(C)(C)C

> <Shape>
0.201

> <Color>
0.074

> <Negative vol penalty>
0.000

$$$$

  -OEChem-04052316593D

 86 94  0     1  0  0  0  0  0999 V2000
  -25.3951  -28.9691   20.4947 C   0  0  0  0  0  0  0  0  0  0  0  0
  -25.1667  -27.8022   19.7724 C   0  0  0  0  0  0  0  0  0  0  0  0
  -19.0403  -22.5327   23.4039 C   0  0  0  0  0  0  0  0  0  0  0  0
  -18.4681  -21.8942   21.1452 C   0  0  0  0  0  0  0  0  0  0  0  0
  -26.6925  -29.3094   20.8751 C   0  0  0  0  0  0  0  0  0  0  0  0
  -26.2359  -26.9755   19.4293 C   0  0  0  0  0  0  0  0  0  0  0  0
  -25.2426  -22.0768   20.2426 C   0  0  0  0  0  0  0  0  0  0  0  0
  -18.4848  -23.7938   23.1882 C   0  0  0  0  0  0  0  0  0  0  0  0
  -17.9125  -23.1553   20.9294 C   0  0  0  0  0  0  0  0  0  0  0  0
  -24.4457  -21.4241   19.3031 C   0  0  0  0  0  0  0  0  0  0  0  0
  -17.5383  -27.3042   23.1150 C   0  0  0  0  0  0  0  0  0  0  0  0
  -18.2589  -28.4154   23.5526 C   0  0  0  0  0  0  0  0  0  0  0  0
  -26.4215  -20.4754   18.2954 C   0  0  0  0  0  0  0  0  0  0  0  0
  -22.3136  -17.9981   16.3701 C   0  0  0  0  0  0  0  0  0  0  0  0
  -20.0936  -27.7944   22.1085 C   0  0  0  0  0  0  0  0  0  0  0  0
  -21.3879  -19.9943   15.4674 C   0  0  0  0  0  0  0  0  0  0  0  0
  -19.0321  -21.5829   22.3824 C   0  0  0  0  0  0  0  0  0  0  0  0
  -18.9510  -19.1345   23.0941 C   0  0  0  0  0  0  0  0  0  0  0  0
  -27.7770  -28.4815   20.5448 C   0  0  0  0  0  0  0  0  0  0  0  0
  -26.6380  -21.9421   20.2089 C   0  0  0  0  0  0  0  0  0  0  0  0
  -27.5492  -27.3057   19.8045 C   0  0  0  0  0  0  0  0  0  0  0  0
  -27.2336  -21.1253   19.2372 C   0  0  0  0  0  0  0  0  0  0  0  0
  -22.1724  -19.3800   16.4302 C   0  0  0  0  0  0  0  0  0  0  0  0
  -21.6751  -17.2828   15.3632 C   0  0  0  0  0  0  0  0  0  0  0  0
  -17.9209  -24.1051   21.9510 C   0  0  0  0  0  0  0  0  0  0  0  0
  -25.0353  -20.6256   18.3274 C   0  0  0  0  0  0  0  0  0  0  0  0
  -18.0954  -26.4379   22.1742 C   0  0  0  0  0  0  0  0  0  0  0  0
  -19.5365  -28.6606   23.0494 C   0  0  0  0  0  0  0  0  0  0  0  0
  -19.3730  -26.6831   21.6710 C   0  0  0  0  0  0  0  0  0  0  0  0
  -19.6063  -20.2802   22.6044 C   0  0  0  0  0  0  0  0  0  0  0  0
  -20.9127  -17.9909   14.4482 C   0  0  0  0  0  0  0  0  0  0  0  0
  -19.9250  -18.1665   23.1200 C   0  0  0  0  0  0  0  0  0  0  0  0
  -17.5839  -18.9608   23.4900 C   0  0  0  0  0  0  0  0  0  0  0  0
  -29.0751  -23.9405   19.7956 C   0  0  0  0  0  0  0  0  0  0  0  0
  -30.8428  -21.3106   20.4894 C   0  0  0  0  0  0  0  0  0  0  0  0
  -31.0601  -17.9059   20.5757 C   0  0  0  0  0  0  0  0  0  0  0  0
  -24.2253  -15.5244   20.7383 C   0  0  0  0  0  0  0  0  0  0  0  0
  -29.1672  -28.9150   20.9371 C   0  0  0  0  0  0  0  0  0  0  0  0
  -27.4817  -22.6313   21.2459 C   0  0  0  0  0  0  0  0  0  0  0  0
  -28.7258  -20.9316   19.1703 C   0  0  0  0  0  0  0  0  0  0  0  0
  -30.2001  -27.7938   20.8577 C   0  0  0  0  0  0  0  0  0  0  0  0
  -24.9356  -18.5212   22.5247 C   0  0  0  0  0  0  0  0  0  0  0  0
  -30.0597  -27.0307   19.5444 C   0  0  0  0  0  0  0  0  0  0  0  0
  -23.5596  -19.1540   22.7393 C   0  0  0  0  0  0  0  0  0  0  0  0
  -25.0320  -17.8268   21.1681 C   0  0  0  0  0  0  0  0  0  0  0  0
  -22.5938  -17.4718   21.1157 C   0  0  0  0  0  0  0  0  0  0  0  0
  -28.6800  -26.3704   19.4348 C   0  0  1  0  0  0  0  0  0  0  0  0
  -28.9270  -22.8344   20.8017 C   0  0  1  0  0  0  0  0  0  0  0  0
  -22.4298  -18.1361   22.4935 C   0  0  2  0  0  0  0  0  0  0  0  0
  -32.6434  -16.0471   21.1547 C   0  0  0  0  0  0  0  0  0  0  0  0
  -32.3697  -21.8062   17.8946 C   0  0  0  0  0  0  0  0  0  0  0  0
  -33.2448  -19.4652   18.0440 C   0  0  0  0  0  0  0  0  0  0  0  0
  -33.7967  -21.1176   19.8295 C   0  0  0  0  0  0  0  0  0  0  0  0
  -29.2497  -16.8602   22.6704 C   0  0  0  0  0  0  0  0  0  0  0  0
  -21.8293  -15.8011   15.3015 C   0  0  0  0  0  0  0  0  0  0  0  0
  -22.8492  -20.1815   17.5031 C   0  0  0  0  0  0  0  0  0  1  0  0
  -20.6283  -15.0139   15.8594 C   0  0  0  0  0  0  0  0  0  0  0  0
  -20.8561  -13.4984   15.8424 C   0  0  0  0  0  0  0  0  0  0  0  0
  -22.1010  -13.0638   16.6224 C   0  0  0  0  0  0  0  0  0  0  0  0
  -22.0234  -13.3844   18.1173 C   0  0  0  0  0  0  0  0  0  0  0  0
  -23.3036  -12.9550   18.8418 C   0  0  0  0  0  0  0  0  0  0  0  0
  -23.2650  -13.2720   20.3336 C   0  0  0  0  0  0  0  0  0  0  0  0
  -31.4502  -20.1877   19.6837 C   0  0  1  0  0  0  0  0  0  0  0  0
  -31.5319  -16.9538   21.6599 C   0  0  2  0  0  0  0  0  0  0  0  0
  -32.6873  -20.6492   18.8627 C   0  0  0  0  0  0  0  0  0  0  0  0
  -20.7521  -19.3330   14.4744 N   0  0  0  0  0  0  0  0  0  0  0  0
  -20.8969  -20.0619   22.3386 N   0  0  0  0  0  0  0  0  0  0  0  0
  -21.0605  -18.7679   22.6625 N   0  0  0  0  0  0  0  0  0  0  0  0
  -29.5084  -21.6314   20.2024 N   0  0  0  0  0  0  0  0  0  0  0  0
  -23.9328  -16.8734   20.9985 N   0  0  0  0  0  0  0  0  0  0  0  0
  -20.2597  -17.2658   13.4202 N   0  0  0  0  0  0  0  0  0  0  0  0
  -19.9125  -16.8682   23.4895 N   0  0  0  0  0  0  0  0  0  0  0  0
  -16.7176  -20.0588   23.3999 N   0  0  0  0  0  0  0  0  0  0  0  0
  -28.6288  -25.1699   20.2414 N   0  0  0  0  0  0  0  0  0  0  0  0
  -31.7277  -19.1112   20.6285 N   0  0  0  0  0  0  0  0  0  0  0  0
  -23.1255  -14.6869   20.5974 N   0  0  0  0  0  0  0  0  0  0  0  0
  -30.4034  -16.0992   22.1258 N   0  3  0  0  0  0  0  0  0  0  0  0
  -17.1477  -17.8688   23.9266 O   0  0  0  0  0  0  0  0  0  0  0  0
  -29.5598  -23.6969   18.6968 O   0  0  0  0  0  0  0  0  0  0  0  0
  -31.5249  -21.8773   21.3468 O   0  0  0  0  0  0  0  0  0  0  0  0
  -30.1892  -17.6086   19.7610 O   0  0  0  0  0  0  0  0  0  0  0  0
  -25.3809  -15.0970   20.6443 O   0  0  0  0  0  0  0  0  0  0  0  0
  -17.3784  -25.3356   21.7402 O   0  0  0  0  0  0  0  0  0  0  0  0
  -24.2599  -19.9880   17.4088 O   0  0  0  0  0  0  0  0  0  1  0  0
  -20.2277  -29.7286   23.4685 F   0  0  0  0  0  0  0  0  0  0  0  0
  -19.9130  -25.8552   20.7661 F   0  0  0  0  0  0  0  0  0  0  0  0
  1  2  1  0  0  0  0
  1  5  2  0  0  0  0
  2  6  2  0  0  0  0
  3  8  2  0  0  0  0
  3 17  1  0  0  0  0
  4  9  1  0  0  0  0
  4 17  2  0  0  0  0
  5 19  1  0  0  0  0
  6 21  1  0  0  0  0
  7 10  2  0  0  0  0
  7 20  1  0  0  0  0
  8 25  1  0  0  0  0
  9 25  2  0  0  0  0
 10 26  1  0  0  0  0
 11 12  2  0  0  0  0
 11 27  1  0  0  0  0
 12 28  1  0  0  0  0
 13 22  1  0  0  0  0
 13 26  2  0  0  0  0
 14 23  2  0  0  0  0
 14 24  1  0  0  0  0
 15 28  2  0  0  0  0
 15 29  1  0  0  0  0
 16 23  1  0  0  0  0
 16 66  2  0  0  0  0
 17 30  1  0  0  0  0
 18 30  1  0  0  0  0
 18 32  2  0  0  0  0
 18 33  1  0  0  0  0
 19 21  2  0  0  0  0
 19 38  1  0  0  0  0
 20 22  2  0  0  0  0
 20 39  1  0  0  0  0
 21 47  1  0  0  0  0
 22 40  1  0  0  0  0
 23 56  1  0  0  0  0
 24 31  2  0  0  0  0
 24 55  1  0  0  0  0
 25 83  1  0  0  0  0
 26 84  1  0  0  0  0
 27 29  2  0  0  0  0
 27 83  1  0  0  0  0
 28 85  1  0  0  0  0
 29 86  1  0  0  0  0
 30 67  2  0  0  0  0
 31 66  1  0  0  0  0
 31 71  1  0  0  0  0
 32 68  1  0  0  0  0
 32 72  1  0  0  0  0
 33 73  1  0  0  0  0
 33 78  2  0  0  0  0
 34 48  1  0  0  0  0
 34 74  1  0  0  0  0
 34 79  2  0  0  0  0
 35 63  1  0  0  0  0
 35 69  1  0  0  0  0
 35 80  2  0  0  0  0
 36 64  1  0  0  0  0
 36 75  1  0  0  0  0
 36 81  2  0  0  0  0
 37 70  1  0  0  0  0
 37 76  1  0  0  0  0
 37 82  2  0  0  0  0
 38 41  1  0  0  0  0
 39 48  1  0  0  0  0
 40 69  1  0  0  0  0
 41 43  1  0  0  0  0
 42 44  1  0  0  0  0
 42 45  1  0  0  0  0
 43 47  1  0  0  0  0
 44 49  1  0  0  0  0
 45 70  1  0  0  0  0
 46 49  1  0  0  0  0
 46 70  1  0  0  0  0
 47 74  1  0  0  0  0
 48 69  1  0  0  0  0
 49 68  1  0  0  0  0
 50 64  1  0  0  0  0
 51 65  1  0  0  0  0
 52 65  1  0  0  0  0
 53 65  1  0  0  0  0
 54 77  1  0  0  0  0
 55 57  1  0  0  0  0
 56 84  1  0  0  0  0
 57 58  1  0  0  0  0
 58 59  1  0  0  0  0
 59 60  1  0  0  0  0
 60 61  1  0  0  0  0
 61 62  1  0  0  0  0
 62 76  1  0  0  0  0
 63 65  1  0  0  0  0
 63 75  1  0  0  0  0
 64 77  1  0  0  0  0
 67 68  1  0  0  0  0
M  CHG  1  77   1
M  ISO  4  37 100  56 101  76 100  84 101
M  END
> <Batch ID>
0037

> <Smiles>
CNC(C)C(=O)NC(C(=O)N1Cc2cc([101O:1][101CH2:1]c3cnc(N)c(CCCCCCC[100NH:0][100C:0](=O)N4CCCC(n5nc(-c6ccc(Oc7ccc(F)cc7F)cc6)c(C(N)=O)c5N)C4)c3)ccc2CC1C(=O)NC1CCCc2ccccc21)C(C)(C)C

> <Shape>
0.190

> <Color>
0.071

> <Negative vol penalty>
0.000

$$$$

  -OEChem-04052316593D

 87 95  0     1  0  0  0  0  0999 V2000
  -17.9997  -19.9622   25.7762 C   0  0  0  0  0  0  0  0  0  0  0  0
  -19.3351  -20.2865   25.5597 C   0  0  0  0  0  0  0  0  0  0  0  0
  -23.2880   -9.7996   19.9132 C   0  0  0  0  0  0  0  0  0  0  0  0
  -23.7397   -9.9401   22.2825 C   0  0  0  0  0  0  0  0  0  0  0  0
  -17.6440  -19.1697   26.8669 C   0  0  0  0  0  0  0  0  0  0  0  0
  -20.3156  -19.8194   26.4343 C   0  0  0  0  0  0  0  0  0  0  0  0
  -26.0393  -18.1731   25.0081 C   0  0  0  0  0  0  0  0  0  0  0  0
  -22.5618   -8.6271   20.1212 C   0  0  0  0  0  0  0  0  0  0  0  0
  -23.0134   -8.7675   22.4905 C   0  0  0  0  0  0  0  0  0  0  0  0
  -27.2580  -18.8447   25.0960 C   0  0  0  0  0  0  0  0  0  0  0  0
  -19.7665   -7.8564   22.7091 C   0  0  0  0  0  0  0  0  0  0  0  0
  -18.8646   -7.8346   23.7728 C   0  0  0  0  0  0  0  0  0  0  0  0
  -27.6788  -17.7902   27.2244 C   0  0  0  0  0  0  0  0  0  0  0  0
  -32.3450  -16.3765   25.5467 C   0  0  0  0  0  0  0  0  0  0  0  0
  -20.0707   -5.9874   24.7577 C   0  0  0  0  0  0  0  0  0  0  0  0
  -23.8771  -10.4561   20.9939 C   0  0  0  0  0  0  0  0  0  0  0  0
  -24.1364  -12.9861   20.7954 C   0  0  0  0  0  0  0  0  0  0  0  0
  -18.6217  -18.6847   27.7498 C   0  0  0  0  0  0  0  0  0  0  0  0
  -25.6256  -17.3120   26.0346 C   0  0  0  0  0  0  0  0  0  0  0  0
  -19.9725  -19.0209   27.5385 C   0  0  0  0  0  0  0  0  0  0  0  0
  -26.4556  -17.1069   27.1460 C   0  0  0  0  0  0  0  0  0  0  0  0
  -32.3219  -15.0119   25.2811 C   0  0  0  0  0  0  0  0  0  0  0  0
  -31.7788  -17.2653   24.6396 C   0  0  0  0  0  0  0  0  0  0  0  0
  -22.4244   -8.1110   21.4098 C   0  0  0  0  0  0  0  0  0  0  0  0
  -28.0766  -18.6555   26.2055 C   0  0  0  0  0  0  0  0  0  0  0  0
  -20.8205   -6.9436   22.6695 C   0  0  0  0  0  0  0  0  0  0  0  0
  -19.0167   -6.9002   24.7971 C   0  0  0  0  0  0  0  0  0  0  0  0
  -20.9726   -6.0091   23.6938 C   0  0  0  0  0  0  0  0  0  0  0  0
  -24.6279  -11.6671   20.7796 C   0  0  0  0  0  0  0  0  0  0  0  0
  -31.7253  -14.5903   24.1038 C   0  0  0  0  0  0  0  0  0  0  0  0
  -31.2067  -16.7429   23.4909 C   0  0  0  0  0  0  0  0  0  0  0  0
  -25.2377  -13.7660   20.5400 C   0  0  0  0  0  0  0  0  0  0  0  0
  -22.8034  -13.4637   21.0208 C   0  0  0  0  0  0  0  0  0  0  0  0
  -23.1716  -17.2452   28.0538 C   0  0  0  0  0  0  0  0  0  0  0  0
  -24.4194  -14.3626   28.8637 C   0  0  0  0  0  0  0  0  0  0  0  0
  -27.1506  -12.3202   28.9904 C   0  0  0  0  0  0  0  0  0  0  0  0
  -31.1091  -12.9230   21.3572 C   0  0  0  0  0  0  0  0  0  0  0  0
  -18.1838  -17.8707   28.9416 C   0  0  0  0  0  0  0  0  0  0  0  0
  -24.3204  -16.5745   25.9123 C   0  0  0  0  0  0  0  0  0  0  0  0
  -26.0667  -16.1775   28.2655 C   0  0  0  0  0  0  0  0  0  0  0  0
  -19.3239  -17.1054   29.6085 C   0  0  0  0  0  0  0  0  0  0  0  0
  -29.4589  -13.6627   18.2902 C   0  0  0  0  0  0  0  0  0  0  0  0
  -20.5357  -18.0120   29.7992 C   0  0  0  0  0  0  0  0  0  0  0  0
  -27.9893  -13.3541   18.5818 C   0  0  0  0  0  0  0  0  0  0  0  0
  -30.3925  -12.6832   18.9981 C   0  0  0  0  0  0  0  0  0  0  0  0
  -28.7066  -12.2537   20.7436 C   0  0  0  0  0  0  0  0  0  0  0  0
  -21.0676  -18.5127   28.4509 C   0  0  1  0  0  0  0  0  0  0  0  0
  -23.7641  -16.1173   27.2572 C   0  0  1  0  0  0  0  0  0  0  0  0
  -27.7283  -13.2489   20.0964 C   0  0  2  0  0  0  0  0  0  0  0  0
  -32.9267  -14.0545   26.2489 C   0  0  0  0  0  0  0  0  0  0  0  0
  -29.7393  -16.8908   21.4632 C   0  0  0  0  0  0  0  0  0  0  0  0
  -27.8690  -10.0359   29.7408 C   0  0  0  0  0  0  0  0  0  0  0  0
  -34.3169  -19.2617   25.0577 C   0  0  0  0  0  0  0  0  0  0  0  0
  -32.8154  -21.0147   24.0846 C   0  0  0  0  0  0  0  0  0  0  0  0
  -24.4209  -15.3177   31.7616 C   0  0  0  0  0  0  0  0  0  0  0  0
  -25.9833  -13.4389   32.3070 C   0  0  0  0  0  0  0  0  0  0  0  0
  -23.6948  -12.9456   31.4455 C   0  0  0  0  0  0  0  0  0  0  0  0
  -27.9129  -11.5300   26.2420 C   0  0  0  0  0  0  0  0  0  0  0  0
  -30.5826  -17.6509   22.4823 C   0  0  0  0  0  0  0  0  0  0  0  0
  -31.6719  -13.1366   23.7648 C   0  0  0  0  0  0  0  0  0  0  0  0
  -31.6545  -19.0977   26.4282 C   0  0  0  0  0  0  0  0  0  0  0  0
  -30.3134  -18.6603   27.0135 C   0  0  0  0  0  0  0  0  0  1  0  0
  -31.8009  -18.7619   24.9244 C   0  0  1  0  0  0  0  0  0  0  0  0
  -25.4366  -13.8828   29.8707 C   0  0  1  0  0  0  0  0  0  0  0  0
  -27.3441  -10.8707   28.5831 C   0  0  2  0  0  0  0  0  0  0  0  0
  -33.0143  -19.5102   24.2874 C   0  0  0  0  0  0  0  0  0  0  0  0
  -24.8906  -13.9153   31.3262 C   0  0  0  0  0  0  0  0  0  0  0  0
  -25.9394  -11.6084   20.5336 N   0  0  0  0  0  0  0  0  0  0  0  0
  -31.1651  -15.4236   23.1986 N   0  0  0  0  0  0  0  0  0  0  0  0
  -26.2813  -12.9004   20.3922 N   0  0  0  0  0  0  0  0  0  0  0  0
  -24.7782  -15.4841   28.1026 N   0  0  0  0  0  0  0  0  0  0  0  0
  -30.0938  -12.6317   20.4313 N   0  0  0  0  0  0  0  0  0  0  0  0
  -25.4056  -15.1010   20.4296 N   0  0  0  0  0  0  0  0  0  0  0  0
  -21.7909  -12.5268   21.2686 N   0  0  0  0  0  0  0  0  0  0  0  0
  -21.8343  -17.4761   27.7936 N   0  0  0  0  0  0  0  0  0  0  0  0
  -25.8635  -12.5619   29.4221 N   0  0  0  0  0  0  0  0  0  0  0  0
  -30.7399  -12.8574   22.6951 N   0  0  0  0  0  0  0  0  0  0  0  0
  -28.3148  -10.7744   27.4563 N   0  3  0  0  0  0  0  0  0  0  0  0
  -22.5155  -14.6841   20.9867 O   0  0  0  0  0  0  0  0  0  0  0  0
  -23.8753  -17.8595   28.8470 O   0  0  0  0  0  0  0  0  0  0  0  0
  -23.3489  -13.7600   28.7514 O   0  0  0  0  0  0  0  0  0  0  0  0
  -28.0520  -13.1537   28.9350 O   0  0  0  0  0  0  0  0  0  0  0  0
  -32.2579  -13.2249   21.0166 O   0  0  0  0  0  0  0  0  0  0  0  0
  -21.7156   -6.9670   21.6131 O   0  0  0  0  0  0  0  0  0  0  0  0
  -29.2663  -19.3102   26.2941 O   0  0  0  0  0  0  0  0  0  1  0  0
  -18.1514   -6.8804   25.8194 F   0  0  0  0  0  0  0  0  0  0  0  0
  -21.9840   -5.1305   23.6620 F   0  0  0  0  0  0  0  0  0  0  0  0
  1  2  1  0  0  0  0
  1  5  2  0  0  0  0
  2  6  2  0  0  0  0
  3  8  2  0  0  0  0
  3 16  1  0  0  0  0
  4  9  1  0  0  0  0
  4 16  2  0  0  0  0
  5 18  1  0  0  0  0
  6 20  1  0  0  0  0
  7 10  2  0  0  0  0
  7 19  1  0  0  0  0
  8 24  1  0  0  0  0
  9 24  2  0  0  0  0
 10 25  1  0  0  0  0
 11 12  2  0  0  0  0
 11 26  1  0  0  0  0
 12 27  1  0  0  0  0
 13 21  1  0  0  0  0
 13 25  2  0  0  0  0
 14 22  2  0  0  0  0
 14 23  1  0  0  0  0
 15 27  2  0  0  0  0
 15 28  1  0  0  0  0
 16 29  1  0  0  0  0
 17 29  1  0  0  0  0
 17 32  2  0  0  0  0
 17 33  1  0  0  0  0
 18 20  2  0  0  0  0
 18 38  1  0  0  0  0
 19 21  2  0  0  0  0
 19 39  1  0  0  0  0
 20 47  1  0  0  0  0
 21 40  1  0  0  0  0
 22 30  1  0  0  0  0
 22 50  1  0  0  0  0
 23 31  2  0  0  0  0
 23 63  1  0  0  0  0
 24 84  1  0  0  0  0
 25 85  1  0  0  0  0
 26 28  2  0  0  0  0
 26 84  1  0  0  0  0
 27 86  1  0  0  0  0
 28 87  1  0  0  0  0
 29 68  2  0  0  0  0
 30 60  1  0  0  0  0
 30 69  2  0  0  0  0
 31 59  1  0  0  0  0
 31 69  1  0  0  0  0
 32 70  1  0  0  0  0
 32 73  1  0  0  0  0
 33 74  1  0  0  0  0
 33 79  2  0  0  0  0
 34 48  1  0  0  0  0
 34 75  1  0  0  0  0
 34 80  2  0  0  0  0
 35 64  1  0  0  0  0
 35 71  1  0  0  0  0
 35 81  2  0  0  0  0
 36 65  1  0  0  0  0
 36 76  1  0  0  0  0
 36 82  2  0  0  0  0
 37 72  1  0  0  0  0
 37 77  1  0  0  0  0
 37 83  2  0  0  0  0
 38 41  1  0  0  0  0
 39 48  1  0  0  0  0
 40 71  1  0  0  0  0
 41 43  1  0  0  0  0
 42 44  1  0  0  0  0
 42 45  1  0  0  0  0
 43 47  1  0  0  0  0
 44 49  1  0  0  0  0
 45 72  1  0  0  0  0
 46 49  1  0  0  0  0
 46 72  1  0  0  0  0
 47 75  1  0  0  0  0
 48 71  1  0  0  0  0
 49 70  1  0  0  0  0
 51 59  1  0  0  0  0
 52 65  1  0  0  0  0
 53 66  1  0  0  0  0
 54 66  1  0  0  0  0
 55 67  1  0  0  0  0
 56 67  1  0  0  0  0
 57 67  1  0  0  0  0
 58 78  1  0  0  0  0
 60 77  1  0  0  0  0
 61 62  1  0  0  0  0
 61 63  1  0  0  0  0
 62 85  1  0  0  0  0
 63 66  1  0  0  0  0
 64 67  1  0  0  0  0
 64 76  1  0  0  0  0
 65 78  1  0  0  0  0
 68 70  1  0  0  0  0
M  CHG  1  78   1
M  ISO  4  37 100  62 101  77 100  85 101
M  END
> <Batch ID>
0037

> <Smiles>
CCc1nc(C[100NH:0][100C:0](=O)N2CCCC(n3nc(-c4ccc(Oc5ccc(F)cc5F)cc4)c(C(N)=O)c3N)C2)c(C)cc1C(C[101CH2:1][101O:1]c1ccc2c(c1)CN(C(=O)C(NC(=O)C(C)NC)C(C)(C)C)C(C(=O)NC1CCCc3ccccc31)C2)C(C)C

> <Shape>
0.151

> <Color>
0.170

> <Negative vol penalty>
0.000

$$$$

  -OEChem-04052316593D

 83 91  0     1  0  0  0  0  0999 V2000
  -26.7014  -35.0295   26.0233 C   0  0  0  0  0  0  0  0  0  0  0  0
  -27.1984  -33.8786   25.4202 C   0  0  0  0  0  0  0  0  0  0  0  0
  -25.7500  -12.7284   21.8232 C   0  0  0  0  0  0  0  0  0  0  0  0
  -25.2898  -13.6329   19.6307 C   0  0  0  0  0  0  0  0  0  0  0  0
  -25.3445  -35.1244   26.3296 C   0  0  0  0  0  0  0  0  0  0  0  0
  -26.3388  -32.8212   25.1240 C   0  0  0  0  0  0  0  0  0  0  0  0
  -27.1108  -30.9294   20.4905 C   0  0  0  0  0  0  0  0  0  0  0  0
  -25.3875  -11.4582   21.3753 C   0  0  0  0  0  0  0  0  0  0  0  0
  -24.9272  -12.3627   19.1828 C   0  0  0  0  0  0  0  0  0  0  0  0
  -28.2028  -30.0788   20.3238 C   0  0  0  0  0  0  0  0  0  0  0  0
  -22.5334   -9.7491   20.7773 C   0  0  0  0  0  0  0  0  0  0  0  0
  -21.7037   -8.9856   21.5984 C   0  0  0  0  0  0  0  0  0  0  0  0
  -26.7303  -28.1726   20.4541 C   0  0  0  0  0  0  0  0  0  0  0  0
  -28.7783  -21.8816   20.1905 C   0  0  0  0  0  0  0  0  0  0  0  0
  -23.4064   -7.2765   21.7297 C   0  0  0  0  0  0  0  0  0  0  0  0
  -30.4505  -23.3074   19.6995 C   0  0  0  0  0  0  0  0  0  0  0  0
  -25.7011  -13.8158   20.9509 C   0  0  0  0  0  0  0  0  0  0  0  0
  -27.3580  -15.7070   21.3822 C   0  0  0  0  0  0  0  0  0  0  0  0
  -24.4662  -34.0716   26.0283 C   0  0  0  0  0  0  0  0  0  0  0  0
  -25.8195  -30.4067   20.6514 C   0  0  0  0  0  0  0  0  0  0  0  0
  -24.9691  -32.9016   25.4278 C   0  0  0  0  0  0  0  0  0  0  0  0
  -25.6232  -29.0187   20.6201 C   0  0  0  0  0  0  0  0  0  0  0  0
  -29.7458  -22.2275   19.2151 C   0  0  0  0  0  0  0  0  0  0  0  0
  -24.9761  -11.2753   20.0551 C   0  0  0  0  0  0  0  0  0  0  0  0
  -28.0131  -28.7001   20.3085 C   0  0  0  0  0  0  0  0  0  0  0  0
  -23.7996   -9.2763   20.4323 C   0  0  0  0  0  0  0  0  0  0  0  0
  -22.1402   -7.7493   22.0747 C   0  0  0  0  0  0  0  0  0  0  0  0
  -24.2361   -8.0401   20.9086 C   0  0  0  0  0  0  0  0  0  0  0  0
  -26.0750  -15.1284   21.4131 C   0  0  0  0  0  0  0  0  0  0  0  0
  -28.9210  -22.7608   21.2412 C   0  0  0  0  0  0  0  0  0  0  0  0
  -27.1856  -16.9539   21.9319 C   0  0  0  0  0  0  0  0  0  0  0  0
  -28.5949  -15.1658   20.8998 C   0  0  0  0  0  0  0  0  0  0  0  0
  -23.6306  -30.5053   22.9541 C   0  0  0  0  0  0  0  0  0  0  0  0
  -21.8006  -28.9935   20.7433 C   0  0  0  0  0  0  0  0  0  0  0  0
  -21.6550  -27.0407   17.9482 C   0  0  0  0  0  0  0  0  0  0  0  0
  -24.3051  -21.7110   22.3982 C   0  0  0  0  0  0  0  0  0  0  0  0
  -23.0159  -34.2011   26.4213 C   0  0  0  0  0  0  0  0  0  0  0  0
  -24.6485  -31.3384   20.8034 C   0  0  0  0  0  0  0  0  0  0  0  0
  -24.2545  -28.4079   20.7683 C   0  0  0  0  0  0  0  0  0  0  0  0
  -22.1056  -33.1867   25.7338 C   0  0  0  0  0  0  0  0  0  0  0  0
  -23.2389  -18.9542   24.3832 C   0  0  0  0  0  0  0  0  0  0  0  0
  -22.7167  -31.7906   25.7993 C   0  0  0  0  0  0  0  0  0  0  0  0
  -23.9825  -17.7607   23.7810 C   0  0  0  0  0  0  0  0  0  0  0  0
  -22.8150  -19.9548   23.3103 C   0  0  0  0  0  0  0  0  0  0  0  0
  -24.6491  -19.2295   21.8324 C   0  0  0  0  0  0  0  0  0  0  0  0
  -24.0640  -31.7432   25.0685 C   0  0  1  0  0  0  0  0  0  0  0  0
  -23.4456  -30.6818   21.4734 C   0  0  1  0  0  0  0  0  0  0  0  0
  -25.1458  -18.2204   22.8819 C   0  0  2  0  0  0  0  0  0  0  0  0
  -29.9605  -21.5555   17.9193 C   0  0  0  0  0  0  0  0  0  0  0  0
  -20.0178  -25.9393   16.3978 C   0  0  0  0  0  0  0  0  0  0  0  0
  -21.2666  -26.8417   22.8396 C   0  0  0  0  0  0  0  0  0  0  0  0
  -20.4555  -25.3494   21.0002 C   0  0  0  0  0  0  0  0  0  0  0  0
  -19.2708  -27.4916   21.4799 C   0  0  0  0  0  0  0  0  0  0  0  0
  -22.6438  -28.5813   15.6227 C   0  0  0  0  0  0  0  0  0  0  0  0
  -28.1716  -22.8496   22.5115 C   0  0  0  0  0  0  0  0  0  0  0  0
  -26.9209  -23.7595   22.4684 C   0  0  0  0  0  0  0  0  0  0  0  0
  -30.4041  -26.1180   21.1136 C   0  0  0  0  0  0  0  0  0  0  0  0
  -30.4379  -24.7508   21.8001 C   0  0  0  0  0  0  0  0  0  0  0  0
  -25.8890  -23.3516   21.4191 C   0  0  0  0  0  0  0  0  0  0  0  0
  -28.9957  -26.5822   20.7609 C   0  0  0  0  0  0  0  0  0  1  0  0
  -21.5430  -27.5528   20.3730 C   0  0  1  0  0  0  0  0  0  0  0  0
  -20.8582  -27.1786   16.6635 C   0  0  2  0  0  0  0  0  0  0  0  0
  -20.6601  -26.8200   21.4223 C   0  0  0  0  0  0  0  0  0  0  0  0
  -25.1555  -15.9408   21.9407 N   0  0  0  0  0  0  0  0  0  0  0  0
  -29.9402  -23.6231   20.9316 N   0  0  0  0  0  0  0  0  0  0  0  0
  -25.8615  -17.0427   22.2466 N   0  0  0  0  0  0  0  0  0  0  0  0
  -23.1422  -29.3603   20.9206 N   0  0  0  0  0  0  0  0  0  0  0  0
  -23.9645  -20.3516   22.4935 N   0  0  0  0  0  0  0  0  0  0  0  0
  -28.0390  -17.9719   22.1719 N   0  0  0  0  0  0  0  0  0  0  0  0
  -28.5943  -13.8699   20.3662 N   0  0  0  0  0  0  0  0  0  0  0  0
  -23.8606  -31.6845   23.6368 N   0  0  0  0  0  0  0  0  0  0  0  0
  -20.9802  -27.5716   19.0272 N   0  0  0  0  0  0  0  0  0  0  0  0
  -25.4116  -22.0000   21.6091 N   0  0  0  0  0  0  0  0  0  0  0  0
  -21.7738  -27.3827   15.5055 N   0  3  0  0  0  0  0  0  0  0  0  0
  -29.6722  -15.8062   20.9558 O   0  0  0  0  0  0  0  0  0  0  0  0
  -23.5678  -29.3827   23.4413 O   0  0  0  0  0  0  0  0  0  0  0  0
  -20.8470  -29.7668   20.8635 O   0  0  0  0  0  0  0  0  0  0  0  0
  -22.7634  -26.5114   17.9911 O   0  0  0  0  0  0  0  0  0  0  0  0
  -23.6733  -22.6007   22.9781 O   0  0  0  0  0  0  0  0  0  0  0  0
  -24.6224  -10.0359   19.6177 O   0  0  0  0  0  0  0  0  0  0  0  0
  -29.0773  -27.8676   20.1466 O   0  0  0  0  0  0  0  0  0  1  0  0
  -21.3440   -7.0169   22.8644 F   0  0  0  0  0  0  0  0  0  0  0  0
  -25.4520   -7.5812   20.5815 F   0  0  0  0  0  0  0  0  0  0  0  0
  1  2  1  0  0  0  0
  1  5  2  0  0  0  0
  2  6  2  0  0  0  0
  3  8  2  0  0  0  0
  3 17  1  0  0  0  0
  4  9  1  0  0  0  0
  4 17  2  0  0  0  0
  5 19  1  0  0  0  0
  6 21  1  0  0  0  0
  7 10  2  0  0  0  0
  7 20  1  0  0  0  0
  8 24  1  0  0  0  0
  9 24  2  0  0  0  0
 10 25  1  0  0  0  0
 11 12  2  0  0  0  0
 11 26  1  0  0  0  0
 12 27  1  0  0  0  0
 13 22  1  0  0  0  0
 13 25  2  0  0  0  0
 14 23  1  0  0  0  0
 14 30  2  0  0  0  0
 15 27  2  0  0  0  0
 15 28  1  0  0  0  0
 16 23  2  0  0  0  0
 16 65  1  0  0  0  0
 17 29  1  0  0  0  0
 18 29  1  0  0  0  0
 18 31  2  0  0  0  0
 18 32  1  0  0  0  0
 19 21  2  0  0  0  0
 19 37  1  0  0  0  0
 20 22  2  0  0  0  0
 20 38  1  0  0  0  0
 21 46  1  0  0  0  0
 22 39  1  0  0  0  0
 23 49  1  0  0  0  0
 24 80  1  0  0  0  0
 25 81  1  0  0  0  0
 26 28  2  0  0  0  0
 26 80  1  0  0  0  0
 27 82  1  0  0  0  0
 28 83  1  0  0  0  0
 29 64  2  0  0  0  0
 30 55  1  0  0  0  0
 30 65  1  0  0  0  0
 31 66  1  0  0  0  0
 31 69  1  0  0  0  0
 32 70  1  0  0  0  0
 32 75  2  0  0  0  0
 33 47  1  0  0  0  0
 33 71  1  0  0  0  0
 33 76  2  0  0  0  0
 34 61  1  0  0  0  0
 34 67  1  0  0  0  0
 34 77  2  0  0  0  0
 35 62  1  0  0  0  0
 35 72  1  0  0  0  0
 35 78  2  0  0  0  0
 36 68  1  0  0  0  0
 36 73  1  0  0  0  0
 36 79  2  0  0  0  0
 37 40  1  0  0  0  0
 38 47  1  0  0  0  0
 39 67  1  0  0  0  0
 40 42  1  0  0  0  0
 41 43  1  0  0  0  0
 41 44  1  0  0  0  0
 42 46  1  0  0  0  0
 43 48  1  0  0  0  0
 44 68  1  0  0  0  0
 45 48  1  0  0  0  0
 45 68  1  0  0  0  0
 46 71  1  0  0  0  0
 47 67  1  0  0  0  0
 48 66  1  0  0  0  0
 50 62  1  0  0  0  0
 51 63  1  0  0  0  0
 52 63  1  0  0  0  0
 53 63  1  0  0  0  0
 54 74  1  0  0  0  0
 55 56  1  0  0  0  0
 56 59  1  0  0  0  0
 57 58  1  0  0  0  0
 57 60  1  0  0  0  0
 58 65  1  0  0  0  0
 59 73  1  0  0  0  0
 60 81  1  0  0  0  0
 61 63  1  0  0  0  0
 61 72  1  0  0  0  0
 62 74  1  0  0  0  0
 64 66  1  0  0  0  0
M  CHG  1  74   1
M  ISO  4  36 100  60 101  73 100  81 101
M  END
> <Batch ID>
0037

> <Smiles>
CNC(C)C(=O)NC(C(=O)N1Cc2cc([101O:1][101CH2:1]CCn3cc(C)cc3CCC[100NH:0][100C:0](=O)N3CCCC(n4nc(-c5ccc(Oc6ccc(F)cc6F)cc5)c(C(N)=O)c4N)C3)ccc2CC1C(=O)NC1CCCc2ccccc21)C(C)(C)C

> <Shape>
0.263

> <Color>
0.068

> <Negative vol penalty>
0.000

$$$$

  -OEChem-04052316593D

 91 99  0     1  0  0  0  0  0999 V2000
  -16.8611  -30.2730   24.1427 C   0  0  0  0  0  0  0  0  0  0  0  0
  -18.0308  -30.4895   24.8642 C   0  0  0  0  0  0  0  0  0  0  0  0
  -25.7505  -18.0082   20.8999 C   0  0  0  0  0  0  0  0  0  0  0  0
  -27.7646  -16.8692   21.5948 C   0  0  0  0  0  0  0  0  0  0  0  0
  -16.8805  -29.4531   23.0153 C   0  0  0  0  0  0  0  0  0  0  0  0
  -19.2204  -29.8851   24.4592 C   0  0  0  0  0  0  0  0  0  0  0  0
  -24.8668  -32.2175   24.8881 C   0  0  0  0  0  0  0  0  0  0  0  0
  -25.0897  -16.7833   20.8073 C   0  0  0  0  0  0  0  0  0  0  0  0
  -27.1039  -15.6442   21.5022 C   0  0  0  0  0  0  0  0  0  0  0  0
  -25.8916  -32.0289   25.8143 C   0  0  0  0  0  0  0  0  0  0  0  0
  -26.1873  -13.4859   19.0666 C   0  0  0  0  0  0  0  0  0  0  0  0
  -26.8557  -12.4348   18.4388 C   0  0  0  0  0  0  0  0  0  0  0  0
  -26.8830  -30.3700   24.3706 C   0  0  0  0  0  0  0  0  0  0  0  0
  -31.5017  -26.9823   25.4450 C   0  0  0  0  0  0  0  0  0  0  0  0
  -29.7888  -26.7846   23.7528 C   0  0  0  0  0  0  0  0  0  0  0  0
  -26.7215  -11.1355   20.4713 C   0  0  0  0  0  0  0  0  0  0  0  0
  -27.0880  -18.0511   21.2936 C   0  0  0  0  0  0  0  0  0  0  0  0
  -27.8558  -20.1537   22.5172 C   0  0  0  0  0  0  0  0  0  0  0  0
  -18.0730  -28.8461   22.5906 C   0  0  0  0  0  0  0  0  0  0  0  0
  -24.8364  -31.4746   23.6992 C   0  0  0  0  0  0  0  0  0  0  0  0
  -19.2555  -29.0552   23.3257 C   0  0  0  0  0  0  0  0  0  0  0  0
  -25.8581  -30.5528   23.4298 C   0  0  0  0  0  0  0  0  0  0  0  0
  -31.1337  -26.9069   24.1017 C   0  0  0  0  0  0  0  0  0  0  0  0
  -30.5246  -26.9353   26.4395 C   0  0  0  0  0  0  0  0  0  0  0  0
  -29.1797  -26.8130   26.0905 C   0  0  0  0  0  0  0  0  0  0  0  0
  -25.7664  -15.6013   21.1084 C   0  0  0  0  0  0  0  0  0  0  0  0
  -26.8984  -31.1030   25.5570 C   0  0  0  0  0  0  0  0  0  0  0  0
  -25.7861  -13.3618   20.3968 C   0  0  0  0  0  0  0  0  0  0  0  0
  -27.1228  -11.2596   19.1411 C   0  0  0  0  0  0  0  0  0  0  0  0
  -26.0531  -12.1866   21.0991 C   0  0  0  0  0  0  0  0  0  0  0  0
  -28.8117  -26.7376   24.7472 C   0  0  0  0  0  0  0  0  0  0  0  0
  -27.7712  -19.3161   21.3889 C   0  0  0  0  0  0  0  0  0  0  0  0
  -28.6072  -21.2232   22.0953 C   0  0  0  0  0  0  0  0  0  0  0  0
  -27.3046  -19.9804   23.8294 C   0  0  0  0  0  0  0  0  0  0  0  0
  -22.8220  -29.3774   22.4154 C   0  0  0  0  0  0  0  0  0  0  0  0
  -24.8246  -29.5986   19.8731 C   0  0  0  0  0  0  0  0  0  0  0  0
  -27.9429  -30.3325   18.6966 C   0  0  0  0  0  0  0  0  0  0  0  0
  -33.0110  -23.3048   19.3715 C   0  0  0  0  0  0  0  0  0  0  0  0
  -18.0348  -27.9301   21.3931 C   0  0  0  0  0  0  0  0  0  0  0  0
  -23.7385  -31.7090   22.6981 C   0  0  0  0  0  0  0  0  0  0  0  0
  -25.8824  -29.7448   22.1590 C   0  0  0  0  0  0  0  0  0  0  0  0
  -19.4142  -27.6274   20.8135 C   0  0  0  0  0  0  0  0  0  0  0  0
  -30.1020  -22.5704   17.4545 C   0  0  0  0  0  0  0  0  0  0  0  0
  -20.3938  -27.2687   21.9264 C   0  0  0  0  0  0  0  0  0  0  0  0
  -29.2467  -21.7226   18.3978 C   0  0  0  0  0  0  0  0  0  0  0  0
  -31.5906  -22.2744   17.6230 C   0  0  0  0  0  0  0  0  0  0  0  0
  -31.2367  -21.5398   19.9487 C   0  0  0  0  0  0  0  0  0  0  0  0
  -20.5707  -28.4371   22.9036 C   0  0  1  0  0  0  0  0  0  0  0  0
  -23.5274  -30.5282   21.7554 C   0  0  1  0  0  0  0  0  0  0  0  0
  -29.7315  -21.8432   19.8551 C   0  0  2  0  0  0  0  0  0  0  0  0
  -31.5270  -25.6997   28.3773 C   0  0  0  0  0  0  0  0  0  0  0  0
  -26.1707  -27.3131   29.3313 C   0  0  0  0  0  0  0  0  0  0  0  0
  -29.2879  -30.3824   16.5786 C   0  0  0  0  0  0  0  0  0  0  0  0
  -27.9270  -31.5365   28.7891 C   0  0  0  0  0  0  0  0  0  0  0  0
  -25.0653  -26.5581   19.9572 C   0  0  0  0  0  0  0  0  0  0  0  0
  -27.0915  -26.7478   18.4989 C   0  0  0  0  0  0  0  0  0  0  0  0
  -24.8753  -27.5264   17.6592 C   0  0  0  0  0  0  0  0  0  0  0  0
  -28.4198  -33.2439   18.9311 C   0  0  0  0  0  0  0  0  0  0  0  0
  -32.1789  -26.9584   23.0389 C   0  0  0  0  0  0  0  0  0  0  0  0
  -30.9478  -27.0166   27.8700 C   0  0  0  0  0  0  0  0  0  0  0  0
  -28.1414  -26.7632   27.1725 C   0  0  0  0  0  0  0  0  0  0  0  0
  -32.7033  -25.5616   22.6709 C   0  0  0  0  0  0  0  0  0  0  0  0
  -33.8018  -25.6311   21.6059 C   0  0  0  0  0  0  0  0  0  0  0  0
  -34.3465  -24.2556   21.2347 C   0  0  0  0  0  0  0  0  0  0  0  0
  -26.0036  -27.8053   27.9103 C   0  0  0  0  0  0  0  0  0  0  0  0
  -28.1251  -29.1044   28.0213 C   0  0  0  0  0  0  0  0  0  0  0  0
  -26.0735  -28.8757   19.4299 C   0  0  1  0  0  0  0  0  0  0  0  0
  -28.4036  -31.1800   17.5244 C   0  0  2  0  0  0  0  0  0  0  0  0
  -27.5237  -30.4826   27.7661 C   0  0  2  0  0  0  0  0  0  1  0  0
  -25.7752  -27.4407   18.9112 C   0  0  0  0  0  0  0  0  0  0  0  0
  -28.4172  -19.8110   20.3298 N   0  0  0  0  0  0  0  0  0  0  0  0
  -28.9147  -20.9712   20.7907 N   0  0  0  0  0  0  0  0  0  0  0  0
  -24.7836  -30.0054   21.2143 N   0  0  0  0  0  0  0  0  0  0  0  0
  -31.9863  -22.4079   19.0271 N   0  0  0  0  0  0  0  0  0  0  0  0
  -29.0282  -22.3453   22.7168 N   0  0  0  0  0  0  0  0  0  0  0  0
  -26.5585  -18.8236   24.0932 N   0  0  0  0  0  0  0  0  0  0  0  0
  -21.4440  -29.4423   22.3366 N   0  0  0  0  0  0  0  0  0  0  0  0
  -26.7211  -29.7423   18.4511 N   0  0  0  0  0  0  0  0  0  0  0  0
  -33.3197  -23.3747   20.7245 N   0  0  0  0  0  0  0  0  0  0  0  0
  -29.1767  -32.3582   18.0093 N   0  3  0  0  0  0  0  0  0  0  0  0
  -27.3644  -28.0498   27.3059 N   0  3  1  0  0  0  0  0  0  0  0  0
  -27.4549  -20.8341   24.7361 O   0  0  0  0  0  0  0  0  0  0  0  0
  -23.4794  -28.4951   22.9549 O   0  0  0  0  0  0  0  0  0  0  0  0
  -23.9216  -29.8015   19.0575 O   0  0  0  0  0  0  0  0  0  0  0  0
  -28.6027  -30.2037   19.7255 O   0  0  0  0  0  0  0  0  0  0  0  0
  -33.6030  -23.9962   18.5358 O   0  0  0  0  0  0  0  0  0  0  0  0
  -25.1219  -14.4059   21.0184 O   0  0  0  0  0  0  0  0  0  0  0  0
  -27.8996  -30.9166   26.4596 O   0  0  0  0  0  0  0  0  0  1  0  0
  -27.7633  -10.2498   18.5376 F   0  0  0  0  0  0  0  0  0  0  0  0
  -25.6690  -12.0611   22.3768 F   0  0  0  0  0  0  0  0  0  0  0  0
  -27.1578  -26.5875   24.2745 Cl  0  0  0  0  0  0  0  0  0  0  0  0
  1  2  1  0  0  0  0
  1  5  2  0  0  0  0
  2  6  2  0  0  0  0
  3  8  2  0  0  0  0
  3 17  1  0  0  0  0
  4  9  1  0  0  0  0
  4 17  2  0  0  0  0
  5 19  1  0  0  0  0
  6 21  1  0  0  0  0
  7 10  2  0  0  0  0
  7 20  1  0  0  0  0
  8 26  1  0  0  0  0
  9 26  2  0  0  0  0
 10 27  1  0  0  0  0
 11 12  2  0  0  0  0
 11 28  1  0  0  0  0
 12 29  1  0  0  0  0
 13 22  1  0  0  0  0
 13 27  2  0  0  0  0
 14 23  2  0  0  0  0
 14 24  1  0  0  0  0
 15 23  1  0  0  0  0
 15 31  2  0  0  0  0
 16 29  2  0  0  0  0
 16 30  1  0  0  0  0
 17 32  1  0  0  0  0
 18 32  1  0  0  0  0
 18 33  2  0  0  0  0
 18 34  1  0  0  0  0
 19 21  2  0  0  0  0
 19 39  1  0  0  0  0
 20 22  2  0  0  0  0
 20 40  1  0  0  0  0
 21 48  1  0  0  0  0
 22 41  1  0  0  0  0
 23 59  1  0  0  0  0
 24 25  2  0  0  0  0
 24 60  1  0  0  0  0
 25 31  1  0  0  0  0
 25 61  1  0  0  0  0
 26 87  1  0  0  0  0
 27 88  1  0  0  0  0
 28 30  2  0  0  0  0
 28 87  1  0  0  0  0
 29 89  1  0  0  0  0
 30 90  1  0  0  0  0
 31 91  1  0  0  0  0
 32 71  2  0  0  0  0
 33 72  1  0  0  0  0
 33 75  1  0  0  0  0
 34 76  1  0  0  0  0
 34 82  2  0  0  0  0
 35 49  1  0  0  0  0
 35 77  1  0  0  0  0
 35 83  2  0  0  0  0
 36 67  1  0  0  0  0
 36 73  1  0  0  0  0
 36 84  2  0  0  0  0
 37 68  1  0  0  0  0
 37 78  1  0  0  0  0
 37 85  2  0  0  0  0
 38 74  1  0  0  0  0
 38 79  1  0  0  0  0
 38 86  2  0  0  0  0
 39 42  1  0  0  0  0
 40 49  1  0  0  0  0
 41 73  1  0  0  0  0
 42 44  1  0  0  0  0
 43 45  1  0  0  0  0
 43 46  1  0  0  0  0
 44 48  1  0  0  0  0
 45 50  1  0  0  0  0
 46 74  1  0  0  0  0
 47 50  1  0  0  0  0
 47 74  1  0  0  0  0
 48 77  1  0  0  0  0
 49 73  1  0  0  0  0
 50 72  1  0  0  0  0
 51 60  1  0  0  0  0
 52 65  1  0  0  0  0
 53 68  1  0  0  0  0
 54 69  1  0  0  0  0
 55 70  1  0  0  0  0
 56 70  1  0  0  0  0
 57 70  1  0  0  0  0
 58 80  1  0  0  0  0
 59 62  1  0  0  0  0
 61 81  1  0  0  0  0
 62 63  1  0  0  0  0
 63 64  1  0  0  0  0
 64 79  1  0  0  0  0
 65 81  1  0  0  0  0
 66 69  1  0  0  0  0
 66 81  1  0  0  0  0
 67 70  1  0  0  0  0
 67 78  1  0  0  0  0
 68 80  1  0  0  0  0
 69 88  1  0  0  0  0
 71 72  1  0  0  0  0
M  CHG  2  80   1  81   1
M  ISO  4  38 100  69 101  79 100  88 101
M  END
> <Batch ID>
0037

> <Smiles>
CCc1cc(CCCC[100NH:0][100C:0](=O)N2CCCC(n3nc(-c4ccc(Oc5ccc(F)cc5F)cc4)c(C(N)=O)c3N)C2)cc(Cl)c1CN(CC)C[101CH:1](C)[101O:1]c1ccc2c(c1)CN(C(=O)C(NC(=O)C(C)NC)C(C)(C)C)C(C(=O)NC1CCCc3ccccc31)C2

> <Shape>
0.256

> <Color>
0.075

> <Negative vol penalty>
0.000

$$$$

  -OEChem-04052316593D

 84 92  0     1  0  0  0  0  0999 V2000
  -22.7466  -11.4076   18.3648 C   0  0  0  0  0  0  0  0  0  0  0  0
  -22.2734  -12.7060   18.5249 C   0  0  0  0  0  0  0  0  0  0  0  0
  -29.6945  -27.8522   18.9632 C   0  0  0  0  0  0  0  0  0  0  0  0
  -29.6376  -28.0583   21.3698 C   0  0  0  0  0  0  0  0  0  0  0  0
  -23.8906  -10.9948   19.0465 C   0  0  0  0  0  0  0  0  0  0  0  0
  -22.9433  -13.5921   19.3678 C   0  0  0  0  0  0  0  0  0  0  0  0
  -23.5834  -19.6339   18.5979 C   0  0  0  0  0  0  0  0  0  0  0  0
  -31.0888  -27.8765   18.9941 C   0  0  0  0  0  0  0  0  0  0  0  0
  -31.0319  -28.0825   21.4007 C   0  0  0  0  0  0  0  0  0  0  0  0
  -22.8989  -20.7251   19.1313 C   0  0  0  0  0  0  0  0  0  0  0  0
  -33.5331  -30.1906   19.3022 C   0  0  0  0  0  0  0  0  0  0  0  0
  -34.1872  -30.9984   18.3721 C   0  0  0  0  0  0  0  0  0  0  0  0
  -24.5920  -20.9465   20.8353 C   0  0  0  0  0  0  0  0  0  0  0  0
  -18.7015  -27.7614   21.9741 C   0  0  0  0  0  0  0  0  0  0  0  0
  -19.8317  -25.9707   23.7903 C   0  0  0  0  0  0  0  0  0  0  0  0
  -35.3128  -29.0569   17.4773 C   0  0  0  0  0  0  0  0  0  0  0  0
  -28.9689  -27.9432   20.1511 C   0  0  0  0  0  0  0  0  0  0  0  0
  -26.6957  -26.7865   20.1972 C   0  0  0  0  0  0  0  0  0  0  0  0
  -24.5804  -11.8792   19.8907 C   0  0  0  0  0  0  0  0  0  0  0  0
  -24.7736  -19.1832   19.1867 C   0  0  0  0  0  0  0  0  0  0  0  0
  -24.0969  -13.1903   20.0625 C   0  0  0  0  0  0  0  0  0  0  0  0
  -25.2910  -19.8509   20.3059 C   0  0  0  0  0  0  0  0  0  0  0  0
  -18.3389  -26.4149   21.9433 C   0  0  0  0  0  0  0  0  0  0  0  0
  -19.6293  -28.2126   22.9130 C   0  0  0  0  0  0  0  0  0  0  0  0
  -18.9040  -25.5195   22.8514 C   0  0  0  0  0  0  0  0  0  0  0  0
  -31.7575  -27.9916   20.2128 C   0  0  0  0  0  0  0  0  0  0  0  0
  -23.4017  -21.3798   20.2519 C   0  0  0  0  0  0  0  0  0  0  0  0
  -33.7689  -28.8158   19.3199 C   0  0  0  0  0  0  0  0  0  0  0  0
  -35.0771  -30.4316   17.4597 C   0  0  0  0  0  0  0  0  0  0  0  0
  -34.6587  -28.2490   18.4074 C   0  0  0  0  0  0  0  0  0  0  0  0
  -20.1943  -27.3173   23.8211 C   0  0  0  0  0  0  0  0  0  0  0  0
  -27.5286  -27.9187   20.1197 C   0  0  0  0  0  0  0  0  0  0  0  0
  -25.4208  -27.2924   20.1245 C   0  0  0  0  0  0  0  0  0  0  0  0
  -27.0433  -25.4012   20.3235 C   0  0  0  0  0  0  0  0  0  0  0  0
  -25.7091  -16.4767   20.5662 C   0  0  0  0  0  0  0  0  0  0  0  0
  -28.5975  -17.9524   20.6083 C   0  0  0  0  0  0  0  0  0  0  0  0
  -30.3580  -20.8758   20.5759 C   0  0  0  0  0  0  0  0  0  0  0  0
  -21.5873  -31.0603   21.6253 C   0  0  0  0  0  0  0  0  0  0  0  0
  -25.7855  -11.3731   20.6434 C   0  0  0  0  0  0  0  0  0  0  0  0
  -25.5140  -18.0213   18.5833 C   0  0  0  0  0  0  0  0  0  0  0  0
  -26.5755  -19.4191   20.9632 C   0  0  0  0  0  0  0  0  0  0  0  0
  -26.6512  -12.4869   21.2267 C   0  0  0  0  0  0  0  0  0  0  0  0
  -23.7823  -31.9345   18.9617 C   0  0  0  0  0  0  0  0  0  0  0  0
  -25.7829  -13.5247   21.9309 C   0  0  0  0  0  0  0  0  0  0  0  0
  -24.8864  -30.8785   19.0361 C   0  0  0  0  0  0  0  0  0  0  0  0
  -23.2880  -32.3329   20.3506 C   0  0  0  0  0  0  0  0  0  0  0  0
  -23.9639  -30.1512   21.2763 C   0  0  0  0  0  0  0  0  0  0  0  0
  -24.8102  -14.1883   20.9487 C   0  0  1  0  0  0  0  0  0  0  0  0
  -26.4465  -17.3285   19.5721 C   0  0  1  0  0  0  0  0  0  0  0  0
  -24.4557  -29.6766   19.8982 C   0  0  2  0  0  0  0  0  0  0  0  0
  -17.3454  -25.9533   20.9282 C   0  0  0  0  0  0  0  0  0  0  0  0
  -32.7037  -21.7637   20.6582 C   0  0  0  0  0  0  0  0  0  0  0  0
  -28.7065  -17.3797   23.6033 C   0  0  0  0  0  0  0  0  0  0  0  0
  -30.5419  -19.0722   23.7894 C   0  0  0  0  0  0  0  0  0  0  0  0
  -30.8679  -17.0298   22.3949 C   0  0  0  0  0  0  0  0  0  0  0  0
  -30.0921  -22.1516   17.9187 C   0  0  0  0  0  0  0  0  0  0  0  0
  -18.5294  -24.0590   22.8352 C   0  0  0  0  0  0  0  0  0  0  0  0
  -19.9911  -29.6628   22.9129 C   0  0  0  0  0  0  0  0  0  0  0  0
  -19.1792  -23.2657   21.6960 C   0  0  0  0  0  0  0  0  0  0  0  0
  -20.7051  -23.2235   21.7904 C   0  0  0  0  0  0  0  0  0  0  0  0
  -21.3166  -22.4620   20.6222 C   0  0  0  0  0  0  0  0  0  1  0  0
  -29.3225  -18.8557   21.5765 C   0  0  1  0  0  0  0  0  0  0  0  0
  -31.5594  -21.3191   19.7606 C   0  0  2  0  0  0  0  0  0  0  0  0
  -29.8345  -18.0915   22.8300 C   0  0  0  0  0  0  0  0  0  0  0  0
  -26.8407  -29.0581   20.0064 N   0  0  0  0  0  0  0  0  0  0  0  0
  -25.5621  -28.6442   20.0121 N   0  0  0  0  0  0  0  0  0  0  0  0
  -27.2594  -18.2740   20.3399 N   0  0  0  0  0  0  0  0  0  0  0  0
  -22.8935  -31.1479   21.1161 N   0  0  0  0  0  0  0  0  0  0  0  0
  -24.2040  -26.7083   20.1465 N   0  0  0  0  0  0  0  0  0  0  0  0
  -28.4002  -25.0557   20.3845 N   0  0  0  0  0  0  0  0  0  0  0  0
  -25.4981  -15.1771   20.1465 N   0  0  0  0  0  0  0  0  0  0  0  0
  -30.3727  -19.5170   20.8095 N   0  0  0  0  0  0  0  0  0  0  0  0
  -21.2942  -29.9014   22.3335 N   0  0  0  0  0  0  0  0  0  0  0  0
  -31.1906  -22.4566   18.8712 N   0  3  0  0  0  0  0  0  0  0  0  0
  -26.1767  -24.4952   20.3642 O   0  0  0  0  0  0  0  0  0  0  0  0
  -25.3589  -16.9620   21.6356 O   0  0  0  0  0  0  0  0  0  0  0  0
  -29.1983  -17.0009   20.1031 O   0  0  0  0  0  0  0  0  0  0  0  0
  -29.4950  -21.6573   20.9694 O   0  0  0  0  0  0  0  0  0  0  0  0
  -20.7432  -31.9468   21.4563 O   0  0  0  0  0  0  0  0  0  0  0  0
  -33.1181  -28.0150   20.2433 O   0  0  0  0  0  0  0  0  0  0  0  0
  -22.7353  -22.4448   20.7749 O   0  0  0  0  0  0  0  0  0  1  0  0
  -35.7040  -31.2073   16.5656 F   0  0  0  0  0  0  0  0  0  0  0  0
  -34.8884  -26.9288   18.4188 F   0  0  0  0  0  0  0  0  0  0  0  0
  -21.3455  -27.8389   24.9966 Cl  0  0  0  0  0  0  0  0  0  0  0  0
  1  2  1  0  0  0  0
  1  5  2  0  0  0  0
  2  6  2  0  0  0  0
  3  8  2  0  0  0  0
  3 17  1  0  0  0  0
  4  9  1  0  0  0  0
  4 17  2  0  0  0  0
  5 19  1  0  0  0  0
  6 21  1  0  0  0  0
  7 10  2  0  0  0  0
  7 20  1  0  0  0  0
  8 26  1  0  0  0  0
  9 26  2  0  0  0  0
 10 27  1  0  0  0  0
 11 12  2  0  0  0  0
 11 28  1  0  0  0  0
 12 29  1  0  0  0  0
 13 22  1  0  0  0  0
 13 27  2  0  0  0  0
 14 23  1  0  0  0  0
 14 24  2  0  0  0  0
 15 25  1  0  0  0  0
 15 31  2  0  0  0  0
 16 29  2  0  0  0  0
 16 30  1  0  0  0  0
 17 32  1  0  0  0  0
 18 32  1  0  0  0  0
 18 33  2  0  0  0  0
 18 34  1  0  0  0  0
 19 21  2  0  0  0  0
 19 39  1  0  0  0  0
 20 22  2  0  0  0  0
 20 40  1  0  0  0  0
 21 48  1  0  0  0  0
 22 41  1  0  0  0  0
 23 25  2  0  0  0  0
 23 51  1  0  0  0  0
 24 31  1  0  0  0  0
 24 58  1  0  0  0  0
 25 57  1  0  0  0  0
 26 80  1  0  0  0  0
 27 81  1  0  0  0  0
 28 30  2  0  0  0  0
 28 80  1  0  0  0  0
 29 82  1  0  0  0  0
 30 83  1  0  0  0  0
 31 84  1  0  0  0  0
 32 65  2  0  0  0  0
 33 66  1  0  0  0  0
 33 69  1  0  0  0  0
 34 70  1  0  0  0  0
 34 75  2  0  0  0  0
 35 49  1  0  0  0  0
 35 71  1  0  0  0  0
 35 76  2  0  0  0  0
 36 62  1  0  0  0  0
 36 67  1  0  0  0  0
 36 77  2  0  0  0  0
 37 63  1  0  0  0  0
 37 72  1  0  0  0  0
 37 78  2  0  0  0  0
 38 68  1  0  0  0  0
 38 73  1  0  0  0  0
 38 79  2  0  0  0  0
 39 42  1  0  0  0  0
 40 49  1  0  0  0  0
 41 67  1  0  0  0  0
 42 44  1  0  0  0  0
 43 45  1  0  0  0  0
 43 46  1  0  0  0  0
 44 48  1  0  0  0  0
 45 50  1  0  0  0  0
 46 68  1  0  0  0  0
 47 50  1  0  0  0  0
 47 68  1  0  0  0  0
 48 71  1  0  0  0  0
 49 67  1  0  0  0  0
 50 66  1  0  0  0  0
 52 63  1  0  0  0  0
 53 64  1  0  0  0  0
 54 64  1  0  0  0  0
 55 64  1  0  0  0  0
 56 74  1  0  0  0  0
 57 59  1  0  0  0  0
 58 73  1  0  0  0  0
 59 60  1  0  0  0  0
 60 61  1  0  0  0  0
 61 81  1  0  0  0  0
 62 64  1  0  0  0  0
 62 72  1  0  0  0  0
 63 74  1  0  0  0  0
 65 66  1  0  0  0  0
M  CHG  1  74   1
M  ISO  4  38 100  61 101  73 100  81 101
M  END
> <Batch ID>
0037

> <Smiles>
CNC(C)C(=O)NC(C(=O)N1Cc2cc([101O:1][101CH2:1]CCCc3cc(Cl)c(C[100NH:0][100C:0](=O)N4CCCC(n5nc(-c6ccc(Oc7ccc(F)cc7F)cc6)c(C(N)=O)c5N)C4)cc3C)ccc2CC1C(=O)NC1CCCc2ccccc21)C(C)(C)C

> <Shape>
0.225

> <Color>
0.086

> <Negative vol penalty>
0.000

$$$$

  -OEChem-04052316593D

 86 94  0     1  0  0  0  0  0999 V2000
  -19.7292  -23.6244   19.0588 C   0  0  0  0  0  0  0  0  0  0  0  0
  -21.0423  -23.3990   19.4591 C   0  0  0  0  0  0  0  0  0  0  0  0
  -20.5472  -27.3923   24.0761 C   0  0  0  0  0  0  0  0  0  0  0  0
  -20.6842  -27.3604   21.6642 C   0  0  0  0  0  0  0  0  0  0  0  0
  -18.7343  -22.7038   19.3853 C   0  0  0  0  0  0  0  0  0  0  0  0
  -21.3611  -22.2532   20.1872 C   0  0  0  0  0  0  0  0  0  0  0  0
  -25.5645  -19.9873   18.5013 C   0  0  0  0  0  0  0  0  0  0  0  0
  -19.1603  -27.2659   23.9990 C   0  0  0  0  0  0  0  0  0  0  0  0
  -19.2972  -27.2339   21.5871 C   0  0  0  0  0  0  0  0  0  0  0  0
  -26.7844  -20.5525   18.8704 C   0  0  0  0  0  0  0  0  0  0  0  0
  -16.9100  -24.8015   23.4551 C   0  0  0  0  0  0  0  0  0  0  0  0
  -16.2945  -23.8831   24.3056 C   0  0  0  0  0  0  0  0  0  0  0  0
  -27.0251  -18.8886   20.6003 C   0  0  0  0  0  0  0  0  0  0  0  0
  -30.9838  -25.7764   19.0203 C   0  0  0  0  0  0  0  0  0  0  0  0
  -30.5065  -26.1182   21.3639 C   0  0  0  0  0  0  0  0  0  0  0  0
  -14.9999  -25.6670   25.2950 C   0  0  0  0  0  0  0  0  0  0  0  0
  -21.3092  -27.4396   22.9086 C   0  0  0  0  0  0  0  0  0  0  0  0
  -23.6883  -26.5308   23.0549 C   0  0  0  0  0  0  0  0  0  0  0  0
  -19.0428  -21.5414   20.1094 C   0  0  0  0  0  0  0  0  0  0  0  0
  -25.0597  -18.8732   19.1872 C   0  0  0  0  0  0  0  0  0  0  0  0
  -20.3692  -21.3169   20.5248 C   0  0  0  0  0  0  0  0  0  0  0  0
  -25.7998  -18.3095   20.2363 C   0  0  0  0  0  0  0  0  0  0  0  0
  -30.8467  -26.6327   20.1128 C   0  0  0  0  0  0  0  0  0  0  0  0
  -30.7805  -24.4055   19.1789 C   0  0  0  0  0  0  0  0  0  0  0  0
  -30.3032  -24.7473   21.5225 C   0  0  0  0  0  0  0  0  0  0  0  0
  -30.4403  -23.8910   20.4299 C   0  0  0  0  0  0  0  0  0  0  0  0
  -18.5352  -27.1867   22.7545 C   0  0  0  0  0  0  0  0  0  0  0  0
  -27.5135  -20.0050   19.9220 C   0  0  0  0  0  0  0  0  0  0  0  0
  -16.5705  -26.1527   23.5246 C   0  0  0  0  0  0  0  0  0  0  0  0
  -15.3395  -24.3159   25.2256 C   0  0  0  0  0  0  0  0  0  0  0  0
  -15.6155  -26.5854   24.4445 C   0  0  0  0  0  0  0  0  0  0  0  0
  -22.7419  -27.5708   22.9876 C   0  0  0  0  0  0  0  0  0  0  0  0
  -24.9008  -27.1733   23.1144 C   0  0  0  0  0  0  0  0  0  0  0  0
  -23.4893  -25.1110   23.0629 C   0  0  0  0  0  0  0  0  0  0  0  0
  -22.4594  -18.2959   20.9218 C   0  0  0  0  0  0  0  0  0  0  0  0
  -23.5929  -15.2566   20.8979 C   0  0  0  0  0  0  0  0  0  0  0  0
  -26.2713  -13.1658   20.5794 C   0  0  0  0  0  0  0  0  0  0  0  0
  -27.5805  -31.8635   21.0321 C   0  0  0  0  0  0  0  0  0  0  0  0
  -17.9252  -20.5987   20.4796 C   0  0  0  0  0  0  0  0  0  0  0  0
  -23.7551  -18.2589   18.7594 C   0  0  0  0  0  0  0  0  0  0  0  0
  -25.3115  -17.1013   20.9915 C   0  0  0  0  0  0  0  0  0  0  0  0
  -18.4122  -19.2240   20.9304 C   0  0  0  0  0  0  0  0  0  0  0  0
  -26.3769  -31.7189   24.3798 C   0  0  0  0  0  0  0  0  0  0  0  0
  -19.5566  -19.3641   21.9291 C   0  0  0  0  0  0  0  0  0  0  0  0
  -25.4048  -30.5378   24.3683 C   0  0  0  0  0  0  0  0  0  0  0  0
  -26.3271  -32.5036   23.0707 C   0  0  0  0  0  0  0  0  0  0  0  0
  -25.5529  -30.5116   21.8432 C   0  0  0  0  0  0  0  0  0  0  0  0
  -20.7589  -20.0735   21.2945 C   0  0  1  0  0  0  0  0  0  0  0  0
  -23.0910  -17.4390   19.8612 C   0  0  1  0  0  0  0  0  0  0  0  0
  -25.6076  -29.6568   23.1210 C   0  0  2  0  0  0  0  0  0  0  0  0
  -30.9345  -23.5099   17.9932 C   0  0  0  0  0  0  0  0  0  0  0  0
  -26.8917  -10.7351   20.6456 C   0  0  0  0  0  0  0  0  0  0  0  0
  -23.3918  -15.2908   23.9423 C   0  0  0  0  0  0  0  0  0  0  0  0
  -24.8761  -13.2751   23.9933 C   0  0  0  0  0  0  0  0  0  0  0  0
  -22.6511  -13.1554   22.8718 C   0  0  0  0  0  0  0  0  0  0  0  0
  -27.2254  -13.2137   17.7782 C   0  0  0  0  0  0  0  0  0  0  0  0
  -31.0633  -28.0984   19.9432 C   0  0  0  0  0  0  0  0  0  0  0  0
  -30.2208  -22.4075   20.6013 C   0  0  0  0  0  0  0  0  0  0  0  0
  -29.9398  -24.2214   22.8727 C   0  0  0  0  0  0  0  0  0  0  0  0
  -29.7689  -28.8386   19.5713 C   0  0  0  0  0  0  0  0  0  0  0  0
  -30.0121  -30.3364   19.3634 C   0  0  0  0  0  0  0  0  0  0  0  0
  -28.7420  -31.0891   18.9802 C   0  0  0  0  0  0  0  0  0  0  0  0
  -28.8622  -21.9578   20.0752 C   0  0  0  0  0  0  0  0  0  1  0  0
  -24.5227  -14.4554   21.7768 C   0  0  1  0  0  0  0  0  0  0  0  0
  -26.4702  -11.9007   19.7643 C   0  0  2  0  0  0  0  0  0  0  0  0
  -23.8690  -14.0681   23.1333 C   0  0  0  0  0  0  0  0  0  0  0  0
  -23.3047  -28.7820   23.0030 N   0  0  0  0  0  0  0  0  0  0  0  0
  -24.6179  -28.5071   23.0807 N   0  0  0  0  0  0  0  0  0  0  0  0
  -24.0273  -16.5407   20.5397 N   0  0  0  0  0  0  0  0  0  0  0  0
  -26.5279  -31.6103   21.9271 N   0  0  0  0  0  0  0  0  0  0  0  0
  -26.1707  -26.7218   23.1918 N   0  0  0  0  0  0  0  0  0  0  0  0
  -22.1784  -24.6197   22.9957 N   0  0  0  0  0  0  0  0  0  0  0  0
  -21.4933  -19.1610   20.4446 N   0  0  0  0  0  0  0  0  0  0  0  0
  -24.9596  -13.3161   20.9771 N   0  0  0  0  0  0  0  0  0  0  0  0
  -27.7043  -30.9650   19.9795 N   0  0  0  0  0  0  0  0  0  0  0  0
  -27.5214  -12.1113   18.7291 N   0  3  0  0  0  0  0  0  0  0  0  0
  -24.4446  -24.3021   23.1442 O   0  0  0  0  0  0  0  0  0  0  0  0
  -22.8207  -18.1796   22.0869 O   0  0  0  0  0  0  0  0  0  0  0  0
  -22.5238  -14.7587   20.5364 O   0  0  0  0  0  0  0  0  0  0  0  0
  -27.1885  -13.9411   20.8404 O   0  0  0  0  0  0  0  0  0  0  0  0
  -28.3559  -32.8164   21.1645 O   0  0  0  0  0  0  0  0  0  0  0  0
  -17.1819  -27.0631   22.6790 O   0  0  0  0  0  0  0  0  0  0  0  0
  -28.7041  -20.5551   20.2847 O   0  0  0  0  0  0  0  0  0  1  0  0
  -14.7474  -23.4336   26.0412 F   0  0  0  0  0  0  0  0  0  0  0  0
  -15.2843  -27.8820   24.5151 F   0  0  0  0  0  0  0  0  0  0  0  0
  -28.7294  -23.5982   22.8293 F   0  0  0  0  0  0  0  0  0  0  0  0
  1  2  1  0  0  0  0
  1  5  2  0  0  0  0
  2  6  2  0  0  0  0
  3  8  2  0  0  0  0
  3 17  1  0  0  0  0
  4  9  1  0  0  0  0
  4 17  2  0  0  0  0
  5 19  1  0  0  0  0
  6 21  1  0  0  0  0
  7 10  2  0  0  0  0
  7 20  1  0  0  0  0
  8 27  1  0  0  0  0
  9 27  2  0  0  0  0
 10 28  1  0  0  0  0
 11 12  2  0  0  0  0
 11 29  1  0  0  0  0
 12 30  1  0  0  0  0
 13 22  1  0  0  0  0
 13 28  2  0  0  0  0
 14 23  1  0  0  0  0
 14 24  2  0  0  0  0
 15 23  2  0  0  0  0
 15 25  1  0  0  0  0
 16 30  2  0  0  0  0
 16 31  1  0  0  0  0
 17 32  1  0  0  0  0
 18 32  1  0  0  0  0
 18 33  2  0  0  0  0
 18 34  1  0  0  0  0
 19 21  2  0  0  0  0
 19 39  1  0  0  0  0
 20 22  2  0  0  0  0
 20 40  1  0  0  0  0
 21 48  1  0  0  0  0
 22 41  1  0  0  0  0
 23 57  1  0  0  0  0
 24 26  1  0  0  0  0
 24 51  1  0  0  0  0
 25 26  2  0  0  0  0
 25 59  1  0  0  0  0
 26 58  1  0  0  0  0
 27 82  1  0  0  0  0
 28 83  1  0  0  0  0
 29 31  2  0  0  0  0
 29 82  1  0  0  0  0
 30 84  1  0  0  0  0
 31 85  1  0  0  0  0
 32 67  2  0  0  0  0
 33 68  1  0  0  0  0
 33 71  1  0  0  0  0
 34 72  1  0  0  0  0
 34 77  2  0  0  0  0
 35 49  1  0  0  0  0
 35 73  1  0  0  0  0
 35 78  2  0  0  0  0
 36 64  1  0  0  0  0
 36 69  1  0  0  0  0
 36 79  2  0  0  0  0
 37 65  1  0  0  0  0
 37 74  1  0  0  0  0
 37 80  2  0  0  0  0
 38 70  1  0  0  0  0
 38 75  1  0  0  0  0
 38 81  2  0  0  0  0
 39 42  1  0  0  0  0
 40 49  1  0  0  0  0
 41 69  1  0  0  0  0
 42 44  1  0  0  0  0
 43 45  1  0  0  0  0
 43 46  1  0  0  0  0
 44 48  1  0  0  0  0
 45 50  1  0  0  0  0
 46 70  1  0  0  0  0
 47 50  1  0  0  0  0
 47 70  1  0  0  0  0
 48 73  1  0  0  0  0
 49 69  1  0  0  0  0
 50 68  1  0  0  0  0
 52 65  1  0  0  0  0
 53 66  1  0  0  0  0
 54 66  1  0  0  0  0
 55 66  1  0  0  0  0
 56 76  1  0  0  0  0
 57 60  1  0  0  0  0
 58 63  1  0  0  0  0
 59 86  1  0  0  0  0
 60 61  1  0  0  0  0
 61 62  1  0  0  0  0
 62 75  1  0  0  0  0
 63 83  1  0  0  0  0
 64 66  1  0  0  0  0
 64 74  1  0  0  0  0
 65 76  1  0  0  0  0
 67 68  1  0  0  0  0
M  CHG  1  76   1
M  ISO  4  38 100  63 101  75 100  83 101
M  END
> <Batch ID>
0037

> <Smiles>
CNC(C)C(=O)NC(C(=O)N1Cc2cc([101O:1][101CH2:1]Cc3c(C)cc(CCCC[100NH:0][100C:0](=O)N4CCCC(n5nc(-c6ccc(Oc7ccc(F)cc7F)cc6)c(C(N)=O)c5N)C4)cc3CF)ccc2CC1C(=O)NC1CCCc2ccccc21)C(C)(C)C

> <Shape>
0.207

> <Color>
0.060

> <Negative vol penalty>
0.000

$$$$

  -OEChem-04052316593D

 81 89  0     1  0  0  0  0  0999 V2000
  -30.8235  -25.1638   14.2170 C   0  0  0  0  0  0  0  0  0  0  0  0
  -29.4861  -25.0375   14.5786 C   0  0  0  0  0  0  0  0  0  0  0  0
  -26.7314  -13.8401   21.6033 C   0  0  0  0  0  0  0  0  0  0  0  0
  -26.4376  -14.0462   19.2141 C   0  0  0  0  0  0  0  0  0  0  0  0
  -31.8083  -25.2222   15.2022 C   0  0  0  0  0  0  0  0  0  0  0  0
  -29.1327  -24.9683   15.9257 C   0  0  0  0  0  0  0  0  0  0  0  0
  -25.1540  -27.8950   17.0433 C   0  0  0  0  0  0  0  0  0  0  0  0
  -25.9435  -12.6891   21.6009 C   0  0  0  0  0  0  0  0  0  0  0  0
  -25.6497  -12.8952   19.2117 C   0  0  0  0  0  0  0  0  0  0  0  0
  -23.8923  -27.4145   16.6952 C   0  0  0  0  0  0  0  0  0  0  0  0
  -26.3120   -9.4198   20.8205 C   0  0  0  0  0  0  0  0  0  0  0  0
  -26.7659   -8.3221   21.5516 C   0  0  0  0  0  0  0  0  0  0  0  0
  -23.5409  -26.7042   18.9736 C   0  0  0  0  0  0  0  0  0  0  0  0
  -24.7629   -8.3925   22.9009 C   0  0  0  0  0  0  0  0  0  0  0  0
  -23.5480  -23.1583   17.1064 C   0  0  0  0  0  0  0  0  0  0  0  0
  -22.5703  -22.1250   15.3770 C   0  0  0  0  0  0  0  0  0  0  0  0
  -26.9784  -14.5187   20.4099 C   0  0  0  0  0  0  0  0  0  0  0  0
  -29.1877  -15.7836   20.2465 C   0  0  0  0  0  0  0  0  0  0  0  0
  -31.4660  -25.1635   16.5624 C   0  0  0  0  0  0  0  0  0  0  0  0
  -25.6237  -27.7737   18.3590 C   0  0  0  0  0  0  0  0  0  0  0  0
  -30.1140  -25.0247   16.9301 C   0  0  0  0  0  0  0  0  0  0  0  0
  -24.8078  -27.1863   19.3364 C   0  0  0  0  0  0  0  0  0  0  0  0
  -24.5241  -22.4413   16.4504 C   0  0  0  0  0  0  0  0  0  0  0  0
  -25.4027  -12.2166   20.4052 C   0  0  0  0  0  0  0  0  0  0  0  0
  -23.0867  -26.8164   17.6597 C   0  0  0  0  0  0  0  0  0  0  0  0
  -25.0836  -10.0040   21.1297 C   0  0  0  0  0  0  0  0  0  0  0  0
  -25.9913   -7.8084   22.5917 C   0  0  0  0  0  0  0  0  0  0  0  0
  -24.3091   -9.4903   22.1698 C   0  0  0  0  0  0  0  0  0  0  0  0
  -23.9056  -21.7875   15.3563 C   0  0  0  0  0  0  0  0  0  0  0  0
  -27.7917  -15.7081   20.4118 C   0  0  0  0  0  0  0  0  0  0  0  0
  -29.4709  -17.1251   20.3265 C   0  0  0  0  0  0  0  0  0  0  0  0
  -30.1430  -14.7347   20.0389 C   0  0  0  0  0  0  0  0  0  0  0  0
  -28.0734  -26.2905   19.7384 C   0  0  0  0  0  0  0  0  0  0  0  0
  -27.0233  -27.8477   22.3831 C   0  0  0  0  0  0  0  0  0  0  0  0
  -24.4371  -29.3551   24.0221 C   0  0  0  0  0  0  0  0  0  0  0  0
  -26.2259  -22.0470   19.2793 C   0  0  0  0  0  0  0  0  0  0  0  0
  -32.5696  -25.1829   17.5902 C   0  0  0  0  0  0  0  0  0  0  0  0
  -26.9762  -28.3212   18.7243 C   0  0  0  0  0  0  0  0  0  0  0  0
  -25.2573  -27.0501   20.7674 C   0  0  0  0  0  0  0  0  0  0  0  0
  -32.0793  -25.4801   19.0049 C   0  0  0  0  0  0  0  0  0  0  0  0
  -27.8774  -21.1765   22.3110 C   0  0  0  0  0  0  0  0  0  0  0  0
  -30.8475  -24.6413   19.3302 C   0  0  0  0  0  0  0  0  0  0  0  0
  -28.1687  -19.6831   22.1531 C   0  0  0  0  0  0  0  0  0  0  0  0
  -26.5367  -21.5590   21.6880 C   0  0  0  0  0  0  0  0  0  0  0  0
  -26.6613  -19.6601   20.1219 C   0  0  0  0  0  0  0  0  0  0  0  0
  -29.6889  -24.9714   18.3815 C   0  0  1  0  0  0  0  0  0  0  0  0
  -27.5603  -27.6818   19.9802 C   0  0  1  0  0  0  0  0  0  0  0  0
  -28.0286  -19.2366   20.6854 C   0  0  2  0  0  0  0  0  0  0  0  0
  -23.8746  -30.5000   26.1832 C   0  0  0  0  0  0  0  0  0  0  0  0
  -26.9522  -25.1435   23.7943 C   0  0  0  0  0  0  0  0  0  0  0  0
  -25.5204  -26.1836   25.5653 C   0  0  0  0  0  0  0  0  0  0  0  0
  -27.8385  -27.0232   25.1855 C   0  0  0  0  0  0  0  0  0  0  0  0
  -23.7346  -31.8752   22.6385 C   0  0  0  0  0  0  0  0  0  0  0  0
  -25.9491  -22.3791   16.8355 C   0  0  0  0  0  0  0  0  0  0  0  0
  -20.6385  -24.7702   15.9834 C   0  0  0  0  0  0  0  0  0  0  0  0
  -21.0388  -23.5628   16.8341 C   0  0  0  0  0  0  0  0  0  0  0  0
  -21.6811  -25.8821   15.9842 C   0  0  0  0  0  0  0  0  0  1  0  0
  -26.0395  -27.5388   23.4856 C   0  0  1  0  0  0  0  0  0  0  0  0
  -24.3432  -30.6849   24.7483 C   0  0  2  0  0  0  0  0  0  0  0  0
  -26.5797  -26.4729   24.4804 C   0  0  0  0  0  0  0  0  0  0  0  0
  -27.2273  -16.9063   20.5841 N   0  0  0  0  0  0  0  0  0  0  0  0
  -22.3644  -22.9589   16.4449 N   0  0  0  0  0  0  0  0  0  0  0  0
  -28.2740  -17.7474   20.5275 N   0  0  0  0  0  0  0  0  0  0  0  0
  -26.5902  -27.5951   21.0737 N   0  0  0  0  0  0  0  0  0  0  0  0
  -26.4688  -21.1084   20.2957 N   0  0  0  0  0  0  0  0  0  0  0  0
  -30.6245  -17.8214   20.2440 N   0  0  0  0  0  0  0  0  0  0  0  0
  -29.6818  -13.4125   19.9823 N   0  0  0  0  0  0  0  0  0  0  0  0
  -29.0560  -26.2136   18.7698 N   0  0  0  0  0  0  0  0  0  0  0  0
  -25.7041  -28.8171   24.1035 N   0  0  0  0  0  0  0  0  0  0  0  0
  -26.1834  -21.5371   17.9874 N   0  0  0  0  0  0  0  0  0  0  0  0
  -23.3832  -31.5881   24.0531 N   0  3  0  0  0  0  0  0  0  0  0  0
  -31.3713  -14.9620   19.9240 O   0  0  0  0  0  0  0  0  0  0  0  0
  -27.6130  -25.3560   20.3838 O   0  0  0  0  0  0  0  0  0  0  0  0
  -28.1324  -28.3034   22.6725 O   0  0  0  0  0  0  0  0  0  0  0  0
  -23.4812  -28.8430   23.4439 O   0  0  0  0  0  0  0  0  0  0  0  0
  -26.0644  -23.2509   19.5058 O   0  0  0  0  0  0  0  0  0  0  0  0
  -24.6340  -11.0934   20.4024 O   0  0  0  0  0  0  0  0  0  0  0  0
  -21.8551  -26.3459   17.3225 O   0  0  0  0  0  0  0  0  0  1  0  0
  -26.4266   -6.7532   23.2927 F   0  0  0  0  0  0  0  0  0  0  0  0
  -23.1276  -10.0466   22.4707 F   0  0  0  0  0  0  0  0  0  0  0  0
  -24.6794  -20.7751   14.2327 Cl  0  0  0  0  0  0  0  0  0  0  0  0
  1  2  1  0  0  0  0
  1  5  2  0  0  0  0
  2  6  2  0  0  0  0
  3  8  2  0  0  0  0
  3 17  1  0  0  0  0
  4  9  1  0  0  0  0
  4 17  2  0  0  0  0
  5 19  1  0  0  0  0
  6 21  1  0  0  0  0
  7 10  2  0  0  0  0
  7 20  1  0  0  0  0
  8 24  1  0  0  0  0
  9 24  2  0  0  0  0
 10 25  1  0  0  0  0
 11 12  2  0  0  0  0
 11 26  1  0  0  0  0
 12 27  1  0  0  0  0
 13 22  1  0  0  0  0
 13 25  2  0  0  0  0
 14 27  2  0  0  0  0
 14 28  1  0  0  0  0
 15 23  2  0  0  0  0
 15 62  1  0  0  0  0
 16 29  2  0  0  0  0
 16 62  1  0  0  0  0
 17 30  1  0  0  0  0
 18 30  1  0  0  0  0
 18 31  2  0  0  0  0
 18 32  1  0  0  0  0
 19 21  2  0  0  0  0
 19 37  1  0  0  0  0
 20 22  2  0  0  0  0
 20 38  1  0  0  0  0
 21 46  1  0  0  0  0
 22 39  1  0  0  0  0
 23 29  1  0  0  0  0
 23 54  1  0  0  0  0
 24 77  1  0  0  0  0
 25 78  1  0  0  0  0
 26 28  2  0  0  0  0
 26 77  1  0  0  0  0
 27 79  1  0  0  0  0
 28 80  1  0  0  0  0
 29 81  1  0  0  0  0
 30 61  2  0  0  0  0
 31 63  1  0  0  0  0
 31 66  1  0  0  0  0
 32 67  1  0  0  0  0
 32 72  2  0  0  0  0
 33 47  1  0  0  0  0
 33 68  1  0  0  0  0
 33 73  2  0  0  0  0
 34 58  1  0  0  0  0
 34 64  1  0  0  0  0
 34 74  2  0  0  0  0
 35 59  1  0  0  0  0
 35 69  1  0  0  0  0
 35 75  2  0  0  0  0
 36 65  1  0  0  0  0
 36 70  1  0  0  0  0
 36 76  2  0  0  0  0
 37 40  1  0  0  0  0
 38 47  1  0  0  0  0
 39 64  1  0  0  0  0
 40 42  1  0  0  0  0
 41 43  1  0  0  0  0
 41 44  1  0  0  0  0
 42 46  1  0  0  0  0
 43 48  1  0  0  0  0
 44 65  1  0  0  0  0
 45 48  1  0  0  0  0
 45 65  1  0  0  0  0
 46 68  1  0  0  0  0
 47 64  1  0  0  0  0
 48 63  1  0  0  0  0
 49 59  1  0  0  0  0
 50 60  1  0  0  0  0
 51 60  1  0  0  0  0
 52 60  1  0  0  0  0
 53 71  1  0  0  0  0
 54 70  1  0  0  0  0
 55 56  1  0  0  0  0
 55 57  1  0  0  0  0
 56 62  1  0  0  0  0
 57 78  1  0  0  0  0
 58 60  1  0  0  0  0
 58 69  1  0  0  0  0
 59 71  1  0  0  0  0
 61 63  1  0  0  0  0
M  CHG  1  71   1
M  ISO  4  36 100  57 101  70 100  78 101
M  END
> <Batch ID>
0037

> <Smiles>
CNC(C)C(=O)NC(C(=O)N1Cc2cc([101O:1][101CH2:1]CCn3cc(Cl)c(C[100NH:0][100C:0](=O)N4CCCC(n5nc(-c6ccc(Oc7ccc(F)cc7F)cc6)c(C(N)=O)c5N)C4)c3)ccc2CC1C(=O)NC1CCCc2ccccc21)C(C)(C)C

> <Shape>
0.185

> <Color>
0.071

> <Negative vol penalty>
0.000

$$$$

  -OEChem-04052316593D

 83 91  0     1  0  0  0  0  0999 V2000
  -27.8282  -36.9575   24.0193 C   0  0  0  0  0  0  0  0  0  0  0  0
  -28.3850  -35.9131   23.2882 C   0  0  0  0  0  0  0  0  0  0  0  0
  -22.8838  -10.3106   19.8892 C   0  0  0  0  0  0  0  0  0  0  0  0
  -23.8614   -9.8287   22.0454 C   0  0  0  0  0  0  0  0  0  0  0  0
  -26.7236  -36.7231   24.8372 C   0  0  0  0  0  0  0  0  0  0  0  0
  -27.8381  -34.6333   23.3753 C   0  0  0  0  0  0  0  0  0  0  0  0
  -26.7467  -28.7487   19.4387 C   0  0  0  0  0  0  0  0  0  0  0  0
  -22.0649   -9.1879   20.0095 C   0  0  0  0  0  0  0  0  0  0  0  0
  -23.0424   -8.7060   22.1658 C   0  0  0  0  0  0  0  0  0  0  0  0
  -26.9668  -27.3725   19.4750 C   0  0  0  0  0  0  0  0  0  0  0  0
  -19.8289   -8.0443   22.9754 C   0  0  0  0  0  0  0  0  0  0  0  0
  -19.1894   -7.8385   24.1978 C   0  0  0  0  0  0  0  0  0  0  0  0
  -25.0095  -27.1021   20.8589 C   0  0  0  0  0  0  0  0  0  0  0  0
  -20.3131   -5.7121   24.4277 C   0  0  0  0  0  0  0  0  0  0  0  0
  -27.8828  -22.4678   20.7767 C   0  0  0  0  0  0  0  0  0  0  0  0
  -23.7821  -10.6310   20.9072 C   0  0  0  0  0  0  0  0  0  0  0  0
  -24.3415  -13.1018   21.2067 C   0  0  0  0  0  0  0  0  0  0  0  0
  -26.1569  -35.4418   24.9269 C   0  0  0  0  0  0  0  0  0  0  0  0
  -25.6608  -29.3142   20.1224 C   0  0  0  0  0  0  0  0  0  0  0  0
  -26.7257  -34.3813   24.1961 C   0  0  0  0  0  0  0  0  0  0  0  0
  -24.7764  -28.4855   20.8276 C   0  0  0  0  0  0  0  0  0  0  0  0
  -22.1442   -8.3856   21.1478 C   0  0  0  0  0  0  0  0  0  0  0  0
  -26.0998  -26.5493   20.1875 C   0  0  0  0  0  0  0  0  0  0  0  0
  -20.7104   -7.0839   22.4791 C   0  0  0  0  0  0  0  0  0  0  0  0
  -19.4315   -6.6724   24.9240 C   0  0  0  0  0  0  0  0  0  0  0  0
  -20.9526   -5.9179   23.2052 C   0  0  0  0  0  0  0  0  0  0  0  0
  -24.6287  -11.7903   20.7832 C   0  0  0  0  0  0  0  0  0  0  0  0
  -27.4895  -23.2137   19.6495 C   0  0  0  0  0  0  0  0  0  0  0  0
  -27.7418  -21.1580   20.3881 C   0  0  0  0  0  0  0  0  0  0  0  0
  -25.4573  -13.8255   20.8635 C   0  0  0  0  0  0  0  0  0  0  0  0
  -23.1709  -13.6196   21.8526 C   0  0  0  0  0  0  0  0  0  0  0  0
  -25.3474  -31.4034   22.4974 C   0  0  0  0  0  0  0  0  0  0  0  0
  -22.1909  -31.1304   21.8015 C   0  0  0  0  0  0  0  0  0  0  0  0
  -19.6719  -29.2622   20.4556 C   0  0  0  0  0  0  0  0  0  0  0  0
  -31.0037  -14.3912   20.6116 C   0  0  0  0  0  0  0  0  0  0  0  0
  -24.9923  -35.2269   25.8608 C   0  0  0  0  0  0  0  0  0  0  0  0
  -25.4220  -30.7975   20.0513 C   0  0  0  0  0  0  0  0  0  0  0  0
  -23.5843  -29.0407   21.5618 C   0  0  0  0  0  0  0  0  0  0  0  0
  -24.2418  -33.9219   25.6081 C   0  0  0  0  0  0  0  0  0  0  0  0
  -29.4239  -12.5898   17.9781 C   0  0  0  0  0  0  0  0  0  0  0  0
  -25.2223  -32.7642   25.4495 C   0  0  0  0  0  0  0  0  0  0  0  0
  -28.0147  -12.3242   18.5105 C   0  0  0  0  0  0  0  0  0  0  0  0
  -30.4703  -12.5125   19.0876 C   0  0  0  0  0  0  0  0  0  0  0  0
  -28.7884  -13.1038   20.7892 C   0  0  0  0  0  0  0  0  0  0  0  0
  -26.1456  -32.9844   24.2450 C   0  0  1  0  0  0  0  0  0  0  0  0
  -24.5787  -31.3231   21.2089 C   0  0  1  0  0  0  0  0  0  0  0  0
  -27.6920  -13.2260   19.7171 C   0  0  2  0  0  0  0  0  0  0  0  0
  -17.1928  -29.2862   20.0673 C   0  0  0  0  0  0  0  0  0  0  0  0
  -21.7259  -30.4813   24.7464 C   0  0  0  0  0  0  0  0  0  0  0  0
  -19.4659  -29.6021   24.1238 C   0  0  0  0  0  0  0  0  0  0  0  0
  -20.0199  -32.0024   23.7314 C   0  0  0  0  0  0  0  0  0  0  0  0
  -26.9890  -20.0684   18.2526 C   0  0  0  0  0  0  0  0  0  0  0  0
  -20.0135  -29.1254   17.5190 C   0  0  0  0  0  0  0  0  0  0  0  0
  -27.4435  -24.7071   19.5119 C   0  0  0  0  0  0  0  0  0  1  0  0
  -27.9924  -19.8998   21.1147 C   0  0  0  0  0  0  0  0  0  0  0  0
  -29.4357  -19.3843   20.9388 C   0  0  0  0  0  0  0  0  0  0  0  0
  -29.6720  -18.0562   21.6610 C   0  0  0  0  0  0  0  0  0  0  0  0
  -31.1216  -17.5882   21.5026 C   0  0  0  0  0  0  0  0  0  0  0  0
  -31.3876  -16.2585   22.2006 C   0  0  0  0  0  0  0  0  0  0  0  0
  -21.0684  -30.2322   22.2621 C   0  0  1  0  0  0  0  0  0  0  0  0
  -18.5585  -29.6206   19.4879 C   0  0  2  0  0  0  0  0  0  0  0  0
  -20.5935  -30.5689   23.7038 C   0  0  0  0  0  0  0  0  0  0  0  0
  -25.8324  -11.6841   20.2143 N   0  0  0  0  0  0  0  0  0  0  0  0
  -27.1260  -22.4419   18.6217 N   0  0  0  0  0  0  0  0  0  0  0  0
  -27.2904  -21.1974   19.1016 N   0  0  0  0  0  0  0  0  0  0  0  0
  -26.3116  -12.9381   20.2778 N   0  0  0  0  0  0  0  0  0  0  0  0
  -23.3969  -30.4980   21.4675 N   0  0  0  0  0  0  0  0  0  0  0  0
  -30.1059  -13.3920   20.2010 N   0  0  0  0  0  0  0  0  0  0  0  0
  -25.7813  -15.1280   21.0085 N   0  0  0  0  0  0  0  0  0  0  0  0
  -22.1174  -12.7387   22.1325 N   0  0  0  0  0  0  0  0  0  0  0  0
  -25.4497  -32.6814   23.0128 N   0  0  0  0  0  0  0  0  0  0  0  0
  -20.0229  -30.3335   21.2496 N   0  0  0  0  0  0  0  0  0  0  0  0
  -30.5776  -15.1849   21.6696 N   0  0  0  0  0  0  0  0  0  0  0  0
  -18.7226  -28.8725   18.2095 N   0  3  0  0  0  0  0  0  0  0  0  0
  -23.0557  -14.8310   22.1573 O   0  0  0  0  0  0  0  0  0  0  0  0
  -25.8120  -30.3813   22.9885 O   0  0  0  0  0  0  0  0  0  0  0  0
  -22.0024  -32.3475   21.7335 O   0  0  0  0  0  0  0  0  0  0  0  0
  -20.1770  -28.1429   20.5049 O   0  0  0  0  0  0  0  0  0  0  0  0
  -32.1012  -14.5667   20.0717 O   0  0  0  0  0  0  0  0  0  0  0  0
  -21.3451   -7.2901   21.2657 O   0  0  0  0  0  0  0  0  0  0  0  0
  -26.3126  -25.2057   20.2251 O   0  0  0  0  0  0  0  0  0  1  0  0
  -18.8185   -6.4756   26.0986 F   0  0  0  0  0  0  0  0  0  0  0  0
  -21.7994   -4.9922   22.7341 F   0  0  0  0  0  0  0  0  0  0  0  0
  1  2  1  0  0  0  0
  1  5  2  0  0  0  0
  2  6  2  0  0  0  0
  3  8  2  0  0  0  0
  3 16  1  0  0  0  0
  4  9  1  0  0  0  0
  4 16  2  0  0  0  0
  5 18  1  0  0  0  0
  6 20  1  0  0  0  0
  7 10  2  0  0  0  0
  7 19  1  0  0  0  0
  8 22  1  0  0  0  0
  9 22  2  0  0  0  0
 10 23  1  0  0  0  0
 11 12  2  0  0  0  0
 11 24  1  0  0  0  0
 12 25  1  0  0  0  0
 13 21  1  0  0  0  0
 13 23  2  0  0  0  0
 14 25  2  0  0  0  0
 14 26  1  0  0  0  0
 15 28  1  0  0  0  0
 15 29  2  0  0  0  0
 16 27  1  0  0  0  0
 17 27  1  0  0  0  0
 17 30  2  0  0  0  0
 17 31  1  0  0  0  0
 18 20  2  0  0  0  0
 18 36  1  0  0  0  0
 19 21  2  0  0  0  0
 19 37  1  0  0  0  0
 20 45  1  0  0  0  0
 21 38  1  0  0  0  0
 22 80  1  0  0  0  0
 23 81  1  0  0  0  0
 24 26  2  0  0  0  0
 24 80  1  0  0  0  0
 25 82  1  0  0  0  0
 26 83  1  0  0  0  0
 27 63  2  0  0  0  0
 28 54  1  0  0  0  0
 28 64  2  0  0  0  0
 29 55  1  0  0  0  0
 29 65  1  0  0  0  0
 30 66  1  0  0  0  0
 30 69  1  0  0  0  0
 31 70  1  0  0  0  0
 31 75  2  0  0  0  0
 32 46  1  0  0  0  0
 32 71  1  0  0  0  0
 32 76  2  0  0  0  0
 33 60  1  0  0  0  0
 33 67  1  0  0  0  0
 33 77  2  0  0  0  0
 34 61  1  0  0  0  0
 34 72  1  0  0  0  0
 34 78  2  0  0  0  0
 35 68  1  0  0  0  0
 35 73  1  0  0  0  0
 35 79  2  0  0  0  0
 36 39  1  0  0  0  0
 37 46  1  0  0  0  0
 38 67  1  0  0  0  0
 39 41  1  0  0  0  0
 40 42  1  0  0  0  0
 40 43  1  0  0  0  0
 41 45  1  0  0  0  0
 42 47  1  0  0  0  0
 43 68  1  0  0  0  0
 44 47  1  0  0  0  0
 44 68  1  0  0  0  0
 45 71  1  0  0  0  0
 46 67  1  0  0  0  0
 47 66  1  0  0  0  0
 48 61  1  0  0  0  0
 49 62  1  0  0  0  0
 50 62  1  0  0  0  0
 51 62  1  0  0  0  0
 52 65  1  0  0  0  0
 53 74  1  0  0  0  0
 54 81  1  0  0  0  0
 55 56  1  0  0  0  0
 56 57  1  0  0  0  0
 57 58  1  0  0  0  0
 58 59  1  0  0  0  0
 59 73  1  0  0  0  0
 60 62  1  0  0  0  0
 60 72  1  0  0  0  0
 61 74  1  0  0  0  0
 63 66  1  0  0  0  0
 64 65  1  0  0  0  0
M  CHG  1  74   1
M  ISO  4  35 100  54 101  73 100  81 101
M  END
> <Batch ID>
0037

> <Smiles>
CNC(C)C(=O)NC(C(=O)N1Cc2cc([101O:1][101CH2:1]c3cc(CCCCC[100NH:0][100C:0](=O)N4CCCC(n5nc(-c6ccc(Oc7ccc(F)cc7F)cc6)c(C(N)=O)c5N)C4)n(C)n3)ccc2CC1C(=O)NC1CCCc2ccccc21)C(C)(C)C

> <Shape>
0.383

> <Color>
0.204

> <Negative vol penalty>
0.000

$$$$

  -OEChem-04052316593D

 87 95  0     1  0  0  0  0  0999 V2000
  -18.2861  -19.1484   28.5617 C   0  0  0  0  0  0  0  0  0  0  0  0
  -18.7804  -18.8847   27.2883 C   0  0  0  0  0  0  0  0  0  0  0  0
  -23.1221   -9.8113   19.9697 C   0  0  0  0  0  0  0  0  0  0  0  0
  -23.7991   -9.9312   22.2858 C   0  0  0  0  0  0  0  0  0  0  0  0
  -17.4537  -20.2471   28.7713 C   0  0  0  0  0  0  0  0  0  0  0  0
  -18.4417  -19.7190   26.2235 C   0  0  0  0  0  0  0  0  0  0  0  0
  -22.4268  -20.8829   23.3237 C   0  0  0  0  0  0  0  0  0  0  0  0
  -22.3815   -8.6620   20.2457 C   0  0  0  0  0  0  0  0  0  0  0  0
  -23.0584   -8.7819   22.5618 C   0  0  0  0  0  0  0  0  0  0  0  0
  -22.8598  -19.9151   22.4183 C   0  0  0  0  0  0  0  0  0  0  0  0
  -19.3913   -7.8975   21.6266 C   0  0  0  0  0  0  0  0  0  0  0  0
  -18.1032   -7.8139   21.0981 C   0  0  0  0  0  0  0  0  0  0  0  0
  -21.7003  -21.0657   20.6432 C   0  0  0  0  0  0  0  0  0  0  0  0
  -23.9891  -15.9190   16.5263 C   0  0  0  0  0  0  0  0  0  0  0  0
  -22.1671  -17.0541   17.6347 C   0  0  0  0  0  0  0  0  0  0  0  0
  -18.7296   -5.8196   19.8867 C   0  0  0  0  0  0  0  0  0  0  0  0
  -23.8310  -10.4459   20.9897 C   0  0  0  0  0  0  0  0  0  0  0  0
  -24.1513  -12.9668   20.7665 C   0  0  0  0  0  0  0  0  0  0  0  0
  -17.1125  -21.1008   27.7105 C   0  0  0  0  0  0  0  0  0  0  0  0
  -21.6170  -21.9452   22.8970 C   0  0  0  0  0  0  0  0  0  0  0  0
  -17.6029  -20.8293   26.4189 C   0  0  0  0  0  0  0  0  0  0  0  0
  -21.2605  -22.0471   21.5447 C   0  0  0  0  0  0  0  0  0  0  0  0
  -22.6422  -15.9789   16.8838 C   0  0  0  0  0  0  0  0  0  0  0  0
  -24.8609  -16.9343   16.9197 C   0  0  0  0  0  0  0  0  0  0  0  0
  -23.0389  -18.0694   18.0281 C   0  0  0  0  0  0  0  0  0  0  0  0
  -24.3858  -18.0095   17.6705 C   0  0  0  0  0  0  0  0  0  0  0  0
  -22.3496   -8.1473   21.5417 C   0  0  0  0  0  0  0  0  0  0  0  0
  -22.4941  -20.0048   21.0784 C   0  0  0  0  0  0  0  0  0  0  0  0
  -20.3486   -6.9421   21.2852 C   0  0  0  0  0  0  0  0  0  0  0  0
  -17.7723   -6.7750   20.2282 C   0  0  0  0  0  0  0  0  0  0  0  0
  -20.0178   -5.9032   20.4153 C   0  0  0  0  0  0  0  0  0  0  0  0
  -24.5967  -11.6328   20.7052 C   0  0  0  0  0  0  0  0  0  0  0  0
  -25.2482  -13.7119   20.4082 C   0  0  0  0  0  0  0  0  0  0  0  0
  -22.8615  -13.4862   21.1162 C   0  0  0  0  0  0  0  0  0  0  0  0
  -18.6775  -22.9410   23.5836 C   0  0  0  0  0  0  0  0  0  0  0  0
  -19.5008  -25.4399   21.6863 C   0  0  0  0  0  0  0  0  0  0  0  0
  -21.4664  -26.6415   19.1684 C   0  0  0  0  0  0  0  0  0  0  0  0
  -30.7110  -14.8028   20.7436 C   0  0  0  0  0  0  0  0  0  0  0  0
  -16.1713  -22.2490   27.9765 C   0  0  0  0  0  0  0  0  0  0  0  0
  -21.1804  -22.9956   23.8811 C   0  0  0  0  0  0  0  0  0  0  0  0
  -20.4094  -23.1790   21.0321 C   0  0  0  0  0  0  0  0  0  0  0  0
  -16.1630  -23.2990   26.8686 C   0  0  0  0  0  0  0  0  0  0  0  0
  -29.6840  -12.2993   18.4297 C   0  0  0  0  0  0  0  0  0  0  0  0
  -16.0677  -22.6309   25.5006 C   0  0  0  0  0  0  0  0  0  0  0  0
  -28.2350  -12.0086   18.8245 C   0  0  0  0  0  0  0  0  0  0  0  0
  -30.5552  -12.5851   19.6509 C   0  0  0  0  0  0  0  0  0  0  0  0
  -28.5976  -13.3559   20.9344 C   0  0  0  0  0  0  0  0  0  0  0  0
  -17.2782  -21.7253   25.2434 C   0  0  1  0  0  0  0  0  0  0  0  0
  -19.9334  -23.7521   23.4337 C   0  0  1  0  0  0  0  0  0  0  0  0
  -27.6681  -13.1166   19.7323 C   0  0  2  0  0  0  0  0  0  0  0  0
  -21.7103  -14.8930   16.4638 C   0  0  0  0  0  0  0  0  0  0  0  0
  -26.2985  -16.8470   16.5228 C   0  0  0  0  0  0  0  0  0  0  0  0
  -21.8825  -28.7104   17.8105 C   0  0  0  0  0  0  0  0  0  0  0  0
  -16.9696  -24.8881   20.0742 C   0  0  0  0  0  0  0  0  0  0  0  0
  -17.9104  -26.3106   18.2414 C   0  0  0  0  0  0  0  0  0  0  0  0
  -17.4417  -27.3105   20.4781 C   0  0  0  0  0  0  0  0  0  0  0  0
  -24.2624  -26.8422   20.1174 C   0  0  0  0  0  0  0  0  0  0  0  0
  -25.3207  -19.0982   18.0918 C   0  0  0  0  0  0  0  0  0  0  0  0
  -22.5027  -19.2151   18.8352 C   0  0  0  0  0  0  0  0  0  1  0  0
  -26.1997  -18.7407   19.3030 C   0  0  0  0  0  0  0  0  0  0  0  0
  -27.0915  -19.9037   19.7514 C   0  0  0  0  0  0  0  0  0  0  0  0
  -27.9260  -19.5828   20.9955 C   0  0  0  0  0  0  0  0  0  0  0  0
  -28.9264  -18.4445   20.7786 C   0  0  0  0  0  0  0  0  0  0  0  0
  -29.7122  -18.1475   22.0602 C   0  0  0  0  0  0  0  0  0  0  0  0
  -30.7106  -17.0079   21.8824 C   0  0  0  0  0  0  0  0  0  0  0  0
  -19.4036  -25.7386   20.2096 C   0  0  1  0  0  0  0  0  0  0  0  0
  -22.2788  -27.9180   19.0465 C   0  0  2  0  0  0  0  0  0  0  0  0
  -17.9458  -26.0394   19.7605 C   0  0  0  0  0  0  0  0  0  0  0  0
  -25.8767  -11.5330   20.3367 N   0  0  0  0  0  0  0  0  0  0  0  0
  -26.2449  -12.8137   20.1632 N   0  0  0  0  0  0  0  0  0  0  0  0
  -20.0023  -24.1777   22.0343 N   0  0  0  0  0  0  0  0  0  0  0  0
  -29.9628  -13.6462   20.4689 N   0  0  0  0  0  0  0  0  0  0  0  0
  -25.4475  -15.0410   20.2818 N   0  0  0  0  0  0  0  0  0  0  0  0
  -21.8474  -12.5814   21.4587 N   0  0  0  0  0  0  0  0  0  0  0  0
  -18.4326  -22.5170   24.8758 N   0  0  0  0  0  0  0  0  0  0  0  0
  -20.3447  -26.8226   19.9496 N   0  0  0  0  0  0  0  0  0  0  0  0
  -30.0726  -15.7617   21.5206 N   0  0  0  0  0  0  0  0  0  0  0  0
  -23.7320  -27.6003   18.9551 N   0  3  0  0  0  0  0  0  0  0  0  0
  -22.6109  -14.7152   21.1087 O   0  0  0  0  0  0  0  0  0  0  0  0
  -17.9814  -22.7178   22.6001 O   0  0  0  0  0  0  0  0  0  0  0  0
  -19.1515  -26.2978   22.5010 O   0  0  0  0  0  0  0  0  0  0  0  0
  -21.7920  -25.5899   18.6219 O   0  0  0  0  0  0  0  0  0  0  0  0
  -31.8607  -14.9708   20.3229 O   0  0  0  0  0  0  0  0  0  0  0  0
  -21.6268   -7.0260   21.8114 O   0  0  0  0  0  0  0  0  0  0  0  0
  -22.9148  -19.0612   20.1927 O   0  0  0  0  0  0  0  0  0  1  0  0
  -16.5349   -6.6940   19.7219 F   0  0  0  0  0  0  0  0  0  0  0  0
  -20.9329   -4.9818   20.0845 F   0  0  0  0  0  0  0  0  0  0  0  0
  1  2  1  0  0  0  0
  1  5  2  0  0  0  0
  2  6  2  0  0  0  0
  3  8  2  0  0  0  0
  3 17  1  0  0  0  0
  4  9  1  0  0  0  0
  4 17  2  0  0  0  0
  5 19  1  0  0  0  0
  6 21  1  0  0  0  0
  7 10  2  0  0  0  0
  7 20  1  0  0  0  0
  8 27  1  0  0  0  0
  9 27  2  0  0  0  0
 10 28  1  0  0  0  0
 11 12  2  0  0  0  0
 11 29  1  0  0  0  0
 12 30  1  0  0  0  0
 13 22  1  0  0  0  0
 13 28  2  0  0  0  0
 14 23  1  0  0  0  0
 14 24  2  0  0  0  0
 15 23  2  0  0  0  0
 15 25  1  0  0  0  0
 16 30  2  0  0  0  0
 16 31  1  0  0  0  0
 17 32  1  0  0  0  0
 18 32  1  0  0  0  0
 18 33  2  0  0  0  0
 18 34  1  0  0  0  0
 19 21  2  0  0  0  0
 19 39  1  0  0  0  0
 20 22  2  0  0  0  0
 20 40  1  0  0  0  0
 21 48  1  0  0  0  0
 22 41  1  0  0  0  0
 23 51  1  0  0  0  0
 24 26  1  0  0  0  0
 24 52  1  0  0  0  0
 25 26  2  0  0  0  0
 25 59  1  0  0  0  0
 26 58  1  0  0  0  0
 27 84  1  0  0  0  0
 28 85  1  0  0  0  0
 29 31  2  0  0  0  0
 29 84  1  0  0  0  0
 30 86  1  0  0  0  0
 31 87  1  0  0  0  0
 32 69  2  0  0  0  0
 33 70  1  0  0  0  0
 33 73  1  0  0  0  0
 34 74  1  0  0  0  0
 34 79  2  0  0  0  0
 35 49  1  0  0  0  0
 35 75  1  0  0  0  0
 35 80  2  0  0  0  0
 36 66  1  0  0  0  0
 36 71  1  0  0  0  0
 36 81  2  0  0  0  0
 37 67  1  0  0  0  0
 37 76  1  0  0  0  0
 37 82  2  0  0  0  0
 38 72  1  0  0  0  0
 38 77  1  0  0  0  0
 38 83  2  0  0  0  0
 39 42  1  0  0  0  0
 40 49  1  0  0  0  0
 41 71  1  0  0  0  0
 42 44  1  0  0  0  0
 43 45  1  0  0  0  0
 43 46  1  0  0  0  0
 44 48  1  0  0  0  0
 45 50  1  0  0  0  0
 46 72  1  0  0  0  0
 47 50  1  0  0  0  0
 47 72  1  0  0  0  0
 48 75  1  0  0  0  0
 49 71  1  0  0  0  0
 50 70  1  0  0  0  0
 53 67  1  0  0  0  0
 54 68  1  0  0  0  0
 55 68  1  0  0  0  0
 56 68  1  0  0  0  0
 57 78  1  0  0  0  0
 58 60  1  0  0  0  0
 59 85  1  0  0  0  0
 60 61  1  0  0  0  0
 61 62  1  0  0  0  0
 62 63  1  0  0  0  0
 63 64  1  0  0  0  0
 64 65  1  0  0  0  0
 65 77  1  0  0  0  0
 66 68  1  0  0  0  0
 66 76  1  0  0  0  0
 67 78  1  0  0  0  0
 69 70  1  0  0  0  0
M  CHG  1  78   1
M  ISO  4  38 100  59 101  77 100  85 101
M  END
> <Batch ID>
0037

> <Smiles>
CNC(C)C(=O)NC(C(=O)N1Cc2cc([101O:1][101CH2:1]c3cc(C)cc(C)c3CCCCCCC[100NH:0][100C:0](=O)N3CCCC(n4nc(-c5ccc(Oc6ccc(F)cc6F)cc5)c(C(N)=O)c4N)C3)ccc2CC1C(=O)NC1CCCc2ccccc21)C(C)(C)C

> <Shape>
0.193

> <Color>
0.189

> <Negative vol penalty>
0.000

$$$$

  -OEChem-04052316593D

 83 91  0     1  0  0  0  0  0999 V2000
  -16.4395  -28.5151   22.8219 C   0  0  0  0  0  0  0  0  0  0  0  0
  -17.4019  -28.0326   21.9408 C   0  0  0  0  0  0  0  0  0  0  0  0
  -24.4356  -14.0346   23.1820 C   0  0  0  0  0  0  0  0  0  0  0  0
  -26.6451  -14.2476   22.2282 C   0  0  0  0  0  0  0  0  0  0  0  0
  -16.7681  -29.5227   23.7279 C   0  0  0  0  0  0  0  0  0  0  0  0
  -18.6932  -28.5582   21.9644 C   0  0  0  0  0  0  0  0  0  0  0  0
  -23.9158  -25.5414   20.9013 C   0  0  0  0  0  0  0  0  0  0  0  0
  -24.1178  -13.0662   22.2298 C   0  0  0  0  0  0  0  0  0  0  0  0
  -26.3273  -13.2791   21.2759 C   0  0  0  0  0  0  0  0  0  0  0  0
  -24.7225  -25.4327   19.7694 C   0  0  0  0  0  0  0  0  0  0  0  0
  -22.8466  -10.2778   20.2744 C   0  0  0  0  0  0  0  0  0  0  0  0
  -22.1908   -9.1276   20.7131 C   0  0  0  0  0  0  0  0  0  0  0  0
  -26.1288  -27.2037   20.6091 C   0  0  0  0  0  0  0  0  0  0  0  0
  -24.0506   -8.6230   22.1703 C   0  0  0  0  0  0  0  0  0  0  0  0
  -29.3246  -24.0474   20.6170 C   0  0  0  0  0  0  0  0  0  0  0  0
  -25.6992  -14.6254   23.1812 C   0  0  0  0  0  0  0  0  0  0  0  0
  -26.5969  -15.4155   25.4346 C   0  0  0  0  0  0  0  0  0  0  0  0
  -18.0667  -30.0541   23.7692 C   0  0  0  0  0  0  0  0  0  0  0  0
  -24.2037  -26.4911   21.8921 C   0  0  0  0  0  0  0  0  0  0  0  0
  -19.0391  -29.5747   22.8709 C   0  0  0  0  0  0  0  0  0  0  0  0
  -25.3257  -27.3207   21.7538 C   0  0  0  0  0  0  0  0  0  0  0  0
  -29.3986  -22.7952   21.1766 C   0  0  0  0  0  0  0  0  0  0  0  0
  -25.0636  -12.6884   21.2768 C   0  0  0  0  0  0  0  0  0  0  0  0
  -25.8276  -26.2659   19.6218 C   0  0  0  0  0  0  0  0  0  0  0  0
  -24.1045  -10.6006   20.7836 C   0  0  0  0  0  0  0  0  0  0  0  0
  -22.7928   -8.3002   21.6611 C   0  0  0  0  0  0  0  0  0  0  0  0
  -24.7065   -9.7732   21.7316 C   0  0  0  0  0  0  0  0  0  0  0  0
  -26.0279  -15.6262   24.1643 C   0  0  0  0  0  0  0  0  0  0  0  0
  -29.4333  -21.9190   20.0753 C   0  0  0  0  0  0  0  0  0  0  0  0
  -26.7092  -16.6738   25.9735 C   0  0  0  0  0  0  0  0  0  0  0  0
  -26.9888  -14.1917   26.0705 C   0  0  0  0  0  0  0  0  0  0  0  0
  -22.6843  -29.0120   23.0921 C   0  0  0  0  0  0  0  0  0  0  0  0
  -25.1755  -29.0350   25.1695 C   0  0  0  0  0  0  0  0  0  0  0  0
  -28.4127  -28.1728   25.8210 C   0  0  0  0  0  0  0  0  0  0  0  0
  -27.1565  -22.1265   23.5405 C   0  0  0  0  0  0  0  0  0  0  0  0
  -18.3620  -31.1752   24.7338 C   0  0  0  0  0  0  0  0  0  0  0  0
  -23.3390  -26.5775   23.1198 C   0  0  0  0  0  0  0  0  0  0  0  0
  -25.6897  -28.3428   22.7985 C   0  0  0  0  0  0  0  0  0  0  0  0
  -19.8538  -31.4167   24.9488 C   0  0  0  0  0  0  0  0  0  0  0  0
  -24.6757  -21.0023   25.8336 C   0  0  0  0  0  0  0  0  0  0  0  0
  -20.5882  -31.4447   23.6121 C   0  0  0  0  0  0  0  0  0  0  0  0
  -24.7923  -19.4780   25.7805 C   0  0  0  0  0  0  0  0  0  0  0  0
  -24.9110  -21.6345   24.4636 C   0  0  0  0  0  0  0  0  0  0  0  0
  -26.2900  -19.7183   23.7561 C   0  0  0  0  0  0  0  0  0  0  0  0
  -20.4575  -30.1021   22.8827 C   0  0  1  0  0  0  0  0  0  0  0  0
  -23.4298  -27.9296   23.8205 C   0  0  1  0  0  0  0  0  0  0  0  0
  -26.1158  -19.0394   25.1255 C   0  0  2  0  0  0  0  0  0  0  0  0
  -28.2496  -18.2565   19.7757 C   0  0  0  0  0  0  0  0  0  0  0  0
  -30.1837  -28.3610   27.5889 C   0  0  0  0  0  0  0  0  0  0  0  0
  -25.6184  -31.9572   24.4114 C   0  0  0  0  0  0  0  0  0  0  0  0
  -27.8962  -31.8062   25.4397 C   0  0  0  0  0  0  0  0  0  0  0  0
  -25.8676  -31.4628   26.8503 C   0  0  0  0  0  0  0  0  0  0  0  0
  -28.6071  -25.2332   26.1032 C   0  0  0  0  0  0  0  0  0  0  0  0
  -29.4330  -22.4583   22.6097 C   0  0  0  0  0  0  0  0  0  0  0  0
  -29.5129  -20.4479   20.0938 C   0  0  0  0  0  0  0  0  0  0  0  0
  -28.1573  -19.7741   19.7944 C   0  0  0  0  0  0  0  0  0  0  0  0
  -28.0782  -24.7550   17.2377 C   0  0  0  0  0  0  0  0  0  0  0  0
  -29.2487  -24.9244   18.2088 C   0  0  0  0  0  0  0  0  0  0  0  0
  -26.7147  -24.8759   17.9081 C   0  0  0  0  0  0  0  0  0  1  0  0
  -26.5419  -29.6764   25.1932 C   0  0  1  0  0  0  0  0  0  0  0  0
  -29.0557  -27.5104   27.0261 C   0  0  2  0  0  0  0  0  0  0  0  0
  -26.4733  -31.2078   25.4529 C   0  0  0  0  0  0  0  0  0  0  0  0
  -25.7949  -16.9168   23.9113 N   0  0  0  0  0  0  0  0  0  0  0  0
  -29.3850  -22.5602   18.9046 N   0  0  0  0  0  0  0  0  0  0  0  0
  -29.3192  -23.8526   19.2671 N   0  0  0  0  0  0  0  0  0  0  0  0
  -26.2195  -17.5284   25.0301 N   0  0  0  0  0  0  0  0  0  0  0  0
  -24.8098  -28.3932   23.9778 N   0  0  0  0  0  0  0  0  0  0  0  0
  -26.1832  -21.1789   23.8981 N   0  0  0  0  0  0  0  0  0  0  0  0
  -27.1780  -17.1215   27.1576 N   0  0  0  0  0  0  0  0  0  0  0  0
  -26.8040  -12.9886   25.3757 N   0  0  0  0  0  0  0  0  0  0  0  0
  -21.3566  -29.1248   23.4580 N   0  0  0  0  0  0  0  0  0  0  0  0
  -27.3227  -28.9374   26.1795 N   0  0  0  0  0  0  0  0  0  0  0  0
  -28.3357  -21.6097   23.0179 N   0  0  0  0  0  0  0  0  0  0  0  0
  -29.6126  -26.1802   26.6502 N   0  3  0  0  0  0  0  0  0  0  0  0
  -27.4730  -14.1644   27.2274 O   0  0  0  0  0  0  0  0  0  0  0  0
  -23.2707  -29.6952   22.2609 O   0  0  0  0  0  0  0  0  0  0  0  0
  -24.4619  -29.0948   26.1739 O   0  0  0  0  0  0  0  0  0  0  0  0
  -28.8373  -28.0295   24.6766 O   0  0  0  0  0  0  0  0  0  0  0  0
  -26.9892  -23.3426   23.6818 O   0  0  0  0  0  0  0  0  0  0  0  0
  -24.7540  -11.7433   20.3476 O   0  0  0  0  0  0  0  0  0  0  0  0
  -26.6163  -26.1624   18.5177 O   0  0  0  0  0  0  0  0  0  1  0  0
  -22.1622   -7.1965   22.0834 F   0  0  0  0  0  0  0  0  0  0  0  0
  -25.9142  -10.0787   22.2253 F   0  0  0  0  0  0  0  0  0  0  0  0
  1  2  1  0  0  0  0
  1  5  2  0  0  0  0
  2  6  2  0  0  0  0
  3  8  2  0  0  0  0
  3 16  1  0  0  0  0
  4  9  1  0  0  0  0
  4 16  2  0  0  0  0
  5 18  1  0  0  0  0
  6 20  1  0  0  0  0
  7 10  2  0  0  0  0
  7 19  1  0  0  0  0
  8 23  1  0  0  0  0
  9 23  2  0  0  0  0
 10 24  1  0  0  0  0
 11 12  2  0  0  0  0
 11 25  1  0  0  0  0
 12 26  1  0  0  0  0
 13 21  1  0  0  0  0
 13 24  2  0  0  0  0
 14 26  2  0  0  0  0
 14 27  1  0  0  0  0
 15 22  2  0  0  0  0
 15 65  1  0  0  0  0
 16 28  1  0  0  0  0
 17 28  1  0  0  0  0
 17 30  2  0  0  0  0
 17 31  1  0  0  0  0
 18 20  2  0  0  0  0
 18 36  1  0  0  0  0
 19 21  2  0  0  0  0
 19 37  1  0  0  0  0
 20 45  1  0  0  0  0
 21 38  1  0  0  0  0
 22 29  1  0  0  0  0
 22 54  1  0  0  0  0
 23 80  1  0  0  0  0
 24 81  1  0  0  0  0
 25 27  2  0  0  0  0
 25 80  1  0  0  0  0
 26 82  1  0  0  0  0
 27 83  1  0  0  0  0
 28 63  2  0  0  0  0
 29 55  1  0  0  0  0
 29 64  2  0  0  0  0
 30 66  1  0  0  0  0
 30 69  1  0  0  0  0
 31 70  1  0  0  0  0
 31 75  2  0  0  0  0
 32 46  1  0  0  0  0
 32 71  1  0  0  0  0
 32 76  2  0  0  0  0
 33 60  1  0  0  0  0
 33 67  1  0  0  0  0
 33 77  2  0  0  0  0
 34 61  1  0  0  0  0
 34 72  1  0  0  0  0
 34 78  2  0  0  0  0
 35 68  1  0  0  0  0
 35 73  1  0  0  0  0
 35 79  2  0  0  0  0
 36 39  1  0  0  0  0
 37 46  1  0  0  0  0
 38 67  1  0  0  0  0
 39 41  1  0  0  0  0
 40 42  1  0  0  0  0
 40 43  1  0  0  0  0
 41 45  1  0  0  0  0
 42 47  1  0  0  0  0
 43 68  1  0  0  0  0
 44 47  1  0  0  0  0
 44 68  1  0  0  0  0
 45 71  1  0  0  0  0
 46 67  1  0  0  0  0
 47 66  1  0  0  0  0
 48 56  1  0  0  0  0
 49 61  1  0  0  0  0
 50 62  1  0  0  0  0
 51 62  1  0  0  0  0
 52 62  1  0  0  0  0
 53 74  1  0  0  0  0
 54 73  1  0  0  0  0
 55 56  1  0  0  0  0
 57 58  1  0  0  0  0
 57 59  1  0  0  0  0
 58 65  1  0  0  0  0
 59 81  1  0  0  0  0
 60 62  1  0  0  0  0
 60 72  1  0  0  0  0
 61 74  1  0  0  0  0
 63 66  1  0  0  0  0
 64 65  1  0  0  0  0
M  CHG  1  74   1
M  ISO  4  35 100  59 101  73 100  81 101
M  END
> <Batch ID>
0037

> <Smiles>
CCCc1nn(CC[101CH2:1][101O:1]c2ccc3c(c2)CN(C(=O)C(NC(=O)C(C)NC)C(C)(C)C)C(C(=O)NC2CCCc4ccccc42)C3)cc1C[100NH:0][100C:0](=O)N1CCCC(n2nc(-c3ccc(Oc4ccc(F)cc4F)cc3)c(C(N)=O)c2N)C1

> <Shape>
0.240

> <Color>
0.074

> <Negative vol penalty>
0.000

$$$$

  -OEChem-04052316593D

 81 89  0     1  0  0  0  0  0999 V2000
  -23.2327  -23.8911   20.6460 C   0  0  0  0  0  0  0  0  0  0  0  0
  -24.3779  -23.1108   20.7689 C   0  0  0  0  0  0  0  0  0  0  0  0
  -22.9377  -27.7446   19.1377 C   0  0  0  0  0  0  0  0  0  0  0  0
  -23.0371  -27.6719   21.5505 C   0  0  0  0  0  0  0  0  0  0  0  0
  -22.0072  -23.4047   21.0995 C   0  0  0  0  0  0  0  0  0  0  0  0
  -24.2984  -21.8441   21.3464 C   0  0  0  0  0  0  0  0  0  0  0  0
  -26.8771  -18.3538   18.7361 C   0  0  0  0  0  0  0  0  0  0  0  0
  -21.5753  -27.4496   19.1848 C   0  0  0  0  0  0  0  0  0  0  0  0
  -21.6746  -27.3770   21.5977 C   0  0  0  0  0  0  0  0  0  0  0  0
  -28.2617  -18.3325   18.8972 C   0  0  0  0  0  0  0  0  0  0  0  0
  -18.7537  -29.0542   21.3222 C   0  0  0  0  0  0  0  0  0  0  0  0
  -17.9742  -29.7456   22.2496 C   0  0  0  0  0  0  0  0  0  0  0  0
  -28.0481  -16.4883   20.4374 C   0  0  0  0  0  0  0  0  0  0  0  0
  -17.3659  -27.6551   23.2969 C   0  0  0  0  0  0  0  0  0  0  0  0
  -23.6687  -27.8557   20.3205 C   0  0  0  0  0  0  0  0  0  0  0  0
  -25.6713  -29.4356   20.2866 C   0  0  0  0  0  0  0  0  0  0  0  0
  -21.9110  -22.1275   21.6741 C   0  0  0  0  0  0  0  0  0  0  0  0
  -26.0653  -17.4481   19.4340 C   0  0  0  0  0  0  0  0  0  0  0  0
  -23.0708  -21.3408   21.8092 C   0  0  0  0  0  0  0  0  0  0  0  0
  -26.6536  -16.4984   20.2815 C   0  0  0  0  0  0  0  0  0  0  0  0
  -20.9437  -27.2658   20.4149 C   0  0  0  0  0  0  0  0  0  0  0  0
  -28.8473  -17.4016   19.7502 C   0  0  0  0  0  0  0  0  0  0  0  0
  -18.8392  -27.6632   21.3822 C   0  0  0  0  0  0  0  0  0  0  0  0
  -17.2804  -29.0461   23.2369 C   0  0  0  0  0  0  0  0  0  0  0  0
  -18.1454  -26.9637   22.3696 C   0  0  0  0  0  0  0  0  0  0  0  0
  -25.0763  -28.1598   20.2724 C   0  0  0  0  0  0  0  0  0  0  0  0
  -27.0205  -29.1858   20.2243 C   0  0  0  0  0  0  0  0  0  0  0  0
  -25.0592  -30.7305   20.3503 C   0  0  0  0  0  0  0  0  0  0  0  0
  -23.7535  -17.7155   21.5991 C   0  0  0  0  0  0  0  0  0  0  0  0
  -23.5066  -14.5108   21.1613 C   0  0  0  0  0  0  0  0  0  0  0  0
  -24.9952  -11.5954   20.1964 C   0  0  0  0  0  0  0  0  0  0  0  0
  -30.2394  -24.5268   21.8938 C   0  0  0  0  0  0  0  0  0  0  0  0
  -20.5729  -21.6638   22.1927 C   0  0  0  0  0  0  0  0  0  0  0  0
  -24.5753  -17.4666   19.2288 C   0  0  0  0  0  0  0  0  0  0  0  0
  -25.8281  -15.4912   21.0380 C   0  0  0  0  0  0  0  0  0  0  0  0
  -20.5076  -20.1608   22.4516 C   0  0  0  0  0  0  0  0  0  0  0  0
  -30.1621  -25.9727   18.5771 C   0  0  0  0  0  0  0  0  0  0  0  0
  -21.7431  -19.6967   23.2164 C   0  0  0  0  0  0  0  0  0  0  0  0
  -33.1760  -19.8700   21.3646 C   0  0  0  0  0  0  0  0  0  0  0  0
  -33.0228  -21.3845   21.4642 C   0  0  0  0  0  0  0  0  0  0  0  0
  -28.8930  -26.8241   18.6460 C   0  0  0  0  0  0  0  0  0  0  0  0
  -31.1527  -19.5700   22.8364 C   0  0  0  0  0  0  0  0  0  0  0  0
  -29.9915  -24.6634   19.3419 C   0  0  0  0  0  0  0  0  0  0  0  0
  -28.3173  -25.6807   20.8371 C   0  0  0  0  0  0  0  0  0  0  0  0
  -23.0207  -19.9516   22.4075 C   0  0  1  0  0  0  0  0  0  0  0  0
  -23.8052  -16.8337   20.3836 C   0  0  1  0  0  0  0  0  0  0  0  0
  -31.8292  -19.1592   21.5231 C   0  0  2  0  0  0  0  0  0  0  0  0
  -32.3467  -21.8118   22.7775 C   0  0  2  0  0  0  0  0  0  0  0  0
  -30.9849  -21.0961   22.9493 C   0  0  2  0  0  0  0  0  0  0  0  0
  -28.4336  -27.0283   20.1018 C   0  0  2  0  0  0  0  0  0  0  0  0
  -30.3088  -21.4338   24.2813 C   0  0  0  0  0  0  0  0  0  0  0  0
  -24.5539   -9.1341   19.9853 C   0  0  0  0  0  0  0  0  0  0  0  0
  -23.7987  -14.2017   24.1828 C   0  0  0  0  0  0  0  0  0  0  0  0
  -24.3025  -11.7769   23.8159 C   0  0  0  0  0  0  0  0  0  0  0  0
  -22.0872  -12.7046   23.1416 C   0  0  0  0  0  0  0  0  0  0  0  0
  -25.4496  -11.6469   17.2724 C   0  0  0  0  0  0  0  0  0  0  0  0
  -32.0080  -17.6530   21.4602 C   0  0  0  0  0  0  0  0  0  0  0  0
  -32.2164  -23.3374   22.8069 C   0  0  0  0  0  0  0  0  0  0  0  0
  -30.6961  -16.9389   21.1727 C   0  0  0  0  0  0  0  0  0  1  0  0
  -24.1411  -13.2939   21.7902 C   0  0  1  0  0  0  0  0  0  0  0  0
  -24.5263  -10.4805   19.2789 C   0  0  2  0  0  0  0  0  0  0  0  0
  -23.5981  -13.0144   23.2200 C   0  0  0  0  0  0  0  0  0  0  0  0
  -25.9738  -27.1729   20.2062 N   0  0  0  0  0  0  0  0  0  0  0  0
  -27.1466  -27.8286   20.1781 N   0  0  0  0  0  0  0  0  0  0  0  0
  -24.3751  -15.5535   20.8088 N   0  0  0  0  0  0  0  0  0  0  0  0
  -29.5715  -24.9286   20.7251 N   0  0  0  0  0  0  0  0  0  0  0  0
  -28.0994  -29.9970   20.2051 N   0  0  0  0  0  0  0  0  0  0  0  0
  -23.6610  -30.8065   20.4094 N   0  0  0  0  0  0  0  0  0  0  0  0
  -23.1734  -18.9494   21.3747 N   0  0  0  0  0  0  0  0  0  0  0  0
  -23.9403  -12.1968   20.8497 N   0  0  0  0  0  0  0  0  0  0  0  0
  -31.4157  -23.8129   21.7007 N   0  0  0  0  0  0  0  0  0  0  0  0
  -25.4012  -10.3979   18.0753 N   0  3  0  0  0  0  0  0  0  0  0  0
  -25.7316  -31.7894   20.3382 O   0  0  0  0  0  0  0  0  0  0  0  0
  -24.2049  -17.3060   22.6623 O   0  0  0  0  0  0  0  0  0  0  0  0
  -22.2862  -14.5324   20.9828 O   0  0  0  0  0  0  0  0  0  0  0  0
  -26.1791  -11.8996   20.3239 O   0  0  0  0  0  0  0  0  0  0  0  0
  -29.8210  -24.7895   23.0266 O   0  0  0  0  0  0  0  0  0  0  0  0
  -19.6141  -26.9782   20.4613 O   0  0  0  0  0  0  0  0  0  0  0  0
  -30.1985  -17.3790   19.9098 O   0  0  0  0  0  0  0  0  0  1  0  0
  -16.5331  -29.7103   24.1283 F   0  0  0  0  0  0  0  0  0  0  0  0
  -18.2247  -25.6274   22.4329 F   0  0  0  0  0  0  0  0  0  0  0  0
  1  2  1  0  0  0  0
  1  5  2  0  0  0  0
  2  6  2  0  0  0  0
  3  8  2  0  0  0  0
  3 15  1  0  0  0  0
  4  9  1  0  0  0  0
  4 15  2  0  0  0  0
  5 17  1  0  0  0  0
  6 19  1  0  0  0  0
  7 10  2  0  0  0  0
  7 18  1  0  0  0  0
  8 21  1  0  0  0  0
  9 21  2  0  0  0  0
 10 22  1  0  0  0  0
 11 12  2  0  0  0  0
 11 23  1  0  0  0  0
 12 24  1  0  0  0  0
 13 20  1  0  0  0  0
 13 22  2  0  0  0  0
 14 24  2  0  0  0  0
 14 25  1  0  0  0  0
 15 26  1  0  0  0  0
 16 26  1  0  0  0  0
 16 27  2  0  0  0  0
 16 28  1  0  0  0  0
 17 19  2  0  0  0  0
 17 33  1  0  0  0  0
 18 20  2  0  0  0  0
 18 34  1  0  0  0  0
 19 45  1  0  0  0  0
 20 35  1  0  0  0  0
 21 78  1  0  0  0  0
 22 79  1  0  0  0  0
 23 25  2  0  0  0  0
 23 78  1  0  0  0  0
 24 80  1  0  0  0  0
 25 81  1  0  0  0  0
 26 63  2  0  0  0  0
 27 64  1  0  0  0  0
 27 67  1  0  0  0  0
 28 68  1  0  0  0  0
 28 73  2  0  0  0  0
 29 46  1  0  0  0  0
 29 69  1  0  0  0  0
 29 74  2  0  0  0  0
 30 60  1  0  0  0  0
 30 65  1  0  0  0  0
 30 75  2  0  0  0  0
 31 61  1  0  0  0  0
 31 70  1  0  0  0  0
 31 76  2  0  0  0  0
 32 66  1  0  0  0  0
 32 71  1  0  0  0  0
 32 77  2  0  0  0  0
 33 36  1  0  0  0  0
 34 46  1  0  0  0  0
 35 65  1  0  0  0  0
 36 38  1  0  0  0  0
 37 41  1  0  0  0  0
 37 43  1  0  0  0  0
 38 45  1  0  0  0  0
 39 40  1  0  0  0  0
 39 47  1  0  0  0  0
 40 48  1  0  0  0  0
 41 50  1  0  0  0  0
 42 47  1  0  0  0  0
 42 49  1  0  0  0  0
 43 66  1  0  0  0  0
 44 50  1  0  0  0  0
 44 66  1  0  0  0  0
 45 69  1  0  0  0  0
 46 65  1  0  0  0  0
 47 57  1  0  0  0  0
 48 49  1  0  0  0  0
 48 58  1  0  0  0  0
 49 51  1  0  0  0  0
 50 64  1  0  0  0  0
 52 61  1  0  0  0  0
 53 62  1  0  0  0  0
 54 62  1  0  0  0  0
 55 62  1  0  0  0  0
 56 72  1  0  0  0  0
 57 59  1  0  0  0  0
 58 71  1  0  0  0  0
 59 79  1  0  0  0  0
 60 62  1  0  0  0  0
 60 70  1  0  0  0  0
 61 72  1  0  0  0  0
 63 64  1  0  0  0  0
M  CHG  1  72   1
M  ISO  4  32 100  59 101  71 100  79 101
M  END
> <Batch ID>
0037

> <Smiles>
CNC(C)C(=O)NC(C(=O)N1Cc2cc([101O:1][101CH2:1]CC3CCC(C[100NH:0][100C:0](=O)N4CCCC(n5nc(-c6ccc(Oc7ccc(F)cc7F)cc6)c(C(N)=O)c5N)C4)C(C)C3)ccc2CC1C(=O)NC1CCCc2ccccc21)C(C)(C)C

> <Shape>
0.217

> <Color>
0.075

> <Negative vol penalty>
0.000

$$$$

  -OEChem-04052316593D

 85 93  0     1  0  0  0  0  0999 V2000
  -16.5925  -29.8278   24.1231 C   0  0  0  0  0  0  0  0  0  0  0  0
  -16.9393  -29.3731   22.8558 C   0  0  0  0  0  0  0  0  0  0  0  0
  -23.4592  -15.0148   20.9885 C   0  0  0  0  0  0  0  0  0  0  0  0
  -25.4903  -13.7325   20.7290 C   0  0  0  0  0  0  0  0  0  0  0  0
  -17.5670  -30.3788   24.9525 C   0  0  0  0  0  0  0  0  0  0  0  0
  -18.2627  -29.4583   22.4221 C   0  0  0  0  0  0  0  0  0  0  0  0
  -25.7360  -28.3665   18.9063 C   0  0  0  0  0  0  0  0  0  0  0  0
  -22.7066  -13.8938   20.6383 C   0  0  0  0  0  0  0  0  0  0  0  0
  -24.7377  -12.6114   20.3789 C   0  0  0  0  0  0  0  0  0  0  0  0
  -27.0531  -28.5493   19.3254 C   0  0  0  0  0  0  0  0  0  0  0  0
  -22.9150  -10.2445   21.9588 C   0  0  0  0  0  0  0  0  0  0  0  0
  -23.2593   -9.0261   22.5441 C   0  0  0  0  0  0  0  0  0  0  0  0
  -26.4764  -27.6757   21.4987 C   0  0  0  0  0  0  0  0  0  0  0  0
  -31.3764  -24.2223   23.8482 C   0  0  0  0  0  0  0  0  0  0  0  0
  -32.1558  -23.3120   21.7504 C   0  0  0  0  0  0  0  0  0  0  0  0
  -23.6803   -8.0936   20.3554 C   0  0  0  0  0  0  0  0  0  0  0  0
  -24.8510  -14.9342   21.0337 C   0  0  0  0  0  0  0  0  0  0  0  0
  -26.0353  -16.4738   22.6874 C   0  0  0  0  0  0  0  0  0  0  0  0
  -18.9005  -30.4819   24.5232 C   0  0  0  0  0  0  0  0  0  0  0  0
  -24.7751  -27.8463   19.7852 C   0  0  0  0  0  0  0  0  0  0  0  0
  -19.2653  -29.9893   23.2537 C   0  0  0  0  0  0  0  0  0  0  0  0
  -25.1483  -27.4849   21.0876 C   0  0  0  0  0  0  0  0  0  0  0  0
  -31.8465  -24.4130   22.5489 C   0  0  0  0  0  0  0  0  0  0  0  0
  -31.2156  -22.9304   24.3490 C   0  0  0  0  0  0  0  0  0  0  0  0
  -31.9949  -22.0200   22.2512 C   0  0  0  0  0  0  0  0  0  0  0  0
  -31.5248  -21.8293   23.5505 C   0  0  0  0  0  0  0  0  0  0  0  0
  -23.3459  -12.6921   20.3336 C   0  0  0  0  0  0  0  0  0  0  0  0
  -27.4228  -28.2065   20.6226 C   0  0  0  0  0  0  0  0  0  0  0  0
  -22.9532  -10.3874   20.5717 C   0  0  0  0  0  0  0  0  0  0  0  0
  -23.6420   -7.9507   21.7424 C   0  0  0  0  0  0  0  0  0  0  0  0
  -23.3359   -9.3120   19.7701 C   0  0  0  0  0  0  0  0  0  0  0  0
  -25.6290  -16.0920   21.3948 C   0  0  0  0  0  0  0  0  0  0  0  0
  -26.7445  -17.6343   22.4956 C   0  0  0  0  0  0  0  0  0  0  0  0
  -25.7935  -15.8364   23.9487 C   0  0  0  0  0  0  0  0  0  0  0  0
  -22.0583  -28.9260   21.0330 C   0  0  0  0  0  0  0  0  0  0  0  0
  -21.8461  -25.9053   22.1959 C   0  0  0  0  0  0  0  0  0  0  0  0
  -24.0809  -23.4904   23.6762 C   0  0  0  0  0  0  0  0  0  0  0  0
  -30.5342  -20.6136   19.6836 C   0  0  0  0  0  0  0  0  0  0  0  0
  -19.9161  -31.0796   25.4647 C   0  0  0  0  0  0  0  0  0  0  0  0
  -23.3646  -27.6303   19.3094 C   0  0  0  0  0  0  0  0  0  0  0  0
  -24.1593  -26.9037   22.0635 C   0  0  0  0  0  0  0  0  0  0  0  0
  -21.1890  -31.5322   24.7566 C   0  0  0  0  0  0  0  0  0  0  0  0
  -27.2129  -20.5680   18.4016 C   0  0  0  0  0  0  0  0  0  0  0  0
  -21.7055  -30.4208   23.8552 C   0  0  0  0  0  0  0  0  0  0  0  0
  -26.5407  -19.4274   19.1679 C   0  0  0  0  0  0  0  0  0  0  0  0
  -28.6739  -20.2532   18.0881 C   0  0  0  0  0  0  0  0  0  0  0  0
  -28.8180  -18.7332   20.0226 C   0  0  0  0  0  0  0  0  0  0  0  0
  -20.6926  -30.0998   22.7489 C   0  0  1  0  0  0  0  0  0  0  0  0
  -22.3518  -27.5731   20.4489 C   0  0  1  0  0  0  0  0  0  0  0  0
  -27.3589  -19.0280   20.4106 C   0  0  2  0  0  0  0  0  0  0  0  0
  -31.3518  -20.4442   24.0876 C   0  0  0  0  0  0  0  0  0  0  0  0
  -29.2393  -22.3470   25.7775 C   0  0  0  0  0  0  0  0  0  0  0  0
  -23.9808  -20.9833   23.7138 C   0  0  0  0  0  0  0  0  0  0  0  0
  -20.4432  -26.2905   24.8780 C   0  0  0  0  0  0  0  0  0  0  0  0
  -21.6840  -24.2919   25.7350 C   0  0  0  0  0  0  0  0  0  0  0  0
  -20.0924  -24.0471   23.8298 C   0  0  0  0  0  0  0  0  0  0  0  0
  -26.7885  -23.2491   22.5058 C   0  0  0  0  0  0  0  0  0  0  0  0
  -32.0211  -25.8097   22.0077 C   0  0  0  0  0  0  0  0  0  0  0  0
  -30.7094  -22.7533   25.7433 C   0  0  0  0  0  0  0  0  0  0  0  0
  -32.3331  -20.8576   21.3758 C   0  0  0  0  0  0  0  0  0  0  0  0
  -30.7757  -26.3616   21.3051 C   0  0  0  0  0  0  0  0  0  0  0  0
  -30.9963  -27.7470   20.6962 C   0  0  0  0  0  0  0  0  0  0  0  0
  -29.7281  -28.2788   20.0426 C   0  0  0  0  0  0  0  0  0  1  0  0
  -22.3060  -25.2093   23.4541 C   0  0  1  0  0  0  0  0  0  0  0  0
  -24.5824  -22.2067   23.0399 C   0  0  2  0  0  0  0  0  0  0  0  0
  -21.1455  -24.9820   24.4636 C   0  0  0  0  0  0  0  0  0  0  0  0
  -26.0452  -16.9412   20.4515 N   0  0  0  0  0  0  0  0  0  0  0  0
  -26.7205  -17.8682   21.1521 N   0  0  0  0  0  0  0  0  0  0  0  0
  -22.7910  -26.7175   21.5531 N   0  0  0  0  0  0  0  0  0  0  0  0
  -29.3943  -19.8834   19.3088 N   0  0  0  0  0  0  0  0  0  0  0  0
  -27.3801  -18.4674   23.3468 N   0  0  0  0  0  0  0  0  0  0  0  0
  -25.0462  -14.6508   23.9657 N   0  0  0  0  0  0  0  0  0  0  0  0
  -21.1207  -28.9093   22.0479 N   0  0  0  0  0  0  0  0  0  0  0  0
  -22.9717  -23.9848   23.0232 N   0  0  0  0  0  0  0  0  0  0  0  0
  -31.1537  -20.2014   20.8571 N   0  0  0  0  0  0  0  0  0  0  0  0
  -26.0663  -22.1205   23.1474 N   0  3  0  0  0  0  0  0  0  0  0  0
  -26.2132  -16.3131   25.0304 O   0  0  0  0  0  0  0  0  0  0  0  0
  -22.6405  -29.9119   20.5962 O   0  0  0  0  0  0  0  0  0  0  0  0
  -20.6932  -25.7289   21.7942 O   0  0  0  0  0  0  0  0  0  0  0  0
  -24.6173  -24.0015   24.6569 O   0  0  0  0  0  0  0  0  0  0  0  0
  -30.9647  -21.5660   19.0243 O   0  0  0  0  0  0  0  0  0  0  0  0
  -22.6119  -11.5979   19.9922 O   0  0  0  0  0  0  0  0  0  0  0  0
  -28.7075  -28.3845   21.0345 O   0  0  0  0  0  0  0  0  0  1  0  0
  -23.9741   -6.7812   22.3047 F   0  0  0  0  0  0  0  0  0  0  0  0
  -23.3758   -9.4437   18.4371 F   0  0  0  0  0  0  0  0  0  0  0  0
  1  2  1  0  0  0  0
  1  5  2  0  0  0  0
  2  6  2  0  0  0  0
  3  8  2  0  0  0  0
  3 17  1  0  0  0  0
  4  9  1  0  0  0  0
  4 17  2  0  0  0  0
  5 19  1  0  0  0  0
  6 21  1  0  0  0  0
  7 10  2  0  0  0  0
  7 20  1  0  0  0  0
  8 27  1  0  0  0  0
  9 27  2  0  0  0  0
 10 28  1  0  0  0  0
 11 12  2  0  0  0  0
 11 29  1  0  0  0  0
 12 30  1  0  0  0  0
 13 22  1  0  0  0  0
 13 28  2  0  0  0  0
 14 23  2  0  0  0  0
 14 24  1  0  0  0  0
 15 23  1  0  0  0  0
 15 25  2  0  0  0  0
 16 30  2  0  0  0  0
 16 31  1  0  0  0  0
 17 32  1  0  0  0  0
 18 32  1  0  0  0  0
 18 33  2  0  0  0  0
 18 34  1  0  0  0  0
 19 21  2  0  0  0  0
 19 39  1  0  0  0  0
 20 22  2  0  0  0  0
 20 40  1  0  0  0  0
 21 48  1  0  0  0  0
 22 41  1  0  0  0  0
 23 58  1  0  0  0  0
 24 26  2  0  0  0  0
 24 59  1  0  0  0  0
 25 26  1  0  0  0  0
 25 60  1  0  0  0  0
 26 51  1  0  0  0  0
 27 82  1  0  0  0  0
 28 83  1  0  0  0  0
 29 31  2  0  0  0  0
 29 82  1  0  0  0  0
 30 84  1  0  0  0  0
 31 85  1  0  0  0  0
 32 67  2  0  0  0  0
 33 68  1  0  0  0  0
 33 71  1  0  0  0  0
 34 72  1  0  0  0  0
 34 77  2  0  0  0  0
 35 49  1  0  0  0  0
 35 73  1  0  0  0  0
 35 78  2  0  0  0  0
 36 64  1  0  0  0  0
 36 69  1  0  0  0  0
 36 79  2  0  0  0  0
 37 65  1  0  0  0  0
 37 74  1  0  0  0  0
 37 80  2  0  0  0  0
 38 70  1  0  0  0  0
 38 75  1  0  0  0  0
 38 81  2  0  0  0  0
 39 42  1  0  0  0  0
 40 49  1  0  0  0  0
 41 69  1  0  0  0  0
 42 44  1  0  0  0  0
 43 45  1  0  0  0  0
 43 46  1  0  0  0  0
 44 48  1  0  0  0  0
 45 50  1  0  0  0  0
 46 70  1  0  0  0  0
 47 50  1  0  0  0  0
 47 70  1  0  0  0  0
 48 73  1  0  0  0  0
 49 69  1  0  0  0  0
 50 68  1  0  0  0  0
 52 59  1  0  0  0  0
 53 65  1  0  0  0  0
 54 66  1  0  0  0  0
 55 66  1  0  0  0  0
 56 66  1  0  0  0  0
 57 76  1  0  0  0  0
 58 61  1  0  0  0  0
 60 75  1  0  0  0  0
 61 62  1  0  0  0  0
 62 63  1  0  0  0  0
 63 83  1  0  0  0  0
 64 66  1  0  0  0  0
 64 74  1  0  0  0  0
 65 76  1  0  0  0  0
 67 68  1  0  0  0  0
M  CHG  1  76   1
M  ISO  4  38 100  63 101  75 100  83 101
M  END
> <Batch ID>
0037

> <Smiles>
CCc1cc(CCC[101CH2:1][101O:1]c2ccc3c(c2)CN(C(=O)C(NC(=O)C(C)NC)C(C)(C)C)C(C(=O)NC2CCCc4ccccc42)C3)cc(C[100NH:0][100C:0](=O)N2CCCC(n3nc(-c4ccc(Oc5ccc(F)cc5F)cc4)c(C(N)=O)c3N)C2)c1C

> <Shape>
0.211

> <Color>
0.067

> <Negative vol penalty>
0.000

$$$$

  -OEChem-04052316593D

 93102  0     1  0  0  0  0  0999 V2000
  -29.0387  -37.2114   22.9596 C   0  0  0  0  0  0  0  0  0  0  0  0
  -29.1527  -35.8493   23.2182 C   0  0  0  0  0  0  0  0  0  0  0  0
  -23.5630   -9.6424   19.9074 C   0  0  0  0  0  0  0  0  0  0  0  0
  -24.0988   -9.8339   22.2554 C   0  0  0  0  0  0  0  0  0  0  0  0
  -27.7776  -37.7933   22.8366 C   0  0  0  0  0  0  0  0  0  0  0  0
  -28.0056  -35.0683   23.3549 C   0  0  0  0  0  0  0  0  0  0  0  0
  -27.2958  -29.2353   21.6292 C   0  0  0  0  0  0  0  0  0  0  0  0
  -23.0144   -8.3804   20.1354 C   0  0  0  0  0  0  0  0  0  0  0  0
  -23.5501   -8.5719   22.4835 C   0  0  0  0  0  0  0  0  0  0  0  0
  -27.3626  -28.0340   22.3335 C   0  0  0  0  0  0  0  0  0  0  0  0
  -20.1334   -7.1007   21.3582 C   0  0  0  0  0  0  0  0  0  0  0  0
  -18.9045   -6.8113   20.7652 C   0  0  0  0  0  0  0  0  0  0  0  0
  -24.9643  -28.0592   22.5919 C   0  0  0  0  0  0  0  0  0  0  0  0
  -26.5563  -22.1727   24.6808 C   0  0  0  0  0  0  0  0  0  0  0  0
  -19.9153   -4.9719   19.5685 C   0  0  0  0  0  0  0  0  0  0  0  0
  -29.9851  -17.8689   26.0209 C   0  0  0  0  0  0  0  0  0  0  0  0
  -28.0331  -24.2427   25.6707 C   0  0  0  0  0  0  0  0  0  0  0  0
  -24.1053  -10.3691   20.9674 C   0  0  0  0  0  0  0  0  0  0  0  0
  -24.0064  -12.9116   20.7835 C   0  0  0  0  0  0  0  0  0  0  0  0
  -26.6146  -37.0173   22.9623 C   0  0  0  0  0  0  0  0  0  0  0  0
  -26.0618  -29.8642   21.4099 C   0  0  0  0  0  0  0  0  0  0  0  0
  -26.7278  -35.6406   23.2348 C   0  0  0  0  0  0  0  0  0  0  0  0
  -24.8843  -29.2671   21.8822 C   0  0  0  0  0  0  0  0  0  0  0  0
  -26.6583  -23.3496   23.9475 C   0  0  0  0  0  0  0  0  0  0  0  0
  -27.4089  -24.4091   24.4449 C   0  0  0  0  0  0  0  0  0  0  0  0
  -23.0079   -7.8452   21.4235 C   0  0  0  0  0  0  0  0  0  0  0  0
  -26.1970  -27.4472   22.8175 C   0  0  0  0  0  0  0  0  0  0  0  0
  -21.2533   -6.3258   21.0563 C   0  0  0  0  0  0  0  0  0  0  0  0
  -18.7954   -5.7469   19.8703 C   0  0  0  0  0  0  0  0  0  0  0  0
  -21.1442   -5.2614   20.1615 C   0  0  0  0  0  0  0  0  0  0  0  0
  -24.6727  -11.6725   20.7323 C   0  0  0  0  0  0  0  0  0  0  0  0
  -27.2187  -22.1062   25.8959 C   0  0  0  0  0  0  0  0  0  0  0  0
  -29.6520  -19.2211   25.8146 C   0  0  0  0  0  0  0  0  0  0  0  0
  -29.8045  -17.2797   24.7935 C   0  0  0  0  0  0  0  0  0  0  0  0
  -24.9778  -13.8363   20.4873 C   0  0  0  0  0  0  0  0  0  0  0  0
  -22.6323  -13.2008   21.0730 C   0  0  0  0  0  0  0  0  0  0  0  0
  -24.7895  -32.6573   22.2366 C   0  0  0  0  0  0  0  0  0  0  0  0
  -22.3668  -31.6813   20.3130 C   0  0  0  0  0  0  0  0  0  0  0  0
  -20.6923  -29.0924   18.8500 C   0  0  0  0  0  0  0  0  0  0  0  0
  -30.9404  -13.8037   21.0331 C   0  0  0  0  0  0  0  0  0  0  0  0
  -25.2729  -37.6997   22.8683 C   0  0  0  0  0  0  0  0  0  0  0  0
  -26.0041  -31.1461   20.6251 C   0  0  0  0  0  0  0  0  0  0  0  0
  -23.5325  -29.8916   21.6560 C   0  0  0  0  0  0  0  0  0  0  0  0
  -24.1113  -36.7325   22.6548 C   0  0  0  0  0  0  0  0  0  0  0  0
  -29.0664  -14.3223   18.0505 C   0  0  0  0  0  0  0  0  0  0  0  0
  -24.2187  -35.5496   23.6119 C   0  0  0  0  0  0  0  0  0  0  0  0
  -27.6678  -13.8138   18.4042 C   0  0  0  0  0  0  0  0  0  0  0  0
  -30.1566  -13.4774   18.7059 C   0  0  0  0  0  0  0  0  0  0  0  0
  -28.6267  -12.8135   20.5204 C   0  0  0  0  0  0  0  0  0  0  0  0
  -25.5072  -34.7555   23.3651 C   0  0  1  0  0  0  0  0  0  0  0  0
  -24.7459  -31.9621   20.9053 C   0  0  1  0  0  0  0  0  0  0  0  0
  -27.4930  -13.6677   19.9278 C   0  0  2  0  0  0  0  0  0  0  0  0
  -25.9567  -23.4530   22.6340 C   0  0  0  0  0  0  0  0  0  0  0  0
  -27.2434  -17.9963   20.8317 C   0  0  0  0  0  0  0  0  0  0  0  0
  -18.7306  -28.6049   17.3629 C   0  0  0  0  0  0  0  0  0  0  0  0
  -20.4717  -32.1977   22.6479 C   0  0  0  0  0  0  0  0  0  0  0  0
  -18.7450  -30.8298   21.4582 C   0  0  0  0  0  0  0  0  0  0  0  0
  -19.6043  -32.9284   20.4190 C   0  0  0  0  0  0  0  0  0  0  0  0
  -22.4152  -27.8494   16.7895 C   0  0  0  0  0  0  0  0  0  0  0  0
  -27.5521  -25.7013   23.6958 C   0  0  0  0  0  0  0  0  0  1  0  0
  -27.1311  -20.8587   26.7100 C   0  0  0  0  0  0  0  0  0  0  0  0
  -29.6675  -20.3364   26.8294 C   0  0  0  0  0  0  0  0  0  0  0  0
  -29.9864  -15.8845   24.3528 C   0  0  0  0  0  0  0  0  0  0  0  0
  -27.5622  -18.1349   22.3112 C   0  0  0  0  0  0  0  0  0  0  0  0
  -28.3537  -20.5457   27.5988 C   0  0  0  0  0  0  0  0  0  0  0  0
  -31.4023  -15.5429   23.8269 C   0  0  0  0  0  0  0  0  0  0  0  0
  -29.0694  -18.1555   22.5558 C   0  0  0  0  0  0  0  0  0  0  0  0
  -31.5779  -14.0827   23.4153 C   0  0  0  0  0  0  0  0  0  0  0  0
  -21.0968  -30.8898   20.5114 C   0  0  1  0  0  0  0  0  0  0  0  0
  -20.2264  -28.8730   17.4220 C   0  0  2  0  0  0  0  0  0  0  0  0
  -20.0049  -31.7004   21.2652 C   0  0  0  0  0  0  0  0  0  0  0  0
  -27.9570  -23.1145   26.4117 N   0  0  0  0  0  0  0  0  0  0  0  0
  -25.9673  -11.7954   20.4274 N   0  0  0  0  0  0  0  0  0  0  0  0
  -29.2875  -19.4759   24.5552 N   0  0  0  0  0  0  0  0  0  0  0  0
  -29.3906  -18.2759   23.9590 N   0  0  0  0  0  0  0  0  0  0  0  0
  -26.1223  -13.1227   20.2842 N   0  0  0  0  0  0  0  0  0  0  0  0
  -23.5288  -31.1480   20.8885 N   0  0  0  0  0  0  0  0  0  0  0  0
  -29.9334  -13.3796   20.1504 N   0  0  0  0  0  0  0  0  0  0  0  0
  -24.9562  -15.1821   20.3832 N   0  0  0  0  0  0  0  0  0  0  0  0
  -21.7700  -12.1327   21.3561 N   0  0  0  0  0  0  0  0  0  0  0  0
  -25.3656  -33.9128   22.1971 N   0  0  0  0  0  0  0  0  0  0  0  0
  -20.6918  -30.4293   19.1876 N   0  0  0  0  0  0  0  0  0  0  0  0
  -30.6451  -13.6826   22.3854 N   0  0  0  0  0  0  0  0  0  0  0  0
  -20.9364  -27.7100   16.8183 N   0  3  0  0  0  0  0  0  0  0  0  0
  -22.1788  -14.3703   21.0643 O   0  0  0  0  0  0  0  0  0  0  0  0
  -24.3329  -32.0970   23.2262 O   0  0  0  0  0  0  0  0  0  0  0  0
  -22.3307  -32.7303   19.6650 O   0  0  0  0  0  0  0  0  0  0  0  0
  -21.0202  -28.1699   19.5929 O   0  0  0  0  0  0  0  0  0  0  0  0
  -32.0204  -14.2617   20.6447 O   0  0  0  0  0  0  0  0  0  0  0  0
  -22.4724   -6.6139   21.6465 O   0  0  0  0  0  0  0  0  0  0  0  0
  -26.2594  -26.2750   23.5059 O   0  0  0  0  0  0  0  0  0  1  0  0
  -17.6149   -5.4681   19.3021 F   0  0  0  0  0  0  0  0  0  0  0  0
  -22.2162   -4.5126   19.8684 F   0  0  0  0  0  0  0  0  0  0  0  0
  1  2  1  0  0  0  0
  1  5  2  0  0  0  0
  2  6  2  0  0  0  0
  3  8  2  0  0  0  0
  3 18  1  0  0  0  0
  4  9  1  0  0  0  0
  4 18  2  0  0  0  0
  5 20  1  0  0  0  0
  6 22  1  0  0  0  0
  7 10  2  0  0  0  0
  7 21  1  0  0  0  0
  8 26  1  0  0  0  0
  9 26  2  0  0  0  0
 10 27  1  0  0  0  0
 11 12  2  0  0  0  0
 11 28  1  0  0  0  0
 12 29  1  0  0  0  0
 13 23  1  0  0  0  0
 13 27  2  0  0  0  0
 14 24  2  0  0  0  0
 14 32  1  0  0  0  0
 15 29  2  0  0  0  0
 15 30  1  0  0  0  0
 16 33  1  0  0  0  0
 16 34  2  0  0  0  0
 17 25  2  0  0  0  0
 17 72  1  0  0  0  0
 18 31  1  0  0  0  0
 19 31  1  0  0  0  0
 19 35  2  0  0  0  0
 19 36  1  0  0  0  0
 20 22  2  0  0  0  0
 20 41  1  0  0  0  0
 21 23  2  0  0  0  0
 21 42  1  0  0  0  0
 22 50  1  0  0  0  0
 23 43  1  0  0  0  0
 24 25  1  0  0  0  0
 24 53  1  0  0  0  0
 25 60  1  0  0  0  0
 26 90  1  0  0  0  0
 27 91  1  0  0  0  0
 28 30  2  0  0  0  0
 28 90  1  0  0  0  0
 29 92  1  0  0  0  0
 30 93  1  0  0  0  0
 31 73  2  0  0  0  0
 32 61  1  0  0  0  0
 32 72  2  0  0  0  0
 33 62  1  0  0  0  0
 33 74  2  0  0  0  0
 34 63  1  0  0  0  0
 34 75  1  0  0  0  0
 35 76  1  0  0  0  0
 35 79  1  0  0  0  0
 36 80  1  0  0  0  0
 36 85  2  0  0  0  0
 37 51  1  0  0  0  0
 37 81  1  0  0  0  0
 37 86  2  0  0  0  0
 38 69  1  0  0  0  0
 38 77  1  0  0  0  0
 38 87  2  0  0  0  0
 39 70  1  0  0  0  0
 39 82  1  0  0  0  0
 39 88  2  0  0  0  0
 40 78  1  0  0  0  0
 40 83  1  0  0  0  0
 40 89  2  0  0  0  0
 41 44  1  0  0  0  0
 42 51  1  0  0  0  0
 43 77  1  0  0  0  0
 44 46  1  0  0  0  0
 45 47  1  0  0  0  0
 45 48  1  0  0  0  0
 46 50  1  0  0  0  0
 47 52  1  0  0  0  0
 48 78  1  0  0  0  0
 49 52  1  0  0  0  0
 49 78  1  0  0  0  0
 50 81  1  0  0  0  0
 51 77  1  0  0  0  0
 52 76  1  0  0  0  0
 54 64  1  0  0  0  0
 55 70  1  0  0  0  0
 56 71  1  0  0  0  0
 57 71  1  0  0  0  0
 58 71  1  0  0  0  0
 59 84  1  0  0  0  0
 60 91  1  0  0  0  0
 61 65  1  0  0  0  0
 62 65  1  0  0  0  0
 63 66  1  0  0  0  0
 64 67  1  0  0  0  0
 66 68  1  0  0  0  0
 67 75  1  0  0  0  0
 68 83  1  0  0  0  0
 69 71  1  0  0  0  0
 69 82  1  0  0  0  0
 70 84  1  0  0  0  0
 73 76  1  0  0  0  0
 74 75  1  0  0  0  0
M  CHG  1  84   1
M  ISO  4  40 100  60 101  83 100  91 101
M  END
> <Batch ID>
0037

> <Smiles>
CCCn1nc(CCCc2cc(C)c([101CH2:1][101O:1]c3ccc4c(c3)CN(C(=O)C(NC(=O)C(C)NC)C(C)(C)C)C(C(=O)NC3CCCc5ccccc53)C4)cn2)cc1CCC[100NH:0][100C:0](=O)N1CCCC(n2nc(-c3ccc(Oc4ccc(F)cc4F)cc3)c(C(N)=O)c2N)C1

> <Shape>
0.234

> <Color>
0.166

> <Negative vol penalty>
0.000

$$$$

  -OEChem-04052316593D

 85 93  0     1  0  0  0  0  0999 V2000
  -27.5143  -18.0112   17.7556 C   0  0  0  0  0  0  0  0  0  0  0  0
  -26.6142  -19.0705   17.8099 C   0  0  0  0  0  0  0  0  0  0  0  0
  -23.1495  -13.8947   19.9855 C   0  0  0  0  0  0  0  0  0  0  0  0
  -24.7120  -14.9453   21.4995 C   0  0  0  0  0  0  0  0  0  0  0  0
  -28.7001  -18.0673   18.4868 C   0  0  0  0  0  0  0  0  0  0  0  0
  -26.8989  -20.1863   18.5963 C   0  0  0  0  0  0  0  0  0  0  0  0
  -25.4387  -26.0102   17.3897 C   0  0  0  0  0  0  0  0  0  0  0  0
  -24.0368  -12.8335   19.8061 C   0  0  0  0  0  0  0  0  0  0  0  0
  -25.5993  -13.8841   21.3202 C   0  0  0  0  0  0  0  0  0  0  0  0
  -24.3964  -26.8260   17.8277 C   0  0  0  0  0  0  0  0  0  0  0  0
  -27.8382  -12.8742   18.9968 C   0  0  0  0  0  0  0  0  0  0  0  0
  -29.1826  -13.1818   18.7877 C   0  0  0  0  0  0  0  0  0  0  0  0
  -25.8333  -27.7316   19.5408 C   0  0  0  0  0  0  0  0  0  0  0  0
  -29.7759  -11.9366   20.7713 C   0  0  0  0  0  0  0  0  0  0  0  0
  -23.4871  -14.9506   20.8322 C   0  0  0  0  0  0  0  0  0  0  0  0
  -21.5582  -16.1541   21.9891 C   0  0  0  0  0  0  0  0  0  0  0  0
  -29.0039  -19.1885   19.2750 C   0  0  0  0  0  0  0  0  0  0  0  0
  -26.6849  -26.0412   18.0319 C   0  0  0  0  0  0  0  0  0  0  0  0
  -28.0892  -20.2570   19.3398 C   0  0  0  0  0  0  0  0  0  0  0  0
  -26.8905  -26.9171   19.1073 C   0  0  0  0  0  0  0  0  0  0  0  0
  -18.7661  -26.3574   23.0588 C   0  0  0  0  0  0  0  0  0  0  0  0
  -25.2617  -12.8282   20.4735 C   0  0  0  0  0  0  0  0  0  0  0  0
  -24.5927  -27.6848   18.9052 C   0  0  0  0  0  0  0  0  0  0  0  0
  -27.4627  -12.0979   20.0931 C   0  0  0  0  0  0  0  0  0  0  0  0
  -30.1514  -12.7130   19.6750 C   0  0  0  0  0  0  0  0  0  0  0  0
  -28.4315  -11.6291   20.9804 C   0  0  0  0  0  0  0  0  0  0  0  0
  -22.5712  -16.0474   21.0174 C   0  0  0  0  0  0  0  0  0  0  0  0
  -18.2824  -27.1040   21.9677 C   0  0  0  0  0  0  0  0  0  0  0  0
  -19.6987  -27.1755   23.6482 C   0  0  0  0  0  0  0  0  0  0  0  0
  -20.9756  -17.3738   21.7453 C   0  0  0  0  0  0  0  0  0  0  0  0
  -21.1778  -15.2330   23.0200 C   0  0  0  0  0  0  0  0  0  0  0  0
  -28.4400  -23.9241   19.6261 C   0  0  0  0  0  0  0  0  0  0  0  0
  -30.6337  -26.3136   19.6101 C   0  0  0  0  0  0  0  0  0  0  0  0
  -31.2722  -29.6590   19.3916 C   0  0  0  0  0  0  0  0  0  0  0  0
  -21.3841  -22.8180   20.5883 C   0  0  0  0  0  0  0  0  0  0  0  0
  -30.2762  -19.1833   20.0850 C   0  0  0  0  0  0  0  0  0  0  0  0
  -27.8071  -25.1743   17.5303 C   0  0  0  0  0  0  0  0  0  0  0  0
  -28.2156  -27.0029   19.8181 C   0  0  0  0  0  0  0  0  0  0  0  0
  -30.6766  -20.5637   20.5991 C   0  0  0  0  0  0  0  0  0  0  0  0
  -21.4992  -20.5515   17.8448 C   0  0  0  0  0  0  0  0  0  0  0  0
  -29.4733  -21.2762   21.2082 C   0  0  0  0  0  0  0  0  0  0  0  0
  -21.7110  -19.1882   18.5053 C   0  0  0  0  0  0  0  0  0  0  0  0
  -22.2532  -21.6578   18.5795 C   0  0  0  0  0  0  0  0  0  0  0  0
  -22.1853  -20.3797   20.6856 C   0  0  0  0  0  0  0  0  0  0  0  0
  -28.3740  -21.4952   20.1618 C   0  0  1  0  0  0  0  0  0  0  0  0
  -28.8786  -24.9145   18.5847 C   0  0  1  0  0  0  0  0  0  0  0  0
  -21.3995  -19.2411   20.0131 C   0  0  2  0  0  0  0  0  0  0  0  0
  -17.2591  -26.7078   20.9843 C   0  0  0  0  0  0  0  0  0  0  0  0
  -20.5597  -26.9781   24.8296 C   0  0  0  0  0  0  0  0  0  0  0  0
  -33.1593  -31.3122   19.4498 C   0  0  0  0  0  0  0  0  0  0  0  0
  -30.8058  -26.0066   22.6410 C   0  0  0  0  0  0  0  0  0  0  0  0
  -31.9315  -28.2410   22.7335 C   0  0  0  0  0  0  0  0  0  0  0  0
  -33.0043  -26.3560   21.5013 C   0  0  0  0  0  0  0  0  0  0  0  0
  -30.6950  -30.5902   16.6423 C   0  0  0  0  0  0  0  0  0  0  0  0
  -18.3652  -25.0029   23.4769 C   0  0  0  0  0  0  0  0  0  0  0  0
  -18.9995  -23.8493   22.6605 C   0  0  0  0  0  0  0  0  0  0  0  0
  -22.0186  -29.3776   22.6427 C   0  0  0  0  0  0  0  0  0  0  0  0
  -22.1109  -29.0000   21.1634 C   0  0  0  0  0  0  0  0  0  0  0  0
  -20.5747  -29.5363   23.1325 C   0  0  0  0  0  0  0  0  0  0  0  0
  -20.5266  -23.8389   22.6815 C   0  0  0  0  0  0  0  0  0  0  0  0
  -23.5568  -28.8168   20.7222 C   0  0  0  0  0  0  0  0  0  1  0  0
  -30.9587  -27.4726   20.5212 C   0  0  1  0  0  0  0  0  0  0  0  0
  -32.2794  -30.4405   18.5674 C   0  0  2  0  0  0  0  0  0  0  0  0
  -31.6494  -27.0163   21.8373 C   0  0  0  0  0  0  0  0  0  0  0  0
  -22.6313  -17.1142   20.2159 N   0  0  0  0  0  0  0  0  0  0  0  0
  -18.8599  -28.3042   21.8677 N   0  0  0  0  0  0  0  0  0  0  0  0
  -19.7159  -28.3181   22.9035 N   0  0  0  0  0  0  0  0  0  0  0  0
  -21.6486  -17.9027   20.6835 N   0  0  0  0  0  0  0  0  0  0  0  0
  -29.2799  -26.1308   19.2944 N   0  0  0  0  0  0  0  0  0  0  0  0
  -21.9120  -21.6548   20.0041 N   0  0  0  0  0  0  0  0  0  0  0  0
  -19.9584  -18.0346   22.3377 N   0  0  0  0  0  0  0  0  0  0  0  0
  -21.8814  -14.0259   23.1304 N   0  0  0  0  0  0  0  0  0  0  0  0
  -28.7104  -22.6086   19.3007 N   0  0  0  0  0  0  0  0  0  0  0  0
  -31.7467  -28.4083   19.7262 N   0  0  0  0  0  0  0  0  0  0  0  0
  -21.0822  -22.7278   21.9416 N   0  0  0  0  0  0  0  0  0  0  0  0
  -31.5779  -31.3190   17.5891 N   0  3  0  0  0  0  0  0  0  0  0  0
  -20.2311  -15.4662   23.8092 O   0  0  0  0  0  0  0  0  0  0  0  0
  -27.8978  -24.3239   20.6497 O   0  0  0  0  0  0  0  0  0  0  0  0
  -31.5481  -25.6012   19.1882 O   0  0  0  0  0  0  0  0  0  0  0  0
  -30.1758  -30.1140   19.7101 O   0  0  0  0  0  0  0  0  0  0  0  0
  -21.1909  -23.8581   19.9498 O   0  0  0  0  0  0  0  0  0  0  0  0
  -26.1277  -11.7927   20.2989 O   0  0  0  0  0  0  0  0  0  0  0  0
  -23.5769  -28.4816   19.3353 O   0  0  0  0  0  0  0  0  0  1  0  0
  -31.4425  -13.0072   19.4732 F   0  0  0  0  0  0  0  0  0  0  0  0
  -28.0769  -10.8819   22.0348 F   0  0  0  0  0  0  0  0  0  0  0  0
  1  2  1  0  0  0  0
  1  5  2  0  0  0  0
  2  6  2  0  0  0  0
  3  8  2  0  0  0  0
  3 15  1  0  0  0  0
  4  9  1  0  0  0  0
  4 15  2  0  0  0  0
  5 17  1  0  0  0  0
  6 19  1  0  0  0  0
  7 10  2  0  0  0  0
  7 18  1  0  0  0  0
  8 22  1  0  0  0  0
  9 22  2  0  0  0  0
 10 23  1  0  0  0  0
 11 12  2  0  0  0  0
 11 24  1  0  0  0  0
 12 25  1  0  0  0  0
 13 20  1  0  0  0  0
 13 23  2  0  0  0  0
 14 25  2  0  0  0  0
 14 26  1  0  0  0  0
 15 27  1  0  0  0  0
 16 27  1  0  0  0  0
 16 30  2  0  0  0  0
 16 31  1  0  0  0  0
 17 19  2  0  0  0  0
 17 36  1  0  0  0  0
 18 20  2  0  0  0  0
 18 37  1  0  0  0  0
 19 45  1  0  0  0  0
 20 38  1  0  0  0  0
 21 28  1  0  0  0  0
 21 29  2  0  0  0  0
 21 55  1  0  0  0  0
 22 82  1  0  0  0  0
 23 83  1  0  0  0  0
 24 26  2  0  0  0  0
 24 82  1  0  0  0  0
 25 84  1  0  0  0  0
 26 85  1  0  0  0  0
 27 65  2  0  0  0  0
 28 48  1  0  0  0  0
 28 66  2  0  0  0  0
 29 49  1  0  0  0  0
 29 67  1  0  0  0  0
 30 68  1  0  0  0  0
 30 71  1  0  0  0  0
 31 72  1  0  0  0  0
 31 77  2  0  0  0  0
 32 46  1  0  0  0  0
 32 73  1  0  0  0  0
 32 78  2  0  0  0  0
 33 62  1  0  0  0  0
 33 69  1  0  0  0  0
 33 79  2  0  0  0  0
 34 63  1  0  0  0  0
 34 74  1  0  0  0  0
 34 80  2  0  0  0  0
 35 70  1  0  0  0  0
 35 75  1  0  0  0  0
 35 81  2  0  0  0  0
 36 39  1  0  0  0  0
 37 46  1  0  0  0  0
 38 69  1  0  0  0  0
 39 41  1  0  0  0  0
 40 42  1  0  0  0  0
 40 43  1  0  0  0  0
 41 45  1  0  0  0  0
 42 47  1  0  0  0  0
 43 70  1  0  0  0  0
 44 47  1  0  0  0  0
 44 70  1  0  0  0  0
 45 73  1  0  0  0  0
 46 69  1  0  0  0  0
 47 68  1  0  0  0  0
 50 63  1  0  0  0  0
 51 64  1  0  0  0  0
 52 64  1  0  0  0  0
 53 64  1  0  0  0  0
 54 76  1  0  0  0  0
 55 56  1  0  0  0  0
 56 60  1  0  0  0  0
 57 58  1  0  0  0  0
 57 59  1  0  0  0  0
 58 61  1  0  0  0  0
 59 67  1  0  0  0  0
 60 75  1  0  0  0  0
 61 83  1  0  0  0  0
 62 64  1  0  0  0  0
 62 74  1  0  0  0  0
 63 76  1  0  0  0  0
 65 68  1  0  0  0  0
 66 67  1  0  0  0  0
M  CHG  1  76   1
M  ISO  4  35 100  61 101  75 100  83 101
M  END
> <Batch ID>
0037

> <Smiles>
CNC(C)C(=O)NC(C(=O)N1Cc2cc([101O:1][101CH2:1]CCCn3nc(C)c(CCC[100NH:0][100C:0](=O)N4CCCC(n5nc(-c6ccc(Oc7ccc(F)cc7F)cc6)c(C(N)=O)c5N)C4)c3C)ccc2CC1C(=O)NC1CCCc2ccccc21)C(C)(C)C

> <Shape>
0.251

> <Color>
0.061

> <Negative vol penalty>
0.000

$$$$

  -OEChem-04052316593D

 81 89  0     1  0  0  0  0  0999 V2000
  -18.9943  -22.0307   23.1625 C   0  0  0  0  0  0  0  0  0  0  0  0
  -20.2809  -21.8854   23.6712 C   0  0  0  0  0  0  0  0  0  0  0  0
  -24.7362  -14.7134   21.3631 C   0  0  0  0  0  0  0  0  0  0  0  0
  -27.1226  -14.4141   21.5919 C   0  0  0  0  0  0  0  0  0  0  0  0
  -18.7618  -22.8962   22.0944 C   0  0  0  0  0  0  0  0  0  0  0  0
  -21.3362  -22.6047   23.1112 C   0  0  0  0  0  0  0  0  0  0  0  0
  -27.5251  -25.7388   24.8977 C   0  0  0  0  0  0  0  0  0  0  0  0
  -32.5785  -22.7632   22.9670 C   0  0  0  0  0  0  0  0  0  0  0  0
  -24.6138  -13.3974   20.9174 C   0  0  0  0  0  0  0  0  0  0  0  0
  -27.0002  -13.0980   21.1463 C   0  0  0  0  0  0  0  0  0  0  0  0
  -28.8677  -25.7630   24.5229 C   0  0  0  0  0  0  0  0  0  0  0  0
  -24.5487  -10.3026   22.2780 C   0  0  0  0  0  0  0  0  0  0  0  0
  -23.5179   -9.5302   22.8132 C   0  0  0  0  0  0  0  0  0  0  0  0
  -32.5878  -24.1423   22.7901 C   0  0  0  0  0  0  0  0  0  0  0  0
  -28.3340  -27.2886   22.7320 C   0  0  0  0  0  0  0  0  0  0  0  0
  -22.5943   -9.2302   20.6009 C   0  0  0  0  0  0  0  0  0  0  0  0
  -25.9906  -15.2218   21.7003 C   0  0  0  0  0  0  0  0  0  0  0  0
  -26.0478  -17.0392   23.4896 C   0  0  0  0  0  0  0  0  0  0  0  0
  -19.8130  -23.6337   21.5273 C   0  0  0  0  0  0  0  0  0  0  0  0
  -26.5735  -26.4821   24.1846 C   0  0  0  0  0  0  0  0  0  0  0  0
  -21.1178  -23.4799   22.0337 C   0  0  0  0  0  0  0  0  0  0  0  0
  -26.9803  -27.2741   23.1014 C   0  0  0  0  0  0  0  0  0  0  0  0
  -32.1874  -21.9362   21.9199 C   0  0  0  0  0  0  0  0  0  0  0  0
  -25.7458  -12.5897   20.8091 C   0  0  0  0  0  0  0  0  0  0  0  0
  -29.2719  -26.5357   23.4381 C   0  0  0  0  0  0  0  0  0  0  0  0
  -24.6023  -10.5389   20.9043 C   0  0  0  0  0  0  0  0  0  0  0  0
  -22.5407   -8.9940   21.9747 C   0  0  0  0  0  0  0  0  0  0  0  0
  -23.6251  -10.0027   20.0658 C   0  0  0  0  0  0  0  0  0  0  0  0
  -26.1177  -16.5814   22.1601 C   0  0  0  0  0  0  0  0  0  0  0  0
  -32.2002  -24.6406   21.5567 C   0  0  0  0  0  0  0  0  0  0  0  0
  -31.8175  -22.5332   20.7255 C   0  0  0  0  0  0  0  0  0  0  0  0
  -26.2281  -18.3975   23.3949 C   0  0  0  0  0  0  0  0  0  0  0  0
  -25.8387  -16.3025   24.7017 C   0  0  0  0  0  0  0  0  0  0  0  0
  -23.9834  -25.7682   22.4859 C   0  0  0  0  0  0  0  0  0  0  0  0
  -23.6399  -28.9921   22.3814 C   0  0  0  0  0  0  0  0  0  0  0  0
  -25.1032  -32.0693   22.5717 C   0  0  0  0  0  0  0  0  0  0  0  0
  -28.9268  -21.8796   19.3399 C   0  0  0  0  0  0  0  0  0  0  0  0
  -19.5211  -24.5212   20.3433 C   0  0  0  0  0  0  0  0  0  0  0  0
  -25.1333  -26.4662   24.6182 C   0  0  0  0  0  0  0  0  0  0  0  0
  -26.0012  -28.1061   22.3155 C   0  0  0  0  0  0  0  0  0  0  0  0
  -20.6290  -25.5296   20.0501 C   0  0  0  0  0  0  0  0  0  0  0  0
  -25.5345  -22.0674   20.4047 C   0  0  0  0  0  0  0  0  0  0  0  0
  -21.9934  -24.8483   20.0826 C   0  0  0  0  0  0  0  0  0  0  0  0
  -25.2930  -20.7241   21.0953 C   0  0  0  0  0  0  0  0  0  0  0  0
  -26.4543  -21.9225   19.1943 C   0  0  0  0  0  0  0  0  0  0  0  0
  -27.4978  -19.9095   20.1602 C   0  0  0  0  0  0  0  0  0  0  0  0
  -22.2842  -24.2616   21.4693 C   0  0  1  0  0  0  0  0  0  0  0  0
  -24.1692  -26.8586   23.5028 C   0  0  1  0  0  0  0  0  0  0  0  0
  -26.6209  -20.0136   21.4198 C   0  0  2  0  0  0  0  0  0  0  0  0
  -32.1741  -20.4581   22.1038 C   0  0  0  0  0  0  0  0  0  0  0  0
  -24.5723  -34.5166   22.4089 C   0  0  0  0  0  0  0  0  0  0  0  0
  -23.4652  -28.7497   19.3449 C   0  0  0  0  0  0  0  0  0  0  0  0
  -23.8925  -31.2119   19.1934 C   0  0  0  0  0  0  0  0  0  0  0  0
  -21.8521  -30.3712   20.3565 C   0  0  0  0  0  0  0  0  0  0  0  0
  -25.9876  -32.5647   25.3523 C   0  0  0  0  0  0  0  0  0  0  0  0
  -32.1999  -26.1327   21.3289 C   0  0  0  0  0  0  0  0  0  0  0  0
  -31.3914  -21.6946   19.5654 C   0  0  0  0  0  0  0  0  0  0  0  0
  -30.8636  -26.7737   21.6871 C   0  0  0  0  0  0  0  0  0  1  0  0
  -24.1110  -30.0880   21.4562 C   0  0  1  0  0  0  0  0  0  0  0  0
  -24.7188  -33.3219   23.3384 C   0  0  2  0  0  0  0  0  0  0  0  0
  -23.3486  -30.0881   20.1012 C   0  0  0  0  0  0  0  0  0  0  0  0
  -26.3260  -17.5688   21.2851 N   0  0  0  0  0  0  0  0  0  0  0  0
  -31.8139  -23.8688   20.5161 N   0  0  0  0  0  0  0  0  0  0  0  0
  -26.3884  -18.6605   22.0662 N   0  0  0  0  0  0  0  0  0  0  0  0
  -24.6034  -28.0524   22.7744 N   0  0  0  0  0  0  0  0  0  0  0  0
  -27.6963  -21.2426   19.5700 N   0  0  0  0  0  0  0  0  0  0  0  0
  -26.2635  -19.3806   24.3194 N   0  0  0  0  0  0  0  0  0  0  0  0
  -25.6717  -14.9134   24.6189 N   0  0  0  0  0  0  0  0  0  0  0  0
  -22.6846  -25.3069   22.3865 N   0  0  0  0  0  0  0  0  0  0  0  0
  -23.9956  -31.3337   22.2069 N   0  0  0  0  0  0  0  0  0  0  0  0
  -30.0547  -21.1686   19.7312 N   0  0  0  0  0  0  0  0  0  0  0  0
  -25.7568  -33.6442   24.3580 N   0  3  0  0  0  0  0  0  0  0  0  0
  -25.7848  -16.8616   25.8233 O   0  0  0  0  0  0  0  0  0  0  0  0
  -24.9467  -25.3755   21.8382 O   0  0  0  0  0  0  0  0  0  0  0  0
  -22.4621  -28.9747   22.7478 O   0  0  0  0  0  0  0  0  0  0  0  0
  -26.2693  -31.7750   22.3184 O   0  0  0  0  0  0  0  0  0  0  0  0
  -29.0136  -23.0014   18.8288 O   0  0  0  0  0  0  0  0  0  0  0  0
  -25.6268  -11.3053   20.3745 O   0  0  0  0  0  0  0  0  0  0  0  0
  -30.5817  -26.5606   23.0697 O   0  0  0  0  0  0  0  0  0  1  0  0
  -21.5517   -8.2510   22.4885 F   0  0  0  0  0  0  0  0  0  0  0  0
  -23.6719  -10.2252   18.7452 F   0  0  0  0  0  0  0  0  0  0  0  0
  1  2  1  0  0  0  0
  1  5  2  0  0  0  0
  2  6  2  0  0  0  0
  3  9  2  0  0  0  0
  3 17  1  0  0  0  0
  4 10  1  0  0  0  0
  4 17  2  0  0  0  0
  5 19  1  0  0  0  0
  6 21  1  0  0  0  0
  7 11  2  0  0  0  0
  7 20  1  0  0  0  0
  8 14  2  0  0  0  0
  8 23  1  0  0  0  0
  9 24  1  0  0  0  0
 10 24  2  0  0  0  0
 11 25  1  0  0  0  0
 12 13  2  0  0  0  0
 12 26  1  0  0  0  0
 13 27  1  0  0  0  0
 14 30  1  0  0  0  0
 15 22  1  0  0  0  0
 15 25  2  0  0  0  0
 16 27  2  0  0  0  0
 16 28  1  0  0  0  0
 17 29  1  0  0  0  0
 18 29  1  0  0  0  0
 18 32  2  0  0  0  0
 18 33  1  0  0  0  0
 19 21  2  0  0  0  0
 19 38  1  0  0  0  0
 20 22  2  0  0  0  0
 20 39  1  0  0  0  0
 21 47  1  0  0  0  0
 22 40  1  0  0  0  0
 23 31  2  0  0  0  0
 23 50  1  0  0  0  0
 24 78  1  0  0  0  0
 25 79  1  0  0  0  0
 26 28  2  0  0  0  0
 26 78  1  0  0  0  0
 27 80  1  0  0  0  0
 28 81  1  0  0  0  0
 29 62  2  0  0  0  0
 30 56  1  0  0  0  0
 30 63  2  0  0  0  0
 31 57  1  0  0  0  0
 31 63  1  0  0  0  0
 32 64  1  0  0  0  0
 32 67  1  0  0  0  0
 33 68  1  0  0  0  0
 33 73  2  0  0  0  0
 34 48  1  0  0  0  0
 34 69  1  0  0  0  0
 34 74  2  0  0  0  0
 35 59  1  0  0  0  0
 35 65  1  0  0  0  0
 35 75  2  0  0  0  0
 36 60  1  0  0  0  0
 36 70  1  0  0  0  0
 36 76  2  0  0  0  0
 37 66  1  0  0  0  0
 37 71  1  0  0  0  0
 37 77  2  0  0  0  0
 38 41  1  0  0  0  0
 39 48  1  0  0  0  0
 40 65  1  0  0  0  0
 41 43  1  0  0  0  0
 42 44  1  0  0  0  0
 42 45  1  0  0  0  0
 43 47  1  0  0  0  0
 44 49  1  0  0  0  0
 45 66  1  0  0  0  0
 46 49  1  0  0  0  0
 46 66  1  0  0  0  0
 47 69  1  0  0  0  0
 48 65  1  0  0  0  0
 49 64  1  0  0  0  0
 51 60  1  0  0  0  0
 52 61  1  0  0  0  0
 53 61  1  0  0  0  0
 54 61  1  0  0  0  0
 55 72  1  0  0  0  0
 56 58  1  0  0  0  0
 57 71  1  0  0  0  0
 58 79  1  0  0  0  0
 59 61  1  0  0  0  0
 59 70  1  0  0  0  0
 60 72  1  0  0  0  0
 62 64  1  0  0  0  0
M  CHG  1  72   1
M  ISO  4  37 100  58 101  71 100  79 101
M  END
> <Batch ID>
0037

> <Smiles>
CNC(C)C(=O)NC(C(=O)N1Cc2cc([101O:1][101CH2:1]Cc3ccc(C)c(C[100NH:0][100C:0](=O)N4CCCC(n5nc(-c6ccc(Oc7ccc(F)cc7F)cc6)c(C(N)=O)c5N)C4)n3)ccc2CC1C(=O)NC1CCCc2ccccc21)C(C)(C)C

> <Shape>
0.180

> <Color>
0.071

> <Negative vol penalty>
0.000

$$$$

  -OEChem-04052316593D

 87 95  0     1  0  0  0  0  0999 V2000
  -22.1471  -10.7323   20.3380 C   0  0  0  0  0  0  0  0  0  0  0  0
  -21.8141  -11.9079   21.0032 C   0  0  0  0  0  0  0  0  0  0  0  0
  -28.9862  -27.9093   18.4723 C   0  0  0  0  0  0  0  0  0  0  0  0
  -27.8403  -26.1727   19.7004 C   0  0  0  0  0  0  0  0  0  0  0  0
  -23.4713  -10.4888   19.9758 C   0  0  0  0  0  0  0  0  0  0  0  0
  -22.8054  -12.8402   21.3075 C   0  0  0  0  0  0  0  0  0  0  0  0
  -22.2237  -18.9361   21.3955 C   0  0  0  0  0  0  0  0  0  0  0  0
  -30.1890  -27.2180   18.6169 C   0  0  0  0  0  0  0  0  0  0  0  0
  -29.0431  -25.4814   19.8450 C   0  0  0  0  0  0  0  0  0  0  0  0
  -22.0177  -19.8438   22.4334 C   0  0  0  0  0  0  0  0  0  0  0  0
  -33.6263  -26.0861   18.9740 C   0  0  0  0  0  0  0  0  0  0  0  0
  -34.7557  -26.8168   19.3427 C   0  0  0  0  0  0  0  0  0  0  0  0
  -24.3930  -20.2509   22.5408 C   0  0  0  0  0  0  0  0  0  0  0  0
  -21.2455  -23.2781   26.1863 C   0  0  0  0  0  0  0  0  0  0  0  0
  -22.6364  -25.6932   26.0612 C   0  0  0  0  0  0  0  0  0  0  0  0
  -33.6552  -27.4863   21.3867 C   0  0  0  0  0  0  0  0  0  0  0  0
  -27.8118  -27.3867   19.0141 C   0  0  0  0  0  0  0  0  0  0  0  0
  -25.6366  -27.9752   17.8184 C   0  0  0  0  0  0  0  0  0  0  0  0
  -24.4777  -11.4230   20.2673 C   0  0  0  0  0  0  0  0  0  0  0  0
  -23.5191  -18.6704   20.9289 C   0  0  0  0  0  0  0  0  0  0  0  0
  -24.1444  -12.6084   20.9501 C   0  0  0  0  0  0  0  0  0  0  0  0
  -24.6125  -19.3413   21.4951 C   0  0  0  0  0  0  0  0  0  0  0  0
  -20.5464  -24.4815   26.0936 C   0  0  0  0  0  0  0  0  0  0  0  0
  -22.6401  -23.2822   26.2165 C   0  0  0  0  0  0  0  0  0  0  0  0
  -21.2419  -25.6891   26.0310 C   0  0  0  0  0  0  0  0  0  0  0  0
  -23.3355  -24.4897   26.1539 C   0  0  0  0  0  0  0  0  0  0  0  0
  -30.2175  -26.0040   19.3032 C   0  0  0  0  0  0  0  0  0  0  0  0
  -23.1026  -20.4992   23.0082 C   0  0  0  0  0  0  0  0  0  0  0  0
  -32.5112  -26.0556   19.8115 C   0  0  0  0  0  0  0  0  0  0  0  0
  -34.7702  -27.5169   20.5491 C   0  0  0  0  0  0  0  0  0  0  0  0
  -32.5257  -26.7556   21.0179 C   0  0  0  0  0  0  0  0  0  0  0  0
  -26.5691  -28.1007   18.8655 C   0  0  0  0  0  0  0  0  0  0  0  0
  -24.6375  -28.8610   18.1404 C   0  0  0  0  0  0  0  0  0  0  0  0
  -25.6704  -27.1332   16.6584 C   0  0  0  0  0  0  0  0  0  0  0  0
  -25.3714  -16.0904   20.7993 C   0  0  0  0  0  0  0  0  0  0  0  0
  -27.3353  -18.0625   19.1330 C   0  0  0  0  0  0  0  0  0  0  0  0
  -28.3241  -21.2533   18.4347 C   0  0  0  0  0  0  0  0  0  0  0  0
  -21.8367  -30.9548   22.7541 C   0  0  0  0  0  0  0  0  0  0  0  0
  -25.9025  -11.0941   19.8978 C   0  0  0  0  0  0  0  0  0  0  0  0
  -23.7220  -17.7085   19.7905 C   0  0  0  0  0  0  0  0  0  0  0  0
  -26.0212  -19.1065   21.0168 C   0  0  0  0  0  0  0  0  0  0  0  0
  -26.8334  -12.3037   19.9246 C   0  0  0  0  0  0  0  0  0  0  0  0
  -24.3198  -32.8493   21.0447 C   0  0  0  0  0  0  0  0  0  0  0  0
  -26.6200  -13.1134   21.1996 C   0  0  0  0  0  0  0  0  0  0  0  0
  -25.0662  -31.8063   20.2111 C   0  0  0  0  0  0  0  0  0  0  0  0
  -23.8936  -32.2890   22.3998 C   0  0  0  0  0  0  0  0  0  0  0  0
  -23.8631  -29.9940   21.5022 C   0  0  0  0  0  0  0  0  0  0  0  0
  -25.1875  -13.6553   21.2758 C   0  0  1  0  0  0  0  0  0  0  0  0
  -25.1329  -17.1302   19.7411 C   0  0  1  0  0  0  0  0  0  0  0  0
  -24.2642  -30.4953   20.1043 C   0  0  2  0  0  0  0  0  0  0  0  0
  -19.0536  -24.4524   26.0622 C   0  0  0  0  0  0  0  0  0  0  0  0
  -25.3748  -25.2709   27.4128 C   0  0  0  0  0  0  0  0  0  0  0  0
  -25.4312  -25.1096   24.8977 C   0  0  0  0  0  0  0  0  0  0  0  0
  -29.9784  -22.5469   17.0609 C   0  0  0  0  0  0  0  0  0  0  0  0
  -29.5483  -17.3109   21.0945 C   0  0  0  0  0  0  0  0  0  0  0  0
  -30.8449  -19.2931   20.2833 C   0  0  0  0  0  0  0  0  0  0  0  0
  -30.2741  -17.4474   18.7052 C   0  0  0  0  0  0  0  0  0  0  0  0
  -26.1766  -22.6420   16.9453 C   0  0  0  0  0  0  0  0  0  0  0  0
  -20.5149  -26.9898   25.9309 C   0  0  0  0  0  0  0  0  0  0  0  0
  -23.3748  -21.9676   26.3180 C   0  0  0  0  0  0  0  0  0  0  0  0
  -20.5381  -27.5584   24.5042 C   0  0  0  0  0  0  0  0  0  0  0  0
  -19.8214  -28.9094   24.4227 C   0  0  0  0  0  0  0  0  0  0  0  0
  -19.8428  -29.5007   23.0169 C   0  0  0  0  0  0  0  0  0  0  0  0
  -23.9536  -21.5220   24.9795 C   0  0  0  0  0  0  0  0  0  1  0  0
  -24.8284  -24.5189   26.1854 C   0  0  0  0  0  0  0  0  0  0  0  0
  -28.4517  -19.0129   19.4925 C   0  0  1  0  0  0  0  0  0  0  0  0
  -28.5746  -21.9647   17.1173 C   0  0  2  0  0  0  0  0  0  0  0  0
  -29.7535  -18.2693   19.9044 C   0  0  0  0  0  0  0  0  0  0  0  0
  -26.1959  -28.9958   19.7839 N   0  0  0  0  0  0  0  0  0  0  0  0
  -25.0177  -29.4408   19.3149 N   0  0  0  0  0  0  0  0  0  0  0  0
  -26.1687  -18.1521   19.9056 N   0  0  0  0  0  0  0  0  0  0  0  0
  -23.1359  -31.0471   22.2282 N   0  0  0  0  0  0  0  0  0  0  0  0
  -23.4797  -29.1927   17.5306 N   0  0  0  0  0  0  0  0  0  0  0  0
  -26.7706  -26.2832   16.4816 N   0  0  0  0  0  0  0  0  0  0  0  0
  -25.0362  -14.8069   20.4125 N   0  0  0  0  0  0  0  0  0  0  0  0
  -28.6101  -19.9070   18.3506 N   0  0  0  0  0  0  0  0  0  0  0  0
  -21.1863  -29.7455   22.5416 N   0  0  0  0  0  0  0  0  0  0  0  0
  -27.5976  -23.0751   16.9343 N   0  3  0  0  0  0  0  0  0  0  0  0
  -24.7599  -27.1464   15.7956 O   0  0  0  0  0  0  0  0  0  0  0  0
  -25.8272  -16.4275   21.8857 O   0  0  0  0  0  0  0  0  0  0  0  0
  -27.4898  -17.2746   18.1966 O   0  0  0  0  0  0  0  0  0  0  0  0
  -27.9191  -21.8344   19.4391 O   0  0  0  0  0  0  0  0  0  0  0  0
  -21.2944  -31.8834   23.3628 O   0  0  0  0  0  0  0  0  0  0  0  0
  -31.3909  -25.3290   19.4443 O   0  0  0  0  0  0  0  0  0  0  0  0
  -22.9044  -21.3852   24.0219 O   0  0  0  0  0  0  0  0  0  1  0  0
  -35.8555  -28.2172   20.9038 F   0  0  0  0  0  0  0  0  0  0  0  0
  -31.4580  -26.7291   21.8272 F   0  0  0  0  0  0  0  0  0  0  0  0
  1  2  1  0  0  0  0
  1  5  2  0  0  0  0
  2  6  2  0  0  0  0
  3  8  2  0  0  0  0
  3 17  1  0  0  0  0
  4  9  1  0  0  0  0
  4 17  2  0  0  0  0
  5 19  1  0  0  0  0
  6 21  1  0  0  0  0
  7 10  2  0  0  0  0
  7 20  1  0  0  0  0
  8 27  1  0  0  0  0
  9 27  2  0  0  0  0
 10 28  1  0  0  0  0
 11 12  2  0  0  0  0
 11 29  1  0  0  0  0
 12 30  1  0  0  0  0
 13 22  1  0  0  0  0
 13 28  2  0  0  0  0
 14 23  2  0  0  0  0
 14 24  1  0  0  0  0
 15 25  2  0  0  0  0
 15 26  1  0  0  0  0
 16 30  2  0  0  0  0
 16 31  1  0  0  0  0
 17 32  1  0  0  0  0
 18 32  1  0  0  0  0
 18 33  2  0  0  0  0
 18 34  1  0  0  0  0
 19 21  2  0  0  0  0
 19 39  1  0  0  0  0
 20 22  2  0  0  0  0
 20 40  1  0  0  0  0
 21 48  1  0  0  0  0
 22 41  1  0  0  0  0
 23 25  1  0  0  0  0
 23 51  1  0  0  0  0
 24 26  2  0  0  0  0
 24 60  1  0  0  0  0
 25 59  1  0  0  0  0
 26 65  1  0  0  0  0
 27 84  1  0  0  0  0
 28 85  1  0  0  0  0
 29 31  2  0  0  0  0
 29 84  1  0  0  0  0
 30 86  1  0  0  0  0
 31 87  1  0  0  0  0
 32 69  2  0  0  0  0
 33 70  1  0  0  0  0
 33 73  1  0  0  0  0
 34 74  1  0  0  0  0
 34 79  2  0  0  0  0
 35 49  1  0  0  0  0
 35 75  1  0  0  0  0
 35 80  2  0  0  0  0
 36 66  1  0  0  0  0
 36 71  1  0  0  0  0
 36 81  2  0  0  0  0
 37 67  1  0  0  0  0
 37 76  1  0  0  0  0
 37 82  2  0  0  0  0
 38 72  1  0  0  0  0
 38 77  1  0  0  0  0
 38 83  2  0  0  0  0
 39 42  1  0  0  0  0
 40 49  1  0  0  0  0
 41 71  1  0  0  0  0
 42 44  1  0  0  0  0
 43 45  1  0  0  0  0
 43 46  1  0  0  0  0
 44 48  1  0  0  0  0
 45 50  1  0  0  0  0
 46 72  1  0  0  0  0
 47 50  1  0  0  0  0
 47 72  1  0  0  0  0
 48 75  1  0  0  0  0
 49 71  1  0  0  0  0
 50 70  1  0  0  0  0
 52 65  1  0  0  0  0
 53 65  1  0  0  0  0
 54 67  1  0  0  0  0
 55 68  1  0  0  0  0
 56 68  1  0  0  0  0
 57 68  1  0  0  0  0
 58 78  1  0  0  0  0
 59 61  1  0  0  0  0
 60 64  1  0  0  0  0
 61 62  1  0  0  0  0
 62 63  1  0  0  0  0
 63 77  1  0  0  0  0
 64 85  1  0  0  0  0
 66 68  1  0  0  0  0
 66 76  1  0  0  0  0
 67 78  1  0  0  0  0
 69 70  1  0  0  0  0
M  CHG  1  78   1
M  ISO  4  38 100  64 101  77 100  85 101
M  END
> <Batch ID>
0037

> <Smiles>
CNC(C)C(=O)NC(C(=O)N1Cc2cc([101O:1][101CH2:1]Cc3cc(C)c(CCCC[100NH:0][100C:0](=O)N4CCCC(n5nc(-c6ccc(Oc7ccc(F)cc7F)cc6)c(C(N)=O)c5N)C4)cc3C(C)C)ccc2CC1C(=O)NC1CCCc2ccccc21)C(C)(C)C

> <Shape>
0.207

> <Color>
0.066

> <Negative vol penalty>
0.000

$$$$

  -OEChem-04052316593D

 84 92  0     1  0  0  0  0  0999 V2000
  -29.4407  -23.9371   17.5088 C   0  0  0  0  0  0  0  0  0  0  0  0
  -28.2276  -24.0308   18.1832 C   0  0  0  0  0  0  0  0  0  0  0  0
  -28.1052  -14.5822   19.6263 C   0  0  0  0  0  0  0  0  0  0  0  0
  -25.9324  -15.4390   20.2445 C   0  0  0  0  0  0  0  0  0  0  0  0
  -30.5405  -24.6721   17.9494 C   0  0  0  0  0  0  0  0  0  0  0  0
  -28.1138  -24.8588   19.2994 C   0  0  0  0  0  0  0  0  0  0  0  0
  -23.8783  -27.6340   19.2360 C   0  0  0  0  0  0  0  0  0  0  0  0
  -27.6612  -13.2822   19.8677 C   0  0  0  0  0  0  0  0  0  0  0  0
  -25.4884  -14.1388   20.4858 C   0  0  0  0  0  0  0  0  0  0  0  0
  -22.6931  -26.9953   19.5980 C   0  0  0  0  0  0  0  0  0  0  0  0
  -25.7697  -11.8244   22.9343 C   0  0  0  0  0  0  0  0  0  0  0  0
  -25.0413  -11.5945   24.1014 C   0  0  0  0  0  0  0  0  0  0  0  0
  -22.8527  -27.9616   21.8025 C   0  0  0  0  0  0  0  0  0  0  0  0
  -24.2153  -21.8368   22.4369 C   0  0  0  0  0  0  0  0  0  0  0  0
  -21.8243  -21.9411   22.7669 C   0  0  0  0  0  0  0  0  0  0  0  0
  -23.1012  -23.9785   22.5316 C   0  0  0  0  0  0  0  0  0  0  0  0
  -23.1627  -10.8432   22.7810 C   0  0  0  0  0  0  0  0  0  0  0  0
  -27.2408  -15.6607   19.8148 C   0  0  0  0  0  0  0  0  0  0  0  0
  -27.6331  -17.7136   18.3522 C   0  0  0  0  0  0  0  0  0  0  0  0
  -30.4375  -25.5170   19.0658 C   0  0  0  0  0  0  0  0  0  0  0  0
  -24.5665  -28.4339   20.1595 C   0  0  0  0  0  0  0  0  0  0  0  0
  -29.2136  -25.6048   19.7562 C   0  0  0  0  0  0  0  0  0  0  0  0
  -24.0451  -28.6115   21.4489 C   0  0  0  0  0  0  0  0  0  0  0  0
  -22.9927  -21.1925   22.6254 C   0  0  0  0  0  0  0  0  0  0  0  0
  -24.2696  -23.2299   22.3901 C   0  0  0  0  0  0  0  0  0  0  0  0
  -21.8785  -23.3342   22.7200 C   0  0  0  0  0  0  0  0  0  0  0  0
  -26.3529  -13.0604   20.2974 C   0  0  0  0  0  0  0  0  0  0  0  0
  -22.1816  -27.1567   20.8823 C   0  0  0  0  0  0  0  0  0  0  0  0
  -25.1946  -11.5638   21.6905 C   0  0  0  0  0  0  0  0  0  0  0  0
  -23.7378  -11.1039   24.0248 C   0  0  0  0  0  0  0  0  0  0  0  0
  -23.8911  -11.0732   21.6139 C   0  0  0  0  0  0  0  0  0  0  0  0
  -27.6989  -17.0040   19.5662 C   0  0  0  0  0  0  0  0  0  0  0  0
  -28.1945  -18.9343   18.6371 C   0  0  0  0  0  0  0  0  0  0  0  0
  -27.1111  -17.3058   17.0806 C   0  0  0  0  0  0  0  0  0  0  0  0
  -27.4434  -28.3345   21.5077 C   0  0  0  0  0  0  0  0  0  0  0  0
  -26.5503  -31.2118   22.7101 C   0  0  0  0  0  0  0  0  0  0  0  0
  -24.0188  -33.3257   23.5875 C   0  0  0  0  0  0  0  0  0  0  0  0
  -28.8108  -22.0544   23.7102 C   0  0  0  0  0  0  0  0  0  0  0  0
  -31.6667  -26.2556   19.5330 C   0  0  0  0  0  0  0  0  0  0  0  0
  -25.8297  -29.1376   19.7451 C   0  0  0  0  0  0  0  0  0  0  0  0
  -24.7350  -29.4760   22.4712 C   0  0  0  0  0  0  0  0  0  0  0  0
  -31.3608  -27.3970   20.4994 C   0  0  0  0  0  0  0  0  0  0  0  0
  -31.4096  -20.9961   21.5186 C   0  0  0  0  0  0  0  0  0  0  0  0
  -30.3807  -26.9382   21.5744 C   0  0  0  0  0  0  0  0  0  0  0  0
  -30.7474  -19.9170   20.6602 C   0  0  0  0  0  0  0  0  0  0  0  0
  -30.9030  -20.9613   22.9588 C   0  0  0  0  0  0  0  0  0  0  0  0
  -28.7742  -19.9469   22.2427 C   0  0  0  0  0  0  0  0  0  0  0  0
  -29.0439  -26.5111   20.9562 C   0  0  1  0  0  0  0  0  0  0  0  0
  -26.7184  -29.5151   20.9262 C   0  0  1  0  0  0  0  0  0  0  0  0
  -29.2119  -19.9784   20.7683 C   0  0  2  0  0  0  0  0  0  0  0  0
  -22.9352  -19.7029   22.6750 C   0  0  0  0  0  0  0  0  0  0  0  0
  -23.5996  -35.5928   24.5784 C   0  0  0  0  0  0  0  0  0  0  0  0
  -27.2252  -30.1235   25.4796 C   0  0  0  0  0  0  0  0  0  0  0  0
  -25.9221  -32.0201   26.4660 C   0  0  0  0  0  0  0  0  0  0  0  0
  -27.9453  -32.4854   25.0830 C   0  0  0  0  0  0  0  0  0  0  0  0
  -22.6344  -34.2649   21.1460 C   0  0  0  0  0  0  0  0  0  0  0  0
  -25.5767  -23.9194   22.1882 C   0  0  0  0  0  0  0  0  0  0  0  0
  -20.6153  -24.1431   22.8730 C   0  0  0  0  0  0  0  0  0  0  0  0
  -26.3294  -24.2540   23.4911 C   0  0  0  0  0  0  0  0  0  0  0  0
  -19.9062  -24.4344   21.5487 C   0  0  0  0  0  0  0  0  0  0  0  0
  -26.6323  -23.0428   24.3707 C   0  0  0  0  0  0  0  0  0  0  0  0
  -20.7320  -25.2930   20.5977 C   0  0  0  0  0  0  0  0  0  1  0  0
  -25.8329  -31.6740   23.9554 C   0  0  1  0  0  0  0  0  0  0  0  0
  -23.7889  -34.7976   23.2959 C   0  0  2  0  0  0  0  0  0  0  0  0
  -26.7192  -31.5578   25.2276 C   0  0  0  0  0  0  0  0  0  0  0  0
  -28.2582  -17.7146   20.5492 N   0  0  0  0  0  0  0  0  0  0  0  0
  -28.5490  -18.8835   19.9531 N   0  0  0  0  0  0  0  0  0  0  0  0
  -25.9702  -30.1380   22.0201 N   0  0  0  0  0  0  0  0  0  0  0  0
  -29.4398  -21.0244   22.9915 N   0  0  0  0  0  0  0  0  0  0  0  0
  -28.4147  -20.0354   17.8878 N   0  0  0  0  0  0  0  0  0  0  0  0
  -26.5705  -16.0182   16.9621 N   0  0  0  0  0  0  0  0  0  0  0  0
  -28.2549  -27.6727   20.6061 N   0  0  0  0  0  0  0  0  0  0  0  0
  -25.3618  -33.0264   23.6769 N   0  0  0  0  0  0  0  0  0  0  0  0
  -27.4216  -22.0445   23.6842 N   0  0  0  0  0  0  0  0  0  0  0  0
  -22.5750  -34.9747   22.4497 N   0  3  0  0  0  0  0  0  0  0  0  0
  -27.1385  -18.0551   16.0749 O   0  0  0  0  0  0  0  0  0  0  0  0
  -27.2798  -28.0462   22.6875 O   0  0  0  0  0  0  0  0  0  0  0  0
  -27.5833  -31.7872   22.3586 O   0  0  0  0  0  0  0  0  0  0  0  0
  -23.0988  -32.5225   23.7260 O   0  0  0  0  0  0  0  0  0  0  0  0
  -29.4407  -22.9219   24.3247 O   0  0  0  0  0  0  0  0  0  0  0  0
  -25.9193  -11.7919   20.5327 O   0  0  0  0  0  0  0  0  0  0  0  0
  -21.0253  -26.5339   21.2384 O   0  0  0  0  0  0  0  0  0  1  0  0
  -23.0390  -10.8817   25.1457 F   0  0  0  0  0  0  0  0  0  0  0  0
  -23.3336  -10.8199   20.4219 F   0  0  0  0  0  0  0  0  0  0  0  0
  1  2  1  0  0  0  0
  1  5  2  0  0  0  0
  2  6  2  0  0  0  0
  3  8  2  0  0  0  0
  3 18  1  0  0  0  0
  4  9  1  0  0  0  0
  4 18  2  0  0  0  0
  5 20  1  0  0  0  0
  6 22  1  0  0  0  0
  7 10  2  0  0  0  0
  7 21  1  0  0  0  0
  8 27  1  0  0  0  0
  9 27  2  0  0  0  0
 10 28  1  0  0  0  0
 11 12  2  0  0  0  0
 11 29  1  0  0  0  0
 12 30  1  0  0  0  0
 13 23  1  0  0  0  0
 13 28  2  0  0  0  0
 14 24  1  0  0  0  0
 14 25  2  0  0  0  0
 15 24  2  0  0  0  0
 15 26  1  0  0  0  0
 16 25  1  0  0  0  0
 16 26  2  0  0  0  0
 17 30  2  0  0  0  0
 17 31  1  0  0  0  0
 18 32  1  0  0  0  0
 19 32  1  0  0  0  0
 19 33  2  0  0  0  0
 19 34  1  0  0  0  0
 20 22  2  0  0  0  0
 20 39  1  0  0  0  0
 21 23  2  0  0  0  0
 21 40  1  0  0  0  0
 22 48  1  0  0  0  0
 23 41  1  0  0  0  0
 24 51  1  0  0  0  0
 25 57  1  0  0  0  0
 26 58  1  0  0  0  0
 27 81  1  0  0  0  0
 28 82  1  0  0  0  0
 29 31  2  0  0  0  0
 29 81  1  0  0  0  0
 30 83  1  0  0  0  0
 31 84  1  0  0  0  0
 32 66  2  0  0  0  0
 33 67  1  0  0  0  0
 33 70  1  0  0  0  0
 34 71  1  0  0  0  0
 34 76  2  0  0  0  0
 35 49  1  0  0  0  0
 35 72  1  0  0  0  0
 35 77  2  0  0  0  0
 36 63  1  0  0  0  0
 36 68  1  0  0  0  0
 36 78  2  0  0  0  0
 37 64  1  0  0  0  0
 37 73  1  0  0  0  0
 37 79  2  0  0  0  0
 38 69  1  0  0  0  0
 38 74  1  0  0  0  0
 38 80  2  0  0  0  0
 39 42  1  0  0  0  0
 40 49  1  0  0  0  0
 41 68  1  0  0  0  0
 42 44  1  0  0  0  0
 43 45  1  0  0  0  0
 43 46  1  0  0  0  0
 44 48  1  0  0  0  0
 45 50  1  0  0  0  0
 46 69  1  0  0  0  0
 47 50  1  0  0  0  0
 47 69  1  0  0  0  0
 48 72  1  0  0  0  0
 49 68  1  0  0  0  0
 50 67  1  0  0  0  0
 52 64  1  0  0  0  0
 53 65  1  0  0  0  0
 54 65  1  0  0  0  0
 55 65  1  0  0  0  0
 56 75  1  0  0  0  0
 57 59  1  0  0  0  0
 58 60  1  0  0  0  0
 59 61  1  0  0  0  0
 60 62  1  0  0  0  0
 61 74  1  0  0  0  0
 62 82  1  0  0  0  0
 63 65  1  0  0  0  0
 63 73  1  0  0  0  0
 64 75  1  0  0  0  0
 66 67  1  0  0  0  0
M  CHG  1  75   1
M  ISO  4  38 100  62 101  74 100  82 101
M  END
> <Batch ID>
0037

> <Smiles>
CNC(C)C(=O)NC(C(=O)N1Cc2cc([101O:1][101CH2:1]CCc3cc(C)cc(CCC[100NH:0][100C:0](=O)N4CCCC(n5nc(-c6ccc(Oc7ccc(F)cc7F)cc6)c(C(N)=O)c5N)C4)c3)ccc2CC1C(=O)NC1CCCc2ccccc21)C(C)(C)C

> <Shape>
0.269

> <Color>
0.065

> <Negative vol penalty>
0.000

$$$$

  -OEChem-04052316593D

 84 92  0     1  0  0  0  0  0999 V2000
  -24.7550  -25.3027   23.3120 C   0  0  0  0  0  0  0  0  0  0  0  0
  -25.2106  -24.5456   22.2374 C   0  0  0  0  0  0  0  0  0  0  0  0
  -26.2136  -27.9870   18.9005 C   0  0  0  0  0  0  0  0  0  0  0  0
  -26.4366  -27.6875   21.2875 C   0  0  0  0  0  0  0  0  0  0  0  0
  -24.5601  -24.7008   24.5544 C   0  0  0  0  0  0  0  0  0  0  0  0
  -25.4727  -23.1863   22.4050 C   0  0  0  0  0  0  0  0  0  0  0  0
  -25.2304  -16.9738   18.8467 C   0  0  0  0  0  0  0  0  0  0  0  0
  -25.0969  -28.7970   19.1064 C   0  0  0  0  0  0  0  0  0  0  0  0
  -25.3198  -28.4976   21.4934 C   0  0  0  0  0  0  0  0  0  0  0  0
  -26.0367  -15.8808   18.5316 C   0  0  0  0  0  0  0  0  0  0  0  0
  -21.9569  -28.1963   21.3172 C   0  0  0  0  0  0  0  0  0  0  0  0
  -21.0008  -27.7608   22.2346 C   0  0  0  0  0  0  0  0  0  0  0  0
  -25.5880  -14.9315   20.7034 C   0  0  0  0  0  0  0  0  0  0  0  0
  -29.5873  -15.5459   20.7880 C   0  0  0  0  0  0  0  0  0  0  0  0
  -21.3545  -29.7560   23.5503 C   0  0  0  0  0  0  0  0  0  0  0  0
  -26.8834  -27.4322   19.9911 C   0  0  0  0  0  0  0  0  0  0  0  0
  -29.3818  -27.0036   19.7048 C   0  0  0  0  0  0  0  0  0  0  0  0
  -24.8107  -23.3314   24.7349 C   0  0  0  0  0  0  0  0  0  0  0  0
  -24.6046  -17.0591   20.0987 C   0  0  0  0  0  0  0  0  0  0  0  0
  -25.2823  -22.5658   23.6514 C   0  0  0  0  0  0  0  0  0  0  0  0
  -24.7723  -16.0252   21.0309 C   0  0  0  0  0  0  0  0  0  0  0  0
  -30.2072  -16.7634   21.0463 C   0  0  0  0  0  0  0  0  0  0  0  0
  -31.5716  -16.9045   20.8191 C   0  0  0  0  0  0  0  0  0  0  0  0
  -24.6500  -29.0523   20.4028 C   0  0  0  0  0  0  0  0  0  0  0  0
  -26.2179  -14.8609   19.4611 C   0  0  0  0  0  0  0  0  0  0  0  0
  -22.6120  -29.4116   21.5163 C   0  0  0  0  0  0  0  0  0  0  0  0
  -20.6996  -28.5407   23.3511 C   0  0  0  0  0  0  0  0  0  0  0  0
  -22.3108  -30.1915   22.6328 C   0  0  0  0  0  0  0  0  0  0  0  0
  -28.0367  -26.5949   19.7790 C   0  0  0  0  0  0  0  0  0  0  0  0
  -30.3701  -14.5087   20.3071 C   0  0  0  0  0  0  0  0  0  0  0  0
  -32.2657  -15.8064   20.3370 C   0  0  0  0  0  0  0  0  0  0  0  0
  -30.0827  -25.8412   19.4944 C   0  0  0  0  0  0  0  0  0  0  0  0
  -29.9472  -28.3164   19.8162 C   0  0  0  0  0  0  0  0  0  0  0  0
  -24.7550  -19.0789   22.5485 C   0  0  0  0  0  0  0  0  0  0  0  0
  -22.3176  -17.2671   23.6882 C   0  0  0  0  0  0  0  0  0  0  0  0
  -20.6907  -14.2671   23.6857 C   0  0  0  0  0  0  0  0  0  0  0  0
  -28.8874  -20.2244   20.8649 C   0  0  0  0  0  0  0  0  0  0  0  0
  -24.6304  -22.7352   26.1085 C   0  0  0  0  0  0  0  0  0  0  0  0
  -23.7166  -18.2317   20.4131 C   0  0  0  0  0  0  0  0  0  0  0  0
  -24.1062  -16.0594   22.3814 C   0  0  0  0  0  0  0  0  0  0  0  0
  -24.5737  -21.2098   26.1078 C   0  0  0  0  0  0  0  0  0  0  0  0
  -29.6227  -21.4898   17.5550 C   0  0  0  0  0  0  0  0  0  0  0  0
  -25.6938  -20.6344   25.2469 C   0  0  0  0  0  0  0  0  0  0  0  0
  -29.4236  -22.9936   17.7531 C   0  0  0  0  0  0  0  0  0  0  0  0
  -28.6016  -20.6868   18.3555 C   0  0  0  0  0  0  0  0  0  0  0  0
  -28.3831  -22.4968   20.0138 C   0  0  0  0  0  0  0  0  0  0  0  0
  -25.5540  -21.0833   23.7874 C   0  0  1  0  0  0  0  0  0  0  0  0
  -23.5415  -18.4640   21.9107 C   0  0  1  0  0  0  0  0  0  0  0  0
  -29.3994  -23.3635   19.2480 C   0  0  2  0  0  0  0  0  0  0  0  0
  -32.2631  -18.1994   21.0848 C   0  0  0  0  0  0  0  0  0  0  0  0
  -34.4472  -14.5708   20.3121 C   0  0  0  0  0  0  0  0  0  0  0  0
  -18.7551  -13.0750   24.7485 C   0  0  0  0  0  0  0  0  0  0  0  0
  -23.9448  -16.9091   26.2443 C   0  0  0  0  0  0  0  0  0  0  0  0
  -22.4453  -14.9973   26.8483 C   0  0  0  0  0  0  0  0  0  0  0  0
  -21.5007  -17.2936   26.6088 C   0  0  0  0  0  0  0  0  0  0  0  0
  -19.3455  -13.8829   21.0777 C   0  0  0  0  0  0  0  0  0  0  0  0
  -29.3890  -17.8982   21.5677 C   0  0  0  0  0  0  0  0  0  0  0  0
  -29.7318  -13.1743   20.0144 C   0  0  0  0  0  0  0  0  0  0  0  0
  -33.7330  -15.8973   20.0720 C   0  0  0  0  0  0  0  0  0  0  0  0
  -29.2099  -13.0422   18.5820 C   0  0  0  0  0  0  0  0  0  0  0  0
  -28.0879  -14.0209   18.2555 C   0  0  0  0  0  0  0  0  0  1  0  0
  -22.2164  -16.0260   24.5417 C   0  0  1  0  0  0  0  0  0  0  0  0
  -19.2172  -13.9204   23.5719 C   0  0  2  0  0  0  0  0  0  0  0  0
  -22.5410  -16.3065   26.0362 C   0  0  0  0  0  0  0  0  0  0  0  0
  -27.8894  -25.2760   19.6278 N   0  0  0  0  0  0  0  0  0  0  0  0
  -31.6981  -14.6079   20.0742 N   0  0  0  0  0  0  0  0  0  0  0  0
  -29.1510  -24.8459   19.4564 N   0  0  0  0  0  0  0  0  0  0  0  0
  -23.2527  -17.2299   22.6441 N   0  0  0  0  0  0  0  0  0  0  0  0
  -28.6426  -21.0735   19.7729 N   0  0  0  0  0  0  0  0  0  0  0  0
  -31.3988  -25.5837   19.3399 N   0  0  0  0  0  0  0  0  0  0  0  0
  -29.0842  -29.3995   20.0319 N   0  0  0  0  0  0  0  0  0  0  0  0
  -24.5248  -20.3163   23.1190 N   0  0  0  0  0  0  0  0  0  0  0  0
  -20.8831  -15.4803   24.3121 N   0  0  0  0  0  0  0  0  0  0  0  0
  -29.1168  -18.8903   20.5516 N   0  0  0  0  0  0  0  0  0  0  0  0
  -18.9595  -13.1596   22.3166 N   0  3  0  0  0  0  0  0  0  0  0  0
  -31.1796  -28.5250   19.7107 O   0  0  0  0  0  0  0  0  0  0  0  0
  -25.8210  -18.4748   22.5261 O   0  0  0  0  0  0  0  0  0  0  0  0
  -21.5886  -18.2313   23.9341 O   0  0  0  0  0  0  0  0  0  0  0  0
  -21.5821  -13.5332   23.2646 O   0  0  0  0  0  0  0  0  0  0  0  0
  -28.9056  -20.6267   22.0333 O   0  0  0  0  0  0  0  0  0  0  0  0
  -23.5605  -29.8429   20.6041 O   0  0  0  0  0  0  0  0  0  0  0  0
  -27.0049  -13.7933   19.1564 O   0  0  0  0  0  0  0  0  0  1  0  0
  -19.7802  -28.1231   24.2313 F   0  0  0  0  0  0  0  0  0  0  0  0
  -22.9359  -31.3605   22.8289 F   0  0  0  0  0  0  0  0  0  0  0  0
  1  2  1  0  0  0  0
  1  5  2  0  0  0  0
  2  6  2  0  0  0  0
  3  8  2  0  0  0  0
  3 16  1  0  0  0  0
  4  9  1  0  0  0  0
  4 16  2  0  0  0  0
  5 18  1  0  0  0  0
  6 20  1  0  0  0  0
  7 10  2  0  0  0  0
  7 19  1  0  0  0  0
  8 24  1  0  0  0  0
  9 24  2  0  0  0  0
 10 25  1  0  0  0  0
 11 12  2  0  0  0  0
 11 26  1  0  0  0  0
 12 27  1  0  0  0  0
 13 21  1  0  0  0  0
 13 25  2  0  0  0  0
 14 22  2  0  0  0  0
 14 30  1  0  0  0  0
 15 27  2  0  0  0  0
 15 28  1  0  0  0  0
 16 29  1  0  0  0  0
 17 29  1  0  0  0  0
 17 32  2  0  0  0  0
 17 33  1  0  0  0  0
 18 20  2  0  0  0  0
 18 38  1  0  0  0  0
 19 21  2  0  0  0  0
 19 39  1  0  0  0  0
 20 47  1  0  0  0  0
 21 40  1  0  0  0  0
 22 23  1  0  0  0  0
 22 57  1  0  0  0  0
 23 31  2  0  0  0  0
 23 50  1  0  0  0  0
 24 81  1  0  0  0  0
 25 82  1  0  0  0  0
 26 28  2  0  0  0  0
 26 81  1  0  0  0  0
 27 83  1  0  0  0  0
 28 84  1  0  0  0  0
 29 65  2  0  0  0  0
 30 58  1  0  0  0  0
 30 66  2  0  0  0  0
 31 59  1  0  0  0  0
 31 66  1  0  0  0  0
 32 67  1  0  0  0  0
 32 70  1  0  0  0  0
 33 71  1  0  0  0  0
 33 76  2  0  0  0  0
 34 48  1  0  0  0  0
 34 72  1  0  0  0  0
 34 77  2  0  0  0  0
 35 62  1  0  0  0  0
 35 68  1  0  0  0  0
 35 78  2  0  0  0  0
 36 63  1  0  0  0  0
 36 73  1  0  0  0  0
 36 79  2  0  0  0  0
 37 69  1  0  0  0  0
 37 74  1  0  0  0  0
 37 80  2  0  0  0  0
 38 41  1  0  0  0  0
 39 48  1  0  0  0  0
 40 68  1  0  0  0  0
 41 43  1  0  0  0  0
 42 44  1  0  0  0  0
 42 45  1  0  0  0  0
 43 47  1  0  0  0  0
 44 49  1  0  0  0  0
 45 69  1  0  0  0  0
 46 49  1  0  0  0  0
 46 69  1  0  0  0  0
 47 72  1  0  0  0  0
 48 68  1  0  0  0  0
 49 67  1  0  0  0  0
 51 59  1  0  0  0  0
 52 63  1  0  0  0  0
 53 64  1  0  0  0  0
 54 64  1  0  0  0  0
 55 64  1  0  0  0  0
 56 75  1  0  0  0  0
 57 74  1  0  0  0  0
 58 60  1  0  0  0  0
 60 61  1  0  0  0  0
 61 82  1  0  0  0  0
 62 64  1  0  0  0  0
 62 73  1  0  0  0  0
 63 75  1  0  0  0  0
 65 67  1  0  0  0  0
M  CHG  1  75   1
M  ISO  4  37 100  61 101  74 100  82 101
M  END
> <Batch ID>
0037

> <Smiles>
CCc1nc(CC[101CH2:1][101O:1]c2ccc3c(c2)CN(C(=O)C(NC(=O)C(C)NC)C(C)(C)C)C(C(=O)NC2CCCc4ccccc42)C3)cc(C[100NH:0][100C:0](=O)N2CCCC(n3nc(-c4ccc(Oc5ccc(F)cc5F)cc4)c(C(N)=O)c3N)C2)c1C

> <Shape>
0.231

> <Color>
0.049

> <Negative vol penalty>
0.000

$$$$

  -OEChem-04052316593D

 90 98  0     1  0  0  0  0  0999 V2000
  -33.3868  -30.8066   12.5989 C   0  0  0  0  0  0  0  0  0  0  0  0
  -33.3758  -29.6224   13.3288 C   0  0  0  0  0  0  0  0  0  0  0  0
  -23.0002   -9.8983   19.9783 C   0  0  0  0  0  0  0  0  0  0  0  0
  -23.7335   -9.9393   22.2800 C   0  0  0  0  0  0  0  0  0  0  0  0
  -32.4202  -31.7820   12.8404 C   0  0  0  0  0  0  0  0  0  0  0  0
  -32.3989  -29.4133   14.3016 C   0  0  0  0  0  0  0  0  0  0  0  0
  -30.3930  -24.7690   14.0735 C   0  0  0  0  0  0  0  0  0  0  0  0
  -22.2353   -8.7622   20.2422 C   0  0  0  0  0  0  0  0  0  0  0  0
  -22.9685   -8.8031   22.5439 C   0  0  0  0  0  0  0  0  0  0  0  0
  -31.1429  -23.7244   14.6124 C   0  0  0  0  0  0  0  0  0  0  0  0
  -23.2131   -5.4665   22.0560 C   0  0  0  0  0  0  0  0  0  0  0  0
  -23.8038   -4.4463   22.8014 C   0  0  0  0  0  0  0  0  0  0  0  0
  -29.8020  -23.8034   16.6161 C   0  0  0  0  0  0  0  0  0  0  0  0
  -30.2453  -18.5371   15.8411 C   0  0  0  0  0  0  0  0  0  0  0  0
  -30.5395  -19.6625   17.9586 C   0  0  0  0  0  0  0  0  0  0  0  0
  -22.0857   -4.6806   24.4837 C   0  0  0  0  0  0  0  0  0  0  0  0
  -23.7494  -10.4869   20.9972 C   0  0  0  0  0  0  0  0  0  0  0  0
  -24.1326  -13.0035   20.8313 C   0  0  0  0  0  0  0  0  0  0  0  0
  -31.4252  -31.5807   13.8100 C   0  0  0  0  0  0  0  0  0  0  0  0
  -29.3472  -25.3469   14.8076 C   0  0  0  0  0  0  0  0  0  0  0  0
  -31.4190  -30.3874   14.5573 C   0  0  0  0  0  0  0  0  0  0  0  0
  -29.0387  -24.8535   16.0833 C   0  0  0  0  0  0  0  0  0  0  0  0
  -30.9982  -19.3629   16.6758 C   0  0  0  0  0  0  0  0  0  0  0  0
  -29.0335  -18.0109   16.2892 C   0  0  0  0  0  0  0  0  0  0  0  0
  -29.3278  -19.1363   18.4067 C   0  0  0  0  0  0  0  0  0  0  0  0
  -28.5749  -18.3106   17.5719 C   0  0  0  0  0  0  0  0  0  0  0  0
  -22.2194   -8.2146   21.5250 C   0  0  0  0  0  0  0  0  0  0  0  0
  -30.8493  -23.2434   15.8850 C   0  0  0  0  0  0  0  0  0  0  0  0
  -22.0586   -6.0939   22.5245 C   0  0  0  0  0  0  0  0  0  0  0  0
  -23.2402   -4.0533   24.0152 C   0  0  0  0  0  0  0  0  0  0  0  0
  -21.4950   -5.7009   23.7383 C   0  0  0  0  0  0  0  0  0  0  0  0
  -24.5402  -11.6602   20.7251 C   0  0  0  0  0  0  0  0  0  0  0  0
  -25.2407  -13.7283   20.4662 C   0  0  0  0  0  0  0  0  0  0  0  0
  -22.8657  -13.5474   21.2247 C   0  0  0  0  0  0  0  0  0  0  0  0
  -28.7514  -28.2491   15.9590 C   0  0  0  0  0  0  0  0  0  0  0  0
  -25.8929  -26.9281   16.7376 C   0  0  0  0  0  0  0  0  0  0  0  0
  -24.0955  -24.1107   17.4289 C   0  0  0  0  0  0  0  0  0  0  0  0
  -30.7373  -14.6650   20.6997 C   0  0  0  0  0  0  0  0  0  0  0  0
  -30.4298  -32.6838   14.0685 C   0  0  0  0  0  0  0  0  0  0  0  0
  -28.5307  -26.4551   14.2015 C   0  0  0  0  0  0  0  0  0  0  0  0
  -27.9131  -25.4259   16.9041 C   0  0  0  0  0  0  0  0  0  0  0  0
  -29.2046  -32.2265   14.8560 C   0  0  0  0  0  0  0  0  0  0  0  0
  -29.5898  -12.2514   18.3472 C   0  0  0  0  0  0  0  0  0  0  0  0
  -29.6251  -31.3812   16.0541 C   0  0  0  0  0  0  0  0  0  0  0  0
  -28.1429  -11.9889   18.7687 C   0  0  0  0  0  0  0  0  0  0  0  0
  -30.4963  -12.4818   19.5543 C   0  0  0  0  0  0  0  0  0  0  0  0
  -28.5905  -13.2701   20.9034 C   0  0  0  0  0  0  0  0  0  0  0  0
  -30.3607  -30.1132   15.6037 C   0  0  1  0  0  0  0  0  0  0  0  0
  -27.8194  -27.3122   15.2441 C   0  0  1  0  0  0  0  0  0  0  0  0
  -27.6274  -13.0873   19.7180 C   0  0  2  0  0  0  0  0  0  0  0  0
  -28.2468  -17.1283   15.3760 C   0  0  0  0  0  0  0  0  0  0  0  0
  -21.7900  -23.3517   18.0662 C   0  0  0  0  0  0  0  0  0  0  0  0
  -22.2139  -18.0106   18.1658 C   0  0  0  0  0  0  0  0  0  0  0  0
  -23.3767  -18.5686   16.0217 C   0  0  0  0  0  0  0  0  0  0  0  0
  -26.3703  -27.8853   19.5952 C   0  0  0  0  0  0  0  0  0  0  0  0
  -24.5680  -26.3187   20.3470 C   0  0  0  0  0  0  0  0  0  0  0  0
  -24.0260  -28.1781   18.7749 C   0  0  0  0  0  0  0  0  0  0  0  0
  -23.8213  -22.4930   14.9658 C   0  0  0  0  0  0  0  0  0  0  0  0
  -32.3090  -19.9328   16.1908 C   0  0  0  0  0  0  0  0  0  0  0  0
  -28.8589  -19.4723   19.7847 C   0  0  0  0  0  0  0  0  0  0  0  0
  -27.2759  -17.7459   18.0522 C   0  0  0  0  0  0  0  0  0  0  0  0
  -29.0851  -18.3172   20.7711 C   0  0  0  0  0  0  0  0  0  0  0  0
  -26.0334  -18.4816   17.5200 C   0  0  0  0  0  0  0  0  0  0  0  0
  -30.5716  -17.9754   20.9090 C   0  0  0  0  0  0  0  0  0  0  0  0
  -24.7238  -17.9214   18.0895 C   0  0  0  0  0  0  0  0  0  0  0  0
  -30.8230  -16.8386   21.8944 C   0  0  0  0  0  0  0  0  0  0  0  0
  -32.1347  -21.2801   15.4985 C   0  0  0  0  0  0  0  0  0  1  0  0
  -25.3467  -26.1917   17.9369 C   0  0  1  0  0  0  0  0  0  0  0  0
  -22.7512  -23.6231   16.9194 C   0  0  2  0  0  0  0  0  0  0  0  0
  -23.4689  -18.6313   17.5470 C   0  0  0  0  0  0  0  0  0  0  0  0
  -25.1003  -27.1338   19.1491 C   0  0  0  0  0  0  0  0  0  0  0  0
  -25.8081  -11.5362   20.3239 N   0  0  0  0  0  0  0  0  0  0  0  0
  -26.2068  -12.8109   20.1747 N   0  0  0  0  0  0  0  0  0  0  0  0
  -27.1478  -26.5124   16.2704 N   0  0  0  0  0  0  0  0  0  0  0  0
  -29.9519  -13.5363   20.4131 N   0  0  0  0  0  0  0  0  0  0  0  0
  -25.4730  -15.0546   20.3694 N   0  0  0  0  0  0  0  0  0  0  0  0
  -21.8356  -12.6610   21.5679 N   0  0  0  0  0  0  0  0  0  0  0  0
  -29.4179  -29.1255   15.1240 N   0  0  0  0  0  0  0  0  0  0  0  0
  -24.1552  -25.4874   17.4756 N   0  0  0  0  0  0  0  0  0  0  0  0
  -30.1433  -15.6198   21.5159 N   0  0  0  0  0  0  0  0  0  0  0  0
  -22.9186  -22.3648   16.1386 N   0  3  0  0  0  0  0  0  0  0  0  0
  -22.6484  -14.7824   21.2549 O   0  0  0  0  0  0  0  0  0  0  0  0
  -28.8569  -28.1829   17.1781 O   0  0  0  0  0  0  0  0  0  0  0  0
  -25.2274  -27.8340   16.2295 O   0  0  0  0  0  0  0  0  0  0  0  0
  -25.0006  -23.3465   17.7565 O   0  0  0  0  0  0  0  0  0  0  0  0
  -31.8811  -14.8136   20.2562 O   0  0  0  0  0  0  0  0  0  0  0  0
  -21.4729   -7.1061   21.7829 O   0  0  0  0  0  0  0  0  0  0  0  0
  -31.5800  -22.2243   16.4135 O   0  0  0  0  0  0  0  0  0  1  0  0
  -23.8067   -3.0724   24.7302 F   0  0  0  0  0  0  0  0  0  0  0  0
  -20.3853   -6.2990   24.1930 F   0  0  0  0  0  0  0  0  0  0  0  0
  1  2  1  0  0  0  0
  1  5  2  0  0  0  0
  2  6  2  0  0  0  0
  3  8  2  0  0  0  0
  3 17  1  0  0  0  0
  4  9  1  0  0  0  0
  4 17  2  0  0  0  0
  5 19  1  0  0  0  0
  6 21  1  0  0  0  0
  7 10  2  0  0  0  0
  7 20  1  0  0  0  0
  8 27  1  0  0  0  0
  9 27  2  0  0  0  0
 10 28  1  0  0  0  0
 11 12  2  0  0  0  0
 11 29  1  0  0  0  0
 12 30  1  0  0  0  0
 13 22  1  0  0  0  0
 13 28  2  0  0  0  0
 14 23  1  0  0  0  0
 14 24  2  0  0  0  0
 15 23  2  0  0  0  0
 15 25  1  0  0  0  0
 16 30  2  0  0  0  0
 16 31  1  0  0  0  0
 17 32  1  0  0  0  0
 18 32  1  0  0  0  0
 18 33  2  0  0  0  0
 18 34  1  0  0  0  0
 19 21  2  0  0  0  0
 19 39  1  0  0  0  0
 20 22  2  0  0  0  0
 20 40  1  0  0  0  0
 21 48  1  0  0  0  0
 22 41  1  0  0  0  0
 23 59  1  0  0  0  0
 24 26  1  0  0  0  0
 24 51  1  0  0  0  0
 25 26  2  0  0  0  0
 25 60  1  0  0  0  0
 26 61  1  0  0  0  0
 27 87  1  0  0  0  0
 28 88  1  0  0  0  0
 29 31  2  0  0  0  0
 29 87  1  0  0  0  0
 30 89  1  0  0  0  0
 31 90  1  0  0  0  0
 32 72  2  0  0  0  0
 33 73  1  0  0  0  0
 33 76  1  0  0  0  0
 34 77  1  0  0  0  0
 34 82  2  0  0  0  0
 35 49  1  0  0  0  0
 35 78  1  0  0  0  0
 35 83  2  0  0  0  0
 36 68  1  0  0  0  0
 36 74  1  0  0  0  0
 36 84  2  0  0  0  0
 37 69  1  0  0  0  0
 37 79  1  0  0  0  0
 37 85  2  0  0  0  0
 38 75  1  0  0  0  0
 38 80  1  0  0  0  0
 38 86  2  0  0  0  0
 39 42  1  0  0  0  0
 40 49  1  0  0  0  0
 41 74  1  0  0  0  0
 42 44  1  0  0  0  0
 43 45  1  0  0  0  0
 43 46  1  0  0  0  0
 44 48  1  0  0  0  0
 45 50  1  0  0  0  0
 46 75  1  0  0  0  0
 47 50  1  0  0  0  0
 47 75  1  0  0  0  0
 48 78  1  0  0  0  0
 49 74  1  0  0  0  0
 50 73  1  0  0  0  0
 52 69  1  0  0  0  0
 53 70  1  0  0  0  0
 54 70  1  0  0  0  0
 55 71  1  0  0  0  0
 56 71  1  0  0  0  0
 57 71  1  0  0  0  0
 58 81  1  0  0  0  0
 59 67  1  0  0  0  0
 60 62  1  0  0  0  0
 61 63  1  0  0  0  0
 62 64  1  0  0  0  0
 63 65  1  0  0  0  0
 64 66  1  0  0  0  0
 65 70  1  0  0  0  0
 66 80  1  0  0  0  0
 67 88  1  0  0  0  0
 68 71  1  0  0  0  0
 68 79  1  0  0  0  0
 69 81  1  0  0  0  0
 72 73  1  0  0  0  0
M  CHG  1  81   1
M  ISO  4  38 100  67 101  80 100  88 101
M  END
> <Batch ID>
0037

> <Smiles>
CNC(C)C(=O)NC(C(=O)N1Cc2cc([101O:1][101CH2:1]Cc3cc(C)c(CCCC(C)C)c(CCCC[100NH:0][100C:0](=O)N4CCCC(n5nc(-c6ccc(Oc7ccc(F)cc7F)cc6)c(C(N)=O)c5N)C4)c3)ccc2CC1C(=O)NC1CCCc2ccccc21)C(C)(C)C

> <Shape>
0.226

> <Color>
0.197

> <Negative vol penalty>
0.000

$$$$

  -OEChem-04052316593D

 82 90  0     1  0  0  0  0  0999 V2000
  -24.8243  -25.3432   23.3112 C   0  0  0  0  0  0  0  0  0  0  0  0
  -25.2743  -24.5826   22.2367 C   0  0  0  0  0  0  0  0  0  0  0  0
  -26.2196  -27.9894   18.8989 C   0  0  0  0  0  0  0  0  0  0  0  0
  -26.4396  -27.6897   21.2861 C   0  0  0  0  0  0  0  0  0  0  0  0
  -24.6271  -24.7433   24.5542 C   0  0  0  0  0  0  0  0  0  0  0  0
  -25.5284  -23.2219   22.4050 C   0  0  0  0  0  0  0  0  0  0  0  0
  -25.2453  -17.0084   18.8512 C   0  0  0  0  0  0  0  0  0  0  0  0
  -25.1018  -28.7983   19.1034 C   0  0  0  0  0  0  0  0  0  0  0  0
  -25.3218  -28.4986   21.4907 C   0  0  0  0  0  0  0  0  0  0  0  0
  -26.0447  -15.9105   18.5361 C   0  0  0  0  0  0  0  0  0  0  0  0
  -21.9595  -28.1940   21.3098 C   0  0  0  0  0  0  0  0  0  0  0  0
  -21.0025  -27.7574   22.2258 C   0  0  0  0  0  0  0  0  0  0  0  0
  -25.5926  -14.9653   20.7090 C   0  0  0  0  0  0  0  0  0  0  0  0
  -29.5954  -15.5556   20.7894 C   0  0  0  0  0  0  0  0  0  0  0  0
  -21.3525  -29.7527   23.5425 C   0  0  0  0  0  0  0  0  0  0  0  0
  -32.2749  -15.8001   20.3354 C   0  0  0  0  0  0  0  0  0  0  0  0
  -26.8885  -27.4351   19.9902 C   0  0  0  0  0  0  0  0  0  0  0  0
  -29.3877  -27.0089   19.7072 C   0  0  0  0  0  0  0  0  0  0  0  0
  -24.8697  -23.3725   24.7354 C   0  0  0  0  0  0  0  0  0  0  0  0
  -24.6213  -17.0984   20.1038 C   0  0  0  0  0  0  0  0  0  0  0  0
  -25.3355  -22.6034   23.6520 C   0  0  0  0  0  0  0  0  0  0  0  0
  -24.7837  -16.0642   21.0366 C   0  0  0  0  0  0  0  0  0  0  0  0
  -30.2228  -16.7695   21.0465 C   0  0  0  0  0  0  0  0  0  0  0  0
  -24.6529  -29.0529   20.3993 C   0  0  0  0  0  0  0  0  0  0  0  0
  -26.2208  -14.8901   19.4661 C   0  0  0  0  0  0  0  0  0  0  0  0
  -22.6131  -29.4099   21.5101 C   0  0  0  0  0  0  0  0  0  0  0  0
  -20.6990  -28.5367   23.3422 C   0  0  0  0  0  0  0  0  0  0  0  0
  -22.3096  -30.1893   22.6264 C   0  0  0  0  0  0  0  0  0  0  0  0
  -31.5879  -16.9024   20.8178 C   0  0  0  0  0  0  0  0  0  0  0  0
  -28.0429  -26.5989   19.7795 C   0  0  0  0  0  0  0  0  0  0  0  0
  -30.3716  -14.5137   20.3081 C   0  0  0  0  0  0  0  0  0  0  0  0
  -30.0900  -25.8473   19.4975 C   0  0  0  0  0  0  0  0  0  0  0  0
  -29.9516  -28.3223   19.8197 C   0  0  0  0  0  0  0  0  0  0  0  0
  -24.7863  -19.1190   22.5521 C   0  0  0  0  0  0  0  0  0  0  0  0
  -22.3393  -17.3226   23.6955 C   0  0  0  0  0  0  0  0  0  0  0  0
  -20.6945  -14.3324   23.6968 C   0  0  0  0  0  0  0  0  0  0  0  0
  -28.8983  -20.2291   20.8651 C   0  0  0  0  0  0  0  0  0  0  0  0
  -24.6872  -22.7784   26.1096 C   0  0  0  0  0  0  0  0  0  0  0  0
  -23.7406  -18.2765   20.4184 C   0  0  0  0  0  0  0  0  0  0  0  0
  -24.1193  -16.1033   22.3877 C   0  0  0  0  0  0  0  0  0  0  0  0
  -24.6214  -21.2533   26.1100 C   0  0  0  0  0  0  0  0  0  0  0  0
  -29.6368  -21.4959   17.5564 C   0  0  0  0  0  0  0  0  0  0  0  0
  -25.7372  -20.6706   25.2484 C   0  0  0  0  0  0  0  0  0  0  0  0
  -29.4360  -22.9995   17.7546 C   0  0  0  0  0  0  0  0  0  0  0  0
  -28.6154  -20.6918   18.3554 C   0  0  0  0  0  0  0  0  0  0  0  0
  -28.3930  -22.5012   20.0138 C   0  0  0  0  0  0  0  0  0  0  0  0
  -25.5986  -21.1194   23.7887 C   0  0  1  0  0  0  0  0  0  0  0  0
  -23.5684  -18.5109   21.9160 C   0  0  1  0  0  0  0  0  0  0  0  0
  -29.4094  -23.3689   19.2496 C   0  0  2  0  0  0  0  0  0  0  0  0
  -18.7528  -13.1526   24.7624 C   0  0  0  0  0  0  0  0  0  0  0  0
  -23.9669  -16.9566   26.2502 C   0  0  0  0  0  0  0  0  0  0  0  0
  -22.4566  -15.0543   26.8571 C   0  0  0  0  0  0  0  0  0  0  0  0
  -21.5255  -17.3560   26.6170 C   0  0  0  0  0  0  0  0  0  0  0  0
  -19.3442  -13.9544   21.0905 C   0  0  0  0  0  0  0  0  0  0  0  0
  -29.4012  -17.9031   21.5680 C   0  0  0  0  0  0  0  0  0  0  0  0
  -29.7251  -13.1829   20.0170 C   0  0  0  0  0  0  0  0  0  0  0  0
  -29.2009  -13.0529   18.5852 C   0  0  0  0  0  0  0  0  0  0  0  0
  -28.0845  -14.0382   18.2592 C   0  0  0  0  0  0  0  0  0  1  0  0
  -22.2315  -16.0827   24.5500 C   0  0  1  0  0  0  0  0  0  0  0  0
  -19.2188  -13.9944   23.5847 C   0  0  2  0  0  0  0  0  0  0  0  0
  -22.5594  -16.3623   26.0439 C   0  0  0  0  0  0  0  0  0  0  0  0
  -31.6999  -14.6049   20.0737 N   0  0  0  0  0  0  0  0  0  0  0  0
  -27.8971  -25.2800   19.6278 N   0  0  0  0  0  0  0  0  0  0  0  0
  -29.1593  -24.8511   19.4580 N   0  0  0  0  0  0  0  0  0  0  0  0
  -23.2731  -17.2790   22.6505 N   0  0  0  0  0  0  0  0  0  0  0  0
  -28.6541  -21.0781   19.7729 N   0  0  0  0  0  0  0  0  0  0  0  0
  -31.4066  -25.5912   19.3447 N   0  0  0  0  0  0  0  0  0  0  0  0
  -29.0873  -29.4044   20.0345 N   0  0  0  0  0  0  0  0  0  0  0  0
  -24.5641  -20.3581   23.1219 N   0  0  0  0  0  0  0  0  0  0  0  0
  -20.8947  -15.5448   24.3221 N   0  0  0  0  0  0  0  0  0  0  0  0
  -29.1294  -18.8952   20.5517 N   0  0  0  0  0  0  0  0  0  0  0  0
  -18.9553  -13.2343   22.3303 N   0  3  0  0  0  0  0  0  0  0  0  0
  -31.1840  -28.5322   19.7159 O   0  0  0  0  0  0  0  0  0  0  0  0
  -25.8486  -18.5085   22.5290 O   0  0  0  0  0  0  0  0  0  0  0  0
  -21.6163  -18.2913   23.9415 O   0  0  0  0  0  0  0  0  0  0  0  0
  -21.5810  -13.5928   23.2753 O   0  0  0  0  0  0  0  0  0  0  0  0
  -28.9145  -20.6310   22.0335 O   0  0  0  0  0  0  0  0  0  0  0  0
  -23.5624  -29.8424   20.5993 O   0  0  0  0  0  0  0  0  0  0  0  0
  -27.0010  -13.8177   19.1613 O   0  0  0  0  0  0  0  0  0  1  0  0
  -19.7789  -28.1181   24.2209 F   0  0  0  0  0  0  0  0  0  0  0  0
  -22.9333  -31.3588   22.8236 F   0  0  0  0  0  0  0  0  0  0  0  0
  -32.4298  -18.3720   21.1152 Cl  0  0  0  0  0  0  0  0  0  0  0  0
  1  2  1  0  0  0  0
  1  5  2  0  0  0  0
  2  6  2  0  0  0  0
  3  8  2  0  0  0  0
  3 17  1  0  0  0  0
  4  9  1  0  0  0  0
  4 17  2  0  0  0  0
  5 19  1  0  0  0  0
  6 21  1  0  0  0  0
  7 10  2  0  0  0  0
  7 20  1  0  0  0  0
  8 24  1  0  0  0  0
  9 24  2  0  0  0  0
 10 25  1  0  0  0  0
 11 12  2  0  0  0  0
 11 26  1  0  0  0  0
 12 27  1  0  0  0  0
 13 22  1  0  0  0  0
 13 25  2  0  0  0  0
 14 23  2  0  0  0  0
 14 31  1  0  0  0  0
 15 27  2  0  0  0  0
 15 28  1  0  0  0  0
 16 29  2  0  0  0  0
 16 62  1  0  0  0  0
 17 30  1  0  0  0  0
 18 30  1  0  0  0  0
 18 32  2  0  0  0  0
 18 33  1  0  0  0  0
 19 21  2  0  0  0  0
 19 38  1  0  0  0  0
 20 22  2  0  0  0  0
 20 39  1  0  0  0  0
 21 47  1  0  0  0  0
 22 40  1  0  0  0  0
 23 29  1  0  0  0  0
 23 55  1  0  0  0  0
 24 78  1  0  0  0  0
 25 79  1  0  0  0  0
 26 28  2  0  0  0  0
 26 78  1  0  0  0  0
 27 80  1  0  0  0  0
 28 81  1  0  0  0  0
 29 82  1  0  0  0  0
 30 63  2  0  0  0  0
 31 56  1  0  0  0  0
 31 62  2  0  0  0  0
 32 64  1  0  0  0  0
 32 67  1  0  0  0  0
 33 68  1  0  0  0  0
 33 73  2  0  0  0  0
 34 48  1  0  0  0  0
 34 69  1  0  0  0  0
 34 74  2  0  0  0  0
 35 59  1  0  0  0  0
 35 65  1  0  0  0  0
 35 75  2  0  0  0  0
 36 60  1  0  0  0  0
 36 70  1  0  0  0  0
 36 76  2  0  0  0  0
 37 66  1  0  0  0  0
 37 71  1  0  0  0  0
 37 77  2  0  0  0  0
 38 41  1  0  0  0  0
 39 48  1  0  0  0  0
 40 65  1  0  0  0  0
 41 43  1  0  0  0  0
 42 44  1  0  0  0  0
 42 45  1  0  0  0  0
 43 47  1  0  0  0  0
 44 49  1  0  0  0  0
 45 66  1  0  0  0  0
 46 49  1  0  0  0  0
 46 66  1  0  0  0  0
 47 69  1  0  0  0  0
 48 65  1  0  0  0  0
 49 64  1  0  0  0  0
 50 60  1  0  0  0  0
 51 61  1  0  0  0  0
 52 61  1  0  0  0  0
 53 61  1  0  0  0  0
 54 72  1  0  0  0  0
 55 71  1  0  0  0  0
 56 57  1  0  0  0  0
 57 58  1  0  0  0  0
 58 79  1  0  0  0  0
 59 61  1  0  0  0  0
 59 70  1  0  0  0  0
 60 72  1  0  0  0  0
 63 64  1  0  0  0  0
M  CHG  1  72   1
M  ISO  4  37 100  58 101  71 100  79 101
M  END
> <Batch ID>
0037

> <Smiles>
CNC(C)C(=O)NC(C(=O)N1Cc2cc([101O:1][101CH2:1]CCc3cc(C[100NH:0][100C:0](=O)N4CCCC(n5nc(-c6ccc(Oc7ccc(F)cc7F)cc6)c(C(N)=O)c5N)C4)c(Cl)cn3)ccc2CC1C(=O)NC1CCCc2ccccc21)C(C)(C)C

> <Shape>
0.231

> <Color>
0.050

> <Negative vol penalty>
0.000

$$$$

  -OEChem-04052316593D

 85 93  0     1  0  0  0  0  0999 V2000
  -22.7525  -32.8854   17.7178 C   0  0  0  0  0  0  0  0  0  0  0  0
  -22.6820  -31.5407   18.0674 C   0  0  0  0  0  0  0  0  0  0  0  0
  -22.9998   -9.8970   19.9812 C   0  0  0  0  0  0  0  0  0  0  0  0
  -23.7320   -9.9425   22.2831 C   0  0  0  0  0  0  0  0  0  0  0  0
  -22.7679  -33.2551   16.3736 C   0  0  0  0  0  0  0  0  0  0  0  0
  -22.6258  -30.5649   17.0728 C   0  0  0  0  0  0  0  0  0  0  0  0
  -25.7158  -26.6622   18.0033 C   0  0  0  0  0  0  0  0  0  0  0  0
  -22.2347   -8.7614   20.2470 C   0  0  0  0  0  0  0  0  0  0  0  0
  -22.9670   -8.8069   22.5489 C   0  0  0  0  0  0  0  0  0  0  0  0
  -25.2894  -25.7217   18.9400 C   0  0  0  0  0  0  0  0  0  0  0  0
  -23.2118   -5.4693   22.0678 C   0  0  0  0  0  0  0  0  0  0  0  0
  -23.8023   -4.4506   22.8155 C   0  0  0  0  0  0  0  0  0  0  0  0
  -24.5911  -24.2639   17.1493 C   0  0  0  0  0  0  0  0  0  0  0  0
  -24.7730  -20.4716   19.4031 C   0  0  0  0  0  0  0  0  0  0  0  0
  -26.8881  -20.7996   20.5001 C   0  0  0  0  0  0  0  0  0  0  0  0
  -22.0834   -4.6882   24.4966 C   0  0  0  0  0  0  0  0  0  0  0  0
  -23.7485  -10.4876   20.9992 C   0  0  0  0  0  0  0  0  0  0  0  0
  -24.1318  -13.0038   20.8284 C   0  0  0  0  0  0  0  0  0  0  0  0
  -22.7216  -32.2829   15.3620 C   0  0  0  0  0  0  0  0  0  0  0  0
  -25.5728  -26.4148   16.6304 C   0  0  0  0  0  0  0  0  0  0  0  0
  -22.6393  -30.9221   15.7138 C   0  0  0  0  0  0  0  0  0  0  0  0
  -25.0188  -25.2017   16.1972 C   0  0  0  0  0  0  0  0  0  0  0  0
  -25.5410  -21.1168   20.3660 C   0  0  0  0  0  0  0  0  0  0  0  0
  -22.2183   -8.2164   21.5309 C   0  0  0  0  0  0  0  0  0  0  0  0
  -24.7243  -24.5236   18.5131 C   0  0  0  0  0  0  0  0  0  0  0  0
  -22.0572   -6.0976   22.5345 C   0  0  0  0  0  0  0  0  0  0  0  0
  -23.2381   -4.0600   24.0299 C   0  0  0  0  0  0  0  0  0  0  0  0
  -21.4930   -5.7070   23.7489 C   0  0  0  0  0  0  0  0  0  0  0  0
  -24.5394  -11.6603   20.7251 C   0  0  0  0  0  0  0  0  0  0  0  0
  -25.3947  -19.5243   18.6056 C   0  0  0  0  0  0  0  0  0  0  0  0
  -27.4150  -19.8376   19.6535 C   0  0  0  0  0  0  0  0  0  0  0  0
  -25.2400  -13.7280   20.4625 C   0  0  0  0  0  0  0  0  0  0  0  0
  -22.8647  -13.5485   21.2203 C   0  0  0  0  0  0  0  0  0  0  0  0
  -23.9857  -27.8063   14.2537 C   0  0  0  0  0  0  0  0  0  0  0  0
  -25.5819  -25.6419   12.4399 C   0  0  0  0  0  0  0  0  0  0  0  0
  -27.1944  -22.6395   12.2602 C   0  0  0  0  0  0  0  0  0  0  0  0
  -30.7366  -14.6652   20.6964 C   0  0  0  0  0  0  0  0  0  0  0  0
  -22.6930  -32.7335   13.9230 C   0  0  0  0  0  0  0  0  0  0  0  0
  -26.0623  -27.4281   15.6324 C   0  0  0  0  0  0  0  0  0  0  0  0
  -24.8617  -24.8792   14.7345 C   0  0  0  0  0  0  0  0  0  0  0  0
  -23.0084  -31.6184   12.9293 C   0  0  0  0  0  0  0  0  0  0  0  0
  -29.5900  -12.2469   18.3483 C   0  0  0  0  0  0  0  0  0  0  0  0
  -22.2217  -30.3578   13.2739 C   0  0  0  0  0  0  0  0  0  0  0  0
  -28.1430  -11.9852   18.7697 C   0  0  0  0  0  0  0  0  0  0  0  0
  -30.4960  -12.4797   19.5553 C   0  0  0  0  0  0  0  0  0  0  0  0
  -28.5896  -13.2707   20.9020 C   0  0  0  0  0  0  0  0  0  0  0  0
  -22.6018  -29.8330   14.6637 C   0  0  1  0  0  0  0  0  0  0  0  0
  -25.3971  -27.2910   14.2663 C   0  0  1  0  0  0  0  0  0  0  0  0
  -27.6270  -13.0855   19.7165 C   0  0  2  0  0  0  0  0  0  0  0  0
  -24.6238  -19.5418   16.2198 C   0  0  0  0  0  0  0  0  0  0  0  0
  -28.3586  -21.1230   10.6348 C   0  0  0  0  0  0  0  0  0  0  0  0
  -22.8808  -24.7851   11.3084 C   0  0  0  0  0  0  0  0  0  0  0  0
  -23.9777  -22.7030   10.4539 C   0  0  0  0  0  0  0  0  0  0  0  0
  -24.7195  -24.9338    9.6197 C   0  0  0  0  0  0  0  0  0  0  0  0
  -29.7439  -22.8044   13.7541 C   0  0  0  0  0  0  0  0  0  0  0  0
  -24.9150  -22.1583   21.2615 C   0  0  0  0  0  0  0  0  0  0  0  0
  -24.6020  -18.8129   17.5605 C   0  0  0  0  0  0  0  0  0  0  0  0
  -28.8568  -19.4711   19.7708 C   0  0  0  0  0  0  0  0  0  0  0  0
  -29.0842  -18.3175   20.7599 C   0  0  0  0  0  0  0  0  0  0  0  0
  -30.5707  -17.9760   20.8991 C   0  0  0  0  0  0  0  0  0  0  0  0
  -30.8217  -16.8412   21.8868 C   0  0  0  0  0  0  0  0  0  0  0  0
  -25.0037  -23.5608   20.6697 C   0  0  0  0  0  0  0  0  0  1  0  0
  -25.3129  -24.2311   11.9748 C   0  0  1  0  0  0  0  0  0  0  0  0
  -28.5258  -22.2464   11.6461 C   0  0  2  0  0  0  0  0  0  0  0  0
  -24.2238  -24.1698   10.8669 C   0  0  0  0  0  0  0  0  0  0  0  0
  -25.8075  -11.5356   20.3247 N   0  0  0  0  0  0  0  0  0  0  0  0
  -26.7006  -19.1895   18.7063 N   0  0  0  0  0  0  0  0  0  0  0  0
  -26.2063  -12.8100   20.1731 N   0  0  0  0  0  0  0  0  0  0  0  0
  -25.3496  -25.9046   13.7974 N   0  0  0  0  0  0  0  0  0  0  0  0
  -29.9513  -13.5359   20.4118 N   0  0  0  0  0  0  0  0  0  0  0  0
  -25.4724  -15.0541   20.3630 N   0  0  0  0  0  0  0  0  0  0  0  0
  -21.8345  -12.6629   21.5647 N   0  0  0  0  0  0  0  0  0  0  0  0
  -23.8690  -29.1359   14.6115 N   0  0  0  0  0  0  0  0  0  0  0  0
  -26.6033  -23.6801   11.5752 N   0  0  0  0  0  0  0  0  0  0  0  0
  -30.1421  -15.6216   21.5105 N   0  0  0  0  0  0  0  0  0  0  0  0
  -29.4697  -21.7891   12.7048 N   0  3  0  0  0  0  0  0  0  0  0  0
  -22.6473  -14.7836   21.2478 O   0  0  0  0  0  0  0  0  0  0  0  0
  -23.0705  -27.0537   13.9410 O   0  0  0  0  0  0  0  0  0  0  0  0
  -25.9900  -26.4782   11.6301 O   0  0  0  0  0  0  0  0  0  0  0  0
  -26.7238  -22.0771   13.2465 O   0  0  0  0  0  0  0  0  0  0  0  0
  -31.8805  -14.8129   20.2531 O   0  0  0  0  0  0  0  0  0  0  0  0
  -21.4717   -7.1084   21.7907 O   0  0  0  0  0  0  0  0  0  0  0  0
  -24.3066  -23.6041   19.4253 O   0  0  0  0  0  0  0  0  0  1  0  0
  -23.8043   -3.0806   24.7470 F   0  0  0  0  0  0  0  0  0  0  0  0
  -20.3831   -6.3061   24.2019 F   0  0  0  0  0  0  0  0  0  0  0  0
  1  2  1  0  0  0  0
  1  5  2  0  0  0  0
  2  6  2  0  0  0  0
  3  8  2  0  0  0  0
  3 17  1  0  0  0  0
  4  9  1  0  0  0  0
  4 17  2  0  0  0  0
  5 19  1  0  0  0  0
  6 21  1  0  0  0  0
  7 10  2  0  0  0  0
  7 20  1  0  0  0  0
  8 24  1  0  0  0  0
  9 24  2  0  0  0  0
 10 25  1  0  0  0  0
 11 12  2  0  0  0  0
 11 26  1  0  0  0  0
 12 27  1  0  0  0  0
 13 22  1  0  0  0  0
 13 25  2  0  0  0  0
 14 23  2  0  0  0  0
 14 30  1  0  0  0  0
 15 23  1  0  0  0  0
 15 31  2  0  0  0  0
 16 27  2  0  0  0  0
 16 28  1  0  0  0  0
 17 29  1  0  0  0  0
 18 29  1  0  0  0  0
 18 32  2  0  0  0  0
 18 33  1  0  0  0  0
 19 21  2  0  0  0  0
 19 38  1  0  0  0  0
 20 22  2  0  0  0  0
 20 39  1  0  0  0  0
 21 47  1  0  0  0  0
 22 40  1  0  0  0  0
 23 56  1  0  0  0  0
 24 82  1  0  0  0  0
 25 83  1  0  0  0  0
 26 28  2  0  0  0  0
 26 82  1  0  0  0  0
 27 84  1  0  0  0  0
 28 85  1  0  0  0  0
 29 66  2  0  0  0  0
 30 57  1  0  0  0  0
 30 67  2  0  0  0  0
 31 58  1  0  0  0  0
 31 67  1  0  0  0  0
 32 68  1  0  0  0  0
 32 71  1  0  0  0  0
 33 72  1  0  0  0  0
 33 77  2  0  0  0  0
 34 48  1  0  0  0  0
 34 73  1  0  0  0  0
 34 78  2  0  0  0  0
 35 63  1  0  0  0  0
 35 69  1  0  0  0  0
 35 79  2  0  0  0  0
 36 64  1  0  0  0  0
 36 74  1  0  0  0  0
 36 80  2  0  0  0  0
 37 70  1  0  0  0  0
 37 75  1  0  0  0  0
 37 81  2  0  0  0  0
 38 41  1  0  0  0  0
 39 48  1  0  0  0  0
 40 69  1  0  0  0  0
 41 43  1  0  0  0  0
 42 44  1  0  0  0  0
 42 45  1  0  0  0  0
 43 47  1  0  0  0  0
 44 49  1  0  0  0  0
 45 70  1  0  0  0  0
 46 49  1  0  0  0  0
 46 70  1  0  0  0  0
 47 73  1  0  0  0  0
 48 69  1  0  0  0  0
 49 68  1  0  0  0  0
 50 57  1  0  0  0  0
 51 64  1  0  0  0  0
 52 65  1  0  0  0  0
 53 65  1  0  0  0  0
 54 65  1  0  0  0  0
 55 76  1  0  0  0  0
 56 62  1  0  0  0  0
 58 59  1  0  0  0  0
 59 60  1  0  0  0  0
 60 61  1  0  0  0  0
 61 75  1  0  0  0  0
 62 83  1  0  0  0  0
 63 65  1  0  0  0  0
 63 74  1  0  0  0  0
 64 76  1  0  0  0  0
 66 68  1  0  0  0  0
M  CHG  1  76   1
M  ISO  4  37 100  62 101  75 100  83 101
M  END
> <Batch ID>
0037

> <Smiles>
CCc1cc(C[101CH2:1][101O:1]c2ccc3c(c2)CN(C(=O)C(NC(=O)C(C)NC)C(C)(C)C)C(C(=O)NC2CCCc4ccccc42)C3)cc(CCCC[100NH:0][100C:0](=O)N2CCCC(n3nc(-c4ccc(Oc5ccc(F)cc5F)cc4)c(C(N)=O)c3N)C2)n1

> <Shape>
0.202

> <Color>
0.197

> <Negative vol penalty>
0.000

$$$$

  -OEChem-04052316593D

 84 92  0     1  0  0  0  0  0999 V2000
  -29.0463  -30.1349   19.3486 C   0  0  0  0  0  0  0  0  0  0  0  0
  -28.5073  -28.9238   19.7707 C   0  0  0  0  0  0  0  0  0  0  0  0
  -22.5883  -11.4523   19.0399 C   0  0  0  0  0  0  0  0  0  0  0  0
  -23.3032   -9.8664   20.7165 C   0  0  0  0  0  0  0  0  0  0  0  0
  -28.5214  -31.3347   19.8270 C   0  0  0  0  0  0  0  0  0  0  0  0
  -27.4437  -28.9118   20.6723 C   0  0  0  0  0  0  0  0  0  0  0  0
  -23.8089  -25.6449   19.3456 C   0  0  0  0  0  0  0  0  0  0  0  0
  -21.5946  -10.5659   18.6251 C   0  0  0  0  0  0  0  0  0  0  0  0
  -22.3094   -8.9799   20.3017 C   0  0  0  0  0  0  0  0  0  0  0  0
  -24.0384  -24.2953   19.6095 C   0  0  0  0  0  0  0  0  0  0  0  0
  -21.8283   -6.7791   17.7806 C   0  0  0  0  0  0  0  0  0  0  0  0
  -22.1812   -5.4393   17.6196 C   0  0  0  0  0  0  0  0  0  0  0  0
  -22.6620  -24.4537   21.5843 C   0  0  0  0  0  0  0  0  0  0  0  0
  -26.0676  -16.4837   17.9902 C   0  0  0  0  0  0  0  0  0  0  0  0
  -27.8987  -17.0126   19.4747 C   0  0  0  0  0  0  0  0  0  0  0  0
  -20.5472   -4.8090   19.2839 C   0  0  0  0  0  0  0  0  0  0  0  0
  -23.4427  -11.1026   20.0857 C   0  0  0  0  0  0  0  0  0  0  0  0
  -24.3621  -13.0141   21.5030 C   0  0  0  0  0  0  0  0  0  0  0  0
  -27.4445  -31.3376   20.7275 C   0  0  0  0  0  0  0  0  0  0  0  0
  -23.0117  -26.4130   20.2064 C   0  0  0  0  0  0  0  0  0  0  0  0
  -26.9047  -30.1128   21.1643 C   0  0  0  0  0  0  0  0  0  0  0  0
  -22.4218  -25.8122   21.3276 C   0  0  0  0  0  0  0  0  0  0  0  0
  -26.5508  -17.1211   19.1329 C   0  0  0  0  0  0  0  0  0  0  0  0
  -26.9323  -15.7376   17.1894 C   0  0  0  0  0  0  0  0  0  0  0  0
  -28.2803  -15.6291   17.5312 C   0  0  0  0  0  0  0  0  0  0  0  0
  -21.4551   -9.3297   19.2559 C   0  0  0  0  0  0  0  0  0  0  0  0
  -23.4673  -23.7002   20.7306 C   0  0  0  0  0  0  0  0  0  0  0  0
  -20.8350   -7.1339   18.6934 C   0  0  0  0  0  0  0  0  0  0  0  0
  -21.5406   -4.4542   18.3712 C   0  0  0  0  0  0  0  0  0  0  0  0
  -20.1944   -6.1488   19.4450 C   0  0  0  0  0  0  0  0  0  0  0  0
  -28.7635  -16.2666   18.6739 C   0  0  0  0  0  0  0  0  0  0  0  0
  -24.4698  -12.0177   20.5143 C   0  0  0  0  0  0  0  0  0  0  0  0
  -25.6023  -13.6035   21.5330 C   0  0  0  0  0  0  0  0  0  0  0  0
  -23.2412  -13.3745   22.3212 C   0  0  0  0  0  0  0  0  0  0  0  0
  -23.4991  -28.9703   22.0301 C   0  0  0  0  0  0  0  0  0  0  0  0
  -20.2944  -28.7703   22.4906 C   0  0  0  0  0  0  0  0  0  0  0  0
  -17.4834  -26.8350   22.4956 C   0  0  0  0  0  0  0  0  0  0  0  0
  -29.8792  -13.7335   17.1552 C   0  0  0  0  0  0  0  0  0  0  0  0
  -26.9416  -32.6587   21.2535 C   0  0  0  0  0  0  0  0  0  0  0  0
  -22.7520  -27.8610   19.8931 C   0  0  0  0  0  0  0  0  0  0  0  0
  -21.5415  -26.5880   22.2719 C   0  0  0  0  0  0  0  0  0  0  0  0
  -25.5701  -32.5676   21.9174 C   0  0  0  0  0  0  0  0  0  0  0  0
  -30.2218  -12.7071   20.6939 C   0  0  0  0  0  0  0  0  0  0  0  0
  -25.5170  -31.3790   22.8720 C   0  0  0  0  0  0  0  0  0  0  0  0
  -28.7792  -12.4180   21.1045 C   0  0  0  0  0  0  0  0  0  0  0  0
  -30.4454  -12.4675   19.2038 C   0  0  0  0  0  0  0  0  0  0  0  0
  -28.0574  -12.9410   18.7408 C   0  0  0  0  0  0  0  0  0  0  0  0
  -25.7345  -30.0591   22.1223 C   0  0  1  0  0  0  0  0  0  0  0  0
  -22.3428  -28.6733   21.1179 C   0  0  1  0  0  0  0  0  0  0  0  0
  -27.7964  -13.2138   20.2297 C   0  0  1  0  0  0  0  0  0  0  0  0
  -26.3828  -15.0672   15.9718 C   0  0  0  0  0  0  0  0  0  0  0  0
  -15.0179  -26.9437   22.9501 C   0  0  0  0  0  0  0  0  0  0  0  0
  -20.8506  -28.7864   25.4906 C   0  0  0  0  0  0  0  0  0  0  0  0
  -18.5193  -27.9501   25.8567 C   0  0  0  0  0  0  0  0  0  0  0  0
  -18.8917  -30.1719   24.7854 C   0  0  0  0  0  0  0  0  0  0  0  0
  -29.5293  -15.4058   15.3909 C   0  0  0  0  0  0  0  0  0  0  0  0
  -16.8195  -26.0623   19.7170 C   0  0  0  0  0  0  0  0  0  0  0  0
  -25.6162  -17.9285   19.9981 C   0  0  0  0  0  0  0  0  0  0  0  0
  -25.5171  -19.4036   19.5938 C   0  0  0  0  0  0  0  0  0  0  0  0
  -24.6255  -20.2220   20.5287 C   0  0  0  0  0  0  0  0  0  0  0  0
  -24.5194  -21.6711   20.0734 C   0  0  0  0  0  0  0  0  0  1  0  0
  -19.3985  -28.0663   23.4809 C   0  0  1  0  0  0  0  0  0  0  0  0
  -16.1070  -27.0564   21.8948 C   0  0  2  0  0  0  0  0  0  0  0  0
  -19.4332  -28.7293   24.8869 C   0  0  0  0  0  0  0  0  0  0  0  0
  -25.6826  -11.9739   19.9565 N   0  0  0  0  0  0  0  0  0  0  0  0
  -26.3483  -12.9501   20.5967 N   0  0  0  0  0  0  0  0  0  0  0  0
  -21.3227  -28.0022   21.9261 N   0  0  0  0  0  0  0  0  0  0  0  0
  -29.4653  -13.1835   18.3858 N   0  0  0  0  0  0  0  0  0  0  0  0
  -26.1165  -14.6119   22.2686 N   0  0  0  0  0  0  0  0  0  0  0  0
  -22.0423  -12.6663   22.1614 N   0  0  0  0  0  0  0  0  0  0  0  0
  -24.5274  -29.6684   21.4261 N   0  0  0  0  0  0  0  0  0  0  0  0
  -18.0729  -28.0230   22.8732 N   0  0  0  0  0  0  0  0  0  0  0  0
  -29.1634  -14.8547   16.6938 N   0  0  0  0  0  0  0  0  0  0  0  0
  -15.8376  -26.0474   20.8317 N   0  3  0  0  0  0  0  0  0  0  0  0
  -23.2961  -14.3080   23.1572 O   0  0  0  0  0  0  0  0  0  0  0  0
  -23.4607  -28.5953   23.1961 O   0  0  0  0  0  0  0  0  0  0  0  0
  -20.0850  -29.9559   22.2221 O   0  0  0  0  0  0  0  0  0  0  0  0
  -17.9839  -25.7196   22.6212 O   0  0  0  0  0  0  0  0  0  0  0  0
  -30.7879  -13.2278   16.4851 O   0  0  0  0  0  0  0  0  0  0  0  0
  -20.4853   -8.4645   18.8515 O   0  0  0  0  0  0  0  0  0  0  0  0
  -23.6903  -22.3832   20.9909 O   0  0  0  0  0  0  0  0  0  1  0  0
  -21.8784   -3.1674   18.2154 F   0  0  0  0  0  0  0  0  0  0  0  0
  -19.2385   -6.4835   20.3226 F   0  0  0  0  0  0  0  0  0  0  0  0
  -30.4254  -16.1604   19.1366 Cl  0  0  0  0  0  0  0  0  0  0  0  0
  1  2  1  0  0  0  0
  1  5  2  0  0  0  0
  2  6  2  0  0  0  0
  3  8  2  0  0  0  0
  3 17  1  0  0  0  0
  4  9  1  0  0  0  0
  4 17  2  0  0  0  0
  5 19  1  0  0  0  0
  6 21  1  0  0  0  0
  7 10  2  0  0  0  0
  7 20  1  0  0  0  0
  8 26  1  0  0  0  0
  9 26  2  0  0  0  0
 10 27  1  0  0  0  0
 11 12  2  0  0  0  0
 11 28  1  0  0  0  0
 12 29  1  0  0  0  0
 13 22  1  0  0  0  0
 13 27  2  0  0  0  0
 14 23  1  0  0  0  0
 14 24  2  0  0  0  0
 15 23  2  0  0  0  0
 15 31  1  0  0  0  0
 16 29  2  0  0  0  0
 16 30  1  0  0  0  0
 17 32  1  0  0  0  0
 18 32  1  0  0  0  0
 18 33  2  0  0  0  0
 18 34  1  0  0  0  0
 19 21  2  0  0  0  0
 19 39  1  0  0  0  0
 20 22  2  0  0  0  0
 20 40  1  0  0  0  0
 21 48  1  0  0  0  0
 22 41  1  0  0  0  0
 23 58  1  0  0  0  0
 24 25  1  0  0  0  0
 24 51  1  0  0  0  0
 25 31  2  0  0  0  0
 25 73  1  0  0  0  0
 26 80  1  0  0  0  0
 27 81  1  0  0  0  0
 28 30  2  0  0  0  0
 28 80  1  0  0  0  0
 29 82  1  0  0  0  0
 30 83  1  0  0  0  0
 31 84  1  0  0  0  0
 32 65  2  0  0  0  0
 33 66  1  0  0  0  0
 33 69  1  0  0  0  0
 34 70  1  0  0  0  0
 34 75  2  0  0  0  0
 35 49  1  0  0  0  0
 35 71  1  0  0  0  0
 35 76  2  0  0  0  0
 36 62  1  0  0  0  0
 36 67  1  0  0  0  0
 36 77  2  0  0  0  0
 37 63  1  0  0  0  0
 37 72  1  0  0  0  0
 37 78  2  0  0  0  0
 38 68  1  0  0  0  0
 38 73  1  0  0  0  0
 38 79  2  0  0  0  0
 39 42  1  0  0  0  0
 40 49  1  0  0  0  0
 41 67  1  0  0  0  0
 42 44  1  0  0  0  0
 43 45  1  0  0  0  0
 43 46  1  0  0  0  0
 44 48  1  0  0  0  0
 45 50  1  0  0  0  0
 46 68  1  0  0  0  0
 47 50  1  0  0  0  0
 47 68  1  0  0  0  0
 48 71  1  0  0  0  0
 49 67  1  0  0  0  0
 50 66  1  0  0  0  0
 52 63  1  0  0  0  0
 53 64  1  0  0  0  0
 54 64  1  0  0  0  0
 55 64  1  0  0  0  0
 56 73  1  0  0  0  0
 57 74  1  0  0  0  0
 58 59  1  0  0  0  0
 59 60  1  0  0  0  0
 60 61  1  0  0  0  0
 61 81  1  0  0  0  0
 62 64  1  0  0  0  0
 62 72  1  0  0  0  0
 63 74  1  0  0  0  0
 65 66  1  0  0  0  0
M  CHG  1  74   1
M  ISO  4  38 100  61 101  73 100  81 101
M  END
> <Batch ID>
0037

> <Smiles>
CNC(C)C(=O)NC(C(=O)N1Cc2cc([101O:1][101CH2:1]CCCc3cc(C)c([100N:0](C)[100C:0](=O)N4CCCC(n5nc(-c6ccc(Oc7ccc(F)cc7F)cc6)c(C(N)=O)c5N)C4)c(Cl)c3)ccc2CC1C(=O)NC1CCCc2ccccc21)C(C)(C)C

> <Shape>
0.235

> <Color>
0.092

> <Negative vol penalty>
0.000

$$$$

  -OEChem-04052316593D

 85 93  0     1  0  0  0  0  0999 V2000
  -26.8820  -35.3000   23.5845 C   0  0  0  0  0  0  0  0  0  0  0  0
  -27.2412  -33.9705   23.3872 C   0  0  0  0  0  0  0  0  0  0  0  0
  -23.9430  -12.0027   20.0881 C   0  0  0  0  0  0  0  0  0  0  0  0
  -25.4195  -13.4349   21.3554 C   0  0  0  0  0  0  0  0  0  0  0  0
  -25.5567  -35.6283   23.8667 C   0  0  0  0  0  0  0  0  0  0  0  0
  -26.2753  -32.9685   23.4730 C   0  0  0  0  0  0  0  0  0  0  0  0
  -26.6357  -29.5956   19.7129 C   0  0  0  0  0  0  0  0  0  0  0  0
  -25.0467  -11.3862   19.4988 C   0  0  0  0  0  0  0  0  0  0  0  0
  -26.5233  -12.8184   20.7661 C   0  0  0  0  0  0  0  0  0  0  0  0
  -27.6362  -28.6302   19.8172 C   0  0  0  0  0  0  0  0  0  0  0  0
  -28.1797  -12.9613   17.8222 C   0  0  0  0  0  0  0  0  0  0  0  0
  -29.2092  -13.7806   17.3593 C   0  0  0  0  0  0  0  0  0  0  0  0
  -26.0053  -27.0331   20.5973 C   0  0  0  0  0  0  0  0  0  0  0  0
  -27.1677  -22.3777   17.5021 C   0  0  0  0  0  0  0  0  0  0  0  0
  -28.8912  -24.0495   17.2348 C   0  0  0  0  0  0  0  0  0  0  0  0
  -28.1950  -23.3754   19.4480 C   0  0  0  0  0  0  0  0  0  0  0  0
  -30.7538  -12.6890   18.8626 C   0  0  0  0  0  0  0  0  0  0  0  0
  -24.1294  -13.0271   21.0164 C   0  0  0  0  0  0  0  0  0  0  0  0
  -22.3375  -13.2856   22.8137 C   0  0  0  0  0  0  0  0  0  0  0  0
  -24.5723  -34.6307   23.9465 C   0  0  0  0  0  0  0  0  0  0  0  0
  -25.3122  -29.2896   20.0609 C   0  0  0  0  0  0  0  0  0  0  0  0
  -24.9358  -33.2836   23.7579 C   0  0  0  0  0  0  0  0  0  0  0  0
  -24.9895  -27.9956   20.4941 C   0  0  0  0  0  0  0  0  0  0  0  0
  -27.9742  -23.1597   16.6753 C   0  0  0  0  0  0  0  0  0  0  0  0
  -27.2780  -22.4856   18.8885 C   0  0  0  0  0  0  0  0  0  0  0  0
  -29.0016  -24.1573   18.6212 C   0  0  0  0  0  0  0  0  0  0  0  0
  -26.3369  -11.7940   19.8378 C   0  0  0  0  0  0  0  0  0  0  0  0
  -27.3216  -27.3496   20.2622 C   0  0  0  0  0  0  0  0  0  0  0  0
  -28.4372  -12.0058   18.8053 C   0  0  0  0  0  0  0  0  0  0  0  0
  -30.4963  -13.6445   17.8795 C   0  0  0  0  0  0  0  0  0  0  0  0
  -29.7242  -11.8696   19.3254 C   0  0  0  0  0  0  0  0  0  0  0  0
  -22.9896  -13.6648   21.6250 C   0  0  0  0  0  0  0  0  0  0  0  0
  -21.3255  -14.2029   22.9578 C   0  0  0  0  0  0  0  0  0  0  0  0
  -22.6214  -12.2012   23.7077 C   0  0  0  0  0  0  0  0  0  0  0  0
  -23.2613  -30.3602   22.2406 C   0  0  0  0  0  0  0  0  0  0  0  0
  -21.1915  -28.4038   20.6878 C   0  0  0  0  0  0  0  0  0  0  0  0
  -20.7274  -25.6695   18.6991 C   0  0  0  0  0  0  0  0  0  0  0  0
  -20.5967  -19.8123   20.9946 C   0  0  0  0  0  0  0  0  0  0  0  0
  -23.1616  -35.0296   24.3008 C   0  0  0  0  0  0  0  0  0  0  0  0
  -24.2399  -30.3345   19.9174 C   0  0  0  0  0  0  0  0  0  0  0  0
  -23.5803  -27.6105   20.8607 C   0  0  0  0  0  0  0  0  0  0  0  0
  -22.1293  -33.9449   24.0041 C   0  0  0  0  0  0  0  0  0  0  0  0
  -18.4481  -17.0376   20.3934 C   0  0  0  0  0  0  0  0  0  0  0  0
  -22.6137  -32.5924   24.5166 C   0  0  0  0  0  0  0  0  0  0  0  0
  -19.3096  -15.8244   20.7482 C   0  0  0  0  0  0  0  0  0  0  0  0
  -19.2720  -18.1413   19.7339 C   0  0  0  0  0  0  0  0  0  0  0  0
  -21.3225  -17.3529   20.8508 C   0  0  0  0  0  0  0  0  0  0  0  0
  -23.9122  -32.1707   23.8183 C   0  0  1  0  0  0  0  0  0  0  0  0
  -23.0179  -30.0602   20.7886 C   0  0  1  0  0  0  0  0  0  0  0  0
  -20.5465  -16.2357   21.5692 C   0  0  2  0  0  0  0  0  0  0  0  0
  -27.8560  -23.0436   15.1931 C   0  0  0  0  0  0  0  0  0  0  0  0
  -18.9203  -24.2951   17.6301 C   0  0  0  0  0  0  0  0  0  0  0  0
  -20.5719  -27.1234   23.3872 C   0  0  0  0  0  0  0  0  0  0  0  0
  -19.5362  -25.2026   22.1599 C   0  0  0  0  0  0  0  0  0  0  0  0
  -18.5767  -27.4933   21.9254 C   0  0  0  0  0  0  0  0  0  0  0  0
  -21.7322  -26.2541   15.9775 C   0  0  0  0  0  0  0  0  0  0  0  0
  -26.4161  -21.6494   19.7731 C   0  0  0  0  0  0  0  0  0  0  0  0
  -29.9940  -25.1204   19.2262 C   0  0  0  0  0  0  0  0  0  0  0  0
  -25.0900  -22.3439   20.1178 C   0  0  0  0  0  0  0  0  0  0  0  0
  -24.2314  -21.4944   21.0572 C   0  0  0  0  0  0  0  0  0  0  0  0
  -22.8962  -22.1801   21.3614 C   0  0  0  0  0  0  0  0  0  0  0  0
  -22.0207  -21.3644   22.3070 C   0  0  0  0  0  0  0  0  0  0  0  0
  -29.3933  -26.5026   19.4580 C   0  0  0  0  0  0  0  0  0  1  0  0
  -20.7858  -26.9557   20.8197 C   0  0  1  0  0  0  0  0  0  0  0  0
  -19.8821  -25.4601   17.4557 C   0  0  2  0  0  0  0  0  0  0  0  0
  -19.8947  -26.7013   22.0681 C   0  0  0  0  0  0  0  0  0  0  0  0
  -22.4380  -14.7391   21.0545 N   0  0  0  0  0  0  0  0  0  0  0  0
  -21.4286  -15.0428   21.8881 N   0  0  0  0  0  0  0  0  0  0  0  0
  -22.5681  -28.6689   20.7095 N   0  0  0  0  0  0  0  0  0  0  0  0
  -20.4289  -18.4860   20.5638 N   0  0  0  0  0  0  0  0  0  0  0  0
  -20.3662  -14.3648   23.8937 N   0  0  0  0  0  0  0  0  0  0  0  0
  -23.6975  -11.3540   23.4099 N   0  0  0  0  0  0  0  0  0  0  0  0
  -23.6318  -31.6677   22.4906 N   0  0  0  0  0  0  0  0  0  0  0  0
  -20.1593  -26.5905   19.5538 N   0  0  0  0  0  0  0  0  0  0  0  0
  -21.7159  -20.0519   21.7825 N   0  0  0  0  0  0  0  0  0  0  0  0
  -20.7523  -25.1790   16.2790 N   0  3  0  0  0  0  0  0  0  0  0  0
  -21.9308  -11.9800   24.7312 O   0  0  0  0  0  0  0  0  0  0  0  0
  -23.1217  -29.4715   23.0728 O   0  0  0  0  0  0  0  0  0  0  0  0
  -20.3194  -29.2672   20.5628 O   0  0  0  0  0  0  0  0  0  0  0  0
  -21.7839  -25.0728   18.8946 O   0  0  0  0  0  0  0  0  0  0  0  0
  -19.8047  -20.7150   20.7034 O   0  0  0  0  0  0  0  0  0  0  0  0
  -27.4141  -11.1925   19.2632 O   0  0  0  0  0  0  0  0  0  0  0  0
  -28.2963  -26.4056   20.3656 O   0  0  0  0  0  0  0  0  0  1  0  0
  -31.4852  -14.4303   17.4338 F   0  0  0  0  0  0  0  0  0  0  0  0
  -29.9779  -10.9527   20.2692 F   0  0  0  0  0  0  0  0  0  0  0  0
  1  2  1  0  0  0  0
  1  5  2  0  0  0  0
  2  6  2  0  0  0  0
  3  8  2  0  0  0  0
  3 18  1  0  0  0  0
  4  9  1  0  0  0  0
  4 18  2  0  0  0  0
  5 20  1  0  0  0  0
  6 22  1  0  0  0  0
  7 10  2  0  0  0  0
  7 21  1  0  0  0  0
  8 27  1  0  0  0  0
  9 27  2  0  0  0  0
 10 28  1  0  0  0  0
 11 12  2  0  0  0  0
 11 29  1  0  0  0  0
 12 30  1  0  0  0  0
 13 23  1  0  0  0  0
 13 28  2  0  0  0  0
 14 24  1  0  0  0  0
 14 25  2  0  0  0  0
 15 24  2  0  0  0  0
 15 26  1  0  0  0  0
 16 25  1  0  0  0  0
 16 26  2  0  0  0  0
 17 30  2  0  0  0  0
 17 31  1  0  0  0  0
 18 32  1  0  0  0  0
 19 32  1  0  0  0  0
 19 33  2  0  0  0  0
 19 34  1  0  0  0  0
 20 22  2  0  0  0  0
 20 39  1  0  0  0  0
 21 23  2  0  0  0  0
 21 40  1  0  0  0  0
 22 48  1  0  0  0  0
 23 41  1  0  0  0  0
 24 51  1  0  0  0  0
 25 57  1  0  0  0  0
 26 58  1  0  0  0  0
 27 82  1  0  0  0  0
 28 83  1  0  0  0  0
 29 31  2  0  0  0  0
 29 82  1  0  0  0  0
 30 84  1  0  0  0  0
 31 85  1  0  0  0  0
 32 67  2  0  0  0  0
 33 68  1  0  0  0  0
 33 71  1  0  0  0  0
 34 72  1  0  0  0  0
 34 77  2  0  0  0  0
 35 49  1  0  0  0  0
 35 73  1  0  0  0  0
 35 78  2  0  0  0  0
 36 64  1  0  0  0  0
 36 69  1  0  0  0  0
 36 79  2  0  0  0  0
 37 65  1  0  0  0  0
 37 74  1  0  0  0  0
 37 80  2  0  0  0  0
 38 70  1  0  0  0  0
 38 75  1  0  0  0  0
 38 81  2  0  0  0  0
 39 42  1  0  0  0  0
 40 49  1  0  0  0  0
 41 69  1  0  0  0  0
 42 44  1  0  0  0  0
 43 45  1  0  0  0  0
 43 46  1  0  0  0  0
 44 48  1  0  0  0  0
 45 50  1  0  0  0  0
 46 70  1  0  0  0  0
 47 50  1  0  0  0  0
 47 70  1  0  0  0  0
 48 73  1  0  0  0  0
 49 69  1  0  0  0  0
 50 68  1  0  0  0  0
 52 65  1  0  0  0  0
 53 66  1  0  0  0  0
 54 66  1  0  0  0  0
 55 66  1  0  0  0  0
 56 76  1  0  0  0  0
 57 59  1  0  0  0  0
 58 63  1  0  0  0  0
 59 60  1  0  0  0  0
 60 61  1  0  0  0  0
 61 62  1  0  0  0  0
 62 75  1  0  0  0  0
 63 83  1  0  0  0  0
 64 66  1  0  0  0  0
 64 74  1  0  0  0  0
 65 76  1  0  0  0  0
 67 68  1  0  0  0  0
M  CHG  1  76   1
M  ISO  4  38 100  63 101  75 100  83 101
M  END
> <Batch ID>
0037

> <Smiles>
CNC(C)C(=O)NC(C(=O)N1Cc2cc([101O:1][101CH2:1]Cc3cc(C)cc(CCCCC[100NH:0][100C:0](=O)N4CCCC(n5nc(-c6ccc(Oc7ccc(F)cc7F)cc6)c(C(N)=O)c5N)C4)c3)ccc2CC1C(=O)NC1CCCc2ccccc21)C(C)(C)C

> <Shape>
0.265

> <Color>
0.085

> <Negative vol penalty>
0.000

$$$$

  -OEChem-04052316593D

 85 93  0     1  0  0  0  0  0999 V2000
  -19.9144   -9.6651   19.6473 C   0  0  0  0  0  0  0  0  0  0  0  0
  -20.0907  -11.0056   19.9751 C   0  0  0  0  0  0  0  0  0  0  0  0
  -29.7231  -28.0898   21.2095 C   0  0  0  0  0  0  0  0  0  0  0  0
  -28.1661  -27.5295   19.4491 C   0  0  0  0  0  0  0  0  0  0  0  0
  -20.9224   -8.7426   19.9242 C   0  0  0  0  0  0  0  0  0  0  0  0
  -21.2748  -11.4241   20.5811 C   0  0  0  0  0  0  0  0  0  0  0  0
  -23.1059  -15.6790   18.5347 C   0  0  0  0  0  0  0  0  0  0  0  0
  -20.3573  -24.2729   22.5643 C   0  0  0  0  0  0  0  0  0  0  0  0
  -19.9267  -22.9615   22.7652 C   0  0  0  0  0  0  0  0  0  0  0  0
  -30.5454  -27.0331   20.8186 C   0  0  0  0  0  0  0  0  0  0  0  0
  -28.9885  -26.4728   19.0581 C   0  0  0  0  0  0  0  0  0  0  0  0
  -22.4995  -16.8775   18.9084 C   0  0  0  0  0  0  0  0  0  0  0  0
  -30.4992  -23.4066   17.8228 C   0  0  0  0  0  0  0  0  0  0  0  0
  -29.8931  -22.1806   17.5486 C   0  0  0  0  0  0  0  0  0  0  0  0
  -24.2942  -17.2928   20.4659 C   0  0  0  0  0  0  0  0  0  0  0  0
  -18.7904  -24.5079   20.7404 C   0  0  0  0  0  0  0  0  0  0  0  0
  -29.0464  -22.0934   19.8097 C   0  0  0  0  0  0  0  0  0  0  0  0
  -28.5334  -28.3379   20.5248 C   0  0  0  0  0  0  0  0  0  0  0  0
  -27.7280  -30.7577   20.4658 C   0  0  0  0  0  0  0  0  0  0  0  0
  -22.1234   -9.1516   20.5250 C   0  0  0  0  0  0  0  0  0  0  0  0
  -24.3074  -15.2724   19.1326 C   0  0  0  0  0  0  0  0  0  0  0  0
  -22.2993  -10.5059   20.8674 C   0  0  0  0  0  0  0  0  0  0  0  0
  -24.9151  -16.0899   20.0962 C   0  0  0  0  0  0  0  0  0  0  0  0
  -19.7891  -25.0462   21.5519 C   0  0  0  0  0  0  0  0  0  0  0  0
  -18.9280  -22.4233   21.9537 C   0  0  0  0  0  0  0  0  0  0  0  0
  -30.1782  -26.2246   19.7429 C   0  0  0  0  0  0  0  0  0  0  0  0
  -23.0922  -17.6832   19.8762 C   0  0  0  0  0  0  0  0  0  0  0  0
  -30.3789  -23.9760   19.0905 C   0  0  0  0  0  0  0  0  0  0  0  0
  -29.1667  -21.5240   18.5420 C   0  0  0  0  0  0  0  0  0  0  0  0
  -29.6525  -23.3194   20.0839 C   0  0  0  0  0  0  0  0  0  0  0  0
  -18.3598  -23.1965   20.9413 C   0  0  0  0  0  0  0  0  0  0  0  0
  -27.6833  -29.4289   20.9286 C   0  0  0  0  0  0  0  0  0  0  0  0
  -26.7223  -31.3941   21.1515 C   0  0  0  0  0  0  0  0  0  0  0  0
  -28.6004  -31.3626   19.5022 C   0  0  0  0  0  0  0  0  0  0  0  0
  -25.2041  -12.7893   20.9029 C   0  0  0  0  0  0  0  0  0  0  0  0
  -28.1500  -14.1015   20.5541 C   0  0  0  0  0  0  0  0  0  0  0  0
  -30.0281  -16.8845   19.9419 C   0  0  0  0  0  0  0  0  0  0  0  0
  -21.6651  -29.4536   23.7029 C   0  0  0  0  0  0  0  0  0  0  0  0
  -23.1651   -8.1099   20.8479 C   0  0  0  0  0  0  0  0  0  0  0  0
  -24.9626  -13.9898   18.6991 C   0  0  0  0  0  0  0  0  0  0  0  0
  -26.2153  -15.7085   20.7537 C   0  0  0  0  0  0  0  0  0  0  0  0
  -24.5410   -8.6978   21.1504 C   0  0  0  0  0  0  0  0  0  0  0  0
  -24.3186  -31.2235   25.2848 C   0  0  0  0  0  0  0  0  0  0  0  0
  -24.4189   -9.8740   22.1139 C   0  0  0  0  0  0  0  0  0  0  0  0
  -25.4859  -31.0842   24.3060 C   0  0  0  0  0  0  0  0  0  0  0  0
  -23.4647  -29.9583   25.3286 C   0  0  0  0  0  0  0  0  0  0  0  0
  -24.1438  -29.3555   23.0375 C   0  0  0  0  0  0  0  0  0  0  0  0
  -23.5797  -11.0027   21.5030 C   0  0  1  0  0  0  0  0  0  0  0  0
  -25.9194  -13.4246   19.7443 C   0  0  1  0  0  0  0  0  0  0  0  0
  -25.0013  -30.6269   22.9170 C   0  0  2  0  0  0  0  0  0  0  0  0
  -32.4102  -17.6523   19.7587 C   0  0  0  0  0  0  0  0  0  0  0  0
  -28.4041  -14.0312   23.5939 C   0  0  0  0  0  0  0  0  0  0  0  0
  -30.3170  -15.6348   23.4015 C   0  0  0  0  0  0  0  0  0  0  0  0
  -30.4769  -13.3745   22.3584 C   0  0  0  0  0  0  0  0  0  0  0  0
  -29.6665  -17.7115   17.1234 C   0  0  0  0  0  0  0  0  0  0  0  0
  -20.2495  -26.4484   21.3369 C   0  0  0  0  0  0  0  0  0  0  0  0
  -18.4916  -21.0016   22.2031 C   0  0  0  0  0  0  0  0  0  0  0  0
  -19.4701  -27.5065   22.1425 C   0  0  0  0  0  0  0  0  0  0  0  0
  -19.0418  -19.9973   21.1843 C   0  0  0  0  0  0  0  0  0  0  0  0
  -20.5674  -19.8933   21.2101 C   0  0  0  0  0  0  0  0  0  0  0  0
  -19.9772  -28.9353   21.9589 C   0  0  0  0  0  0  0  0  0  0  0  0
  -21.0790  -18.9173   20.1592 C   0  0  0  0  0  0  0  0  0  1  0  0
  -28.9663  -15.1152   21.3191 C   0  0  1  0  0  0  0  0  0  0  0  0
  -31.1991  -17.1236   19.0060 C   0  0  2  0  0  0  0  0  0  0  0  0
  -29.5156  -14.5455   22.6574 C   0  0  0  0  0  0  0  0  0  0  0  0
  -26.7252  -29.2316   21.8381 N   0  0  0  0  0  0  0  0  0  0  0  0
  -26.1586  -30.4449   21.9524 N   0  0  0  0  0  0  0  0  0  0  0  0
  -26.8138  -14.4420   20.3006 N   0  0  0  0  0  0  0  0  0  0  0  0
  -23.0364  -29.5793   23.9800 N   0  0  0  0  0  0  0  0  0  0  0  0
  -26.2742  -32.6675   21.1416 N   0  0  0  0  0  0  0  0  0  0  0  0
  -29.5782  -30.5648   18.8925 N   0  0  0  0  0  0  0  0  0  0  0  0
  -24.3628  -11.7532   20.5450 N   0  0  0  0  0  0  0  0  0  0  0  0
  -29.9985  -15.5847   20.4011 N   0  0  0  0  0  0  0  0  0  0  0  0
  -21.3451  -29.0973   22.3985 N   0  0  0  0  0  0  0  0  0  0  0  0
  -30.8290  -18.1143   17.9559 N   0  3  0  0  0  0  0  0  0  0  0  0
  -28.5262  -32.5786   19.2032 O   0  0  0  0  0  0  0  0  0  0  0  0
  -25.4018  -13.2073   22.0378 O   0  0  0  0  0  0  0  0  0  0  0  0
  -28.6806  -13.0496   20.1885 O   0  0  0  0  0  0  0  0  0  0  0  0
  -29.2226  -17.7639   20.2391 O   0  0  0  0  0  0  0  0  0  0  0  0
  -20.7904  -29.6498   24.5535 O   0  0  0  0  0  0  0  0  0  0  0  0
  -30.9805  -25.1936   19.3609 O   0  0  0  0  0  0  0  0  0  0  0  0
  -22.5021  -18.8532   20.2434 O   0  0  0  0  0  0  0  0  0  1  0  0
  -28.5835  -20.3474   18.2781 F   0  0  0  0  0  0  0  0  0  0  0  0
  -29.5324  -23.8621   21.3033 F   0  0  0  0  0  0  0  0  0  0  0  0
  -17.1228  -22.5635   19.9173 Cl  0  0  0  0  0  0  0  0  0  0  0  0
  1  2  1  0  0  0  0
  1  5  2  0  0  0  0
  2  6  2  0  0  0  0
  3 10  2  0  0  0  0
  3 18  1  0  0  0  0
  4 11  1  0  0  0  0
  4 18  2  0  0  0  0
  5 20  1  0  0  0  0
  6 22  1  0  0  0  0
  7 12  2  0  0  0  0
  7 21  1  0  0  0  0
  8  9  2  0  0  0  0
  8 24  1  0  0  0  0
  9 25  1  0  0  0  0
 10 26  1  0  0  0  0
 11 26  2  0  0  0  0
 12 27  1  0  0  0  0
 13 14  2  0  0  0  0
 13 28  1  0  0  0  0
 14 29  1  0  0  0  0
 15 23  1  0  0  0  0
 15 27  2  0  0  0  0
 16 24  2  0  0  0  0
 16 31  1  0  0  0  0
 17 29  2  0  0  0  0
 17 30  1  0  0  0  0
 18 32  1  0  0  0  0
 19 32  1  0  0  0  0
 19 33  2  0  0  0  0
 19 34  1  0  0  0  0
 20 22  2  0  0  0  0
 20 39  1  0  0  0  0
 21 23  2  0  0  0  0
 21 40  1  0  0  0  0
 22 48  1  0  0  0  0
 23 41  1  0  0  0  0
 24 56  1  0  0  0  0
 25 31  2  0  0  0  0
 25 57  1  0  0  0  0
 26 81  1  0  0  0  0
 27 82  1  0  0  0  0
 28 30  2  0  0  0  0
 28 81  1  0  0  0  0
 29 83  1  0  0  0  0
 30 84  1  0  0  0  0
 31 85  1  0  0  0  0
 32 66  2  0  0  0  0
 33 67  1  0  0  0  0
 33 70  1  0  0  0  0
 34 71  1  0  0  0  0
 34 76  2  0  0  0  0
 35 49  1  0  0  0  0
 35 72  1  0  0  0  0
 35 77  2  0  0  0  0
 36 63  1  0  0  0  0
 36 68  1  0  0  0  0
 36 78  2  0  0  0  0
 37 64  1  0  0  0  0
 37 73  1  0  0  0  0
 37 79  2  0  0  0  0
 38 69  1  0  0  0  0
 38 74  1  0  0  0  0
 38 80  2  0  0  0  0
 39 42  1  0  0  0  0
 40 49  1  0  0  0  0
 41 68  1  0  0  0  0
 42 44  1  0  0  0  0
 43 45  1  0  0  0  0
 43 46  1  0  0  0  0
 44 48  1  0  0  0  0
 45 50  1  0  0  0  0
 46 69  1  0  0  0  0
 47 50  1  0  0  0  0
 47 69  1  0  0  0  0
 48 72  1  0  0  0  0
 49 68  1  0  0  0  0
 50 67  1  0  0  0  0
 51 64  1  0  0  0  0
 52 65  1  0  0  0  0
 53 65  1  0  0  0  0
 54 65  1  0  0  0  0
 55 75  1  0  0  0  0
 56 58  1  0  0  0  0
 57 59  1  0  0  0  0
 58 61  1  0  0  0  0
 59 60  1  0  0  0  0
 60 62  1  0  0  0  0
 61 74  1  0  0  0  0
 62 82  1  0  0  0  0
 63 65  1  0  0  0  0
 63 73  1  0  0  0  0
 64 75  1  0  0  0  0
 66 67  1  0  0  0  0
M  CHG  1  75   1
M  ISO  4  38 100  62 101  74 100  82 101
M  END
> <Batch ID>
0037

> <Smiles>
CNC(C)C(=O)NC(C(=O)N1Cc2cc([101O:1][101CH2:1]CCCc3ccc(CCC[100NH:0][100C:0](=O)N4CCCC(n5nc(-c6ccc(Oc7ccc(F)cc7F)cc6)c(C(N)=O)c5N)C4)cc3Cl)ccc2CC1C(=O)NC1CCCc2ccccc21)C(C)(C)C

> <Shape>
0.298

> <Color>
0.059

> <Negative vol penalty>
0.000

$$$$

  -OEChem-04052316593D

 81 89  0     1  0  0  0  0  0999 V2000
  -18.5835  -30.8480   26.3664 C   0  0  0  0  0  0  0  0  0  0  0  0
  -19.9466  -30.5707   26.3869 C   0  0  0  0  0  0  0  0  0  0  0  0
  -22.0358  -15.5228   22.0441 C   0  0  0  0  0  0  0  0  0  0  0  0
  -24.1825  -14.9235   21.1115 C   0  0  0  0  0  0  0  0  0  0  0  0
  -17.7922  -30.3726   25.3216 C   0  0  0  0  0  0  0  0  0  0  0  0
  -20.5190  -29.8167   25.3631 C   0  0  0  0  0  0  0  0  0  0  0  0
  -26.6136  -29.1502   21.6580 C   0  0  0  0  0  0  0  0  0  0  0  0
  -21.5228  -14.2841   21.6593 C   0  0  0  0  0  0  0  0  0  0  0  0
  -23.6695  -13.6848   20.7267 C   0  0  0  0  0  0  0  0  0  0  0  0
  -27.5476  -28.1844   21.2857 C   0  0  0  0  0  0  0  0  0  0  0  0
  -22.9731  -10.7171   22.1855 C   0  0  0  0  0  0  0  0  0  0  0  0
  -23.7512   -9.5877   22.4400 C   0  0  0  0  0  0  0  0  0  0  0  0
  -26.0972  -27.4825   19.4905 C   0  0  0  0  0  0  0  0  0  0  0  0
  -29.2857  -23.8608   18.3596 C   0  0  0  0  0  0  0  0  0  0  0  0
  -23.8059   -9.0928   20.0758 C   0  0  0  0  0  0  0  0  0  0  0  0
  -30.8676  -22.4367   20.0670 C   0  0  0  0  0  0  0  0  0  0  0  0
  -23.3656  -15.8425   21.7702 C   0  0  0  0  0  0  0  0  0  0  0  0
  -24.5167  -17.4432   23.3890 C   0  0  0  0  0  0  0  0  0  0  0  0
  -18.3569  -29.6205   24.2794 C   0  0  0  0  0  0  0  0  0  0  0  0
  -25.4075  -29.2824   20.9549 C   0  0  0  0  0  0  0  0  0  0  0  0
  -19.7343  -29.3296   24.3040 C   0  0  0  0  0  0  0  0  0  0  0  0
  -25.1506  -28.4525   19.8543 C   0  0  0  0  0  0  0  0  0  0  0  0
  -29.1289  -22.4819   18.4448 C   0  0  0  0  0  0  0  0  0  0  0  0
  -22.3396  -13.3651   21.0006 C   0  0  0  0  0  0  0  0  0  0  0  0
  -27.2882  -27.3484   20.2036 C   0  0  0  0  0  0  0  0  0  0  0  0
  -22.6113  -11.0343   20.8762 C   0  0  0  0  0  0  0  0  0  0  0  0
  -24.1676   -8.7756   21.3851 C   0  0  0  0  0  0  0  0  0  0  0  0
  -23.0278  -10.2221   19.8214 C   0  0  0  0  0  0  0  0  0  0  0  0
  -29.9309  -21.7489   19.3124 C   0  0  0  0  0  0  0  0  0  0  0  0
  -23.8960  -17.1222   22.1670 C   0  0  0  0  0  0  0  0  0  0  0  0
  -30.2511  -24.4541   19.1570 C   0  0  0  0  0  0  0  0  0  0  0  0
  -24.8381  -18.7734   23.2719 C   0  0  0  0  0  0  0  0  0  0  0  0
  -24.7793  -16.6132   24.5282 C   0  0  0  0  0  0  0  0  0  0  0  0
  -22.3322  -28.9804   21.6998 C   0  0  0  0  0  0  0  0  0  0  0  0
  -21.8940  -30.0776   18.6788 C   0  0  0  0  0  0  0  0  0  0  0  0
  -23.1445  -30.4644   15.5271 C   0  0  0  0  0  0  0  0  0  0  0  0
  -25.8630  -22.3207   18.5583 C   0  0  0  0  0  0  0  0  0  0  0  0
  -17.4529  -29.0880   23.1960 C   0  0  0  0  0  0  0  0  0  0  0  0
  -24.4222  -30.3470   21.3526 C   0  0  0  0  0  0  0  0  0  0  0  0
  -23.8799  -28.5673   19.0540 C   0  0  0  0  0  0  0  0  0  0  0  0
  -18.2040  -28.6138   21.9545 C   0  0  0  0  0  0  0  0  0  0  0  0
  -23.4151  -22.7922   21.1004 C   0  0  0  0  0  0  0  0  0  0  0  0
  -19.3939  -27.7451   22.3498 C   0  0  0  0  0  0  0  0  0  0  0  0
  -23.3168  -21.4215   21.7723 C   0  0  0  0  0  0  0  0  0  0  0  0
  -23.6402  -22.6680   19.5951 C   0  0  0  0  0  0  0  0  0  0  0  0
  -24.6901  -20.4566   19.8797 C   0  0  0  0  0  0  0  0  0  0  0  0
  -20.3965  -28.5360   23.1987 C   0  0  1  0  0  0  0  0  0  0  0  0
  -23.0009  -30.0506   20.8842 C   0  0  1  0  0  0  0  0  0  0  0  0
  -24.5190  -20.5303   21.4067 C   0  0  2  0  0  0  0  0  0  0  0  0
  -22.5389  -31.3647   13.2643 C   0  0  0  0  0  0  0  0  0  0  0  0
  -20.1326  -27.6363   18.1815 C   0  0  0  0  0  0  0  0  0  0  0  0
  -20.3426  -28.0719   15.7250 C   0  0  0  0  0  0  0  0  0  0  0  0
  -19.2629  -29.7670   17.2027 C   0  0  0  0  0  0  0  0  0  0  0  0
  -25.3618  -32.4237   15.5850 C   0  0  0  0  0  0  0  0  0  0  0  0
  -28.0939  -21.8254   17.5904 C   0  0  0  0  0  0  0  0  0  0  0  0
  -30.4489  -25.9490   19.0917 C   0  0  0  0  0  0  0  0  0  0  0  0
  -29.5719  -26.6941   20.0922 C   0  0  0  0  0  0  0  0  0  1  0  0
  -21.7671  -29.4383   17.3171 C   0  0  1  0  0  0  0  0  0  0  0  0
  -23.1929  -31.6680   14.6033 C   0  0  2  0  0  0  0  0  0  0  0  0
  -20.3995  -28.7246   17.1227 C   0  0  0  0  0  0  0  0  0  0  0  0
  -31.0490  -23.7752   20.0114 N   0  0  0  0  0  0  0  0  0  0  0  0
  -23.8260  -18.1645   21.3347 N   0  0  0  0  0  0  0  0  0  0  0  0
  -24.4068  -19.1535   22.0351 N   0  0  0  0  0  0  0  0  0  0  0  0
  -22.9449  -29.6193   19.4859 N   0  0  0  0  0  0  0  0  0  0  0  0
  -24.7955  -21.8117   19.3162 N   0  0  0  0  0  0  0  0  0  0  0  0
  -25.4446  -19.6433   24.1072 N   0  0  0  0  0  0  0  0  0  0  0  0
  -24.3831  -15.2696   24.4815 N   0  0  0  0  0  0  0  0  0  0  0  0
  -21.1947  -29.4043   22.3599 N   0  0  0  0  0  0  0  0  0  0  0  0
  -22.0346  -30.4925   16.3447 N   0  0  0  0  0  0  0  0  0  0  0  0
  -26.9210  -21.4453   18.3458 N   0  0  0  0  0  0  0  0  0  0  0  0
  -24.6052  -32.0740   14.3553 N   0  3  0  0  0  0  0  0  0  0  0  0
  -25.3338  -17.0541   25.5634 O   0  0  0  0  0  0  0  0  0  0  0  0
  -22.8120  -27.8531   21.7271 O   0  0  0  0  0  0  0  0  0  0  0  0
  -21.0947  -30.9563   19.0112 O   0  0  0  0  0  0  0  0  0  0  0  0
  -24.0032  -29.5851   15.5211 O   0  0  0  0  0  0  0  0  0  0  0  0
  -25.8749  -23.4718   18.1092 O   0  0  0  0  0  0  0  0  0  0  0  0
  -21.8394  -12.1562   20.6252 O   0  0  0  0  0  0  0  0  0  0  0  0
  -28.1979  -26.4045   19.8384 O   0  0  0  0  0  0  0  0  0  1  0  0
  -24.9161   -7.6920   21.6295 F   0  0  0  0  0  0  0  0  0  0  0  0
  -22.6844  -10.5224   18.5613 F   0  0  0  0  0  0  0  0  0  0  0  0
  -29.7941  -20.0417   19.4680 Cl  0  0  0  0  0  0  0  0  0  0  0  0
  1  2  1  0  0  0  0
  1  5  2  0  0  0  0
  2  6  2  0  0  0  0
  3  8  2  0  0  0  0
  3 17  1  0  0  0  0
  4  9  1  0  0  0  0
  4 17  2  0  0  0  0
  5 19  1  0  0  0  0
  6 21  1  0  0  0  0
  7 10  2  0  0  0  0
  7 20  1  0  0  0  0
  8 24  1  0  0  0  0
  9 24  2  0  0  0  0
 10 25  1  0  0  0  0
 11 12  2  0  0  0  0
 11 26  1  0  0  0  0
 12 27  1  0  0  0  0
 13 22  1  0  0  0  0
 13 25  2  0  0  0  0
 14 23  2  0  0  0  0
 14 31  1  0  0  0  0
 15 27  2  0  0  0  0
 15 28  1  0  0  0  0
 16 29  2  0  0  0  0
 16 61  1  0  0  0  0
 17 30  1  0  0  0  0
 18 30  1  0  0  0  0
 18 32  2  0  0  0  0
 18 33  1  0  0  0  0
 19 21  2  0  0  0  0
 19 38  1  0  0  0  0
 20 22  2  0  0  0  0
 20 39  1  0  0  0  0
 21 47  1  0  0  0  0
 22 40  1  0  0  0  0
 23 29  1  0  0  0  0
 23 55  1  0  0  0  0
 24 77  1  0  0  0  0
 25 78  1  0  0  0  0
 26 28  2  0  0  0  0
 26 77  1  0  0  0  0
 27 79  1  0  0  0  0
 28 80  1  0  0  0  0
 29 81  1  0  0  0  0
 30 62  2  0  0  0  0
 31 56  1  0  0  0  0
 31 61  2  0  0  0  0
 32 63  1  0  0  0  0
 32 66  1  0  0  0  0
 33 67  1  0  0  0  0
 33 72  2  0  0  0  0
 34 48  1  0  0  0  0
 34 68  1  0  0  0  0
 34 73  2  0  0  0  0
 35 58  1  0  0  0  0
 35 64  1  0  0  0  0
 35 74  2  0  0  0  0
 36 59  1  0  0  0  0
 36 69  1  0  0  0  0
 36 75  2  0  0  0  0
 37 65  1  0  0  0  0
 37 70  1  0  0  0  0
 37 76  2  0  0  0  0
 38 41  1  0  0  0  0
 39 48  1  0  0  0  0
 40 64  1  0  0  0  0
 41 43  1  0  0  0  0
 42 44  1  0  0  0  0
 42 45  1  0  0  0  0
 43 47  1  0  0  0  0
 44 49  1  0  0  0  0
 45 65  1  0  0  0  0
 46 49  1  0  0  0  0
 46 65  1  0  0  0  0
 47 68  1  0  0  0  0
 48 64  1  0  0  0  0
 49 63  1  0  0  0  0
 50 59  1  0  0  0  0
 51 60  1  0  0  0  0
 52 60  1  0  0  0  0
 53 60  1  0  0  0  0
 54 71  1  0  0  0  0
 55 70  1  0  0  0  0
 56 57  1  0  0  0  0
 57 78  1  0  0  0  0
 58 60  1  0  0  0  0
 58 69  1  0  0  0  0
 59 71  1  0  0  0  0
 62 63  1  0  0  0  0
M  CHG  1  71   1
M  ISO  4  37 100  57 101  70 100  78 101
M  END
> <Batch ID>
0037

> <Smiles>
CNC(C)C(=O)NC(C(=O)N1Cc2cc([101O:1][101CH2:1]Cc3cc(C[100NH:0][100C:0](=O)N4CCCC(n5nc(-c6ccc(Oc7ccc(F)cc7F)cc6)c(C(N)=O)c5N)C4)c(Cl)cn3)ccc2CC1C(=O)NC1CCCc2ccccc21)C(C)(C)C

> <Shape>
0.216

> <Color>
0.074

> <Negative vol penalty>
0.000

$$$$

  -OEChem-04052316593D

 86 94  0     1  0  0  0  0  0999 V2000
  -31.0695  -23.9509   15.8881 C   0  0  0  0  0  0  0  0  0  0  0  0
  -30.0573  -24.9025   15.8367 C   0  0  0  0  0  0  0  0  0  0  0  0
  -28.1484  -13.7912   21.9278 C   0  0  0  0  0  0  0  0  0  0  0  0
  -26.8194  -14.8174   20.1905 C   0  0  0  0  0  0  0  0  0  0  0  0
  -31.3426  -23.2932   17.0856 C   0  0  0  0  0  0  0  0  0  0  0  0
  -29.3258  -25.2055   16.9856 C   0  0  0  0  0  0  0  0  0  0  0  0
  -24.5453  -28.8995   17.7785 C   0  0  0  0  0  0  0  0  0  0  0  0
  -19.3197  -23.9514   20.0424 C   0  0  0  0  0  0  0  0  0  0  0  0
  -27.4830  -12.5825   21.7229 C   0  0  0  0  0  0  0  0  0  0  0  0
  -26.1541  -13.6087   19.9856 C   0  0  0  0  0  0  0  0  0  0  0  0
  -23.1547  -28.8023   17.7554 C   0  0  0  0  0  0  0  0  0  0  0  0
  -23.8562  -10.8903   19.2508 C   0  0  0  0  0  0  0  0  0  0  0  0
  -22.4682  -10.9286   19.1188 C   0  0  0  0  0  0  0  0  0  0  0  0
  -20.0282  -22.8349   20.4725 C   0  0  0  0  0  0  0  0  0  0  0  0
  -23.1376  -28.5618   20.1556 C   0  0  0  0  0  0  0  0  0  0  0  0
  -22.2844  -11.8862   21.3293 C   0  0  0  0  0  0  0  0  0  0  0  0
  -27.8165  -14.9087   21.1617 C   0  0  0  0  0  0  0  0  0  0  0  0
  -29.6777  -16.6006   20.7362 C   0  0  0  0  0  0  0  0  0  0  0  0
  -30.6053  -23.5799   18.2463 C   0  0  0  0  0  0  0  0  0  0  0  0
  -25.2445  -28.8175   18.9913 C   0  0  0  0  0  0  0  0  0  0  0  0
  -29.6023  -24.5699   18.2096 C   0  0  0  0  0  0  0  0  0  0  0  0
  -24.5369  -28.6608   20.1917 C   0  0  0  0  0  0  0  0  0  0  0  0
  -19.2170  -25.0639   20.8701 C   0  0  0  0  0  0  0  0  0  0  0  0
  -26.4859  -12.4913   20.7517 C   0  0  0  0  0  0  0  0  0  0  0  0
  -22.4509  -28.6305   18.9437 C   0  0  0  0  0  0  0  0  0  0  0  0
  -24.4584  -11.3499   20.4221 C   0  0  0  0  0  0  0  0  0  0  0  0
  -21.6822  -11.4266   20.1580 C   0  0  0  0  0  0  0  0  0  0  0  0
  -23.6724  -11.8479   21.4613 C   0  0  0  0  0  0  0  0  0  0  0  0
  -28.5031  -16.1576   21.3733 C   0  0  0  0  0  0  0  0  0  0  0  0
  -20.6108  -22.8808   21.7288 C   0  0  0  0  0  0  0  0  0  0  0  0
  -19.8357  -25.0099   22.1087 C   0  0  0  0  0  0  0  0  0  0  0  0
  -29.9185  -17.8379   21.2817 C   0  0  0  0  0  0  0  0  0  0  0  0
  -30.4794  -15.9517   19.7402 C   0  0  0  0  0  0  0  0  0  0  0  0
  -27.4181  -26.8369   20.1979 C   0  0  0  0  0  0  0  0  0  0  0  0
  -27.4744  -28.9960   22.6180 C   0  0  0  0  0  0  0  0  0  0  0  0
  -25.8585  -31.4586   24.3418 C   0  0  0  0  0  0  0  0  0  0  0  0
  -26.3702  -21.9273   23.8385 C   0  0  0  0  0  0  0  0  0  0  0  0
  -30.9480  -22.8439   19.5175 C   0  0  0  0  0  0  0  0  0  0  0  0
  -26.7427  -28.9510   19.0020 C   0  0  0  0  0  0  0  0  0  0  0  0
  -25.2389  -28.5872   21.5222 C   0  0  0  0  0  0  0  0  0  0  0  0
  -29.8365  -22.9083   20.5599 C   0  0  0  0  0  0  0  0  0  0  0  0
  -29.2239  -20.3648   25.2846 C   0  0  0  0  0  0  0  0  0  0  0  0
  -29.3751  -24.3468   20.7397 C   0  0  0  0  0  0  0  0  0  0  0  0
  -29.4688  -19.1494   24.3887 C   0  0  0  0  0  0  0  0  0  0  0  0
  -27.7331  -20.6445   25.4612 C   0  0  0  0  0  0  0  0  0  0  0  0
  -27.2195  -19.5624   23.3074 C   0  0  0  0  0  0  0  0  0  0  0  0
  -28.7731  -24.8938   19.4392 C   0  0  1  0  0  0  0  0  0  0  0  0
  -27.3882  -28.3385   20.2411 C   0  0  1  0  0  0  0  0  0  0  0  0
  -28.7092  -19.2743   23.0542 C   0  0  2  0  0  0  0  0  0  0  0  0
  -20.7495  -26.0585   24.1948 C   0  0  0  0  0  0  0  0  0  0  0  0
  -26.1438  -33.0091   26.2942 C   0  0  0  0  0  0  0  0  0  0  0  0
  -26.9591  -26.6765   24.5323 C   0  0  0  0  0  0  0  0  0  0  0  0
  -26.3167  -28.3517   26.2785 C   0  0  0  0  0  0  0  0  0  0  0  0
  -28.6305  -28.3493   25.3463 C   0  0  0  0  0  0  0  0  0  0  0  0
  -25.6066  -33.8553   22.6239 C   0  0  0  0  0  0  0  0  0  0  0  0
  -18.4490  -26.2771   20.4099 C   0  0  0  0  0  0  0  0  0  0  0  0
  -21.3800  -21.7007   22.2214 C   0  0  0  0  0  0  0  0  0  0  0  0
  -19.7614  -26.1765   23.0384 C   0  0  0  0  0  0  0  0  0  0  0  0
  -19.2030  -27.1329   19.3897 C   0  0  0  0  0  0  0  0  0  0  0  0
  -22.8667  -21.7767   21.8414 C   0  0  0  0  0  0  0  0  0  0  0  0
  -23.5468  -23.0022   22.4590 C   0  0  0  0  0  0  0  0  0  0  0  0
  -25.0278  -23.0912   22.1057 C   0  0  0  0  0  0  0  0  0  0  0  0
  -20.4831  -27.7465   19.9449 C   0  0  0  0  0  0  0  0  0  1  0  0
  -26.7173  -29.1711   23.9123 C   0  0  1  0  0  0  0  0  0  0  0  0
  -26.3108  -32.8358   24.7926 C   0  0  2  0  0  0  0  0  0  0  0  0
  -27.1425  -28.1365   24.9923 C   0  0  0  0  0  0  0  0  0  0  0  0
  -28.0306  -17.0416   22.2561 N   0  0  0  0  0  0  0  0  0  0  0  0
  -20.5325  -23.9433   22.5609 N   0  0  0  0  0  0  0  0  0  0  0  0
  -28.9128  -18.0523   22.1777 N   0  0  0  0  0  0  0  0  0  0  0  0
  -26.7049  -28.7164   21.4798 N   0  0  0  0  0  0  0  0  0  0  0  0
  -27.0719  -20.7534   24.1586 N   0  0  0  0  0  0  0  0  0  0  0  0
  -30.8902  -18.7525   21.0776 N   0  0  0  0  0  0  0  0  0  0  0  0
  -30.0889  -14.6830   19.2906 N   0  0  0  0  0  0  0  0  0  0  0  0
  -28.5417  -26.3139   19.5868 N   0  0  0  0  0  0  0  0  0  0  0  0
  -26.9056  -30.5620   24.3104 N   0  0  0  0  0  0  0  0  0  0  0  0
  -25.7783  -21.9506   22.5815 N   0  0  0  0  0  0  0  0  0  0  0  0
  -25.5154  -33.8927   24.1062 N   0  3  0  0  0  0  0  0  0  0  0  0
  -31.5206  -16.4742   19.2751 O   0  0  0  0  0  0  0  0  0  0  0  0
  -26.4912  -26.1998   20.6843 O   0  0  0  0  0  0  0  0  0  0  0  0
  -28.7026  -29.1103   22.6157 O   0  0  0  0  0  0  0  0  0  0  0  0
  -24.6922  -31.2027   24.0506 O   0  0  0  0  0  0  0  0  0  0  0  0
  -26.2824  -22.8860   24.6132 O   0  0  0  0  0  0  0  0  0  0  0  0
  -25.8366  -11.3119   20.5513 O   0  0  0  0  0  0  0  0  0  0  0  0
  -21.0935  -28.5347   18.9239 O   0  0  0  0  0  0  0  0  0  1  0  0
  -20.3494  -11.4647   20.0305 F   0  0  0  0  0  0  0  0  0  0  0  0
  -24.2453  -12.2919   22.5885 F   0  0  0  0  0  0  0  0  0  0  0  0
  1  2  1  0  0  0  0
  1  5  2  0  0  0  0
  2  6  2  0  0  0  0
  3  9  2  0  0  0  0
  3 17  1  0  0  0  0
  4 10  1  0  0  0  0
  4 17  2  0  0  0  0
  5 19  1  0  0  0  0
  6 21  1  0  0  0  0
  7 11  2  0  0  0  0
  7 20  1  0  0  0  0
  8 14  2  0  0  0  0
  8 23  1  0  0  0  0
  9 24  1  0  0  0  0
 10 24  2  0  0  0  0
 11 25  1  0  0  0  0
 12 13  2  0  0  0  0
 12 26  1  0  0  0  0
 13 27  1  0  0  0  0
 14 30  1  0  0  0  0
 15 22  1  0  0  0  0
 15 25  2  0  0  0  0
 16 27  2  0  0  0  0
 16 28  1  0  0  0  0
 17 29  1  0  0  0  0
 18 29  1  0  0  0  0
 18 32  2  0  0  0  0
 18 33  1  0  0  0  0
 19 21  2  0  0  0  0
 19 38  1  0  0  0  0
 20 22  2  0  0  0  0
 20 39  1  0  0  0  0
 21 47  1  0  0  0  0
 22 40  1  0  0  0  0
 23 31  2  0  0  0  0
 23 56  1  0  0  0  0
 24 83  1  0  0  0  0
 25 84  1  0  0  0  0
 26 28  2  0  0  0  0
 26 83  1  0  0  0  0
 27 85  1  0  0  0  0
 28 86  1  0  0  0  0
 29 67  2  0  0  0  0
 30 57  1  0  0  0  0
 30 68  2  0  0  0  0
 31 58  1  0  0  0  0
 31 68  1  0  0  0  0
 32 69  1  0  0  0  0
 32 72  1  0  0  0  0
 33 73  1  0  0  0  0
 33 78  2  0  0  0  0
 34 48  1  0  0  0  0
 34 74  1  0  0  0  0
 34 79  2  0  0  0  0
 35 64  1  0  0  0  0
 35 70  1  0  0  0  0
 35 80  2  0  0  0  0
 36 65  1  0  0  0  0
 36 75  1  0  0  0  0
 36 81  2  0  0  0  0
 37 71  1  0  0  0  0
 37 76  1  0  0  0  0
 37 82  2  0  0  0  0
 38 41  1  0  0  0  0
 39 48  1  0  0  0  0
 40 70  1  0  0  0  0
 41 43  1  0  0  0  0
 42 44  1  0  0  0  0
 42 45  1  0  0  0  0
 43 47  1  0  0  0  0
 44 49  1  0  0  0  0
 45 71  1  0  0  0  0
 46 49  1  0  0  0  0
 46 71  1  0  0  0  0
 47 74  1  0  0  0  0
 48 70  1  0  0  0  0
 49 69  1  0  0  0  0
 50 58  1  0  0  0  0
 51 65  1  0  0  0  0
 52 66  1  0  0  0  0
 53 66  1  0  0  0  0
 54 66  1  0  0  0  0
 55 77  1  0  0  0  0
 56 59  1  0  0  0  0
 57 60  1  0  0  0  0
 59 63  1  0  0  0  0
 60 61  1  0  0  0  0
 61 62  1  0  0  0  0
 62 76  1  0  0  0  0
 63 84  1  0  0  0  0
 64 66  1  0  0  0  0
 64 75  1  0  0  0  0
 65 77  1  0  0  0  0
 67 69  1  0  0  0  0
M  CHG  1  77   1
M  ISO  4  37 100  63 101  76 100  84 101
M  END
> <Batch ID>
0037

> <Smiles>
CCc1nc(CCCC[100NH:0][100C:0](=O)N2CCCC(n3nc(-c4ccc(Oc5ccc(F)cc5F)cc4)c(C(N)=O)c3N)C2)ccc1CC[101CH2:1][101O:1]c1ccc2c(c1)CN(C(=O)C(NC(=O)C(C)NC)C(C)(C)C)C(C(=O)NC1CCCc3ccccc31)C2

> <Shape>
0.254

> <Color>
0.055

> <Negative vol penalty>
0.000

$$$$

  -OEChem-04052316593D

 84 92  0     1  0  0  0  0  0999 V2000
  -17.2668  -30.5698   23.6625 C   0  0  0  0  0  0  0  0  0  0  0  0
  -18.2163  -30.4161   24.6676 C   0  0  0  0  0  0  0  0  0  0  0  0
  -26.7582  -18.1227   18.9665 C   0  0  0  0  0  0  0  0  0  0  0  0
  -28.0941  -17.6820   20.9307 C   0  0  0  0  0  0  0  0  0  0  0  0
  -17.2913  -29.7324   22.5480 C   0  0  0  0  0  0  0  0  0  0  0  0
  -19.1903  -29.4241   24.5593 C   0  0  0  0  0  0  0  0  0  0  0  0
  -26.0139  -28.0882   26.2826 C   0  0  0  0  0  0  0  0  0  0  0  0
  -26.6146  -16.7512   18.7563 C   0  0  0  0  0  0  0  0  0  0  0  0
  -27.9505  -16.3105   20.7206 C   0  0  0  0  0  0  0  0  0  0  0  0
  -26.7946  -27.1274   26.9237 C   0  0  0  0  0  0  0  0  0  0  0  0
  -29.3003  -13.9417   18.7212 C   0  0  0  0  0  0  0  0  0  0  0  0
  -30.4390  -13.1451   18.8407 C   0  0  0  0  0  0  0  0  0  0  0  0
  -26.7879  -25.7907   24.9156 C   0  0  0  0  0  0  0  0  0  0  0  0
  -29.3788  -11.8961   20.6164 C   0  0  0  0  0  0  0  0  0  0  0  0
  -30.8647  -23.6292   27.3918 C   0  0  0  0  0  0  0  0  0  0  0  0
  -27.4979  -18.5880   20.0536 C   0  0  0  0  0  0  0  0  0  0  0  0
  -26.8071  -20.8413   21.0301 C   0  0  0  0  0  0  0  0  0  0  0  0
  -18.2720  -28.7360   22.4213 C   0  0  0  0  0  0  0  0  0  0  0  0
  -25.6045  -27.9021   24.9544 C   0  0  0  0  0  0  0  0  0  0  0  0
  -19.2272  -28.5718   23.4426 C   0  0  0  0  0  0  0  0  0  0  0  0
  -26.0042  -26.7519   24.2591 C   0  0  0  0  0  0  0  0  0  0  0  0
  -27.2108  -15.8451   19.6334 C   0  0  0  0  0  0  0  0  0  0  0  0
  -27.1793  -25.9771   26.2412 C   0  0  0  0  0  0  0  0  0  0  0  0
  -28.2008  -13.7156   19.5493 C   0  0  0  0  0  0  0  0  0  0  0  0
  -30.4782  -12.1223   19.7883 C   0  0  0  0  0  0  0  0  0  0  0  0
  -28.2401  -12.6928   20.4969 C   0  0  0  0  0  0  0  0  0  0  0  0
  -27.6470  -20.0046   20.2709 C   0  0  0  0  0  0  0  0  0  0  0  0
  -30.1233  -24.0050   28.5279 C   0  0  0  0  0  0  0  0  0  0  0  0
  -32.1370  -24.0788   27.6479 C   0  0  0  0  0  0  0  0  0  0  0  0
  -27.3761  -22.0868   20.9236 C   0  0  0  0  0  0  0  0  0  0  0  0
  -25.6189  -20.5211   21.7658 C   0  0  0  0  0  0  0  0  0  0  0  0
  -22.7969  -27.6192   23.4912 C   0  0  0  0  0  0  0  0  0  0  0  0
  -24.6264  -27.6767   20.8131 C   0  0  0  0  0  0  0  0  0  0  0  0
  -27.6762  -27.1477   19.3759 C   0  0  0  0  0  0  0  0  0  0  0  0
  -31.8607  -25.4082   20.9638 C   0  0  0  0  0  0  0  0  0  0  0  0
  -18.2296  -27.8241   21.2208 C   0  0  0  0  0  0  0  0  0  0  0  0
  -24.7850  -28.9606   24.2685 C   0  0  0  0  0  0  0  0  0  0  0  0
  -25.6080  -26.5141   22.8256 C   0  0  0  0  0  0  0  0  0  0  0  0
  -19.5225  -27.0420   21.0039 C   0  0  0  0  0  0  0  0  0  0  0  0
  -31.0658  -23.7735   17.9024 C   0  0  0  0  0  0  0  0  0  0  0  0
  -20.0047  -26.4332   22.3167 C   0  0  0  0  0  0  0  0  0  0  0  0
  -30.0415  -22.7128   18.3094 C   0  0  0  0  0  0  0  0  0  0  0  0
  -32.1390  -23.9615   18.9724 C   0  0  0  0  0  0  0  0  0  0  0  0
  -30.5983  -23.1837   20.7316 C   0  0  0  0  0  0  0  0  0  0  0  0
  -20.3147  -27.5235   23.3495 C   0  0  1  0  0  0  0  0  0  0  0  0
  -23.9949  -28.4264   23.0778 C   0  0  1  0  0  0  0  0  0  0  0  0
  -29.4642  -22.9985   19.7088 C   0  0  2  0  0  0  0  0  0  0  0  0
  -28.8541  -27.2444   17.1622 C   0  0  0  0  0  0  0  0  0  0  0  0
  -23.2638  -25.0777   19.9774 C   0  0  0  0  0  0  0  0  0  0  0  0
  -25.0974  -24.7349   18.3074 C   0  0  0  0  0  0  0  0  0  0  0  0
  -23.6006  -26.7220   18.1234 C   0  0  0  0  0  0  0  0  0  0  0  0
  -33.1729  -25.3009   29.5838 C   0  0  0  0  0  0  0  0  0  0  0  0
  -29.5869  -29.1870   20.3505 C   0  0  0  0  0  0  0  0  0  0  0  0
  -28.6561  -23.7657   28.7892 C   0  0  0  0  0  0  0  0  0  0  0  0
  -33.3728  -23.9957   26.8482 C   0  0  0  0  0  0  0  0  0  0  0  0
  -33.5596  -25.2041   25.9075 C   0  0  0  0  0  0  0  0  0  0  0  0
  -32.3909  -25.3706   24.9340 C   0  0  0  0  0  0  0  0  0  0  0  0
  -32.6208  -26.5524   23.9874 C   0  0  0  0  0  0  0  0  0  0  0  0
  -31.4665  -26.7544   23.0112 C   0  0  0  0  0  0  0  0  0  0  0  0
  -27.7824  -24.9055   28.2769 C   0  0  0  0  0  0  0  0  0  1  0  0
  -25.3233  -26.6348   19.9719 C   0  0  1  0  0  0  0  0  0  0  0  0
  -28.5081  -28.0008   18.4353 C   0  0  2  0  0  0  0  0  0  0  0  0
  -24.3273  -25.7956   19.1226 C   0  0  0  0  0  0  0  0  0  0  0  0
  -28.6715  -20.6631   19.7225 N   0  0  0  0  0  0  0  0  0  0  0  0
  -30.8630  -24.6440   29.4382 N   0  0  0  0  0  0  0  0  0  0  0  0
  -32.0825  -24.6732   28.8742 N   0  0  0  0  0  0  0  0  0  0  0  0
  -28.4791  -21.9268   20.1375 N   0  0  0  0  0  0  0  0  0  0  0  0
  -24.8012  -27.5752   22.2005 N   0  0  0  0  0  0  0  0  0  0  0  0
  -31.5256  -24.2308   20.2751 N   0  0  0  0  0  0  0  0  0  0  0  0
  -27.0355  -23.2924   21.4266 N   0  0  0  0  0  0  0  0  0  0  0  0
  -25.1732  -19.1923   21.7699 N   0  0  0  0  0  0  0  0  0  0  0  0
  -21.5914  -28.1421   23.0638 N   0  0  0  0  0  0  0  0  0  0  0  0
  -26.3251  -27.3476   19.1865 N   0  0  0  0  0  0  0  0  0  0  0  0
  -31.2295  -25.5892   22.1884 N   0  0  0  0  0  0  0  0  0  0  0  0
  -29.7782  -28.4133   19.0968 N   0  3  0  0  0  0  0  0  0  0  0  0
  -24.9624  -21.3908   22.3873 O   0  0  0  0  0  0  0  0  0  0  0  0
  -22.9547  -26.5967   24.1480 O   0  0  0  0  0  0  0  0  0  0  0  0
  -23.9575  -28.5528   20.2592 O   0  0  0  0  0  0  0  0  0  0  0  0
  -28.1750  -26.3781   20.1941 O   0  0  0  0  0  0  0  0  0  0  0  0
  -32.6590  -26.2394   20.5179 O   0  0  0  0  0  0  0  0  0  0  0  0
  -27.0707  -14.5068   19.4288 O   0  0  0  0  0  0  0  0  0  0  0  0
  -27.9407  -25.0373   26.8648 O   0  0  0  0  0  0  0  0  0  1  0  0
  -31.5712  -11.3563   19.9019 F   0  0  0  0  0  0  0  0  0  0  0  0
  -27.1864  -12.4700   21.2944 F   0  0  0  0  0  0  0  0  0  0  0  0
  1  2  1  0  0  0  0
  1  5  2  0  0  0  0
  2  6  2  0  0  0  0
  3  8  2  0  0  0  0
  3 16  1  0  0  0  0
  4  9  1  0  0  0  0
  4 16  2  0  0  0  0
  5 18  1  0  0  0  0
  6 20  1  0  0  0  0
  7 10  2  0  0  0  0
  7 19  1  0  0  0  0
  8 22  1  0  0  0  0
  9 22  2  0  0  0  0
 10 23  1  0  0  0  0
 11 12  2  0  0  0  0
 11 24  1  0  0  0  0
 12 25  1  0  0  0  0
 13 21  1  0  0  0  0
 13 23  2  0  0  0  0
 14 25  2  0  0  0  0
 14 26  1  0  0  0  0
 15 28  1  0  0  0  0
 15 29  2  0  0  0  0
 16 27  1  0  0  0  0
 17 27  1  0  0  0  0
 17 30  2  0  0  0  0
 17 31  1  0  0  0  0
 18 20  2  0  0  0  0
 18 36  1  0  0  0  0
 19 21  2  0  0  0  0
 19 37  1  0  0  0  0
 20 45  1  0  0  0  0
 21 38  1  0  0  0  0
 22 81  1  0  0  0  0
 23 82  1  0  0  0  0
 24 26  2  0  0  0  0
 24 81  1  0  0  0  0
 25 83  1  0  0  0  0
 26 84  1  0  0  0  0
 27 64  2  0  0  0  0
 28 54  1  0  0  0  0
 28 65  2  0  0  0  0
 29 55  1  0  0  0  0
 29 66  1  0  0  0  0
 30 67  1  0  0  0  0
 30 70  1  0  0  0  0
 31 71  1  0  0  0  0
 31 76  2  0  0  0  0
 32 46  1  0  0  0  0
 32 72  1  0  0  0  0
 32 77  2  0  0  0  0
 33 61  1  0  0  0  0
 33 68  1  0  0  0  0
 33 78  2  0  0  0  0
 34 62  1  0  0  0  0
 34 73  1  0  0  0  0
 34 79  2  0  0  0  0
 35 69  1  0  0  0  0
 35 74  1  0  0  0  0
 35 80  2  0  0  0  0
 36 39  1  0  0  0  0
 37 46  1  0  0  0  0
 38 68  1  0  0  0  0
 39 41  1  0  0  0  0
 40 42  1  0  0  0  0
 40 43  1  0  0  0  0
 41 45  1  0  0  0  0
 42 47  1  0  0  0  0
 43 69  1  0  0  0  0
 44 47  1  0  0  0  0
 44 69  1  0  0  0  0
 45 72  1  0  0  0  0
 46 68  1  0  0  0  0
 47 67  1  0  0  0  0
 48 62  1  0  0  0  0
 49 63  1  0  0  0  0
 50 63  1  0  0  0  0
 51 63  1  0  0  0  0
 52 66  1  0  0  0  0
 53 75  1  0  0  0  0
 54 60  1  0  0  0  0
 55 56  1  0  0  0  0
 56 57  1  0  0  0  0
 57 58  1  0  0  0  0
 58 59  1  0  0  0  0
 59 74  1  0  0  0  0
 60 82  1  0  0  0  0
 61 63  1  0  0  0  0
 61 73  1  0  0  0  0
 62 75  1  0  0  0  0
 64 67  1  0  0  0  0
 65 66  1  0  0  0  0
M  CHG  1  75   1
M  ISO  4  35 100  60 101  74 100  82 101
M  END
> <Batch ID>
0037

> <Smiles>
CNC(C)C(=O)NC(C(=O)N1Cc2cc([101O:1][101CH2:1]Cc3cc(CCCCC[100NH:0][100C:0](=O)N4CCCC(n5nc(-c6ccc(Oc7ccc(F)cc7F)cc6)c(C(N)=O)c5N)C4)n(C)n3)ccc2CC1C(=O)NC1CCCc2ccccc21)C(C)(C)C

> <Shape>
0.222

> <Color>
0.080

> <Negative vol penalty>
0.000

$$$$

  -OEChem-04052316593D

 83 91  0     1  0  0  0  0  0999 V2000
  -19.3994  -28.7220   15.5930 C   0  0  0  0  0  0  0  0  0  0  0  0
  -19.8492  -27.4118   15.7211 C   0  0  0  0  0  0  0  0  0  0  0  0
  -23.0470   -9.9676   19.8737 C   0  0  0  0  0  0  0  0  0  0  0  0
  -23.8531   -9.8157   22.1462 C   0  0  0  0  0  0  0  0  0  0  0  0
  -20.2959  -29.7360   15.2584 C   0  0  0  0  0  0  0  0  0  0  0  0
  -21.1957  -27.1147   15.5137 C   0  0  0  0  0  0  0  0  0  0  0  0
  -24.5230  -22.8802   18.4300 C   0  0  0  0  0  0  0  0  0  0  0  0
  -22.3077   -8.7993   20.0578 C   0  0  0  0  0  0  0  0  0  0  0  0
  -23.1138   -8.6473   22.3303 C   0  0  0  0  0  0  0  0  0  0  0  0
  -24.8950  -21.5807   18.0884 C   0  0  0  0  0  0  0  0  0  0  0  0
  -23.3915   -5.3724   21.5374 C   0  0  0  0  0  0  0  0  0  0  0  0
  -24.0208   -4.3001   22.1697 C   0  0  0  0  0  0  0  0  0  0  0  0
  -27.0052  -22.4083   17.2629 C   0  0  0  0  0  0  0  0  0  0  0  0
  -29.2845  -18.6467   17.6538 C   0  0  0  0  0  0  0  0  0  0  0  0
  -28.5355  -17.9962   19.8567 C   0  0  0  0  0  0  0  0  0  0  0  0
  -22.3543   -4.3531   23.9182 C   0  0  0  0  0  0  0  0  0  0  0  0
  -23.8198  -10.4758   20.9179 C   0  0  0  0  0  0  0  0  0  0  0  0
  -24.1605  -13.0035   20.9670 C   0  0  0  0  0  0  0  0  0  0  0  0
  -21.6559  -29.4527   15.0562 C   0  0  0  0  0  0  0  0  0  0  0  0
  -25.3862  -23.9566   18.1802 C   0  0  0  0  0  0  0  0  0  0  0  0
  -22.1110  -28.1256   15.1748 C   0  0  0  0  0  0  0  0  0  0  0  0
  -26.6428  -23.7202   17.6046 C   0  0  0  0  0  0  0  0  0  0  0  0
  -28.2819  -18.1652   18.4955 C   0  0  0  0  0  0  0  0  0  0  0  0
  -30.5409  -18.9589   18.1732 C   0  0  0  0  0  0  0  0  0  0  0  0
  -29.7918  -18.3085   20.3761 C   0  0  0  0  0  0  0  0  0  0  0  0
  -30.7945  -18.7899   19.5343 C   0  0  0  0  0  0  0  0  0  0  0  0
  -22.3411   -8.1391   21.2861 C   0  0  0  0  0  0  0  0  0  0  0  0
  -26.1351  -21.3449   17.5021 C   0  0  0  0  0  0  0  0  0  0  0  0
  -22.2436   -5.9351   22.0955 C   0  0  0  0  0  0  0  0  0  0  0  0
  -23.5023   -3.7905   23.3601 C   0  0  0  0  0  0  0  0  0  0  0  0
  -21.7251   -5.4255   23.2859 C   0  0  0  0  0  0  0  0  0  0  0  0
  -24.5842  -11.6824   20.7281 C   0  0  0  0  0  0  0  0  0  0  0  0
  -25.2455  -13.7774   20.6347 C   0  0  0  0  0  0  0  0  0  0  0  0
  -22.8990  -13.4878   21.4463 C   0  0  0  0  0  0  0  0  0  0  0  0
  -25.2387  -26.5829   16.3957 C   0  0  0  0  0  0  0  0  0  0  0  0
  -28.0502  -27.2672   17.8619 C   0  0  0  0  0  0  0  0  0  0  0  0
  -30.8265  -26.1218   19.4827 C   0  0  0  0  0  0  0  0  0  0  0  0
  -30.7325  -14.7856   20.7828 C   0  0  0  0  0  0  0  0  0  0  0  0
  -22.5785  -30.5744   14.6498 C   0  0  0  0  0  0  0  0  0  0  0  0
  -24.9810  -25.3491   18.5791 C   0  0  0  0  0  0  0  0  0  0  0  0
  -27.6144  -24.8388   17.3343 C   0  0  0  0  0  0  0  0  0  0  0  0
  -24.0579  -30.2361   14.8141 C   0  0  0  0  0  0  0  0  0  0  0  0
  -29.5456  -12.5719   18.2593 C   0  0  0  0  0  0  0  0  0  0  0  0
  -24.3565  -28.8545   14.2407 C   0  0  0  0  0  0  0  0  0  0  0  0
  -28.1170  -12.2475   18.6997 C   0  0  0  0  0  0  0  0  0  0  0  0
  -30.4869  -12.7094   19.4539 C   0  0  0  0  0  0  0  0  0  0  0  0
  -28.6140  -13.3406   20.9261 C   0  0  0  0  0  0  0  0  0  0  0  0
  -23.5687  -27.7676   14.9820 C   0  0  1  0  0  0  0  0  0  0  0  0
  -25.7284  -26.4329   17.8082 C   0  0  1  0  0  0  0  0  0  0  0  0
  -27.6161  -13.2476   19.7591 C   0  0  2  0  0  0  0  0  0  0  0  0
  -31.5970  -19.4738   17.2506 C   0  0  0  0  0  0  0  0  0  0  0  0
  -32.1415  -19.1252   20.0910 C   0  0  0  0  0  0  0  0  0  0  0  0
  -32.9655  -26.9156   20.5275 C   0  0  0  0  0  0  0  0  0  0  0  0
  -29.2598  -27.6520   15.0873 C   0  0  0  0  0  0  0  0  0  0  0  0
  -31.5299  -27.4964   16.1317 C   0  0  0  0  0  0  0  0  0  0  0  0
  -29.9826  -29.3413   16.7839 C   0  0  0  0  0  0  0  0  0  0  0  0
  -30.0501  -25.0797   22.1416 C   0  0  0  0  0  0  0  0  0  0  0  0
  -26.9226  -17.8267   17.9334 C   0  0  0  0  0  0  0  0  0  0  0  0
  -30.0380  -18.1186   21.8373 C   0  0  0  0  0  0  0  0  0  0  0  0
  -30.8245  -16.8449   22.1647 C   0  0  0  0  0  0  0  0  0  0  0  0
  -25.9705  -19.0174   17.9616 C   0  0  0  0  0  0  0  0  0  1  0  0
  -29.5044  -26.9863   17.5698 C   0  0  1  0  0  0  0  0  0  0  0  0
  -31.5028  -26.5735   20.7644 C   0  0  2  0  0  0  0  0  0  0  0  0
  -30.0503  -27.8480   16.3964 C   0  0  0  0  0  0  0  0  0  0  0  0
  -25.8403  -11.6170   20.2788 N   0  0  0  0  0  0  0  0  0  0  0  0
  -26.2152  -12.9067   20.2325 N   0  0  0  0  0  0  0  0  0  0  0  0
  -27.1695  -26.1834   17.7363 N   0  0  0  0  0  0  0  0  0  0  0  0
  -29.9549  -13.6733   20.4202 N   0  0  0  0  0  0  0  0  0  0  0  0
  -25.4551  -15.1109   20.6503 N   0  0  0  0  0  0  0  0  0  0  0  0
  -21.8936  -12.5565   21.7399 N   0  0  0  0  0  0  0  0  0  0  0  0
  -24.1904  -27.4721   16.2551 N   0  0  0  0  0  0  0  0  0  0  0  0
  -30.2170  -27.1719   18.8293 N   0  0  0  0  0  0  0  0  0  0  0  0
  -30.1510  -15.6530   21.6993 N   0  0  0  0  0  0  0  0  0  0  0  0
  -31.4324  -25.4984   21.7940 N   0  3  0  0  0  0  0  0  0  0  0  0
  -22.6647  -14.7113   21.5939 O   0  0  0  0  0  0  0  0  0  0  0  0
  -25.7735  -25.9406   15.4994 O   0  0  0  0  0  0  0  0  0  0  0  0
  -27.7092  -28.4046   18.1964 O   0  0  0  0  0  0  0  0  0  0  0  0
  -30.8409  -24.9547   19.0975 O   0  0  0  0  0  0  0  0  0  0  0  0
  -31.8592  -14.9931   20.3196 O   0  0  0  0  0  0  0  0  0  0  0  0
  -21.6196   -6.9991   21.4661 O   0  0  0  0  0  0  0  0  0  0  0  0
  -26.5005  -20.0776   17.1671 O   0  0  0  0  0  0  0  0  0  1  0  0
  -24.1058   -2.7598   23.9664 F   0  0  0  0  0  0  0  0  0  0  0  0
  -20.6219   -5.9611   23.8262 F   0  0  0  0  0  0  0  0  0  0  0  0
  1  2  1  0  0  0  0
  1  5  2  0  0  0  0
  2  6  2  0  0  0  0
  3  8  2  0  0  0  0
  3 17  1  0  0  0  0
  4  9  1  0  0  0  0
  4 17  2  0  0  0  0
  5 19  1  0  0  0  0
  6 21  1  0  0  0  0
  7 10  2  0  0  0  0
  7 20  1  0  0  0  0
  8 27  1  0  0  0  0
  9 27  2  0  0  0  0
 10 28  1  0  0  0  0
 11 12  2  0  0  0  0
 11 29  1  0  0  0  0
 12 30  1  0  0  0  0
 13 22  1  0  0  0  0
 13 28  2  0  0  0  0
 14 23  1  0  0  0  0
 14 24  2  0  0  0  0
 15 23  2  0  0  0  0
 15 25  1  0  0  0  0
 16 30  2  0  0  0  0
 16 31  1  0  0  0  0
 17 32  1  0  0  0  0
 18 32  1  0  0  0  0
 18 33  2  0  0  0  0
 18 34  1  0  0  0  0
 19 21  2  0  0  0  0
 19 39  1  0  0  0  0
 20 22  2  0  0  0  0
 20 40  1  0  0  0  0
 21 48  1  0  0  0  0
 22 41  1  0  0  0  0
 23 58  1  0  0  0  0
 24 26  1  0  0  0  0
 24 51  1  0  0  0  0
 25 26  2  0  0  0  0
 25 59  1  0  0  0  0
 26 52  1  0  0  0  0
 27 80  1  0  0  0  0
 28 81  1  0  0  0  0
 29 31  2  0  0  0  0
 29 80  1  0  0  0  0
 30 82  1  0  0  0  0
 31 83  1  0  0  0  0
 32 65  2  0  0  0  0
 33 66  1  0  0  0  0
 33 69  1  0  0  0  0
 34 70  1  0  0  0  0
 34 75  2  0  0  0  0
 35 49  1  0  0  0  0
 35 71  1  0  0  0  0
 35 76  2  0  0  0  0
 36 62  1  0  0  0  0
 36 67  1  0  0  0  0
 36 77  2  0  0  0  0
 37 63  1  0  0  0  0
 37 72  1  0  0  0  0
 37 78  2  0  0  0  0
 38 68  1  0  0  0  0
 38 73  1  0  0  0  0
 38 79  2  0  0  0  0
 39 42  1  0  0  0  0
 40 49  1  0  0  0  0
 41 67  1  0  0  0  0
 42 44  1  0  0  0  0
 43 45  1  0  0  0  0
 43 46  1  0  0  0  0
 44 48  1  0  0  0  0
 45 50  1  0  0  0  0
 46 68  1  0  0  0  0
 47 50  1  0  0  0  0
 47 68  1  0  0  0  0
 48 71  1  0  0  0  0
 49 67  1  0  0  0  0
 50 66  1  0  0  0  0
 53 63  1  0  0  0  0
 54 64  1  0  0  0  0
 55 64  1  0  0  0  0
 56 64  1  0  0  0  0
 57 74  1  0  0  0  0
 58 61  1  0  0  0  0
 59 60  1  0  0  0  0
 60 73  1  0  0  0  0
 61 81  1  0  0  0  0
 62 64  1  0  0  0  0
 62 72  1  0  0  0  0
 63 74  1  0  0  0  0
 65 66  1  0  0  0  0
M  CHG  1  74   1
M  ISO  4  38 100  61 101  73 100  81 101
M  END
> <Batch ID>
0037

> <Smiles>
CNC(C)C(=O)NC(C(=O)N1Cc2cc([101O:1][101CH2:1]Cc3cc(C)c(C)c(CC[100NH:0][100C:0](=O)N4CCCC(n5nc(-c6ccc(Oc7ccc(F)cc7F)cc6)c(C(N)=O)c5N)C4)c3)ccc2CC1C(=O)NC1CCCc2ccccc21)C(C)(C)C

> <Shape>
0.246

> <Color>
0.217

> <Negative vol penalty>
0.000

$$$$

  -OEChem-04052316593D

 88 96  0     1  0  0  0  0  0999 V2000
  -29.7376  -26.8033   13.1532 C   0  0  0  0  0  0  0  0  0  0  0  0
  -29.3840  -25.9153   14.1641 C   0  0  0  0  0  0  0  0  0  0  0  0
  -23.0008   -9.8912   19.9835 C   0  0  0  0  0  0  0  0  0  0  0  0
  -23.7293   -9.9460   22.2864 C   0  0  0  0  0  0  0  0  0  0  0  0
  -31.0640  -26.8856   12.7317 C   0  0  0  0  0  0  0  0  0  0  0  0
  -30.3566  -25.1082   14.7532 C   0  0  0  0  0  0  0  0  0  0  0  0
  -29.9742  -24.9756   19.8011 C   0  0  0  0  0  0  0  0  0  0  0  0
  -22.2361   -8.7560   20.2524 C   0  0  0  0  0  0  0  0  0  0  0  0
  -22.9646   -8.8109   22.5553 C   0  0  0  0  0  0  0  0  0  0  0  0
  -28.9806  -24.1615   20.3432 C   0  0  0  0  0  0  0  0  0  0  0  0
  -23.2126   -5.4716   22.0873 C   0  0  0  0  0  0  0  0  0  0  0  0
  -23.8026   -4.4562   22.8398 C   0  0  0  0  0  0  0  0  0  0  0  0
  -30.6293  -22.4590   20.7930 C   0  0  0  0  0  0  0  0  0  0  0  0
  -27.7233  -22.3343   25.2746 C   0  0  0  0  0  0  0  0  0  0  0  0
  -28.4480  -20.3949   24.0295 C   0  0  0  0  0  0  0  0  0  0  0  0
  -22.0808   -4.6989   24.5172 C   0  0  0  0  0  0  0  0  0  0  0  0
  -23.7474  -10.4862   21.0005 C   0  0  0  0  0  0  0  0  0  0  0  0
  -24.1291  -13.0020   20.8208 C   0  0  0  0  0  0  0  0  0  0  0  0
  -32.0550  -26.0860   13.3226 C   0  0  0  0  0  0  0  0  0  0  0  0
  -31.3032  -24.5323   19.7408 C   0  0  0  0  0  0  0  0  0  0  0  0
  -31.6973  -25.1789   14.3382 C   0  0  0  0  0  0  0  0  0  0  0  0
  -31.6383  -23.2703   20.2520 C   0  0  0  0  0  0  0  0  0  0  0  0
  -27.6280  -21.5171   24.1483 C   0  0  0  0  0  0  0  0  0  0  0  0
  -28.6387  -22.0295   26.2821 C   0  0  0  0  0  0  0  0  0  0  0  0
  -29.3634  -20.0901   25.0369 C   0  0  0  0  0  0  0  0  0  0  0  0
  -22.2180   -8.2159   21.5383 C   0  0  0  0  0  0  0  0  0  0  0  0
  -29.3075  -22.9019   20.8366 C   0  0  0  0  0  0  0  0  0  0  0  0
  -22.0567   -6.1009   22.5497 C   0  0  0  0  0  0  0  0  0  0  0  0
  -23.2367   -4.0698   24.0547 C   0  0  0  0  0  0  0  0  0  0  0  0
  -21.4909   -5.7145   23.7647 C   0  0  0  0  0  0  0  0  0  0  0  0
  -29.4587  -20.9074   26.1632 C   0  0  0  0  0  0  0  0  0  0  0  0
  -24.5379  -11.6585   20.7232 C   0  0  0  0  0  0  0  0  0  0  0  0
  -25.2374  -13.7256   20.4538 C   0  0  0  0  0  0  0  0  0  0  0  0
  -22.8610  -13.5473   21.2085 C   0  0  0  0  0  0  0  0  0  0  0  0
  -33.3719  -23.9573   17.3970 C   0  0  0  0  0  0  0  0  0  0  0  0
  -35.4357  -23.4995   19.8575 C   0  0  0  0  0  0  0  0  0  0  0  0
  -35.8937  -22.7136   23.1467 C   0  0  0  0  0  0  0  0  0  0  0  0
  -30.7329  -14.6677   20.6931 C   0  0  0  0  0  0  0  0  0  0  0  0
  -33.4672  -26.1763   12.8009 C   0  0  0  0  0  0  0  0  0  0  0  0
  -32.3678  -25.4331   19.1774 C   0  0  0  0  0  0  0  0  0  0  0  0
  -33.0536  -22.7558   20.2293 C   0  0  0  0  0  0  0  0  0  0  0  0
  -34.5025  -25.5551   13.7350 C   0  0  0  0  0  0  0  0  0  0  0  0
  -29.5920  -12.2396   18.3523 C   0  0  0  0  0  0  0  0  0  0  0  0
  -34.0317  -24.1877   14.2200 C   0  0  0  0  0  0  0  0  0  0  0  0
  -28.1444  -11.9785   18.7724 C   0  0  0  0  0  0  0  0  0  0  0  0
  -30.4958  -12.4777   19.5600 C   0  0  0  0  0  0  0  0  0  0  0  0
  -28.5866  -13.2724   20.9006 C   0  0  0  0  0  0  0  0  0  0  0  0
  -32.7280  -24.3045   15.0189 C   0  0  1  0  0  0  0  0  0  0  0  0
  -33.6009  -24.6736   18.6979 C   0  0  1  0  0  0  0  0  0  0  0  0
  -27.6261  -13.0820   19.7142 C   0  0  2  0  0  0  0  0  0  0  0  0
  -28.7382  -22.9057   27.4849 C   0  0  0  0  0  0  0  0  0  0  0  0
  -37.6968  -22.3818   24.8602 C   0  0  0  0  0  0  0  0  0  0  0  0
  -36.0926  -20.7815   18.6364 C   0  0  0  0  0  0  0  0  0  0  0  0
  -37.1258  -20.1276   20.8211 C   0  0  0  0  0  0  0  0  0  0  0  0
  -38.0693  -22.0342   19.5183 C   0  0  0  0  0  0  0  0  0  0  0  0
  -33.4166  -18.3563   22.6515 C   0  0  0  0  0  0  0  0  0  0  0  0
  -33.0942  -17.5428   24.9829 C   0  0  0  0  0  0  0  0  0  0  0  0
  -34.8553  -24.9119   24.8343 C   0  0  0  0  0  0  0  0  0  0  0  0
  -26.6368  -21.8461   23.0586 C   0  0  0  0  0  0  0  0  0  0  0  0
  -30.2384  -18.8890   24.9069 C   0  0  0  0  0  0  0  0  0  0  0  0
  -31.4130  -19.1340   23.9399 C   0  0  0  0  0  0  0  0  0  0  0  0
  -31.6005  -16.6644   23.1724 C   0  0  0  0  0  0  0  0  0  0  0  0
  -30.8145  -16.8482   21.8754 C   0  0  0  0  0  0  0  0  0  0  0  0
  -27.2320  -22.7547   21.9884 C   0  0  0  0  0  0  0  0  0  1  0  0
  -35.8512  -22.3166   20.6983 C   0  0  1  0  0  0  0  0  0  0  0  0
  -36.7264  -23.3704   24.2328 C   0  0  2  0  0  0  0  0  0  0  0  0
  -36.7577  -21.3236   19.9173 C   0  0  0  0  0  0  0  0  0  0  0  0
  -32.3532  -17.9233   23.6836 C   0  0  0  0  0  0  0  0  0  0  0  0
  -25.8068  -11.5331   20.3254 N   0  0  0  0  0  0  0  0  0  0  0  0
  -26.2049  -12.8072   20.1696 N   0  0  0  0  0  0  0  0  0  0  0  0
  -34.0579  -23.6712   19.6626 N   0  0  0  0  0  0  0  0  0  0  0  0
  -29.9489  -13.5368   20.4115 N   0  0  0  0  0  0  0  0  0  0  0  0
  -25.4690  -15.0515   20.3498 N   0  0  0  0  0  0  0  0  0  0  0  0
  -21.8309  -12.6622   21.5546 N   0  0  0  0  0  0  0  0  0  0  0  0
  -32.9966  -24.7861   16.3569 N   0  0  0  0  0  0  0  0  0  0  0  0
  -36.4658  -22.8668   21.9016 N   0  0  0  0  0  0  0  0  0  0  0  0
  -30.1365  -15.6267   21.5026 N   0  0  0  0  0  0  0  0  0  0  0  0
  -35.8448  -23.9095   25.3067 N   0  3  0  0  0  0  0  0  0  0  0  0
  -22.6427  -14.7823   21.2310 O   0  0  0  0  0  0  0  0  0  0  0  0
  -33.5259  -22.7429   17.3408 O   0  0  0  0  0  0  0  0  0  0  0  0
  -36.3013  -24.2478   19.3967 O   0  0  0  0  0  0  0  0  0  0  0  0
  -34.8429  -22.1204   23.3801 O   0  0  0  0  0  0  0  0  0  0  0  0
  -31.8775  -14.8146   20.2512 O   0  0  0  0  0  0  0  0  0  0  0  0
  -21.4718   -7.1083   21.8011 O   0  0  0  0  0  0  0  0  0  0  0  0
  -28.3395  -22.1050   21.3657 O   0  0  0  0  0  0  0  0  0  1  0  0
  -23.8025   -3.0935   24.7765 F   0  0  0  0  0  0  0  0  0  0  0  0
  -20.3798   -6.3144   24.2136 F   0  0  0  0  0  0  0  0  0  0  0  0
  -30.3400  -20.6147   27.1310 F   0  0  0  0  0  0  0  0  0  0  0  0
  1  2  1  0  0  0  0
  1  5  2  0  0  0  0
  2  6  2  0  0  0  0
  3  8  2  0  0  0  0
  3 17  1  0  0  0  0
  4  9  1  0  0  0  0
  4 17  2  0  0  0  0
  5 19  1  0  0  0  0
  6 21  1  0  0  0  0
  7 10  2  0  0  0  0
  7 20  1  0  0  0  0
  8 26  1  0  0  0  0
  9 26  2  0  0  0  0
 10 27  1  0  0  0  0
 11 12  2  0  0  0  0
 11 28  1  0  0  0  0
 12 29  1  0  0  0  0
 13 22  1  0  0  0  0
 13 27  2  0  0  0  0
 14 23  1  0  0  0  0
 14 24  2  0  0  0  0
 15 23  2  0  0  0  0
 15 25  1  0  0  0  0
 16 29  2  0  0  0  0
 16 30  1  0  0  0  0
 17 32  1  0  0  0  0
 18 32  1  0  0  0  0
 18 33  2  0  0  0  0
 18 34  1  0  0  0  0
 19 21  2  0  0  0  0
 19 39  1  0  0  0  0
 20 22  2  0  0  0  0
 20 40  1  0  0  0  0
 21 48  1  0  0  0  0
 22 41  1  0  0  0  0
 23 59  1  0  0  0  0
 24 31  1  0  0  0  0
 24 51  1  0  0  0  0
 25 31  2  0  0  0  0
 25 60  1  0  0  0  0
 26 84  1  0  0  0  0
 27 85  1  0  0  0  0
 28 30  2  0  0  0  0
 28 84  1  0  0  0  0
 29 86  1  0  0  0  0
 30 87  1  0  0  0  0
 31 88  1  0  0  0  0
 32 69  2  0  0  0  0
 33 70  1  0  0  0  0
 33 73  1  0  0  0  0
 34 74  1  0  0  0  0
 34 79  2  0  0  0  0
 35 49  1  0  0  0  0
 35 75  1  0  0  0  0
 35 80  2  0  0  0  0
 36 65  1  0  0  0  0
 36 71  1  0  0  0  0
 36 81  2  0  0  0  0
 37 66  1  0  0  0  0
 37 76  1  0  0  0  0
 37 82  2  0  0  0  0
 38 72  1  0  0  0  0
 38 77  1  0  0  0  0
 38 83  2  0  0  0  0
 39 42  1  0  0  0  0
 40 49  1  0  0  0  0
 41 71  1  0  0  0  0
 42 44  1  0  0  0  0
 43 45  1  0  0  0  0
 43 46  1  0  0  0  0
 44 48  1  0  0  0  0
 45 50  1  0  0  0  0
 46 72  1  0  0  0  0
 47 50  1  0  0  0  0
 47 72  1  0  0  0  0
 48 75  1  0  0  0  0
 49 71  1  0  0  0  0
 50 70  1  0  0  0  0
 52 66  1  0  0  0  0
 53 67  1  0  0  0  0
 54 67  1  0  0  0  0
 55 67  1  0  0  0  0
 56 68  1  0  0  0  0
 57 68  1  0  0  0  0
 58 78  1  0  0  0  0
 59 64  1  0  0  0  0
 60 61  1  0  0  0  0
 61 68  1  0  0  0  0
 62 63  1  0  0  0  0
 62 68  1  0  0  0  0
 63 77  1  0  0  0  0
 64 85  1  0  0  0  0
 65 67  1  0  0  0  0
 65 76  1  0  0  0  0
 66 78  1  0  0  0  0
 69 70  1  0  0  0  0
M  CHG  1  78   1
M  ISO  4  38 100  64 101  77 100  85 101
M  END
> <Batch ID>
0037

> <Smiles>
CNC(C)C(=O)NC(C(=O)N1Cc2cc([101O:1][101CH2:1]Cc3cc(C)c(F)c(CCC(C)(C)CC[100NH:0][100C:0](=O)N4CCCC(n5nc(-c6ccc(Oc7ccc(F)cc7F)cc6)c(C(N)=O)c5N)C4)c3)ccc2CC1C(=O)NC1CCCc2ccccc21)C(C)(C)C

> <Shape>
0.203

> <Color>
0.197

> <Negative vol penalty>
0.000

$$$$

  -OEChem-04052316593D

 89 97  0     1  0  0  0  0  0999 V2000
  -32.4027  -29.2445   18.2833 C   0  0  0  0  0  0  0  0  0  0  0  0
  -31.6732  -28.5416   19.2369 C   0  0  0  0  0  0  0  0  0  0  0  0
  -23.8959  -10.0547   22.4671 C   0  0  0  0  0  0  0  0  0  0  0  0
  -24.3904  -11.6868   24.1786 C   0  0  0  0  0  0  0  0  0  0  0  0
  -32.1453  -30.5979   18.0687 C   0  0  0  0  0  0  0  0  0  0  0  0
  -30.6866  -29.1920   19.9770 C   0  0  0  0  0  0  0  0  0  0  0  0
  -26.4232  -26.4826   20.3346 C   0  0  0  0  0  0  0  0  0  0  0  0
  -23.4010   -9.1854   23.4391 C   0  0  0  0  0  0  0  0  0  0  0  0
  -23.8953  -10.8174   25.1506 C   0  0  0  0  0  0  0  0  0  0  0  0
  -26.4105  -25.4337   21.2530 C   0  0  0  0  0  0  0  0  0  0  0  0
  -20.5633   -8.8188   25.2408 C   0  0  0  0  0  0  0  0  0  0  0  0
  -19.3568   -8.1706   24.9768 C   0  0  0  0  0  0  0  0  0  0  0  0
  -25.2184  -26.8278   22.8197 C   0  0  0  0  0  0  0  0  0  0  0  0
  -29.8030  -19.2274   24.1198 C   0  0  0  0  0  0  0  0  0  0  0  0
  -28.7877  -18.2136   26.0636 C   0  0  0  0  0  0  0  0  0  0  0  0
  -28.9391  -16.9746   23.9950 C   0  0  0  0  0  0  0  0  0  0  0  0
  -20.4648   -6.0319   25.1649 C   0  0  0  0  0  0  0  0  0  0  0  0
  -24.3907  -11.3054   22.8368 C   0  0  0  0  0  0  0  0  0  0  0  0
  -24.1812  -13.1760   21.1149 C   0  0  0  0  0  0  0  0  0  0  0  0
  -31.1484  -31.2629   18.7998 C   0  0  0  0  0  0  0  0  0  0  0  0
  -25.8421  -27.7176   20.6566 C   0  0  0  0  0  0  0  0  0  0  0  0
  -30.4165  -30.5559   19.7729 C   0  0  0  0  0  0  0  0  0  0  0  0
  -25.2227  -27.8899   21.9027 C   0  0  0  0  0  0  0  0  0  0  0  0
  -29.4140  -19.3025   25.4572 C   0  0  0  0  0  0  0  0  0  0  0  0
  -29.5654  -18.0634   23.3887 C   0  0  0  0  0  0  0  0  0  0  0  0
  -28.5501  -17.0496   25.3325 C   0  0  0  0  0  0  0  0  0  0  0  0
  -23.4006   -9.5667   24.7808 C   0  0  0  0  0  0  0  0  0  0  0  0
  -25.8106  -25.6071   22.4968 C   0  0  0  0  0  0  0  0  0  0  0  0
  -21.7206   -8.0736   25.4668 C   0  0  0  0  0  0  0  0  0  0  0  0
  -19.3075   -6.7771   24.9389 C   0  0  0  0  0  0  0  0  0  0  0  0
  -21.6713   -6.6802   25.4289 C   0  0  0  0  0  0  0  0  0  0  0  0
  -24.9027  -12.2037   21.8333 C   0  0  0  0  0  0  0  0  0  0  0  0
  -25.1144  -13.7575   20.2919 C   0  0  0  0  0  0  0  0  0  0  0  0
  -22.7917  -13.5224   21.1853 C   0  0  0  0  0  0  0  0  0  0  0  0
  -26.9193  -30.6929   20.9577 C   0  0  0  0  0  0  0  0  0  0  0  0
  -23.7707  -31.3809   21.3253 C   0  0  0  0  0  0  0  0  0  0  0  0
  -20.6513  -30.3016   22.1924 C   0  0  0  0  0  0  0  0  0  0  0  0
  -31.0644  -14.3301   20.6387 C   0  0  0  0  0  0  0  0  0  0  0  0
  -30.9386  -32.7380   18.5658 C   0  0  0  0  0  0  0  0  0  0  0  0
  -25.8406  -28.8305   19.6448 C   0  0  0  0  0  0  0  0  0  0  0  0
  -24.5671  -29.1896   22.2894 C   0  0  0  0  0  0  0  0  0  0  0  0
  -29.6200  -33.2624   19.1285 C   0  0  0  0  0  0  0  0  0  0  0  0
  -29.2103  -12.8013   18.0116 C   0  0  0  0  0  0  0  0  0  0  0  0
  -29.4050  -32.7512   20.5495 C   0  0  0  0  0  0  0  0  0  0  0  0
  -27.8310  -12.5625   18.6284 C   0  0  0  0  0  0  0  0  0  0  0  0
  -30.3280  -12.5948   19.0316 C   0  0  0  0  0  0  0  0  0  0  0  0
  -28.8044  -13.1364   20.8915 C   0  0  0  0  0  0  0  0  0  0  0  0
  -29.3211  -31.2204   20.5784 C   0  0  1  0  0  0  0  0  0  0  0  0
  -25.6715  -30.2099   20.2740 C   0  0  1  0  0  0  0  0  0  0  0  0
  -27.6420  -13.3872   19.9157 C   0  0  2  0  0  0  0  0  0  0  0  0
  -18.2849  -31.1024   22.4291 C   0  0  0  0  0  0  0  0  0  0  0  0
  -25.8749  -15.8687   24.4068 C   0  0  0  0  0  0  0  0  0  0  0  0
  -25.7435  -14.6898   26.6105 C   0  0  0  0  0  0  0  0  0  0  0  0
  -24.5114  -32.7934   23.9265 C   0  0  0  0  0  0  0  0  0  0  0  0
  -22.0926  -32.7277   24.5695 C   0  0  0  0  0  0  0  0  0  0  0  0
  -22.8078  -33.9881   22.5391 C   0  0  0  0  0  0  0  0  0  0  0  0
  -19.6765  -28.3841   20.1597 C   0  0  0  0  0  0  0  0  0  0  0  0
  -29.6714  -20.5610   26.2472 C   0  0  0  0  0  0  0  0  0  0  0  0
  -29.9814  -17.9824   21.9587 C   0  0  0  0  0  0  0  0  0  0  0  0
  -27.8803  -15.8856   25.9812 C   0  0  0  0  0  0  0  0  0  0  0  0
  -28.5274  -21.5791   26.1806 C   0  0  0  0  0  0  0  0  0  0  0  0
  -31.4101  -17.4467   21.7392 C   0  0  0  0  0  0  0  0  0  0  0  0
  -28.2797  -22.1107   24.7654 C   0  0  0  0  0  0  0  0  0  0  0  0
  -27.1135  -23.0972   24.7411 C   0  0  0  0  0  0  0  0  0  0  0  0
  -31.6561  -16.0562   22.3209 C   0  0  0  0  0  0  0  0  0  0  0  0
  -26.8858  -23.6635   23.3468 C   0  0  0  0  0  0  0  0  0  1  0  0
  -22.8235  -31.4602   22.4982 C   0  0  1  0  0  0  0  0  0  0  0  0
  -19.3057  -30.4546   21.5065 C   0  0  2  0  0  0  0  0  0  0  0  0
  -26.3360  -15.8890   25.8664 C   0  0  0  0  0  0  0  0  0  0  0  0
  -23.0728  -32.7184   23.3771 C   0  0  0  0  0  0  0  0  0  0  0  0
  -26.1945  -12.1667   21.4961 N   0  0  0  0  0  0  0  0  0  0  0  0
  -26.2922  -13.1228   20.5568 N   0  0  0  0  0  0  0  0  0  0  0  0
  -24.5972  -30.2498   21.2683 N   0  0  0  0  0  0  0  0  0  0  0  0
  -30.0896  -13.4061   20.2278 N   0  0  0  0  0  0  0  0  0  0  0  0
  -25.0342  -14.7448   19.3747 N   0  0  0  0  0  0  0  0  0  0  0  0
  -21.9740  -12.8253   22.0852 N   0  0  0  0  0  0  0  0  0  0  0  0
  -28.0198  -30.7769   20.1263 N   0  0  0  0  0  0  0  0  0  0  0  0
  -21.4773  -31.3770   21.9421 N   0  0  0  0  0  0  0  0  0  0  0  0
  -30.7563  -15.0628   21.7784 N   0  0  0  0  0  0  0  0  0  0  0  0
  -18.7831  -29.1231   21.0884 N   0  3  0  0  0  0  0  0  0  0  0  0
  -22.2867  -14.4123   20.4597 O   0  0  0  0  0  0  0  0  0  0  0  0
  -26.8857  -30.9704   22.1508 O   0  0  0  0  0  0  0  0  0  0  0  0
  -23.7719  -32.2855   20.4867 O   0  0  0  0  0  0  0  0  0  0  0  0
  -20.9394  -29.3275   22.8842 O   0  0  0  0  0  0  0  0  0  0  0  0
  -32.1282  -14.4940   20.0316 O   0  0  0  0  0  0  0  0  0  0  0  0
  -22.9175   -8.7187   25.7295 O   0  0  0  0  0  0  0  0  0  0  0  0
  -25.7974  -24.5851   23.3953 O   0  0  0  0  0  0  0  0  0  1  0  0
  -18.1485   -6.1547   24.6869 F   0  0  0  0  0  0  0  0  0  0  0  0
  -22.7796   -5.9588   25.6463 F   0  0  0  0  0  0  0  0  0  0  0  0
  1  2  1  0  0  0  0
  1  5  2  0  0  0  0
  2  6  2  0  0  0  0
  3  8  2  0  0  0  0
  3 18  1  0  0  0  0
  4  9  1  0  0  0  0
  4 18  2  0  0  0  0
  5 20  1  0  0  0  0
  6 22  1  0  0  0  0
  7 10  2  0  0  0  0
  7 21  1  0  0  0  0
  8 27  1  0  0  0  0
  9 27  2  0  0  0  0
 10 28  1  0  0  0  0
 11 12  2  0  0  0  0
 11 29  1  0  0  0  0
 12 30  1  0  0  0  0
 13 23  1  0  0  0  0
 13 28  2  0  0  0  0
 14 24  1  0  0  0  0
 14 25  2  0  0  0  0
 15 24  2  0  0  0  0
 15 26  1  0  0  0  0
 16 25  1  0  0  0  0
 16 26  2  0  0  0  0
 17 30  2  0  0  0  0
 17 31  1  0  0  0  0
 18 32  1  0  0  0  0
 19 32  1  0  0  0  0
 19 33  2  0  0  0  0
 19 34  1  0  0  0  0
 20 22  2  0  0  0  0
 20 39  1  0  0  0  0
 21 23  2  0  0  0  0
 21 40  1  0  0  0  0
 22 48  1  0  0  0  0
 23 41  1  0  0  0  0
 24 58  1  0  0  0  0
 25 59  1  0  0  0  0
 26 60  1  0  0  0  0
 27 86  1  0  0  0  0
 28 87  1  0  0  0  0
 29 31  2  0  0  0  0
 29 86  1  0  0  0  0
 30 88  1  0  0  0  0
 31 89  1  0  0  0  0
 32 71  2  0  0  0  0
 33 72  1  0  0  0  0
 33 75  1  0  0  0  0
 34 76  1  0  0  0  0
 34 81  2  0  0  0  0
 35 49  1  0  0  0  0
 35 77  1  0  0  0  0
 35 82  2  0  0  0  0
 36 67  1  0  0  0  0
 36 73  1  0  0  0  0
 36 83  2  0  0  0  0
 37 68  1  0  0  0  0
 37 78  1  0  0  0  0
 37 84  2  0  0  0  0
 38 74  1  0  0  0  0
 38 79  1  0  0  0  0
 38 85  2  0  0  0  0
 39 42  1  0  0  0  0
 40 49  1  0  0  0  0
 41 73  1  0  0  0  0
 42 44  1  0  0  0  0
 43 45  1  0  0  0  0
 43 46  1  0  0  0  0
 44 48  1  0  0  0  0
 45 50  1  0  0  0  0
 46 74  1  0  0  0  0
 47 50  1  0  0  0  0
 47 74  1  0  0  0  0
 48 77  1  0  0  0  0
 49 73  1  0  0  0  0
 50 72  1  0  0  0  0
 51 68  1  0  0  0  0
 52 69  1  0  0  0  0
 53 69  1  0  0  0  0
 54 70  1  0  0  0  0
 55 70  1  0  0  0  0
 56 70  1  0  0  0  0
 57 80  1  0  0  0  0
 58 61  1  0  0  0  0
 59 62  1  0  0  0  0
 60 69  1  0  0  0  0
 61 63  1  0  0  0  0
 62 65  1  0  0  0  0
 63 64  1  0  0  0  0
 64 66  1  0  0  0  0
 65 79  1  0  0  0  0
 66 87  1  0  0  0  0
 67 70  1  0  0  0  0
 67 78  1  0  0  0  0
 68 80  1  0  0  0  0
 71 72  1  0  0  0  0
M  CHG  1  80   1
M  ISO  4  38 100  66 101  79 100  87 101
M  END
> <Batch ID>
0037

> <Smiles>
CNC(C)C(=O)NC(C(=O)N1Cc2cc([101O:1][101CH2:1]CCCCc3cc(CCC[100NH:0][100C:0](=O)N4CCCC(n5nc(-c6ccc(Oc7ccc(F)cc7F)cc6)c(C(N)=O)c5N)C4)cc(CC(C)C)c3)ccc2CC1C(=O)NC1CCCc2ccccc21)C(C)(C)C

> <Shape>
0.221

> <Color>
0.113

> <Negative vol penalty>
0.000

$$$$

  -OEChem-04052316593D

 89 97  0     1  0  0  0  0  0999 V2000
  -13.9037  -20.0376   24.2844 C   0  0  0  0  0  0  0  0  0  0  0  0
  -14.1568  -21.4053   24.2570 C   0  0  0  0  0  0  0  0  0  0  0  0
  -28.5494  -14.2000   20.8553 C   0  0  0  0  0  0  0  0  0  0  0  0
  -26.8218  -15.0142   19.3756 C   0  0  0  0  0  0  0  0  0  0  0  0
  -14.9535  -19.1392   24.4707 C   0  0  0  0  0  0  0  0  0  0  0  0
  -15.4597  -21.8755   24.4169 C   0  0  0  0  0  0  0  0  0  0  0  0
  -19.7764  -27.1882   22.3054 C   0  0  0  0  0  0  0  0  0  0  0  0
  -27.8185  -13.0308   21.0653 C   0  0  0  0  0  0  0  0  0  0  0  0
  -26.0909  -13.8449   19.5856 C   0  0  0  0  0  0  0  0  0  0  0  0
  -20.6214  -28.1635   22.8330 C   0  0  0  0  0  0  0  0  0  0  0  0
  -24.0681  -12.5664   21.9739 C   0  0  0  0  0  0  0  0  0  0  0  0
  -22.7001  -12.6919   22.2161 C   0  0  0  0  0  0  0  0  0  0  0  0
  -22.3668  -26.5152   23.0688 C   0  0  0  0  0  0  0  0  0  0  0  0
  -23.5941  -30.9460   25.7418 C   0  0  0  0  0  0  0  0  0  0  0  0
  -22.2311  -11.3574   20.2574 C   0  0  0  0  0  0  0  0  0  0  0  0
  -28.0511  -15.1918   20.0105 C   0  0  0  0  0  0  0  0  0  0  0  0
  -29.7700  -16.6325   18.7949 C   0  0  0  0  0  0  0  0  0  0  0  0
  -16.2714  -19.5982   24.6233 C   0  0  0  0  0  0  0  0  0  0  0  0
  -20.2173  -25.8644   22.1655 C   0  0  0  0  0  0  0  0  0  0  0  0
  -16.5280  -20.9825   24.6067 C   0  0  0  0  0  0  0  0  0  0  0  0
  -21.5263  -25.5254   22.5368 C   0  0  0  0  0  0  0  0  0  0  0  0
  -24.5770  -31.8081   26.2150 C   0  0  0  0  0  0  0  0  0  0  0  0
  -25.1978  -32.6929   25.3403 C   0  0  0  0  0  0  0  0  0  0  0  0
  -26.5893  -12.8532   20.4304 C   0  0  0  0  0  0  0  0  0  0  0  0
  -21.9159  -27.8265   23.2175 C   0  0  0  0  0  0  0  0  0  0  0  0
  -24.5175  -11.8365   20.8735 C   0  0  0  0  0  0  0  0  0  0  0  0
  -21.7816  -12.0874   21.3578 C   0  0  0  0  0  0  0  0  0  0  0  0
  -23.5990  -11.2319   20.0153 C   0  0  0  0  0  0  0  0  0  0  0  0
  -28.8054  -16.4002   19.7936 C   0  0  0  0  0  0  0  0  0  0  0  0
  -23.2709  -31.0075   24.3958 C   0  0  0  0  0  0  0  0  0  0  0  0
  -24.8029  -32.6760   24.0123 C   0  0  0  0  0  0  0  0  0  0  0  0
  -30.1882  -17.9221   19.0148 C   0  0  0  0  0  0  0  0  0  0  0  0
  -30.2453  -15.7605   17.7608 C   0  0  0  0  0  0  0  0  0  0  0  0
  -19.3194  -23.0621   23.3673 C   0  0  0  0  0  0  0  0  0  0  0  0
  -28.9536  -23.1953   19.9884 C   0  0  0  0  0  0  0  0  0  0  0  0
  -21.5366  -21.9059   21.3010 C   0  0  0  0  0  0  0  0  0  0  0  0
  -24.3610  -22.4671   19.4694 C   0  0  0  0  0  0  0  0  0  0  0  0
  -17.3669  -18.5912   24.8694 C   0  0  0  0  0  0  0  0  0  0  0  0
  -19.3024  -24.8298   21.5698 C   0  0  0  0  0  0  0  0  0  0  0  0
  -22.0547  -24.1229   22.3881 C   0  0  0  0  0  0  0  0  0  0  0  0
  -18.7700  -19.1534   24.6564 C   0  0  0  0  0  0  0  0  0  0  0  0
  -29.3584  -21.0468   22.8948 C   0  0  0  0  0  0  0  0  0  0  0  0
  -18.9117  -20.5089   25.3414 C   0  0  0  0  0  0  0  0  0  0  0  0
  -29.2988  -19.6584   22.2592 C   0  0  0  0  0  0  0  0  0  0  0  0
  -28.4298  -22.0290   22.1855 C   0  0  0  0  0  0  0  0  0  0  0  0
  -28.6140  -20.7461   20.0773 C   0  0  0  0  0  0  0  0  0  0  0  0
  -17.9313  -21.5301   24.7518 C   0  0  1  0  0  0  0  0  0  0  0  0
  -19.6856  -23.4031   21.9505 C   0  0  1  0  0  0  0  0  0  0  0  0
  -29.5593  -19.7332   20.7445 C   0  0  2  0  0  0  0  0  0  0  0  0
  -24.9480  -31.7622   27.6605 C   0  0  0  0  0  0  0  0  0  0  0  0
  -26.2538  -33.6310   25.8202 C   0  0  0  0  0  0  0  0  0  0  0  0
  -25.9572  -21.3204   17.9091 C   0  0  0  0  0  0  0  0  0  0  0  0
  -22.8006  -20.4515   23.6668 C   0  0  0  0  0  0  0  0  0  0  0  0
  -24.8585  -20.1271   22.2783 C   0  0  0  0  0  0  0  0  0  0  0  0
  -22.6961  -19.1150   21.5556 C   0  0  0  0  0  0  0  0  0  0  0  0
  -23.7461  -24.3502   17.2705 C   0  0  0  0  0  0  0  0  0  0  0  0
  -25.4382  -33.6130   23.0161 C   0  0  0  0  0  0  0  0  0  0  0  0
  -22.2196  -30.0980   23.8530 C   0  0  0  0  0  0  0  0  0  1  0  0
  -28.9694  -24.5060   20.7338 C   0  0  0  0  0  0  0  0  0  0  0  0
  -26.8200  -33.1580   22.5327 C   0  0  0  0  0  0  0  0  0  0  0  0
  -29.2676  -25.6671   19.7892 C   0  0  0  0  0  0  0  0  0  0  0  0
  -26.8049  -31.7589   21.9074 C   0  0  0  0  0  0  0  0  0  0  0  0
  -29.2745  -27.0194   20.5098 C   0  0  0  0  0  0  0  0  0  0  0  0
  -28.1973  -31.3589   21.4123 C   0  0  0  0  0  0  0  0  0  0  0  0
  -29.6558  -28.1918   19.5997 C   0  0  0  0  0  0  0  0  0  0  0  0
  -28.2334  -29.9693   20.7679 C   0  0  0  0  0  0  0  0  0  0  0  0
  -29.6203  -29.5784   20.2512 C   0  0  0  0  0  0  0  0  0  0  0  0
  -23.0164  -21.6162   21.3727 C   0  0  1  0  0  0  0  0  0  0  0  0
  -24.6981  -22.1661   18.0202 C   0  0  2  0  0  0  0  0  0  0  0  0
  -23.3326  -20.3536   22.2231 C   0  0  0  0  0  0  0  0  0  0  0  0
  -28.6217  -17.4574   20.5889 N   0  0  0  0  0  0  0  0  0  0  0  0
  -23.8520  -31.8533   23.5158 N   0  0  0  0  0  0  0  0  0  0  0  0
  -29.4767  -18.3665   20.0902 N   0  0  0  0  0  0  0  0  0  0  0  0
  -21.1199  -23.1455   21.8064 N   0  0  0  0  0  0  0  0  0  0  0  0
  -28.6912  -22.0505   20.7413 N   0  0  0  0  0  0  0  0  0  0  0  0
  -31.0916  -18.7080   18.3914 N   0  0  0  0  0  0  0  0  0  0  0  0
  -29.7089  -14.4684   17.6774 N   0  0  0  0  0  0  0  0  0  0  0  0
  -18.4173  -22.0215   23.4803 N   0  0  0  0  0  0  0  0  0  0  0  0
  -23.4848  -21.5401   19.9931 N   0  0  0  0  0  0  0  0  0  0  0  0
  -24.9143  -23.4324   17.2648 N   0  3  0  0  0  0  0  0  0  0  0  0
  -31.1318  -16.1110   16.9454 O   0  0  0  0  0  0  0  0  0  0  0  0
  -19.8194  -23.6952   24.2897 O   0  0  0  0  0  0  0  0  0  0  0  0
  -29.1709  -23.1907   18.7739 O   0  0  0  0  0  0  0  0  0  0  0  0
  -20.7792  -21.0663   20.8080 O   0  0  0  0  0  0  0  0  0  0  0  0
  -24.8310  -23.4264   20.0772 O   0  0  0  0  0  0  0  0  0  0  0  0
  -25.8759  -11.7122   20.6349 O   0  0  0  0  0  0  0  0  0  0  0  0
  -22.7484  -28.7830   23.7369 O   0  0  0  0  0  0  0  0  0  1  0  0
  -20.4681  -12.2066   21.5914 F   0  0  0  0  0  0  0  0  0  0  0  0
  -24.0248  -10.5284   18.9572 F   0  0  0  0  0  0  0  0  0  0  0  0
  1  2  1  0  0  0  0
  1  5  2  0  0  0  0
  2  6  2  0  0  0  0
  3  8  2  0  0  0  0
  3 16  1  0  0  0  0
  4  9  1  0  0  0  0
  4 16  2  0  0  0  0
  5 18  1  0  0  0  0
  6 20  1  0  0  0  0
  7 10  2  0  0  0  0
  7 19  1  0  0  0  0
  8 24  1  0  0  0  0
  9 24  2  0  0  0  0
 10 25  1  0  0  0  0
 11 12  2  0  0  0  0
 11 26  1  0  0  0  0
 12 27  1  0  0  0  0
 13 21  1  0  0  0  0
 13 25  2  0  0  0  0
 14 22  2  0  0  0  0
 14 30  1  0  0  0  0
 15 27  2  0  0  0  0
 15 28  1  0  0  0  0
 16 29  1  0  0  0  0
 17 29  1  0  0  0  0
 17 32  2  0  0  0  0
 17 33  1  0  0  0  0
 18 20  2  0  0  0  0
 18 38  1  0  0  0  0
 19 21  2  0  0  0  0
 19 39  1  0  0  0  0
 20 47  1  0  0  0  0
 21 40  1  0  0  0  0
 22 23  1  0  0  0  0
 22 50  1  0  0  0  0
 23 31  2  0  0  0  0
 23 51  1  0  0  0  0
 24 86  1  0  0  0  0
 25 87  1  0  0  0  0
 26 28  2  0  0  0  0
 26 86  1  0  0  0  0
 27 88  1  0  0  0  0
 28 89  1  0  0  0  0
 29 71  2  0  0  0  0
 30 58  1  0  0  0  0
 30 72  2  0  0  0  0
 31 57  1  0  0  0  0
 31 72  1  0  0  0  0
 32 73  1  0  0  0  0
 32 76  1  0  0  0  0
 33 77  1  0  0  0  0
 33 81  2  0  0  0  0
 34 48  1  0  0  0  0
 34 78  1  0  0  0  0
 34 82  2  0  0  0  0
 35 59  1  0  0  0  0
 35 75  1  0  0  0  0
 35 83  2  0  0  0  0
 36 68  1  0  0  0  0
 36 74  1  0  0  0  0
 36 84  2  0  0  0  0
 37 69  1  0  0  0  0
 37 79  1  0  0  0  0
 37 85  2  0  0  0  0
 38 41  1  0  0  0  0
 39 48  1  0  0  0  0
 40 74  1  0  0  0  0
 41 43  1  0  0  0  0
 42 44  1  0  0  0  0
 42 45  1  0  0  0  0
 43 47  1  0  0  0  0
 44 49  1  0  0  0  0
 45 75  1  0  0  0  0
 46 49  1  0  0  0  0
 46 75  1  0  0  0  0
 47 78  1  0  0  0  0
 48 74  1  0  0  0  0
 49 73  1  0  0  0  0
 52 69  1  0  0  0  0
 53 70  1  0  0  0  0
 54 70  1  0  0  0  0
 55 70  1  0  0  0  0
 56 80  1  0  0  0  0
 57 60  1  0  0  0  0
 58 87  1  0  0  0  0
 59 61  1  0  0  0  0
 60 62  1  0  0  0  0
 61 63  1  0  0  0  0
 62 64  1  0  0  0  0
 63 65  1  0  0  0  0
 64 66  1  0  0  0  0
 65 67  1  0  0  0  0
 66 67  1  0  0  0  0
 68 70  1  0  0  0  0
 68 79  1  0  0  0  0
 69 80  1  0  0  0  0
 71 73  1  0  0  0  0
M  CHG  1  80   1
M  ISO  4  35 100  58 101  59 100  87 101
M  END
> <Batch ID>
0037

> <Smiles>
CNC(C)C(=O)NC(C(=O)N1Cc2cc([101O:1][101CH2:1]c3cc(C)c(C)c(CCCCCCCCC[100CH2:0][100C:0](=O)N4CCCC(n5nc(-c6ccc(Oc7ccc(F)cc7F)cc6)c(C(N)=O)c5N)C4)n3)ccc2CC1C(=O)NC1CCCc2ccccc21)C(C)(C)C

> <Shape>
0.240

> <Color>
0.065

> <Negative vol penalty>
0.000

$$$$

  -OEChem-04052316593D

 84 92  0     1  0  0  0  0  0999 V2000
  -23.7134   -7.2137   24.5855 C   0  0  0  0  0  0  0  0  0  0  0  0
  -24.8450   -8.0230   24.5830 C   0  0  0  0  0  0  0  0  0  0  0  0
  -23.2047  -28.4639   22.1728 C   0  0  0  0  0  0  0  0  0  0  0  0
  -23.5334  -30.4492   20.8358 C   0  0  0  0  0  0  0  0  0  0  0  0
  -22.8327   -7.2456   23.5051 C   0  0  0  0  0  0  0  0  0  0  0  0
  -25.0971   -8.8638   23.4995 C   0  0  0  0  0  0  0  0  0  0  0  0
  -27.9780  -15.2309   21.9258 C   0  0  0  0  0  0  0  0  0  0  0  0
  -22.0735  -29.0402   22.7506 C   0  0  0  0  0  0  0  0  0  0  0  0
  -22.4021  -31.0255   21.4135 C   0  0  0  0  0  0  0  0  0  0  0  0
  -28.9200  -15.8059   21.0738 C   0  0  0  0  0  0  0  0  0  0  0  0
  -18.8385  -29.5577   21.9141 C   0  0  0  0  0  0  0  0  0  0  0  0
  -17.6964  -28.7658   22.0328 C   0  0  0  0  0  0  0  0  0  0  0  0
  -27.2870  -15.8357   19.2985 C   0  0  0  0  0  0  0  0  0  0  0  0
  -17.7469  -29.0526   24.4312 C   0  0  0  0  0  0  0  0  0  0  0  0
  -23.9347  -29.1684   21.2155 C   0  0  0  0  0  0  0  0  0  0  0  0
  -26.2699  -28.1436   21.2794 C   0  0  0  0  0  0  0  0  0  0  0  0
  -23.0690   -8.0943   22.4122 C   0  0  0  0  0  0  0  0  0  0  0  0
  -26.6846  -14.9434   21.4666 C   0  0  0  0  0  0  0  0  0  0  0  0
  -24.2194   -8.9060   22.4029 C   0  0  0  0  0  0  0  0  0  0  0  0
  -26.3298  -15.2594   20.1474 C   0  0  0  0  0  0  0  0  0  0  0  0
  -21.6722  -30.3210   22.3709 C   0  0  0  0  0  0  0  0  0  0  0  0
  -28.5754  -16.1057   19.7591 C   0  0  0  0  0  0  0  0  0  0  0  0
  -19.4349  -30.0970   23.0539 C   0  0  0  0  0  0  0  0  0  0  0  0
  -17.1506  -28.5133   23.2914 C   0  0  0  0  0  0  0  0  0  0  0  0
  -18.8890  -29.8445   24.3125 C   0  0  0  0  0  0  0  0  0  0  0  0
  -25.1037  -28.5738   20.6187 C   0  0  0  0  0  0  0  0  0  0  0  0
  -27.0732  -27.6580   20.2767 C   0  0  0  0  0  0  0  0  0  0  0  0
  -26.5978  -28.1797   22.6747 C   0  0  0  0  0  0  0  0  0  0  0  0
  -24.9617  -12.2938   21.1281 C   0  0  0  0  0  0  0  0  0  0  0  0
  -27.6731  -24.5859   15.6408 C   0  0  0  0  0  0  0  0  0  0  0  0
  -22.6110  -14.3879   20.3465 C   0  0  0  0  0  0  0  0  0  0  0  0
  -21.7542  -17.4762   19.1739 C   0  0  0  0  0  0  0  0  0  0  0  0
  -22.1134   -8.0593   21.2459 C   0  0  0  0  0  0  0  0  0  0  0  0
  -25.6721  -14.3477   22.4059 C   0  0  0  0  0  0  0  0  0  0  0  0
  -24.9484  -14.9893   19.6114 C   0  0  0  0  0  0  0  0  0  0  0  0
  -22.2557   -9.2536   20.3058 C   0  0  0  0  0  0  0  0  0  0  0  0
  -29.2580  -23.5549   21.9312 C   0  0  0  0  0  0  0  0  0  0  0  0
  -30.5263  -23.2930   21.1222 C   0  0  0  0  0  0  0  0  0  0  0  0
  -28.6093  -22.2560   22.4043 C   0  0  0  0  0  0  0  0  0  0  0  0
  -26.6562  -28.0001   15.2551 C   0  0  0  0  0  0  0  0  0  0  0  0
  -23.7252   -9.5098   19.9869 C   0  0  0  0  0  0  0  0  0  0  0  0
  -26.2290  -28.4088   16.6642 C   0  0  0  0  0  0  0  0  0  0  0  0
  -30.2645  -22.3406   19.9571 C   0  0  0  0  0  0  0  0  0  0  0  0
  -28.3450  -21.3020   21.2410 C   0  0  0  0  0  0  0  0  0  0  0  0
  -26.3158  -26.5407   14.9696 C   0  0  0  0  0  0  0  0  0  0  0  0
  -26.4506  -25.9865   17.3772 C   0  0  0  0  0  0  0  0  0  0  0  0
  -24.5143   -9.8496   21.2571 C   0  0  1  0  0  0  0  0  0  0  0  0
  -24.5396  -13.6246   21.6834 C   0  0  1  0  0  0  0  0  0  0  0  0
  -26.8040  -27.4452   17.7174 C   0  0  2  0  0  0  0  0  0  0  0  0
  -29.6220  -21.0439   20.4443 C   0  0  0  0  0  0  0  0  0  0  0  0
  -19.7551  -18.8842   18.6096 C   0  0  0  0  0  0  0  0  0  0  0  0
  -22.2148  -12.7910   17.7769 C   0  0  0  0  0  0  0  0  0  0  0  0
  -20.9281  -14.7297   16.8528 C   0  0  0  0  0  0  0  0  0  0  0  0
  -20.0971  -13.5357   18.8793 C   0  0  0  0  0  0  0  0  0  0  0  0
  -22.4854  -19.5250   21.1807 C   0  0  0  0  0  0  0  0  0  0  0  0
  -28.1995  -23.7259   16.7621 C   0  0  0  0  0  0  0  0  0  0  0  0
  -29.0696  -22.5943   16.2216 C   0  0  0  0  0  0  0  0  0  0  0  0
  -29.6761  -21.7377   17.3398 C   0  0  0  0  0  0  0  0  0  0  0  0
  -30.0615  -18.5685   17.5790 C   0  0  0  0  0  0  0  0  0  0  0  0
  -28.6310  -21.0139   18.1806 C   0  0  0  0  0  0  0  0  0  0  0  0
  -30.4552  -19.4256   18.7726 C   0  0  0  0  0  0  0  0  0  0  0  0
  -28.9984  -17.5245   17.8979 C   0  0  0  0  0  0  0  0  0  1  0  0
  -22.1305  -15.0265   19.0658 C   0  0  1  0  0  0  0  0  0  0  0  0
  -20.7641  -18.5081   19.6834 C   0  0  2  0  0  0  0  0  0  0  0  0
  -21.3693  -14.0241   18.1529 C   0  0  0  0  0  0  0  0  0  0  0  0
  -25.1572  -28.3788   19.2985 N   0  0  0  0  0  0  0  0  0  0  0  0
  -26.3669  -27.8208   19.1214 N   0  0  0  0  0  0  0  0  0  0  0  0
  -23.9956  -14.4000   20.5667 N   0  0  0  0  0  0  0  0  0  0  0  0
  -26.8605  -25.6599   16.0043 N   0  0  0  0  0  0  0  0  0  0  0  0
  -28.3078  -27.1119   20.2794 N   0  0  0  0  0  0  0  0  0  0  0  0
  -27.2456  -29.3153   23.1797 N   0  0  0  0  0  0  0  0  0  0  0  0
  -24.2688  -11.2197   21.6532 N   0  0  0  0  0  0  0  0  0  0  0  0
  -21.3450  -16.1909   19.4599 N   0  0  0  0  0  0  0  0  0  0  0  0
  -21.4783  -19.7443   20.1109 N   0  3  0  0  0  0  0  0  0  0  0  0
  -29.2915  -20.1987   19.2663 N   0  3  1  0  0  0  0  0  0  0  0  0
  -26.3392  -27.2259   23.4474 O   0  0  0  0  0  0  0  0  0  0  0  0
  -25.8493  -12.2451   20.2846 O   0  0  0  0  0  0  0  0  0  0  0  0
  -27.9786  -24.3115   14.4774 O   0  0  0  0  0  0  0  0  0  0  0  0
  -21.7875  -13.9027   21.1263 O   0  0  0  0  0  0  0  0  0  0  0  0
  -22.7855  -17.7799   18.5783 O   0  0  0  0  0  0  0  0  0  0  0  0
  -20.5683  -30.8836   22.9343 O   0  0  0  0  0  0  0  0  0  0  0  0
  -29.4931  -16.6664   18.9252 O   0  0  0  0  0  0  0  0  0  1  0  0
  -16.0529  -27.7541   23.4051 F   0  0  0  0  0  0  0  0  0  0  0  0
  -19.4569  -30.3608   25.4110 F   0  0  0  0  0  0  0  0  0  0  0  0
  1  2  1  0  0  0  0
  1  5  2  0  0  0  0
  2  6  2  0  0  0  0
  3  8  2  0  0  0  0
  3 15  1  0  0  0  0
  4  9  1  0  0  0  0
  4 15  2  0  0  0  0
  5 17  1  0  0  0  0
  6 19  1  0  0  0  0
  7 10  2  0  0  0  0
  7 18  1  0  0  0  0
  8 21  1  0  0  0  0
  9 21  2  0  0  0  0
 10 22  1  0  0  0  0
 11 12  2  0  0  0  0
 11 23  1  0  0  0  0
 12 24  1  0  0  0  0
 13 20  1  0  0  0  0
 13 22  2  0  0  0  0
 14 24  2  0  0  0  0
 14 25  1  0  0  0  0
 15 26  1  0  0  0  0
 16 26  1  0  0  0  0
 16 27  2  0  0  0  0
 16 28  1  0  0  0  0
 17 19  2  0  0  0  0
 17 33  1  0  0  0  0
 18 20  2  0  0  0  0
 18 34  1  0  0  0  0
 19 47  1  0  0  0  0
 20 35  1  0  0  0  0
 21 81  1  0  0  0  0
 22 82  1  0  0  0  0
 23 25  2  0  0  0  0
 23 81  1  0  0  0  0
 24 83  1  0  0  0  0
 25 84  1  0  0  0  0
 26 66  2  0  0  0  0
 27 67  1  0  0  0  0
 27 70  1  0  0  0  0
 28 71  1  0  0  0  0
 28 76  2  0  0  0  0
 29 48  1  0  0  0  0
 29 72  1  0  0  0  0
 29 77  2  0  0  0  0
 30 56  1  0  0  0  0
 30 69  1  0  0  0  0
 30 78  2  0  0  0  0
 31 63  1  0  0  0  0
 31 68  1  0  0  0  0
 31 79  2  0  0  0  0
 32 64  1  0  0  0  0
 32 73  1  0  0  0  0
 32 80  2  0  0  0  0
 33 36  1  0  0  0  0
 34 48  1  0  0  0  0
 35 68  1  0  0  0  0
 36 41  1  0  0  0  0
 37 38  1  0  0  0  0
 37 39  1  0  0  0  0
 38 43  1  0  0  0  0
 39 44  1  0  0  0  0
 40 42  1  0  0  0  0
 40 45  1  0  0  0  0
 41 47  1  0  0  0  0
 42 49  1  0  0  0  0
 43 50  1  0  0  0  0
 44 50  1  0  0  0  0
 45 69  1  0  0  0  0
 46 49  1  0  0  0  0
 46 69  1  0  0  0  0
 47 72  1  0  0  0  0
 48 68  1  0  0  0  0
 49 67  1  0  0  0  0
 50 75  1  0  0  0  0
 51 64  1  0  0  0  0
 52 65  1  0  0  0  0
 53 65  1  0  0  0  0
 54 65  1  0  0  0  0
 55 74  1  0  0  0  0
 56 57  1  0  0  0  0
 57 58  1  0  0  0  0
 58 60  1  0  0  0  0
 59 61  1  0  0  0  0
 59 62  1  0  0  0  0
 60 75  1  0  0  0  0
 61 75  1  0  0  0  0
 62 82  1  0  0  0  0
 63 65  1  0  0  0  0
 63 73  1  0  0  0  0
 64 74  1  0  0  0  0
 66 67  1  0  0  0  0
M  CHG  2  74   1  75   1
M  ISO  4  30 100  56 100  62 101  82 101
M  END
> <Batch ID>
0037

> <Smiles>
CNC(C)C(=O)NC(C(=O)N1Cc2cc([101O:1][101CH2:1]CCN(CCC[100CH2:0][100C:0](=O)N3CCCC(n4nc(-c5ccc(Oc6ccc(F)cc6F)cc5)c(C(N)=O)c4N)C3)C3CCCCC3)ccc2CC1C(=O)NC1CCCc2ccccc21)C(C)(C)C

> <Shape>
0.254

> <Color>
0.090

> <Negative vol penalty>
0.000

$$$$

  -OEChem-04052316593D

 83 91  0     1  0  0  0  0  0999 V2000
  -21.7147  -11.9357   20.5726 C   0  0  0  0  0  0  0  0  0  0  0  0
  -21.5757  -13.2241   21.0784 C   0  0  0  0  0  0  0  0  0  0  0  0
  -25.0415  -28.5289   19.4355 C   0  0  0  0  0  0  0  0  0  0  0  0
  -25.8635  -26.9338   21.0533 C   0  0  0  0  0  0  0  0  0  0  0  0
  -22.9848  -11.4258   20.3065 C   0  0  0  0  0  0  0  0  0  0  0  0
  -22.7068  -14.0032   21.3195 C   0  0  0  0  0  0  0  0  0  0  0  0
  -23.2054  -20.0718   20.6644 C   0  0  0  0  0  0  0  0  0  0  0  0
  -23.8100  -21.7354   26.8428 C   0  0  0  0  0  0  0  0  0  0  0  0
  -22.7384  -21.0540   27.4198 C   0  0  0  0  0  0  0  0  0  0  0  0
  -26.2991  -29.1304   19.3896 C   0  0  0  0  0  0  0  0  0  0  0  0
  -27.1212  -27.5353   21.0073 C   0  0  0  0  0  0  0  0  0  0  0  0
  -23.1338  -21.1228   21.5776 C   0  0  0  0  0  0  0  0  0  0  0  0
  -30.6457  -28.4265   21.0458 C   0  0  0  0  0  0  0  0  0  0  0  0
  -31.7612  -27.5933   20.9624 C   0  0  0  0  0  0  0  0  0  0  0  0
  -25.5398  -21.1268   21.7525 C   0  0  0  0  0  0  0  0  0  0  0  0
  -22.2701  -23.0032   25.4797 C   0  0  0  0  0  0  0  0  0  0  0  0
  -30.9313  -26.6907   18.8807 C   0  0  0  0  0  0  0  0  0  0  0  0
  -24.8236  -27.4307   20.2674 C   0  0  0  0  0  0  0  0  0  0  0  0
  -23.0572  -25.7525   19.5116 C   0  0  0  0  0  0  0  0  0  0  0  0
  -24.1316  -12.2025   20.5353 C   0  0  0  0  0  0  0  0  0  0  0  0
  -24.4462  -19.5322   20.2961 C   0  0  0  0  0  0  0  0  0  0  0  0
  -23.9935  -13.5027   21.0575 C   0  0  0  0  0  0  0  0  0  0  0  0
  -25.6245  -20.0706   20.8325 C   0  0  0  0  0  0  0  0  0  0  0  0
  -23.5759  -22.7100   25.8728 C   0  0  0  0  0  0  0  0  0  0  0  0
  -21.4326  -21.3471   27.0266 C   0  0  0  0  0  0  0  0  0  0  0  0
  -21.1984  -22.3217   26.0565 C   0  0  0  0  0  0  0  0  0  0  0  0
  -27.3390  -28.6336   20.1754 C   0  0  0  0  0  0  0  0  0  0  0  0
  -24.3009  -21.6486   22.1240 C   0  0  0  0  0  0  0  0  0  0  0  0
  -29.6729  -28.3918   20.0467 C   0  0  0  0  0  0  0  0  0  0  0  0
  -31.9040  -26.7254   19.8798 C   0  0  0  0  0  0  0  0  0  0  0  0
  -29.8157  -27.5239   18.9641 C   0  0  0  0  0  0  0  0  0  0  0  0
  -23.5245  -26.8092   20.3158 C   0  0  0  0  0  0  0  0  0  0  0  0
  -21.7735  -25.5314   19.9471 C   0  0  0  0  0  0  0  0  0  0  0  0
  -23.7239  -25.0349   18.4646 C   0  0  0  0  0  0  0  0  0  0  0  0
  -25.8181  -16.6770   20.5600 C   0  0  0  0  0  0  0  0  0  0  0  0
  -28.1438  -18.0615   18.7722 C   0  0  0  0  0  0  0  0  0  0  0  0
  -29.6980  -20.9242   17.7541 C   0  0  0  0  0  0  0  0  0  0  0  0
  -18.9961  -26.5728   25.1483 C   0  0  0  0  0  0  0  0  0  0  0  0
  -25.4859  -11.5911   20.2769 C   0  0  0  0  0  0  0  0  0  0  0  0
  -24.5079  -18.4163   19.2894 C   0  0  0  0  0  0  0  0  0  0  0  0
  -26.9826  -19.5404   20.4543 C   0  0  0  0  0  0  0  0  0  0  0  0
  -26.6141  -12.6170   20.2073 C   0  0  0  0  0  0  0  0  0  0  0  0
  -18.0536  -27.7881   21.9372 C   0  0  0  0  0  0  0  0  0  0  0  0
  -26.5115  -13.6029   21.3668 C   0  0  0  0  0  0  0  0  0  0  0  0
  -19.3067  -27.5797   21.0849 C   0  0  0  0  0  0  0  0  0  0  0  0
  -18.4046  -28.1904   23.3679 C   0  0  0  0  0  0  0  0  0  0  0  0
  -20.5953  -27.0737   23.2020 C   0  0  0  0  0  0  0  0  0  0  0  0
  -25.1952  -14.3875   21.3089 C   0  0  1  0  0  0  0  0  0  0  0  0
  -25.7957  -17.6031   19.3770 C   0  0  1  0  0  0  0  0  0  0  0  0
  -20.2935  -26.6124   21.7660 C   0  0  2  0  0  0  0  0  0  0  0  0
  -20.3013  -20.6036   27.6576 C   0  0  0  0  0  0  0  0  0  0  0  0
  -31.5916  -21.7348   16.3207 C   0  0  0  0  0  0  0  0  0  0  0  0
  -30.1349  -17.1904   20.9139 C   0  0  0  0  0  0  0  0  0  0  0  0
  -31.7821  -18.8051   19.9404 C   0  0  0  0  0  0  0  0  0  0  0  0
  -30.9392  -16.9035   18.5633 C   0  0  0  0  0  0  0  0  0  0  0  0
  -27.8706  -22.4652   16.0092 C   0  0  0  0  0  0  0  0  0  0  0  0
  -24.7358  -23.4469   25.2483 C   0  0  0  0  0  0  0  0  0  0  0  0
  -19.8089  -22.6522   25.6196 C   0  0  0  0  0  0  0  0  0  0  0  0
  -19.0417  -23.5763   26.5845 C   0  0  0  0  0  0  0  0  0  0  0  0
  -19.7241  -24.9170   26.8476 C   0  0  0  0  0  0  0  0  0  0  0  0
  -25.2638  -22.7464   24.0011 C   0  0  0  0  0  0  0  0  0  1  0  0
  -29.3998  -18.8436   19.0719 C   0  0  1  0  0  0  0  0  0  0  0  0
  -30.1062  -21.4134   16.3763 C   0  0  2  0  0  0  0  0  0  0  0  0
  -30.5384  -17.9446   19.6312 C   0  0  0  0  0  0  0  0  0  0  0  0
  -22.6119  -27.2303   21.1955 N   0  0  0  0  0  0  0  0  0  0  0  0
  -21.5582  -26.4342   20.9465 N   0  0  0  0  0  0  0  0  0  0  0  0
  -26.9903  -18.4448   19.4710 N   0  0  0  0  0  0  0  0  0  0  0  0
  -19.3423  -27.2314   23.9570 N   0  0  0  0  0  0  0  0  0  0  0  0
  -20.8191  -24.6548   19.5688 N   0  0  0  0  0  0  0  0  0  0  0  0
  -25.0413  -25.3906   18.1448 N   0  0  0  0  0  0  0  0  0  0  0  0
  -25.2730  -15.4321   20.3103 N   0  0  0  0  0  0  0  0  0  0  0  0
  -29.7447  -19.5489   17.8423 N   0  0  0  0  0  0  0  0  0  0  0  0
  -19.9386  -25.6755   25.6354 N   0  0  0  0  0  0  0  0  0  0  0  0
  -29.3454  -22.6435   16.0170 N   0  3  0  0  0  0  0  0  0  0  0  0
  -23.1622  -24.1168   17.8203 O   0  0  0  0  0  0  0  0  0  0  0  0
  -26.2959  -17.0629   21.6204 O   0  0  0  0  0  0  0  0  0  0  0  0
  -28.1831  -17.1490   17.9431 O   0  0  0  0  0  0  0  0  0  0  0  0
  -29.3740  -21.6860   18.6625 O   0  0  0  0  0  0  0  0  0  0  0  0
  -17.9239  -26.7658   25.7316 O   0  0  0  0  0  0  0  0  0  0  0  0
  -28.5664  -29.2202   20.1306 O   0  0  0  0  0  0  0  0  0  0  0  0
  -24.2338  -22.6740   23.0161 O   0  0  0  0  0  0  0  0  0  1  0  0
  -32.9761  -25.9265   19.7990 F   0  0  0  0  0  0  0  0  0  0  0  0
  -28.8850  -27.4868   18.0006 F   0  0  0  0  0  0  0  0  0  0  0  0
  1  2  1  0  0  0  0
  1  5  2  0  0  0  0
  2  6  2  0  0  0  0
  3 10  2  0  0  0  0
  3 18  1  0  0  0  0
  4 11  1  0  0  0  0
  4 18  2  0  0  0  0
  5 20  1  0  0  0  0
  6 22  1  0  0  0  0
  7 12  2  0  0  0  0
  7 21  1  0  0  0  0
  8  9  2  0  0  0  0
  8 24  1  0  0  0  0
  9 25  1  0  0  0  0
 10 27  1  0  0  0  0
 11 27  2  0  0  0  0
 12 28  1  0  0  0  0
 13 14  2  0  0  0  0
 13 29  1  0  0  0  0
 14 30  1  0  0  0  0
 15 23  1  0  0  0  0
 15 28  2  0  0  0  0
 16 24  2  0  0  0  0
 16 26  1  0  0  0  0
 17 30  2  0  0  0  0
 17 31  1  0  0  0  0
 18 32  1  0  0  0  0
 19 32  1  0  0  0  0
 19 33  2  0  0  0  0
 19 34  1  0  0  0  0
 20 22  2  0  0  0  0
 20 39  1  0  0  0  0
 21 23  2  0  0  0  0
 21 40  1  0  0  0  0
 22 48  1  0  0  0  0
 23 41  1  0  0  0  0
 24 57  1  0  0  0  0
 25 26  2  0  0  0  0
 25 51  1  0  0  0  0
 26 58  1  0  0  0  0
 27 80  1  0  0  0  0
 28 81  1  0  0  0  0
 29 31  2  0  0  0  0
 29 80  1  0  0  0  0
 30 82  1  0  0  0  0
 31 83  1  0  0  0  0
 32 65  2  0  0  0  0
 33 66  1  0  0  0  0
 33 69  1  0  0  0  0
 34 70  1  0  0  0  0
 34 75  2  0  0  0  0
 35 49  1  0  0  0  0
 35 71  1  0  0  0  0
 35 76  2  0  0  0  0
 36 62  1  0  0  0  0
 36 67  1  0  0  0  0
 36 77  2  0  0  0  0
 37 63  1  0  0  0  0
 37 72  1  0  0  0  0
 37 78  2  0  0  0  0
 38 68  1  0  0  0  0
 38 73  1  0  0  0  0
 38 79  2  0  0  0  0
 39 42  1  0  0  0  0
 40 49  1  0  0  0  0
 41 67  1  0  0  0  0
 42 44  1  0  0  0  0
 43 45  1  0  0  0  0
 43 46  1  0  0  0  0
 44 48  1  0  0  0  0
 45 50  1  0  0  0  0
 46 68  1  0  0  0  0
 47 50  1  0  0  0  0
 47 68  1  0  0  0  0
 48 71  1  0  0  0  0
 49 67  1  0  0  0  0
 50 66  1  0  0  0  0
 52 63  1  0  0  0  0
 53 64  1  0  0  0  0
 54 64  1  0  0  0  0
 55 64  1  0  0  0  0
 56 74  1  0  0  0  0
 57 61  1  0  0  0  0
 58 59  1  0  0  0  0
 59 60  1  0  0  0  0
 60 73  1  0  0  0  0
 61 81  1  0  0  0  0
 62 64  1  0  0  0  0
 62 72  1  0  0  0  0
 63 74  1  0  0  0  0
 65 66  1  0  0  0  0
M  CHG  1  74   1
M  ISO  4  38 100  61 101  73 100  81 101
M  END
> <Batch ID>
0037

> <Smiles>
CNC(C)C(=O)NC(C(=O)N1Cc2cc([101O:1][101CH2:1]Cc3ccc(C)c(CCC[100NH:0][100C:0](=O)N4CCCC(n5nc(-c6ccc(Oc7ccc(F)cc7F)cc6)c(C(N)=O)c5N)C4)c3)ccc2CC1C(=O)NC1CCCc2ccccc21)C(C)(C)C

> <Shape>
0.197

> <Color>
0.077

> <Negative vol penalty>
0.000

$$$$

  -OEChem-04052316593D

 84 92  0     1  0  0  0  0  0999 V2000
  -28.6277  -33.7971   24.1584 C   0  0  0  0  0  0  0  0  0  0  0  0
  -28.6549  -32.4063   24.1748 C   0  0  0  0  0  0  0  0  0  0  0  0
  -23.0609  -10.1741   22.2534 C   0  0  0  0  0  0  0  0  0  0  0  0
  -22.6125  -10.1178   19.8800 C   0  0  0  0  0  0  0  0  0  0  0  0
  -27.4085  -34.4683   24.0749 C   0  0  0  0  0  0  0  0  0  0  0  0
  -27.4629  -31.6858   24.1089 C   0  0  0  0  0  0  0  0  0  0  0  0
  -27.7168  -27.8019   20.8692 C   0  0  0  0  0  0  0  0  0  0  0  0
  -22.6653   -8.8408   22.3598 C   0  0  0  0  0  0  0  0  0  0  0  0
  -22.2170   -8.7844   19.9864 C   0  0  0  0  0  0  0  0  0  0  0  0
  -28.3784  -26.6536   21.3023 C   0  0  0  0  0  0  0  0  0  0  0  0
  -21.4312   -5.5569   23.3174 C   0  0  0  0  0  0  0  0  0  0  0  0
  -20.5887   -5.2112   24.3739 C   0  0  0  0  0  0  0  0  0  0  0  0
  -26.2539  -25.6229   21.7956 C   0  0  0  0  0  0  0  0  0  0  0  0
  -28.8981  -21.5740   19.5273 C   0  0  0  0  0  0  0  0  0  0  0  0
  -27.5890  -21.4216   21.5520 C   0  0  0  0  0  0  0  0  0  0  0  0
  -18.9241   -6.7577   23.5525 C   0  0  0  0  0  0  0  0  0  0  0  0
  -23.0344  -10.8127   21.0135 C   0  0  0  0  0  0  0  0  0  0  0  0
  -24.7389  -12.6748   20.6464 C   0  0  0  0  0  0  0  0  0  0  0  0
  -26.2015  -33.7556   23.9982 C   0  0  0  0  0  0  0  0  0  0  0  0
  -26.3168  -27.8735   20.9062 C   0  0  0  0  0  0  0  0  0  0  0  0
  -26.2263  -32.3482   24.0256 C   0  0  0  0  0  0  0  0  0  0  0  0
  -25.5768  -26.7723   21.3599 C   0  0  0  0  0  0  0  0  0  0  0  0
  -28.7324  -21.8578   20.8828 C   0  0  0  0  0  0  0  0  0  0  0  0
  -27.9203  -20.8541   18.8408 C   0  0  0  0  0  0  0  0  0  0  0  0
  -26.6111  -20.7016   20.8655 C   0  0  0  0  0  0  0  0  0  0  0  0
  -26.7768  -20.4178   19.5099 C   0  0  0  0  0  0  0  0  0  0  0  0
  -22.2434   -8.1459   21.2263 C   0  0  0  0  0  0  0  0  0  0  0  0
  -27.6470  -25.5650   21.7683 C   0  0  0  0  0  0  0  0  0  0  0  0
  -21.0202   -6.5031   22.3785 C   0  0  0  0  0  0  0  0  0  0  0  0
  -19.3351   -5.8115   24.4914 C   0  0  0  0  0  0  0  0  0  0  0  0
  -19.7667   -7.1035   22.4960 C   0  0  0  0  0  0  0  0  0  0  0  0
  -23.4424  -12.1902   20.9031 C   0  0  0  0  0  0  0  0  0  0  0  0
  -24.5996  -14.0412   20.6395 C   0  0  0  0  0  0  0  0  0  0  0  0
  -25.9601  -11.9543   20.4333 C   0  0  0  0  0  0  0  0  0  0  0  0
  -24.2038  -29.7120   22.4091 C   0  0  0  0  0  0  0  0  0  0  0  0
  -22.0742  -28.0927   20.5747 C   0  0  0  0  0  0  0  0  0  0  0  0
  -21.3410  -25.2812   18.7846 C   0  0  0  0  0  0  0  0  0  0  0  0
  -21.8383  -18.6439   19.1111 C   0  0  0  0  0  0  0  0  0  0  0  0
  -24.9052  -34.5255   23.9569 C   0  0  0  0  0  0  0  0  0  0  0  0
  -25.6172  -29.1092   20.4104 C   0  0  0  0  0  0  0  0  0  0  0  0
  -24.0714  -26.7910   21.4008 C   0  0  0  0  0  0  0  0  0  0  0  0
  -23.7112  -33.6845   23.5128 C   0  0  0  0  0  0  0  0  0  0  0  0
  -20.7145  -16.9616   22.0408 C   0  0  0  0  0  0  0  0  0  0  0  0
  -23.6971  -32.3477   24.2472 C   0  0  0  0  0  0  0  0  0  0  0  0
  -21.4258  -15.6086   21.9813 C   0  0  0  0  0  0  0  0  0  0  0  0
  -20.3101  -17.4481   20.6510 C   0  0  0  0  0  0  0  0  0  0  0  0
  -22.1190  -16.1396   19.6072 C   0  0  0  0  0  0  0  0  0  0  0  0
  -24.9560  -31.5312   23.9309 C   0  0  1  0  0  0  0  0  0  0  0  0
  -24.2084  -29.2653   20.9745 C   0  0  1  0  0  0  0  0  0  0  0  0
  -22.5959  -15.6339   20.9795 C   0  0  2  0  0  0  0  0  0  0  0  0
  -28.1224  -20.5624   17.3896 C   0  0  0  0  0  0  0  0  0  0  0  0
  -25.3958  -20.2457   21.6051 C   0  0  0  0  0  0  0  0  0  0  0  0
  -19.5084  -24.2304   17.4301 C   0  0  0  0  0  0  0  0  0  0  0  0
  -20.5706  -27.4126   23.1411 C   0  0  0  0  0  0  0  0  0  0  0  0
  -19.3520  -25.6310   21.8725 C   0  0  0  0  0  0  0  0  0  0  0  0
  -19.1086  -28.0224   21.2059 C   0  0  0  0  0  0  0  0  0  0  0  0
  -23.0268  -25.1987   16.3535 C   0  0  0  0  0  0  0  0  0  0  0  0
  -29.7902  -22.6374   21.6255 C   0  0  0  0  0  0  0  0  0  0  0  0
  -25.7288  -19.6456   18.7737 C   0  0  0  0  0  0  0  0  0  0  0  0
  -24.5037  -20.4792   18.3555 C   0  0  0  0  0  0  0  0  0  0  0  0
  -23.4572  -19.7044   17.5575 C   0  0  0  0  0  0  0  0  0  0  0  0
  -29.5425  -24.1412   21.5781 C   0  0  0  0  0  0  0  0  0  1  0  0
  -21.2803  -26.8182   20.7309 C   0  0  1  0  0  0  0  0  0  0  0  0
  -20.7589  -25.0951   17.3950 C   0  0  2  0  0  0  0  0  0  0  0  0
  -20.1063  -26.9711   21.7388 C   0  0  0  0  0  0  0  0  0  0  0  0
  -22.5454  -13.1691   21.0487 N   0  0  0  0  0  0  0  0  0  0  0  0
  -23.2796  -14.2825   20.8832 N   0  0  0  0  0  0  0  0  0  0  0  0
  -23.4336  -28.0244   20.9112 N   0  0  0  0  0  0  0  0  0  0  0  0
  -21.4651  -17.4499   19.7499 N   0  0  0  0  0  0  0  0  0  0  0  0
  -25.4787  -15.0478   20.4488 N   0  0  0  0  0  0  0  0  0  0  0  0
  -25.9253  -10.5538   20.4739 N   0  0  0  0  0  0  0  0  0  0  0  0
  -24.8451  -30.9168   22.6252 N   0  0  0  0  0  0  0  0  0  0  0  0
  -20.8674  -26.4273   19.3874 N   0  0  0  0  0  0  0  0  0  0  0  0
  -22.9479  -18.5594   18.2789 N   0  0  0  0  0  0  0  0  0  0  0  0
  -21.7557  -24.4436   16.4989 N   0  3  0  0  0  0  0  0  0  0  0  0
  -27.0528  -12.5356   20.2297 O   0  0  0  0  0  0  0  0  0  0  0  0
  -23.6576  -29.0160   23.2569 O   0  0  0  0  0  0  0  0  0  0  0  0
  -21.5107  -29.1095   20.1623 O   0  0  0  0  0  0  0  0  0  0  0  0
  -22.1335  -24.4872   19.2867 O   0  0  0  0  0  0  0  0  0  0  0  0
  -21.2311  -19.7076   19.2746 O   0  0  0  0  0  0  0  0  0  0  0  0
  -21.8575   -6.8448   21.3297 O   0  0  0  0  0  0  0  0  0  0  0  0
  -28.2903  -24.4433   22.1923 O   0  0  0  0  0  0  0  0  0  1  0  0
  -18.5255   -5.4782   25.5051 F   0  0  0  0  0  0  0  0  0  0  0  0
  -19.3659   -8.0122   21.5964 F   0  0  0  0  0  0  0  0  0  0  0  0
  1  2  1  0  0  0  0
  1  5  2  0  0  0  0
  2  6  2  0  0  0  0
  3  8  2  0  0  0  0
  3 17  1  0  0  0  0
  4  9  1  0  0  0  0
  4 17  2  0  0  0  0
  5 19  1  0  0  0  0
  6 21  1  0  0  0  0
  7 10  2  0  0  0  0
  7 20  1  0  0  0  0
  8 27  1  0  0  0  0
  9 27  2  0  0  0  0
 10 28  1  0  0  0  0
 11 12  2  0  0  0  0
 11 29  1  0  0  0  0
 12 30  1  0  0  0  0
 13 22  1  0  0  0  0
 13 28  2  0  0  0  0
 14 23  1  0  0  0  0
 14 24  2  0  0  0  0
 15 23  2  0  0  0  0
 15 25  1  0  0  0  0
 16 30  2  0  0  0  0
 16 31  1  0  0  0  0
 17 32  1  0  0  0  0
 18 32  1  0  0  0  0
 18 33  2  0  0  0  0
 18 34  1  0  0  0  0
 19 21  2  0  0  0  0
 19 39  1  0  0  0  0
 20 22  2  0  0  0  0
 20 40  1  0  0  0  0
 21 48  1  0  0  0  0
 22 41  1  0  0  0  0
 23 58  1  0  0  0  0
 24 26  1  0  0  0  0
 24 51  1  0  0  0  0
 25 26  2  0  0  0  0
 25 52  1  0  0  0  0
 26 59  1  0  0  0  0
 27 81  1  0  0  0  0
 28 82  1  0  0  0  0
 29 31  2  0  0  0  0
 29 81  1  0  0  0  0
 30 83  1  0  0  0  0
 31 84  1  0  0  0  0
 32 66  2  0  0  0  0
 33 67  1  0  0  0  0
 33 70  1  0  0  0  0
 34 71  1  0  0  0  0
 34 76  2  0  0  0  0
 35 49  1  0  0  0  0
 35 72  1  0  0  0  0
 35 77  2  0  0  0  0
 36 63  1  0  0  0  0
 36 68  1  0  0  0  0
 36 78  2  0  0  0  0
 37 64  1  0  0  0  0
 37 73  1  0  0  0  0
 37 79  2  0  0  0  0
 38 69  1  0  0  0  0
 38 74  1  0  0  0  0
 38 80  2  0  0  0  0
 39 42  1  0  0  0  0
 40 49  1  0  0  0  0
 41 68  1  0  0  0  0
 42 44  1  0  0  0  0
 43 45  1  0  0  0  0
 43 46  1  0  0  0  0
 44 48  1  0  0  0  0
 45 50  1  0  0  0  0
 46 69  1  0  0  0  0
 47 50  1  0  0  0  0
 47 69  1  0  0  0  0
 48 72  1  0  0  0  0
 49 68  1  0  0  0  0
 50 67  1  0  0  0  0
 53 64  1  0  0  0  0
 54 65  1  0  0  0  0
 55 65  1  0  0  0  0
 56 65  1  0  0  0  0
 57 75  1  0  0  0  0
 58 62  1  0  0  0  0
 59 60  1  0  0  0  0
 60 61  1  0  0  0  0
 61 74  1  0  0  0  0
 62 82  1  0  0  0  0
 63 65  1  0  0  0  0
 63 73  1  0  0  0  0
 64 75  1  0  0  0  0
 66 67  1  0  0  0  0
M  CHG  1  75   1
M  ISO  4  38 100  62 101  74 100  82 101
M  END
> <Batch ID>
0037

> <Smiles>
CNC(C)C(=O)NC(C(=O)N1Cc2cc([101O:1][101CH2:1]Cc3cc(C)c(CCC[100NH:0][100C:0](=O)N4CCCC(n5nc(-c6ccc(Oc7ccc(F)cc7F)cc6)c(C(N)=O)c5N)C4)c(C)c3)ccc2CC1C(=O)NC1CCCc2ccccc21)C(C)(C)C

> <Shape>
0.264

> <Color>
0.102

> <Negative vol penalty>
0.000

$$$$

  -OEChem-04052316593D

 86 94  0     1  0  0  0  0  0999 V2000
  -18.3958  -28.2955   22.7727 C   0  0  0  0  0  0  0  0  0  0  0  0
  -18.1761  -26.9371   22.5683 C   0  0  0  0  0  0  0  0  0  0  0  0
  -27.1321  -23.5910   19.8759 C   0  0  0  0  0  0  0  0  0  0  0  0
  -29.4636  -23.5284   19.2453 C   0  0  0  0  0  0  0  0  0  0  0  0
  -19.6954  -28.8002   22.7585 C   0  0  0  0  0  0  0  0  0  0  0  0
  -19.2559  -26.0826   22.3484 C   0  0  0  0  0  0  0  0  0  0  0  0
  -21.3928  -19.3564   23.5764 C   0  0  0  0  0  0  0  0  0  0  0  0
  -27.2123  -24.9744   20.0350 C   0  0  0  0  0  0  0  0  0  0  0  0
  -29.5437  -24.9118   19.4043 C   0  0  0  0  0  0  0  0  0  0  0  0
  -21.9002  -18.2472   22.9011 C   0  0  0  0  0  0  0  0  0  0  0  0
  -29.8290  -27.1141   21.9537 C   0  0  0  0  0  0  0  0  0  0  0  0
  -30.9317  -27.6250   22.6383 C   0  0  0  0  0  0  0  0  0  0  0  0
  -24.1072  -19.2181   22.9768 C   0  0  0  0  0  0  0  0  0  0  0  0
  -24.9019  -15.5845   19.6765 C   0  0  0  0  0  0  0  0  0  0  0  0
  -26.7420  -13.7770   20.7394 C   0  0  0  0  0  0  0  0  0  0  0  0
  -31.5606  -28.8922   20.6798 C   0  0  0  0  0  0  0  0  0  0  0  0
  -28.2578  -22.8679   19.4811 C   0  0  0  0  0  0  0  0  0  0  0  0
  -27.3371  -20.7309   18.4355 C   0  0  0  0  0  0  0  0  0  0  0  0
  -20.7924  -27.9499   22.5480 C   0  0  0  0  0  0  0  0  0  0  0  0
  -22.2384  -20.4116   23.9480 C   0  0  0  0  0  0  0  0  0  0  0  0
  -20.5713  -26.5766   22.3300 C   0  0  0  0  0  0  0  0  0  0  0  0
  -23.6085  -20.3384   23.6591 C   0  0  0  0  0  0  0  0  0  0  0  0
  -25.2230  -14.4225   18.9750 C   0  0  0  0  0  0  0  0  0  0  0  0
  -25.5009  -15.8429   20.9095 C   0  0  0  0  0  0  0  0  0  0  0  0
  -26.1430  -13.5187   19.5064 C   0  0  0  0  0  0  0  0  0  0  0  0
  -28.4180  -25.6348   19.7991 C   0  0  0  0  0  0  0  0  0  0  0  0
  -23.2570  -18.1792   22.5986 C   0  0  0  0  0  0  0  0  0  0  0  0
  -29.5921  -27.4922   20.6321 C   0  0  0  0  0  0  0  0  0  0  0  0
  -31.7975  -28.5140   22.0014 C   0  0  0  0  0  0  0  0  0  0  0  0
  -26.4209  -14.9391   21.4409 C   0  0  0  0  0  0  0  0  0  0  0  0
  -30.4579  -28.3813   19.9952 C   0  0  0  0  0  0  0  0  0  0  0  0
  -28.1758  -21.4388   19.3172 C   0  0  0  0  0  0  0  0  0  0  0  0
  -27.6380  -19.4100   18.6616 C   0  0  0  0  0  0  0  0  0  0  0  0
  -26.3725  -21.2234   17.4961 C   0  0  0  0  0  0  0  0  0  0  0  0
  -22.4139  -23.5038   23.2331 C   0  0  0  0  0  0  0  0  0  0  0  0
  -24.7356  -23.4966   25.4985 C   0  0  0  0  0  0  0  0  0  0  0  0
  -27.0727  -21.7274   27.2463 C   0  0  0  0  0  0  0  0  0  0  0  0
  -31.3668  -15.3372   19.4701 C   0  0  0  0  0  0  0  0  0  0  0  0
  -22.1755  -28.5491   22.4942 C   0  0  0  0  0  0  0  0  0  0  0  0
  -21.6802  -21.5888   24.6996 C   0  0  0  0  0  0  0  0  0  0  0  0
  -24.5620  -21.4354   24.0541 C   0  0  0  0  0  0  0  0  0  0  0  0
  -23.2921  -27.5167   22.6272 C   0  0  0  0  0  0  0  0  0  0  0  0
  -30.3789  -17.2363   22.3152 C   0  0  0  0  0  0  0  0  0  0  0  0
  -23.0227  -26.3192   21.7216 C   0  0  0  0  0  0  0  0  0  0  0  0
  -29.6544  -18.4429   21.7160 C   0  0  0  0  0  0  0  0  0  0  0  0
  -31.5651  -16.8059   21.4551 C   0  0  0  0  0  0  0  0  0  0  0  0
  -30.5191  -17.7614   19.4385 C   0  0  0  0  0  0  0  0  0  0  0  0
  -21.7185  -25.6139   22.1129 C   0  0  1  0  0  0  0  0  0  0  0  0
  -22.5431  -22.8407   24.5753 C   0  0  1  0  0  0  0  0  0  0  0  0
  -29.2816  -18.1977   20.2414 C   0  0  2  0  0  0  0  0  0  0  0  0
  -23.1321  -13.6743   17.8109 C   0  0  0  0  0  0  0  0  0  0  0  0
  -28.8436  -22.0022   29.0029 C   0  0  0  0  0  0  0  0  0  0  0  0
  -26.5780  -24.7856   23.4360 C   0  0  0  0  0  0  0  0  0  0  0  0
  -28.5214  -24.1680   24.8886 C   0  0  0  0  0  0  0  0  0  0  0  0
  -26.7738  -25.7291   25.7438 C   0  0  0  0  0  0  0  0  0  0  0  0
  -25.7097  -19.8461   29.0798 C   0  0  0  0  0  0  0  0  0  0  0  0
  -24.5679  -14.1671   17.6574 C   0  0  0  0  0  0  0  0  0  0  0  0
  -26.5029  -12.2682   18.7739 C   0  0  0  0  0  0  0  0  0  0  0  0
  -25.1544  -17.0942   21.6614 C   0  0  0  0  0  0  0  0  0  1  0  0
  -27.4759  -12.5341   17.6162 C   0  0  0  0  0  0  0  0  0  0  0  0
  -28.8007  -13.1171   18.1124 C   0  0  0  0  0  0  0  0  0  0  0  0
  -29.7478  -13.4148   16.9462 C   0  0  0  0  0  0  0  0  0  0  0  0
  -31.0846  -13.9855   17.4080 C   0  0  0  0  0  0  0  0  0  0  0  0
  -26.2285  -23.2726   25.4987 C   0  0  1  0  0  0  0  0  0  0  0  0
  -27.3861  -21.6644   28.7303 C   0  0  2  0  0  0  0  0  0  0  0  0
  -27.0074  -24.4689   24.8825 C   0  0  0  0  0  0  0  0  0  0  0  0
  -28.9511  -20.6341   20.0490 N   0  0  0  0  0  0  0  0  0  0  0  0
  -28.6008  -19.4070   19.6276 N   0  0  0  0  0  0  0  0  0  0  0  0
  -23.9670  -22.5685   24.7817 N   0  0  0  0  0  0  0  0  0  0  0  0
  -31.1438  -16.5880   20.0691 N   0  0  0  0  0  0  0  0  0  0  0  0
  -27.1701  -18.2624   18.1264 N   0  0  0  0  0  0  0  0  0  0  0  0
  -25.0512  -21.4033   17.9274 N   0  0  0  0  0  0  0  0  0  0  0  0
  -21.9206  -24.7934   23.2878 N   0  0  0  0  0  0  0  0  0  0  0  0
  -26.5953  -22.9672   26.8773 N   0  0  0  0  0  0  0  0  0  0  0  0
  -30.9314  -15.2132   18.1565 N   0  0  0  0  0  0  0  0  0  0  0  0
  -27.1133  -20.2983   29.2598 N   0  3  0  0  0  0  0  0  0  0  0  0
  -26.6698  -21.4804   16.3048 O   0  0  0  0  0  0  0  0  0  0  0  0
  -22.7392  -22.8913   22.2228 O   0  0  0  0  0  0  0  0  0  0  0  0
  -24.2680  -24.4555   26.1177 O   0  0  0  0  0  0  0  0  0  0  0  0
  -27.2385  -20.7734   26.4894 O   0  0  0  0  0  0  0  0  0  0  0  0
  -31.9085  -14.3987   20.0640 O   0  0  0  0  0  0  0  0  0  0  0  0
  -28.4965  -26.9848   19.9540 O   0  0  0  0  0  0  0  0  0  0  0  0
  -23.7547  -17.0980   21.9390 O   0  0  0  0  0  0  0  0  0  1  0  0
  -32.8555  -29.0057   22.6595 F   0  0  0  0  0  0  0  0  0  0  0  0
  -27.0017  -15.1788   22.6250 F   0  0  0  0  0  0  0  0  0  0  0  0
  -30.2349  -28.7491   18.7260 F   0  0  0  0  0  0  0  0  0  0  0  0
  1  2  1  0  0  0  0
  1  5  2  0  0  0  0
  2  6  2  0  0  0  0
  3  8  2  0  0  0  0
  3 17  1  0  0  0  0
  4  9  1  0  0  0  0
  4 17  2  0  0  0  0
  5 19  1  0  0  0  0
  6 21  1  0  0  0  0
  7 10  2  0  0  0  0
  7 20  1  0  0  0  0
  8 26  1  0  0  0  0
  9 26  2  0  0  0  0
 10 27  1  0  0  0  0
 11 12  2  0  0  0  0
 11 28  1  0  0  0  0
 12 29  1  0  0  0  0
 13 22  1  0  0  0  0
 13 27  2  0  0  0  0
 14 23  1  0  0  0  0
 14 24  2  0  0  0  0
 15 25  1  0  0  0  0
 15 30  2  0  0  0  0
 16 29  2  0  0  0  0
 16 31  1  0  0  0  0
 17 32  1  0  0  0  0
 18 32  1  0  0  0  0
 18 33  2  0  0  0  0
 18 34  1  0  0  0  0
 19 21  2  0  0  0  0
 19 39  1  0  0  0  0
 20 22  2  0  0  0  0
 20 40  1  0  0  0  0
 21 48  1  0  0  0  0
 22 41  1  0  0  0  0
 23 25  2  0  0  0  0
 23 57  1  0  0  0  0
 24 30  1  0  0  0  0
 24 59  1  0  0  0  0
 25 58  1  0  0  0  0
 26 82  1  0  0  0  0
 27 83  1  0  0  0  0
 28 31  2  0  0  0  0
 28 82  1  0  0  0  0
 29 84  1  0  0  0  0
 30 85  1  0  0  0  0
 31 86  1  0  0  0  0
 32 67  2  0  0  0  0
 33 68  1  0  0  0  0
 33 71  1  0  0  0  0
 34 72  1  0  0  0  0
 34 77  2  0  0  0  0
 35 49  1  0  0  0  0
 35 73  1  0  0  0  0
 35 78  2  0  0  0  0
 36 64  1  0  0  0  0
 36 69  1  0  0  0  0
 36 79  2  0  0  0  0
 37 65  1  0  0  0  0
 37 74  1  0  0  0  0
 37 80  2  0  0  0  0
 38 70  1  0  0  0  0
 38 75  1  0  0  0  0
 38 81  2  0  0  0  0
 39 42  1  0  0  0  0
 40 49  1  0  0  0  0
 41 69  1  0  0  0  0
 42 44  1  0  0  0  0
 43 45  1  0  0  0  0
 43 46  1  0  0  0  0
 44 48  1  0  0  0  0
 45 50  1  0  0  0  0
 46 70  1  0  0  0  0
 47 50  1  0  0  0  0
 47 70  1  0  0  0  0
 48 73  1  0  0  0  0
 49 69  1  0  0  0  0
 50 68  1  0  0  0  0
 51 57  1  0  0  0  0
 52 65  1  0  0  0  0
 53 66  1  0  0  0  0
 54 66  1  0  0  0  0
 55 66  1  0  0  0  0
 56 76  1  0  0  0  0
 58 60  1  0  0  0  0
 59 83  1  0  0  0  0
 60 61  1  0  0  0  0
 61 62  1  0  0  0  0
 62 63  1  0  0  0  0
 63 75  1  0  0  0  0
 64 66  1  0  0  0  0
 64 74  1  0  0  0  0
 65 76  1  0  0  0  0
 67 68  1  0  0  0  0
M  CHG  1  76   1
M  ISO  4  38 100  59 101  75 100  83 101
M  END
> <Batch ID>
0037

> <Smiles>
CCc1cc([101CH2:1][101O:1]c2ccc3c(c2)CN(C(=O)C(NC(=O)C(C)NC)C(C)(C)C)C(C(=O)NC2CCCc4ccccc42)C3)c(F)cc1CCCCC[100NH:0][100C:0](=O)N1CCCC(n2nc(-c3ccc(Oc4ccc(F)cc4F)cc3)c(C(N)=O)c2N)C1

> <Shape>
0.200

> <Color>
0.069

> <Negative vol penalty>
0.000

$$$$

  -OEChem-04052316593D

 82 90  0     1  0  0  0  0  0999 V2000
  -22.8977  -23.6509   19.2210 C   0  0  0  0  0  0  0  0  0  0  0  0
  -24.1204  -23.0514   18.9365 C   0  0  0  0  0  0  0  0  0  0  0  0
  -22.4730  -28.0070   19.5710 C   0  0  0  0  0  0  0  0  0  0  0  0
  -22.8095  -27.8185   21.9560 C   0  0  0  0  0  0  0  0  0  0  0  0
  -22.0793  -23.1231   20.2187 C   0  0  0  0  0  0  0  0  0  0  0  0
  -24.5260  -21.9244   19.6504 C   0  0  0  0  0  0  0  0  0  0  0  0
  -27.7773  -17.1911   17.5220 C   0  0  0  0  0  0  0  0  0  0  0  0
  -33.4353  -19.0795   21.1984 C   0  0  0  0  0  0  0  0  0  0  0  0
  -33.0029  -20.3489   21.5818 C   0  0  0  0  0  0  0  0  0  0  0  0
  -21.0928  -27.9370   19.7602 C   0  0  0  0  0  0  0  0  0  0  0  0
  -21.4293  -27.7486   22.1452 C   0  0  0  0  0  0  0  0  0  0  0  0
  -29.1334  -16.8758   17.5958 C   0  0  0  0  0  0  0  0  0  0  0  0
  -18.8170  -29.8907   22.2316 C   0  0  0  0  0  0  0  0  0  0  0  0
  -18.2648  -30.6610   23.2550 C   0  0  0  0  0  0  0  0  0  0  0  0
  -28.6982  -15.4798   19.5144 C   0  0  0  0  0  0  0  0  0  0  0  0
  -31.1385  -18.3536   21.0113 C   0  0  0  0  0  0  0  0  0  0  0  0
  -17.4284  -28.6563   24.3126 C   0  0  0  0  0  0  0  0  0  0  0  0
  -23.3314  -27.9476   20.6689 C   0  0  0  0  0  0  0  0  0  0  0  0
  -25.5552  -29.1789   20.4533 C   0  0  0  0  0  0  0  0  0  0  0  0
  -22.4706  -21.9833   20.9387 C   0  0  0  0  0  0  0  0  0  0  0  0
  -26.8717  -16.6608   18.4520 C   0  0  0  0  0  0  0  0  0  0  0  0
  -23.7126  -21.3817   20.6597 C   0  0  0  0  0  0  0  0  0  0  0  0
  -27.3308  -15.7879   19.4486 C   0  0  0  0  0  0  0  0  0  0  0  0
  -32.5031  -18.0818   20.9131 C   0  0  0  0  0  0  0  0  0  0  0  0
  -31.6383  -20.6207   21.6801 C   0  0  0  0  0  0  0  0  0  0  0  0
  -20.5710  -27.8078   21.0472 C   0  0  0  0  0  0  0  0  0  0  0  0
  -29.5945  -16.0223   18.5938 C   0  0  0  0  0  0  0  0  0  0  0  0
  -18.6748  -28.5032   22.2486 C   0  0  0  0  0  0  0  0  0  0  0  0
  -17.5705  -30.0438   24.2955 C   0  0  0  0  0  0  0  0  0  0  0  0
  -17.9805  -27.8860   23.2891 C   0  0  0  0  0  0  0  0  0  0  0  0
  -30.7061  -19.6231   21.3949 C   0  0  0  0  0  0  0  0  0  0  0  0
  -24.7572  -28.0193   20.4741 C   0  0  0  0  0  0  0  0  0  0  0  0
  -26.8297  -28.7147   20.2377 C   0  0  0  0  0  0  0  0  0  0  0  0
  -25.1780  -30.5527   20.6147 C   0  0  0  0  0  0  0  0  0  0  0  0
  -24.9312  -17.8934   20.6473 C   0  0  0  0  0  0  0  0  0  0  0  0
  -23.9461  -14.8169   20.9418 C   0  0  0  0  0  0  0  0  0  0  0  0
  -24.6474  -11.5001   20.5496 C   0  0  0  0  0  0  0  0  0  0  0  0
  -29.3814  -23.5266   21.4328 C   0  0  0  0  0  0  0  0  0  0  0  0
  -21.5736  -21.4772   22.0404 C   0  0  0  0  0  0  0  0  0  0  0  0
  -25.4080  -16.9895   18.3426 C   0  0  0  0  0  0  0  0  0  0  0  0
  -26.3963  -15.1760   20.4590 C   0  0  0  0  0  0  0  0  0  0  0  0
  -21.9078  -20.0586   22.4946 C   0  0  0  0  0  0  0  0  0  0  0  0
  -29.2017  -25.1027   18.1799 C   0  0  0  0  0  0  0  0  0  0  0  0
  -23.4111  -19.9049   22.7028 C   0  0  0  0  0  0  0  0  0  0  0  0
  -28.1069  -26.1465   18.4077 C   0  0  0  0  0  0  0  0  0  0  0  0
  -28.8954  -23.8082   18.9273 C   0  0  0  0  0  0  0  0  0  0  0  0
  -27.5796  -25.0223   20.6209 C   0  0  0  0  0  0  0  0  0  0  0  0
  -24.1763  -20.1431   21.3954 C   0  0  1  0  0  0  0  0  0  0  0  0
  -24.6533  -16.8001   19.6548 C   0  0  1  0  0  0  0  0  0  0  0  0
  -27.8421  -26.3622   19.9096 C   0  0  2  0  0  0  0  0  0  0  0  0
  -23.6608   -9.2216   20.9135 C   0  0  0  0  0  0  0  0  0  0  0  0
  -24.5013  -15.0568   23.9325 C   0  0  0  0  0  0  0  0  0  0  0  0
  -24.4215  -12.5586   24.0769 C   0  0  0  0  0  0  0  0  0  0  0  0
  -22.3995  -13.8298   23.3567 C   0  0  0  0  0  0  0  0  0  0  0  0
  -24.7710  -10.8582   17.6631 C   0  0  0  0  0  0  0  0  0  0  0  0
  -32.9705  -16.7094   20.4987 C   0  0  0  0  0  0  0  0  0  0  0  0
  -31.2161  -21.9930   22.0950 C   0  0  0  0  0  0  0  0  0  0  0  0
  -33.1443  -16.5483   18.9869 C   0  0  0  0  0  0  0  0  0  0  0  0
  -31.8417  -16.6995   18.2099 C   0  0  0  0  0  0  0  0  0  1  0  0
  -24.3674  -13.6351   21.7815 C   0  0  1  0  0  0  0  0  0  0  0  0
  -23.8475  -10.3676   19.9314 C   0  0  2  0  0  0  0  0  0  0  0  0
  -23.9406  -13.7830   23.2692 C   0  0  0  0  0  0  0  0  0  0  0  0
  -25.4655  -26.9025   20.2864 N   0  0  0  0  0  0  0  0  0  0  0  0
  -26.7219  -27.3583   20.1456 N   0  0  0  0  0  0  0  0  0  0  0  0
  -24.9753  -15.5329   20.3142 N   0  0  0  0  0  0  0  0  0  0  0  0
  -28.6720  -24.0806   20.3542 N   0  0  0  0  0  0  0  0  0  0  0  0
  -28.0210  -29.3387   20.1196 N   0  0  0  0  0  0  0  0  0  0  0  0
  -23.8259  -30.8537   20.8284 N   0  0  0  0  0  0  0  0  0  0  0  0
  -24.0857  -18.9809   20.5378 N   0  0  0  0  0  0  0  0  0  0  0  0
  -23.8287  -12.4517   21.1200 N   0  0  0  0  0  0  0  0  0  0  0  0
  -30.3954  -22.6388   21.0949 N   0  0  0  0  0  0  0  0  0  0  0  0
  -24.5427   -9.8421   18.7226 N   0  3  0  0  0  0  0  0  0  0  0  0
  -26.0128  -31.4870   20.5542 O   0  0  0  0  0  0  0  0  0  0  0  0
  -25.8442  -17.7597   21.4537 O   0  0  0  0  0  0  0  0  0  0  0  0
  -22.7475  -15.0901   20.8405 O   0  0  0  0  0  0  0  0  0  0  0  0
  -25.8758  -11.5350   20.5317 O   0  0  0  0  0  0  0  0  0  0  0  0
  -29.1330  -23.8068   22.6105 O   0  0  0  0  0  0  0  0  0  0  0  0
  -19.2242  -27.7398   21.2322 O   0  0  0  0  0  0  0  0  0  0  0  0
  -30.9177  -15.7134   18.6685 O   0  0  0  0  0  0  0  0  0  1  0  0
  -17.0417  -30.7835   25.2790 F   0  0  0  0  0  0  0  0  0  0  0  0
  -17.8416  -26.5533   23.3115 F   0  0  0  0  0  0  0  0  0  0  0  0
  -29.0099  -19.9228   21.5068 Cl  0  0  0  0  0  0  0  0  0  0  0  0
  1  2  1  0  0  0  0
  1  5  2  0  0  0  0
  2  6  2  0  0  0  0
  3 10  2  0  0  0  0
  3 18  1  0  0  0  0
  4 11  1  0  0  0  0
  4 18  2  0  0  0  0
  5 20  1  0  0  0  0
  6 22  1  0  0  0  0
  7 12  2  0  0  0  0
  7 21  1  0  0  0  0
  8  9  2  0  0  0  0
  8 24  1  0  0  0  0
  9 25  1  0  0  0  0
 10 26  1  0  0  0  0
 11 26  2  0  0  0  0
 12 27  1  0  0  0  0
 13 14  2  0  0  0  0
 13 28  1  0  0  0  0
 14 29  1  0  0  0  0
 15 23  1  0  0  0  0
 15 27  2  0  0  0  0
 16 24  2  0  0  0  0
 16 31  1  0  0  0  0
 17 29  2  0  0  0  0
 17 30  1  0  0  0  0
 18 32  1  0  0  0  0
 19 32  1  0  0  0  0
 19 33  2  0  0  0  0
 19 34  1  0  0  0  0
 20 22  2  0  0  0  0
 20 39  1  0  0  0  0
 21 23  2  0  0  0  0
 21 40  1  0  0  0  0
 22 48  1  0  0  0  0
 23 41  1  0  0  0  0
 24 56  1  0  0  0  0
 25 31  2  0  0  0  0
 25 57  1  0  0  0  0
 26 78  1  0  0  0  0
 27 79  1  0  0  0  0
 28 30  2  0  0  0  0
 28 78  1  0  0  0  0
 29 80  1  0  0  0  0
 30 81  1  0  0  0  0
 31 82  1  0  0  0  0
 32 63  2  0  0  0  0
 33 64  1  0  0  0  0
 33 67  1  0  0  0  0
 34 68  1  0  0  0  0
 34 73  2  0  0  0  0
 35 49  1  0  0  0  0
 35 69  1  0  0  0  0
 35 74  2  0  0  0  0
 36 60  1  0  0  0  0
 36 65  1  0  0  0  0
 36 75  2  0  0  0  0
 37 61  1  0  0  0  0
 37 70  1  0  0  0  0
 37 76  2  0  0  0  0
 38 66  1  0  0  0  0
 38 71  1  0  0  0  0
 38 77  2  0  0  0  0
 39 42  1  0  0  0  0
 40 49  1  0  0  0  0
 41 65  1  0  0  0  0
 42 44  1  0  0  0  0
 43 45  1  0  0  0  0
 43 46  1  0  0  0  0
 44 48  1  0  0  0  0
 45 50  1  0  0  0  0
 46 66  1  0  0  0  0
 47 50  1  0  0  0  0
 47 66  1  0  0  0  0
 48 69  1  0  0  0  0
 49 65  1  0  0  0  0
 50 64  1  0  0  0  0
 51 61  1  0  0  0  0
 52 62  1  0  0  0  0
 53 62  1  0  0  0  0
 54 62  1  0  0  0  0
 55 72  1  0  0  0  0
 56 58  1  0  0  0  0
 57 71  1  0  0  0  0
 58 59  1  0  0  0  0
 59 79  1  0  0  0  0
 60 62  1  0  0  0  0
 60 70  1  0  0  0  0
 61 72  1  0  0  0  0
 63 64  1  0  0  0  0
M  CHG  1  72   1
M  ISO  4  38 100  59 101  71 100  79 101
M  END
> <Batch ID>
0037

> <Smiles>
CNC(C)C(=O)NC(C(=O)N1Cc2cc([101O:1][101CH2:1]CCc3ccc(C[100NH:0][100C:0](=O)N4CCCC(n5nc(-c6ccc(Oc7ccc(F)cc7F)cc6)c(C(N)=O)c5N)C4)c(Cl)c3)ccc2CC1C(=O)NC1CCCc2ccccc21)C(C)(C)C

> <Shape>
0.213

> <Color>
0.068

> <Negative vol penalty>
0.000

$$$$

  -OEChem-04052316593D

 86 94  0     1  0  0  0  0  0999 V2000
  -18.9857  -24.1102   20.8727 C   0  0  0  0  0  0  0  0  0  0  0  0
  -20.3612  -24.2548   20.7220 C   0  0  0  0  0  0  0  0  0  0  0  0
  -25.9972  -12.4951   21.0217 C   0  0  0  0  0  0  0  0  0  0  0  0
  -25.0394  -13.1781   18.9114 C   0  0  0  0  0  0  0  0  0  0  0  0
  -18.2473  -25.1053   21.5117 C   0  0  0  0  0  0  0  0  0  0  0  0
  -20.9988  -25.3952   21.2092 C   0  0  0  0  0  0  0  0  0  0  0  0
  -25.2781  -24.3169   23.6930 C   0  0  0  0  0  0  0  0  0  0  0  0
  -25.3308  -11.2733   20.9287 C   0  0  0  0  0  0  0  0  0  0  0  0
  -24.3729  -11.9563   18.8185 C   0  0  0  0  0  0  0  0  0  0  0  0
  -26.4040  -24.0245   22.9244 C   0  0  0  0  0  0  0  0  0  0  0  0
  -23.5958   -8.1156   21.4213 C   0  0  0  0  0  0  0  0  0  0  0  0
  -22.9480   -7.6401   22.5614 C   0  0  0  0  0  0  0  0  0  0  0  0
  -27.2107  -26.2728   23.2619 C   0  0  0  0  0  0  0  0  0  0  0  0
  -21.5581   -9.6160   22.5956 C   0  0  0  0  0  0  0  0  0  0  0  0
  -27.0097  -24.5800   17.6881 C   0  0  0  0  0  0  0  0  0  0  0  0
  -25.8515  -13.4476   20.0130 C   0  0  0  0  0  0  0  0  0  0  0  0
  -27.8249  -15.0166   19.6242 C   0  0  0  0  0  0  0  0  0  0  0  0
  -18.8775  -26.2540   22.0156 C   0  0  0  0  0  0  0  0  0  0  0  0
  -25.1044  -25.5948   24.2436 C   0  0  0  0  0  0  0  0  0  0  0  0
  -20.2678  -26.4072   21.8543 C   0  0  0  0  0  0  0  0  0  0  0  0
  -26.0830  -26.5781   24.0392 C   0  0  0  0  0  0  0  0  0  0  0  0
  -27.1537  -23.2401   17.3907 C   0  0  0  0  0  0  0  0  0  0  0  0
  -24.5186  -11.0039   19.8271 C   0  0  0  0  0  0  0  0  0  0  0  0
  -27.3691  -25.0034   22.7064 C   0  0  0  0  0  0  0  0  0  0  0  0
  -23.2248   -9.3413   20.8684 C   0  0  0  0  0  0  0  0  0  0  0  0
  -21.9291   -8.3903   23.1485 C   0  0  0  0  0  0  0  0  0  0  0  0
  -22.2059  -10.0915   21.4555 C   0  0  0  0  0  0  0  0  0  0  0  0
  -26.5392  -14.7101   20.1088 C   0  0  0  0  0  0  0  0  0  0  0  0
  -28.2149  -22.6037   18.0016 C   0  0  0  0  0  0  0  0  0  0  0  0
  -28.0147  -16.3340   19.9635 C   0  0  0  0  0  0  0  0  0  0  0  0
  -28.8289  -24.5249   19.0499 C   0  0  0  0  0  0  0  0  0  0  0  0
  -28.7637  -14.1850   18.9294 C   0  0  0  0  0  0  0  0  0  0  0  0
  -22.9431  -27.9027   23.9182 C   0  0  0  0  0  0  0  0  0  0  0  0
  -24.6333  -29.2888   26.3148 C   0  0  0  0  0  0  0  0  0  0  0  0
  -27.5949  -29.5642   27.9882 C   0  0  0  0  0  0  0  0  0  0  0  0
  -24.2364  -20.8562   21.0240 C   0  0  0  0  0  0  0  0  0  0  0  0
  -18.0306  -27.3246   22.6569 C   0  0  0  0  0  0  0  0  0  0  0  0
  -23.8974  -25.8862   25.0925 C   0  0  0  0  0  0  0  0  0  0  0  0
  -25.9536  -27.9595   24.6251 C   0  0  0  0  0  0  0  0  0  0  0  0
  -18.8363  -28.3289   23.4769 C   0  0  0  0  0  0  0  0  0  0  0  0
  -26.7238  -19.5825   23.2302 C   0  0  0  0  0  0  0  0  0  0  0  0
  -20.0624  -28.7932   22.6973 C   0  0  0  0  0  0  0  0  0  0  0  0
  -27.0746  -18.2170   22.6367 C   0  0  0  0  0  0  0  0  0  0  0  0
  -25.2377  -19.8992   23.0778 C   0  0  0  0  0  0  0  0  0  0  0  0
  -25.0709  -18.4287   21.1072 C   0  0  0  0  0  0  0  0  0  0  0  0
  -20.9992  -27.6184   22.3913 C   0  0  1  0  0  0  0  0  0  0  0  0
  -23.5713  -27.3742   25.1766 C   0  0  1  0  0  0  0  0  0  0  0  0
  -26.5691  -18.0891   21.1870 C   0  0  2  0  0  0  0  0  0  0  0  0
  -29.9538  -20.8077   17.8093 C   0  0  0  0  0  0  0  0  0  0  0  0
  -30.5244  -26.3722   19.2607 C   0  0  0  0  0  0  0  0  0  0  0  0
  -28.6814  -30.8070   29.8782 C   0  0  0  0  0  0  0  0  0  0  0  0
  -24.8679  -31.7655   24.5482 C   0  0  0  0  0  0  0  0  0  0  0  0
  -26.7092  -32.5707   26.0414 C   0  0  0  0  0  0  0  0  0  0  0  0
  -24.4132  -32.2440   26.9604 C   0  0  0  0  0  0  0  0  0  0  0  0
  -28.1098  -27.0657   29.4886 C   0  0  0  0  0  0  0  0  0  0  0  0
  -26.2141  -22.5516   16.4695 C   0  0  0  0  0  0  0  0  0  0  0  0
  -28.4686  -21.1532   17.7542 C   0  0  0  0  0  0  0  0  0  0  0  0
  -25.1867  -21.6839   17.2181 C   0  0  0  0  0  0  0  0  0  0  0  0
  -24.3032  -22.5188   18.1498 C   0  0  0  0  0  0  0  0  0  0  0  0
  -23.2701  -21.6754   18.8899 C   0  0  0  0  0  0  0  0  0  0  0  0
  -29.0522  -25.7999   21.2269 C   0  0  0  0  0  0  0  0  0  1  0  0
  -29.7773  -25.2522   19.9901 C   0  0  1  0  0  0  0  0  0  0  0  0
  -25.8180  -30.2218   26.3867 C   0  0  1  0  0  0  0  0  0  0  0  0
  -27.9184  -29.5560   29.4713 C   0  0  2  0  0  0  0  0  0  0  0  0
  -25.4539  -31.6752   25.9714 C   0  0  0  0  0  0  0  0  0  0  0  0
  -27.8321  -25.2565   18.5165 N   0  0  0  0  0  0  0  0  0  0  0  0
  -25.9536  -15.7490   20.7103 N   0  0  0  0  0  0  0  0  0  0  0  0
  -29.0755  -23.2178   18.8398 N   0  0  0  0  0  0  0  0  0  0  0  0
  -26.8756  -16.7212   20.6060 N   0  0  0  0  0  0  0  0  0  0  0  0
  -24.7525  -28.1976   25.4426 N   0  0  0  0  0  0  0  0  0  0  0  0
  -24.8226  -19.7611   21.6798 N   0  0  0  0  0  0  0  0  0  0  0  0
  -29.0431  -17.1872   19.7721 N   0  0  0  0  0  0  0  0  0  0  0  0
  -28.4085  -12.8560   18.6613 N   0  0  0  0  0  0  0  0  0  0  0  0
  -21.7683  -27.2662   23.5656 N   0  0  0  0  0  0  0  0  0  0  0  0
  -26.3500  -30.1025   27.7399 N   0  0  0  0  0  0  0  0  0  0  0  0
  -23.8780  -20.6424   19.6987 N   0  0  0  0  0  0  0  0  0  0  0  0
  -28.7487  -28.3668   29.8139 N   0  3  0  0  0  0  0  0  0  0  0  0
  -29.8910  -14.6032   18.5718 O   0  0  0  0  0  0  0  0  0  0  0  0
  -23.4833  -28.8210   23.3128 O   0  0  0  0  0  0  0  0  0  0  0  0
  -23.6416  -29.5159   27.0124 O   0  0  0  0  0  0  0  0  0  0  0  0
  -28.3707  -29.1392   27.1349 O   0  0  0  0  0  0  0  0  0  0  0  0
  -24.0513  -21.9457   21.5770 O   0  0  0  0  0  0  0  0  0  0  0  0
  -23.8684   -9.8117   19.7360 O   0  0  0  0  0  0  0  0  0  0  0  0
  -28.4687  -24.7209   21.9560 O   0  0  0  0  0  0  0  0  0  1  0  0
  -21.3061   -7.9328   24.2425 F   0  0  0  0  0  0  0  0  0  0  0  0
  -21.8443  -11.2692   20.9282 F   0  0  0  0  0  0  0  0  0  0  0  0
  1  2  1  0  0  0  0
  1  5  2  0  0  0  0
  2  6  2  0  0  0  0
  3  8  2  0  0  0  0
  3 16  1  0  0  0  0
  4  9  1  0  0  0  0
  4 16  2  0  0  0  0
  5 18  1  0  0  0  0
  6 20  1  0  0  0  0
  7 10  2  0  0  0  0
  7 19  1  0  0  0  0
  8 23  1  0  0  0  0
  9 23  2  0  0  0  0
 10 24  1  0  0  0  0
 11 12  2  0  0  0  0
 11 25  1  0  0  0  0
 12 26  1  0  0  0  0
 13 21  1  0  0  0  0
 13 24  2  0  0  0  0
 14 26  2  0  0  0  0
 14 27  1  0  0  0  0
 15 22  1  0  0  0  0
 15 66  2  0  0  0  0
 16 28  1  0  0  0  0
 17 28  1  0  0  0  0
 17 30  2  0  0  0  0
 17 32  1  0  0  0  0
 18 20  2  0  0  0  0
 18 37  1  0  0  0  0
 19 21  2  0  0  0  0
 19 38  1  0  0  0  0
 20 46  1  0  0  0  0
 21 39  1  0  0  0  0
 22 29  2  0  0  0  0
 22 56  1  0  0  0  0
 23 83  1  0  0  0  0
 24 84  1  0  0  0  0
 25 27  2  0  0  0  0
 25 83  1  0  0  0  0
 26 85  1  0  0  0  0
 27 86  1  0  0  0  0
 28 67  2  0  0  0  0
 29 57  1  0  0  0  0
 29 68  1  0  0  0  0
 30 69  1  0  0  0  0
 30 72  1  0  0  0  0
 31 62  1  0  0  0  0
 31 66  1  0  0  0  0
 31 68  2  0  0  0  0
 32 73  1  0  0  0  0
 32 78  2  0  0  0  0
 33 47  1  0  0  0  0
 33 74  1  0  0  0  0
 33 79  2  0  0  0  0
 34 63  1  0  0  0  0
 34 70  1  0  0  0  0
 34 80  2  0  0  0  0
 35 64  1  0  0  0  0
 35 75  1  0  0  0  0
 35 81  2  0  0  0  0
 36 71  1  0  0  0  0
 36 76  1  0  0  0  0
 36 82  2  0  0  0  0
 37 40  1  0  0  0  0
 38 47  1  0  0  0  0
 39 70  1  0  0  0  0
 40 42  1  0  0  0  0
 41 43  1  0  0  0  0
 41 44  1  0  0  0  0
 42 46  1  0  0  0  0
 43 48  1  0  0  0  0
 44 71  1  0  0  0  0
 45 48  1  0  0  0  0
 45 71  1  0  0  0  0
 46 74  1  0  0  0  0
 47 70  1  0  0  0  0
 48 69  1  0  0  0  0
 49 57  1  0  0  0  0
 50 62  1  0  0  0  0
 51 64  1  0  0  0  0
 52 65  1  0  0  0  0
 53 65  1  0  0  0  0
 54 65  1  0  0  0  0
 55 77  1  0  0  0  0
 56 58  1  0  0  0  0
 58 59  1  0  0  0  0
 59 60  1  0  0  0  0
 60 76  1  0  0  0  0
 61 62  1  0  0  0  0
 61 84  1  0  0  0  0
 63 65  1  0  0  0  0
 63 75  1  0  0  0  0
 64 77  1  0  0  0  0
 67 69  1  0  0  0  0
M  CHG  1  77   1
M  ISO  4  36 100  61 101  76 100  84 101
M  END
> <Batch ID>
0037

> <Smiles>
CCc1nc(C(C)[101CH2:1][101O:1]c2ccc3c(c2)CN(C(=O)C(NC(=O)C(C)NC)C(C)(C)C)C(C(=O)NC2CCCc4ccccc42)C3)ncc1CCCC[100NH:0][100C:0](=O)N1CCCC(n2nc(-c3ccc(Oc4ccc(F)cc4F)cc3)c(C(N)=O)c2N)C1

> <Shape>
0.215

> <Color>
0.083

> <Negative vol penalty>
0.000

$$$$

  -OEChem-04052316593D

 84 92  0     1  0  0  0  0  0999 V2000
  -31.3916  -34.8886   21.7686 C   0  0  0  0  0  0  0  0  0  0  0  0
  -31.3007  -33.5823   21.2986 C   0  0  0  0  0  0  0  0  0  0  0  0
  -23.7236   -9.7056   19.7619 C   0  0  0  0  0  0  0  0  0  0  0  0
  -24.5723   -9.7033   22.0239 C   0  0  0  0  0  0  0  0  0  0  0  0
  -30.5579  -35.3163   22.8010 C   0  0  0  0  0  0  0  0  0  0  0  0
  -30.3768  -32.7026   21.8616 C   0  0  0  0  0  0  0  0  0  0  0  0
  -27.2784  -28.2760   18.9787 C   0  0  0  0  0  0  0  0  0  0  0  0
  -23.3493   -8.3692   19.9010 C   0  0  0  0  0  0  0  0  0  0  0  0
  -24.1979   -8.3668   22.1630 C   0  0  0  0  0  0  0  0  0  0  0  0
  -27.4862  -26.9014   18.8735 C   0  0  0  0  0  0  0  0  0  0  0  0
  -21.3624   -6.6242   22.7491 C   0  0  0  0  0  0  0  0  0  0  0  0
  -20.7111   -6.2543   23.9257 C   0  0  0  0  0  0  0  0  0  0  0  0
  -25.9521  -26.5359   20.6988 C   0  0  0  0  0  0  0  0  0  0  0  0
  -27.3883  -21.8570   17.7296 C   0  0  0  0  0  0  0  0  0  0  0  0
  -22.4857   -4.6898   24.4161 C   0  0  0  0  0  0  0  0  0  0  0  0
  -28.6534  -21.9746   19.5885 C   0  0  0  0  0  0  0  0  0  0  0  0
  -24.3352  -10.3727   20.8234 C   0  0  0  0  0  0  0  0  0  0  0  0
  -23.9448  -12.8892   20.9733 C   0  0  0  0  0  0  0  0  0  0  0  0
  -29.6166  -34.4442   23.3704 C   0  0  0  0  0  0  0  0  0  0  0  0
  -26.4128  -28.7925   19.9536 C   0  0  0  0  0  0  0  0  0  0  0  0
  -29.5307  -33.1187   22.9035 C   0  0  0  0  0  0  0  0  0  0  0  0
  -25.7330  -27.9172   20.8127 C   0  0  0  0  0  0  0  0  0  0  0  0
  -27.9935  -22.7428   18.6548 C   0  0  0  0  0  0  0  0  0  0  0  0
  -23.5864   -7.6998   21.1015 C   0  0  0  0  0  0  0  0  0  0  0  0
  -26.8252  -26.0313   19.7355 C   0  0  0  0  0  0  0  0  0  0  0  0
  -22.5753   -6.0268   22.4058 C   0  0  0  0  0  0  0  0  0  0  0  0
  -21.2728   -5.2871   24.7593 C   0  0  0  0  0  0  0  0  0  0  0  0
  -23.1369   -5.0597   23.2394 C   0  0  0  0  0  0  0  0  0  0  0  0
  -24.7226  -11.7531   20.6801 C   0  0  0  0  0  0  0  0  0  0  0  0
  -27.6967  -20.5743   18.1261 C   0  0  0  0  0  0  0  0  0  0  0  0
  -24.7604  -13.9516   20.6693 C   0  0  0  0  0  0  0  0  0  0  0  0
  -22.6047  -12.9764   21.4757 C   0  0  0  0  0  0  0  0  0  0  0  0
  -26.7474  -30.7311   22.4503 C   0  0  0  0  0  0  0  0  0  0  0  0
  -23.5158  -30.4828   22.5819 C   0  0  0  0  0  0  0  0  0  0  0  0
  -20.7149  -28.6858   21.8252 C   0  0  0  0  0  0  0  0  0  0  0  0
  -29.7368  -16.4719   20.8411 C   0  0  0  0  0  0  0  0  0  0  0  0
  -28.7696  -34.9382   24.5164 C   0  0  0  0  0  0  0  0  0  0  0  0
  -26.1789  -30.2760   20.0367 C   0  0  0  0  0  0  0  0  0  0  0  0
  -24.7777  -28.4198   21.8631 C   0  0  0  0  0  0  0  0  0  0  0  0
  -27.5593  -34.0537   24.8046 C   0  0  0  0  0  0  0  0  0  0  0  0
  -29.1912  -14.1092   18.2340 C   0  0  0  0  0  0  0  0  0  0  0  0
  -27.9662  -32.5838   24.8302 C   0  0  0  0  0  0  0  0  0  0  0  0
  -27.9200  -13.3756   18.6653 C   0  0  0  0  0  0  0  0  0  0  0  0
  -30.0718  -14.4634   19.4303 C   0  0  0  0  0  0  0  0  0  0  0  0
  -28.1181  -14.4799   20.9325 C   0  0  0  0  0  0  0  0  0  0  0  0
  -28.5240  -32.1421   23.4718 C   0  0  1  0  0  0  0  0  0  0  0  0
  -25.6700  -30.7251   21.4029 C   0  0  1  0  0  0  0  0  0  0  0  0
  -27.1710  -14.1512   19.7657 C   0  0  2  0  0  0  0  0  0  0  0  0
  -18.2202  -28.7191   22.0955 C   0  0  0  0  0  0  0  0  0  0  0  0
  -26.4432  -19.4705   16.2404 C   0  0  0  0  0  0  0  0  0  0  0  0
  -26.4995  -18.3919   18.5141 C   0  0  0  0  0  0  0  0  0  0  0  0
  -28.5157  -18.3682   17.0596 C   0  0  0  0  0  0  0  0  0  0  0  0
  -23.8235  -29.6526   25.5018 C   0  0  0  0  0  0  0  0  0  0  0  0
  -21.4704  -28.8000   25.4349 C   0  0  0  0  0  0  0  0  0  0  0  0
  -21.9284  -31.2230   25.0579 C   0  0  0  0  0  0  0  0  0  0  0  0
  -20.2820  -28.7303   18.8978 C   0  0  0  0  0  0  0  0  0  0  0  0
  -27.9288  -24.2415   18.6243 C   0  0  0  0  0  0  0  0  0  1  0  0
  -28.6148  -19.5332   21.4839 C   0  0  0  0  0  0  0  0  0  0  0  0
  -29.0055  -19.5402   19.9999 C   0  0  0  0  0  0  0  0  0  0  0  0
  -29.2601  -18.4186   22.3047 C   0  0  0  0  0  0  0  0  0  0  0  0
  -22.5419  -29.5517   23.2628 C   0  0  1  0  0  0  0  0  0  0  0  0
  -19.3924  -29.0961   21.2029 C   0  0  2  0  0  0  0  0  0  0  0  0
  -27.3224  -19.2793   17.5212 C   0  0  0  0  0  0  0  0  0  0  0  0
  -22.4605  -29.7972   24.7959 C   0  0  0  0  0  0  0  0  0  0  0  0
  -25.9390  -12.0645   20.2246 N   0  0  0  0  0  0  0  0  0  0  0  0
  -28.4658  -20.6581   19.2573 N   0  0  0  0  0  0  0  0  0  0  0  0
  -25.9315  -13.4084   20.2292 N   0  0  0  0  0  0  0  0  0  0  0  0
  -24.5873  -29.8789   21.9089 N   0  0  0  0  0  0  0  0  0  0  0  0
  -29.3019  -15.1990   20.4363 N   0  0  0  0  0  0  0  0  0  0  0  0
  -24.5829  -15.2881   20.7380 N   0  0  0  0  0  0  0  0  0  0  0  0
  -21.9095  -11.7872   21.7345 N   0  0  0  0  0  0  0  0  0  0  0  0
  -27.4468  -31.9201   22.5312 N   0  0  0  0  0  0  0  0  0  0  0  0
  -21.2707  -29.7086   22.5642 N   0  0  0  0  0  0  0  0  0  0  0  0
  -28.9461  -17.1029   21.7936 N   0  0  0  0  0  0  0  0  0  0  0  0
  -19.2117  -28.4283   19.8829 N   0  3  0  0  0  0  0  0  0  0  0  0
  -22.0347  -14.0762   21.6732 O   0  0  0  0  0  0  0  0  0  0  0  0
  -26.9295  -29.7315   23.1355 O   0  0  0  0  0  0  0  0  0  0  0  0
  -23.3285  -31.7007   22.6387 O   0  0  0  0  0  0  0  0  0  0  0  0
  -21.2039  -27.5684   21.6741 O   0  0  0  0  0  0  0  0  0  0  0  0
  -30.7513  -17.0086   20.3832 O   0  0  0  0  0  0  0  0  0  0  0  0
  -23.2210   -6.3957   21.2377 O   0  0  0  0  0  0  0  0  0  0  0  0
  -27.0267  -24.6892   19.6353 O   0  0  0  0  0  0  0  0  0  1  0  0
  -20.6480   -4.9331   25.8900 F   0  0  0  0  0  0  0  0  0  0  0  0
  -24.3025   -4.4831   22.9155 F   0  0  0  0  0  0  0  0  0  0  0  0
  1  2  1  0  0  0  0
  1  5  2  0  0  0  0
  2  6  2  0  0  0  0
  3  8  2  0  0  0  0
  3 17  1  0  0  0  0
  4  9  1  0  0  0  0
  4 17  2  0  0  0  0
  5 19  1  0  0  0  0
  6 21  1  0  0  0  0
  7 10  2  0  0  0  0
  7 20  1  0  0  0  0
  8 24  1  0  0  0  0
  9 24  2  0  0  0  0
 10 25  1  0  0  0  0
 11 12  2  0  0  0  0
 11 26  1  0  0  0  0
 12 27  1  0  0  0  0
 13 22  1  0  0  0  0
 13 25  2  0  0  0  0
 14 23  1  0  0  0  0
 14 30  2  0  0  0  0
 15 27  2  0  0  0  0
 15 28  1  0  0  0  0
 16 23  2  0  0  0  0
 16 66  1  0  0  0  0
 17 29  1  0  0  0  0
 18 29  1  0  0  0  0
 18 31  2  0  0  0  0
 18 32  1  0  0  0  0
 19 21  2  0  0  0  0
 19 37  1  0  0  0  0
 20 22  2  0  0  0  0
 20 38  1  0  0  0  0
 21 46  1  0  0  0  0
 22 39  1  0  0  0  0
 23 57  1  0  0  0  0
 24 81  1  0  0  0  0
 25 82  1  0  0  0  0
 26 28  2  0  0  0  0
 26 81  1  0  0  0  0
 27 83  1  0  0  0  0
 28 84  1  0  0  0  0
 29 65  2  0  0  0  0
 30 63  1  0  0  0  0
 30 66  1  0  0  0  0
 31 67  1  0  0  0  0
 31 70  1  0  0  0  0
 32 71  1  0  0  0  0
 32 76  2  0  0  0  0
 33 47  1  0  0  0  0
 33 72  1  0  0  0  0
 33 77  2  0  0  0  0
 34 61  1  0  0  0  0
 34 68  1  0  0  0  0
 34 78  2  0  0  0  0
 35 62  1  0  0  0  0
 35 73  1  0  0  0  0
 35 79  2  0  0  0  0
 36 69  1  0  0  0  0
 36 74  1  0  0  0  0
 36 80  2  0  0  0  0
 37 40  1  0  0  0  0
 38 47  1  0  0  0  0
 39 68  1  0  0  0  0
 40 42  1  0  0  0  0
 41 43  1  0  0  0  0
 41 44  1  0  0  0  0
 42 46  1  0  0  0  0
 43 48  1  0  0  0  0
 44 69  1  0  0  0  0
 45 48  1  0  0  0  0
 45 69  1  0  0  0  0
 46 72  1  0  0  0  0
 47 68  1  0  0  0  0
 48 67  1  0  0  0  0
 49 62  1  0  0  0  0
 50 63  1  0  0  0  0
 51 63  1  0  0  0  0
 52 63  1  0  0  0  0
 53 64  1  0  0  0  0
 54 64  1  0  0  0  0
 55 64  1  0  0  0  0
 56 75  1  0  0  0  0
 57 82  1  0  0  0  0
 58 59  1  0  0  0  0
 58 60  1  0  0  0  0
 59 66  1  0  0  0  0
 60 74  1  0  0  0  0
 61 64  1  0  0  0  0
 61 73  1  0  0  0  0
 62 75  1  0  0  0  0
 65 67  1  0  0  0  0
M  CHG  1  75   1
M  ISO  4  36 100  57 101  74 100  82 101
M  END
> <Batch ID>
0037

> <Smiles>
CNC(C)C(=O)NC(C(=O)N1Cc2cc([101O:1][101CH2:1]c3cc(C(C)(C)C)n(CCC[100NH:0][100C:0](=O)N4CCCC(n5nc(-c6ccc(Oc7ccc(F)cc7F)cc6)c(C(N)=O)c5N)C4)c3)ccc2CC1C(=O)NC1CCCc2ccccc21)C(C)(C)C

> <Shape>
0.320

> <Color>
0.140

> <Negative vol penalty>
0.000

$$$$

  -OEChem-04052316593D

 82 90  0     1  0  0  0  0  0999 V2000
  -13.8965  -27.0209   19.5133 C   0  0  0  0  0  0  0  0  0  0  0  0
  -14.9397  -26.1005   19.5252 C   0  0  0  0  0  0  0  0  0  0  0  0
  -23.0729   -9.8731   19.9377 C   0  0  0  0  0  0  0  0  0  0  0  0
  -23.8429   -9.8678   22.2277 C   0  0  0  0  0  0  0  0  0  0  0  0
  -14.1651  -28.3748   19.3169 C   0  0  0  0  0  0  0  0  0  0  0  0
  -16.2521  -26.5336   19.3395 C   0  0  0  0  0  0  0  0  0  0  0  0
  -21.2939  -24.2210   21.9354 C   0  0  0  0  0  0  0  0  0  0  0  0
  -22.3309   -8.7181   20.1845 C   0  0  0  0  0  0  0  0  0  0  0  0
  -23.1009   -8.7128   22.4745 C   0  0  0  0  0  0  0  0  0  0  0  0
  -22.2559  -23.3214   21.4784 C   0  0  0  0  0  0  0  0  0  0  0  0
  -19.8760   -7.9094   23.0868 C   0  0  0  0  0  0  0  0  0  0  0  0
  -19.1242   -7.8624   24.2608 C   0  0  0  0  0  0  0  0  0  0  0  0
  -23.6616  -25.1682   20.8207 C   0  0  0  0  0  0  0  0  0  0  0  0
  -26.5806  -20.7758   20.5700 C   0  0  0  0  0  0  0  0  0  0  0  0
  -20.3702   -5.9217   24.9809 C   0  0  0  0  0  0  0  0  0  0  0  0
  -25.2170  -19.8249   19.0514 C   0  0  0  0  0  0  0  0  0  0  0  0
  -23.8290  -10.4480   20.9593 C   0  0  0  0  0  0  0  0  0  0  0  0
  -24.1686  -12.9740   20.8519 C   0  0  0  0  0  0  0  0  0  0  0  0
  -15.4824  -28.8259   19.1384 C   0  0  0  0  0  0  0  0  0  0  0  0
  -21.5041  -25.6033   21.8284 C   0  0  0  0  0  0  0  0  0  0  0  0
  -16.5385  -27.8946   19.1392 C   0  0  0  0  0  0  0  0  0  0  0  0
  -22.7018  -26.0833   21.2795 C   0  0  0  0  0  0  0  0  0  0  0  0
  -25.2496  -20.7328   20.0868 C   0  0  0  0  0  0  0  0  0  0  0  0
  -22.3449   -8.1379   21.4529 C   0  0  0  0  0  0  0  0  0  0  0  0
  -23.4388  -23.7949   20.9182 C   0  0  0  0  0  0  0  0  0  0  0  0
  -20.8748   -6.9625   22.8598 C   0  0  0  0  0  0  0  0  0  0  0  0
  -19.3714   -6.8686   25.2079 C   0  0  0  0  0  0  0  0  0  0  0  0
  -21.1219   -5.9687   23.8069 C   0  0  0  0  0  0  0  0  0  0  0  0
  -24.5961  -11.6408   20.7048 C   0  0  0  0  0  0  0  0  0  0  0  0
  -27.3210  -19.8930   19.8152 C   0  0  0  0  0  0  0  0  0  0  0  0
  -25.2586  -13.7262   20.4880 C   0  0  0  0  0  0  0  0  0  0  0  0
  -22.8996  -13.4866   21.2793 C   0  0  0  0  0  0  0  0  0  0  0  0
  -20.0405  -27.9843   20.3143 C   0  0  0  0  0  0  0  0  0  0  0  0
  -22.1665  -29.8111   21.9468 C   0  0  0  0  0  0  0  0  0  0  0  0
  -25.1734  -30.0265   23.5465 C   0  0  0  0  0  0  0  0  0  0  0  0
  -30.7425  -14.7480   20.6577 C   0  0  0  0  0  0  0  0  0  0  0  0
  -15.7189  -30.2932   18.8824 C   0  0  0  0  0  0  0  0  0  0  0  0
  -20.4681  -26.5606   22.3505 C   0  0  0  0  0  0  0  0  0  0  0  0
  -22.9847  -27.5578   21.1603 C   0  0  0  0  0  0  0  0  0  0  0  0
  -17.1737  -30.7171   19.0671 C   0  0  0  0  0  0  0  0  0  0  0  0
  -29.5959  -12.3761   18.2627 C   0  0  0  0  0  0  0  0  0  0  0  0
  -18.1087  -29.7348   18.3685 C   0  0  0  0  0  0  0  0  0  0  0  0
  -28.1606  -12.0789   18.7004 C   0  0  0  0  0  0  0  0  0  0  0  0
  -30.5182  -12.5908   19.4608 C   0  0  0  0  0  0  0  0  0  0  0  0
  -28.6221  -13.3128   20.8598 C   0  0  0  0  0  0  0  0  0  0  0  0
  -17.9778  -28.3286   18.9660 C   0  0  1  0  0  0  0  0  0  0  0  0
  -20.5650  -27.9472   21.7219 C   0  0  1  0  0  0  0  0  0  0  0  0
  -27.6429  -13.1441   19.6856 C   0  0  2  0  0  0  0  0  0  0  0  0
  -26.6541  -31.6595   24.7458 C   0  0  0  0  0  0  0  0  0  0  0  0
  -22.9760  -31.0374   19.2727 C   0  0  0  0  0  0  0  0  0  0  0  0
  -25.0419  -31.9167   20.3805 C   0  0  0  0  0  0  0  0  0  0  0  0
  -22.7947  -32.6712   21.1574 C   0  0  0  0  0  0  0  0  0  0  0  0
  -26.8557  -18.3352   17.9046 C   0  0  0  0  0  0  0  0  0  0  0  0
  -25.0642  -28.4605   26.0554 C   0  0  0  0  0  0  0  0  0  0  0  0
  -24.0884  -21.5285   20.6062 C   0  0  0  0  0  0  0  0  0  1  0  0
  -28.7557  -19.5486   19.8952 C   0  0  0  0  0  0  0  0  0  0  0  0
  -29.0326  -18.3692   20.8492 C   0  0  0  0  0  0  0  0  0  0  0  0
  -30.5265  -18.0487   20.9546 C   0  0  0  0  0  0  0  0  0  0  0  0
  -30.8124  -16.8916   21.9063 C   0  0  0  0  0  0  0  0  0  0  0  0
  -23.5628  -30.3205   21.6826 C   0  0  1  0  0  0  0  0  0  0  0  0
  -25.5587  -30.6147   24.8919 C   0  0  2  0  0  0  0  0  0  0  0  0
  -23.5880  -31.4586   20.6236 C   0  0  0  0  0  0  0  0  0  0  0  0
  -25.8592  -11.5482   20.2804 N   0  0  0  0  0  0  0  0  0  0  0  0
  -26.4819  -19.3209   18.8950 N   0  0  0  0  0  0  0  0  0  0  0  0
  -26.2347  -12.8327   20.1576 N   0  0  0  0  0  0  0  0  0  0  0  0
  -21.9382  -28.4538   21.6793 N   0  0  0  0  0  0  0  0  0  0  0  0
  -29.9709  -13.6140   20.3549 N   0  0  0  0  0  0  0  0  0  0  0  0
  -25.4678  -15.0582   20.4215 N   0  0  0  0  0  0  0  0  0  0  0  0
  -21.8898  -12.5748   21.6159 N   0  0  0  0  0  0  0  0  0  0  0  0
  -18.6867  -28.2465   20.2251 N   0  0  0  0  0  0  0  0  0  0  0  0
  -24.1114  -30.6994   22.9802 N   0  0  0  0  0  0  0  0  0  0  0  0
  -30.1465  -15.6717   21.5076 N   0  0  0  0  0  0  0  0  0  0  0  0
  -26.0498  -29.5433   25.8041 N   0  3  0  0  0  0  0  0  0  0  0  0
  -22.6628  -14.7167   21.3446 O   0  0  0  0  0  0  0  0  0  0  0  0
  -20.8075  -27.7909   19.3784 O   0  0  0  0  0  0  0  0  0  0  0  0
  -21.3119  -30.5871   22.3815 O   0  0  0  0  0  0  0  0  0  0  0  0
  -25.7585  -29.0685   23.0461 O   0  0  0  0  0  0  0  0  0  0  0  0
  -31.8763  -14.9267   20.2001 O   0  0  0  0  0  0  0  0  0  0  0  0
  -21.6208   -7.0110   21.6941 O   0  0  0  0  0  0  0  0  0  0  0  0
  -24.3792  -22.9190   20.4707 O   0  0  0  0  0  0  0  0  0  1  0  0
  -18.6504   -6.8245   26.3359 F   0  0  0  0  0  0  0  0  0  0  0  0
  -22.0809   -5.0570   23.5949 F   0  0  0  0  0  0  0  0  0  0  0  0
  1  2  1  0  0  0  0
  1  5  2  0  0  0  0
  2  6  2  0  0  0  0
  3  8  2  0  0  0  0
  3 17  1  0  0  0  0
  4  9  1  0  0  0  0
  4 17  2  0  0  0  0
  5 19  1  0  0  0  0
  6 21  1  0  0  0  0
  7 10  2  0  0  0  0
  7 20  1  0  0  0  0
  8 24  1  0  0  0  0
  9 24  2  0  0  0  0
 10 25  1  0  0  0  0
 11 12  2  0  0  0  0
 11 26  1  0  0  0  0
 12 27  1  0  0  0  0
 13 22  1  0  0  0  0
 13 25  2  0  0  0  0
 14 23  1  0  0  0  0
 14 30  2  0  0  0  0
 15 27  2  0  0  0  0
 15 28  1  0  0  0  0
 16 23  2  0  0  0  0
 16 64  1  0  0  0  0
 17 29  1  0  0  0  0
 18 29  1  0  0  0  0
 18 31  2  0  0  0  0
 18 32  1  0  0  0  0
 19 21  2  0  0  0  0
 19 37  1  0  0  0  0
 20 22  2  0  0  0  0
 20 38  1  0  0  0  0
 21 46  1  0  0  0  0
 22 39  1  0  0  0  0
 23 55  1  0  0  0  0
 24 79  1  0  0  0  0
 25 80  1  0  0  0  0
 26 28  2  0  0  0  0
 26 79  1  0  0  0  0
 27 81  1  0  0  0  0
 28 82  1  0  0  0  0
 29 63  2  0  0  0  0
 30 56  1  0  0  0  0
 30 64  1  0  0  0  0
 31 65  1  0  0  0  0
 31 68  1  0  0  0  0
 32 69  1  0  0  0  0
 32 74  2  0  0  0  0
 33 47  1  0  0  0  0
 33 70  1  0  0  0  0
 33 75  2  0  0  0  0
 34 60  1  0  0  0  0
 34 66  1  0  0  0  0
 34 76  2  0  0  0  0
 35 61  1  0  0  0  0
 35 71  1  0  0  0  0
 35 77  2  0  0  0  0
 36 67  1  0  0  0  0
 36 72  1  0  0  0  0
 36 78  2  0  0  0  0
 37 40  1  0  0  0  0
 38 47  1  0  0  0  0
 39 66  1  0  0  0  0
 40 42  1  0  0  0  0
 41 43  1  0  0  0  0
 41 44  1  0  0  0  0
 42 46  1  0  0  0  0
 43 48  1  0  0  0  0
 44 67  1  0  0  0  0
 45 48  1  0  0  0  0
 45 67  1  0  0  0  0
 46 70  1  0  0  0  0
 47 66  1  0  0  0  0
 48 65  1  0  0  0  0
 49 61  1  0  0  0  0
 50 62  1  0  0  0  0
 51 62  1  0  0  0  0
 52 62  1  0  0  0  0
 53 64  1  0  0  0  0
 54 73  1  0  0  0  0
 55 80  1  0  0  0  0
 56 57  1  0  0  0  0
 57 58  1  0  0  0  0
 58 59  1  0  0  0  0
 59 72  1  0  0  0  0
 60 62  1  0  0  0  0
 60 71  1  0  0  0  0
 61 73  1  0  0  0  0
 63 65  1  0  0  0  0
M  CHG  1  73   1
M  ISO  4  36 100  55 101  72 100  80 101
M  END
> <Batch ID>
0037

> <Smiles>
CNC(C)C(=O)NC(C(=O)N1Cc2cc([101O:1][101CH2:1]c3cc(CCCC[100NH:0][100C:0](=O)N4CCCC(n5nc(-c6ccc(Oc7ccc(F)cc7F)cc6)c(C(N)=O)c5N)C4)n(C)c3)ccc2CC1C(=O)NC1CCCc2ccccc21)C(C)(C)C

> <Shape>
0.302

> <Color>
0.200

> <Negative vol penalty>
0.000

$$$$

  -OEChem-04052316593D

 89 97  0     1  0  0  0  0  0999 V2000
  -17.6342  -10.8381   23.4748 C   0  0  0  0  0  0  0  0  0  0  0  0
  -18.6404  -10.0810   24.0662 C   0  0  0  0  0  0  0  0  0  0  0  0
  -23.1909   -9.8192   19.9316 C   0  0  0  0  0  0  0  0  0  0  0  0
  -23.5684   -9.9996   22.3111 C   0  0  0  0  0  0  0  0  0  0  0  0
  -17.6373  -12.2259   23.6091 C   0  0  0  0  0  0  0  0  0  0  0  0
  -19.6509  -10.7114   24.7914 C   0  0  0  0  0  0  0  0  0  0  0  0
  -22.4809   -8.5743   29.7844 C   0  0  0  0  0  0  0  0  0  0  0  0
  -22.4247   -8.6724   20.1401 C   0  0  0  0  0  0  0  0  0  0  0  0
  -22.8021   -8.8528   22.5196 C   0  0  0  0  0  0  0  0  0  0  0  0
  -23.7025   -7.9273   29.9655 C   0  0  0  0  0  0  0  0  0  0  0  0
  -23.2037   -5.5062   22.2556 C   0  0  0  0  0  0  0  0  0  0  0  0
  -23.7019   -4.5449   23.1350 C   0  0  0  0  0  0  0  0  0  0  0  0
  -24.7341  -10.0396   30.5072 C   0  0  0  0  0  0  0  0  0  0  0  0
  -28.0145   -6.2946   31.8265 C   0  0  0  0  0  0  0  0  0  0  0  0
  -28.1458   -5.4574   29.5640 C   0  0  0  0  0  0  0  0  0  0  0  0
  -21.7448   -4.8046   24.5276 C   0  0  0  0  0  0  0  0  0  0  0  0
  -23.7628  -10.4827   21.0171 C   0  0  0  0  0  0  0  0  0  0  0  0
  -24.1013  -12.9994   20.7735 C   0  0  0  0  0  0  0  0  0  0  0  0
  -18.6429  -12.8728   24.3444 C   0  0  0  0  0  0  0  0  0  0  0  0
  -22.3789   -9.9627   29.9529 C   0  0  0  0  0  0  0  0  0  0  0  0
  -19.6681  -12.1092   24.9346 C   0  0  0  0  0  0  0  0  0  0  0  0
  -23.5095  -10.7015   30.3301 C   0  0  0  0  0  0  0  0  0  0  0  0
  -27.4356   -6.1115   30.5707 C   0  0  0  0  0  0  0  0  0  0  0  0
  -29.3038   -5.8238   32.0755 C   0  0  0  0  0  0  0  0  0  0  0  0
  -29.4350   -4.9865   29.8131 C   0  0  0  0  0  0  0  0  0  0  0  0
  -30.0140   -5.1697   31.0688 C   0  0  0  0  0  0  0  0  0  0  0  0
  -22.2303   -8.1892   21.4340 C   0  0  0  0  0  0  0  0  0  0  0  0
  -24.8300   -8.6604   30.3242 C   0  0  0  0  0  0  0  0  0  0  0  0
  -21.9761   -6.1168   22.5123 C   0  0  0  0  0  0  0  0  0  0  0  0
  -22.9724   -4.1941   24.2710 C   0  0  0  0  0  0  0  0  0  0  0  0
  -21.2466   -5.7660   23.6483 C   0  0  0  0  0  0  0  0  0  0  0  0
  -24.5549  -11.6670   20.8024 C   0  0  0  0  0  0  0  0  0  0  0  0
  -25.2325  -13.7422   20.5387 C   0  0  0  0  0  0  0  0  0  0  0  0
  -22.7759  -13.5192   20.9439 C   0  0  0  0  0  0  0  0  0  0  0  0
  -21.6109  -12.4011   28.0640 C   0  0  0  0  0  0  0  0  0  0  0  0
  -21.8182  -14.0965   30.8217 C   0  0  0  0  0  0  0  0  0  0  0  0
  -23.0980  -14.3544   33.9749 C   0  0  0  0  0  0  0  0  0  0  0  0
  -31.0470  -12.7529   21.5699 C   0  0  0  0  0  0  0  0  0  0  0  0
  -18.6305  -14.3790   24.4222 C   0  0  0  0  0  0  0  0  0  0  0  0
  -21.0481  -10.6419   29.7799 C   0  0  0  0  0  0  0  0  0  0  0  0
  -23.4484  -12.1912   30.5431 C   0  0  0  0  0  0  0  0  0  0  0  0
  -19.5289  -14.9396   25.5217 C   0  0  0  0  0  0  0  0  0  0  0  0
  -29.5206  -13.4702   18.4342 C   0  0  0  0  0  0  0  0  0  0  0  0
  -20.8947  -14.2609   25.4929 C   0  0  0  0  0  0  0  0  0  0  0  0
  -28.0340  -13.2096   18.6830 C   0  0  0  0  0  0  0  0  0  0  0  0
  -30.4018  -12.4809   19.1937 C   0  0  0  0  0  0  0  0  0  0  0  0
  -28.6477  -12.1379   20.8906 C   0  0  0  0  0  0  0  0  0  0  0  0
  -20.7677  -12.7545   25.7499 C   0  0  1  0  0  0  0  0  0  0  0  0
  -21.1726  -12.1316   29.4757 C   0  0  1  0  0  0  0  0  0  0  0  0
  -27.7204  -13.1456   20.1899 C   0  0  2  0  0  0  0  0  0  0  0  0
  -29.9005   -6.0318   33.4291 C   0  0  0  0  0  0  0  0  0  0  0  0
  -31.3960   -4.6646   31.3362 C   0  0  0  0  0  0  0  0  0  0  0  0
  -23.1196  -15.8709   35.9742 C   0  0  0  0  0  0  0  0  0  0  0  0
  -23.7553  -15.9632   29.3819 C   0  0  0  0  0  0  0  0  0  0  0  0
  -24.4564  -16.8464   31.6172 C   0  0  0  0  0  0  0  0  0  0  0  0
  -22.0964  -17.1164   30.8558 C   0  0  0  0  0  0  0  0  0  0  0  0
  -21.8749  -12.2858   35.7022 C   0  0  0  0  0  0  0  0  0  0  0  0
  -30.1745   -4.2893   28.7181 C   0  0  0  0  0  0  0  0  0  0  0  0
  -26.0491   -6.6185   30.3027 C   0  0  0  0  0  0  0  0  0  1  0  0
  -31.2332  -10.7124   25.0478 C   0  0  0  0  0  0  0  0  0  0  0  0
  -31.9083   -9.4600   25.6157 C   0  0  0  0  0  0  0  0  0  0  0  0
  -32.2271  -11.7451   24.5060 C   0  0  0  0  0  0  0  0  0  0  0  0
  -30.9225   -8.4605   26.2242 C   0  0  0  0  0  0  0  0  0  0  0  0
  -31.5363  -13.0041   23.9900 C   0  0  0  0  0  0  0  0  0  0  0  0
  -31.2633   -5.1376   28.0618 C   0  0  0  0  0  0  0  0  0  0  0  0
  -31.6548   -7.2532   26.7930 C   0  0  0  0  0  0  0  0  0  0  0  0
  -22.9219  -14.8287   31.5462 C   0  0  1  0  0  0  0  0  0  0  0  0
  -22.4432  -14.6852   35.3038 C   0  0  2  0  0  0  0  0  0  0  0  0
  -23.3094  -16.1609   30.8444 C   0  0  0  0  0  0  0  0  0  0  0  0
  -25.8715  -11.5661   20.6017 N   0  0  0  0  0  0  0  0  0  0  0  0
  -26.2550  -12.8445   20.4444 N   0  0  0  0  0  0  0  0  0  0  0  0
  -22.1259  -12.8104   30.3558 N   0  0  0  0  0  0  0  0  0  0  0  0
  -30.0548  -12.4697   20.6169 N   0  0  0  0  0  0  0  0  0  0  0  0
  -25.4423  -15.0691   20.4055 N   0  0  0  0  0  0  0  0  0  0  0  0
  -21.7293  -12.6168   21.1776 N   0  0  0  0  0  0  0  0  0  0  0  0
  -20.5700  -12.4973   27.1603 N   0  0  0  0  0  0  0  0  0  0  0  0
  -22.4697  -14.9886   32.9240 N   0  0  0  0  0  0  0  0  0  0  0  0
  -30.6323  -12.7275   22.8958 N   0  0  0  0  0  0  0  0  0  0  0  0
  -22.5220  -13.5166   36.2253 N   0  3  0  0  0  0  0  0  0  0  0  0
  -30.6653   -6.3310   27.4139 N   0  3  0  0  0  0  0  0  0  0  0  0
  -22.5246  -14.7461   20.8742 O   0  0  0  0  0  0  0  0  0  0  0  0
  -22.8050  -12.5150   27.8135 O   0  0  0  0  0  0  0  0  0  0  0  0
  -20.7212  -14.6427   30.6809 O   0  0  0  0  0  0  0  0  0  0  0  0
  -24.0720  -13.6110   33.8790 O   0  0  0  0  0  0  0  0  0  0  0  0
  -32.2147  -13.0147   21.2616 O   0  0  0  0  0  0  0  0  0  0  0  0
  -21.4824   -7.0704   21.6378 O   0  0  0  0  0  0  0  0  0  0  0  0
  -26.0238   -8.0315   30.5010 O   0  0  0  0  0  0  0  0  0  1  0  0
  -23.4502   -3.2698   25.1146 F   0  0  0  0  0  0  0  0  0  0  0  0
  -20.0661   -6.3482   23.8995 F   0  0  0  0  0  0  0  0  0  0  0  0
  1  2  1  0  0  0  0
  1  5  2  0  0  0  0
  2  6  2  0  0  0  0
  3  8  2  0  0  0  0
  3 17  1  0  0  0  0
  4  9  1  0  0  0  0
  4 17  2  0  0  0  0
  5 19  1  0  0  0  0
  6 21  1  0  0  0  0
  7 10  2  0  0  0  0
  7 20  1  0  0  0  0
  8 27  1  0  0  0  0
  9 27  2  0  0  0  0
 10 28  1  0  0  0  0
 11 12  2  0  0  0  0
 11 29  1  0  0  0  0
 12 30  1  0  0  0  0
 13 22  1  0  0  0  0
 13 28  2  0  0  0  0
 14 23  1  0  0  0  0
 14 24  2  0  0  0  0
 15 23  2  0  0  0  0
 15 25  1  0  0  0  0
 16 30  2  0  0  0  0
 16 31  1  0  0  0  0
 17 32  1  0  0  0  0
 18 32  1  0  0  0  0
 18 33  2  0  0  0  0
 18 34  1  0  0  0  0
 19 21  2  0  0  0  0
 19 39  1  0  0  0  0
 20 22  2  0  0  0  0
 20 40  1  0  0  0  0
 21 48  1  0  0  0  0
 22 41  1  0  0  0  0
 23 59  1  0  0  0  0
 24 26  1  0  0  0  0
 24 51  1  0  0  0  0
 25 26  2  0  0  0  0
 25 58  1  0  0  0  0
 26 52  1  0  0  0  0
 27 86  1  0  0  0  0
 28 87  1  0  0  0  0
 29 31  2  0  0  0  0
 29 86  1  0  0  0  0
 30 88  1  0  0  0  0
 31 89  1  0  0  0  0
 32 70  2  0  0  0  0
 33 71  1  0  0  0  0
 33 74  1  0  0  0  0
 34 75  1  0  0  0  0
 34 81  2  0  0  0  0
 35 49  1  0  0  0  0
 35 76  1  0  0  0  0
 35 82  2  0  0  0  0
 36 67  1  0  0  0  0
 36 72  1  0  0  0  0
 36 83  2  0  0  0  0
 37 68  1  0  0  0  0
 37 77  1  0  0  0  0
 37 84  2  0  0  0  0
 38 73  1  0  0  0  0
 38 78  1  0  0  0  0
 38 85  2  0  0  0  0
 39 42  1  0  0  0  0
 40 49  1  0  0  0  0
 41 72  1  0  0  0  0
 42 44  1  0  0  0  0
 43 45  1  0  0  0  0
 43 46  1  0  0  0  0
 44 48  1  0  0  0  0
 45 50  1  0  0  0  0
 46 73  1  0  0  0  0
 47 50  1  0  0  0  0
 47 73  1  0  0  0  0
 48 76  1  0  0  0  0
 49 72  1  0  0  0  0
 50 71  1  0  0  0  0
 53 68  1  0  0  0  0
 54 69  1  0  0  0  0
 55 69  1  0  0  0  0
 56 69  1  0  0  0  0
 57 79  1  0  0  0  0
 58 65  1  0  0  0  0
 59 87  1  0  0  0  0
 60 61  1  0  0  0  0
 60 62  1  0  0  0  0
 61 63  1  0  0  0  0
 62 64  1  0  0  0  0
 63 66  1  0  0  0  0
 64 78  1  0  0  0  0
 65 80  1  0  0  0  0
 66 80  1  0  0  0  0
 67 69  1  0  0  0  0
 67 77  1  0  0  0  0
 68 79  1  0  0  0  0
 70 71  1  0  0  0  0
M  CHG  2  79   1  80   1
M  ISO  4  38 100  59 101  78 100  87 101
M  END
> <Batch ID>
0037

> <Smiles>
CNC(C)C(=O)NC(C(=O)N1Cc2cc([101O:1][101CH2:1]c3cc(C)c(C)c(CCNCCCCCC[100NH:0][100C:0](=O)N4CCCC(n5nc(-c6ccc(Oc7ccc(F)cc7F)cc6)c(C(N)=O)c5N)C4)c3)ccc2CC1C(=O)NC1CCCc2ccccc21)C(C)(C)C

> <Shape>
0.138

> <Color>
0.178

> <Negative vol penalty>
0.000

$$$$

  -OEChem-04052316593D

 93102  0     1  0  0  0  0  0999 V2000
  -34.3112  -25.4133   19.2815 C   0  0  0  0  0  0  0  0  0  0  0  0
  -33.1615  -24.8535   19.8294 C   0  0  0  0  0  0  0  0  0  0  0  0
  -23.2093   -9.8998   21.3943 C   0  0  0  0  0  0  0  0  0  0  0  0
  -23.9840  -10.6866   23.5432 C   0  0  0  0  0  0  0  0  0  0  0  0
  -34.7007  -26.7011   19.6473 C   0  0  0  0  0  0  0  0  0  0  0  0
  -32.4012  -25.5808   20.7444 C   0  0  0  0  0  0  0  0  0  0  0  0
  -27.4334  -25.2955   19.8037 C   0  0  0  0  0  0  0  0  0  0  0  0
  -22.5108   -8.8694   22.0234 C   0  0  0  0  0  0  0  0  0  0  0  0
  -23.2854   -9.6562   24.1724 C   0  0  0  0  0  0  0  0  0  0  0  0
  -26.7771  -24.1296   20.1958 C   0  0  0  0  0  0  0  0  0  0  0  0
  -23.2085   -5.8526   23.3786 C   0  0  0  0  0  0  0  0  0  0  0  0
  -23.3074   -4.5741   22.8296 C   0  0  0  0  0  0  0  0  0  0  0  0
  -25.9634  -25.2579   22.1667 C   0  0  0  0  0  0  0  0  0  0  0  0
  -20.9160   -4.5361   22.4877 C   0  0  0  0  0  0  0  0  0  0  0  0
  -26.3302  -17.1490   25.0880 C   0  0  0  0  0  0  0  0  0  0  0  0
  -23.9460  -10.8084   22.1542 C   0  0  0  0  0  0  0  0  0  0  0  0
  -26.0202  -19.2850   24.5037 C   0  0  0  0  0  0  0  0  0  0  0  0
  -24.1925  -13.1630   21.2042 C   0  0  0  0  0  0  0  0  0  0  0  0
  -33.9394  -27.4483   20.5599 C   0  0  0  0  0  0  0  0  0  0  0  0
  -27.3686  -26.4500   20.5969 C   0  0  0  0  0  0  0  0  0  0  0  0
  -32.7815  -26.8793   21.1238 C   0  0  0  0  0  0  0  0  0  0  0  0
  -26.6178  -26.4378   21.7811 C   0  0  0  0  0  0  0  0  0  0  0  0
  -26.8904  -18.4086   25.1808 C   0  0  0  0  0  0  0  0  0  0  0  0
  -22.5488   -8.7476   23.4125 C   0  0  0  0  0  0  0  0  0  0  0  0
  -26.0443  -24.1099   21.3790 C   0  0  0  0  0  0  0  0  0  0  0  0
  -21.9634   -6.4728   23.4822 C   0  0  0  0  0  0  0  0  0  0  0  0
  -22.1611   -3.9159   22.3841 C   0  0  0  0  0  0  0  0  0  0  0  0
  -20.8172   -5.8145   23.0367 C   0  0  0  0  0  0  0  0  0  0  0  0
  -24.6683  -11.8727   21.5049 C   0  0  0  0  0  0  0  0  0  0  0  0
  -24.9585  -18.5533   24.0244 C   0  0  0  0  0  0  0  0  0  0  0  0
  -25.2534  -13.7867   20.5943 C   0  0  0  0  0  0  0  0  0  0  0  0
  -26.0793  -20.6847   24.2699 C   0  0  0  0  0  0  0  0  0  0  0  0
  -25.1875  -21.2893   23.4563 C   0  0  0  0  0  0  0  0  0  0  0  0
  -22.9066  -13.7458   21.4539 C   0  0  0  0  0  0  0  0  0  0  0  0
  -29.4977  -28.2258   22.1516 C   0  0  0  0  0  0  0  0  0  0  0  0
  -26.9341  -30.1420   22.6798 C   0  0  0  0  0  0  0  0  0  0  0  0
  -23.5433  -30.4439   22.9199 C   0  0  0  0  0  0  0  0  0  0  0  0
  -31.1756  -12.9414   20.8489 C   0  0  0  0  0  0  0  0  0  0  0  0
  -34.4260  -28.8183   20.9609 C   0  0  0  0  0  0  0  0  0  0  0  0
  -28.0602  -27.7074   20.1464 C   0  0  0  0  0  0  0  0  0  0  0  0
  -26.5000  -27.6567   22.6579 C   0  0  0  0  0  0  0  0  0  0  0  0
  -23.7865  -19.0902   23.2895 C   0  0  0  0  0  0  0  0  0  0  0  0
  -24.0868  -20.5080   22.7428 C   0  0  0  0  0  0  0  0  0  0  0  0
  -33.3604  -29.6651   21.6520 C   0  0  0  0  0  0  0  0  0  0  0  0
  -29.1237  -12.8543   17.9405 C   0  0  0  0  0  0  0  0  0  0  0  0
  -32.6395  -28.8486   22.7200 C   0  0  0  0  0  0  0  0  0  0  0  0
  -27.7062  -12.7093   18.4971 C   0  0  0  0  0  0  0  0  0  0  0  0
  -30.1393  -12.0744   18.7727 C   0  0  0  0  0  0  0  0  0  0  0  0
  -28.7070  -12.2366   20.7717 C   0  0  0  0  0  0  0  0  0  0  0  0
  -31.9168  -27.6462   22.1008 C   0  0  1  0  0  0  0  0  0  0  0  0
  -28.3498  -28.6731   21.2914 C   0  0  1  0  0  0  0  0  0  0  0  0
  -27.6557  -13.0509   19.9984 C   0  0  2  0  0  0  0  0  0  0  0  0
  -20.8390  -12.8664   25.8906 C   0  0  0  0  0  0  0  0  0  0  0  0
  -21.7445  -32.1265   23.4001 C   0  0  0  0  0  0  0  0  0  0  0  0
  -27.5978  -29.9989   25.6545 C   0  0  0  0  0  0  0  0  0  0  0  0
  -25.2987  -30.8640   26.1379 C   0  0  0  0  0  0  0  0  0  0  0  0
  -26.9101  -32.2637   24.8468 C   0  0  0  0  0  0  0  0  0  0  0  0
  -22.3348  -30.0887   20.2418 C   0  0  0  0  0  0  0  0  0  0  0  0
  -28.1566  -18.7462   25.8598 C   0  0  0  0  0  0  0  0  0  0  0  0
  -25.2460  -22.7597   23.1666 C   0  0  0  0  0  0  0  0  0  1  0  0
  -21.7282  -14.0606   26.1985 C   0  0  0  0  0  0  0  0  0  0  0  0
  -29.3919  -17.9609   25.3596 C   0  0  0  0  0  0  0  0  0  0  0  0
  -22.4988  -14.5190   24.9599 C   0  0  0  0  0  0  0  0  0  0  0  0
  -29.7047  -18.2383   23.8851 C   0  0  0  0  0  0  0  0  0  0  0  0
  -30.9622  -17.5191   23.3866 C   0  0  0  0  0  0  0  0  0  0  0  0
  -30.8481  -15.9933   23.4340 C   0  0  0  0  0  0  0  0  0  0  0  0
  -23.4201  -15.6981   25.2849 C   0  0  0  0  0  0  0  0  0  0  0  0
  -32.1412  -15.3270   22.9523 C   0  0  0  0  0  0  0  0  0  0  0  0
  -24.2714  -16.1405   24.0919 C   0  0  0  0  0  0  0  0  0  0  0  0
  -32.0661  -13.8040   22.9988 C   0  0  0  0  0  0  0  0  0  0  0  0
  -25.8723  -30.2366   23.7487 C   0  0  1  0  0  0  0  0  0  0  0  0
  -22.5767  -31.4502   22.3218 C   0  0  2  0  0  0  0  0  0  0  0  0
  -26.4234  -30.8171   25.0817 C   0  0  0  0  0  0  0  0  0  0  0  0
  -25.9330  -11.6863   21.1178 N   0  0  0  0  0  0  0  0  0  0  0  0
  -25.1540  -17.2480   24.3813 N   0  0  0  0  0  0  0  0  0  0  0  0
  -26.2609  -12.8677   20.5675 N   0  0  0  0  0  0  0  0  0  0  0  0
  -27.1994  -28.8600   22.1778 N   0  0  0  0  0  0  0  0  0  0  0  0
  -30.0405  -12.4460   20.1862 N   0  0  0  0  0  0  0  0  0  0  0  0
  -25.4135  -15.0261   20.0836 N   0  0  0  0  0  0  0  0  0  0  0  0
  -21.9316  -12.9655   22.0903 N   0  0  0  0  0  0  0  0  0  0  0  0
  -30.6868  -28.0680   21.4656 N   0  0  0  0  0  0  0  0  0  0  0  0
  -24.7771  -31.0067   23.1691 N   0  0  0  0  0  0  0  0  0  0  0  0
  -30.9938  -13.2756   22.1853 N   0  0  0  0  0  0  0  0  0  0  0  0
  -21.6515  -30.7758   21.3678 N   0  3  0  0  0  0  0  0  0  0  0  0
  -22.6249  -14.9182   21.1078 O   0  0  0  0  0  0  0  0  0  0  0  0
  -29.3182  -28.0392   23.3494 O   0  0  0  0  0  0  0  0  0  0  0  0
  -27.5021  -31.1687   22.2990 O   0  0  0  0  0  0  0  0  0  0  0  0
  -23.2335  -29.2764   23.1470 O   0  0  0  0  0  0  0  0  0  0  0  0
  -32.2686  -13.0808   20.2896 O   0  0  0  0  0  0  0  0  0  0  0  0
  -21.8670   -7.7424   24.0267 O   0  0  0  0  0  0  0  0  0  0  0  0
  -25.4032  -22.9731   21.7644 O   0  0  0  0  0  0  0  0  0  1  0  0
  -22.2564   -2.6888   21.8556 F   0  0  0  0  0  0  0  0  0  0  0  0
  -19.6184   -6.4057   23.1325 F   0  0  0  0  0  0  0  0  0  0  0  0
  1  2  1  0  0  0  0
  1  5  2  0  0  0  0
  2  6  2  0  0  0  0
  3  8  2  0  0  0  0
  3 16  1  0  0  0  0
  4  9  1  0  0  0  0
  4 16  2  0  0  0  0
  5 19  1  0  0  0  0
  6 21  1  0  0  0  0
  7 10  2  0  0  0  0
  7 20  1  0  0  0  0
  8 24  1  0  0  0  0
  9 24  2  0  0  0  0
 10 25  1  0  0  0  0
 11 12  2  0  0  0  0
 11 26  1  0  0  0  0
 12 27  1  0  0  0  0
 13 22  1  0  0  0  0
 13 25  2  0  0  0  0
 14 27  2  0  0  0  0
 14 28  1  0  0  0  0
 15 23  2  0  0  0  0
 15 75  1  0  0  0  0
 16 29  1  0  0  0  0
 17 23  1  0  0  0  0
 17 30  2  0  0  0  0
 17 32  1  0  0  0  0
 18 29  1  0  0  0  0
 18 31  2  0  0  0  0
 18 34  1  0  0  0  0
 19 21  2  0  0  0  0
 19 39  1  0  0  0  0
 20 22  2  0  0  0  0
 20 40  1  0  0  0  0
 21 50  1  0  0  0  0
 22 41  1  0  0  0  0
 23 59  1  0  0  0  0
 24 90  1  0  0  0  0
 25 91  1  0  0  0  0
 26 28  2  0  0  0  0
 26 90  1  0  0  0  0
 27 92  1  0  0  0  0
 28 93  1  0  0  0  0
 29 74  2  0  0  0  0
 30 42  1  0  0  0  0
 30 75  1  0  0  0  0
 31 76  1  0  0  0  0
 31 79  1  0  0  0  0
 32 33  2  0  0  0  0
 33 43  1  0  0  0  0
 33 60  1  0  0  0  0
 34 80  1  0  0  0  0
 34 85  2  0  0  0  0
 35 51  1  0  0  0  0
 35 81  1  0  0  0  0
 35 86  2  0  0  0  0
 36 71  1  0  0  0  0
 36 77  1  0  0  0  0
 36 87  2  0  0  0  0
 37 72  1  0  0  0  0
 37 82  1  0  0  0  0
 37 88  2  0  0  0  0
 38 78  1  0  0  0  0
 38 83  1  0  0  0  0
 38 89  2  0  0  0  0
 39 44  1  0  0  0  0
 40 51  1  0  0  0  0
 41 77  1  0  0  0  0
 42 43  1  0  0  0  0
 44 46  1  0  0  0  0
 45 47  1  0  0  0  0
 45 48  1  0  0  0  0
 46 50  1  0  0  0  0
 47 52  1  0  0  0  0
 48 78  1  0  0  0  0
 49 52  1  0  0  0  0
 49 78  1  0  0  0  0
 50 81  1  0  0  0  0
 51 77  1  0  0  0  0
 52 76  1  0  0  0  0
 53 61  1  0  0  0  0
 54 72  1  0  0  0  0
 55 73  1  0  0  0  0
 56 73  1  0  0  0  0
 57 73  1  0  0  0  0
 58 84  1  0  0  0  0
 59 62  1  0  0  0  0
 60 91  1  0  0  0  0
 61 63  1  0  0  0  0
 62 64  1  0  0  0  0
 63 67  1  0  0  0  0
 64 65  1  0  0  0  0
 65 66  1  0  0  0  0
 66 68  1  0  0  0  0
 67 69  1  0  0  0  0
 68 70  1  0  0  0  0
 69 75  1  0  0  0  0
 70 83  1  0  0  0  0
 71 73  1  0  0  0  0
 71 82  1  0  0  0  0
 72 84  1  0  0  0  0
 74 76  1  0  0  0  0
M  CHG  1  84   1
M  ISO  4  38 100  60 101  83 100  91 101
M  END
> <Batch ID>
0037

> <Smiles>
CCCCCn1cc(CCCCCCC[100NH:0][100C:0](=O)N2CCCC(n3nc(-c4ccc(Oc5ccc(F)cc5F)cc4)c(C(N)=O)c3N)C2)c2c1CCC([101CH2:1][101O:1]c1ccc3c(c1)CN(C(=O)C(NC(=O)C(C)NC)C(C)(C)C)C(C(=O)NC1CCCc4ccccc41)C3)=C2

> <Shape>
0.250

> <Color>
0.165

> <Negative vol penalty>
0.000

$$$$

  -OEChem-04052316593D

 86 94  0     1  0  0  0  0  0999 V2000
  -30.6714   -5.6333   28.9072 C   0  0  0  0  0  0  0  0  0  0  0  0
  -31.0250   -6.9787   28.8955 C   0  0  0  0  0  0  0  0  0  0  0  0
  -23.1911   -9.8190   19.9315 C   0  0  0  0  0  0  0  0  0  0  0  0
  -23.5681   -9.9998   22.3110 C   0  0  0  0  0  0  0  0  0  0  0  0
  -29.3398   -5.2621   28.7254 C   0  0  0  0  0  0  0  0  0  0  0  0
  -30.0474   -7.9538   28.7009 C   0  0  0  0  0  0  0  0  0  0  0  0
  -29.8655  -13.5372   31.2104 C   0  0  0  0  0  0  0  0  0  0  0  0
  -22.4249   -8.6722   20.1400 C   0  0  0  0  0  0  0  0  0  0  0  0
  -22.8019   -8.8531   22.5196 C   0  0  0  0  0  0  0  0  0  0  0  0
  -30.2339  -14.7935   30.7311 C   0  0  0  0  0  0  0  0  0  0  0  0
  -23.2038   -5.5064   22.2563 C   0  0  0  0  0  0  0  0  0  0  0  0
  -23.7019   -4.5453   23.1359 C   0  0  0  0  0  0  0  0  0  0  0  0
  -27.9482  -15.2095   30.0819 C   0  0  0  0  0  0  0  0  0  0  0  0
  -31.8552  -15.3961   24.5749 C   0  0  0  0  0  0  0  0  0  0  0  0
  -29.7138  -15.3466   26.3623 C   0  0  0  0  0  0  0  0  0  0  0  0
  -21.7446   -4.8052   24.5282 C   0  0  0  0  0  0  0  0  0  0  0  0
  -23.7628  -10.4828   21.0170 C   0  0  0  0  0  0  0  0  0  0  0  0
  -24.1011  -12.9994   20.7730 C   0  0  0  0  0  0  0  0  0  0  0  0
  -28.3439   -6.2335   28.5381 C   0  0  0  0  0  0  0  0  0  0  0  0
  -28.5354  -13.1026   31.1190 C   0  0  0  0  0  0  0  0  0  0  0  0
  -28.7014   -7.5952   28.5151 C   0  0  0  0  0  0  0  0  0  0  0  0
  -27.5649  -13.9483   30.5631 C   0  0  0  0  0  0  0  0  0  0  0  0
  -31.5078  -16.5489   25.2791 C   0  0  0  0  0  0  0  0  0  0  0  0
  -31.1317  -14.2185   24.7642 C   0  0  0  0  0  0  0  0  0  0  0  0
  -30.4372  -16.5242   26.1728 C   0  0  0  0  0  0  0  0  0  0  0  0
  -22.2303   -8.1893   21.4341 C   0  0  0  0  0  0  0  0  0  0  0  0
  -29.2758  -15.6287   30.1641 C   0  0  0  0  0  0  0  0  0  0  0  0
  -21.9761   -6.1170   22.5126 C   0  0  0  0  0  0  0  0  0  0  0  0
  -22.9723   -4.1947   24.2719 C   0  0  0  0  0  0  0  0  0  0  0  0
  -21.2465   -5.7663   23.6486 C   0  0  0  0  0  0  0  0  0  0  0  0
  -30.0611  -14.1938   25.6579 C   0  0  0  0  0  0  0  0  0  0  0  0
  -24.5548  -11.6671   20.8022 C   0  0  0  0  0  0  0  0  0  0  0  0
  -25.2323  -13.7423   20.5381 C   0  0  0  0  0  0  0  0  0  0  0  0
  -22.7757  -13.5191   20.9431 C   0  0  0  0  0  0  0  0  0  0  0  0
  -27.0558  -10.7019   29.6524 C   0  0  0  0  0  0  0  0  0  0  0  0
  -24.4795  -11.8064   31.2848 C   0  0  0  0  0  0  0  0  0  0  0  0
  -22.9467  -14.4210   32.8536 C   0  0  0  0  0  0  0  0  0  0  0  0
  -31.0467  -12.7536   21.5704 C   0  0  0  0  0  0  0  0  0  0  0  0
  -26.9250   -5.7817   28.2986 C   0  0  0  0  0  0  0  0  0  0  0  0
  -28.1491  -11.7553   31.6651 C   0  0  0  0  0  0  0  0  0  0  0  0
  -26.1197  -13.5370   30.4600 C   0  0  0  0  0  0  0  0  0  0  0  0
  -25.8941   -6.8939   28.4726 C   0  0  0  0  0  0  0  0  0  0  0  0
  -29.5208  -13.4702   18.4344 C   0  0  0  0  0  0  0  0  0  0  0  0
  -26.3469   -8.1593   27.7511 C   0  0  0  0  0  0  0  0  0  0  0  0
  -28.0341  -13.2095   18.6830 C   0  0  0  0  0  0  0  0  0  0  0  0
  -30.4019  -12.4811   19.1942 C   0  0  0  0  0  0  0  0  0  0  0  0
  -28.6476  -12.1382   20.8908 C   0  0  0  0  0  0  0  0  0  0  0  0
  -27.6659   -8.6834   28.3316 C   0  0  1  0  0  0  0  0  0  0  0  0
  -26.8626  -11.2092   31.0534 C   0  0  1  0  0  0  0  0  0  0  0  0
  -27.7203  -13.1457   20.1899 C   0  0  2  0  0  0  0  0  0  0  0  0
  -20.8306  -15.0293   34.0576 C   0  0  0  0  0  0  0  0  0  0  0  0
  -30.8604  -18.6315   23.1228 C   0  0  0  0  0  0  0  0  0  0  0  0
  -33.1580  -19.5618   23.4682 C   0  0  0  0  0  0  0  0  0  0  0  0
  -23.0026  -11.9367   28.6180 C   0  0  0  0  0  0  0  0  0  0  0  0
  -21.2962  -13.4047   29.7141 C   0  0  0  0  0  0  0  0  0  0  0  0
  -21.6369  -11.0706   30.5256 C   0  0  0  0  0  0  0  0  0  0  0  0
  -24.4114  -15.0663   35.3430 C   0  0  0  0  0  0  0  0  0  0  0  0
  -32.2946  -17.7991   25.0591 C   0  0  0  0  0  0  0  0  0  0  0  0
  -30.0417  -17.7587   26.9430 C   0  0  0  0  0  0  0  0  0  0  0  0
  -31.5357  -13.0053   23.9905 C   0  0  0  0  0  0  0  0  0  0  0  0
  -30.9690  -18.0745   28.1186 C   0  0  0  0  0  0  0  0  0  0  0  0
  -30.9630  -16.9986   29.1983 C   0  0  0  0  0  0  0  0  0  1  0  0
  -23.3954  -12.8209   31.0117 C   0  0  1  0  0  0  0  0  0  0  0  0
  -22.2571  -14.5223   34.2022 C   0  0  2  0  0  0  0  0  0  0  0  0
  -32.2801  -18.3148   23.5999 C   0  0  0  0  0  0  0  0  0  0  0  0
  -22.3603  -12.3155   29.9674 C   0  0  0  0  0  0  0  0  0  0  0  0
  -25.8715  -11.5662   20.6017 N   0  0  0  0  0  0  0  0  0  0  0  0
  -26.2548  -12.8446   20.4442 N   0  0  0  0  0  0  0  0  0  0  0  0
  -25.7928  -12.2078   31.0022 N   0  0  0  0  0  0  0  0  0  0  0  0
  -30.0546  -12.4701   20.6173 N   0  0  0  0  0  0  0  0  0  0  0  0
  -25.4420  -15.0691   20.4048 N   0  0  0  0  0  0  0  0  0  0  0  0
  -21.7291  -12.6167   21.1767 N   0  0  0  0  0  0  0  0  0  0  0  0
  -27.4292   -9.3733   29.5816 N   0  0  0  0  0  0  0  0  0  0  0  0
  -22.8189  -13.1612   32.3080 N   0  0  0  0  0  0  0  0  0  0  0  0
  -30.6319  -12.7284   22.8963 N   0  0  0  0  0  0  0  0  0  0  0  0
  -22.9996  -15.4565   35.0949 N   0  3  0  0  0  0  0  0  0  0  0  0
  -22.5243  -14.7461   20.8731 O   0  0  0  0  0  0  0  0  0  0  0  0
  -26.8778  -11.4592   28.7056 O   0  0  0  0  0  0  0  0  0  0  0  0
  -24.1730  -10.7013   31.7390 O   0  0  0  0  0  0  0  0  0  0  0  0
  -23.5364  -15.3661   32.3344 O   0  0  0  0  0  0  0  0  0  0  0  0
  -32.2144  -13.0154   21.2623 O   0  0  0  0  0  0  0  0  0  0  0  0
  -21.4825   -7.0704   21.6380 O   0  0  0  0  0  0  0  0  0  0  0  0
  -29.6329  -16.8552   29.6948 O   0  0  0  0  0  0  0  0  0  1  0  0
  -23.4500   -3.2706   25.1157 F   0  0  0  0  0  0  0  0  0  0  0  0
  -20.0659   -6.3486   23.8995 F   0  0  0  0  0  0  0  0  0  0  0  0
  -29.1429  -12.7556   25.9180 Cl  0  0  0  0  0  0  0  0  0  0  0  0
  1  2  1  0  0  0  0
  1  5  2  0  0  0  0
  2  6  2  0  0  0  0
  3  8  2  0  0  0  0
  3 17  1  0  0  0  0
  4  9  1  0  0  0  0
  4 17  2  0  0  0  0
  5 19  1  0  0  0  0
  6 21  1  0  0  0  0
  7 10  2  0  0  0  0
  7 20  1  0  0  0  0
  8 26  1  0  0  0  0
  9 26  2  0  0  0  0
 10 27  1  0  0  0  0
 11 12  2  0  0  0  0
 11 28  1  0  0  0  0
 12 29  1  0  0  0  0
 13 22  1  0  0  0  0
 13 27  2  0  0  0  0
 14 23  1  0  0  0  0
 14 24  2  0  0  0  0
 15 25  1  0  0  0  0
 15 31  2  0  0  0  0
 16 29  2  0  0  0  0
 16 30  1  0  0  0  0
 17 32  1  0  0  0  0
 18 32  1  0  0  0  0
 18 33  2  0  0  0  0
 18 34  1  0  0  0  0
 19 21  2  0  0  0  0
 19 39  1  0  0  0  0
 20 22  2  0  0  0  0
 20 40  1  0  0  0  0
 21 48  1  0  0  0  0
 22 41  1  0  0  0  0
 23 25  2  0  0  0  0
 23 58  1  0  0  0  0
 24 31  1  0  0  0  0
 24 60  1  0  0  0  0
 25 59  1  0  0  0  0
 26 82  1  0  0  0  0
 27 83  1  0  0  0  0
 28 30  2  0  0  0  0
 28 82  1  0  0  0  0
 29 84  1  0  0  0  0
 30 85  1  0  0  0  0
 31 86  1  0  0  0  0
 32 67  2  0  0  0  0
 33 68  1  0  0  0  0
 33 71  1  0  0  0  0
 34 72  1  0  0  0  0
 34 77  2  0  0  0  0
 35 49  1  0  0  0  0
 35 73  1  0  0  0  0
 35 78  2  0  0  0  0
 36 63  1  0  0  0  0
 36 69  1  0  0  0  0
 36 79  2  0  0  0  0
 37 64  1  0  0  0  0
 37 74  1  0  0  0  0
 37 80  2  0  0  0  0
 38 70  1  0  0  0  0
 38 75  1  0  0  0  0
 38 81  2  0  0  0  0
 39 42  1  0  0  0  0
 40 49  1  0  0  0  0
 41 69  1  0  0  0  0
 42 44  1  0  0  0  0
 43 45  1  0  0  0  0
 43 46  1  0  0  0  0
 44 48  1  0  0  0  0
 45 50  1  0  0  0  0
 46 70  1  0  0  0  0
 47 50  1  0  0  0  0
 47 70  1  0  0  0  0
 48 73  1  0  0  0  0
 49 69  1  0  0  0  0
 50 68  1  0  0  0  0
 51 64  1  0  0  0  0
 52 65  1  0  0  0  0
 53 65  1  0  0  0  0
 54 66  1  0  0  0  0
 55 66  1  0  0  0  0
 56 66  1  0  0  0  0
 57 76  1  0  0  0  0
 58 65  1  0  0  0  0
 59 61  1  0  0  0  0
 60 75  1  0  0  0  0
 61 62  1  0  0  0  0
 62 83  1  0  0  0  0
 63 66  1  0  0  0  0
 63 74  1  0  0  0  0
 64 76  1  0  0  0  0
 67 68  1  0  0  0  0
M  CHG  1  76   1
M  ISO  4  38 100  62 101  75 100  83 101
M  END
> <Batch ID>
0037

> <Smiles>
CNC(C)C(=O)NC(C(=O)N1Cc2cc([101O:1][101CH2:1]CCc3cc(Cl)c(C[100NH:0][100C:0](=O)N4CCCC(n5nc(-c6ccc(Oc7ccc(F)cc7F)cc6)c(C(N)=O)c5N)C4)cc3CC(C)C)ccc2CC1C(=O)NC1CCCc2ccccc21)C(C)(C)C

> <Shape>
0.142

> <Color>
0.186

> <Negative vol penalty>
0.000

$$$$

  -OEChem-04052316593D

 84 92  0     1  0  0  0  0  0999 V2000
  -29.0999   -9.9776   17.0825 C   0  0  0  0  0  0  0  0  0  0  0  0
  -28.1327  -10.8331   16.5647 C   0  0  0  0  0  0  0  0  0  0  0  0
  -25.4100  -29.0380   19.5340 C   0  0  0  0  0  0  0  0  0  0  0  0
  -26.0846  -28.0601   21.6377 C   0  0  0  0  0  0  0  0  0  0  0  0
  -29.6978  -10.2640   18.3090 C   0  0  0  0  0  0  0  0  0  0  0  0
  -27.7621  -11.9752   17.2738 C   0  0  0  0  0  0  0  0  0  0  0  0
  -26.1413  -17.3974   14.9332 C   0  0  0  0  0  0  0  0  0  0  0  0
  -26.5424  -29.8522   19.5493 C   0  0  0  0  0  0  0  0  0  0  0  0
  -27.2171  -28.8744   21.6531 C   0  0  0  0  0  0  0  0  0  0  0  0
  -24.8984  -17.9817   14.6934 C   0  0  0  0  0  0  0  0  0  0  0  0
  -27.9654  -32.0874   22.3929 C   0  0  0  0  0  0  0  0  0  0  0  0
  -28.2866  -32.7283   23.5894 C   0  0  0  0  0  0  0  0  0  0  0  0
  -25.0427  -19.1406   16.8041 C   0  0  0  0  0  0  0  0  0  0  0  0
  -18.8294  -19.5013   19.3669 C   0  0  0  0  0  0  0  0  0  0  0  0
  -30.4195  -31.5939   23.6246 C   0  0  0  0  0  0  0  0  0  0  0  0
  -19.3938  -21.3162   17.4091 C   0  0  0  0  0  0  0  0  0  0  0  0
  -25.1811  -28.1419   20.5782 C   0  0  0  0  0  0  0  0  0  0  0  0
  -23.8960  -26.0148   20.0026 C   0  0  0  0  0  0  0  0  0  0  0  0
  -29.3413  -11.4153   19.0289 C   0  0  0  0  0  0  0  0  0  0  0  0
  -26.8405  -17.6722   16.1172 C   0  0  0  0  0  0  0  0  0  0  0  0
  -28.3549  -12.2766   18.5118 C   0  0  0  0  0  0  0  0  0  0  0  0
  -26.2955  -18.5605   17.0554 C   0  0  0  0  0  0  0  0  0  0  0  0
  -19.6656  -19.1353   18.3181 C   0  0  0  0  0  0  0  0  0  0  0  0
  -19.9582  -20.0542   17.3164 C   0  0  0  0  0  0  0  0  0  0  0  0
  -27.4459  -29.7704   20.6088 C   0  0  0  0  0  0  0  0  0  0  0  0
  -24.3476  -18.8513   15.6302 C   0  0  0  0  0  0  0  0  0  0  0  0
  -28.8712  -31.1996   21.8123 C   0  0  0  0  0  0  0  0  0  0  0  0
  -29.5136  -32.4816   24.2052 C   0  0  0  0  0  0  0  0  0  0  0  0
  -30.0982  -30.9529   22.4281 C   0  0  0  0  0  0  0  0  0  0  0  0
  -24.0112  -27.3009   20.5633 C   0  0  0  0  0  0  0  0  0  0  0  0
  -18.3157  -20.7881   19.3679 C   0  0  0  0  0  0  0  0  0  0  0  0
  -22.5957  -25.6477   20.2499 C   0  0  0  0  0  0  0  0  0  0  0  0
  -24.8766  -25.2227   19.3195 C   0  0  0  0  0  0  0  0  0  0  0  0
  -27.8482  -15.9360   18.5818 C   0  0  0  0  0  0  0  0  0  0  0  0
  -29.2634  -18.7188   19.4627 C   0  0  0  0  0  0  0  0  0  0  0  0
  -29.3173  -22.1262   19.2808 C   0  0  0  0  0  0  0  0  0  0  0  0
  -18.2081  -25.2900   23.6801 C   0  0  0  0  0  0  0  0  0  0  0  0
  -29.9811  -11.6582   20.3729 C   0  0  0  0  0  0  0  0  0  0  0  0
  -28.1923  -17.0546   16.3487 C   0  0  0  0  0  0  0  0  0  0  0  0
  -27.0150  -18.9043   18.3331 C   0  0  0  0  0  0  0  0  0  0  0  0
  -29.8022  -13.0856   20.8836 C   0  0  0  0  0  0  0  0  0  0  0  0
  -18.6732  -28.3595   21.9369 C   0  0  0  0  0  0  0  0  0  0  0  0
  -28.3539  -13.5346   20.7170 C   0  0  0  0  0  0  0  0  0  0  0  0
  -20.0954  -28.2541   21.3836 C   0  0  0  0  0  0  0  0  0  0  0  0
  -18.5552  -27.7157   23.3167 C   0  0  0  0  0  0  0  0  0  0  0  0
  -20.4512  -26.2156   22.8385 C   0  0  0  0  0  0  0  0  0  0  0  0
  -27.9440  -13.5383   19.2394 C   0  0  1  0  0  0  0  0  0  0  0  0
  -28.5821  -17.0052   17.8229 C   0  0  1  0  0  0  0  0  0  0  0  0
  -20.6068  -26.8015   21.4247 C   0  0  2  0  0  0  0  0  0  0  0  0
  -20.2359  -17.7560   18.2879 C   0  0  0  0  0  0  0  0  0  0  0  0
  -30.5684  -24.1252   20.1388 C   0  0  0  0  0  0  0  0  0  0  0  0
  -27.8797  -18.4214   22.1658 C   0  0  0  0  0  0  0  0  0  0  0  0
  -28.3746  -20.8358   22.6064 C   0  0  0  0  0  0  0  0  0  0  0  0
  -30.2470  -19.2186   22.2878 C   0  0  0  0  0  0  0  0  0  0  0  0
  -30.1054  -22.9504   16.5497 C   0  0  0  0  0  0  0  0  0  0  0  0
  -20.8589  -19.7102   16.1551 C   0  0  0  0  0  0  0  0  0  0  0  0
  -17.4144  -21.2155   20.4779 C   0  0  0  0  0  0  0  0  0  0  0  0
  -18.1907  -21.8318   21.6517 C   0  0  0  0  0  0  0  0  0  0  0  0
  -17.2584  -22.2320   22.7991 C   0  0  0  0  0  0  0  0  0  0  0  0
  -18.0093  -22.8347   23.9819 C   0  0  0  0  0  0  0  0  0  0  0  0
  -22.3343  -19.7323   16.5393 C   0  0  0  0  0  0  0  0  0  1  0  0
  -28.8537  -19.9100   20.2946 C   0  0  1  0  0  0  0  0  0  0  0  0
  -30.4493  -23.1032   19.0190 C   0  0  2  0  0  0  0  0  0  0  0  0
  -28.8240  -19.5887   21.8156 C   0  0  0  0  0  0  0  0  0  0  0  0
  -18.5772  -21.7083   18.4126 N   0  0  0  0  0  0  0  0  0  0  0  0
  -22.8748  -27.7226   21.1242 N   0  0  0  0  0  0  0  0  0  0  0  0
  -22.0330  -26.6956   20.9173 N   0  0  0  0  0  0  0  0  0  0  0  0
  -28.3309  -18.2701   18.5166 N   0  0  0  0  0  0  0  0  0  0  0  0
  -19.0553  -26.3391   23.2868 N   0  0  0  0  0  0  0  0  0  0  0  0
  -21.8903  -24.5340   19.9593 N   0  0  0  0  0  0  0  0  0  0  0  0
  -26.1637  -25.7514   19.1517 N   0  0  0  0  0  0  0  0  0  0  0  0
  -28.4768  -14.7055   18.5700 N   0  0  0  0  0  0  0  0  0  0  0  0
  -29.7602  -20.9935   19.9303 N   0  0  0  0  0  0  0  0  0  0  0  0
  -18.7588  -24.0159   23.6159 N   0  0  0  0  0  0  0  0  0  0  0  0
  -30.2188  -23.8323   17.7398 N   0  3  0  0  0  0  0  0  0  0  0  0
  -24.6144  -24.0866   18.8568 O   0  0  0  0  0  0  0  0  0  0  0  0
  -26.7907  -16.2078   19.1381 O   0  0  0  0  0  0  0  0  0  0  0  0
  -30.3728  -18.2097   19.6407 O   0  0  0  0  0  0  0  0  0  0  0  0
  -28.1556  -22.3476   18.9461 O   0  0  0  0  0  0  0  0  0  0  0  0
  -17.0453  -25.4746   24.0552 O   0  0  0  0  0  0  0  0  0  0  0  0
  -28.5512  -30.5647   20.6240 O   0  0  0  0  0  0  0  0  0  0  0  0
  -23.1343  -19.4225   15.3990 O   0  0  0  0  0  0  0  0  0  1  0  0
  -29.8226  -33.0984   25.3534 F   0  0  0  0  0  0  0  0  0  0  0  0
  -30.9729  -30.1020   21.8744 F   0  0  0  0  0  0  0  0  0  0  0  0
  1  2  1  0  0  0  0
  1  5  2  0  0  0  0
  2  6  2  0  0  0  0
  3  8  2  0  0  0  0
  3 17  1  0  0  0  0
  4  9  1  0  0  0  0
  4 17  2  0  0  0  0
  5 19  1  0  0  0  0
  6 21  1  0  0  0  0
  7 10  2  0  0  0  0
  7 20  1  0  0  0  0
  8 25  1  0  0  0  0
  9 25  2  0  0  0  0
 10 26  1  0  0  0  0
 11 12  2  0  0  0  0
 11 27  1  0  0  0  0
 12 28  1  0  0  0  0
 13 22  1  0  0  0  0
 13 26  2  0  0  0  0
 14 23  1  0  0  0  0
 14 31  2  0  0  0  0
 15 28  2  0  0  0  0
 15 29  1  0  0  0  0
 16 24  1  0  0  0  0
 16 65  2  0  0  0  0
 17 30  1  0  0  0  0
 18 30  1  0  0  0  0
 18 32  2  0  0  0  0
 18 33  1  0  0  0  0
 19 21  2  0  0  0  0
 19 38  1  0  0  0  0
 20 22  2  0  0  0  0
 20 39  1  0  0  0  0
 21 47  1  0  0  0  0
 22 40  1  0  0  0  0
 23 24  2  0  0  0  0
 23 50  1  0  0  0  0
 24 56  1  0  0  0  0
 25 81  1  0  0  0  0
 26 82  1  0  0  0  0
 27 29  2  0  0  0  0
 27 81  1  0  0  0  0
 28 83  1  0  0  0  0
 29 84  1  0  0  0  0
 30 66  2  0  0  0  0
 31 57  1  0  0  0  0
 31 65  1  0  0  0  0
 32 67  1  0  0  0  0
 32 70  1  0  0  0  0
 33 71  1  0  0  0  0
 33 76  2  0  0  0  0
 34 48  1  0  0  0  0
 34 72  1  0  0  0  0
 34 77  2  0  0  0  0
 35 62  1  0  0  0  0
 35 68  1  0  0  0  0
 35 78  2  0  0  0  0
 36 63  1  0  0  0  0
 36 73  1  0  0  0  0
 36 79  2  0  0  0  0
 37 69  1  0  0  0  0
 37 74  1  0  0  0  0
 37 80  2  0  0  0  0
 38 41  1  0  0  0  0
 39 48  1  0  0  0  0
 40 68  1  0  0  0  0
 41 43  1  0  0  0  0
 42 44  1  0  0  0  0
 42 45  1  0  0  0  0
 43 47  1  0  0  0  0
 44 49  1  0  0  0  0
 45 69  1  0  0  0  0
 46 49  1  0  0  0  0
 46 69  1  0  0  0  0
 47 72  1  0  0  0  0
 48 68  1  0  0  0  0
 49 67  1  0  0  0  0
 51 63  1  0  0  0  0
 52 64  1  0  0  0  0
 53 64  1  0  0  0  0
 54 64  1  0  0  0  0
 55 75  1  0  0  0  0
 56 61  1  0  0  0  0
 57 58  1  0  0  0  0
 58 59  1  0  0  0  0
 59 60  1  0  0  0  0
 60 74  1  0  0  0  0
 61 82  1  0  0  0  0
 62 64  1  0  0  0  0
 62 73  1  0  0  0  0
 63 75  1  0  0  0  0
 66 67  1  0  0  0  0
M  CHG  1  75   1
M  ISO  4  37 100  61 101  74 100  82 101
M  END
> <Batch ID>
0037

> <Smiles>
CNC(C)C(=O)NC(C(=O)N1Cc2cc([101O:1][101CH2:1]Cc3cnc(CCCC[100NH:0][100C:0](=O)N4CCCC(n5nc(-c6ccc(Oc7ccc(F)cc7F)cc6)c(C(N)=O)c5N)C4)cc3C)ccc2CC1C(=O)NC1CCCc2ccccc21)C(C)(C)C

> <Shape>
0.198

> <Color>
0.062

> <Negative vol penalty>
0.000

$$$$

  -OEChem-04052316593D

 82 90  0     1  0  0  0  0  0999 V2000
  -21.5952  -23.2681   18.2280 C   0  0  0  0  0  0  0  0  0  0  0  0
  -21.9702  -22.0178   17.7467 C   0  0  0  0  0  0  0  0  0  0  0  0
  -26.2496  -27.8639   18.8645 C   0  0  0  0  0  0  0  0  0  0  0  0
  -26.3520  -27.4590   21.2441 C   0  0  0  0  0  0  0  0  0  0  0  0
  -22.1242  -23.7388   19.4290 C   0  0  0  0  0  0  0  0  0  0  0  0
  -22.8754  -21.2380   18.4657 C   0  0  0  0  0  0  0  0  0  0  0  0
  -24.4107  -14.3984   19.9421 C   0  0  0  0  0  0  0  0  0  0  0  0
  -32.0062  -16.3685   22.2229 C   0  0  0  0  0  0  0  0  0  0  0  0
  -25.1199  -28.6610   19.0487 C   0  0  0  0  0  0  0  0  0  0  0  0
  -25.2223  -28.2562   21.4284 C   0  0  0  0  0  0  0  0  0  0  0  0
  -25.4798  -13.5040   19.9127 C   0  0  0  0  0  0  0  0  0  0  0  0
  -21.8743  -27.9543   21.0671 C   0  0  0  0  0  0  0  0  0  0  0  0
  -20.8747  -27.4759   21.9142 C   0  0  0  0  0  0  0  0  0  0  0  0
  -31.7195  -15.0207   22.4085 C   0  0  0  0  0  0  0  0  0  0  0  0
  -26.2679  -14.3863   22.0149 C   0  0  0  0  0  0  0  0  0  0  0  0
  -21.1512  -29.4114   23.3335 C   0  0  0  0  0  0  0  0  0  0  0  0
  -31.8742  -16.0197   19.8740 C   0  0  0  0  0  0  0  0  0  0  0  0
  -26.8656  -27.2628   19.9622 C   0  0  0  0  0  0  0  0  0  0  0  0
  -29.3774  -26.8538   19.7854 C   0  0  0  0  0  0  0  0  0  0  0  0
  -23.0290  -22.9603   20.1679 C   0  0  0  0  0  0  0  0  0  0  0  0
  -24.2681  -15.3025   21.0045 C   0  0  0  0  0  0  0  0  0  0  0  0
  -23.4181  -21.6994   19.6770 C   0  0  0  0  0  0  0  0  0  0  0  0
  -25.1948  -15.2895   22.0567 C   0  0  0  0  0  0  0  0  0  0  0  0
  -32.0868  -16.8854   20.9347 C   0  0  0  0  0  0  0  0  0  0  0  0
  -24.6063  -28.8572   20.3307 C   0  0  0  0  0  0  0  0  0  0  0  0
  -26.4102  -13.4998   20.9478 C   0  0  0  0  0  0  0  0  0  0  0  0
  -22.5124  -29.1612   21.3532 C   0  0  0  0  0  0  0  0  0  0  0  0
  -20.5132  -28.2045   23.0474 C   0  0  0  0  0  0  0  0  0  0  0  0
  -22.1509  -29.8898   22.4864 C   0  0  0  0  0  0  0  0  0  0  0  0
  -28.0323  -26.4388   19.7725 C   0  0  0  0  0  0  0  0  0  0  0  0
  -31.5231  -14.2384   21.2819 C   0  0  0  0  0  0  0  0  0  0  0  0
  -30.0938  -25.7038   19.5598 C   0  0  0  0  0  0  0  0  0  0  0  0
  -29.9300  -28.1619   19.9838 C   0  0  0  0  0  0  0  0  0  0  0  0
  -24.2522  -18.4702   21.2675 C   0  0  0  0  0  0  0  0  0  0  0  0
  -23.4717  -17.8209   24.3484 C   0  0  0  0  0  0  0  0  0  0  0  0
  -23.5368  -15.6131   26.9500 C   0  0  0  0  0  0  0  0  0  0  0  0
  -31.0819  -20.4285   20.6282 C   0  0  0  0  0  0  0  0  0  0  0  0
  -23.6104  -23.5315   21.4369 C   0  0  0  0  0  0  0  0  0  0  0  0
  -23.0945  -16.2428   21.0347 C   0  0  0  0  0  0  0  0  0  0  0  0
  -25.0753  -16.2260   23.2302 C   0  0  0  0  0  0  0  0  0  0  0  0
  -24.2763  -22.4851   22.3267 C   0  0  0  0  0  0  0  0  0  0  0  0
  -28.5683  -21.1025   18.1133 C   0  0  0  0  0  0  0  0  0  0  0  0
  -25.1821  -21.5789   21.4990 C   0  0  0  0  0  0  0  0  0  0  0  0
  -28.3173  -22.5964   18.3268 C   0  0  0  0  0  0  0  0  0  0  0  0
  -28.8064  -20.3868   19.4396 C   0  0  0  0  0  0  0  0  0  0  0  0
  -29.6613  -22.4536   20.4746 C   0  0  0  0  0  0  0  0  0  0  0  0
  -24.3784  -20.8135   20.4407 C   0  0  1  0  0  0  0  0  0  0  0  0
  -23.3338  -17.4693   21.9097 C   0  0  1  0  0  0  0  0  0  0  0  0
  -29.4360  -23.2377   19.1691 C   0  0  2  0  0  0  0  0  0  0  0  0
  -32.3205  -11.9032   20.8337 C   0  0  0  0  0  0  0  0  0  0  0  0
  -22.8535  -15.3801   29.3534 C   0  0  0  0  0  0  0  0  0  0  0  0
  -25.8140  -19.5891   25.1832 C   0  0  0  0  0  0  0  0  0  0  0  0
  -25.6743  -18.5756   27.4682 C   0  0  0  0  0  0  0  0  0  0  0  0
  -23.7474  -19.8753   26.5623 C   0  0  0  0  0  0  0  0  0  0  0  0
  -21.7557  -13.3288   26.3429 C   0  0  0  0  0  0  0  0  0  0  0  0
  -32.3921  -18.3226   20.7030 C   0  0  0  0  0  0  0  0  0  0  0  0
  -29.8400  -12.3665   20.8567 C   0  0  0  0  0  0  0  0  0  0  0  0
  -28.6644  -13.0447   21.5539 C   0  0  0  0  0  0  0  0  0  1  0  0
  -31.2076  -12.7618   21.4467 C   0  0  2  0  0  0  0  0  0  0  0  0
  -24.2486  -17.5831   25.6207 C   0  0  1  0  0  0  0  0  0  0  0  0
  -22.4517  -15.1494   27.9049 C   0  0  2  0  0  0  0  0  0  0  0  0
  -24.8747  -18.8893   26.1857 C   0  0  0  0  0  0  0  0  0  0  0  0
  -31.5934  -14.7048   20.0149 N   0  0  0  0  0  0  0  0  0  0  0  0
  -27.8993  -25.1276   19.5556 N   0  0  0  0  0  0  0  0  0  0  0  0
  -29.1701  -24.7087   19.4301 N   0  0  0  0  0  0  0  0  0  0  0  0
  -23.9141  -17.1307   23.2109 N   0  0  0  0  0  0  0  0  0  0  0  0
  -29.8954  -21.0351   20.1838 N   0  0  0  0  0  0  0  0  0  0  0  0
  -31.4173  -25.4569   19.4615 N   0  0  0  0  0  0  0  0  0  0  0  0
  -29.0519  -29.2320   20.2029 N   0  0  0  0  0  0  0  0  0  0  0  0
  -23.6724  -19.7048   21.0463 N   0  0  0  0  0  0  0  0  0  0  0  0
  -23.3335  -16.9134   26.5386 N   0  0  0  0  0  0  0  0  0  0  0  0
  -31.2230  -19.0815   20.3180 N   0  0  0  0  0  0  0  0  0  0  0  0
  -22.1835  -13.6954   27.7175 N   0  3  0  0  0  0  0  0  0  0  0  0
  -31.1652  -28.3782   19.9508 O   0  0  0  0  0  0  0  0  0  0  0  0
  -25.4022  -18.1467   20.9943 O   0  0  0  0  0  0  0  0  0  0  0  0
  -22.5035  -18.5850   24.3648 O   0  0  0  0  0  0  0  0  0  0  0  0
  -24.4733  -14.8951   26.6065 O   0  0  0  0  0  0  0  0  0  0  0  0
  -31.9543  -21.0435   21.2510 O   0  0  0  0  0  0  0  0  0  0  0  0
  -23.5041  -29.6352   20.5108 O   0  0  0  0  0  0  0  0  0  0  0  0
  -27.4550  -12.6282   20.9212 O   0  0  0  0  0  0  0  0  0  1  0  0
  -19.5522  -27.7457   23.8599 F   0  0  0  0  0  0  0  0  0  0  0  0
  -22.7595  -31.0505   22.7658 F   0  0  0  0  0  0  0  0  0  0  0  0
  1  2  1  0  0  0  0
  1  5  2  0  0  0  0
  2  6  2  0  0  0  0
  3  9  2  0  0  0  0
  3 18  1  0  0  0  0
  4 10  1  0  0  0  0
  4 18  2  0  0  0  0
  5 20  1  0  0  0  0
  6 22  1  0  0  0  0
  7 11  2  0  0  0  0
  7 21  1  0  0  0  0
  8 14  2  0  0  0  0
  8 24  1  0  0  0  0
  9 25  1  0  0  0  0
 10 25  2  0  0  0  0
 11 26  1  0  0  0  0
 12 13  2  0  0  0  0
 12 27  1  0  0  0  0
 13 28  1  0  0  0  0
 14 31  1  0  0  0  0
 15 23  1  0  0  0  0
 15 26  2  0  0  0  0
 16 28  2  0  0  0  0
 16 29  1  0  0  0  0
 17 24  2  0  0  0  0
 17 63  1  0  0  0  0
 18 30  1  0  0  0  0
 19 30  1  0  0  0  0
 19 32  2  0  0  0  0
 19 33  1  0  0  0  0
 20 22  2  0  0  0  0
 20 38  1  0  0  0  0
 21 23  2  0  0  0  0
 21 39  1  0  0  0  0
 22 47  1  0  0  0  0
 23 40  1  0  0  0  0
 24 56  1  0  0  0  0
 25 79  1  0  0  0  0
 26 80  1  0  0  0  0
 27 29  2  0  0  0  0
 27 79  1  0  0  0  0
 28 81  1  0  0  0  0
 29 82  1  0  0  0  0
 30 64  2  0  0  0  0
 31 59  1  0  0  0  0
 31 63  2  0  0  0  0
 32 65  1  0  0  0  0
 32 68  1  0  0  0  0
 33 69  1  0  0  0  0
 33 74  2  0  0  0  0
 34 48  1  0  0  0  0
 34 70  1  0  0  0  0
 34 75  2  0  0  0  0
 35 60  1  0  0  0  0
 35 66  1  0  0  0  0
 35 76  2  0  0  0  0
 36 61  1  0  0  0  0
 36 71  1  0  0  0  0
 36 77  2  0  0  0  0
 37 67  1  0  0  0  0
 37 72  1  0  0  0  0
 37 78  2  0  0  0  0
 38 41  1  0  0  0  0
 39 48  1  0  0  0  0
 40 66  1  0  0  0  0
 41 43  1  0  0  0  0
 42 44  1  0  0  0  0
 42 45  1  0  0  0  0
 43 47  1  0  0  0  0
 44 49  1  0  0  0  0
 45 67  1  0  0  0  0
 46 49  1  0  0  0  0
 46 67  1  0  0  0  0
 47 70  1  0  0  0  0
 48 66  1  0  0  0  0
 49 65  1  0  0  0  0
 50 59  1  0  0  0  0
 51 61  1  0  0  0  0
 52 62  1  0  0  0  0
 53 62  1  0  0  0  0
 54 62  1  0  0  0  0
 55 73  1  0  0  0  0
 56 72  1  0  0  0  0
 57 58  1  0  0  0  0
 57 59  1  0  0  0  0
 58 80  1  0  0  0  0
 60 62  1  0  0  0  0
 60 71  1  0  0  0  0
 61 73  1  0  0  0  0
 64 65  1  0  0  0  0
M  CHG  1  73   1
M  ISO  4  37 100  58 101  72 100  80 101
M  END
> <Batch ID>
0037

> <Smiles>
CNC(C)C(=O)NC(C(=O)N1Cc2cc([101O:1][101CH2:1]CC(C)c3ccc(C[100NH:0][100C:0](=O)N4CCCC(n5nc(-c6ccc(Oc7ccc(F)cc7F)cc6)c(C(N)=O)c5N)C4)cn3)ccc2CC1C(=O)NC1CCCc2ccccc21)C(C)(C)C

> <Shape>
0.209

> <Color>
0.049

> <Negative vol penalty>
0.000

$$$$

  -OEChem-04052316593D

 84 92  0     1  0  0  0  0  0999 V2000
  -18.2821  -28.0298   22.9410 C   0  0  0  0  0  0  0  0  0  0  0  0
  -19.4972  -28.3770   23.5226 C   0  0  0  0  0  0  0  0  0  0  0  0
  -26.7070  -13.4857   21.4223 C   0  0  0  0  0  0  0  0  0  0  0  0
  -26.1828  -14.0259   19.1266 C   0  0  0  0  0  0  0  0  0  0  0  0
  -18.2397  -27.0509   21.9491 C   0  0  0  0  0  0  0  0  0  0  0  0
  -20.6707  -27.7446   23.1134 C   0  0  0  0  0  0  0  0  0  0  0  0
  -27.6672  -28.9959   22.2194 C   0  0  0  0  0  0  0  0  0  0  0  0
  -32.0012  -23.8598   24.3375 C   0  0  0  0  0  0  0  0  0  0  0  0
  -31.9743  -22.5141   23.9716 C   0  0  0  0  0  0  0  0  0  0  0  0
  -25.9651  -12.3094   21.3150 C   0  0  0  0  0  0  0  0  0  0  0  0
  -25.4409  -12.8496   19.0192 C   0  0  0  0  0  0  0  0  0  0  0  0
  -28.9092  -28.4711   22.5742 C   0  0  0  0  0  0  0  0  0  0  0  0
  -22.7091  -11.4044   21.3755 C   0  0  0  0  0  0  0  0  0  0  0  0
  -21.8385  -11.0907   22.4192 C   0  0  0  0  0  0  0  0  0  0  0  0
  -28.7258  -26.8511   20.7963 C   0  0  0  0  0  0  0  0  0  0  0  0
  -32.6578  -24.4576   22.0906 C   0  0  0  0  0  0  0  0  0  0  0  0
  -23.0383   -9.0285   22.8001 C   0  0  0  0  0  0  0  0  0  0  0  0
  -26.8158  -14.3440   20.3281 C   0  0  0  0  0  0  0  0  0  0  0  0
  -28.9521  -15.7286   20.1652 C   0  0  0  0  0  0  0  0  0  0  0  0
  -19.4145  -26.4131   21.5206 C   0  0  0  0  0  0  0  0  0  0  0  0
  -26.9391  -28.4443   21.1555 C   0  0  0  0  0  0  0  0  0  0  0  0
  -20.6438  -26.7553   22.1157 C   0  0  0  0  0  0  0  0  0  0  0  0
  -27.4760  -27.3724   20.4284 C   0  0  0  0  0  0  0  0  0  0  0  0
  -32.3428  -24.8316   23.3970 C   0  0  0  0  0  0  0  0  0  0  0  0
  -32.2893  -22.1401   22.6652 C   0  0  0  0  0  0  0  0  0  0  0  0
  -32.6311  -23.1119   21.7247 C   0  0  0  0  0  0  0  0  0  0  0  0
  -25.3321  -11.9913   20.1134 C   0  0  0  0  0  0  0  0  0  0  0  0
  -29.4374  -27.3967   21.8645 C   0  0  0  0  0  0  0  0  0  0  0  0
  -23.7443  -10.5302   21.0441 C   0  0  0  0  0  0  0  0  0  0  0  0
  -22.0031   -9.9027   23.1315 C   0  0  0  0  0  0  0  0  0  0  0  0
  -23.9089   -9.3422   21.7564 C   0  0  0  0  0  0  0  0  0  0  0  0
  -27.5815  -15.5595   20.4386 C   0  0  0  0  0  0  0  0  0  0  0  0
  -29.1922  -17.0564   20.4219 C   0  0  0  0  0  0  0  0  0  0  0  0
  -29.9215  -14.7711   19.7190 C   0  0  0  0  0  0  0  0  0  0  0  0
  -24.1142  -27.0145   20.8737 C   0  0  0  0  0  0  0  0  0  0  0  0
  -24.7990  -27.1491   17.7059 C   0  0  0  0  0  0  0  0  0  0  0  0
  -27.1705  -27.3588   15.2607 C   0  0  0  0  0  0  0  0  0  0  0  0
  -27.7484  -22.4314   20.0100 C   0  0  0  0  0  0  0  0  0  0  0  0
  -19.3126  -25.3275   20.4787 C   0  0  0  0  0  0  0  0  0  0  0  0
  -25.6129  -29.0391   20.7684 C   0  0  0  0  0  0  0  0  0  0  0  0
  -26.7433  -26.7572   19.2651 C   0  0  0  0  0  0  0  0  0  0  0  0
  -20.6512  -24.9713   19.8371 C   0  0  0  0  0  0  0  0  0  0  0  0
  -26.3036  -20.5505   22.6654 C   0  0  0  0  0  0  0  0  0  0  0  0
  -21.7274  -24.8044   20.9051 C   0  0  0  0  0  0  0  0  0  0  0  0
  -26.6148  -19.0989   22.2970 C   0  0  0  0  0  0  0  0  0  0  0  0
  -26.0025  -21.3945   21.4289 C   0  0  0  0  0  0  0  0  0  0  0  0
  -27.3486  -19.8944   20.0106 C   0  0  0  0  0  0  0  0  0  0  0  0
  -21.9416  -26.1095   21.6811 C   0  0  1  0  0  0  0  0  0  0  0  0
  -24.7258  -28.0685   19.9947 C   0  0  1  0  0  0  0  0  0  0  0  0
  -27.7135  -19.0169   21.2202 C   0  0  2  0  0  0  0  0  0  0  0  0
  -32.2549  -20.6931   22.2972 C   0  0  0  0  0  0  0  0  0  0  0  0
  -27.4276  -27.4093   12.7650 C   0  0  0  0  0  0  0  0  0  0  0  0
  -24.2838  -24.1438   17.5944 C   0  0  0  0  0  0  0  0  0  0  0  0
  -25.4517  -24.0961   15.3804 C   0  0  0  0  0  0  0  0  0  0  0  0
  -23.3638  -25.4324   15.6586 C   0  0  0  0  0  0  0  0  0  0  0  0
  -28.4128  -30.0442   15.3268 C   0  0  0  0  0  0  0  0  0  0  0  0
  -32.3722  -26.2878   23.7933 C   0  0  0  0  0  0  0  0  0  0  0  0
  -32.9724  -22.7351   20.3203 C   0  0  0  0  0  0  0  0  0  0  0  0
  -31.7234  -22.4090   19.4880 C   0  0  0  0  0  0  0  0  0  0  0  0
  -30.7864  -23.6156   19.3789 C   0  0  0  0  0  0  0  0  0  0  0  0
  -29.5440  -23.3197   18.5451 C   0  0  0  0  0  0  0  0  0  0  0  0
  -31.0267  -26.9734   23.5822 C   0  0  0  0  0  0  0  0  0  1  0  0
  -25.5068  -26.2451   16.7257 C   0  0  1  0  0  0  0  0  0  0  0  0
  -27.2722  -28.2403   14.0291 C   0  0  2  0  0  0  0  0  0  0  0  0
  -24.6647  -24.9895   16.3629 C   0  0  0  0  0  0  0  0  0  0  0  0
  -26.9923  -16.6895   20.8385 N   0  0  0  0  0  0  0  0  0  0  0  0
  -27.9974  -17.5813   20.8184 N   0  0  0  0  0  0  0  0  0  0  0  0
  -25.4474  -27.3699   18.9292 N   0  0  0  0  0  0  0  0  0  0  0  0
  -27.0836  -21.2741   20.4477 N   0  0  0  0  0  0  0  0  0  0  0  0
  -30.3066  -17.8144   20.3451 N   0  0  0  0  0  0  0  0  0  0  0  0
  -29.5059  -13.4500   19.5038 N   0  0  0  0  0  0  0  0  0  0  0  0
  -22.7328  -27.0372   20.9014 N   0  0  0  0  0  0  0  0  0  0  0  0
  -25.8590  -27.0793   15.5819 N   0  0  0  0  0  0  0  0  0  0  0  0
  -28.7645  -22.2278   19.0844 N   0  0  0  0  0  0  0  0  0  0  0  0
  -28.4463  -29.1515   14.1398 N   0  3  0  0  0  0  0  0  0  0  0  0
  -31.1244  -15.0742   19.5328 O   0  0  0  0  0  0  0  0  0  0  0  0
  -24.8416  -26.2373   21.4807 O   0  0  0  0  0  0  0  0  0  0  0  0
  -23.7141  -27.6470   17.3946 O   0  0  0  0  0  0  0  0  0  0  0  0
  -28.1560  -26.9552   15.8742 O   0  0  0  0  0  0  0  0  0  0  0  0
  -27.4615  -23.5619   20.4182 O   0  0  0  0  0  0  0  0  0  0  0  0
  -24.6082  -10.8435   20.0082 O   0  0  0  0  0  0  0  0  0  0  0  0
  -30.6491  -26.8821   22.2091 O   0  0  0  0  0  0  0  0  0  1  0  0
  -21.1679   -9.6023   24.1346 F   0  0  0  0  0  0  0  0  0  0  0  0
  -24.9022   -8.4990   21.4434 F   0  0  0  0  0  0  0  0  0  0  0  0
  1  2  1  0  0  0  0
  1  5  2  0  0  0  0
  2  6  2  0  0  0  0
  3 10  2  0  0  0  0
  3 18  1  0  0  0  0
  4 11  1  0  0  0  0
  4 18  2  0  0  0  0
  5 20  1  0  0  0  0
  6 22  1  0  0  0  0
  7 12  2  0  0  0  0
  7 21  1  0  0  0  0
  8  9  2  0  0  0  0
  8 24  1  0  0  0  0
  9 25  1  0  0  0  0
 10 27  1  0  0  0  0
 11 27  2  0  0  0  0
 12 28  1  0  0  0  0
 13 14  2  0  0  0  0
 13 29  1  0  0  0  0
 14 30  1  0  0  0  0
 15 23  1  0  0  0  0
 15 28  2  0  0  0  0
 16 24  2  0  0  0  0
 16 26  1  0  0  0  0
 17 30  2  0  0  0  0
 17 31  1  0  0  0  0
 18 32  1  0  0  0  0
 19 32  1  0  0  0  0
 19 33  2  0  0  0  0
 19 34  1  0  0  0  0
 20 22  2  0  0  0  0
 20 39  1  0  0  0  0
 21 23  2  0  0  0  0
 21 40  1  0  0  0  0
 22 48  1  0  0  0  0
 23 41  1  0  0  0  0
 24 57  1  0  0  0  0
 25 26  2  0  0  0  0
 25 51  1  0  0  0  0
 26 58  1  0  0  0  0
 27 81  1  0  0  0  0
 28 82  1  0  0  0  0
 29 31  2  0  0  0  0
 29 81  1  0  0  0  0
 30 83  1  0  0  0  0
 31 84  1  0  0  0  0
 32 66  2  0  0  0  0
 33 67  1  0  0  0  0
 33 70  1  0  0  0  0
 34 71  1  0  0  0  0
 34 76  2  0  0  0  0
 35 49  1  0  0  0  0
 35 72  1  0  0  0  0
 35 77  2  0  0  0  0
 36 63  1  0  0  0  0
 36 68  1  0  0  0  0
 36 78  2  0  0  0  0
 37 64  1  0  0  0  0
 37 73  1  0  0  0  0
 37 79  2  0  0  0  0
 38 69  1  0  0  0  0
 38 74  1  0  0  0  0
 38 80  2  0  0  0  0
 39 42  1  0  0  0  0
 40 49  1  0  0  0  0
 41 68  1  0  0  0  0
 42 44  1  0  0  0  0
 43 45  1  0  0  0  0
 43 46  1  0  0  0  0
 44 48  1  0  0  0  0
 45 50  1  0  0  0  0
 46 69  1  0  0  0  0
 47 50  1  0  0  0  0
 47 69  1  0  0  0  0
 48 72  1  0  0  0  0
 49 68  1  0  0  0  0
 50 67  1  0  0  0  0
 52 64  1  0  0  0  0
 53 65  1  0  0  0  0
 54 65  1  0  0  0  0
 55 65  1  0  0  0  0
 56 75  1  0  0  0  0
 57 62  1  0  0  0  0
 58 59  1  0  0  0  0
 59 60  1  0  0  0  0
 60 61  1  0  0  0  0
 61 74  1  0  0  0  0
 62 82  1  0  0  0  0
 63 65  1  0  0  0  0
 63 73  1  0  0  0  0
 64 75  1  0  0  0  0
 66 67  1  0  0  0  0
M  CHG  1  75   1
M  ISO  4  38 100  62 101  74 100  82 101
M  END
> <Batch ID>
0037

> <Smiles>
CNC(C)C(=O)NC(C(=O)N1Cc2cc([101O:1][101CH2:1]Cc3ccc(C)c(CCCC[100NH:0][100C:0](=O)N4CCCC(n5nc(-c6ccc(Oc7ccc(F)cc7F)cc6)c(C(N)=O)c5N)C4)c3)ccc2CC1C(=O)NC1CCCc2ccccc21)C(C)(C)C

> <Shape>
0.231

> <Color>
0.071

> <Negative vol penalty>
0.000

$$$$

  -OEChem-04052316593D

 87 95  0     1  0  0  0  0  0999 V2000
  -21.2588   -6.8259   21.7200 C   0  0  0  0  0  0  0  0  0  0  0  0
  -21.7854   -7.8450   22.5071 C   0  0  0  0  0  0  0  0  0  0  0  0
  -22.7276  -29.9238   21.3692 C   0  0  0  0  0  0  0  0  0  0  0  0
  -23.9110  -29.1838   23.3413 C   0  0  0  0  0  0  0  0  0  0  0  0
  -21.8535   -6.5120   20.4986 C   0  0  0  0  0  0  0  0  0  0  0  0
  -22.9077   -8.5500   22.0738 C   0  0  0  0  0  0  0  0  0  0  0  0
  -22.4315  -13.5497   22.7234 C   0  0  0  0  0  0  0  0  0  0  0  0
  -21.5942  -30.1733   22.1429 C   0  0  0  0  0  0  0  0  0  0  0  0
  -22.7776  -29.4334   24.1150 C   0  0  0  0  0  0  0  0  0  0  0  0
  -22.6262  -14.0457   24.0118 C   0  0  0  0  0  0  0  0  0  0  0  0
  -19.0813  -28.3866   23.5275 C   0  0  0  0  0  0  0  0  0  0  0  0
  -17.8515  -27.9522   23.0330 C   0  0  0  0  0  0  0  0  0  0  0  0
  -24.8659  -14.7103   23.4108 C   0  0  0  0  0  0  0  0  0  0  0  0
  -17.0424  -30.2287   23.0454 C   0  0  0  0  0  0  0  0  0  0  0  0
  -23.8861  -29.4290   21.9684 C   0  0  0  0  0  0  0  0  0  0  0  0
  -26.1026  -30.0671   20.8788 C   0  0  0  0  0  0  0  0  0  0  0  0
  -22.9779   -7.2200   20.0456 C   0  0  0  0  0  0  0  0  0  0  0  0
  -23.4581  -13.6205   21.7708 C   0  0  0  0  0  0  0  0  0  0  0  0
  -23.5188   -8.2444   20.8459 C   0  0  0  0  0  0  0  0  0  0  0  0
  -24.6808  -14.2168   22.1104 C   0  0  0  0  0  0  0  0  0  0  0  0
  -25.1805  -19.9533   25.4962 C   0  0  0  0  0  0  0  0  0  0  0  0
  -21.6192  -29.9282   23.5158 C   0  0  0  0  0  0  0  0  0  0  0  0
  -23.8445  -14.6236   24.3565 C   0  0  0  0  0  0  0  0  0  0  0  0
  -19.2917  -29.7420   23.7810 C   0  0  0  0  0  0  0  0  0  0  0  0
  -16.8321  -28.8732   22.7919 C   0  0  0  0  0  0  0  0  0  0  0  0
  -18.2722  -30.6630   23.5399 C   0  0  0  0  0  0  0  0  0  0  0  0
  -25.0570  -29.1705   21.1696 C   0  0  0  0  0  0  0  0  0  0  0  0
  -25.8026  -19.2020   26.4725 C   0  0  0  0  0  0  0  0  0  0  0  0
  -23.9051  -19.5513   25.1557 C   0  0  0  0  0  0  0  0  0  0  0  0
  -26.9653  -29.3447   20.0911 C   0  0  0  0  0  0  0  0  0  0  0  0
  -23.9869  -17.8470   26.6576 C   0  0  0  0  0  0  0  0  0  0  0  0
  -26.2784  -31.4310   21.2845 C   0  0  0  0  0  0  0  0  0  0  0  0
  -25.1380  -11.4855   20.1205 C   0  0  0  0  0  0  0  0  0  0  0  0
  -26.3229  -14.1270   18.6573 C   0  0  0  0  0  0  0  0  0  0  0  0
  -26.9620  -17.4763   18.7984 C   0  0  0  0  0  0  0  0  0  0  0  0
  -28.0251  -23.4793   19.5211 C   0  0  0  0  0  0  0  0  0  0  0  0
  -23.6146   -6.8130   18.7404 C   0  0  0  0  0  0  0  0  0  0  0  0
  -23.2230  -13.1049   20.3774 C   0  0  0  0  0  0  0  0  0  0  0  0
  -25.8078  -14.3355   21.1183 C   0  0  0  0  0  0  0  0  0  0  0  0
  -24.5760   -7.8579   18.1799 C   0  0  0  0  0  0  0  0  0  0  0  0
  -27.0376  -25.7361   16.9504 C   0  0  0  0  0  0  0  0  0  0  0  0
  -25.5090   -8.3665   19.2743 C   0  0  0  0  0  0  0  0  0  0  0  0
  -26.5124  -26.9531   17.7140 C   0  0  0  0  0  0  0  0  0  0  0  0
  -26.6915  -24.4305   17.6628 C   0  0  0  0  0  0  0  0  0  0  0  0
  -26.5857  -25.5826   19.8388 C   0  0  0  0  0  0  0  0  0  0  0  0
  -24.7202   -9.0485   20.3986 C   0  0  1  0  0  0  0  0  0  0  0  0
  -24.5146  -12.7654   19.6401 C   0  0  1  0  0  0  0  0  0  0  0  0
  -26.9588  -26.9256   19.1882 C   0  0  2  0  0  0  0  0  0  0  0  0
  -27.1850  -19.5432   26.9229 C   0  0  0  0  0  0  0  0  0  0  0  0
  -22.1966  -19.3705   23.3296 C   0  0  0  0  0  0  0  0  0  0  0  0
  -27.9730  -19.3467   17.4654 C   0  0  0  0  0  0  0  0  0  0  0  0
  -29.1142  -13.0944   19.3299 C   0  0  0  0  0  0  0  0  0  0  0  0
  -30.0017  -15.3856   18.8492 C   0  0  0  0  0  0  0  0  0  0  0  0
  -28.8887  -14.0763   17.0409 C   0  0  0  0  0  0  0  0  0  0  0  0
  -24.4058  -18.9664   18.7328 C   0  0  0  0  0  0  0  0  0  0  0  0
  -25.8415  -21.1212   24.8544 C   0  0  0  0  0  0  0  0  0  0  0  0
  -23.1333  -20.2874   24.1105 C   0  0  0  0  0  0  0  0  0  0  0  0
  -23.3148  -16.6647   27.3124 C   0  0  0  0  0  0  0  0  0  0  0  0
  -26.8821  -20.7004   23.8035 C   0  0  0  0  0  0  0  0  0  0  0  0
  -27.5842  -21.9081   23.1792 C   0  0  0  0  0  0  0  0  0  0  0  0
  -28.5883  -21.4738   22.1075 C   0  0  0  0  0  0  0  0  0  0  0  0
  -29.3162  -22.6547   21.4736 C   0  0  0  0  0  0  0  0  0  0  0  0
  -22.8902  -15.6056   26.3009 C   0  0  0  0  0  0  0  0  0  1  0  0
  -27.4881  -15.0543   18.9048 C   0  0  1  0  0  0  0  0  0  0  0  0
  -26.6959  -18.5952   17.8075 C   0  0  2  0  0  0  0  0  0  0  0  0
  -28.8528  -14.3988   18.5507 C   0  0  0  0  0  0  0  0  0  0  0  0
  -25.2370  -27.9702   20.6119 N   0  0  0  0  0  0  0  0  0  0  0  0
  -25.2330  -18.1386   27.0766 N   0  0  0  0  0  0  0  0  0  0  0  0
  -23.2755  -18.4988   25.7180 N   0  0  0  0  0  0  0  0  0  0  0  0
  -26.4056  -28.1076   19.9627 N   0  0  0  0  0  0  0  0  0  0  0  0
  -25.5315  -13.8110   19.7707 N   0  0  0  0  0  0  0  0  0  0  0  0
  -27.1432  -24.4686   19.0558 N   0  0  0  0  0  0  0  0  0  0  0  0
  -28.1404  -29.6534   19.5027 N   0  0  0  0  0  0  0  0  0  0  0  0
  -25.2967  -32.0193   22.0934 N   0  0  0  0  0  0  0  0  0  0  0  0
  -24.3182  -10.3799   19.9983 N   0  0  0  0  0  0  0  0  0  0  0  0
  -27.2018  -16.2769   18.1620 N   0  0  0  0  0  0  0  0  0  0  0  0
  -28.4085  -23.5929   20.8518 N   0  0  0  0  0  0  0  0  0  0  0  0
  -25.7166  -19.5658   18.3730 N   0  3  0  0  0  0  0  0  0  0  0  0
  -27.2684  -32.1130   20.9263 O   0  0  0  0  0  0  0  0  0  0  0  0
  -26.2789  -11.4997   20.5676 O   0  0  0  0  0  0  0  0  0  0  0  0
  -26.1181  -13.7044   17.5166 O   0  0  0  0  0  0  0  0  0  0  0  0
  -26.9612  -17.6499   20.0151 O   0  0  0  0  0  0  0  0  0  0  0  0
  -28.4442  -22.5657   18.8023 O   0  0  0  0  0  0  0  0  0  0  0  0
  -20.5134  -30.1718   24.2711 O   0  0  0  0  0  0  0  0  0  0  0  0
  -24.0375  -15.1080   25.6135 O   0  0  0  0  0  0  0  0  0  1  0  0
  -15.6517  -28.4561   22.3156 F   0  0  0  0  0  0  0  0  0  0  0  0
  -18.4688  -31.9666   23.7804 F   0  0  0  0  0  0  0  0  0  0  0  0
  1  2  1  0  0  0  0
  1  5  2  0  0  0  0
  2  6  2  0  0  0  0
  3  8  2  0  0  0  0
  3 15  1  0  0  0  0
  4  9  1  0  0  0  0
  4 15  2  0  0  0  0
  5 17  1  0  0  0  0
  6 19  1  0  0  0  0
  7 10  2  0  0  0  0
  7 18  1  0  0  0  0
  8 22  1  0  0  0  0
  9 22  2  0  0  0  0
 10 23  1  0  0  0  0
 11 12  2  0  0  0  0
 11 24  1  0  0  0  0
 12 25  1  0  0  0  0
 13 20  1  0  0  0  0
 13 23  2  0  0  0  0
 14 25  2  0  0  0  0
 14 26  1  0  0  0  0
 15 27  1  0  0  0  0
 16 27  1  0  0  0  0
 16 30  2  0  0  0  0
 16 32  1  0  0  0  0
 17 19  2  0  0  0  0
 17 37  1  0  0  0  0
 18 20  2  0  0  0  0
 18 38  1  0  0  0  0
 19 46  1  0  0  0  0
 20 39  1  0  0  0  0
 21 28  1  0  0  0  0
 21 29  2  0  0  0  0
 21 56  1  0  0  0  0
 22 84  1  0  0  0  0
 23 85  1  0  0  0  0
 24 26  2  0  0  0  0
 24 84  1  0  0  0  0
 25 86  1  0  0  0  0
 26 87  1  0  0  0  0
 27 67  2  0  0  0  0
 28 49  1  0  0  0  0
 28 68  2  0  0  0  0
 29 57  1  0  0  0  0
 29 69  1  0  0  0  0
 30 70  1  0  0  0  0
 30 73  1  0  0  0  0
 31 58  1  0  0  0  0
 31 68  1  0  0  0  0
 31 69  2  0  0  0  0
 32 74  1  0  0  0  0
 32 79  2  0  0  0  0
 33 47  1  0  0  0  0
 33 75  1  0  0  0  0
 33 80  2  0  0  0  0
 34 64  1  0  0  0  0
 34 71  1  0  0  0  0
 34 81  2  0  0  0  0
 35 65  1  0  0  0  0
 35 76  1  0  0  0  0
 35 82  2  0  0  0  0
 36 72  1  0  0  0  0
 36 77  1  0  0  0  0
 36 83  2  0  0  0  0
 37 40  1  0  0  0  0
 38 47  1  0  0  0  0
 39 71  1  0  0  0  0
 40 42  1  0  0  0  0
 41 43  1  0  0  0  0
 41 44  1  0  0  0  0
 42 46  1  0  0  0  0
 43 48  1  0  0  0  0
 44 72  1  0  0  0  0
 45 48  1  0  0  0  0
 45 72  1  0  0  0  0
 46 75  1  0  0  0  0
 47 71  1  0  0  0  0
 48 70  1  0  0  0  0
 50 57  1  0  0  0  0
 51 65  1  0  0  0  0
 52 66  1  0  0  0  0
 53 66  1  0  0  0  0
 54 66  1  0  0  0  0
 55 78  1  0  0  0  0
 56 59  1  0  0  0  0
 58 63  1  0  0  0  0
 59 60  1  0  0  0  0
 60 61  1  0  0  0  0
 61 62  1  0  0  0  0
 62 77  1  0  0  0  0
 63 85  1  0  0  0  0
 64 66  1  0  0  0  0
 64 76  1  0  0  0  0
 65 78  1  0  0  0  0
 67 70  1  0  0  0  0
M  CHG  1  78   1
M  ISO  4  36 100  63 101  77 100  85 101
M  END
> <Batch ID>
0037

> <Smiles>
CCc1nc(C[101CH2:1][101O:1]c2ccc3c(c2)CN(C(=O)C(NC(=O)C(C)NC)C(C)(C)C)C(C(=O)NC2CCCc4ccccc42)C3)nc(C)c1CCCCC[100NH:0][100C:0](=O)N1CCCC(n2nc(-c3ccc(Oc4ccc(F)cc4F)cc3)c(C(N)=O)c2N)C1

> <Shape>
0.236

> <Color>
0.059

> <Negative vol penalty>
0.000

$$$$

  -OEChem-04052316593D

 88 97  0     1  0  0  0  0  0999 V2000
  -26.5766  -23.5019   25.5662 C   0  0  0  0  0  0  0  0  0  0  0  0
  -27.4101  -24.3572   24.8525 C   0  0  0  0  0  0  0  0  0  0  0  0
  -24.9224  -12.0356   21.0152 C   0  0  0  0  0  0  0  0  0  0  0  0
  -25.1294  -12.7597   18.7196 C   0  0  0  0  0  0  0  0  0  0  0  0
  -25.1944  -23.6789   25.5206 C   0  0  0  0  0  0  0  0  0  0  0  0
  -26.8617  -25.3893   24.0919 C   0  0  0  0  0  0  0  0  0  0  0  0
  -29.3172  -29.7748   24.7107 C   0  0  0  0  0  0  0  0  0  0  0  0
  -24.1616  -10.9421   20.6017 C   0  0  0  0  0  0  0  0  0  0  0  0
  -24.3686  -11.6661   18.3061 C   0  0  0  0  0  0  0  0  0  0  0  0
  -30.5264  -29.9284   24.0341 C   0  0  0  0  0  0  0  0  0  0  0  0
  -21.8613   -8.1568   20.1842 C   0  0  0  0  0  0  0  0  0  0  0  0
  -20.7050   -7.8595   20.9054 C   0  0  0  0  0  0  0  0  0  0  0  0
  -30.3272  -23.7316   20.4974 C   0  0  0  0  0  0  0  0  0  0  0  0
  -29.4044  -31.2218   22.3349 C   0  0  0  0  0  0  0  0  0  0  0  0
  -19.8143  -10.0424   20.3773 C   0  0  0  0  0  0  0  0  0  0  0  0
  -25.4063  -12.9444   20.0741 C   0  0  0  0  0  0  0  0  0  0  0  0
  -27.5911  -14.1314   20.6446 C   0  0  0  0  0  0  0  0  0  0  0  0
  -24.6293  -24.7196   24.7668 C   0  0  0  0  0  0  0  0  0  0  0  0
  -28.1385  -30.3352   24.1979 C   0  0  0  0  0  0  0  0  0  0  0  0
  -25.4706  -25.5795   24.0351 C   0  0  0  0  0  0  0  0  0  0  0  0
  -30.3397  -24.2565   19.2099 C   0  0  0  0  0  0  0  0  0  0  0  0
  -28.1819  -31.0760   23.0082 C   0  0  0  0  0  0  0  0  0  0  0  0
  -29.6402  -22.5503   20.7540 C   0  0  0  0  0  0  0  0  0  0  0  0
  -23.8847  -10.7574   19.2472 C   0  0  0  0  0  0  0  0  0  0  0  0
  -30.5697  -30.6496   22.8445 C   0  0  0  0  0  0  0  0  0  0  0  0
  -21.9942   -9.3969   19.5596 C   0  0  0  0  0  0  0  0  0  0  0  0
  -19.6815   -8.8022   21.0019 C   0  0  0  0  0  0  0  0  0  0  0  0
  -20.9707  -10.3397   19.6561 C   0  0  0  0  0  0  0  0  0  0  0  0
  -26.1919  -14.0745   20.5007 C   0  0  0  0  0  0  0  0  0  0  0  0
  -29.6552  -23.5673   18.2219 C   0  0  0  0  0  0  0  0  0  0  0  0
  -28.9868  -21.9376   19.6969 C   0  0  0  0  0  0  0  0  0  0  0  0
  -27.8406  -15.4132   21.0705 C   0  0  0  0  0  0  0  0  0  0  0  0
  -28.5772  -13.1165   20.4139 C   0  0  0  0  0  0  0  0  0  0  0  0
  -25.3573  -29.1742   23.1877 C   0  0  0  0  0  0  0  0  0  0  0  0
  -26.9197  -20.9114   20.6116 C   0  0  0  0  0  0  0  0  0  0  0  0
  -24.5628  -32.3129   22.9891 C   0  0  0  0  0  0  0  0  0  0  0  0
  -25.5982  -35.5487   22.6659 C   0  0  0  0  0  0  0  0  0  0  0  0
  -23.1272  -24.8422   24.7103 C   0  0  0  0  0  0  0  0  0  0  0  0
  -26.8469  -30.1831   24.9537 C   0  0  0  0  0  0  0  0  0  0  0  0
  -26.9484  -31.7148   22.4262 C   0  0  0  0  0  0  0  0  0  0  0  0
  -22.6456  -26.1903   24.1804 C   0  0  0  0  0  0  0  0  0  0  0  0
  -24.7026  -19.0208   22.6972 C   0  0  0  0  0  0  0  0  0  0  0  0
  -23.4176  -26.5762   22.9226 C   0  0  0  0  0  0  0  0  0  0  0  0
  -24.9858  -17.5721   22.3018 C   0  0  0  0  0  0  0  0  0  0  0  0
  -30.1398  -26.7332   19.0956 C   0  0  0  0  0  0  0  0  0  0  0  0
  -32.2934  -25.6529   19.8583 C   0  0  0  0  0  0  0  0  0  0  0  0
  -24.8178  -19.9591   21.5000 C   0  0  0  0  0  0  0  0  0  0  0  0
  -26.4138  -18.4282   20.3905 C   0  0  0  0  0  0  0  0  0  0  0  0
  -30.8818  -28.0485   18.8954 C   0  0  0  0  0  0  0  0  0  0  0  0
  -33.0190  -26.9763   19.6519 C   0  0  0  0  0  0  0  0  0  0  0  0
  -31.0765  -25.5260   18.9276 C   0  0  0  0  0  0  0  0  0  0  0  0
  -24.9148  -26.7259   23.2185 C   0  0  1  0  0  0  0  0  0  0  0  0
  -25.6144  -30.3610   24.0725 C   0  0  1  0  0  0  0  0  0  0  0  0
  -26.3381  -17.4512   21.5772 C   0  0  2  0  0  0  0  0  0  0  0  0
  -29.6226  -21.9829   22.1313 C   0  0  0  0  0  0  0  0  0  0  0  0
  -29.6327  -24.0839   16.8206 C   0  0  0  0  0  0  0  0  0  0  0  0
  -24.7157  -37.8918   22.4966 C   0  0  0  0  0  0  0  0  0  0  0  0
  -23.7510  -31.7954   20.0937 C   0  0  0  0  0  0  0  0  0  0  0  0
  -23.7940  -34.2695   19.7126 C   0  0  0  0  0  0  0  0  0  0  0  0
  -22.1981  -33.2909   21.3612 C   0  0  0  0  0  0  0  0  0  0  0  0
  -27.0035  -36.3802   25.1342 C   0  0  0  0  0  0  0  0  0  0  0  0
  -28.2341  -20.6658   19.9143 C   0  0  0  0  0  0  0  0  0  0  0  0
  -33.5515  -29.6976   21.0475 C   0  0  0  0  0  0  0  0  0  0  0  0
  -32.7422  -29.4504   19.7833 C   0  0  0  0  0  0  0  0  0  0  0  0
  -32.7075  -29.7521   22.3149 C   0  0  0  0  0  0  0  0  0  1  0  0
  -24.6621  -33.3753   21.9212 C   0  0  1  0  0  0  0  0  0  0  0  0
  -25.2270  -36.8063   23.4309 C   0  0  2  0  0  0  0  0  0  0  0  0
  -23.6243  -33.1692   20.7819 C   0  0  0  0  0  0  0  0  0  0  0  0
  -25.5943  -15.2283   20.8102 N   0  0  0  0  0  0  0  0  0  0  0  0
  -28.9766  -22.4173   18.4330 N   0  0  0  0  0  0  0  0  0  0  0  0
  -26.6230  -16.0222   21.1529 N   0  0  0  0  0  0  0  0  0  0  0  0
  -25.7085  -31.5325   23.1989 N   0  0  0  0  0  0  0  0  0  0  0  0
  -26.1071  -19.7979   20.8255 N   0  0  0  0  0  0  0  0  0  0  0  0
  -28.9805  -16.0673   21.3789 N   0  0  0  0  0  0  0  0  0  0  0  0
  -28.1485  -11.8552   19.9782 N   0  0  0  0  0  0  0  0  0  0  0  0
  -25.1765  -27.9889   23.8747 N   0  0  0  0  0  0  0  0  0  0  0  0
  -24.5480  -34.6570   22.6087 N   0  0  0  0  0  0  0  0  0  0  0  0
  -32.0599  -28.1367   19.8490 N   0  3  0  0  0  0  0  0  0  0  0  0
  -26.4121  -37.3361   24.1629 N   0  3  0  0  0  0  0  0  0  0  0  0
  -29.8006  -13.3170   20.6046 O   0  0  0  0  0  0  0  0  0  0  0  0
  -25.3238  -29.3230   21.9718 O   0  0  0  0  0  0  0  0  0  0  0  0
  -26.6271  -22.0589   20.9578 O   0  0  0  0  0  0  0  0  0  0  0  0
  -23.5099  -32.1851   23.6189 O   0  0  0  0  0  0  0  0  0  0  0  0
  -26.7075  -35.3764   22.1657 O   0  0  0  0  0  0  0  0  0  0  0  0
  -23.1424   -9.6903   18.8433 O   0  0  0  0  0  0  0  0  0  0  0  0
  -31.7486  -30.8005   22.1817 O   0  0  0  0  0  0  0  0  0  1  0  0
  -18.5705   -8.5160   21.6932 F   0  0  0  0  0  0  0  0  0  0  0  0
  -21.0921  -11.5323   19.0572 F   0  0  0  0  0  0  0  0  0  0  0  0
  1  2  1  0  0  0  0
  1  5  2  0  0  0  0
  2  6  2  0  0  0  0
  3  8  2  0  0  0  0
  3 16  1  0  0  0  0
  4  9  1  0  0  0  0
  4 16  2  0  0  0  0
  5 18  1  0  0  0  0
  6 20  1  0  0  0  0
  7 10  2  0  0  0  0
  7 19  1  0  0  0  0
  8 24  1  0  0  0  0
  9 24  2  0  0  0  0
 10 25  1  0  0  0  0
 11 12  2  0  0  0  0
 11 26  1  0  0  0  0
 12 27  1  0  0  0  0
 13 21  1  0  0  0  0
 13 23  2  0  0  0  0
 14 22  1  0  0  0  0
 14 25  2  0  0  0  0
 15 27  2  0  0  0  0
 15 28  1  0  0  0  0
 16 29  1  0  0  0  0
 17 29  1  0  0  0  0
 17 32  2  0  0  0  0
 17 33  1  0  0  0  0
 18 20  2  0  0  0  0
 18 38  1  0  0  0  0
 19 22  2  0  0  0  0
 19 39  1  0  0  0  0
 20 52  1  0  0  0  0
 21 30  2  0  0  0  0
 21 51  1  0  0  0  0
 22 40  1  0  0  0  0
 23 31  1  0  0  0  0
 23 55  1  0  0  0  0
 24 85  1  0  0  0  0
 25 86  1  0  0  0  0
 26 28  2  0  0  0  0
 26 85  1  0  0  0  0
 27 87  1  0  0  0  0
 28 88  1  0  0  0  0
 29 69  2  0  0  0  0
 30 56  1  0  0  0  0
 30 70  1  0  0  0  0
 31 62  1  0  0  0  0
 31 70  2  0  0  0  0
 32 71  1  0  0  0  0
 32 74  1  0  0  0  0
 33 75  1  0  0  0  0
 33 80  2  0  0  0  0
 34 53  1  0  0  0  0
 34 76  1  0  0  0  0
 34 81  2  0  0  0  0
 35 62  1  0  0  0  0
 35 73  1  0  0  0  0
 35 82  2  0  0  0  0
 36 66  1  0  0  0  0
 36 72  1  0  0  0  0
 36 83  2  0  0  0  0
 37 67  1  0  0  0  0
 37 77  1  0  0  0  0
 37 84  2  0  0  0  0
 38 41  1  0  0  0  0
 39 53  1  0  0  0  0
 40 72  1  0  0  0  0
 41 43  1  0  0  0  0
 42 44  1  0  0  0  0
 42 47  1  0  0  0  0
 43 52  1  0  0  0  0
 44 54  1  0  0  0  0
 45 49  1  0  0  0  0
 45 51  1  0  0  0  0
 46 50  1  0  0  0  0
 46 51  1  0  0  0  0
 47 73  1  0  0  0  0
 48 54  1  0  0  0  0
 48 73  1  0  0  0  0
 49 78  1  0  0  0  0
 50 78  1  0  0  0  0
 52 76  1  0  0  0  0
 53 72  1  0  0  0  0
 54 71  1  0  0  0  0
 57 67  1  0  0  0  0
 58 68  1  0  0  0  0
 59 68  1  0  0  0  0
 60 68  1  0  0  0  0
 61 79  1  0  0  0  0
 63 64  1  0  0  0  0
 63 65  1  0  0  0  0
 64 78  1  0  0  0  0
 65 86  1  0  0  0  0
 66 68  1  0  0  0  0
 66 77  1  0  0  0  0
 67 79  1  0  0  0  0
 69 71  1  0  0  0  0
M  CHG  2  78   1  79   1
M  ISO  4  35 100  62 100  65 101  86 101
M  END
> <Batch ID>
0037

> <Smiles>
CNC(C)C(=O)NC(C(=O)N1Cc2cc([101O:1][101CH2:1]CCN3CCC(c4cc(C)c([100CH2:0][100C:0](=O)N5CCCC(n6nc(-c7ccc(Oc8ccc(F)cc8F)cc7)c(C(N)=O)c6N)C5)nc4C)CC3)ccc2CC1C(=O)NC1CCCc2ccccc21)C(C)(C)C

> <Shape>
0.250

> <Color>
0.099

> <Negative vol penalty>
0.000

$$$$

  -OEChem-04052316593D

 81 89  0     1  0  0  0  0  0999 V2000
  -17.5803  -22.1812   18.7837 C   0  0  0  0  0  0  0  0  0  0  0  0
  -18.8878  -21.7107   18.8501 C   0  0  0  0  0  0  0  0  0  0  0  0
  -23.0722   -9.8705   19.9414 C   0  0  0  0  0  0  0  0  0  0  0  0
  -23.8343   -9.8764   22.2341 C   0  0  0  0  0  0  0  0  0  0  0  0
  -16.5388  -21.3027   18.4881 C   0  0  0  0  0  0  0  0  0  0  0  0
  -19.1545  -20.3612   18.6221 C   0  0  0  0  0  0  0  0  0  0  0  0
  -23.1504  -19.6552   15.5924 C   0  0  0  0  0  0  0  0  0  0  0  0
  -22.3289   -8.7171   20.1914 C   0  0  0  0  0  0  0  0  0  0  0  0
  -23.0909   -8.7229   22.4841 C   0  0  0  0  0  0  0  0  0  0  0  0
  -24.4147  -19.8014   16.1615 C   0  0  0  0  0  0  0  0  0  0  0  0
  -19.3822   -7.9190   21.6450 C   0  0  0  0  0  0  0  0  0  0  0  0
  -18.0748   -7.8728   21.1610 C   0  0  0  0  0  0  0  0  0  0  0  0
  -24.6006  -17.4037   16.3496 C   0  0  0  0  0  0  0  0  0  0  0  0
  -28.5754  -17.8928   19.4573 C   0  0  0  0  0  0  0  0  0  0  0  0
  -18.6337   -5.9306   19.8371 C   0  0  0  0  0  0  0  0  0  0  0  0
  -29.4372  -18.4146   17.3029 C   0  0  0  0  0  0  0  0  0  0  0  0
  -23.8250  -10.4502   20.9627 C   0  0  0  0  0  0  0  0  0  0  0  0
  -24.1662  -12.9755   20.8438 C   0  0  0  0  0  0  0  0  0  0  0  0
  -16.7939  -19.9435   18.2468 C   0  0  0  0  0  0  0  0  0  0  0  0
  -22.5962  -18.3805   15.4073 C   0  0  0  0  0  0  0  0  0  0  0  0
  -18.1152  -19.4634   18.3244 C   0  0  0  0  0  0  0  0  0  0  0  0
  -23.3302  -17.2439   15.7755 C   0  0  0  0  0  0  0  0  0  0  0  0
  -28.3778  -17.9817   18.0839 C   0  0  0  0  0  0  0  0  0  0  0  0
  -29.8090  -18.2347   20.0001 C   0  0  0  0  0  0  0  0  0  0  0  0
  -22.3382   -8.1433   21.4627 C   0  0  0  0  0  0  0  0  0  0  0  0
  -25.1388  -18.6757   16.5429 C   0  0  0  0  0  0  0  0  0  0  0  0
  -20.3153   -6.9711   21.2251 C   0  0  0  0  0  0  0  0  0  0  0  0
  -17.7006   -6.8785   20.2571 C   0  0  0  0  0  0  0  0  0  0  0  0
  -19.9411   -5.9769   20.3211 C   0  0  0  0  0  0  0  0  0  0  0  0
  -24.5936  -11.6414   20.7049 C   0  0  0  0  0  0  0  0  0  0  0  0
  -30.8045  -18.6560   19.1334 C   0  0  0  0  0  0  0  0  0  0  0  0
  -25.2578  -13.7254   20.4799 C   0  0  0  0  0  0  0  0  0  0  0  0
  -22.8960  -13.4908   21.2642 C   0  0  0  0  0  0  0  0  0  0  0  0
  -20.0182  -16.8751   16.4989 C   0  0  0  0  0  0  0  0  0  0  0  0
  -20.9530  -14.5779   14.4081 C   0  0  0  0  0  0  0  0  0  0  0  0
  -23.4806  -13.1436   12.6191 C   0  0  0  0  0  0  0  0  0  0  0  0
  -30.7415  -14.7455   20.6636 C   0  0  0  0  0  0  0  0  0  0  0  0
  -15.6299  -19.0231   17.9776 C   0  0  0  0  0  0  0  0  0  0  0  0
  -21.2424  -18.2386   14.7673 C   0  0  0  0  0  0  0  0  0  0  0  0
  -22.7886  -15.8523   15.5794 C   0  0  0  0  0  0  0  0  0  0  0  0
  -16.0411  -17.6799   17.3799 C   0  0  0  0  0  0  0  0  0  0  0  0
  -29.6022  -12.3621   18.2766 C   0  0  0  0  0  0  0  0  0  0  0  0
  -17.2220  -17.0935   18.1469 C   0  0  0  0  0  0  0  0  0  0  0  0
  -28.1652  -12.0678   18.7107 C   0  0  0  0  0  0  0  0  0  0  0  0
  -30.5204  -12.5825   19.4767 C   0  0  0  0  0  0  0  0  0  0  0  0
  -28.6198  -13.3123   20.8656 C   0  0  0  0  0  0  0  0  0  0  0  0
  -18.4475  -18.0111   18.0588 C   0  0  1  0  0  0  0  0  0  0  0  0
  -20.5609  -16.9145   15.0983 C   0  0  1  0  0  0  0  0  0  0  0  0
  -27.6446  -13.1382   19.6887 C   0  0  2  0  0  0  0  0  0  0  0  0
  -32.1500  -19.0352   19.6600 C   0  0  0  0  0  0  0  0  0  0  0  0
  -23.9454  -11.2582   11.0297 C   0  0  0  0  0  0  0  0  0  0  0  0
  -20.8474  -12.5992   16.7283 C   0  0  0  0  0  0  0  0  0  0  0  0
  -22.2000  -11.0109   15.3441 C   0  0  0  0  0  0  0  0  0  0  0  0
  -19.9388  -11.7242   14.5688 C   0  0  0  0  0  0  0  0  0  0  0  0
  -24.3501  -15.0021   10.4863 C   0  0  0  0  0  0  0  0  0  0  0  0
  -30.0269  -18.1434   21.4710 C   0  0  0  0  0  0  0  0  0  0  0  0
  -27.0590  -17.6195   17.4666 C   0  0  0  0  0  0  0  0  0  1  0  0
  -30.8081  -16.8954   21.9017 C   0  0  0  0  0  0  0  0  0  0  0  0
  -21.8558  -13.3702   14.4800 C   0  0  1  0  0  0  0  0  0  0  0  0
  -23.5730  -12.7266   11.1624 C   0  0  2  0  0  0  0  0  0  0  0  0
  -21.2202  -12.2023   15.2859 C   0  0  0  0  0  0  0  0  0  0  0  0
  -30.6498  -18.7552   17.7940 N   0  0  0  0  0  0  0  0  0  0  0  0
  -25.8581  -11.5460   20.2854 N   0  0  0  0  0  0  0  0  0  0  0  0
  -26.2346  -12.8298   20.1574 N   0  0  0  0  0  0  0  0  0  0  0  0
  -21.4579  -15.7659   14.9555 N   0  0  0  0  0  0  0  0  0  0  0  0
  -29.9705  -13.6104   20.3638 N   0  0  0  0  0  0  0  0  0  0  0  0
  -25.4679  -15.0569   20.4074 N   0  0  0  0  0  0  0  0  0  0  0  0
  -21.8846  -12.5812   21.6019 N   0  0  0  0  0  0  0  0  0  0  0  0
  -19.0956  -17.8667   16.7729 N   0  0  0  0  0  0  0  0  0  0  0  0
  -22.1941  -13.0307   13.1021 N   0  0  0  0  0  0  0  0  0  0  0  0
  -30.1430  -15.6737   21.5068 N   0  0  0  0  0  0  0  0  0  0  0  0
  -24.6035  -13.5386   10.4555 N   0  3  0  0  0  0  0  0  0  0  0  0
  -22.6595  -14.7213   21.3225 O   0  0  0  0  0  0  0  0  0  0  0  0
  -20.4067  -16.0084   17.2732 O   0  0  0  0  0  0  0  0  0  0  0  0
  -19.8436  -14.4730   13.8791 O   0  0  0  0  0  0  0  0  0  0  0  0
  -24.4533  -13.5273   13.2651 O   0  0  0  0  0  0  0  0  0  0  0  0
  -31.8770  -14.9215   20.2090 O   0  0  0  0  0  0  0  0  0  0  0  0
  -21.6127   -7.0179   21.7071 O   0  0  0  0  0  0  0  0  0  0  0  0
  -26.3728  -18.8156   17.0993 O   0  0  0  0  0  0  0  0  0  1  0  0
  -16.4447   -6.8333   19.7935 F   0  0  0  0  0  0  0  0  0  0  0  0
  -20.8328   -5.0627   19.9150 F   0  0  0  0  0  0  0  0  0  0  0  0
  1  2  1  0  0  0  0
  1  5  2  0  0  0  0
  2  6  2  0  0  0  0
  3  8  2  0  0  0  0
  3 17  1  0  0  0  0
  4  9  1  0  0  0  0
  4 17  2  0  0  0  0
  5 19  1  0  0  0  0
  6 21  1  0  0  0  0
  7 10  2  0  0  0  0
  7 20  1  0  0  0  0
  8 25  1  0  0  0  0
  9 25  2  0  0  0  0
 10 26  1  0  0  0  0
 11 12  2  0  0  0  0
 11 27  1  0  0  0  0
 12 28  1  0  0  0  0
 13 22  1  0  0  0  0
 13 26  2  0  0  0  0
 14 23  2  0  0  0  0
 14 24  1  0  0  0  0
 15 28  2  0  0  0  0
 15 29  1  0  0  0  0
 16 23  1  0  0  0  0
 16 62  2  0  0  0  0
 17 30  1  0  0  0  0
 18 30  1  0  0  0  0
 18 32  2  0  0  0  0
 18 33  1  0  0  0  0
 19 21  2  0  0  0  0
 19 38  1  0  0  0  0
 20 22  2  0  0  0  0
 20 39  1  0  0  0  0
 21 47  1  0  0  0  0
 22 40  1  0  0  0  0
 23 57  1  0  0  0  0
 24 31  2  0  0  0  0
 24 56  1  0  0  0  0
 25 78  1  0  0  0  0
 26 79  1  0  0  0  0
 27 29  2  0  0  0  0
 27 78  1  0  0  0  0
 28 80  1  0  0  0  0
 29 81  1  0  0  0  0
 30 63  2  0  0  0  0
 31 50  1  0  0  0  0
 31 62  1  0  0  0  0
 32 64  1  0  0  0  0
 32 67  1  0  0  0  0
 33 68  1  0  0  0  0
 33 73  2  0  0  0  0
 34 48  1  0  0  0  0
 34 69  1  0  0  0  0
 34 74  2  0  0  0  0
 35 59  1  0  0  0  0
 35 65  1  0  0  0  0
 35 75  2  0  0  0  0
 36 60  1  0  0  0  0
 36 70  1  0  0  0  0
 36 76  2  0  0  0  0
 37 66  1  0  0  0  0
 37 71  1  0  0  0  0
 37 77  2  0  0  0  0
 38 41  1  0  0  0  0
 39 48  1  0  0  0  0
 40 65  1  0  0  0  0
 41 43  1  0  0  0  0
 42 44  1  0  0  0  0
 42 45  1  0  0  0  0
 43 47  1  0  0  0  0
 44 49  1  0  0  0  0
 45 66  1  0  0  0  0
 46 49  1  0  0  0  0
 46 66  1  0  0  0  0
 47 69  1  0  0  0  0
 48 65  1  0  0  0  0
 49 64  1  0  0  0  0
 51 60  1  0  0  0  0
 52 61  1  0  0  0  0
 53 61  1  0  0  0  0
 54 61  1  0  0  0  0
 55 72  1  0  0  0  0
 56 58  1  0  0  0  0
 57 79  1  0  0  0  0
 58 71  1  0  0  0  0
 59 61  1  0  0  0  0
 59 70  1  0  0  0  0
 60 72  1  0  0  0  0
 63 64  1  0  0  0  0
M  CHG  1  72   1
M  ISO  4  37 100  57 101  71 100  79 101
M  END
> <Batch ID>
0037

> <Smiles>
CNC(C)C(=O)NC(C(=O)N1Cc2cc([101O:1][101CH2:1]c3cnc(C)c(CC[100NH:0][100C:0](=O)N4CCCC(n5nc(-c6ccc(Oc7ccc(F)cc7F)cc6)c(C(N)=O)c5N)C4)c3)ccc2CC1C(=O)NC1CCCc2ccccc21)C(C)(C)C

> <Shape>
0.174

> <Color>
0.196

> <Negative vol penalty>
0.000

$$$$

  -OEChem-04052316593D

 87 95  0     1  0  0  0  0  0999 V2000
  -15.2366  -29.1128   26.4557 C   0  0  0  0  0  0  0  0  0  0  0  0
  -15.5428  -27.8417   25.9804 C   0  0  0  0  0  0  0  0  0  0  0  0
  -30.6208  -19.3800   19.6172 C   0  0  0  0  0  0  0  0  0  0  0  0
  -28.4695  -19.4534   20.7144 C   0  0  0  0  0  0  0  0  0  0  0  0
  -15.8232  -30.2344   25.8710 C   0  0  0  0  0  0  0  0  0  0  0  0
  -16.4349  -27.6915   24.9193 C   0  0  0  0  0  0  0  0  0  0  0  0
  -20.4349  -23.1287   24.0903 C   0  0  0  0  0  0  0  0  0  0  0  0
  -30.4124  -20.6674   19.1226 C   0  0  0  0  0  0  0  0  0  0  0  0
  -28.2612  -20.7409   20.2198 C   0  0  0  0  0  0  0  0  0  0  0  0
  -20.3903  -21.9717   23.3137 C   0  0  0  0  0  0  0  0  0  0  0  0
  -30.6054  -23.8403   20.2752 C   0  0  0  0  0  0  0  0  0  0  0  0
  -31.6609  -24.7477   20.3645 C   0  0  0  0  0  0  0  0  0  0  0  0
  -21.6002  -23.1074   21.5628 C   0  0  0  0  0  0  0  0  0  0  0  0
  -20.6029  -17.3920   22.5695 C   0  0  0  0  0  0  0  0  0  0  0  0
  -22.4788  -19.4553   22.4902 C   0  0  0  0  0  0  0  0  0  0  0  0
  -31.6609  -24.9842   17.9600 C   0  0  0  0  0  0  0  0  0  0  0  0
  -29.6493  -18.7729   20.4131 C   0  0  0  0  0  0  0  0  0  0  0  0
  -30.4728  -17.0881   22.1425 C   0  0  0  0  0  0  0  0  0  0  0  0
  -16.7303  -30.0973   24.8085 C   0  0  0  0  0  0  0  0  0  0  0  0
  -21.0541  -24.2891   23.6037 C   0  0  0  0  0  0  0  0  0  0  0  0
  -17.0331  -28.8124   24.3189 C   0  0  0  0  0  0  0  0  0  0  0  0
  -21.6536  -24.2771   22.3362 C   0  0  0  0  0  0  0  0  0  0  0  0
  -21.8569  -17.2174   23.1547 C   0  0  0  0  0  0  0  0  0  0  0  0
  -20.2868  -18.5984   21.9446 C   0  0  0  0  0  0  0  0  0  0  0  0
  -22.7949  -18.2491   23.1151 C   0  0  0  0  0  0  0  0  0  0  0  0
  -29.2326  -21.3479   19.4239 C   0  0  0  0  0  0  0  0  0  0  0  0
  -20.9704  -21.9618   22.0486 C   0  0  0  0  0  0  0  0  0  0  0  0
  -30.0776  -23.5047   19.0284 C   0  0  0  0  0  0  0  0  0  0  0  0
  -21.2247  -19.6300   21.9049 C   0  0  0  0  0  0  0  0  0  1  0  0
  -32.1887  -25.3197   19.2069 C   0  0  0  0  0  0  0  0  0  0  0  0
  -30.6053  -24.0767   17.8708 C   0  0  0  0  0  0  0  0  0  0  0  0
  -29.8637  -17.4428   20.9239 C   0  0  0  0  0  0  0  0  0  0  0  0
  -30.4336  -15.7153   22.1591 C   0  0  0  0  0  0  0  0  0  0  0  0
  -31.0248  -17.9247   23.1677 C   0  0  0  0  0  0  0  0  0  0  0  0
  -20.0806  -27.2415   22.9411 C   0  0  0  0  0  0  0  0  0  0  0  0
  -23.2440  -27.7539   22.4389 C   0  0  0  0  0  0  0  0  0  0  0  0
  -26.3033  -26.4523   21.6681 C   0  0  0  0  0  0  0  0  0  0  0  0
  -26.8654  -11.7058   19.5052 C   0  0  0  0  0  0  0  0  0  0  0  0
  -17.3028  -31.3418   24.1775 C   0  0  0  0  0  0  0  0  0  0  0  0
  -21.1171  -25.5209   24.4646 C   0  0  0  0  0  0  0  0  0  0  0  0
  -22.3482  -25.4903   21.7760 C   0  0  0  0  0  0  0  0  0  0  0  0
  -18.5250  -31.0744   23.3030 C   0  0  0  0  0  0  0  0  0  0  0  0
  -30.4076  -11.9342   19.2276 C   0  0  0  0  0  0  0  0  0  0  0  0
  -18.2717  -29.8864   22.3803 C   0  0  0  0  0  0  0  0  0  0  0  0
  -30.7249  -13.3399   19.7408 C   0  0  0  0  0  0  0  0  0  0  0  0
  -29.0961  -11.9014   18.4460 C   0  0  0  0  0  0  0  0  0  0  0  0
  -28.2505  -13.8618   19.6771 C   0  0  0  0  0  0  0  0  0  0  0  0
  -18.0151  -28.6071   23.1859 C   0  0  1  0  0  0  0  0  0  0  0  0
  -21.3237  -26.8013   23.6612 C   0  0  1  0  0  0  0  0  0  0  0  0
  -29.5357  -13.9342   20.5193 C   0  0  2  0  0  0  0  0  0  0  0  0
  -24.1445  -18.0851   23.7329 C   0  0  0  0  0  0  0  0  0  0  0  0
  -17.8008  -18.6697   22.3550 C   0  0  0  0  0  0  0  0  0  0  0  0
  -18.6931  -17.7742   20.1740 C   0  0  0  0  0  0  0  0  0  0  0  0
  -28.6921  -27.1237   21.2936 C   0  0  0  0  0  0  0  0  0  0  0  0
  -22.5021  -28.8513   19.6902 C   0  0  0  0  0  0  0  0  0  0  0  0
  -24.9031  -28.6101   19.0229 C   0  0  0  0  0  0  0  0  0  0  0  0
  -24.2765  -30.1458   20.8861 C   0  0  0  0  0  0  0  0  0  0  0  0
  -27.2488  -24.7728   23.9140 C   0  0  0  0  0  0  0  0  0  0  0  0
  -22.1725  -15.9176   23.8192 C   0  0  0  0  0  0  0  0  0  0  0  0
  -23.7387  -12.5415   21.4735 C   0  0  0  0  0  0  0  0  0  0  0  0
  -24.3837  -12.9567   22.8011 C   0  0  0  0  0  0  0  0  0  0  0  0
  -24.6545  -11.6577   20.6317 C   0  0  0  0  0  0  0  0  0  0  0  0
  -23.4597  -13.7809   23.6900 C   0  0  0  0  0  0  0  0  0  0  0  0
  -18.9396  -18.7686   21.3234 C   0  0  0  0  0  0  0  0  0  0  0  0
  -24.1691  -27.6463   21.2507 C   0  0  1  0  0  0  0  0  0  0  0  0
  -27.6674  -26.6389   22.3074 C   0  0  2  0  0  0  0  0  0  0  0  0
  -23.9480  -28.7909   20.2220 C   0  0  0  0  0  0  0  0  0  0  0  0
  -29.4666  -16.3810   20.2176 N   0  0  0  0  0  0  0  0  0  0  0  0
  -29.8272  -15.3455   20.9947 N   0  0  0  0  0  0  0  0  0  0  0  0
  -22.3780  -26.6723   22.6533 N   0  0  0  0  0  0  0  0  0  0  0  0
  -28.0087  -12.4776   19.2406 N   0  0  0  0  0  0  0  0  0  0  0  0
  -30.8590  -14.8004   23.0560 N   0  0  0  0  0  0  0  0  0  0  0  0
  -30.9827  -19.3144   22.9907 N   0  0  0  0  0  0  0  0  0  0  0  0
  -19.2608  -28.0669   23.6869 N   0  0  0  0  0  0  0  0  0  0  0  0
  -25.5225  -27.5821   21.7916 N   0  0  0  0  0  0  0  0  0  0  0  0
  -25.8852  -12.3254   20.2707 N   0  0  0  0  0  0  0  0  0  0  0  0
  -28.1495  -25.3522   22.8843 N   0  3  0  0  0  0  0  0  0  0  0  0
  -23.0868  -15.0554   23.0220 N   0  3  0  0  0  0  0  0  0  0  0  0
  -31.5547  -17.4534   24.2024 O   0  0  0  0  0  0  0  0  0  0  0  0
  -19.8807  -26.8617   21.7933 O   0  0  0  0  0  0  0  0  0  0  0  0
  -23.2932  -28.7573   23.1546 O   0  0  0  0  0  0  0  0  0  0  0  0
  -25.9655  -25.4100   21.1114 O   0  0  0  0  0  0  0  0  0  0  0  0
  -26.7306  -10.5481   19.0945 O   0  0  0  0  0  0  0  0  0  0  0  0
  -29.0291  -22.6043   18.9415 O   0  0  0  0  0  0  0  0  0  0  0  0
  -20.9277  -20.8339   21.2883 O   0  0  0  0  0  0  0  0  0  1  0  0
  -33.2013  -26.1922   19.2928 F   0  0  0  0  0  0  0  0  0  0  0  0
  -30.1017  -23.7591   16.6703 F   0  0  0  0  0  0  0  0  0  0  0  0
  1  2  1  0  0  0  0
  1  5  2  0  0  0  0
  2  6  2  0  0  0  0
  3  8  2  0  0  0  0
  3 17  1  0  0  0  0
  4  9  1  0  0  0  0
  4 17  2  0  0  0  0
  5 19  1  0  0  0  0
  6 21  1  0  0  0  0
  7 10  2  0  0  0  0
  7 20  1  0  0  0  0
  8 26  1  0  0  0  0
  9 26  2  0  0  0  0
 10 27  1  0  0  0  0
 11 12  2  0  0  0  0
 11 28  1  0  0  0  0
 12 30  1  0  0  0  0
 13 22  1  0  0  0  0
 13 27  2  0  0  0  0
 14 23  2  0  0  0  0
 14 24  1  0  0  0  0
 15 25  2  0  0  0  0
 15 29  1  0  0  0  0
 16 30  2  0  0  0  0
 16 31  1  0  0  0  0
 17 32  1  0  0  0  0
 18 32  1  0  0  0  0
 18 33  2  0  0  0  0
 18 34  1  0  0  0  0
 19 21  2  0  0  0  0
 19 39  1  0  0  0  0
 20 22  2  0  0  0  0
 20 40  1  0  0  0  0
 21 48  1  0  0  0  0
 22 41  1  0  0  0  0
 23 25  1  0  0  0  0
 23 59  1  0  0  0  0
 24 29  2  0  0  0  0
 24 64  1  0  0  0  0
 25 51  1  0  0  0  0
 26 84  1  0  0  0  0
 27 85  1  0  0  0  0
 28 31  2  0  0  0  0
 28 84  1  0  0  0  0
 29 85  1  0  0  0  0
 30 86  1  0  0  0  0
 31 87  1  0  0  0  0
 32 68  2  0  0  0  0
 33 69  1  0  0  0  0
 33 72  1  0  0  0  0
 34 73  1  0  0  0  0
 34 79  2  0  0  0  0
 35 49  1  0  0  0  0
 35 74  1  0  0  0  0
 35 80  2  0  0  0  0
 36 65  1  0  0  0  0
 36 70  1  0  0  0  0
 36 81  2  0  0  0  0
 37 66  1  0  0  0  0
 37 75  1  0  0  0  0
 37 82  2  0  0  0  0
 38 71  1  0  0  0  0
 38 76  1  0  0  0  0
 38 83  2  0  0  0  0
 39 42  1  0  0  0  0
 40 49  1  0  0  0  0
 41 70  1  0  0  0  0
 42 44  1  0  0  0  0
 43 45  1  0  0  0  0
 43 46  1  0  0  0  0
 44 48  1  0  0  0  0
 45 50  1  0  0  0  0
 46 71  1  0  0  0  0
 47 50  1  0  0  0  0
 47 71  1  0  0  0  0
 48 74  1  0  0  0  0
 49 70  1  0  0  0  0
 50 69  1  0  0  0  0
 52 64  1  0  0  0  0
 53 64  1  0  0  0  0
 54 66  1  0  0  0  0
 55 67  1  0  0  0  0
 56 67  1  0  0  0  0
 57 67  1  0  0  0  0
 58 77  1  0  0  0  0
 59 78  1  0  0  0  0
 60 61  1  0  0  0  0
 60 62  1  0  0  0  0
 61 63  1  0  0  0  0
 62 76  1  0  0  0  0
 63 78  1  0  0  0  0
 65 67  1  0  0  0  0
 65 75  1  0  0  0  0
 66 77  1  0  0  0  0
 68 69  1  0  0  0  0
M  CHG  2  77   1  78   1
M  ISO  4  29 101  38 100  76 100  85 101
M  END
> <Batch ID>
0037

> <Smiles>
CNC(C)C(=O)NC(C(=O)N1Cc2cc([101O:1][101c:1]3cc(C)c(CNCCCC[100NH:0][100C:0](=O)N4CCCC(n5nc(-c6ccc(Oc7ccc(F)cc7F)cc6)c(C(N)=O)c5N)C4)cc3C(C)C)ccc2CC1C(=O)NC1CCCc2ccccc21)C(C)(C)C

> <Shape>
0.259

> <Color>
0.065

> <Negative vol penalty>
0.000

$$$$

  -OEChem-04052316593D

 87 95  0     1  0  0  0  0  0999 V2000
  -17.1356  -25.8558   21.9301 C   0  0  0  0  0  0  0  0  0  0  0  0
  -18.4352  -25.5058   21.5780 C   0  0  0  0  0  0  0  0  0  0  0  0
  -24.1476  -12.1580   21.3692 C   0  0  0  0  0  0  0  0  0  0  0  0
  -24.8327  -14.2493   20.3721 C   0  0  0  0  0  0  0  0  0  0  0  0
  -16.7824  -27.2000   22.0402 C   0  0  0  0  0  0  0  0  0  0  0  0
  -19.3821  -26.5000   21.3346 C   0  0  0  0  0  0  0  0  0  0  0  0
  -23.8362  -25.5214   23.5365 C   0  0  0  0  0  0  0  0  0  0  0  0
  -25.2521  -11.5246   20.7997 C   0  0  0  0  0  0  0  0  0  0  0  0
  -25.9372  -13.6159   19.8025 C   0  0  0  0  0  0  0  0  0  0  0  0
  -24.6643  -24.5899   22.9118 C   0  0  0  0  0  0  0  0  0  0  0  0
  -28.9945  -12.5728   20.7954 C   0  0  0  0  0  0  0  0  0  0  0  0
  -30.2271  -13.2197   20.8831 C   0  0  0  0  0  0  0  0  0  0  0  0
  -25.9532  -26.3887   21.9514 C   0  0  0  0  0  0  0  0  0  0  0  0
  -30.3692  -13.2757   18.4719 C   0  0  0  0  0  0  0  0  0  0  0  0
  -26.7292  -19.0712   22.8492 C   0  0  0  0  0  0  0  0  0  0  0  0
  -27.2854  -19.4387   20.7487 C   0  0  0  0  0  0  0  0  0  0  0  0
  -23.9378  -13.5204   21.1554 C   0  0  0  0  0  0  0  0  0  0  0  0
  -22.4894  -14.2810   23.1127 C   0  0  0  0  0  0  0  0  0  0  0  0
  -17.7280  -28.2111   21.8075 C   0  0  0  0  0  0  0  0  0  0  0  0
  -24.0541  -26.8959   23.3643 C   0  0  0  0  0  0  0  0  0  0  0  0
  -19.0409  -27.8591   21.4403 C   0  0  0  0  0  0  0  0  0  0  0  0
  -25.1280  -27.3356   22.5771 C   0  0  0  0  0  0  0  0  0  0  0  0
  -26.1469  -12.2535   20.0163 C   0  0  0  0  0  0  0  0  0  0  0  0
  -25.7212  -25.0235   22.1168 C   0  0  0  0  0  0  0  0  0  0  0  0
  -28.4492  -12.2773   19.5460 C   0  0  0  0  0  0  0  0  0  0  0  0
  -30.9145  -13.5712   19.7214 C   0  0  0  0  0  0  0  0  0  0  0  0
  -29.1366  -12.6288   18.3843 C   0  0  0  0  0  0  0  0  0  0  0  0
  -22.7967  -14.1752   21.7430 C   0  0  0  0  0  0  0  0  0  0  0  0
  -26.0821  -18.2060   21.9989 C   0  0  0  0  0  0  0  0  0  0  0  0
  -21.3132  -14.9894   23.1469 C   0  0  0  0  0  0  0  0  0  0  0  0
  -23.2034  -13.7836   24.2522 C   0  0  0  0  0  0  0  0  0  0  0  0
  -22.3738  -29.2965   22.1324 C   0  0  0  0  0  0  0  0  0  0  0  0
  -24.8290  -31.0851   23.2705 C   0  0  0  0  0  0  0  0  0  0  0  0
  -28.1008  -31.2385   24.2288 C   0  0  0  0  0  0  0  0  0  0  0  0
  -18.7496  -18.8803   19.5461 C   0  0  0  0  0  0  0  0  0  0  0  0
  -17.2871  -29.6509   21.8925 C   0  0  0  0  0  0  0  0  0  0  0  0
  -23.1681  -27.8880   24.0666 C   0  0  0  0  0  0  0  0  0  0  0  0
  -25.4169  -28.8002   22.3767 C   0  0  0  0  0  0  0  0  0  0  0  0
  -18.4472  -30.6388   21.9839 C   0  0  0  0  0  0  0  0  0  0  0  0
  -17.3824  -15.8656   20.5799 C   0  0  0  0  0  0  0  0  0  0  0  0
  -19.5163  -30.3041   20.9485 C   0  0  0  0  0  0  0  0  0  0  0  0
  -18.5783  -15.0886   21.1285 C   0  0  0  0  0  0  0  0  0  0  0  0
  -17.7604  -16.6234   19.3128 C   0  0  0  0  0  0  0  0  0  0  0  0
  -20.1176  -16.8001   20.0431 C   0  0  0  0  0  0  0  0  0  0  0  0
  -20.1028  -28.9084   21.1926 C   0  0  1  0  0  0  0  0  0  0  0  0
  -23.1701  -29.2632   23.4061 C   0  0  1  0  0  0  0  0  0  0  0  0
  -19.7914  -16.0137   21.3294 C   0  0  2  0  0  0  0  0  0  0  0  0
  -19.8500  -23.2395   18.3819 C   0  0  0  0  0  0  0  0  0  0  0  0
  -29.8320  -32.8455   25.0760 C   0  0  0  0  0  0  0  0  0  0  0  0
  -25.1126  -32.2540   20.4664 C   0  0  0  0  0  0  0  0  0  0  0  0
  -27.3801  -33.0905   21.1200 C   0  0  0  0  0  0  0  0  0  0  0  0
  -25.3545  -33.9164   22.3190 C   0  0  0  0  0  0  0  0  0  0  0  0
  -28.4613  -29.7086   26.7365 C   0  0  0  0  0  0  0  0  0  0  0  0
  -25.1276  -17.1397   22.3384 C   0  0  0  0  0  0  0  0  0  0  0  0
  -19.9549  -21.7208   18.3797 C   0  0  0  0  0  0  0  0  0  0  0  0
  -23.6621  -17.6260   22.3540 C   0  0  0  0  0  0  0  0  0  0  0  0
  -23.2002  -18.1372   20.9877 C   0  0  0  0  0  0  0  0  0  0  0  0
  -21.7576  -18.6481   21.0447 C   0  0  0  0  0  0  0  0  0  0  0  0
  -28.0902  -22.3176   21.8029 C   0  0  0  0  0  0  0  0  0  0  0  0
  -28.4046  -20.9766   22.4698 C   0  0  0  0  0  0  0  0  0  0  0  0
  -19.7668  -21.1152   19.7655 C   0  0  0  0  0  0  0  0  0  0  0  0
  -21.2612  -19.1534   19.6940 C   0  0  0  0  0  0  0  0  0  0  0  0
  -26.7123  -22.8621   22.1612 C   0  0  0  0  0  0  0  0  0  1  0  0
  -26.1554  -31.5524   22.7218 C   0  0  1  0  0  0  0  0  0  0  0  0
  -28.7635  -31.8331   25.4583 C   0  0  2  0  0  0  0  0  0  0  0  0
  -25.9943  -32.6757   21.6588 C   0  0  0  0  0  0  0  0  0  0  0  0
  -26.4328  -18.4397   20.6928 N   0  0  0  0  0  0  0  0  0  0  0  0
  -21.8889  -14.7686   20.9635 N   0  0  0  0  0  0  0  0  0  0  0  0
  -27.4967  -19.8544   22.0339 N   0  0  0  0  0  0  0  0  0  0  0  0
  -20.9995  -15.2542   21.8463 N   0  0  0  0  0  0  0  0  0  0  0  0
  -24.5185  -29.7313   23.0791 N   0  0  0  0  0  0  0  0  0  0  0  0
  -18.9191  -17.4878   19.5385 N   0  0  0  0  0  0  0  0  0  0  0  0
  -20.5269  -15.4054   24.1624 N   0  0  0  0  0  0  0  0  0  0  0  0
  -22.9000  -12.4984   24.7220 N   0  0  0  0  0  0  0  0  0  0  0  0
  -21.0474  -28.9418   22.2886 N   0  0  0  0  0  0  0  0  0  0  0  0
  -26.9632  -31.9329   23.8755 N   0  0  0  0  0  0  0  0  0  0  0  0
  -19.8934  -19.6647   19.7582 N   0  0  0  0  0  0  0  0  0  0  0  0
  -29.4020  -30.7606   26.2724 N   0  3  0  0  0  0  0  0  0  0  0  0
  -24.0727  -14.4652   24.8466 O   0  0  0  0  0  0  0  0  0  0  0  0
  -22.9218  -29.6214   21.0856 O   0  0  0  0  0  0  0  0  0  0  0  0
  -24.0985  -31.8898   23.8540 O   0  0  0  0  0  0  0  0  0  0  0  0
  -28.5497  -30.2584   23.6385 O   0  0  0  0  0  0  0  0  0  0  0  0
  -17.6389  -19.3960   19.3657 O   0  0  0  0  0  0  0  0  0  0  0  0
  -27.2249  -11.6358   19.4606 O   0  0  0  0  0  0  0  0  0  0  0  0
  -26.5306  -24.1163   21.5053 O   0  0  0  0  0  0  0  0  0  1  0  0
  -32.0975  -14.1937   19.8057 F   0  0  0  0  0  0  0  0  0  0  0  0
  -28.6172  -12.3486   17.1811 F   0  0  0  0  0  0  0  0  0  0  0  0
  1  2  1  0  0  0  0
  1  5  2  0  0  0  0
  2  6  2  0  0  0  0
  3  8  2  0  0  0  0
  3 17  1  0  0  0  0
  4  9  1  0  0  0  0
  4 17  2  0  0  0  0
  5 19  1  0  0  0  0
  6 21  1  0  0  0  0
  7 10  2  0  0  0  0
  7 20  1  0  0  0  0
  8 23  1  0  0  0  0
  9 23  2  0  0  0  0
 10 24  1  0  0  0  0
 11 12  2  0  0  0  0
 11 25  1  0  0  0  0
 12 26  1  0  0  0  0
 13 22  1  0  0  0  0
 13 24  2  0  0  0  0
 14 26  2  0  0  0  0
 14 27  1  0  0  0  0
 15 29  2  0  0  0  0
 15 69  1  0  0  0  0
 16 67  2  0  0  0  0
 16 69  1  0  0  0  0
 17 28  1  0  0  0  0
 18 28  1  0  0  0  0
 18 30  2  0  0  0  0
 18 31  1  0  0  0  0
 19 21  2  0  0  0  0
 19 36  1  0  0  0  0
 20 22  2  0  0  0  0
 20 37  1  0  0  0  0
 21 45  1  0  0  0  0
 22 38  1  0  0  0  0
 23 84  1  0  0  0  0
 24 85  1  0  0  0  0
 25 27  2  0  0  0  0
 25 84  1  0  0  0  0
 26 86  1  0  0  0  0
 27 87  1  0  0  0  0
 28 68  2  0  0  0  0
 29 54  1  0  0  0  0
 29 67  1  0  0  0  0
 30 70  1  0  0  0  0
 30 73  1  0  0  0  0
 31 74  1  0  0  0  0
 31 79  2  0  0  0  0
 32 46  1  0  0  0  0
 32 75  1  0  0  0  0
 32 80  2  0  0  0  0
 33 64  1  0  0  0  0
 33 71  1  0  0  0  0
 33 81  2  0  0  0  0
 34 65  1  0  0  0  0
 34 76  1  0  0  0  0
 34 82  2  0  0  0  0
 35 72  1  0  0  0  0
 35 77  1  0  0  0  0
 35 83  2  0  0  0  0
 36 39  1  0  0  0  0
 37 46  1  0  0  0  0
 38 71  1  0  0  0  0
 39 41  1  0  0  0  0
 40 42  1  0  0  0  0
 40 43  1  0  0  0  0
 41 45  1  0  0  0  0
 42 47  1  0  0  0  0
 43 72  1  0  0  0  0
 44 47  1  0  0  0  0
 44 72  1  0  0  0  0
 45 75  1  0  0  0  0
 46 71  1  0  0  0  0
 47 70  1  0  0  0  0
 48 55  1  0  0  0  0
 49 65  1  0  0  0  0
 50 66  1  0  0  0  0
 51 66  1  0  0  0  0
 52 66  1  0  0  0  0
 53 78  1  0  0  0  0
 54 56  1  0  0  0  0
 55 61  1  0  0  0  0
 56 57  1  0  0  0  0
 57 58  1  0  0  0  0
 58 62  1  0  0  0  0
 59 60  1  0  0  0  0
 59 63  1  0  0  0  0
 60 69  1  0  0  0  0
 61 77  1  0  0  0  0
 62 77  1  0  0  0  0
 63 85  1  0  0  0  0
 64 66  1  0  0  0  0
 64 76  1  0  0  0  0
 65 78  1  0  0  0  0
 68 70  1  0  0  0  0
M  CHG  1  78   1
M  ISO  4  35 100  63 101  77 100  85 101
M  END
> <Batch ID>
0037

> <Smiles>
CCC[100N:0](CCCCCc1cn(CC[101CH2:1][101O:1]c2ccc3c(c2)CN(C(=O)C(NC(=O)C(C)NC)C(C)(C)C)C(C(=O)NC2CCCc4ccccc42)C3)cn1)[100C:0](=O)N1CCCC(n2nc(-c3ccc(Oc4ccc(F)cc4F)cc3)c(C(N)=O)c2N)C1

> <Shape>
0.220

> <Color>
0.071

> <Negative vol penalty>
0.000

$$$$

  -OEChem-04052316593D

 83 91  0     1  0  0  0  0  0999 V2000
  -14.4232  -23.2012   29.0341 C   0  0  0  0  0  0  0  0  0  0  0  0
  -15.4864  -22.4206   29.4764 C   0  0  0  0  0  0  0  0  0  0  0  0
  -23.0015   -9.8919   19.9817 C   0  0  0  0  0  0  0  0  0  0  0  0
  -23.7272   -9.9481   22.2855 C   0  0  0  0  0  0  0  0  0  0  0  0
  -14.4977  -23.8429   27.7986 C   0  0  0  0  0  0  0  0  0  0  0  0
  -16.6244  -22.2803   28.6828 C   0  0  0  0  0  0  0  0  0  0  0  0
  -23.7218  -21.4560   29.1962 C   0  0  0  0  0  0  0  0  0  0  0  0
  -22.2367   -8.7568   20.2503 C   0  0  0  0  0  0  0  0  0  0  0  0
  -22.9623   -8.8130   22.5541 C   0  0  0  0  0  0  0  0  0  0  0  0
  -24.7457  -20.6275   28.7392 C   0  0  0  0  0  0  0  0  0  0  0  0
  -23.2114   -5.4736   22.0882 C   0  0  0  0  0  0  0  0  0  0  0  0
  -23.8006   -4.4586   22.8420 C   0  0  0  0  0  0  0  0  0  0  0  0
  -24.7954  -21.8467   26.6582 C   0  0  0  0  0  0  0  0  0  0  0  0
  -30.0836  -18.4128   25.6414 C   0  0  0  0  0  0  0  0  0  0  0  0
  -22.0767   -4.7021   24.5171 C   0  0  0  0  0  0  0  0  0  0  0  0
  -23.7468  -10.4876   20.9993 C   0  0  0  0  0  0  0  0  0  0  0  0
  -24.1284  -13.0034   20.8186 C   0  0  0  0  0  0  0  0  0  0  0  0
  -15.6411  -23.7183   26.9937 C   0  0  0  0  0  0  0  0  0  0  0  0
  -23.2187  -22.4809   28.3820 C   0  0  0  0  0  0  0  0  0  0  0  0
  -16.7137  -22.9199   27.4347 C   0  0  0  0  0  0  0  0  0  0  0  0
  -23.7668  -22.6885   27.1082 C   0  0  0  0  0  0  0  0  0  0  0  0
  -29.1145  -19.3598   25.9534 C   0  0  0  0  0  0  0  0  0  0  0  0
  -27.8477  -19.2621   25.3886 C   0  0  0  0  0  0  0  0  0  0  0  0
  -22.2171   -8.2174   21.5364 C   0  0  0  0  0  0  0  0  0  0  0  0
  -25.2807  -20.8209   27.4689 C   0  0  0  0  0  0  0  0  0  0  0  0
  -22.0549   -6.1029   22.5488 C   0  0  0  0  0  0  0  0  0  0  0  0
  -23.2332   -4.0728   24.0564 C   0  0  0  0  0  0  0  0  0  0  0  0
  -21.4875   -5.7171   23.7633 C   0  0  0  0  0  0  0  0  0  0  0  0
  -24.5375  -11.6598   20.7224 C   0  0  0  0  0  0  0  0  0  0  0  0
  -29.7384  -17.3956   24.7661 C   0  0  0  0  0  0  0  0  0  0  0  0
  -27.6026  -18.2070   24.5246 C   0  0  0  0  0  0  0  0  0  0  0  0
  -25.2371  -13.7269   20.4527 C   0  0  0  0  0  0  0  0  0  0  0  0
  -22.8598  -13.5487   21.2045 C   0  0  0  0  0  0  0  0  0  0  0  0
  -20.3867  -23.1392   27.0973 C   0  0  0  0  0  0  0  0  0  0  0  0
  -21.8680  -25.8813   26.1977 C   0  0  0  0  0  0  0  0  0  0  0  0
  -24.7894  -27.5015   25.4997 C   0  0  0  0  0  0  0  0  0  0  0  0
  -30.7321  -14.6700   20.6983 C   0  0  0  0  0  0  0  0  0  0  0  0
  -15.6563  -24.3925   25.6447 C   0  0  0  0  0  0  0  0  0  0  0  0
  -22.1323  -23.3831   28.9000 C   0  0  0  0  0  0  0  0  0  0  0  0
  -23.2757  -23.7875   26.2030 C   0  0  0  0  0  0  0  0  0  0  0  0
  -17.0503  -24.4962   25.0313 C   0  0  0  0  0  0  0  0  0  0  0  0
  -29.5944  -12.2404   18.3574 C   0  0  0  0  0  0  0  0  0  0  0  0
  -17.7843  -23.1640   25.1456 C   0  0  0  0  0  0  0  0  0  0  0  0
  -28.1464  -11.9793   18.7758 C   0  0  0  0  0  0  0  0  0  0  0  0
  -30.4968  -12.4793   19.5660 C   0  0  0  0  0  0  0  0  0  0  0  0
  -28.5858  -13.2745   20.9038 C   0  0  0  0  0  0  0  0  0  0  0  0
  -17.9752  -22.7635   26.6135 C   0  0  1  0  0  0  0  0  0  0  0  0
  -21.3442  -24.0686   27.7881 C   0  0  1  0  0  0  0  0  0  0  0  0
  -27.6268  -13.0832   19.7164 C   0  0  2  0  0  0  0  0  0  0  0  0
  -29.4590  -20.4688   26.8916 C   0  0  0  0  0  0  0  0  0  0  0  0
  -26.2605  -18.0483   23.8880 C   0  0  0  0  0  0  0  0  0  0  0  0
  -25.6784  -29.7266   24.7542 C   0  0  0  0  0  0  0  0  0  0  0  0
  -20.9806  -25.2762   23.3417 C   0  0  0  0  0  0  0  0  0  0  0  0
  -22.6554  -26.9554   22.5397 C   0  0  0  0  0  0  0  0  0  0  0  0
  -20.7750  -27.6769   24.0115 C   0  0  0  0  0  0  0  0  0  0  0  0
  -26.3389  -27.8495   27.9971 C   0  0  0  0  0  0  0  0  0  0  0  0
  -26.7812  -20.2678   25.7087 C   0  0  0  0  0  0  0  0  0  1  0  0
  -30.7527  -16.3608   24.4095 C   0  0  0  0  0  0  0  0  0  0  0  0
  -31.6079  -16.7057   23.1747 C   0  0  0  0  0  0  0  0  0  0  0  0
  -30.8120  -16.8512   21.8795 C   0  0  0  0  0  0  0  0  0  0  0  0
  -22.6677  -26.3192   24.9945 C   0  0  1  0  0  0  0  0  0  0  0  0
  -25.3246  -28.8502   25.9456 C   0  0  2  0  0  0  0  0  0  0  0  0
  -21.7779  -26.5349   23.7379 C   0  0  0  0  0  0  0  0  0  0  0  0
  -25.8069  -11.5345   20.3261 N   0  0  0  0  0  0  0  0  0  0  0  0
  -28.5185  -17.2679   24.1977 N   0  0  0  0  0  0  0  0  0  0  0  0
  -26.2050  -12.8085   20.1701 N   0  0  0  0  0  0  0  0  0  0  0  0
  -22.2077  -24.6392   26.7523 N   0  0  0  0  0  0  0  0  0  0  0  0
  -29.9486  -13.5387   20.4163 N   0  0  0  0  0  0  0  0  0  0  0  0
  -25.4686  -15.0528   20.3482 N   0  0  0  0  0  0  0  0  0  0  0  0
  -21.8294  -12.6636   21.5498 N   0  0  0  0  0  0  0  0  0  0  0  0
  -19.0613  -23.5148   27.2053 N   0  0  0  0  0  0  0  0  0  0  0  0
  -23.4136  -27.5026   25.4088 N   0  0  0  0  0  0  0  0  0  0  0  0
  -30.1346  -15.6293   21.5065 N   0  0  0  0  0  0  0  0  0  0  0  0
  -26.5479  -28.6726   26.7781 N   0  3  0  0  0  0  0  0  0  0  0  0
  -22.6413  -14.7837   21.2260 O   0  0  0  0  0  0  0  0  0  0  0  0
  -20.8186  -22.1551   26.5086 O   0  0  0  0  0  0  0  0  0  0  0  0
  -20.9795  -26.6175   26.6338 O   0  0  0  0  0  0  0  0  0  0  0  0
  -25.5191  -26.5438   25.2528 O   0  0  0  0  0  0  0  0  0  0  0  0
  -31.8772  -14.8167   20.2577 O   0  0  0  0  0  0  0  0  0  0  0  0
  -21.4707   -7.1099   21.7989 O   0  0  0  0  0  0  0  0  0  0  0  0
  -26.2797  -20.0131   27.0202 O   0  0  0  0  0  0  0  0  0  1  0  0
  -23.7983   -3.0971   24.7795 F   0  0  0  0  0  0  0  0  0  0  0  0
  -20.3759   -6.3172   24.2105 F   0  0  0  0  0  0  0  0  0  0  0  0
  1  2  1  0  0  0  0
  1  5  2  0  0  0  0
  2  6  2  0  0  0  0
  3  8  2  0  0  0  0
  3 16  1  0  0  0  0
  4  9  1  0  0  0  0
  4 16  2  0  0  0  0
  5 18  1  0  0  0  0
  6 20  1  0  0  0  0
  7 10  2  0  0  0  0
  7 19  1  0  0  0  0
  8 24  1  0  0  0  0
  9 24  2  0  0  0  0
 10 25  1  0  0  0  0
 11 12  2  0  0  0  0
 11 26  1  0  0  0  0
 12 27  1  0  0  0  0
 13 21  1  0  0  0  0
 13 25  2  0  0  0  0
 14 22  2  0  0  0  0
 14 30  1  0  0  0  0
 15 27  2  0  0  0  0
 15 28  1  0  0  0  0
 16 29  1  0  0  0  0
 17 29  1  0  0  0  0
 17 32  2  0  0  0  0
 17 33  1  0  0  0  0
 18 20  2  0  0  0  0
 18 38  1  0  0  0  0
 19 21  2  0  0  0  0
 19 39  1  0  0  0  0
 20 47  1  0  0  0  0
 21 40  1  0  0  0  0
 22 23  1  0  0  0  0
 22 50  1  0  0  0  0
 23 31  2  0  0  0  0
 23 57  1  0  0  0  0
 24 80  1  0  0  0  0
 25 81  1  0  0  0  0
 26 28  2  0  0  0  0
 26 80  1  0  0  0  0
 27 82  1  0  0  0  0
 28 83  1  0  0  0  0
 29 64  2  0  0  0  0
 30 58  1  0  0  0  0
 30 65  2  0  0  0  0
 31 51  1  0  0  0  0
 31 65  1  0  0  0  0
 32 66  1  0  0  0  0
 32 69  1  0  0  0  0
 33 70  1  0  0  0  0
 33 75  2  0  0  0  0
 34 48  1  0  0  0  0
 34 71  1  0  0  0  0
 34 76  2  0  0  0  0
 35 61  1  0  0  0  0
 35 67  1  0  0  0  0
 35 77  2  0  0  0  0
 36 62  1  0  0  0  0
 36 72  1  0  0  0  0
 36 78  2  0  0  0  0
 37 68  1  0  0  0  0
 37 73  1  0  0  0  0
 37 79  2  0  0  0  0
 38 41  1  0  0  0  0
 39 48  1  0  0  0  0
 40 67  1  0  0  0  0
 41 43  1  0  0  0  0
 42 44  1  0  0  0  0
 42 45  1  0  0  0  0
 43 47  1  0  0  0  0
 44 49  1  0  0  0  0
 45 68  1  0  0  0  0
 46 49  1  0  0  0  0
 46 68  1  0  0  0  0
 47 71  1  0  0  0  0
 48 67  1  0  0  0  0
 49 66  1  0  0  0  0
 52 62  1  0  0  0  0
 53 63  1  0  0  0  0
 54 63  1  0  0  0  0
 55 63  1  0  0  0  0
 56 74  1  0  0  0  0
 57 81  1  0  0  0  0
 58 59  1  0  0  0  0
 59 60  1  0  0  0  0
 60 73  1  0  0  0  0
 61 63  1  0  0  0  0
 61 72  1  0  0  0  0
 62 74  1  0  0  0  0
 64 66  1  0  0  0  0
M  CHG  1  74   1
M  ISO  4  37 100  57 101  73 100  81 101
M  END
> <Batch ID>
0037

> <Smiles>
CNC(C)C(=O)NC(C(=O)N1Cc2cc([101O:1][101CH2:1]c3c(C)cc(CCC[100NH:0][100C:0](=O)N4CCCC(n5nc(-c6ccc(Oc7ccc(F)cc7F)cc6)c(C(N)=O)c5N)C4)nc3C)ccc2CC1C(=O)NC1CCCc2ccccc21)C(C)(C)C

> <Shape>
0.192

> <Color>
0.202

> <Negative vol penalty>
0.000

$$$$

  -OEChem-04052316593D

 91 99  0     1  0  0  0  0  0999 V2000
  -24.7148  -21.5909   26.6351 C   0  0  0  0  0  0  0  0  0  0  0  0
  -26.0293  -22.0218   26.4874 C   0  0  0  0  0  0  0  0  0  0  0  0
  -23.0007   -9.8944   19.9858 C   0  0  0  0  0  0  0  0  0  0  0  0
  -23.7591   -9.9379   22.2792 C   0  0  0  0  0  0  0  0  0  0  0  0
  -23.7328  -22.0371   25.7517 C   0  0  0  0  0  0  0  0  0  0  0  0
  -26.3627  -22.8984   25.4555 C   0  0  0  0  0  0  0  0  0  0  0  0
  -29.3767  -26.6628   27.0019 C   0  0  0  0  0  0  0  0  0  0  0  0
  -22.2430   -8.7554   20.2579 C   0  0  0  0  0  0  0  0  0  0  0  0
  -23.0014   -8.7988   22.5514 C   0  0  0  0  0  0  0  0  0  0  0  0
  -30.7276  -26.3659   27.1765 C   0  0  0  0  0  0  0  0  0  0  0  0
  -23.2532   -5.4632   22.0602 C   0  0  0  0  0  0  0  0  0  0  0  0
  -23.8560   -4.4451   22.7989 C   0  0  0  0  0  0  0  0  0  0  0  0
  -31.2157  -27.3526   25.0300 C   0  0  0  0  0  0  0  0  0  0  0  0
  -22.1557   -4.6727   24.5001 C   0  0  0  0  0  0  0  0  0  0  0  0
  -33.0927  -20.9611   24.9326 C   0  0  0  0  0  0  0  0  0  0  0  0
  -23.7588  -10.4857   20.9964 C   0  0  0  0  0  0  0  0  0  0  0  0
  -24.1307  -13.0037   20.8267 C   0  0  0  0  0  0  0  0  0  0  0  0
  -24.0525  -22.9272   24.7143 C   0  0  0  0  0  0  0  0  0  0  0  0
  -28.9328  -27.2980   25.8332 C   0  0  0  0  0  0  0  0  0  0  0  0
  -25.3843  -23.3559   24.5566 C   0  0  0  0  0  0  0  0  0  0  0  0
  -29.8589  -27.6587   24.8441 C   0  0  0  0  0  0  0  0  0  0  0  0
  -31.8770  -21.1941   24.3226 C   0  0  0  0  0  0  0  0  0  0  0  0
  -22.2434   -8.2076   21.5407 C   0  0  0  0  0  0  0  0  0  0  0  0
  -31.6470  -26.7082   26.1892 C   0  0  0  0  0  0  0  0  0  0  0  0
  -22.1017   -6.0861   22.5415 C   0  0  0  0  0  0  0  0  0  0  0  0
  -23.3073   -4.0498   24.0188 C   0  0  0  0  0  0  0  0  0  0  0  0
  -21.5529   -5.6908   23.7614 C   0  0  0  0  0  0  0  0  0  0  0  0
  -24.5422  -11.6620   20.7158 C   0  0  0  0  0  0  0  0  0  0  0  0
  -31.6084  -22.5112   24.0104 C   0  0  0  0  0  0  0  0  0  0  0  0
  -25.2319  -13.7328   20.4496 C   0  0  0  0  0  0  0  0  0  0  0  0
  -33.6071  -23.1743   24.8665 C   0  0  0  0  0  0  0  0  0  0  0  0
  -22.8662  -13.5428   21.2342 C   0  0  0  0  0  0  0  0  0  0  0  0
  -26.9518  -26.5212   23.4719 C   0  0  0  0  0  0  0  0  0  0  0  0
  -30.7473  -14.6255   20.7208 C   0  0  0  0  0  0  0  0  0  0  0  0
  -27.4901  -29.5803   22.5366 C   0  0  0  0  0  0  0  0  0  0  0  0
  -29.5390  -32.3089   22.5923 C   0  0  0  0  0  0  0  0  0  0  0  0
  -22.9658  -23.3449   23.7555 C   0  0  0  0  0  0  0  0  0  0  0  0
  -27.4758  -27.6353   25.6719 C   0  0  0  0  0  0  0  0  0  0  0  0
  -29.4363  -28.3602   23.5800 C   0  0  0  0  0  0  0  0  0  0  0  0
  -23.3304  -24.5669   22.9165 C   0  0  0  0  0  0  0  0  0  0  0  0
  -29.5568  -12.2940   18.2741 C   0  0  0  0  0  0  0  0  0  0  0  0
  -24.7372  -24.4217   22.3450 C   0  0  0  0  0  0  0  0  0  0  0  0
  -28.1226  -12.0090   18.7178 C   0  0  0  0  0  0  0  0  0  0  0  0
  -30.4789  -12.5094   19.4701 C   0  0  0  0  0  0  0  0  0  0  0  0
  -28.5835  -13.2943   20.8533 C   0  0  0  0  0  0  0  0  0  0  0  0
  -25.7805  -24.3260   23.4648 C   0  0  1  0  0  0  0  0  0  0  0  0
  -27.0636  -27.8223   24.2150 C   0  0  1  0  0  0  0  0  0  0  0  0
  -27.6127  -13.1009   19.6749 C   0  0  2  0  0  0  0  0  0  0  0  0
  -26.3296  -23.2576   16.8878 C   0  0  0  0  0  0  0  0  0  0  0  0
  -29.7292  -34.6481   21.7036 C   0  0  0  0  0  0  0  0  0  0  0  0
  -28.2655  -28.4750   19.8003 C   0  0  0  0  0  0  0  0  0  0  0  0
  -29.3278  -30.6832   19.2868 C   0  0  0  0  0  0  0  0  0  0  0  0
  -26.8765  -30.5536   19.7304 C   0  0  0  0  0  0  0  0  0  0  0  0
  -29.5575  -33.4663   25.3161 C   0  0  0  0  0  0  0  0  0  0  0  0
  -30.9366  -20.0820   24.0324 C   0  0  0  0  0  0  0  0  0  0  0  0
  -30.3230  -22.8826   23.3475 C   0  0  0  0  0  0  0  0  0  0  0  0
  -34.5788  -24.2862   25.1711 C   0  0  0  0  0  0  0  0  0  0  0  0
  -30.1304  -15.6455   21.6445 C   0  0  0  0  0  0  0  0  0  0  0  0
  -27.6244  -22.8073   17.5454 C   0  0  0  0  0  0  0  0  0  0  0  0
  -31.5104  -18.9756   23.1240 C   0  0  0  0  0  0  0  0  0  0  0  0
  -30.2853  -22.6027   21.8347 C   0  0  0  0  0  0  0  0  0  0  0  0
  -34.6070  -24.6927   26.6461 C   0  0  0  0  0  0  0  0  0  0  0  0
  -31.1113  -16.7742   21.9466 C   0  0  0  0  0  0  0  0  0  0  0  0
  -27.6496  -23.1606   19.0323 C   0  0  0  0  0  0  0  0  0  0  0  0
  -30.5128  -17.8404   22.8703 C   0  0  0  0  0  0  0  0  0  0  0  0
  -28.9785  -23.0590   21.1784 C   0  0  0  0  0  0  0  0  0  0  0  0
  -28.9673  -22.7359   19.6827 C   0  0  0  0  0  0  0  0  0  0  0  0
  -33.2846  -25.2688   27.1390 C   0  0  0  0  0  0  0  0  0  1  0  0
  -28.4999  -30.2642   21.6469 C   0  0  1  0  0  0  0  0  0  0  0  0
  -29.2550  -33.7766   22.8562 C   0  0  2  0  0  0  0  0  0  0  0  0
  -28.2504  -29.9791   20.1390 C   0  0  0  0  0  0  0  0  0  0  0  0
  -33.9851  -21.9312   25.2204 N   0  0  0  0  0  0  0  0  0  0  0  0
  -25.8061  -11.5429   20.3006 N   0  0  0  0  0  0  0  0  0  0  0  0
  -32.4538  -23.5304   24.2691 N   0  0  0  0  0  0  0  0  0  0  0  0
  -26.1983  -12.8191   20.1472 N   0  0  0  0  0  0  0  0  0  0  0  0
  -28.0000  -28.6628   23.4661 N   0  0  0  0  0  0  0  0  0  0  0  0
  -29.9485  -13.5381   20.3666 N   0  0  0  0  0  0  0  0  0  0  0  0
  -25.4582  -15.0600   20.3504 N   0  0  0  0  0  0  0  0  0  0  0  0
  -21.8433  -12.6525   21.5885 N   0  0  0  0  0  0  0  0  0  0  0  0
  -26.0453  -25.6352   24.0220 N   0  0  0  0  0  0  0  0  0  0  0  0
  -28.4642  -31.6790   22.0014 N   0  0  0  0  0  0  0  0  0  0  0  0
  -29.9470  -34.2229   24.0984 N   0  3  0  0  0  0  0  0  0  0  0  0
  -22.6445  -14.7770   21.2669 O   0  0  0  0  0  0  0  0  0  0  0  0
  -27.6361  -26.3356   22.4724 O   0  0  0  0  0  0  0  0  0  0  0  0
  -31.9036  -14.7935   20.3247 O   0  0  0  0  0  0  0  0  0  0  0  0
  -26.2937  -29.8554   22.4163 O   0  0  0  0  0  0  0  0  0  0  0  0
  -30.6088  -31.7756   22.8781 O   0  0  0  0  0  0  0  0  0  0  0  0
  -21.5039   -7.0962   21.8066 O   0  0  0  0  0  0  0  0  0  0  0  0
  -32.9661  -26.4191   26.3568 O   0  0  0  0  0  0  0  0  0  1  0  0
  -23.8854   -3.0710   24.7273 F   0  0  0  0  0  0  0  0  0  0  0  0
  -20.4461   -6.2847   24.2284 F   0  0  0  0  0  0  0  0  0  0  0  0
  1  2  1  0  0  0  0
  1  5  2  0  0  0  0
  2  6  2  0  0  0  0
  3  8  2  0  0  0  0
  3 16  1  0  0  0  0
  4  9  1  0  0  0  0
  4 16  2  0  0  0  0
  5 18  1  0  0  0  0
  6 20  1  0  0  0  0
  7 10  2  0  0  0  0
  7 19  1  0  0  0  0
  8 23  1  0  0  0  0
  9 23  2  0  0  0  0
 10 24  1  0  0  0  0
 11 12  2  0  0  0  0
 11 25  1  0  0  0  0
 12 26  1  0  0  0  0
 13 21  1  0  0  0  0
 13 24  2  0  0  0  0
 14 26  2  0  0  0  0
 14 27  1  0  0  0  0
 15 22  1  0  0  0  0
 15 72  2  0  0  0  0
 16 28  1  0  0  0  0
 17 28  1  0  0  0  0
 17 30  2  0  0  0  0
 17 32  1  0  0  0  0
 18 20  2  0  0  0  0
 18 37  1  0  0  0  0
 19 21  2  0  0  0  0
 19 38  1  0  0  0  0
 20 46  1  0  0  0  0
 21 39  1  0  0  0  0
 22 29  2  0  0  0  0
 22 55  1  0  0  0  0
 23 88  1  0  0  0  0
 24 89  1  0  0  0  0
 25 27  2  0  0  0  0
 25 88  1  0  0  0  0
 26 90  1  0  0  0  0
 27 91  1  0  0  0  0
 28 73  2  0  0  0  0
 29 56  1  0  0  0  0
 29 74  1  0  0  0  0
 30 75  1  0  0  0  0
 30 78  1  0  0  0  0
 31 57  1  0  0  0  0
 31 72  1  0  0  0  0
 31 74  2  0  0  0  0
 32 79  1  0  0  0  0
 32 83  2  0  0  0  0
 33 47  1  0  0  0  0
 33 80  1  0  0  0  0
 33 84  2  0  0  0  0
 34 58  1  0  0  0  0
 34 77  1  0  0  0  0
 34 85  2  0  0  0  0
 35 69  1  0  0  0  0
 35 76  1  0  0  0  0
 35 86  2  0  0  0  0
 36 70  1  0  0  0  0
 36 81  1  0  0  0  0
 36 87  2  0  0  0  0
 37 40  1  0  0  0  0
 38 47  1  0  0  0  0
 39 76  1  0  0  0  0
 40 42  1  0  0  0  0
 41 43  1  0  0  0  0
 41 44  1  0  0  0  0
 42 46  1  0  0  0  0
 43 48  1  0  0  0  0
 44 77  1  0  0  0  0
 45 48  1  0  0  0  0
 45 77  1  0  0  0  0
 46 80  1  0  0  0  0
 47 76  1  0  0  0  0
 48 75  1  0  0  0  0
 49 59  1  0  0  0  0
 50 70  1  0  0  0  0
 51 71  1  0  0  0  0
 52 71  1  0  0  0  0
 53 71  1  0  0  0  0
 54 82  1  0  0  0  0
 55 60  1  0  0  0  0
 56 61  1  0  0  0  0
 57 62  1  0  0  0  0
 58 63  1  0  0  0  0
 59 64  1  0  0  0  0
 60 65  1  0  0  0  0
 61 66  1  0  0  0  0
 62 68  1  0  0  0  0
 63 65  1  0  0  0  0
 64 67  1  0  0  0  0
 66 67  1  0  0  0  0
 68 89  1  0  0  0  0
 69 71  1  0  0  0  0
 69 81  1  0  0  0  0
 70 82  1  0  0  0  0
 73 75  1  0  0  0  0
M  CHG  1  82   1
M  ISO  4  34 100  58 100  68 101  89 101
M  END
> <Batch ID>
0037

> <Smiles>
CCCCCCCc1nc(CC[101CH2:1][101O:1]c2ccc3c(c2)CN(C(=O)C(NC(=O)C(C)NC)C(C)(C)C)C(C(=O)NC2CCCc4ccccc42)C3)ncc1CCCC[100CH2:0][100C:0](=O)N1CCCC(n2nc(-c3ccc(Oc4ccc(F)cc4F)cc3)c(C(N)=O)c2N)C1

> <Shape>
0.214

> <Color>
0.184

> <Negative vol penalty>
0.000

$$$$

  -OEChem-04052316593D

 86 94  0     1  0  0  0  0  0999 V2000
  -21.7478  -11.9363   20.6102 C   0  0  0  0  0  0  0  0  0  0  0  0
  -21.6002  -13.2249   21.1135 C   0  0  0  0  0  0  0  0  0  0  0  0
  -25.0403  -28.5237   19.4437 C   0  0  0  0  0  0  0  0  0  0  0  0
  -25.8565  -26.9292   21.0649 C   0  0  0  0  0  0  0  0  0  0  0  0
  -23.0206  -11.4386   20.3341 C   0  0  0  0  0  0  0  0  0  0  0  0
  -22.7254  -14.0160   21.3421 C   0  0  0  0  0  0  0  0  0  0  0  0
  -23.1562  -20.0874   20.6648 C   0  0  0  0  0  0  0  0  0  0  0  0
  -26.2992  -29.1227   19.3990 C   0  0  0  0  0  0  0  0  0  0  0  0
  -27.1155  -27.5281   21.0202 C   0  0  0  0  0  0  0  0  0  0  0  0
  -23.0822  -21.1404   21.5755 C   0  0  0  0  0  0  0  0  0  0  0  0
  -30.6417  -28.4125   21.0634 C   0  0  0  0  0  0  0  0  0  0  0  0
  -31.7557  -27.5770   20.9829 C   0  0  0  0  0  0  0  0  0  0  0  0
  -25.4895  -21.1694   21.7286 C   0  0  0  0  0  0  0  0  0  0  0  0
  -22.2347  -23.0237   25.4794 C   0  0  0  0  0  0  0  0  0  0  0  0
  -23.7992  -21.7761   26.8330 C   0  0  0  0  0  0  0  0  0  0  0  0
  -30.9274  -26.6731   18.9011 C   0  0  0  0  0  0  0  0  0  0  0  0
  -24.8190  -27.4269   20.2767 C   0  0  0  0  0  0  0  0  0  0  0  0
  -23.0505  -25.7512   19.5202 C   0  0  0  0  0  0  0  0  0  0  0  0
  -24.1614  -12.2276   20.5503 C   0  0  0  0  0  0  0  0  0  0  0  0
  -24.3991  -19.5594   20.2867 C   0  0  0  0  0  0  0  0  0  0  0  0
  -24.0148  -13.5279   21.0699 C   0  0  0  0  0  0  0  0  0  0  0  0
  -25.5767  -20.1114   20.8109 C   0  0  0  0  0  0  0  0  0  0  0  0
  -23.5467  -22.7450   25.8618 C   0  0  0  0  0  0  0  0  0  0  0  0
  -21.1750  -22.3336   26.0681 C   0  0  0  0  0  0  0  0  0  0  0  0
  -22.7396  -21.0859   27.4217 C   0  0  0  0  0  0  0  0  0  0  0  0
  -27.3368  -28.6249   20.1872 C   0  0  0  0  0  0  0  0  0  0  0  0
  -24.2487  -21.6797   22.1098 C   0  0  0  0  0  0  0  0  0  0  0  0
  -29.6705  -28.3783   20.0627 C   0  0  0  0  0  0  0  0  0  0  0  0
  -31.8986  -26.7073   19.9018 C   0  0  0  0  0  0  0  0  0  0  0  0
  -29.8134  -27.5086   18.9816 C   0  0  0  0  0  0  0  0  0  0  0  0
  -21.4275  -21.3647   27.0392 C   0  0  0  0  0  0  0  0  0  0  0  0
  -23.5186  -26.8081   20.3238 C   0  0  0  0  0  0  0  0  0  0  0  0
  -21.7657  -25.5332   19.9539 C   0  0  0  0  0  0  0  0  0  0  0  0
  -23.7176  -25.0309   18.4753 C   0  0  0  0  0  0  0  0  0  0  0  0
  -25.8023  -16.7191   20.5466 C   0  0  0  0  0  0  0  0  0  0  0  0
  -28.0977  -18.1217   18.7338 C   0  0  0  0  0  0  0  0  0  0  0  0
  -29.6133  -20.9970   17.6934 C   0  0  0  0  0  0  0  0  0  0  0  0
  -18.9817  -26.5870   25.1491 C   0  0  0  0  0  0  0  0  0  0  0  0
  -25.5194  -11.6292   20.2814 C   0  0  0  0  0  0  0  0  0  0  0  0
  -24.4631  -18.4411   19.2828 C   0  0  0  0  0  0  0  0  0  0  0  0
  -26.9366  -19.5939   20.4220 C   0  0  0  0  0  0  0  0  0  0  0  0
  -26.6365  -12.6664   20.1986 C   0  0  0  0  0  0  0  0  0  0  0  0
  -18.0469  -27.7999   21.9348 C   0  0  0  0  0  0  0  0  0  0  0  0
  -26.5343  -13.6546   21.3561 C   0  0  0  0  0  0  0  0  0  0  0  0
  -19.3010  -27.5879   21.0849 C   0  0  0  0  0  0  0  0  0  0  0  0
  -18.3964  -28.2034   23.3656 C   0  0  0  0  0  0  0  0  0  0  0  0
  -20.5851  -27.0822   23.2048 C   0  0  0  0  0  0  0  0  0  0  0  0
  -25.2096  -14.4256   21.3078 C   0  0  1  0  0  0  0  0  0  0  0  0
  -25.7599  -17.6414   19.3612 C   0  0  1  0  0  0  0  0  0  0  0  0
  -20.2848  -26.6195   21.7689 C   0  0  2  0  0  0  0  0  0  0  0  0
  -23.7521  -20.6616   29.6907 C   0  0  0  0  0  0  0  0  0  0  0  0
  -23.9013  -18.8993   27.8942 C   0  0  0  0  0  0  0  0  0  0  0  0
  -31.4855  -21.8225   16.2405 C   0  0  0  0  0  0  0  0  0  0  0  0
  -30.1167  -17.2774   20.8600 C   0  0  0  0  0  0  0  0  0  0  0  0
  -31.7386  -18.9058   19.8669 C   0  0  0  0  0  0  0  0  0  0  0  0
  -30.9026  -16.9916   18.5031 C   0  0  0  0  0  0  0  0  0  0  0  0
  -27.7547  -22.5141   15.9606 C   0  0  0  0  0  0  0  0  0  0  0  0
  -24.6934  -23.4917   25.2247 C   0  0  0  0  0  0  0  0  0  0  0  0
  -19.7854  -22.6655   25.6275 C   0  0  0  0  0  0  0  0  0  0  0  0
  -19.0192  -23.5924   26.5894 C   0  0  0  0  0  0  0  0  0  0  0  0
  -19.7037  -24.9321   26.8518 C   0  0  0  0  0  0  0  0  0  0  0  0
  -25.2173  -22.7929   23.9749 C   0  0  0  0  0  0  0  0  0  1  0  0
  -23.0573  -20.0562   28.4580 C   0  0  0  0  0  0  0  0  0  0  0  0
  -29.3483  -18.9174   19.0199 C   0  0  1  0  0  0  0  0  0  0  0  0
  -30.0040  -21.4862   16.3105 C   0  0  2  0  0  0  0  0  0  0  0  0
  -30.5010  -18.0318   19.5715 C   0  0  0  0  0  0  0  0  0  0  0  0
  -22.6053  -27.2322   21.2014 N   0  0  0  0  0  0  0  0  0  0  0  0
  -21.5505  -26.4378   20.9518 N   0  0  0  0  0  0  0  0  0  0  0  0
  -26.9467  -18.4954   19.4419 N   0  0  0  0  0  0  0  0  0  0  0  0
  -19.3312  -27.2434   23.9575 N   0  0  0  0  0  0  0  0  0  0  0  0
  -20.8102  -24.6580   19.5752 N   0  0  0  0  0  0  0  0  0  0  0  0
  -25.0362  -25.3836   18.1572 N   0  0  0  0  0  0  0  0  0  0  0  0
  -25.2677  -15.4679   20.3055 N   0  0  0  0  0  0  0  0  0  0  0  0
  -29.6748  -19.6226   17.7852 N   0  0  0  0  0  0  0  0  0  0  0  0
  -19.9217  -25.6886   25.6390 N   0  0  0  0  0  0  0  0  0  0  0  0
  -29.2276  -22.7074   15.9545 N   0  3  0  0  0  0  0  0  0  0  0  0
  -23.1551  -24.1130   17.8313 O   0  0  0  0  0  0  0  0  0  0  0  0
  -26.2857  -17.1130   21.6016 O   0  0  0  0  0  0  0  0  0  0  0  0
  -28.1387  -17.2071   17.9071 O   0  0  0  0  0  0  0  0  0  0  0  0
  -29.2898  -21.7582   18.6024 O   0  0  0  0  0  0  0  0  0  0  0  0
  -17.9090  -26.7829   25.7304 O   0  0  0  0  0  0  0  0  0  0  0  0
  -28.5654  -29.2090   20.1437 O   0  0  0  0  0  0  0  0  0  0  0  0
  -24.1793  -22.7071   22.9994 O   0  0  0  0  0  0  0  0  0  1  0  0
  -32.9692  -25.9062   19.8238 F   0  0  0  0  0  0  0  0  0  0  0  0
  -28.8842  -27.4721   18.0166 F   0  0  0  0  0  0  0  0  0  0  0  0
  -20.1119  -20.5081   27.7703 Cl  0  0  0  0  0  0  0  0  0  0  0  0
  1  2  1  0  0  0  0
  1  5  2  0  0  0  0
  2  6  2  0  0  0  0
  3  8  2  0  0  0  0
  3 17  1  0  0  0  0
  4  9  1  0  0  0  0
  4 17  2  0  0  0  0
  5 19  1  0  0  0  0
  6 21  1  0  0  0  0
  7 10  2  0  0  0  0
  7 20  1  0  0  0  0
  8 26  1  0  0  0  0
  9 26  2  0  0  0  0
 10 27  1  0  0  0  0
 11 12  2  0  0  0  0
 11 28  1  0  0  0  0
 12 29  1  0  0  0  0
 13 22  1  0  0  0  0
 13 27  2  0  0  0  0
 14 23  1  0  0  0  0
 14 24  2  0  0  0  0
 15 23  2  0  0  0  0
 15 25  1  0  0  0  0
 16 29  2  0  0  0  0
 16 30  1  0  0  0  0
 17 32  1  0  0  0  0
 18 32  1  0  0  0  0
 18 33  2  0  0  0  0
 18 34  1  0  0  0  0
 19 21  2  0  0  0  0
 19 39  1  0  0  0  0
 20 22  2  0  0  0  0
 20 40  1  0  0  0  0
 21 48  1  0  0  0  0
 22 41  1  0  0  0  0
 23 58  1  0  0  0  0
 24 31  1  0  0  0  0
 24 59  1  0  0  0  0
 25 31  2  0  0  0  0
 25 63  1  0  0  0  0
 26 82  1  0  0  0  0
 27 83  1  0  0  0  0
 28 30  2  0  0  0  0
 28 82  1  0  0  0  0
 29 84  1  0  0  0  0
 30 85  1  0  0  0  0
 31 86  1  0  0  0  0
 32 67  2  0  0  0  0
 33 68  1  0  0  0  0
 33 71  1  0  0  0  0
 34 72  1  0  0  0  0
 34 77  2  0  0  0  0
 35 49  1  0  0  0  0
 35 73  1  0  0  0  0
 35 78  2  0  0  0  0
 36 64  1  0  0  0  0
 36 69  1  0  0  0  0
 36 79  2  0  0  0  0
 37 65  1  0  0  0  0
 37 74  1  0  0  0  0
 37 80  2  0  0  0  0
 38 70  1  0  0  0  0
 38 75  1  0  0  0  0
 38 81  2  0  0  0  0
 39 42  1  0  0  0  0
 40 49  1  0  0  0  0
 41 69  1  0  0  0  0
 42 44  1  0  0  0  0
 43 45  1  0  0  0  0
 43 46  1  0  0  0  0
 44 48  1  0  0  0  0
 45 50  1  0  0  0  0
 46 70  1  0  0  0  0
 47 50  1  0  0  0  0
 47 70  1  0  0  0  0
 48 73  1  0  0  0  0
 49 69  1  0  0  0  0
 50 68  1  0  0  0  0
 51 63  1  0  0  0  0
 52 63  1  0  0  0  0
 53 65  1  0  0  0  0
 54 66  1  0  0  0  0
 55 66  1  0  0  0  0
 56 66  1  0  0  0  0
 57 76  1  0  0  0  0
 58 62  1  0  0  0  0
 59 60  1  0  0  0  0
 60 61  1  0  0  0  0
 61 75  1  0  0  0  0
 62 83  1  0  0  0  0
 64 66  1  0  0  0  0
 64 74  1  0  0  0  0
 65 76  1  0  0  0  0
 67 68  1  0  0  0  0
M  CHG  1  76   1
M  ISO  4  38 100  62 101  75 100  83 101
M  END
> <Batch ID>
0037

> <Smiles>
CNC(C)C(=O)NC(C(=O)N1Cc2cc([101O:1][101CH2:1]Cc3cc(CCC[100NH:0][100C:0](=O)N4CCCC(n5nc(-c6ccc(Oc7ccc(F)cc7F)cc6)c(C(N)=O)c5N)C4)c(Cl)c(C(C)C)c3)ccc2CC1C(=O)NC1CCCc2ccccc21)C(C)(C)C

> <Shape>
0.195

> <Color>
0.075

> <Negative vol penalty>
0.000

$$$$

  -OEChem-04052316593D

 83 92  0     1  0  0  0  0  0999 V2000
  -21.2793  -22.9827   22.0221 C   0  0  0  0  0  0  0  0  0  0  0  0
  -22.5466  -22.4125   22.0871 C   0  0  0  0  0  0  0  0  0  0  0  0
  -23.0313  -30.2924   20.0907 C   0  0  0  0  0  0  0  0  0  0  0  0
  -23.1294  -29.1548   22.2199 C   0  0  0  0  0  0  0  0  0  0  0  0
  -20.1568  -22.2233   22.3496 C   0  0  0  0  0  0  0  0  0  0  0  0
  -22.6922  -21.0827   22.4808 C   0  0  0  0  0  0  0  0  0  0  0  0
  -25.9190  -18.5259   19.5321 C   0  0  0  0  0  0  0  0  0  0  0  0
  -21.8358  -30.9018   20.4714 C   0  0  0  0  0  0  0  0  0  0  0  0
  -21.9339  -29.7642   22.6006 C   0  0  0  0  0  0  0  0  0  0  0  0
  -27.2806  -18.7319   19.7499 C   0  0  0  0  0  0  0  0  0  0  0  0
  -18.6293  -29.3453   22.0216 C   0  0  0  0  0  0  0  0  0  0  0  0
  -17.6601  -28.5474   22.6296 C   0  0  0  0  0  0  0  0  0  0  0  0
  -27.3835  -16.6780   21.0108 C   0  0  0  0  0  0  0  0  0  0  0  0
  -17.7502  -29.9407   24.6014 C   0  0  0  0  0  0  0  0  0  0  0  0
  -30.3791  -20.1559   23.8531 C   0  0  0  0  0  0  0  0  0  0  0  0
  -23.6781  -29.4189   20.9650 C   0  0  0  0  0  0  0  0  0  0  0  0
  -26.2179  -29.2767   20.7729 C   0  0  0  0  0  0  0  0  0  0  0  0
  -20.2879  -20.8808   22.7382 C   0  0  0  0  0  0  0  0  0  0  0  0
  -25.2761  -17.3980   20.0621 C   0  0  0  0  0  0  0  0  0  0  0  0
  -21.5705  -20.3051   22.8151 C   0  0  0  0  0  0  0  0  0  0  0  0
  -26.0143  -16.4586   20.7961 C   0  0  0  0  0  0  0  0  0  0  0  0
  -21.2871  -30.6377   21.7263 C   0  0  0  0  0  0  0  0  0  0  0  0
  -28.0125  -17.8094   20.4918 C   0  0  0  0  0  0  0  0  0  0  0  0
  -19.1590  -30.4408   22.7035 C   0  0  0  0  0  0  0  0  0  0  0  0
  -17.2205  -28.8451   23.9195 C   0  0  0  0  0  0  0  0  0  0  0  0
  -18.7194  -30.7385   23.9934 C   0  0  0  0  0  0  0  0  0  0  0  0
  -24.9129  -28.7886   20.5721 C   0  0  0  0  0  0  0  0  0  0  0  0
  -30.0777  -21.4950   23.9959 C   0  0  0  0  0  0  0  0  0  0  0  0
  -30.7541  -19.7602   22.5855 C   0  0  0  0  0  0  0  0  0  0  0  0
  -27.0319  -28.3165   20.2234 C   0  0  0  0  0  0  0  0  0  0  0  0
  -30.5140  -21.8791   21.7984 C   0  0  0  0  0  0  0  0  0  0  0  0
  -26.6553  -30.4894   21.4003 C   0  0  0  0  0  0  0  0  0  0  0  0
  -22.9155  -16.9306   22.1388 C   0  0  0  0  0  0  0  0  0  0  0  0
  -23.2735  -13.8305   21.2539 C   0  0  0  0  0  0  0  0  0  0  0  0
  -25.2929  -11.4004   19.9640 C   0  0  0  0  0  0  0  0  0  0  0  0
  -28.4171  -22.9641   19.4630 C   0  0  0  0  0  0  0  0  0  0  0  0
  -19.0494  -20.1137   23.1283 C   0  0  0  0  0  0  0  0  0  0  0  0
  -23.8124  -17.1765   19.7955 C   0  0  0  0  0  0  0  0  0  0  0  0
  -25.3755  -15.2210   21.3695 C   0  0  0  0  0  0  0  0  0  0  0  0
  -19.2584  -18.6023   23.1749 C   0  0  0  0  0  0  0  0  0  0  0  0
  -25.9203  -24.3258   17.3209 C   0  0  0  0  0  0  0  0  0  0  0  0
  -20.5442  -18.2639   23.9225 C   0  0  0  0  0  0  0  0  0  0  0  0
  -28.4959  -21.3569   26.0337 C   0  0  0  0  0  0  0  0  0  0  0  0
  -28.3529  -22.7350   25.4675 C   0  0  0  0  0  0  0  0  0  0  0  0
  -25.5392  -25.6447   17.9955 C   0  0  0  0  0  0  0  0  0  0  0  0
  -26.2229  -23.2346   18.3455 C   0  0  0  0  0  0  0  0  0  0  0  0
  -26.8501  -24.9176   20.0330 C   0  0  0  0  0  0  0  0  0  0  0  0
  -21.7672  -18.8585   23.2138 C   0  0  1  0  0  0  0  0  0  0  0  0
  -29.6629  -22.0038   25.3353 C   0  0  0  0  0  0  0  0  0  0  0  0
  -23.1516  -16.2561   20.8171 C   0  0  1  0  0  0  0  0  0  0  0  0
  -26.5903  -26.0640   19.0408 C   0  0  2  0  0  0  0  0  0  0  0  0
  -25.3182   -8.9560   19.3970 C   0  0  0  0  0  0  0  0  0  0  0  0
  -23.5624  -13.1493   24.2140 C   0  0  0  0  0  0  0  0  0  0  0  0
  -24.5124  -10.9332   23.5398 C   0  0  0  0  0  0  0  0  0  0  0  0
  -22.1766  -11.5329   22.9020 C   0  0  0  0  0  0  0  0  0  0  0  0
  -25.7833  -11.9517   17.0979 C   0  0  0  0  0  0  0  0  0  0  0  0
  -31.1028  -18.3140   22.3301 C   0  0  0  0  0  0  0  0  0  0  0  0
  -30.5888  -22.8360   20.6573 C   0  0  0  0  0  0  0  0  0  0  0  0
  -29.8887  -17.4889   21.9177 C   0  0  0  0  0  0  0  0  0  1  0  0
  -24.1105  -12.6707   21.7368 C   0  0  1  0  0  0  0  0  0  0  0  0
  -25.0551  -10.3625   18.8820 C   0  0  2  0  0  0  0  0  0  0  0  0
  -23.6024  -12.0957   23.0891 C   0  0  0  0  0  0  0  0  0  0  0  0
  -24.8941  -27.6101   19.9438 N   0  0  0  0  0  0  0  0  0  0  0  0
  -30.1348  -22.3879   22.9862 N   0  0  0  0  0  0  0  0  0  0  0  0
  -30.8325  -20.5982   21.5310 N   0  0  0  0  0  0  0  0  0  0  0  0
  -26.1974  -27.3496   19.7450 N   0  0  0  0  0  0  0  0  0  0  0  0
  -23.9405  -15.0524   21.0869 N   0  0  0  0  0  0  0  0  0  0  0  0
  -27.2280  -23.6952   19.3065 N   0  0  0  0  0  0  0  0  0  0  0  0
  -28.3730  -28.2136   20.1073 N   0  0  0  0  0  0  0  0  0  0  0  0
  -25.6869  -31.3642   21.9114 N   0  0  0  0  0  0  0  0  0  0  0  0
  -22.1215  -18.0589   22.0608 N   0  0  0  0  0  0  0  0  0  0  0  0
  -24.1332  -11.7017   20.6464 N   0  0  0  0  0  0  0  0  0  0  0  0
  -29.3187  -23.4732   20.3896 N   0  0  0  0  0  0  0  0  0  0  0  0
  -25.9520  -10.6125   17.7184 N   0  3  0  0  0  0  0  0  0  0  0  0
  -27.8683  -30.7964   21.4899 O   0  0  0  0  0  0  0  0  0  0  0  0
  -23.4153  -16.4613   23.1545 O   0  0  0  0  0  0  0  0  0  0  0  0
  -22.0737  -13.6569   21.0261 O   0  0  0  0  0  0  0  0  0  0  0  0
  -26.3976  -11.8918   20.1844 O   0  0  0  0  0  0  0  0  0  0  0  0
  -28.6598  -21.9370   18.8203 O   0  0  0  0  0  0  0  0  0  0  0  0
  -20.1206  -31.2324   22.0982 O   0  0  0  0  0  0  0  0  0  0  0  0
  -29.3414  -18.0084   20.7065 O   0  0  0  0  0  0  0  0  0  1  0  0
  -16.2887  -28.0798   24.5027 F   0  0  0  0  0  0  0  0  0  0  0  0
  -19.2238  -31.7903   24.6530 F   0  0  0  0  0  0  0  0  0  0  0  0
  1  2  1  0  0  0  0
  1  5  2  0  0  0  0
  2  6  2  0  0  0  0
  3  8  2  0  0  0  0
  3 16  1  0  0  0  0
  4  9  1  0  0  0  0
  4 16  2  0  0  0  0
  5 18  1  0  0  0  0
  6 20  1  0  0  0  0
  7 10  2  0  0  0  0
  7 19  1  0  0  0  0
  8 22  1  0  0  0  0
  9 22  2  0  0  0  0
 10 23  1  0  0  0  0
 11 12  2  0  0  0  0
 11 24  1  0  0  0  0
 12 25  1  0  0  0  0
 13 21  1  0  0  0  0
 13 23  2  0  0  0  0
 14 25  2  0  0  0  0
 14 26  1  0  0  0  0
 15 28  2  0  0  0  0
 15 29  1  0  0  0  0
 16 27  1  0  0  0  0
 17 27  1  0  0  0  0
 17 30  2  0  0  0  0
 17 32  1  0  0  0  0
 18 20  2  0  0  0  0
 18 37  1  0  0  0  0
 19 21  2  0  0  0  0
 19 38  1  0  0  0  0
 20 48  1  0  0  0  0
 21 39  1  0  0  0  0
 22 80  1  0  0  0  0
 23 81  1  0  0  0  0
 24 26  2  0  0  0  0
 24 80  1  0  0  0  0
 25 82  1  0  0  0  0
 26 83  1  0  0  0  0
 27 63  2  0  0  0  0
 28 49  1  0  0  0  0
 28 64  1  0  0  0  0
 29 57  1  0  0  0  0
 29 65  2  0  0  0  0
 30 66  1  0  0  0  0
 30 69  1  0  0  0  0
 31 58  1  0  0  0  0
 31 64  2  0  0  0  0
 31 65  1  0  0  0  0
 32 70  1  0  0  0  0
 32 75  2  0  0  0  0
 33 50  1  0  0  0  0
 33 71  1  0  0  0  0
 33 76  2  0  0  0  0
 34 60  1  0  0  0  0
 34 67  1  0  0  0  0
 34 77  2  0  0  0  0
 35 61  1  0  0  0  0
 35 72  1  0  0  0  0
 35 78  2  0  0  0  0
 36 68  1  0  0  0  0
 36 73  1  0  0  0  0
 36 79  2  0  0  0  0
 37 40  1  0  0  0  0
 38 50  1  0  0  0  0
 39 67  1  0  0  0  0
 40 42  1  0  0  0  0
 41 45  1  0  0  0  0
 41 46  1  0  0  0  0
 42 48  1  0  0  0  0
 43 44  1  0  0  0  0
 43 49  1  0  0  0  0
 44 49  1  0  0  0  0
 45 51  1  0  0  0  0
 46 68  1  0  0  0  0
 47 51  1  0  0  0  0
 47 68  1  0  0  0  0
 48 71  1  0  0  0  0
 50 67  1  0  0  0  0
 51 66  1  0  0  0  0
 52 61  1  0  0  0  0
 53 62  1  0  0  0  0
 54 62  1  0  0  0  0
 55 62  1  0  0  0  0
 56 74  1  0  0  0  0
 57 59  1  0  0  0  0
 58 73  1  0  0  0  0
 59 81  1  0  0  0  0
 60 62  1  0  0  0  0
 60 72  1  0  0  0  0
 61 74  1  0  0  0  0
 63 66  1  0  0  0  0
M  CHG  1  74   1
M  ISO  4  36 100  59 101  73 100  81 101
M  END
> <Batch ID>
0037

> <Smiles>
CNC(C)C(=O)NC(C(=O)N1Cc2cc([101O:1][101CH2:1]Cc3cc(C4CC4)nc(C[100NH:0][100C:0](=O)N4CCCC(n5nc(-c6ccc(Oc7ccc(F)cc7F)cc6)c(C(N)=O)c5N)C4)n3)ccc2CC1C(=O)NC1CCCc2ccccc21)C(C)(C)C

> <Shape>
0.222

> <Color>
0.064

> <Negative vol penalty>
0.000

$$$$

  -OEChem-04052316593D

 84 92  0     1  0  0  0  0  0999 V2000
  -17.6376  -28.1402   22.6360 C   0  0  0  0  0  0  0  0  0  0  0  0
  -18.0397  -27.1632   21.7309 C   0  0  0  0  0  0  0  0  0  0  0  0
  -29.6003  -23.4693   18.7200 C   0  0  0  0  0  0  0  0  0  0  0  0
  -27.8771  -23.3189   20.4067 C   0  0  0  0  0  0  0  0  0  0  0  0
  -18.5472  -28.6462   23.5636 C   0  0  0  0  0  0  0  0  0  0  0  0
  -19.3520  -26.6925   21.7521 C   0  0  0  0  0  0  0  0  0  0  0  0
  -21.2383  -20.9920   20.5468 C   0  0  0  0  0  0  0  0  0  0  0  0
  -28.9955  -24.6155   18.2043 C   0  0  0  0  0  0  0  0  0  0  0  0
  -27.2724  -24.4652   19.8910 C   0  0  0  0  0  0  0  0  0  0  0  0
  -21.7759  -20.4041   19.4026 C   0  0  0  0  0  0  0  0  0  0  0  0
  -25.4750  -27.5582   19.2423 C   0  0  0  0  0  0  0  0  0  0  0  0
  -25.0505  -28.5314   20.1470 C   0  0  0  0  0  0  0  0  0  0  0  0
  -23.9981  -20.7613   20.2705 C   0  0  0  0  0  0  0  0  0  0  0  0
  -24.6110  -14.9563   18.7968 C   0  0  0  0  0  0  0  0  0  0  0  0
  -27.3189  -28.7839   20.9395 C   0  0  0  0  0  0  0  0  0  0  0  0
  -29.0411  -22.8209   19.8212 C   0  0  0  0  0  0  0  0  0  0  0  0
  -30.6515  -21.5729   21.3563 C   0  0  0  0  0  0  0  0  0  0  0  0
  -19.8687  -28.1744   23.6026 C   0  0  0  0  0  0  0  0  0  0  0  0
  -22.0783  -21.4797   21.5582 C   0  0  0  0  0  0  0  0  0  0  0  0
  -20.2806  -27.1936   22.6803 C   0  0  0  0  0  0  0  0  0  0  0  0
  -23.4686  -21.3527   21.4277 C   0  0  0  0  0  0  0  0  0  0  0  0
  -24.6122  -14.2851   20.0146 C   0  0  0  0  0  0  0  0  0  0  0  0
  -23.9102  -14.8119   21.0930 C   0  0  0  0  0  0  0  0  0  0  0  0
  -27.8316  -25.1135   18.7898 C   0  0  0  0  0  0  0  0  0  0  0  0
  -23.1561  -20.2913   19.2630 C   0  0  0  0  0  0  0  0  0  0  0  0
  -26.8214  -27.1979   19.1863 C   0  0  0  0  0  0  0  0  0  0  0  0
  -25.9725  -29.1442   20.9956 C   0  0  0  0  0  0  0  0  0  0  0  0
  -27.7433  -27.8108   20.0348 C   0  0  0  0  0  0  0  0  0  0  0  0
  -29.6650  -21.6365   20.3540 C   0  0  0  0  0  0  0  0  0  0  0  0
  -23.8980  -16.1411   18.7100 C   0  0  0  0  0  0  0  0  0  0  0  0
  -23.2287  -16.0033   20.9035 C   0  0  0  0  0  0  0  0  0  0  0  0
  -30.9085  -20.2314   21.5005 C   0  0  0  0  0  0  0  0  0  0  0  0
  -31.2792  -22.6318   22.0914 C   0  0  0  0  0  0  0  0  0  0  0  0
  -22.6186  -24.3369   22.8419 C   0  0  0  0  0  0  0  0  0  0  0  0
  -24.4728  -22.6350   24.8883 C   0  0  0  0  0  0  0  0  0  0  0  0
  -26.3037  -19.8158   25.4772 C   0  0  0  0  0  0  0  0  0  0  0  0
  -27.5923  -15.4577   20.4657 C   0  0  0  0  0  0  0  0  0  0  0  0
  -20.8288  -28.7855   24.5923 C   0  0  0  0  0  0  0  0  0  0  0  0
  -21.4820  -22.0870   22.7983 C   0  0  0  0  0  0  0  0  0  0  0  0
  -24.4132  -21.8420   22.4939 C   0  0  0  0  0  0  0  0  0  0  0  0
  -22.0995  -27.9642   24.7951 C   0  0  0  0  0  0  0  0  0  0  0  0
  -30.8540  -16.1231   19.0457 C   0  0  0  0  0  0  0  0  0  0  0  0
  -22.6759  -27.5320   23.4506 C   0  0  0  0  0  0  0  0  0  0  0  0
  -31.0064  -17.6199   19.3220 C   0  0  0  0  0  0  0  0  0  0  0  0
  -29.4140  -15.7716   18.6837 C   0  0  0  0  0  0  0  0  0  0  0  0
  -28.5546  -17.6880   19.9731 C   0  0  0  0  0  0  0  0  0  0  0  0
  -21.6889  -26.6397   22.6883 C   0  0  1  0  0  0  0  0  0  0  0  0
  -22.4459  -23.0138   23.5327 C   0  0  1  0  0  0  0  0  0  0  0  0
  -29.9836  -18.1039   20.3669 C   0  0  2  0  0  0  0  0  0  0  0  0
  -23.8916  -14.1127   22.4106 C   0  0  0  0  0  0  0  0  0  0  0  0
  -22.4554  -16.6175   22.0243 C   0  0  0  0  0  0  0  0  0  0  0  0
  -27.7341  -18.7257   27.2274 C   0  0  0  0  0  0  0  0  0  0  0  0
  -26.7583  -24.5359   24.2008 C   0  0  0  0  0  0  0  0  0  0  0  0
  -28.3460  -22.8758   25.1966 C   0  0  0  0  0  0  0  0  0  0  0  0
  -26.5944  -23.9345   26.6227 C   0  0  0  0  0  0  0  0  0  0  0  0
  -24.4851  -17.4898   25.6806 C   0  0  0  0  0  0  0  0  0  0  0  0
  -25.3743  -13.0073   20.1383 C   0  0  0  0  0  0  0  0  0  0  0  0
  -23.8730  -16.8956   17.4047 C   0  0  0  0  0  0  0  0  0  0  0  0
  -25.0016  -17.9191   17.2632 C   0  0  0  0  0  0  0  0  0  0  0  0
  -26.7238  -13.1650   20.8478 C   0  0  0  0  0  0  0  0  0  0  0  0
  -24.9313  -19.0416   18.2921 C   0  0  0  0  0  0  0  0  0  1  0  0
  -25.9183  -22.2004   24.9117 C   0  0  1  0  0  0  0  0  0  0  0  0
  -26.3309  -18.8605   26.6567 C   0  0  2  0  0  0  0  0  0  0  0  0
  -26.8868  -23.3791   25.2118 C   0  0  0  0  0  0  0  0  0  0  0  0
  -29.3191  -20.4313   19.8938 N   0  0  0  0  0  0  0  0  0  0  0  0
  -23.2043  -16.6839   19.7356 N   0  0  0  0  0  0  0  0  0  0  0  0
  -30.0924  -19.5977   20.6102 N   0  0  0  0  0  0  0  0  0  0  0  0
  -23.7819  -22.4340   23.6849 N   0  0  0  0  0  0  0  0  0  0  0  0
  -28.4931  -16.2432   19.7275 N   0  0  0  0  0  0  0  0  0  0  0  0
  -31.7507  -19.5438   22.3007 N   0  0  0  0  0  0  0  0  0  0  0  0
  -30.8976  -23.9524   21.8182 N   0  0  0  0  0  0  0  0  0  0  0  0
  -21.7019  -25.2965   23.2270 N   0  0  0  0  0  0  0  0  0  0  0  0
  -25.9989  -21.1023   25.8688 N   0  0  0  0  0  0  0  0  0  0  0  0
  -27.5915  -14.1006   20.1676 N   0  0  0  0  0  0  0  0  0  0  0  0
  -25.8613  -17.5091   26.2396 N   0  3  0  0  0  0  0  0  0  0  0  0
  -32.1646  -22.4144   22.9531 O   0  0  0  0  0  0  0  0  0  0  0  0
  -23.5179  -24.4773   22.0214 O   0  0  0  0  0  0  0  0  0  0  0  0
  -23.9730  -23.1279   25.9026 O   0  0  0  0  0  0  0  0  0  0  0  0
  -26.5336  -19.4574   24.3243 O   0  0  0  0  0  0  0  0  0  0  0  0
  -26.8472  -15.9302   21.3310 O   0  0  0  0  0  0  0  0  0  0  0  0
  -27.2413  -26.2322   18.2870 O   0  0  0  0  0  0  0  0  0  0  0  0
  -23.6834  -19.7185   18.1470 O   0  0  0  0  0  0  0  0  0  1  0  0
  -25.5650  -30.0798   21.8632 F   0  0  0  0  0  0  0  0  0  0  0  0
  -29.0382  -27.4696   19.9848 F   0  0  0  0  0  0  0  0  0  0  0  0
  1  2  1  0  0  0  0
  1  5  2  0  0  0  0
  2  6  2  0  0  0  0
  3  8  2  0  0  0  0
  3 16  1  0  0  0  0
  4  9  1  0  0  0  0
  4 16  2  0  0  0  0
  5 18  1  0  0  0  0
  6 20  1  0  0  0  0
  7 10  2  0  0  0  0
  7 19  1  0  0  0  0
  8 24  1  0  0  0  0
  9 24  2  0  0  0  0
 10 25  1  0  0  0  0
 11 12  2  0  0  0  0
 11 26  1  0  0  0  0
 12 27  1  0  0  0  0
 13 21  1  0  0  0  0
 13 25  2  0  0  0  0
 14 22  2  0  0  0  0
 14 30  1  0  0  0  0
 15 27  2  0  0  0  0
 15 28  1  0  0  0  0
 16 29  1  0  0  0  0
 17 29  1  0  0  0  0
 17 32  2  0  0  0  0
 17 33  1  0  0  0  0
 18 20  2  0  0  0  0
 18 38  1  0  0  0  0
 19 21  2  0  0  0  0
 19 39  1  0  0  0  0
 20 47  1  0  0  0  0
 21 40  1  0  0  0  0
 22 23  1  0  0  0  0
 22 57  1  0  0  0  0
 23 31  2  0  0  0  0
 23 50  1  0  0  0  0
 24 81  1  0  0  0  0
 25 82  1  0  0  0  0
 26 28  2  0  0  0  0
 26 81  1  0  0  0  0
 27 83  1  0  0  0  0
 28 84  1  0  0  0  0
 29 65  2  0  0  0  0
 30 58  1  0  0  0  0
 30 66  2  0  0  0  0
 31 51  1  0  0  0  0
 31 66  1  0  0  0  0
 32 67  1  0  0  0  0
 32 70  1  0  0  0  0
 33 71  1  0  0  0  0
 33 76  2  0  0  0  0
 34 48  1  0  0  0  0
 34 72  1  0  0  0  0
 34 77  2  0  0  0  0
 35 62  1  0  0  0  0
 35 68  1  0  0  0  0
 35 78  2  0  0  0  0
 36 63  1  0  0  0  0
 36 73  1  0  0  0  0
 36 79  2  0  0  0  0
 37 69  1  0  0  0  0
 37 74  1  0  0  0  0
 37 80  2  0  0  0  0
 38 41  1  0  0  0  0
 39 48  1  0  0  0  0
 40 68  1  0  0  0  0
 41 43  1  0  0  0  0
 42 44  1  0  0  0  0
 42 45  1  0  0  0  0
 43 47  1  0  0  0  0
 44 49  1  0  0  0  0
 45 69  1  0  0  0  0
 46 49  1  0  0  0  0
 46 69  1  0  0  0  0
 47 72  1  0  0  0  0
 48 68  1  0  0  0  0
 49 67  1  0  0  0  0
 52 63  1  0  0  0  0
 53 64  1  0  0  0  0
 54 64  1  0  0  0  0
 55 64  1  0  0  0  0
 56 75  1  0  0  0  0
 57 60  1  0  0  0  0
 58 59  1  0  0  0  0
 59 61  1  0  0  0  0
 60 74  1  0  0  0  0
 61 82  1  0  0  0  0
 62 64  1  0  0  0  0
 62 73  1  0  0  0  0
 63 75  1  0  0  0  0
 65 67  1  0  0  0  0
M  CHG  1  75   1
M  ISO  4  37 100  61 101  74 100  82 101
M  END
> <Batch ID>
0037

> <Smiles>
CNC(C)C(=O)NC(C(=O)N1Cc2cc([101O:1][101CH2:1]CCc3cc(CC[100NH:0][100C:0](=O)N4CCCC(n5nc(-c6ccc(Oc7ccc(F)cc7F)cc6)c(C(N)=O)c5N)C4)c(C)c(C)n3)ccc2CC1C(=O)NC1CCCc2ccccc21)C(C)(C)C

> <Shape>
0.199

> <Color>
0.053

> <Negative vol penalty>
0.000

$$$$

  -OEChem-04052316593D

 83 91  0     1  0  0  0  0  0999 V2000
  -21.7421  -11.9338   20.6007 C   0  0  0  0  0  0  0  0  0  0  0  0
  -21.5963  -13.2223   21.1044 C   0  0  0  0  0  0  0  0  0  0  0  0
  -25.0398  -28.5252   19.4415 C   0  0  0  0  0  0  0  0  0  0  0  0
  -25.8577  -26.9298   21.0611 C   0  0  0  0  0  0  0  0  0  0  0  0
  -23.0144  -11.4333   20.3272 C   0  0  0  0  0  0  0  0  0  0  0  0
  -22.7229  -14.0108   21.3360 C   0  0  0  0  0  0  0  0  0  0  0  0
  -23.1690  -20.0816   20.6630 C   0  0  0  0  0  0  0  0  0  0  0  0
  -23.8026  -21.7651   26.8334 C   0  0  0  0  0  0  0  0  0  0  0  0
  -26.2985  -29.1247   19.3964 C   0  0  0  0  0  0  0  0  0  0  0  0
  -27.1164  -27.5293   21.0160 C   0  0  0  0  0  0  0  0  0  0  0  0
  -23.0953  -21.1342   21.5742 C   0  0  0  0  0  0  0  0  0  0  0  0
  -30.6423  -28.4151   21.0575 C   0  0  0  0  0  0  0  0  0  0  0  0
  -31.7566  -27.5801   20.9757 C   0  0  0  0  0  0  0  0  0  0  0  0
  -22.7404  -21.0768   27.4195 C   0  0  0  0  0  0  0  0  0  0  0  0
  -25.5023  -21.1576   21.7326 C   0  0  0  0  0  0  0  0  0  0  0  0
  -22.2433  -23.0171   25.4776 C   0  0  0  0  0  0  0  0  0  0  0  0
  -30.9273  -26.6774   18.8937 C   0  0  0  0  0  0  0  0  0  0  0  0
  -24.8194  -27.4278   20.2739 C   0  0  0  0  0  0  0  0  0  0  0  0
  -23.0512  -25.7519   19.5174 C   0  0  0  0  0  0  0  0  0  0  0  0
  -24.1565  -12.2195   20.5463 C   0  0  0  0  0  0  0  0  0  0  0  0
  -24.4115  -19.5509   20.2875 C   0  0  0  0  0  0  0  0  0  0  0  0
  -24.0117  -13.5199   21.0663 C   0  0  0  0  0  0  0  0  0  0  0  0
  -25.5891  -20.1000   20.8145 C   0  0  0  0  0  0  0  0  0  0  0  0
  -23.5540  -22.7353   25.8625 C   0  0  0  0  0  0  0  0  0  0  0  0
  -21.1810  -22.3288   26.0637 C   0  0  0  0  0  0  0  0  0  0  0  0
  -27.3367  -28.6268   20.1836 C   0  0  0  0  0  0  0  0  0  0  0  0
  -24.2619  -21.6705   22.1113 C   0  0  0  0  0  0  0  0  0  0  0  0
  -29.6704  -28.3812   20.0574 C   0  0  0  0  0  0  0  0  0  0  0  0
  -31.8991  -26.7113   19.8938 C   0  0  0  0  0  0  0  0  0  0  0  0
  -29.8130  -27.5124   18.9756 C   0  0  0  0  0  0  0  0  0  0  0  0
  -21.4296  -21.3586   27.0347 C   0  0  0  0  0  0  0  0  0  0  0  0
  -23.5194  -26.8084   20.3214 C   0  0  0  0  0  0  0  0  0  0  0  0
  -21.7667  -25.5330   19.9518 C   0  0  0  0  0  0  0  0  0  0  0  0
  -23.7178  -25.0326   18.4715 C   0  0  0  0  0  0  0  0  0  0  0  0
  -25.8077  -16.7073   20.5488 C   0  0  0  0  0  0  0  0  0  0  0  0
  -28.1102  -18.1058   18.7419 C   0  0  0  0  0  0  0  0  0  0  0  0
  -29.6347  -20.9781   17.7064 C   0  0  0  0  0  0  0  0  0  0  0  0
  -18.9857  -26.5821   25.1495 C   0  0  0  0  0  0  0  0  0  0  0  0
  -25.5138  -11.6182   20.2801 C   0  0  0  0  0  0  0  0  0  0  0  0
  -24.4752  -18.4331   19.2831 C   0  0  0  0  0  0  0  0  0  0  0  0
  -26.9488  -19.5796   20.4284 C   0  0  0  0  0  0  0  0  0  0  0  0
  -26.6333  -12.6529   20.2003 C   0  0  0  0  0  0  0  0  0  0  0  0
  -18.0483  -27.7969   21.9367 C   0  0  0  0  0  0  0  0  0  0  0  0
  -26.5308  -13.6407   21.3581 C   0  0  0  0  0  0  0  0  0  0  0  0
  -19.3020  -27.5859   21.0858 C   0  0  0  0  0  0  0  0  0  0  0  0
  -18.3985  -28.1995   23.3675 C   0  0  0  0  0  0  0  0  0  0  0  0
  -20.5877  -27.0793   23.2046 C   0  0  0  0  0  0  0  0  0  0  0  0
  -25.2080  -14.4148   21.3074 C   0  0  1  0  0  0  0  0  0  0  0  0
  -25.7699  -17.6303   19.3638 C   0  0  1  0  0  0  0  0  0  0  0  0
  -20.2865  -26.6175   21.7685 C   0  0  2  0  0  0  0  0  0  0  0  0
  -31.5119  -21.8002   16.2581 C   0  0  0  0  0  0  0  0  0  0  0  0
  -30.1226  -17.2557   20.8720 C   0  0  0  0  0  0  0  0  0  0  0  0
  -31.7503  -18.8809   19.8834 C   0  0  0  0  0  0  0  0  0  0  0  0
  -30.9131  -16.9694   18.5167 C   0  0  0  0  0  0  0  0  0  0  0  0
  -27.7832  -22.5004   15.9704 C   0  0  0  0  0  0  0  0  0  0  0  0
  -24.7038  -23.4798   25.2283 C   0  0  0  0  0  0  0  0  0  0  0  0
  -19.7915  -22.6606   25.6245 C   0  0  0  0  0  0  0  0  0  0  0  0
  -19.0253  -23.5865   26.5877 C   0  0  0  0  0  0  0  0  0  0  0  0
  -19.7094  -24.9263   26.8506 C   0  0  0  0  0  0  0  0  0  0  0  0
  -25.2289  -22.7805   23.9792 C   0  0  0  0  0  0  0  0  0  1  0  0
  -29.3619  -18.8985   19.0312 C   0  0  1  0  0  0  0  0  0  0  0  0
  -30.0295  -21.4672   16.3246 C   0  0  2  0  0  0  0  0  0  0  0  0
  -30.5114  -18.0099   19.5848 C   0  0  0  0  0  0  0  0  0  0  0  0
  -22.6065  -27.2315   21.1999 N   0  0  0  0  0  0  0  0  0  0  0  0
  -21.5518  -26.4368   20.9504 N   0  0  0  0  0  0  0  0  0  0  0  0
  -26.9585  -18.4816   19.4476 N   0  0  0  0  0  0  0  0  0  0  0  0
  -19.3342  -27.2395   23.9581 N   0  0  0  0  0  0  0  0  0  0  0  0
  -20.8113  -24.6577   19.5731 N   0  0  0  0  0  0  0  0  0  0  0  0
  -25.0361  -25.3860   18.1528 N   0  0  0  0  0  0  0  0  0  0  0  0
  -25.2707  -15.4575   20.3058 N   0  0  0  0  0  0  0  0  0  0  0  0
  -29.6928  -19.6035   17.7976 N   0  0  0  0  0  0  0  0  0  0  0  0
  -19.9264  -25.6837   25.6382 N   0  0  0  0  0  0  0  0  0  0  0  0
  -29.2566  -22.6904   15.9677 N   0  3  0  0  0  0  0  0  0  0  0  0
  -23.1554  -24.1149   17.8273 O   0  0  0  0  0  0  0  0  0  0  0  0
  -26.2896  -17.0995   21.6051 O   0  0  0  0  0  0  0  0  0  0  0  0
  -28.1510  -17.1915   17.9147 O   0  0  0  0  0  0  0  0  0  0  0  0
  -29.3109  -21.7396   18.6152 O   0  0  0  0  0  0  0  0  0  0  0  0
  -17.9133  -26.7771   25.7316 O   0  0  0  0  0  0  0  0  0  0  0  0
  -28.5651  -29.2114   20.1397 O   0  0  0  0  0  0  0  0  0  0  0  0
  -24.1928  -22.6976   23.0014 O   0  0  0  0  0  0  0  0  0  1  0  0
  -32.9700  -25.9106   19.8146 F   0  0  0  0  0  0  0  0  0  0  0  0
  -28.8832  -27.4762   18.0112 F   0  0  0  0  0  0  0  0  0  0  0  0
  -20.1405  -20.4872   27.7815 Cl  0  0  0  0  0  0  0  0  0  0  0  0
  1  2  1  0  0  0  0
  1  5  2  0  0  0  0
  2  6  2  0  0  0  0
  3  9  2  0  0  0  0
  3 18  1  0  0  0  0
  4 10  1  0  0  0  0
  4 18  2  0  0  0  0
  5 20  1  0  0  0  0
  6 22  1  0  0  0  0
  7 11  2  0  0  0  0
  7 21  1  0  0  0  0
  8 14  2  0  0  0  0
  8 24  1  0  0  0  0
  9 26  1  0  0  0  0
 10 26  2  0  0  0  0
 11 27  1  0  0  0  0
 12 13  2  0  0  0  0
 12 28  1  0  0  0  0
 13 29  1  0  0  0  0
 14 31  1  0  0  0  0
 15 23  1  0  0  0  0
 15 27  2  0  0  0  0
 16 24  2  0  0  0  0
 16 25  1  0  0  0  0
 17 29  2  0  0  0  0
 17 30  1  0  0  0  0
 18 32  1  0  0  0  0
 19 32  1  0  0  0  0
 19 33  2  0  0  0  0
 19 34  1  0  0  0  0
 20 22  2  0  0  0  0
 20 39  1  0  0  0  0
 21 23  2  0  0  0  0
 21 40  1  0  0  0  0
 22 48  1  0  0  0  0
 23 41  1  0  0  0  0
 24 56  1  0  0  0  0
 25 31  2  0  0  0  0
 25 57  1  0  0  0  0
 26 79  1  0  0  0  0
 27 80  1  0  0  0  0
 28 30  2  0  0  0  0
 28 79  1  0  0  0  0
 29 81  1  0  0  0  0
 30 82  1  0  0  0  0
 31 83  1  0  0  0  0
 32 64  2  0  0  0  0
 33 65  1  0  0  0  0
 33 68  1  0  0  0  0
 34 69  1  0  0  0  0
 34 74  2  0  0  0  0
 35 49  1  0  0  0  0
 35 70  1  0  0  0  0
 35 75  2  0  0  0  0
 36 61  1  0  0  0  0
 36 66  1  0  0  0  0
 36 76  2  0  0  0  0
 37 62  1  0  0  0  0
 37 71  1  0  0  0  0
 37 77  2  0  0  0  0
 38 67  1  0  0  0  0
 38 72  1  0  0  0  0
 38 78  2  0  0  0  0
 39 42  1  0  0  0  0
 40 49  1  0  0  0  0
 41 66  1  0  0  0  0
 42 44  1  0  0  0  0
 43 45  1  0  0  0  0
 43 46  1  0  0  0  0
 44 48  1  0  0  0  0
 45 50  1  0  0  0  0
 46 67  1  0  0  0  0
 47 50  1  0  0  0  0
 47 67  1  0  0  0  0
 48 70  1  0  0  0  0
 49 66  1  0  0  0  0
 50 65  1  0  0  0  0
 51 62  1  0  0  0  0
 52 63  1  0  0  0  0
 53 63  1  0  0  0  0
 54 63  1  0  0  0  0
 55 73  1  0  0  0  0
 56 60  1  0  0  0  0
 57 58  1  0  0  0  0
 58 59  1  0  0  0  0
 59 72  1  0  0  0  0
 60 80  1  0  0  0  0
 61 63  1  0  0  0  0
 61 71  1  0  0  0  0
 62 73  1  0  0  0  0
 64 65  1  0  0  0  0
M  CHG  1  73   1
M  ISO  4  38 100  60 101  72 100  80 101
M  END
> <Batch ID>
0037

> <Smiles>
CNC(C)C(=O)NC(C(=O)N1Cc2cc([101O:1][101CH2:1]Cc3ccc(Cl)c(CCC[100NH:0][100C:0](=O)N4CCCC(n5nc(-c6ccc(Oc7ccc(F)cc7F)cc6)c(C(N)=O)c5N)C4)c3)ccc2CC1C(=O)NC1CCCc2ccccc21)C(C)(C)C

> <Shape>
0.197

> <Color>
0.077

> <Negative vol penalty>
0.000

$$$$

  -OEChem-04052316593D

 87 95  0     1  0  0  0  0  0999 V2000
  -23.8823  -23.5985   18.3919 C   0  0  0  0  0  0  0  0  0  0  0  0
  -24.7592  -22.5235   18.3013 C   0  0  0  0  0  0  0  0  0  0  0  0
  -26.6556  -25.9019   20.0957 C   0  0  0  0  0  0  0  0  0  0  0  0
  -28.9059  -26.3946   20.8242 C   0  0  0  0  0  0  0  0  0  0  0  0
  -22.7816  -23.5254   19.2430 C   0  0  0  0  0  0  0  0  0  0  0  0
  -24.5293  -21.3705   19.0526 C   0  0  0  0  0  0  0  0  0  0  0  0
  -27.4554  -17.5132   18.1794 C   0  0  0  0  0  0  0  0  0  0  0  0
  -26.3911  -27.2672   19.9892 C   0  0  0  0  0  0  0  0  0  0  0  0
  -28.6414  -27.7600   20.7176 C   0  0  0  0  0  0  0  0  0  0  0  0
  -28.7927  -17.4776   18.5717 C   0  0  0  0  0  0  0  0  0  0  0  0
  -25.0112  -30.6296   19.8708 C   0  0  0  0  0  0  0  0  0  0  0  0
  -23.8035  -31.1000   20.3864 C   0  0  0  0  0  0  0  0  0  0  0  0
  -28.2092  -16.0252   20.4073 C   0  0  0  0  0  0  0  0  0  0  0  0
  -24.4282  -30.3002   22.5790 C   0  0  0  0  0  0  0  0  0  0  0  0
  -27.9130  -25.4655   20.5133 C   0  0  0  0  0  0  0  0  0  0  0  0
  -28.6967  -23.2070   19.6230 C   0  0  0  0  0  0  0  0  0  0  0  0
  -22.5457  -22.3754   20.0142 C   0  0  0  0  0  0  0  0  0  0  0  0
  -26.4816  -16.8127   18.9056 C   0  0  0  0  0  0  0  0  0  0  0  0
  -23.4107  -21.2682   19.8994 C   0  0  0  0  0  0  0  0  0  0  0  0
  -26.8606  -16.0515   20.0205 C   0  0  0  0  0  0  0  0  0  0  0  0
  -34.0748  -18.9148   24.2479 C   0  0  0  0  0  0  0  0  0  0  0  0
  -27.3839  -28.1963   20.3001 C   0  0  0  0  0  0  0  0  0  0  0  0
  -29.1694  -16.7359   19.6875 C   0  0  0  0  0  0  0  0  0  0  0  0
  -25.9274  -29.9945   20.7092 C   0  0  0  0  0  0  0  0  0  0  0  0
  -23.5120  -30.9353   21.7405 C   0  0  0  0  0  0  0  0  0  0  0  0
  -25.6359  -29.8298   22.0633 C   0  0  0  0  0  0  0  0  0  0  0  0
  -28.1867  -24.0553   20.6241 C   0  0  0  0  0  0  0  0  0  0  0  0
  -35.4822  -18.9459   24.2567 C   0  0  0  0  0  0  0  0  0  0  0  0
  -33.7613  -17.7370   23.6148 C   0  0  0  0  0  0  0  0  0  0  0  0
  -28.7731  -21.9742   20.2237 C   0  0  0  0  0  0  0  0  0  0  0  0
  -29.0682  -23.5067   18.2710 C   0  0  0  0  0  0  0  0  0  0  0  0
  -23.8851  -17.6323   20.5459 C   0  0  0  0  0  0  0  0  0  0  0  0
  -23.4803  -14.4208   20.7573 C   0  0  0  0  0  0  0  0  0  0  0  0
  -24.8881  -11.3126   20.6918 C   0  0  0  0  0  0  0  0  0  0  0  0
  -29.2900  -20.2453   25.9329 C   0  0  0  0  0  0  0  0  0  0  0  0
  -21.3348  -22.3469   20.9132 C   0  0  0  0  0  0  0  0  0  0  0  0
  -25.0473  -16.8397   18.4537 C   0  0  0  0  0  0  0  0  0  0  0  0
  -25.8568  -15.2653   20.8223 C   0  0  0  0  0  0  0  0  0  0  0  0
  -21.4204  -21.2720   21.9918 C   0  0  0  0  0  0  0  0  0  0  0  0
  -26.7130  -19.3431   23.6477 C   0  0  0  0  0  0  0  0  0  0  0  0
  -21.8047  -19.9388   21.3677 C   0  0  0  0  0  0  0  0  0  0  0  0
  -26.8445  -20.3719   22.5234 C   0  0  0  0  0  0  0  0  0  0  0  0
  -27.0076  -19.9591   25.0137 C   0  0  0  0  0  0  0  0  0  0  0  0
  -28.4341  -21.6869   23.9872 C   0  0  0  0  0  0  0  0  0  0  0  0
  -23.1977  -20.0156   20.7301 C   0  0  1  0  0  0  0  0  0  0  0  0
  -24.0627  -16.5040   19.5696 C   0  0  1  0  0  0  0  0  0  0  0  0
  -28.2011  -21.0994   22.5848 C   0  0  2  0  0  0  0  0  0  0  0  0
  -36.4537  -21.2329   23.9212 C   0  0  0  0  0  0  0  0  0  0  0  0
  -36.1945  -13.6096   22.7058 C   0  0  0  0  0  0  0  0  0  0  0  0
  -24.3097   -8.8826   20.9323 C   0  0  0  0  0  0  0  0  0  0  0  0
  -23.2738  -14.7717   23.7812 C   0  0  0  0  0  0  0  0  0  0  0  0
  -23.6533  -12.3089   24.0229 C   0  0  0  0  0  0  0  0  0  0  0  0
  -21.6430  -13.1458   22.8059 C   0  0  0  0  0  0  0  0  0  0  0  0
  -25.7963  -10.7048   17.9414 C   0  0  0  0  0  0  0  0  0  0  0  0
  -33.1443  -19.9183   24.7934 C   0  0  0  0  0  0  0  0  0  0  0  0
  -36.3596  -19.9901   24.8146 C   0  0  0  0  0  0  0  0  0  0  0  0
  -32.4316  -17.1087   23.2823 C   0  0  0  0  0  0  0  0  0  0  0  0
  -35.9866  -14.9228   23.4421 C   0  0  0  0  0  0  0  0  0  0  0  0
  -32.5342  -19.5662   26.1731 C   0  0  0  0  0  0  0  0  0  0  0  0
  -32.0387  -17.2415   21.8094 C   0  0  0  0  0  0  0  0  0  0  0  0
  -35.1520  -15.8980   22.6149 C   0  0  0  0  0  0  0  0  0  0  0  0
  -31.6052  -20.6403   26.7348 C   0  0  0  0  0  0  0  0  0  0  0  0
  -30.7353  -16.5299   21.4656 C   0  0  0  0  0  0  0  0  0  1  0  0
  -23.9198  -13.3493   21.7256 C   0  0  1  0  0  0  0  0  0  0  0  0
  -24.4896  -10.0414   19.9640 C   0  0  2  0  0  0  0  0  0  0  0  0
  -23.1413  -13.4102   23.0702 C   0  0  0  0  0  0  0  0  0  0  0  0
  -27.9553  -23.4154   21.7735 N   0  0  0  0  0  0  0  0  0  0  0  0
  -36.0253  -17.8729   23.6755 N   0  0  0  0  0  0  0  0  0  0  0  0
  -34.9536  -17.1566   23.2957 N   0  0  0  0  0  0  0  0  0  0  0  0
  -28.3215  -22.1520   21.4983 N   0  0  0  0  0  0  0  0  0  0  0  0
  -24.4658  -15.3285   20.3442 N   0  0  0  0  0  0  0  0  0  0  0  0
  -28.3088  -20.6320   25.0052 N   0  0  0  0  0  0  0  0  0  0  0  0
  -29.1818  -20.7663   19.7806 N   0  0  0  0  0  0  0  0  0  0  0  0
  -28.9263  -24.8246   17.8156 N   0  0  0  0  0  0  0  0  0  0  0  0
  -23.4374  -18.8071   19.9725 N   0  0  0  0  0  0  0  0  0  0  0  0
  -23.7901  -12.0806   21.0170 N   0  0  0  0  0  0  0  0  0  0  0  0
  -30.4968  -20.9293   25.8523 N   0  0  0  0  0  0  0  0  0  0  0  0
  -25.5335   -9.6650   18.9694 N   0  3  0  0  0  0  0  0  0  0  0  0
  -29.4975  -22.6284   17.4850 O   0  0  0  0  0  0  0  0  0  0  0  0
  -24.1344  -17.4500   21.7318 O   0  0  0  0  0  0  0  0  0  0  0  0
  -22.3076  -14.4469   20.3756 O   0  0  0  0  0  0  0  0  0  0  0  0
  -26.0564  -11.5942   20.9495 O   0  0  0  0  0  0  0  0  0  0  0  0
  -29.1063  -19.3526   26.7673 O   0  0  0  0  0  0  0  0  0  0  0  0
  -27.1263  -29.5287   20.1960 O   0  0  0  0  0  0  0  0  0  0  0  0
  -30.4740  -16.6999   20.0731 O   0  0  0  0  0  0  0  0  0  1  0  0
  -22.3529  -31.3884   22.2358 F   0  0  0  0  0  0  0  0  0  0  0  0
  -26.5126  -29.2215   22.8739 F   0  0  0  0  0  0  0  0  0  0  0  0
  1  2  1  0  0  0  0
  1  5  2  0  0  0  0
  2  6  2  0  0  0  0
  3  8  2  0  0  0  0
  3 15  1  0  0  0  0
  4  9  1  0  0  0  0
  4 15  2  0  0  0  0
  5 17  1  0  0  0  0
  6 19  1  0  0  0  0
  7 10  2  0  0  0  0
  7 18  1  0  0  0  0
  8 22  1  0  0  0  0
  9 22  2  0  0  0  0
 10 23  1  0  0  0  0
 11 12  2  0  0  0  0
 11 24  1  0  0  0  0
 12 25  1  0  0  0  0
 13 20  1  0  0  0  0
 13 23  2  0  0  0  0
 14 25  2  0  0  0  0
 14 26  1  0  0  0  0
 15 27  1  0  0  0  0
 16 27  1  0  0  0  0
 16 30  2  0  0  0  0
 16 31  1  0  0  0  0
 17 19  2  0  0  0  0
 17 36  1  0  0  0  0
 18 20  2  0  0  0  0
 18 37  1  0  0  0  0
 19 45  1  0  0  0  0
 20 38  1  0  0  0  0
 21 28  1  0  0  0  0
 21 29  2  0  0  0  0
 21 55  1  0  0  0  0
 22 84  1  0  0  0  0
 23 85  1  0  0  0  0
 24 26  2  0  0  0  0
 24 84  1  0  0  0  0
 25 86  1  0  0  0  0
 26 87  1  0  0  0  0
 27 67  2  0  0  0  0
 28 56  1  0  0  0  0
 28 68  2  0  0  0  0
 29 57  1  0  0  0  0
 29 69  1  0  0  0  0
 30 70  1  0  0  0  0
 30 73  1  0  0  0  0
 31 74  1  0  0  0  0
 31 79  2  0  0  0  0
 32 46  1  0  0  0  0
 32 75  1  0  0  0  0
 32 80  2  0  0  0  0
 33 64  1  0  0  0  0
 33 71  1  0  0  0  0
 33 81  2  0  0  0  0
 34 65  1  0  0  0  0
 34 76  1  0  0  0  0
 34 82  2  0  0  0  0
 35 72  1  0  0  0  0
 35 77  1  0  0  0  0
 35 83  2  0  0  0  0
 36 39  1  0  0  0  0
 37 46  1  0  0  0  0
 38 71  1  0  0  0  0
 39 41  1  0  0  0  0
 40 42  1  0  0  0  0
 40 43  1  0  0  0  0
 41 45  1  0  0  0  0
 42 47  1  0  0  0  0
 43 72  1  0  0  0  0
 44 47  1  0  0  0  0
 44 72  1  0  0  0  0
 45 75  1  0  0  0  0
 46 71  1  0  0  0  0
 47 70  1  0  0  0  0
 48 56  1  0  0  0  0
 49 58  1  0  0  0  0
 50 65  1  0  0  0  0
 51 66  1  0  0  0  0
 52 66  1  0  0  0  0
 53 66  1  0  0  0  0
 54 78  1  0  0  0  0
 55 59  1  0  0  0  0
 57 60  1  0  0  0  0
 58 61  1  0  0  0  0
 59 62  1  0  0  0  0
 60 63  1  0  0  0  0
 61 69  1  0  0  0  0
 62 77  1  0  0  0  0
 63 85  1  0  0  0  0
 64 66  1  0  0  0  0
 64 76  1  0  0  0  0
 65 78  1  0  0  0  0
 67 70  1  0  0  0  0
 68 69  1  0  0  0  0
M  CHG  1  78   1
M  ISO  4  35 100  63 101  77 100  85 101
M  END
> <Batch ID>
0037

> <Smiles>
CCCn1nc(CC)c(CCC[100NH:0][100C:0](=O)N2CCCC(n3nc(-c4ccc(Oc5ccc(F)cc5F)cc4)c(C(N)=O)c3N)C2)c1CC[101CH2:1][101O:1]c1ccc2c(c1)CN(C(=O)C(NC(=O)C(C)NC)C(C)(C)C)C(C(=O)NC1CCCc3ccccc31)C2

> <Shape>
0.196

> <Color>
0.074

> <Negative vol penalty>
0.000

$$$$

  -OEChem-04052316593D

 82 90  0     1  0  0  0  0  0999 V2000
  -18.8055  -26.7293   22.8441 C   0  0  0  0  0  0  0  0  0  0  0  0
  -20.0585  -26.4722   22.2970 C   0  0  0  0  0  0  0  0  0  0  0  0
  -23.5389   -9.5888   19.9459 C   0  0  0  0  0  0  0  0  0  0  0  0
  -24.0577   -9.8378   22.2923 C   0  0  0  0  0  0  0  0  0  0  0  0
  -18.3783  -28.0451   23.0170 C   0  0  0  0  0  0  0  0  0  0  0  0
  -20.8846  -27.5310   21.9213 C   0  0  0  0  0  0  0  0  0  0  0  0
  -25.6786  -26.8800   23.4175 C   0  0  0  0  0  0  0  0  0  0  0  0
  -22.9662   -8.3436   20.2046 C   0  0  0  0  0  0  0  0  0  0  0  0
  -23.4850   -8.5925   22.5511 C   0  0  0  0  0  0  0  0  0  0  0  0
  -26.4669  -26.0084   22.6675 C   0  0  0  0  0  0  0  0  0  0  0  0
  -20.3805   -7.3078   22.9149 C   0  0  0  0  0  0  0  0  0  0  0  0
  -19.5275   -7.2042   24.0137 C   0  0  0  0  0  0  0  0  0  0  0  0
  -27.4644  -27.8920   21.5379 C   0  0  0  0  0  0  0  0  0  0  0  0
  -20.9814   -5.5370   24.9852 C   0  0  0  0  0  0  0  0  0  0  0  0
  -24.0847  -10.3359   20.9897 C   0  0  0  0  0  0  0  0  0  0  0  0
  -24.0322  -12.8734   20.7330 C   0  0  0  0  0  0  0  0  0  0  0  0
  -19.2034  -29.1206   22.6522 C   0  0  0  0  0  0  0  0  0  0  0  0
  -25.7696  -28.2661   23.2253 C   0  0  0  0  0  0  0  0  0  0  0  0
  -20.4674  -28.8624   22.0882 C   0  0  0  0  0  0  0  0  0  0  0  0
  -26.6780  -28.7793   22.2885 C   0  0  0  0  0  0  0  0  0  0  0  0
  -22.9392   -7.8454   21.5072 C   0  0  0  0  0  0  0  0  0  0  0  0
  -27.3579  -26.5142   21.7255 C   0  0  0  0  0  0  0  0  0  0  0  0
  -21.5339   -6.5259   22.8512 C   0  0  0  0  0  0  0  0  0  0  0  0
  -19.8280   -6.3188   25.0488 C   0  0  0  0  0  0  0  0  0  0  0  0
  -21.8344   -5.6405   23.8864 C   0  0  0  0  0  0  0  0  0  0  0  0
  -24.6770  -11.6221   20.7230 C   0  0  0  0  0  0  0  0  0  0  0  0
  -25.0222  -13.7723   20.4196 C   0  0  0  0  0  0  0  0  0  0  0  0
  -22.6609  -13.1945   21.0016 C   0  0  0  0  0  0  0  0  0  0  0  0
  -23.7557  -30.5366   22.2805 C   0  0  0  0  0  0  0  0  0  0  0  0
  -26.2211  -32.4996   23.0491 C   0  0  0  0  0  0  0  0  0  0  0  0
  -29.5809  -32.8896   23.5034 C   0  0  0  0  0  0  0  0  0  0  0  0
  -30.2294  -15.6856   21.0282 C   0  0  0  0  0  0  0  0  0  0  0  0
  -18.6791  -30.5254   22.8143 C   0  0  0  0  0  0  0  0  0  0  0  0
  -24.9316  -29.1942   24.0612 C   0  0  0  0  0  0  0  0  0  0  0  0
  -26.8283  -30.2601   22.0585 C   0  0  0  0  0  0  0  0  0  0  0  0
  -19.7664  -31.5941   22.7373 C   0  0  0  0  0  0  0  0  0  0  0  0
  -29.7255  -13.0277   18.7134 C   0  0  0  0  0  0  0  0  0  0  0  0
  -20.6877  -31.3337   21.5498 C   0  0  0  0  0  0  0  0  0  0  0  0
  -27.5270  -19.9726   19.8015 C   0  0  0  0  0  0  0  0  0  0  0  0
  -29.5732  -21.3367   20.3758 C   0  0  0  0  0  0  0  0  0  0  0  0
  -27.9344  -18.9259   20.8369 C   0  0  0  0  0  0  0  0  0  0  0  0
  -29.9802  -20.2900   21.4113 C   0  0  0  0  0  0  0  0  0  0  0  0
  -28.3171  -12.5247   19.0349 C   0  0  0  0  0  0  0  0  0  0  0  0
  -30.4729  -13.4572   19.9739 C   0  0  0  0  0  0  0  0  0  0  0  0
  -28.3517  -13.9364   21.1336 C   0  0  0  0  0  0  0  0  0  0  0  0
  -21.4023  -29.9843   21.6914 C   0  0  1  0  0  0  0  0  0  0  0  0
  -24.7358  -30.5641   23.4191 C   0  0  1  0  0  0  0  0  0  0  0  0
  -28.0539  -21.3663   20.1665 C   0  0  0  0  0  0  0  0  0  0  0  0
  -29.4537  -18.8965   21.0459 C   0  0  0  0  0  0  0  0  0  0  0  0
  -27.5387  -13.5443   19.8880 C   0  0  2  0  0  0  0  0  0  0  0  0
  -31.3015  -34.6188   24.0923 C   0  0  0  0  0  0  0  0  0  0  0  0
  -27.7955  -24.7353   18.2318 C   0  0  0  0  0  0  0  0  0  0  0  0
  -25.9937  -33.6778   20.2437 C   0  0  0  0  0  0  0  0  0  0  0  0
  -28.2685  -34.6763   20.5540 C   0  0  0  0  0  0  0  0  0  0  0  0
  -26.3939  -35.3586   22.0517 C   0  0  0  0  0  0  0  0  0  0  0  0
  -30.4244  -31.3967   25.9156 C   0  0  0  0  0  0  0  0  0  0  0  0
  -27.6777  -22.3839   19.0912 C   0  0  0  0  0  0  0  0  0  0  0  0
  -29.8310  -17.8783   22.1203 C   0  0  0  0  0  0  0  0  0  0  0  0
  -27.5884  -24.3739   20.7146 C   0  0  0  0  0  0  0  0  0  1  0  0
  -27.4127  -33.0592   22.3100 C   0  0  1  0  0  0  0  0  0  0  0  0
  -30.3779  -33.5337   24.6234 C   0  0  2  0  0  0  0  0  0  0  0  0
  -28.1566  -23.8148   19.4033 C   0  0  2  0  0  0  0  0  0  0  0  0
  -27.0132  -34.1649   21.2926 C   0  0  0  0  0  0  0  0  0  0  0  0
  -25.9761  -11.7138   20.4265 N   0  0  0  0  0  0  0  0  0  0  0  0
  -26.1556  -13.0335   20.2472 N   0  0  0  0  0  0  0  0  0  0  0  0
  -25.9824  -31.1265   22.8959 N   0  0  0  0  0  0  0  0  0  0  0  0
  -29.6814  -14.4255   20.7369 N   0  0  0  0  0  0  0  0  0  0  0  0
  -25.0251  -15.1148   20.2772 N   0  0  0  0  0  0  0  0  0  0  0  0
  -21.7776  -12.1501   21.3070 N   0  0  0  0  0  0  0  0  0  0  0  0
  -22.4969  -30.0884   22.6324 N   0  0  0  0  0  0  0  0  0  0  0  0
  -28.3565  -33.4998   23.3315 N   0  0  0  0  0  0  0  0  0  0  0  0
  -29.4103  -16.5454   21.7498 N   0  0  0  0  0  0  0  0  0  0  0  0
  -31.2069  -32.5120   25.3232 N   0  3  0  0  0  0  0  0  0  0  0  0
  -22.2281  -14.3710   20.9557 O   0  0  0  0  0  0  0  0  0  0  0  0
  -24.1147  -30.8969   21.1655 O   0  0  0  0  0  0  0  0  0  0  0  0
  -25.5319  -33.2518   23.7426 O   0  0  0  0  0  0  0  0  0  0  0  0
  -30.0040  -31.9425   22.8443 O   0  0  0  0  0  0  0  0  0  0  0  0
  -31.3623  -16.0216   20.6671 O   0  0  0  0  0  0  0  0  0  0  0  0
  -22.3802   -6.6305   21.7601 O   0  0  0  0  0  0  0  0  0  0  0  0
  -28.1281  -25.6655   20.9916 O   0  0  0  0  0  0  0  0  0  1  0  0
  -19.0096   -6.2206   26.1046 F   0  0  0  0  0  0  0  0  0  0  0  0
  -22.9416   -4.8877   23.8313 F   0  0  0  0  0  0  0  0  0  0  0  0
  1  2  1  0  0  0  0
  1  5  2  0  0  0  0
  2  6  2  0  0  0  0
  3  8  2  0  0  0  0
  3 15  1  0  0  0  0
  4  9  1  0  0  0  0
  4 15  2  0  0  0  0
  5 17  1  0  0  0  0
  6 19  1  0  0  0  0
  7 10  2  0  0  0  0
  7 18  1  0  0  0  0
  8 21  1  0  0  0  0
  9 21  2  0  0  0  0
 10 22  1  0  0  0  0
 11 12  2  0  0  0  0
 11 23  1  0  0  0  0
 12 24  1  0  0  0  0
 13 20  1  0  0  0  0
 13 22  2  0  0  0  0
 14 24  2  0  0  0  0
 14 25  1  0  0  0  0
 15 26  1  0  0  0  0
 16 26  1  0  0  0  0
 16 27  2  0  0  0  0
 16 28  1  0  0  0  0
 17 19  2  0  0  0  0
 17 33  1  0  0  0  0
 18 20  2  0  0  0  0
 18 34  1  0  0  0  0
 19 46  1  0  0  0  0
 20 35  1  0  0  0  0
 21 79  1  0  0  0  0
 22 80  1  0  0  0  0
 23 25  2  0  0  0  0
 23 79  1  0  0  0  0
 24 81  1  0  0  0  0
 25 82  1  0  0  0  0
 26 64  2  0  0  0  0
 27 65  1  0  0  0  0
 27 68  1  0  0  0  0
 28 69  1  0  0  0  0
 28 74  2  0  0  0  0
 29 47  1  0  0  0  0
 29 70  1  0  0  0  0
 29 75  2  0  0  0  0
 30 60  1  0  0  0  0
 30 66  1  0  0  0  0
 30 76  2  0  0  0  0
 31 61  1  0  0  0  0
 31 71  1  0  0  0  0
 31 77  2  0  0  0  0
 32 67  1  0  0  0  0
 32 72  1  0  0  0  0
 32 78  2  0  0  0  0
 33 36  1  0  0  0  0
 34 47  1  0  0  0  0
 35 66  1  0  0  0  0
 36 38  1  0  0  0  0
 37 43  1  0  0  0  0
 37 44  1  0  0  0  0
 38 46  1  0  0  0  0
 39 41  1  0  0  0  0
 39 48  1  0  0  0  0
 40 42  1  0  0  0  0
 40 48  1  0  0  0  0
 41 49  1  0  0  0  0
 42 49  1  0  0  0  0
 43 50  1  0  0  0  0
 44 67  1  0  0  0  0
 45 50  1  0  0  0  0
 45 67  1  0  0  0  0
 46 70  1  0  0  0  0
 47 66  1  0  0  0  0
 48 57  1  0  0  0  0
 49 58  1  0  0  0  0
 50 65  1  0  0  0  0
 51 61  1  0  0  0  0
 52 62  1  0  0  0  0
 53 63  1  0  0  0  0
 54 63  1  0  0  0  0
 55 63  1  0  0  0  0
 56 73  1  0  0  0  0
 57 62  1  0  0  0  0
 58 72  1  0  0  0  0
 59 62  1  0  0  0  0
 59 80  1  0  0  0  0
 60 63  1  0  0  0  0
 60 71  1  0  0  0  0
 61 73  1  0  0  0  0
 64 65  1  0  0  0  0
M  CHG  1  73   1
M  ISO  4  32 100  59 101  72 100  80 101
M  END
> <Batch ID>
0037

> <Smiles>
CNC(C)C(=O)NC(C(=O)N1Cc2cc([101O:1][101CH2:1]C(C)CC3CCC(C[100NH:0][100C:0](=O)N4CCCC(n5nc(-c6ccc(Oc7ccc(F)cc7F)cc6)c(C(N)=O)c5N)C4)CC3)ccc2CC1C(=O)NC1CCCc2ccccc21)C(C)(C)C

> <Shape>
0.358

> <Color>
0.174

> <Negative vol penalty>
0.000

$$$$

  -OEChem-04052316593D

 86 94  0     1  0  0  0  0  0999 V2000
  -27.7306  -22.6851   15.4750 C   0  0  0  0  0  0  0  0  0  0  0  0
  -26.6949  -22.9670   16.3601 C   0  0  0  0  0  0  0  0  0  0  0  0
  -28.1043  -15.0525   21.1896 C   0  0  0  0  0  0  0  0  0  0  0  0
  -26.0454  -15.8453   20.2050 C   0  0  0  0  0  0  0  0  0  0  0  0
  -29.0531  -22.9019   15.8596 C   0  0  0  0  0  0  0  0  0  0  0  0
  -26.9812  -23.4648   17.6308 C   0  0  0  0  0  0  0  0  0  0  0  0
  -23.9702  -27.3238   18.9294 C   0  0  0  0  0  0  0  0  0  0  0  0
  -27.6323  -13.7417   21.1211 C   0  0  0  0  0  0  0  0  0  0  0  0
  -25.5734  -14.5345   20.1365 C   0  0  0  0  0  0  0  0  0  0  0  0
  -22.6789  -27.0099   19.3512 C   0  0  0  0  0  0  0  0  0  0  0  0
  -24.2169  -12.2618   22.2403 C   0  0  0  0  0  0  0  0  0  0  0  0
  -22.9054  -12.0230   22.6505 C   0  0  0  0  0  0  0  0  0  0  0  0
  -23.3740  -27.2630   21.6473 C   0  0  0  0  0  0  0  0  0  0  0  0
  -17.5289  -25.0968   21.2817 C   0  0  0  0  0  0  0  0  0  0  0  0
  -22.3668  -11.1939   20.4461 C   0  0  0  0  0  0  0  0  0  0  0  0
  -27.3108  -16.1043   20.7316 C   0  0  0  0  0  0  0  0  0  0  0  0
  -28.5328  -18.1502   19.8214 C   0  0  0  0  0  0  0  0  0  0  0  0
  -29.3553  -23.4117   17.1322 C   0  0  0  0  0  0  0  0  0  0  0  0
  -24.9774  -27.5995   19.8653 C   0  0  0  0  0  0  0  0  0  0  0  0
  -28.3091  -23.6873   18.0333 C   0  0  0  0  0  0  0  0  0  0  0  0
  -24.6765  -27.5827   21.2347 C   0  0  0  0  0  0  0  0  0  0  0  0
  -17.1777  -23.9820   22.0349 C   0  0  0  0  0  0  0  0  0  0  0  0
  -17.6785  -23.8348   23.3236 C   0  0  0  0  0  0  0  0  0  0  0  0
  -26.3669  -13.4827   20.5945 C   0  0  0  0  0  0  0  0  0  0  0  0
  -22.3814  -26.9766   20.7104 C   0  0  0  0  0  0  0  0  0  0  0  0
  -24.6035  -11.9668   20.9329 C   0  0  0  0  0  0  0  0  0  0  0  0
  -21.9803  -11.4890   21.7535 C   0  0  0  0  0  0  0  0  0  0  0  0
  -23.6784  -11.4327   20.0358 C   0  0  0  0  0  0  0  0  0  0  0  0
  -27.7975  -17.4586   20.8026 C   0  0  0  0  0  0  0  0  0  0  0  0
  -18.3771  -26.0282   21.8585 C   0  0  0  0  0  0  0  0  0  0  0  0
  -18.5202  -24.8227   23.8089 C   0  0  0  0  0  0  0  0  0  0  0  0
  -28.7494  -19.3921   20.3664 C   0  0  0  0  0  0  0  0  0  0  0  0
  -28.9800  -17.7094   18.5324 C   0  0  0  0  0  0  0  0  0  0  0  0
  -27.7621  -26.2665   20.6219 C   0  0  0  0  0  0  0  0  0  0  0  0
  -28.0318  -28.8550   22.5583 C   0  0  0  0  0  0  0  0  0  0  0  0
  -26.4772  -31.3364   24.3113 C   0  0  0  0  0  0  0  0  0  0  0  0
  -25.8345  -22.5951   24.5011 C   0  0  0  0  0  0  0  0  0  0  0  0
  -30.8025  -23.5849   17.5200 C   0  0  0  0  0  0  0  0  0  0  0  0
  -26.3586  -27.9626   19.3932 C   0  0  0  0  0  0  0  0  0  0  0  0
  -25.7171  -27.8908   22.2791 C   0  0  0  0  0  0  0  0  0  0  0  0
  -31.0023  -24.4678   18.7491 C   0  0  0  0  0  0  0  0  0  0  0  0
  -29.2505  -21.5947   24.5841 C   0  0  0  0  0  0  0  0  0  0  0  0
  -30.0337  -24.0671   19.8573 C   0  0  0  0  0  0  0  0  0  0  0  0
  -29.3318  -20.4836   23.5358 C   0  0  0  0  0  0  0  0  0  0  0  0
  -27.9238  -21.5617   25.3397 C   0  0  0  0  0  0  0  0  0  0  0  0
  -26.8043  -20.4690   23.4354 C   0  0  0  0  0  0  0  0  0  0  0  0
  -28.5782  -24.2518   19.4113 C   0  0  1  0  0  0  0  0  0  0  0  0
  -27.4333  -27.7224   20.4491 C   0  0  1  0  0  0  0  0  0  0  0  0
  -28.1014  -20.4961   22.6089 C   0  0  2  0  0  0  0  0  0  0  0  0
  -16.2673  -22.9603   21.4380 C   0  0  0  0  0  0  0  0  0  0  0  0
  -17.3172  -22.6507   24.1558 C   0  0  0  0  0  0  0  0  0  0  0  0
  -26.9599  -33.2767   25.8276 C   0  0  0  0  0  0  0  0  0  0  0  0
  -28.5582  -26.9223   24.8598 C   0  0  0  0  0  0  0  0  0  0  0  0
  -28.0875  -28.7976   26.4503 C   0  0  0  0  0  0  0  0  0  0  0  0
  -30.0028  -28.9638   24.8608 C   0  0  0  0  0  0  0  0  0  0  0  0
  -25.2688  -33.2649   22.4194 C   0  0  0  0  0  0  0  0  0  0  0  0
  -18.7788  -27.2517   21.0711 C   0  0  0  0  0  0  0  0  0  0  0  0
  -19.0884  -24.7208   25.1868 C   0  0  0  0  0  0  0  0  0  0  0  0
  -20.2525  -23.7226   25.2608 C   0  0  0  0  0  0  0  0  0  0  0  0
  -21.4179  -24.1446   24.3636 C   0  0  0  0  0  0  0  0  0  0  0  0
  -22.5568  -23.1220   24.4150 C   0  0  0  0  0  0  0  0  0  0  0  0
  -23.7413  -23.5199   23.5406 C   0  0  0  0  0  0  0  0  0  0  0  0
  -20.0475  -27.0259   20.2559 C   0  0  0  0  0  0  0  0  0  1  0  0
  -27.6412  -29.1705   23.9820 C   0  0  1  0  0  0  0  0  0  0  0  0
  -26.7391  -32.8295   24.3910 C   0  0  2  0  0  0  0  0  0  0  0  0
  -28.5531  -28.4558   25.0189 C   0  0  0  0  0  0  0  0  0  0  0  0
  -27.5629  -18.1996   21.8888 N   0  0  0  0  0  0  0  0  0  0  0  0
  -18.8836  -25.9195   23.1072 N   0  0  0  0  0  0  0  0  0  0  0  0
  -28.1542  -19.3697   21.5934 N   0  0  0  0  0  0  0  0  0  0  0  0
  -27.0544  -28.2341   21.7678 N   0  0  0  0  0  0  0  0  0  0  0  0
  -26.7975  -21.5772   24.4032 N   0  0  0  0  0  0  0  0  0  0  0  0
  -29.3892  -20.4903   19.9111 N   0  0  0  0  0  0  0  0  0  0  0  0
  -28.6711  -16.4033   18.1286 N   0  0  0  0  0  0  0  0  0  0  0  0
  -28.2056  -25.6490   19.4680 N   0  0  0  0  0  0  0  0  0  0  0  0
  -27.6380  -30.6252   24.0915 N   0  0  0  0  0  0  0  0  0  0  0  0
  -24.8036  -22.5393   23.5711 N   0  0  0  0  0  0  0  0  0  0  0  0
  -25.5835  -33.5885   23.8347 N   0  3  0  0  0  0  0  0  0  0  0  0
  -29.6483  -18.4463   17.7683 O   0  0  0  0  0  0  0  0  0  0  0  0
  -27.6250  -25.7425   21.7212 O   0  0  0  0  0  0  0  0  0  0  0  0
  -29.1601  -29.1551   22.1600 O   0  0  0  0  0  0  0  0  0  0  0  0
  -25.3557  -30.8492   24.4355 O   0  0  0  0  0  0  0  0  0  0  0  0
  -25.8923  -23.4905   25.3507 O   0  0  0  0  0  0  0  0  0  0  0  0
  -25.9062  -12.2037   20.5273 O   0  0  0  0  0  0  0  0  0  0  0  0
  -21.1220  -26.6699   21.1249 O   0  0  0  0  0  0  0  0  0  1  0  0
  -20.7212  -11.2583   22.1481 F   0  0  0  0  0  0  0  0  0  0  0  0
  -24.0441  -11.1461   18.7789 F   0  0  0  0  0  0  0  0  0  0  0  0
  1  2  1  0  0  0  0
  1  5  2  0  0  0  0
  2  6  2  0  0  0  0
  3  8  2  0  0  0  0
  3 16  1  0  0  0  0
  4  9  1  0  0  0  0
  4 16  2  0  0  0  0
  5 18  1  0  0  0  0
  6 20  1  0  0  0  0
  7 10  2  0  0  0  0
  7 19  1  0  0  0  0
  8 24  1  0  0  0  0
  9 24  2  0  0  0  0
 10 25  1  0  0  0  0
 11 12  2  0  0  0  0
 11 26  1  0  0  0  0
 12 27  1  0  0  0  0
 13 21  1  0  0  0  0
 13 25  2  0  0  0  0
 14 22  2  0  0  0  0
 14 30  1  0  0  0  0
 15 27  2  0  0  0  0
 15 28  1  0  0  0  0
 16 29  1  0  0  0  0
 17 29  1  0  0  0  0
 17 32  2  0  0  0  0
 17 33  1  0  0  0  0
 18 20  2  0  0  0  0
 18 38  1  0  0  0  0
 19 21  2  0  0  0  0
 19 39  1  0  0  0  0
 20 47  1  0  0  0  0
 21 40  1  0  0  0  0
 22 23  1  0  0  0  0
 22 50  1  0  0  0  0
 23 31  2  0  0  0  0
 23 51  1  0  0  0  0
 24 83  1  0  0  0  0
 25 84  1  0  0  0  0
 26 28  2  0  0  0  0
 26 83  1  0  0  0  0
 27 85  1  0  0  0  0
 28 86  1  0  0  0  0
 29 67  2  0  0  0  0
 30 57  1  0  0  0  0
 30 68  2  0  0  0  0
 31 58  1  0  0  0  0
 31 68  1  0  0  0  0
 32 69  1  0  0  0  0
 32 72  1  0  0  0  0
 33 73  1  0  0  0  0
 33 78  2  0  0  0  0
 34 48  1  0  0  0  0
 34 74  1  0  0  0  0
 34 79  2  0  0  0  0
 35 64  1  0  0  0  0
 35 70  1  0  0  0  0
 35 80  2  0  0  0  0
 36 65  1  0  0  0  0
 36 75  1  0  0  0  0
 36 81  2  0  0  0  0
 37 71  1  0  0  0  0
 37 76  1  0  0  0  0
 37 82  2  0  0  0  0
 38 41  1  0  0  0  0
 39 48  1  0  0  0  0
 40 70  1  0  0  0  0
 41 43  1  0  0  0  0
 42 44  1  0  0  0  0
 42 45  1  0  0  0  0
 43 47  1  0  0  0  0
 44 49  1  0  0  0  0
 45 71  1  0  0  0  0
 46 49  1  0  0  0  0
 46 71  1  0  0  0  0
 47 74  1  0  0  0  0
 48 70  1  0  0  0  0
 49 69  1  0  0  0  0
 52 65  1  0  0  0  0
 53 66  1  0  0  0  0
 54 66  1  0  0  0  0
 55 66  1  0  0  0  0
 56 77  1  0  0  0  0
 57 63  1  0  0  0  0
 58 59  1  0  0  0  0
 59 60  1  0  0  0  0
 60 61  1  0  0  0  0
 61 62  1  0  0  0  0
 62 76  1  0  0  0  0
 63 84  1  0  0  0  0
 64 66  1  0  0  0  0
 64 75  1  0  0  0  0
 65 77  1  0  0  0  0
 67 69  1  0  0  0  0
M  CHG  1  77   1
M  ISO  4  37 100  63 101  76 100  84 101
M  END
> <Batch ID>
0037

> <Smiles>
CNC(C)C(=O)NC(C(=O)N1Cc2cc([101O:1][101CH2:1]Cc3cc(C)c(C)c(CCCCC[100NH:0][100C:0](=O)N4CCCC(n5nc(-c6ccc(Oc7ccc(F)cc7F)cc6)c(C(N)=O)c5N)C4)n3)ccc2CC1C(=O)NC1CCCc2ccccc21)C(C)(C)C

> <Shape>
0.247

> <Color>
0.058

> <Negative vol penalty>
0.000

$$$$

  -OEChem-04052316593D

 86 94  0     1  0  0  0  0  0999 V2000
  -16.7652  -29.1409   24.1442 C   0  0  0  0  0  0  0  0  0  0  0  0
  -17.1539  -28.3311   23.0819 C   0  0  0  0  0  0  0  0  0  0  0  0
  -25.5601   -9.2533   21.5492 C   0  0  0  0  0  0  0  0  0  0  0  0
  -23.3853   -9.9195   22.3636 C   0  0  0  0  0  0  0  0  0  0  0  0
  -17.5404  -30.2444   24.4981 C   0  0  0  0  0  0  0  0  0  0  0  0
  -18.3177  -28.6250   22.3721 C   0  0  0  0  0  0  0  0  0  0  0  0
  -22.2145  -24.6179   19.8694 C   0  0  0  0  0  0  0  0  0  0  0  0
  -25.4666   -8.0641   22.2722 C   0  0  0  0  0  0  0  0  0  0  0  0
  -23.2917   -8.7303   23.0866 C   0  0  0  0  0  0  0  0  0  0  0  0
  -22.3635  -24.1425   18.5672 C   0  0  0  0  0  0  0  0  0  0  0  0
  -22.3232   -5.7082   24.8606 C   0  0  0  0  0  0  0  0  0  0  0  0
  -21.1178   -5.0084   24.8063 C   0  0  0  0  0  0  0  0  0  0  0  0
  -24.0838  -25.7864   18.1704 C   0  0  0  0  0  0  0  0  0  0  0  0
  -27.8226  -21.0009   18.4013 C   0  0  0  0  0  0  0  0  0  0  0  0
  -27.0609  -20.9706   16.1088 C   0  0  0  0  0  0  0  0  0  0  0  0
  -25.6398  -21.8724   17.8420 C   0  0  0  0  0  0  0  0  0  0  0  0
  -21.3538   -4.7879   22.4119 C   0  0  0  0  0  0  0  0  0  0  0  0
  -24.5195  -10.1810   21.5950 C   0  0  0  0  0  0  0  0  0  0  0  0
  -24.1899  -11.6369   19.5263 C   0  0  0  0  0  0  0  0  0  0  0  0
  -18.7194  -30.5464   23.7984 C   0  0  0  0  0  0  0  0  0  0  0  0
  -22.9927  -25.6900   20.3291 C   0  0  0  0  0  0  0  0  0  0  0  0
  -19.1087  -29.7343   22.7161 C   0  0  0  0  0  0  0  0  0  0  0  0
  -23.9445  -26.2718   19.4797 C   0  0  0  0  0  0  0  0  0  0  0  0
  -28.0424  -20.6902   17.0594 C   0  0  0  0  0  0  0  0  0  0  0  0
  -26.6213  -21.5920   18.7926 C   0  0  0  0  0  0  0  0  0  0  0  0
  -25.8596  -21.5617   16.5001 C   0  0  0  0  0  0  0  0  0  0  0  0
  -24.3324   -7.8026   23.0409 C   0  0  0  0  0  0  0  0  0  0  0  0
  -23.2962  -24.7287   17.7166 C   0  0  0  0  0  0  0  0  0  0  0  0
  -23.0438   -5.9480   23.6906 C   0  0  0  0  0  0  0  0  0  0  0  0
  -20.6331   -4.5482   23.5820 C   0  0  0  0  0  0  0  0  0  0  0  0
  -22.5591   -5.4878   22.4663 C   0  0  0  0  0  0  0  0  0  0  0  0
  -24.6157  -11.4098   20.8488 C   0  0  0  0  0  0  0  0  0  0  0  0
  -24.5021  -12.9527   19.2863 C   0  0  0  0  0  0  0  0  0  0  0  0
  -23.5676  -10.7388   18.5980 C   0  0  0  0  0  0  0  0  0  0  0  0
  -22.3705  -28.6241   21.3817 C   0  0  0  0  0  0  0  0  0  0  0  0
  -25.5550  -28.6575   21.9982 C   0  0  0  0  0  0  0  0  0  0  0  0
  -28.6554  -27.4167   21.2947 C   0  0  0  0  0  0  0  0  0  0  0  0
  -25.0572  -17.6118   22.6910 C   0  0  0  0  0  0  0  0  0  0  0  0
  -19.4995  -31.7771   24.1876 C   0  0  0  0  0  0  0  0  0  0  0  0
  -22.8386  -26.1736   21.7450 C   0  0  0  0  0  0  0  0  0  0  0  0
  -24.8187  -27.4121   19.9313 C   0  0  0  0  0  0  0  0  0  0  0  0
  -20.9176  -31.8032   23.6231 C   0  0  0  0  0  0  0  0  0  0  0  0
  -27.5845  -16.3720   20.5586 C   0  0  0  0  0  0  0  0  0  0  0  0
  -20.9104  -31.4292   22.1443 C   0  0  0  0  0  0  0  0  0  0  0  0
  -27.0690  -14.9637   20.2653 C   0  0  0  0  0  0  0  0  0  0  0  0
  -27.3565  -16.7752   22.0166 C   0  0  0  0  0  0  0  0  0  0  0  0
  -25.4377  -15.2206   22.1717 C   0  0  0  0  0  0  0  0  0  0  0  0
  -20.3777  -30.0062   21.9377 C   0  0  1  0  0  0  0  0  0  0  0  0
  -23.3230  -27.6066   21.9431 C   0  0  1  0  0  0  0  0  0  0  0  0
  -25.6005  -14.8140   20.6990 C   0  0  2  0  0  0  0  0  0  0  0  0
  -29.3273  -20.0585   16.6415 C   0  0  0  0  0  0  0  0  0  0  0  0
  -31.0690  -27.6664   21.9349 C   0  0  0  0  0  0  0  0  0  0  0  0
  -25.7135  -31.2417   20.3835 C   0  0  0  0  0  0  0  0  0  0  0  0
  -28.1937  -30.9259   20.2526 C   0  0  0  0  0  0  0  0  0  0  0  0
  -27.0920  -31.2292   22.4701 C   0  0  0  0  0  0  0  0  0  0  0  0
  -26.7885  -18.8305   24.0774 C   0  0  0  0  0  0  0  0  0  0  0  0
  -28.8212  -24.6097   22.2178 C   0  0  0  0  0  0  0  0  0  0  0  0
  -26.3859  -21.9248   20.2273 C   0  0  0  0  0  0  0  0  0  0  0  0
  -24.7988  -21.8646   15.4721 C   0  0  0  0  0  0  0  0  0  0  0  0
  -25.7268  -20.7665   20.9925 C   0  0  0  0  0  0  0  0  0  0  0  0
  -24.9239  -23.2570   14.8500 C   0  0  0  0  0  0  0  0  0  0  0  0
  -25.4565  -21.1342   22.4545 C   0  0  0  0  0  0  0  0  0  0  0  0
  -24.7900  -20.0027   23.2301 C   0  0  0  0  0  0  0  0  0  0  0  0
  -24.7375  -24.3869   15.8560 C   0  0  0  0  0  0  0  0  0  1  0  0
  -26.7898  -29.0504   21.2236 C   0  0  1  0  0  0  0  0  0  0  0  0
  -29.7702  -26.9200   22.1975 C   0  0  2  0  0  0  0  0  0  0  0  0
  -26.9296  -30.5916   21.0730 C   0  0  0  0  0  0  0  0  0  0  0  0
  -25.1573  -12.4944   21.4095 N   0  0  0  0  0  0  0  0  0  0  0  0
  -25.0740  -13.4157   20.4346 N   0  0  0  0  0  0  0  0  0  0  0  0
  -24.6261  -27.8535   21.3225 N   0  0  0  0  0  0  0  0  0  0  0  0
  -25.9535  -16.5721   22.4028 N   0  0  0  0  0  0  0  0  0  0  0  0
  -24.3405  -13.7473   18.2069 N   0  0  0  0  0  0  0  0  0  0  0  0
  -23.3183   -9.4218   19.0073 N   0  0  0  0  0  0  0  0  0  0  0  0
  -21.3949  -29.0323   22.2711 N   0  0  0  0  0  0  0  0  0  0  0  0
  -27.9150  -28.4114   21.8976 N   0  0  0  0  0  0  0  0  0  0  0  0
  -25.5920  -18.7873   23.2391 N   0  0  0  0  0  0  0  0  0  0  0  0
  -30.0099  -25.4664   21.9728 N   0  3  0  0  0  0  0  0  0  0  0  0
  -23.2573  -11.0891   17.4341 O   0  0  0  0  0  0  0  0  0  0  0  0
  -22.5113  -29.0113   20.2276 O   0  0  0  0  0  0  0  0  0  0  0  0
  -25.4231  -29.0437   23.1623 O   0  0  0  0  0  0  0  0  0  0  0  0
  -28.4632  -26.9697   20.1661 O   0  0  0  0  0  0  0  0  0  0  0  0
  -23.8434  -17.4946   22.4783 O   0  0  0  0  0  0  0  0  0  0  0  0
  -24.2407   -6.6422   23.7463 O   0  0  0  0  0  0  0  0  0  0  0  0
  -23.4432  -24.2671   16.4449 O   0  0  0  0  0  0  0  0  0  1  0  0
  -19.4763   -3.8749   23.5301 F   0  0  0  0  0  0  0  0  0  0  0  0
  -23.2476   -5.7140   21.3391 F   0  0  0  0  0  0  0  0  0  0  0  0
  1  2  1  0  0  0  0
  1  5  2  0  0  0  0
  2  6  2  0  0  0  0
  3  8  2  0  0  0  0
  3 18  1  0  0  0  0
  4  9  1  0  0  0  0
  4 18  2  0  0  0  0
  5 20  1  0  0  0  0
  6 22  1  0  0  0  0
  7 10  2  0  0  0  0
  7 21  1  0  0  0  0
  8 27  1  0  0  0  0
  9 27  2  0  0  0  0
 10 28  1  0  0  0  0
 11 12  2  0  0  0  0
 11 29  1  0  0  0  0
 12 30  1  0  0  0  0
 13 23  1  0  0  0  0
 13 28  2  0  0  0  0
 14 24  1  0  0  0  0
 14 25  2  0  0  0  0
 15 24  2  0  0  0  0
 15 26  1  0  0  0  0
 16 25  1  0  0  0  0
 16 26  2  0  0  0  0
 17 30  2  0  0  0  0
 17 31  1  0  0  0  0
 18 32  1  0  0  0  0
 19 32  1  0  0  0  0
 19 33  2  0  0  0  0
 19 34  1  0  0  0  0
 20 22  2  0  0  0  0
 20 39  1  0  0  0  0
 21 23  2  0  0  0  0
 21 40  1  0  0  0  0
 22 48  1  0  0  0  0
 23 41  1  0  0  0  0
 24 51  1  0  0  0  0
 25 58  1  0  0  0  0
 26 59  1  0  0  0  0
 27 83  1  0  0  0  0
 28 84  1  0  0  0  0
 29 31  2  0  0  0  0
 29 83  1  0  0  0  0
 30 85  1  0  0  0  0
 31 86  1  0  0  0  0
 32 68  2  0  0  0  0
 33 69  1  0  0  0  0
 33 72  1  0  0  0  0
 34 73  1  0  0  0  0
 34 78  2  0  0  0  0
 35 49  1  0  0  0  0
 35 74  1  0  0  0  0
 35 79  2  0  0  0  0
 36 65  1  0  0  0  0
 36 70  1  0  0  0  0
 36 80  2  0  0  0  0
 37 66  1  0  0  0  0
 37 75  1  0  0  0  0
 37 81  2  0  0  0  0
 38 71  1  0  0  0  0
 38 76  1  0  0  0  0
 38 82  2  0  0  0  0
 39 42  1  0  0  0  0
 40 49  1  0  0  0  0
 41 70  1  0  0  0  0
 42 44  1  0  0  0  0
 43 45  1  0  0  0  0
 43 46  1  0  0  0  0
 44 48  1  0  0  0  0
 45 50  1  0  0  0  0
 46 71  1  0  0  0  0
 47 50  1  0  0  0  0
 47 71  1  0  0  0  0
 48 74  1  0  0  0  0
 49 70  1  0  0  0  0
 50 69  1  0  0  0  0
 52 66  1  0  0  0  0
 53 67  1  0  0  0  0
 54 67  1  0  0  0  0
 55 67  1  0  0  0  0
 56 76  1  0  0  0  0
 57 77  1  0  0  0  0
 58 60  1  0  0  0  0
 59 61  1  0  0  0  0
 60 62  1  0  0  0  0
 61 64  1  0  0  0  0
 62 63  1  0  0  0  0
 63 76  1  0  0  0  0
 64 84  1  0  0  0  0
 65 67  1  0  0  0  0
 65 75  1  0  0  0  0
 66 77  1  0  0  0  0
 68 69  1  0  0  0  0
M  CHG  1  77   1
M  ISO  4  38 100  64 101  76 100  84 101
M  END
> <Batch ID>
0037

> <Smiles>
CNC(C)C(=O)NC(C(=O)N1Cc2cc([101O:1][101CH2:1]CCc3cc(C)cc(CCCC[100N:0](C)[100C:0](=O)N4CCCC(n5nc(-c6ccc(Oc7ccc(F)cc7F)cc6)c(C(N)=O)c5N)C4)c3)ccc2CC1C(=O)NC1CCCc2ccccc21)C(C)(C)C

> <Shape>
0.214

> <Color>
0.095

> <Negative vol penalty>
0.000

$$$$

  -OEChem-04052316593D

 87 95  0     1  0  0  0  0  0999 V2000
  -18.2787  -28.0280   22.9313 C   0  0  0  0  0  0  0  0  0  0  0  0
  -19.4930  -28.3749   23.5149 C   0  0  0  0  0  0  0  0  0  0  0  0
  -26.7081  -13.4797   21.4094 C   0  0  0  0  0  0  0  0  0  0  0  0
  -26.1864  -14.0243   19.1141 C   0  0  0  0  0  0  0  0  0  0  0  0
  -18.2378  -27.0491   21.9393 C   0  0  0  0  0  0  0  0  0  0  0  0
  -20.6670  -27.7423   23.1075 C   0  0  0  0  0  0  0  0  0  0  0  0
  -27.6653  -28.9921   22.2248 C   0  0  0  0  0  0  0  0  0  0  0  0
  -25.9666  -12.3035   21.2989 C   0  0  0  0  0  0  0  0  0  0  0  0
  -25.4449  -12.8480   19.0036 C   0  0  0  0  0  0  0  0  0  0  0  0
  -28.9065  -28.4670   22.5816 C   0  0  0  0  0  0  0  0  0  0  0  0
  -22.7108  -11.3976   21.3539 C   0  0  0  0  0  0  0  0  0  0  0  0
  -21.8390  -11.0816   22.3959 C   0  0  0  0  0  0  0  0  0  0  0  0
  -28.7256  -26.8470   20.8033 C   0  0  0  0  0  0  0  0  0  0  0  0
  -31.9947  -23.8548   24.3495 C   0  0  0  0  0  0  0  0  0  0  0  0
  -32.6551  -24.4529   22.1039 C   0  0  0  0  0  0  0  0  0  0  0  0
  -23.0389   -9.0189   22.7741 C   0  0  0  0  0  0  0  0  0  0  0  0
  -26.8180  -14.3402   20.3170 C   0  0  0  0  0  0  0  0  0  0  0  0
  -28.9542  -15.7256   20.1593 C   0  0  0  0  0  0  0  0  0  0  0  0
  -19.4131  -26.4110   21.5128 C   0  0  0  0  0  0  0  0  0  0  0  0
  -26.9387  -28.4406   21.1597 C   0  0  0  0  0  0  0  0  0  0  0  0
  -20.6416  -26.7530   22.1098 C   0  0  0  0  0  0  0  0  0  0  0  0
  -27.4765  -27.3685   20.4334 C   0  0  0  0  0  0  0  0  0  0  0  0
  -32.3380  -24.8267   23.4098 C   0  0  0  0  0  0  0  0  0  0  0  0
  -31.9684  -22.5091   23.9834 C   0  0  0  0  0  0  0  0  0  0  0  0
  -32.6288  -23.1072   21.7377 C   0  0  0  0  0  0  0  0  0  0  0  0
  -32.2854  -22.1353   22.6775 C   0  0  0  0  0  0  0  0  0  0  0  0
  -25.3351  -11.9876   20.0960 C   0  0  0  0  0  0  0  0  0  0  0  0
  -29.4356  -27.3924   21.8727 C   0  0  0  0  0  0  0  0  0  0  0  0
  -23.7465  -10.5242   21.0219 C   0  0  0  0  0  0  0  0  0  0  0  0
  -22.0031   -9.8923   23.1060 C   0  0  0  0  0  0  0  0  0  0  0  0
  -23.9106   -9.3349   21.7321 C   0  0  0  0  0  0  0  0  0  0  0  0
  -27.5833  -15.5557   20.4307 C   0  0  0  0  0  0  0  0  0  0  0  0
  -29.1936  -17.0529   20.4189 C   0  0  0  0  0  0  0  0  0  0  0  0
  -29.9243  -14.7692   19.7123 C   0  0  0  0  0  0  0  0  0  0  0  0
  -24.1139  -27.0114   20.8734 C   0  0  0  0  0  0  0  0  0  0  0  0
  -24.8038  -27.1459   17.7066 C   0  0  0  0  0  0  0  0  0  0  0  0
  -27.1793  -27.3550   15.2653 C   0  0  0  0  0  0  0  0  0  0  0  0
  -27.7491  -22.4284   20.0159 C   0  0  0  0  0  0  0  0  0  0  0  0
  -19.3126  -25.3254   20.4706 C   0  0  0  0  0  0  0  0  0  0  0  0
  -25.6132  -29.0356   20.7704 C   0  0  0  0  0  0  0  0  0  0  0  0
  -26.7456  -26.7535   19.2690 C   0  0  0  0  0  0  0  0  0  0  0  0
  -20.6521  -24.9690   19.8312 C   0  0  0  0  0  0  0  0  0  0  0  0
  -26.3016  -20.5420   22.6660 C   0  0  0  0  0  0  0  0  0  0  0  0
  -21.7266  -24.8019   20.9009 C   0  0  0  0  0  0  0  0  0  0  0  0
  -26.6136  -19.0911   22.2950 C   0  0  0  0  0  0  0  0  0  0  0  0
  -26.0018  -21.3883   21.4307 C   0  0  0  0  0  0  0  0  0  0  0  0
  -27.3498  -19.8913   20.0111 C   0  0  0  0  0  0  0  0  0  0  0  0
  -21.9399  -26.1069   21.6773 C   0  0  1  0  0  0  0  0  0  0  0  0
  -24.7272  -28.0653   19.9953 C   0  0  1  0  0  0  0  0  0  0  0  0
  -27.7136  -19.0115   21.2193 C   0  0  2  0  0  0  0  0  0  0  0  0
  -30.2141  -21.7417   25.6020 C   0  0  0  0  0  0  0  0  0  0  0  0
  -33.4815  -19.9343   22.7858 C   0  0  0  0  0  0  0  0  0  0  0  0
  -27.4405  -27.4054   12.7700 C   0  0  0  0  0  0  0  0  0  0  0  0
  -24.2881  -24.1406   17.5944 C   0  0  0  0  0  0  0  0  0  0  0  0
  -25.4596  -24.0927   15.3823 C   0  0  0  0  0  0  0  0  0  0  0  0
  -23.3715  -25.4294   15.6571 C   0  0  0  0  0  0  0  0  0  0  0  0
  -28.4221  -30.0401   15.3333 C   0  0  0  0  0  0  0  0  0  0  0  0
  -32.3671  -26.2828   23.8062 C   0  0  0  0  0  0  0  0  0  0  0  0
  -31.5963  -21.4880   25.0085 C   0  0  0  0  0  0  0  0  0  0  0  0
  -32.9724  -22.7330   20.3328 C   0  0  0  0  0  0  0  0  0  0  0  0
  -32.2567  -20.6924   22.2851 C   0  0  0  0  0  0  0  0  0  0  0  0
  -31.7246  -22.4080   19.4984 C   0  0  0  0  0  0  0  0  0  0  0  0
  -30.7874  -23.6145   19.3906 C   0  0  0  0  0  0  0  0  0  0  0  0
  -29.5461  -23.3200   18.5548 C   0  0  0  0  0  0  0  0  0  0  0  0
  -31.0221  -26.9688   23.5930 C   0  0  0  0  0  0  0  0  0  1  0  0
  -25.5131  -26.2417   16.7276 C   0  0  1  0  0  0  0  0  0  0  0  0
  -27.2832  -28.2365   14.0338 C   0  0  2  0  0  0  0  0  0  0  0  0
  -24.6712  -24.9862   16.3635 C   0  0  0  0  0  0  0  0  0  0  0  0
  -26.9933  -16.6847   20.8322 N   0  0  0  0  0  0  0  0  0  0  0  0
  -27.9983  -17.5768   20.8150 N   0  0  0  0  0  0  0  0  0  0  0  0
  -25.4504  -27.3665   18.9310 N   0  0  0  0  0  0  0  0  0  0  0  0
  -27.0840  -21.2701   20.4506 N   0  0  0  0  0  0  0  0  0  0  0  0
  -30.3080  -17.8113   20.3448 N   0  0  0  0  0  0  0  0  0  0  0  0
  -29.5092  -13.4485   19.4941 N   0  0  0  0  0  0  0  0  0  0  0  0
  -22.7325  -27.0344   20.8988 N   0  0  0  0  0  0  0  0  0  0  0  0
  -25.8673  -27.0758   15.5844 N   0  0  0  0  0  0  0  0  0  0  0  0
  -28.7663  -22.2268   19.0911 N   0  0  0  0  0  0  0  0  0  0  0  0
  -28.4573  -29.1474   14.1464 N   0  3  0  0  0  0  0  0  0  0  0  0
  -31.1274  -15.0730   19.5281 O   0  0  0  0  0  0  0  0  0  0  0  0
  -24.8402  -26.2340   21.4815 O   0  0  0  0  0  0  0  0  0  0  0  0
  -23.7196  -27.6440   17.3936 O   0  0  0  0  0  0  0  0  0  0  0  0
  -28.1638  -26.9511   15.8804 O   0  0  0  0  0  0  0  0  0  0  0  0
  -27.4614  -23.5581   20.4260 O   0  0  0  0  0  0  0  0  0  0  0  0
  -24.6116  -10.8398   19.9877 O   0  0  0  0  0  0  0  0  0  0  0  0
  -30.6467  -26.8776   22.2193 O   0  0  0  0  0  0  0  0  0  1  0  0
  -21.1668   -9.5897   24.1077 F   0  0  0  0  0  0  0  0  0  0  0  0
  -24.9045   -8.4925   21.4185 F   0  0  0  0  0  0  0  0  0  0  0  0
  1  2  1  0  0  0  0
  1  5  2  0  0  0  0
  2  6  2  0  0  0  0
  3  8  2  0  0  0  0
  3 17  1  0  0  0  0
  4  9  1  0  0  0  0
  4 17  2  0  0  0  0
  5 19  1  0  0  0  0
  6 21  1  0  0  0  0
  7 10  2  0  0  0  0
  7 20  1  0  0  0  0
  8 27  1  0  0  0  0
  9 27  2  0  0  0  0
 10 28  1  0  0  0  0
 11 12  2  0  0  0  0
 11 29  1  0  0  0  0
 12 30  1  0  0  0  0
 13 22  1  0  0  0  0
 13 28  2  0  0  0  0
 14 23  2  0  0  0  0
 14 24  1  0  0  0  0
 15 23  1  0  0  0  0
 15 25  2  0  0  0  0
 16 30  2  0  0  0  0
 16 31  1  0  0  0  0
 17 32  1  0  0  0  0
 18 32  1  0  0  0  0
 18 33  2  0  0  0  0
 18 34  1  0  0  0  0
 19 21  2  0  0  0  0
 19 39  1  0  0  0  0
 20 22  2  0  0  0  0
 20 40  1  0  0  0  0
 21 48  1  0  0  0  0
 22 41  1  0  0  0  0
 23 58  1  0  0  0  0
 24 26  2  0  0  0  0
 24 59  1  0  0  0  0
 25 26  1  0  0  0  0
 25 60  1  0  0  0  0
 26 61  1  0  0  0  0
 27 84  1  0  0  0  0
 28 85  1  0  0  0  0
 29 31  2  0  0  0  0
 29 84  1  0  0  0  0
 30 86  1  0  0  0  0
 31 87  1  0  0  0  0
 32 69  2  0  0  0  0
 33 70  1  0  0  0  0
 33 73  1  0  0  0  0
 34 74  1  0  0  0  0
 34 79  2  0  0  0  0
 35 49  1  0  0  0  0
 35 75  1  0  0  0  0
 35 80  2  0  0  0  0
 36 66  1  0  0  0  0
 36 71  1  0  0  0  0
 36 81  2  0  0  0  0
 37 67  1  0  0  0  0
 37 76  1  0  0  0  0
 37 82  2  0  0  0  0
 38 72  1  0  0  0  0
 38 77  1  0  0  0  0
 38 83  2  0  0  0  0
 39 42  1  0  0  0  0
 40 49  1  0  0  0  0
 41 71  1  0  0  0  0
 42 44  1  0  0  0  0
 43 45  1  0  0  0  0
 43 46  1  0  0  0  0
 44 48  1  0  0  0  0
 45 50  1  0  0  0  0
 46 72  1  0  0  0  0
 47 50  1  0  0  0  0
 47 72  1  0  0  0  0
 48 75  1  0  0  0  0
 49 71  1  0  0  0  0
 50 70  1  0  0  0  0
 51 59  1  0  0  0  0
 52 61  1  0  0  0  0
 53 67  1  0  0  0  0
 54 68  1  0  0  0  0
 55 68  1  0  0  0  0
 56 68  1  0  0  0  0
 57 78  1  0  0  0  0
 58 65  1  0  0  0  0
 60 62  1  0  0  0  0
 62 63  1  0  0  0  0
 63 64  1  0  0  0  0
 64 77  1  0  0  0  0
 65 85  1  0  0  0  0
 66 68  1  0  0  0  0
 66 76  1  0  0  0  0
 67 78  1  0  0  0  0
 69 70  1  0  0  0  0
M  CHG  1  78   1
M  ISO  4  38 100  65 101  77 100  85 101
M  END
> <Batch ID>
0037

> <Smiles>
CCc1cc(C[101CH2:1][101O:1]c2ccc3c(c2)CN(C(=O)C(NC(=O)C(C)NC)C(C)(C)C)C(C(=O)NC2CCCc4ccccc42)C3)cc(CCCC[100NH:0][100C:0](=O)N2CCCC(n3nc(-c4ccc(Oc5ccc(F)cc5F)cc4)c(C(N)=O)c3N)C2)c1CC

> <Shape>
0.228

> <Color>
0.068

> <Negative vol penalty>
0.000

$$$$

  -OEChem-04052316593D

 83 91  0     1  0  0  0  0  0999 V2000
  -17.5560  -30.2396   23.4265 C   0  0  0  0  0  0  0  0  0  0  0  0
  -18.8868  -30.4135   23.0602 C   0  0  0  0  0  0  0  0  0  0  0  0
  -25.1708  -16.3571   21.5361 C   0  0  0  0  0  0  0  0  0  0  0  0
  -25.2137  -16.0467   19.1405 C   0  0  0  0  0  0  0  0  0  0  0  0
  -17.0862  -28.9701   23.7604 C   0  0  0  0  0  0  0  0  0  0  0  0
  -19.7489  -29.3179   23.0285 C   0  0  0  0  0  0  0  0  0  0  0  0
  -24.3699  -28.3814   19.1202 C   0  0  0  0  0  0  0  0  0  0  0  0
  -32.0709  -27.7697   15.0254 C   0  0  0  0  0  0  0  0  0  0  0  0
  -32.1462  -26.6046   14.2622 C   0  0  0  0  0  0  0  0  0  0  0  0
  -23.9348  -15.7136   21.5974 C   0  0  0  0  0  0  0  0  0  0  0  0
  -23.9776  -15.4031   19.2018 C   0  0  0  0  0  0  0  0  0  0  0  0
  -25.7449  -28.5858   19.2271 C   0  0  0  0  0  0  0  0  0  0  0  0
  -20.9372  -13.8327   22.4291 C   0  0  0  0  0  0  0  0  0  0  0  0
  -20.7509  -12.8802   23.4309 C   0  0  0  0  0  0  0  0  0  0  0  0
  -26.0352  -26.2711   19.8412 C   0  0  0  0  0  0  0  0  0  0  0  0
  -32.2563  -26.4581   17.0459 C   0  0  0  0  0  0  0  0  0  0  0  0
  -22.5865  -11.5855   22.5413 C   0  0  0  0  0  0  0  0  0  0  0  0
  -25.8102  -16.5238   20.3076 C   0  0  0  0  0  0  0  0  0  0  0  0
  -28.3599  -16.5966   20.3430 C   0  0  0  0  0  0  0  0  0  0  0  0
  -17.9406  -27.8568   23.7234 C   0  0  0  0  0  0  0  0  0  0  0  0
  -23.8151  -27.1208   19.3840 C   0  0  0  0  0  0  0  0  0  0  0  0
  -19.2904  -28.0325   23.3634 C   0  0  0  0  0  0  0  0  0  0  0  0
  -24.6532  -26.0527   19.7344 C   0  0  0  0  0  0  0  0  0  0  0  0
  -32.1260  -27.6965   16.4173 C   0  0  0  0  0  0  0  0  0  0  0  0
  -32.2765  -25.3663   14.8908 C   0  0  0  0  0  0  0  0  0  0  0  0
  -32.3315  -25.2930   16.2827 C   0  0  0  0  0  0  0  0  0  0  0  0
  -23.3382  -15.2366   20.4302 C   0  0  0  0  0  0  0  0  0  0  0  0
  -26.5774  -27.5314   19.5904 C   0  0  0  0  0  0  0  0  0  0  0  0
  -21.9481  -13.6615   21.4833 C   0  0  0  0  0  0  0  0  0  0  0  0
  -21.5755  -11.7567   23.4871 C   0  0  0  0  0  0  0  0  0  0  0  0
  -22.7727  -12.5379   21.5394 C   0  0  0  0  0  0  0  0  0  0  0  0
  -27.0867  -17.1889   20.2436 C   0  0  0  0  0  0  0  0  0  0  0  0
  -29.2374  -17.6463   20.2218 C   0  0  0  0  0  0  0  0  0  0  0  0
  -28.7175  -15.2205   20.5281 C   0  0  0  0  0  0  0  0  0  0  0  0
  -21.7406  -25.9828   21.5066 C   0  0  0  0  0  0  0  0  0  0  0  0
  -22.0302  -23.2691   19.7531 C   0  0  0  0  0  0  0  0  0  0  0  0
  -23.9073  -21.3920   17.6084 C   0  0  0  0  0  0  0  0  0  0  0  0
  -30.8885  -22.1951   17.6667 C   0  0  0  0  0  0  0  0  0  0  0  0
  -17.3988  -26.5118   24.1384 C   0  0  0  0  0  0  0  0  0  0  0  0
  -22.3330  -26.9100   19.2382 C   0  0  0  0  0  0  0  0  0  0  0  0
  -24.1096  -24.6750   20.0084 C   0  0  0  0  0  0  0  0  0  0  0  0
  -18.2847  -25.3421   23.7175 C   0  0  0  0  0  0  0  0  0  0  0  0
  -28.4296  -22.6397   20.2846 C   0  0  0  0  0  0  0  0  0  0  0  0
  -19.7448  -25.6312   24.0512 C   0  0  0  0  0  0  0  0  0  0  0  0
  -27.9658  -21.2001   20.5140 C   0  0  0  0  0  0  0  0  0  0  0  0
  -28.6998  -22.9046   18.8064 C   0  0  0  0  0  0  0  0  0  0  0  0
  -29.2122  -20.5271   18.4084 C   0  0  0  0  0  0  0  0  0  0  0  0
  -20.2503  -26.8646   23.2932 C   0  0  1  0  0  0  0  0  0  0  0  0
  -21.8190  -25.7120   20.0307 C   0  0  1  0  0  0  0  0  0  0  0  0
  -28.9441  -20.1896   19.8863 C   0  0  2  0  0  0  0  0  0  0  0  0
  -32.3539  -24.1325   14.0527 C   0  0  0  0  0  0  0  0  0  0  0  0
  -23.8972  -19.2036   16.3803 C   0  0  0  0  0  0  0  0  0  0  0  0
  -22.6980  -21.8118   22.3494 C   0  0  0  0  0  0  0  0  0  0  0  0
  -23.5884  -19.9176   20.9756 C   0  0  0  0  0  0  0  0  0  0  0  0
  -21.1824  -20.5547   20.8076 C   0  0  0  0  0  0  0  0  0  0  0  0
  -24.0263  -22.7369   14.9747 C   0  0  0  0  0  0  0  0  0  0  0  0
  -32.0441  -28.9561   17.2422 C   0  0  0  0  0  0  0  0  0  0  0  0
  -32.4704  -23.9783   16.9776 C   0  0  0  0  0  0  0  0  0  0  0  0
  -30.6146  -29.3510   17.6291 C   0  0  0  0  0  0  0  0  0  0  0  0
  -29.9284  -28.3159   18.5216 C   0  0  0  0  0  0  0  0  0  0  0  0
  -28.4988  -28.7227   18.8522 C   0  0  0  0  0  0  0  0  0  1  0  0
  -22.9381  -22.0635   19.7911 C   0  0  1  0  0  0  0  0  0  0  0  0
  -23.5509  -20.6830   16.3143 C   0  0  2  0  0  0  0  0  0  0  0  0
  -22.6121  -21.1132   20.9777 C   0  0  0  0  0  0  0  0  0  0  0  0
  -27.1457  -18.5123   20.0727 N   0  0  0  0  0  0  0  0  0  0  0  0
  -28.4665  -18.7602   20.0637 N   0  0  0  0  0  0  0  0  0  0  0  0
  -22.6531  -24.5208   19.8588 N   0  0  0  0  0  0  0  0  0  0  0  0
  -29.6525  -21.9197   18.2749 N   0  0  0  0  0  0  0  0  0  0  0  0
  -30.5855  -17.7159   20.2362 N   0  0  0  0  0  0  0  0  0  0  0  0
  -27.6911  -14.2719   20.6334 N   0  0  0  0  0  0  0  0  0  0  0  0
  -20.5386  -26.5281   21.9155 N   0  0  0  0  0  0  0  0  0  0  0  0
  -22.8381  -21.4358   18.4779 N   0  0  0  0  0  0  0  0  0  0  0  0
  -31.2279  -23.5393   17.5730 N   0  0  0  0  0  0  0  0  0  0  0  0
  -24.2911  -21.2883   15.1712 N   0  3  0  0  0  0  0  0  0  0  0  0
  -29.9114  -14.8455   20.6146 O   0  0  0  0  0  0  0  0  0  0  0  0
  -22.6992  -25.7153   22.2216 O   0  0  0  0  0  0  0  0  0  0  0  0
  -20.8140  -23.1065   19.6270 O   0  0  0  0  0  0  0  0  0  0  0  0
  -25.0237  -21.8570   17.8276 O   0  0  0  0  0  0  0  0  0  0  0  0
  -31.6373  -21.3080   17.2430 O   0  0  0  0  0  0  0  0  0  0  0  0
  -22.1322  -14.6084   20.4897 O   0  0  0  0  0  0  0  0  0  0  0  0
  -27.9198  -27.7283   19.6962 O   0  0  0  0  0  0  0  0  0  1  0  0
  -21.3975  -10.8429   24.4502 F   0  0  0  0  0  0  0  0  0  0  0  0
  -23.7463  -12.3686   20.6343 F   0  0  0  0  0  0  0  0  0  0  0  0
  1  2  1  0  0  0  0
  1  5  2  0  0  0  0
  2  6  2  0  0  0  0
  3 10  2  0  0  0  0
  3 18  1  0  0  0  0
  4 11  1  0  0  0  0
  4 18  2  0  0  0  0
  5 20  1  0  0  0  0
  6 22  1  0  0  0  0
  7 12  2  0  0  0  0
  7 21  1  0  0  0  0
  8  9  2  0  0  0  0
  8 24  1  0  0  0  0
  9 25  1  0  0  0  0
 10 27  1  0  0  0  0
 11 27  2  0  0  0  0
 12 28  1  0  0  0  0
 13 14  2  0  0  0  0
 13 29  1  0  0  0  0
 14 30  1  0  0  0  0
 15 23  1  0  0  0  0
 15 28  2  0  0  0  0
 16 24  2  0  0  0  0
 16 26  1  0  0  0  0
 17 30  2  0  0  0  0
 17 31  1  0  0  0  0
 18 32  1  0  0  0  0
 19 32  1  0  0  0  0
 19 33  2  0  0  0  0
 19 34  1  0  0  0  0
 20 22  2  0  0  0  0
 20 39  1  0  0  0  0
 21 23  2  0  0  0  0
 21 40  1  0  0  0  0
 22 48  1  0  0  0  0
 23 41  1  0  0  0  0
 24 57  1  0  0  0  0
 25 26  2  0  0  0  0
 25 51  1  0  0  0  0
 26 58  1  0  0  0  0
 27 80  1  0  0  0  0
 28 81  1  0  0  0  0
 29 31  2  0  0  0  0
 29 80  1  0  0  0  0
 30 82  1  0  0  0  0
 31 83  1  0  0  0  0
 32 65  2  0  0  0  0
 33 66  1  0  0  0  0
 33 69  1  0  0  0  0
 34 70  1  0  0  0  0
 34 75  2  0  0  0  0
 35 49  1  0  0  0  0
 35 71  1  0  0  0  0
 35 76  2  0  0  0  0
 36 62  1  0  0  0  0
 36 67  1  0  0  0  0
 36 77  2  0  0  0  0
 37 63  1  0  0  0  0
 37 72  1  0  0  0  0
 37 78  2  0  0  0  0
 38 68  1  0  0  0  0
 38 73  1  0  0  0  0
 38 79  2  0  0  0  0
 39 42  1  0  0  0  0
 40 49  1  0  0  0  0
 41 67  1  0  0  0  0
 42 44  1  0  0  0  0
 43 45  1  0  0  0  0
 43 46  1  0  0  0  0
 44 48  1  0  0  0  0
 45 50  1  0  0  0  0
 46 68  1  0  0  0  0
 47 50  1  0  0  0  0
 47 68  1  0  0  0  0
 48 71  1  0  0  0  0
 49 67  1  0  0  0  0
 50 66  1  0  0  0  0
 52 63  1  0  0  0  0
 53 64  1  0  0  0  0
 54 64  1  0  0  0  0
 55 64  1  0  0  0  0
 56 74  1  0  0  0  0
 57 59  1  0  0  0  0
 58 73  1  0  0  0  0
 59 60  1  0  0  0  0
 60 61  1  0  0  0  0
 61 81  1  0  0  0  0
 62 64  1  0  0  0  0
 62 72  1  0  0  0  0
 63 74  1  0  0  0  0
 65 66  1  0  0  0  0
M  CHG  1  74   1
M  ISO  4  38 100  61 101  73 100  81 101
M  END
> <Batch ID>
0037

> <Smiles>
CNC(C)C(=O)NC(C(=O)N1Cc2cc([101O:1][101CH2:1]CCCc3ccc(C)c(C[100NH:0][100C:0](=O)N4CCCC(n5nc(-c6ccc(Oc7ccc(F)cc7F)cc6)c(C(N)=O)c5N)C4)c3)ccc2CC1C(=O)NC1CCCc2ccccc21)C(C)(C)C

> <Shape>
0.208

> <Color>
0.058

> <Negative vol penalty>
0.000

$$$$

  -OEChem-04052316593D

 85 93  0     1  0  0  0  0  0999 V2000
  -20.3809  -23.9644   18.8628 C   0  0  0  0  0  0  0  0  0  0  0  0
  -21.3692  -23.5678   19.7580 C   0  0  0  0  0  0  0  0  0  0  0  0
  -23.0368   -9.9007   19.9931 C   0  0  0  0  0  0  0  0  0  0  0  0
  -23.7343   -9.9942   22.3043 C   0  0  0  0  0  0  0  0  0  0  0  0
  -20.2394  -25.3120   18.5345 C   0  0  0  0  0  0  0  0  0  0  0  0
  -22.2174  -24.5185   20.3246 C   0  0  0  0  0  0  0  0  0  0  0  0
  -22.8535  -23.8343   25.3018 C   0  0  0  0  0  0  0  0  0  0  0  0
  -22.2826   -8.7598   20.2669 C   0  0  0  0  0  0  0  0  0  0  0  0
  -22.9801   -8.8533   22.5781 C   0  0  0  0  0  0  0  0  0  0  0  0
  -23.7304  -22.8258   25.6989 C   0  0  0  0  0  0  0  0  0  0  0  0
  -23.2748   -5.5116   22.1569 C   0  0  0  0  0  0  0  0  0  0  0  0
  -23.8673   -4.5133   22.9301 C   0  0  0  0  0  0  0  0  0  0  0  0
  -25.4467  -24.4773   26.0815 C   0  0  0  0  0  0  0  0  0  0  0  0
  -29.2887  -18.9937   22.0682 C   0  0  0  0  0  0  0  0  0  0  0  0
  -28.7531  -18.4749   24.7564 C   0  0  0  0  0  0  0  0  0  0  0  0
  -22.1208   -4.7563   24.5819 C   0  0  0  0  0  0  0  0  0  0  0  0
  -23.7627  -10.5180   21.0119 C   0  0  0  0  0  0  0  0  0  0  0  0
  -24.1161  -13.0358   20.8043 C   0  0  0  0  0  0  0  0  0  0  0  0
  -21.0801  -26.2809   19.1048 C   0  0  0  0  0  0  0  0  0  0  0  0
  -23.2706  -25.1729   25.2811 C   0  0  0  0  0  0  0  0  0  0  0  0
  -22.0879  -25.8802   20.0026 C   0  0  0  0  0  0  0  0  0  0  0  0
  -24.5723  -25.5011   25.6862 C   0  0  0  0  0  0  0  0  0  0  0  0
  -29.8519  -17.8788   22.6889 C   0  0  0  0  0  0  0  0  0  0  0  0
  -28.4577  -19.8493   22.7916 C   0  0  0  0  0  0  0  0  0  0  0  0
  -29.5841  -17.6193   24.0330 C   0  0  0  0  0  0  0  0  0  0  0  0
  -22.2542   -8.2360   21.5594 C   0  0  0  0  0  0  0  0  0  0  0  0
  -25.0282  -23.1469   26.0861 C   0  0  0  0  0  0  0  0  0  0  0  0
  -22.1055   -6.1324   22.5961 C   0  0  0  0  0  0  0  0  0  0  0  0
  -28.1900  -19.5898   24.1357 C   0  0  0  0  0  0  0  0  0  0  0  0
  -23.2903   -4.1356   24.1426 C   0  0  0  0  0  0  0  0  0  0  0  0
  -21.5285   -5.7547   23.8086 C   0  0  0  0  0  0  0  0  0  0  0  0
  -24.5425  -11.6963   20.7296 C   0  0  0  0  0  0  0  0  0  0  0  0
  -25.2202  -13.7682   20.4423 C   0  0  0  0  0  0  0  0  0  0  0  0
  -22.8365  -13.5703   21.1684 C   0  0  0  0  0  0  0  0  0  0  0  0
  -23.5831  -27.3904   23.0253 C   0  0  0  0  0  0  0  0  0  0  0  0
  -24.2540  -29.3102   25.5525 C   0  0  0  0  0  0  0  0  0  0  0  0
  -25.3550  -29.5837   28.7712 C   0  0  0  0  0  0  0  0  0  0  0  0
  -30.7002  -14.7812   20.7404 C   0  0  0  0  0  0  0  0  0  0  0  0
  -20.9197  -27.7200   18.6831 C   0  0  0  0  0  0  0  0  0  0  0  0
  -22.3042  -26.2518   24.8757 C   0  0  0  0  0  0  0  0  0  0  0  0
  -25.0629  -26.9250   25.7011 C   0  0  0  0  0  0  0  0  0  0  0  0
  -21.6161  -28.7089   19.6144 C   0  0  0  0  0  0  0  0  0  0  0  0
  -29.6197  -12.3092   18.4169 C   0  0  0  0  0  0  0  0  0  0  0  0
  -23.0310  -28.2364   19.9331 C   0  0  0  0  0  0  0  0  0  0  0  0
  -28.1701  -12.0357   18.8216 C   0  0  0  0  0  0  0  0  0  0  0  0
  -30.5047  -12.5740   19.6330 C   0  0  0  0  0  0  0  0  0  0  0  0
  -28.5686  -13.3622   20.9382 C   0  0  0  0  0  0  0  0  0  0  0  0
  -23.0113  -26.8848   20.6571 C   0  0  1  0  0  0  0  0  0  0  0  0
  -22.9959  -27.5263   24.4017 C   0  0  1  0  0  0  0  0  0  0  0  0
  -27.6261  -13.1447   19.7421 C   0  0  2  0  0  0  0  0  0  0  0  0
  -30.1754  -16.4320   24.7193 C   0  0  0  0  0  0  0  0  0  0  0  0
  -25.7709  -22.0423   21.0953 C   0  0  0  0  0  0  0  0  0  0  0  0
  -25.8301  -31.2861   30.5526 C   0  0  0  0  0  0  0  0  0  0  0  0
  -26.8288  -30.0928   24.1145 C   0  0  0  0  0  0  0  0  0  0  0  0
  -27.6815  -31.0045   26.2847 C   0  0  0  0  0  0  0  0  0  0  0  0
  -25.6429  -31.9877   25.2358 C   0  0  0  0  0  0  0  0  0  0  0  0
  -23.3484  -28.4025   30.5980 C   0  0  0  0  0  0  0  0  0  0  0  0
  -27.8626  -21.0376   22.1109 C   0  0  0  0  0  0  0  0  0  0  0  0
  -30.7397  -16.9776   21.8952 C   0  0  0  0  0  0  0  0  0  0  0  0
  -26.3842  -20.8188   21.7578 C   0  0  0  0  0  0  0  0  0  0  0  0
  -27.2755  -22.3822   26.2300 C   0  0  0  0  0  0  0  0  0  1  0  0
  -27.9538  -21.0453   26.0016 C   0  0  0  0  0  0  0  0  0  0  0  0
  -25.5085  -29.6972   26.2977 C   0  0  1  0  0  0  0  0  0  0  0  0
  -24.7975  -30.3362   29.9659 C   0  0  2  0  0  0  0  0  0  0  0  0
  -26.4071  -30.6684   25.4812 C   0  0  0  0  0  0  0  0  0  0  0  0
  -25.8179  -11.5815   20.3498 N   0  0  0  0  0  0  0  0  0  0  0  0
  -26.2024  -12.8583   20.1826 N   0  0  0  0  0  0  0  0  0  0  0  0
  -24.0825  -27.9436   25.2902 N   0  0  0  0  0  0  0  0  0  0  0  0
  -29.9338  -13.6371   20.4635 N   0  0  0  0  0  0  0  0  0  0  0  0
  -25.4369  -15.0954   20.3240 N   0  0  0  0  0  0  0  0  0  0  0  0
  -21.8128  -12.6771   21.5127 N   0  0  0  0  0  0  0  0  0  0  0  0
  -22.6608  -27.0626   22.0500 N   0  0  0  0  0  0  0  0  0  0  0  0
  -25.0717  -30.2270   27.5849 N   0  0  0  0  0  0  0  0  0  0  0  0
  -30.0816  -15.7431   21.5296 N   0  0  0  0  0  0  0  0  0  0  0  0
  -24.3792  -29.3810   31.0305 N   0  3  0  0  0  0  0  0  0  0  0  0
  -22.6029  -14.8027   21.1720 O   0  0  0  0  0  0  0  0  0  0  0  0
  -24.7839  -27.5712   22.8601 O   0  0  0  0  0  0  0  0  0  0  0  0
  -23.4522  -30.1873   25.2218 O   0  0  0  0  0  0  0  0  0  0  0  0
  -25.9824  -28.5325   28.8797 O   0  0  0  0  0  0  0  0  0  0  0  0
  -31.8486  -14.9364   20.3115 O   0  0  0  0  0  0  0  0  0  0  0  0
  -21.5181   -7.1228   21.8269 O   0  0  0  0  0  0  0  0  0  0  0  0
  -25.8864  -22.1644   26.4735 O   0  0  0  0  0  0  0  0  0  1  0  0
  -27.3772  -20.4207   24.8611 O   0  0  0  0  0  0  0  0  0  0  0  0
  -23.8584   -3.1758   24.8843 F   0  0  0  0  0  0  0  0  0  0  0  0
  -20.4044   -6.3467   24.2352 F   0  0  0  0  0  0  0  0  0  0  0  0
  1  2  1  0  0  0  0
  1  5  2  0  0  0  0
  2  6  2  0  0  0  0
  3  8  2  0  0  0  0
  3 17  1  0  0  0  0
  4  9  1  0  0  0  0
  4 17  2  0  0  0  0
  5 19  1  0  0  0  0
  6 21  1  0  0  0  0
  7 10  2  0  0  0  0
  7 20  1  0  0  0  0
  8 26  1  0  0  0  0
  9 26  2  0  0  0  0
 10 27  1  0  0  0  0
 11 12  2  0  0  0  0
 11 28  1  0  0  0  0
 12 30  1  0  0  0  0
 13 22  1  0  0  0  0
 13 27  2  0  0  0  0
 14 23  2  0  0  0  0
 14 24  1  0  0  0  0
 15 25  2  0  0  0  0
 15 29  1  0  0  0  0
 16 30  2  0  0  0  0
 16 31  1  0  0  0  0
 17 32  1  0  0  0  0
 18 32  1  0  0  0  0
 18 33  2  0  0  0  0
 18 34  1  0  0  0  0
 19 21  2  0  0  0  0
 19 39  1  0  0  0  0
 20 22  2  0  0  0  0
 20 40  1  0  0  0  0
 21 48  1  0  0  0  0
 22 41  1  0  0  0  0
 23 25  1  0  0  0  0
 23 59  1  0  0  0  0
 24 29  2  0  0  0  0
 24 58  1  0  0  0  0
 25 51  1  0  0  0  0
 26 81  1  0  0  0  0
 27 82  1  0  0  0  0
 28 31  2  0  0  0  0
 28 81  1  0  0  0  0
 29 83  1  0  0  0  0
 30 84  1  0  0  0  0
 31 85  1  0  0  0  0
 32 66  2  0  0  0  0
 33 67  1  0  0  0  0
 33 70  1  0  0  0  0
 34 71  1  0  0  0  0
 34 76  2  0  0  0  0
 35 49  1  0  0  0  0
 35 72  1  0  0  0  0
 35 77  2  0  0  0  0
 36 63  1  0  0  0  0
 36 68  1  0  0  0  0
 36 78  2  0  0  0  0
 37 64  1  0  0  0  0
 37 73  1  0  0  0  0
 37 79  2  0  0  0  0
 38 69  1  0  0  0  0
 38 74  1  0  0  0  0
 38 80  2  0  0  0  0
 39 42  1  0  0  0  0
 40 49  1  0  0  0  0
 41 68  1  0  0  0  0
 42 44  1  0  0  0  0
 43 45  1  0  0  0  0
 43 46  1  0  0  0  0
 44 48  1  0  0  0  0
 45 50  1  0  0  0  0
 46 69  1  0  0  0  0
 47 50  1  0  0  0  0
 47 69  1  0  0  0  0
 48 72  1  0  0  0  0
 49 68  1  0  0  0  0
 50 67  1  0  0  0  0
 52 60  1  0  0  0  0
 53 64  1  0  0  0  0
 54 65  1  0  0  0  0
 55 65  1  0  0  0  0
 56 65  1  0  0  0  0
 57 75  1  0  0  0  0
 58 60  1  0  0  0  0
 59 74  1  0  0  0  0
 61 62  1  0  0  0  0
 61 82  1  0  0  0  0
 62 83  1  0  0  0  0
 63 65  1  0  0  0  0
 63 73  1  0  0  0  0
 64 75  1  0  0  0  0
 66 67  1  0  0  0  0
M  CHG  1  75   1
M  ISO  4  38 100  61 101  74 100  82 101
M  END
> <Batch ID>
0037

> <Smiles>
CCCc1cc(C[100NH:0][100C:0](=O)N2CCCC(n3nc(-c4ccc(Oc5ccc(F)cc5F)cc4)c(C(N)=O)c3N)C2)c(C)cc1OC[101CH2:1][101O:1]c1ccc2c(c1)CN(C(=O)C(NC(=O)C(C)NC)C(C)(C)C)C(C(=O)NC1CCCc3ccccc31)C2

> <Shape>
0.236

> <Color>
0.217

> <Negative vol penalty>
0.000

$$$$

  -OEChem-04052316593D

 88 96  0     1  0  0  0  0  0999 V2000
  -22.2708  -13.1853   23.6468 C   0  0  0  0  0  0  0  0  0  0  0  0
  -23.0845  -14.2714   23.9527 C   0  0  0  0  0  0  0  0  0  0  0  0
  -22.2948  -28.4880   20.9272 C   0  0  0  0  0  0  0  0  0  0  0  0
  -23.6539  -28.7900   22.9017 C   0  0  0  0  0  0  0  0  0  0  0  0
  -22.5777  -12.3707   22.5577 C   0  0  0  0  0  0  0  0  0  0  0  0
  -24.2064  -14.5429   23.1703 C   0  0  0  0  0  0  0  0  0  0  0  0
  -24.6465  -19.4609   22.0456 C   0  0  0  0  0  0  0  0  0  0  0  0
  -21.2054  -28.1478   21.7291 C   0  0  0  0  0  0  0  0  0  0  0  0
  -22.5644  -28.4498   23.7036 C   0  0  0  0  0  0  0  0  0  0  0  0
  -25.1466  -20.2994   23.0409 C   0  0  0  0  0  0  0  0  0  0  0  0
  -18.9039  -29.7527   23.6160 C   0  0  0  0  0  0  0  0  0  0  0  0
  -17.6700  -30.3270   23.3108 C   0  0  0  0  0  0  0  0  0  0  0  0
  -27.3166  -20.2439   21.9886 C   0  0  0  0  0  0  0  0  0  0  0  0
  -16.7316  -28.1275   22.9658 C   0  0  0  0  0  0  0  0  0  0  0  0
  -23.5191  -28.8090   21.5135 C   0  0  0  0  0  0  0  0  0  0  0  0
  -25.0053  -30.4462   20.2413 C   0  0  0  0  0  0  0  0  0  0  0  0
  -23.6985  -12.6380   21.7558 C   0  0  0  0  0  0  0  0  0  0  0  0
  -25.4818  -18.9980   21.0187 C   0  0  0  0  0  0  0  0  0  0  0  0
  -24.5293  -13.7303   22.0703 C   0  0  0  0  0  0  0  0  0  0  0  0
  -26.8240  -19.4017   20.9801 C   0  0  0  0  0  0  0  0  0  0  0  0
  -21.3402  -28.1287   23.1173 C   0  0  0  0  0  0  0  0  0  0  0  0
  -26.4826  -20.6887   23.0141 C   0  0  0  0  0  0  0  0  0  0  0  0
  -19.0518  -28.3658   23.5960 C   0  0  0  0  0  0  0  0  0  0  0  0
  -16.5838  -29.5144   22.9857 C   0  0  0  0  0  0  0  0  0  0  0  0
  -17.9656  -27.5532   23.2710 C   0  0  0  0  0  0  0  0  0  0  0  0
  -24.6450  -29.1599   20.6857 C   0  0  0  0  0  0  0  0  0  0  0  0
  -26.1391  -30.2458   19.4925 C   0  0  0  0  0  0  0  0  0  0  0  0
  -28.7874  -23.7931   26.8628 C   0  0  0  0  0  0  0  0  0  0  0  0
  -28.7060  -22.7401   25.0623 C   0  0  0  0  0  0  0  0  0  0  0  0
  -24.3716  -31.7093   20.4837 C   0  0  0  0  0  0  0  0  0  0  0  0
  -26.4789  -16.1375   20.0559 C   0  0  0  0  0  0  0  0  0  0  0  0
  -27.7789  -17.8416   17.6211 C   0  0  0  0  0  0  0  0  0  0  0  0
  -28.9508  -20.8386   16.4846 C   0  0  0  0  0  0  0  0  0  0  0  0
  -30.3402  -25.9795   19.5171 C   0  0  0  0  0  0  0  0  0  0  0  0
  -24.0165  -11.7014   20.6172 C   0  0  0  0  0  0  0  0  0  0  0  0
  -24.9203  -18.1156   19.9377 C   0  0  0  0  0  0  0  0  0  0  0  0
  -27.7572  -18.9489   19.8880 C   0  0  0  0  0  0  0  0  0  0  0  0
  -25.0124  -12.2780   19.6142 C   0  0  0  0  0  0  0  0  0  0  0  0
  -28.2954  -26.9547   16.7704 C   0  0  0  0  0  0  0  0  0  0  0  0
  -26.1962  -12.9093   20.3401 C   0  0  0  0  0  0  0  0  0  0  0  0
  -27.1605  -27.7465   17.4223 C   0  0  0  0  0  0  0  0  0  0  0  0
  -28.7358  -25.7794   17.6404 C   0  0  0  0  0  0  0  0  0  0  0  0
  -27.9583  -26.9265   19.6784 C   0  0  0  0  0  0  0  0  0  0  0  0
  -25.7410  -14.0719   21.2305 C   0  0  1  0  0  0  0  0  0  0  0  0
  -25.9876  -17.2898   19.2261 C   0  0  1  0  0  0  0  0  0  0  0  0
  -27.5179  -28.1550   18.8640 C   0  0  2  0  0  0  0  0  0  0  0  0
  -26.5910  -31.3211   25.9164 C   0  0  0  0  0  0  0  0  0  0  0  0
  -29.9846  -21.9118   14.4654 C   0  0  0  0  0  0  0  0  0  0  0  0
  -30.4486  -16.5248   18.2910 C   0  0  0  0  0  0  0  0  0  0  0  0
  -31.5829  -18.2910   16.9264 C   0  0  0  0  0  0  0  0  0  0  0  0
  -29.9694  -16.7260   15.8448 C   0  0  0  0  0  0  0  0  0  0  0  0
  -26.6910  -22.7265   16.1874 C   0  0  0  0  0  0  0  0  0  0  0  0
  -28.4036  -24.2907   28.1891 C   0  0  0  0  0  0  0  0  0  0  0  0
  -28.3517  -21.8658   23.8955 C   0  0  0  0  0  0  0  0  0  1  0  0
  -26.1546  -30.1047   26.7173 C   0  0  0  0  0  0  0  0  0  0  0  0
  -27.3428  -25.4203   28.1887 C   0  0  0  0  0  0  0  0  0  0  0  0
  -27.1923  -28.9848   26.6450 C   0  0  0  0  0  0  0  0  0  0  0  0
  -27.7885  -26.6425   27.3798 C   0  0  0  0  0  0  0  0  0  0  0  0
  -26.7345  -27.7509   27.4243 C   0  0  0  0  0  0  0  0  0  0  0  0
  -30.8000  -24.8924   23.3450 C   0  0  0  0  0  0  0  0  0  0  0  0
  -31.8926  -24.9725   22.2747 C   0  0  0  0  0  0  0  0  0  0  0  0
  -30.8947  -23.5845   24.1348 C   0  0  0  0  0  0  0  0  0  0  0  0
  -31.8364  -26.2705   21.4757 C   0  0  0  0  0  0  0  0  0  0  0  0
  -29.1006  -18.5322   17.3858 C   0  0  1  0  0  0  0  0  0  0  0  0
  -28.6887  -21.6001   15.1977 C   0  0  2  0  0  0  0  0  0  0  0  0
  -30.2585  -17.5256   17.1338 C   0  0  0  0  0  0  0  0  0  0  0  0
  -25.4821  -28.2124   20.2551 N   0  0  0  0  0  0  0  0  0  0  0  0
  -28.0087  -22.9187   26.1601 N   0  0  0  0  0  0  0  0  0  0  0  0
  -29.9227  -24.1667   26.2687 N   0  0  0  0  0  0  0  0  0  0  0  0
  -26.3795  -28.9038   19.5321 N   0  0  0  0  0  0  0  0  0  0  0  0
  -29.8463  -23.4792   25.1191 N   0  0  0  0  0  0  0  0  0  0  0  0
  -27.1626  -18.0820   18.8573 N   0  0  0  0  0  0  0  0  0  0  0  0
  -29.0618  -26.2346   18.9940 N   0  0  0  0  0  0  0  0  0  0  0  0
  -26.9439  -31.0882   18.8106 N   0  0  0  0  0  0  0  0  0  0  0  0
  -23.2150  -31.7357   21.2748 N   0  0  0  0  0  0  0  0  0  0  0  0
  -25.4872  -15.2513   20.4311 N   0  0  0  0  0  0  0  0  0  0  0  0
  -28.8801  -19.4748   16.2944 N   0  0  0  0  0  0  0  0  0  0  0  0
  -30.5684  -26.4504   20.8043 N   0  0  0  0  0  0  0  0  0  0  0  0
  -27.9926  -22.8852   15.4890 N   0  3  0  0  0  0  0  0  0  0  0  0
  -24.8086  -32.7807   19.9991 O   0  0  0  0  0  0  0  0  0  0  0  0
  -27.6697  -16.0575   20.3338 O   0  0  0  0  0  0  0  0  0  0  0  0
  -27.3072  -17.1214   16.7378 O   0  0  0  0  0  0  0  0  0  0  0  0
  -29.1975  -21.3976   17.5509 O   0  0  0  0  0  0  0  0  0  0  0  0
  -31.2152  -25.3813   18.8820 O   0  0  0  0  0  0  0  0  0  0  0  0
  -20.2772  -27.7971   23.9001 O   0  0  0  0  0  0  0  0  0  0  0  0
  -26.9735  -21.5065   23.9847 O   0  0  0  0  0  0  0  0  0  1  0  0
  -15.3985  -30.0660   22.6941 F   0  0  0  0  0  0  0  0  0  0  0  0
  -18.1012  -26.2201   23.2513 F   0  0  0  0  0  0  0  0  0  0  0  0
  1  2  1  0  0  0  0
  1  5  2  0  0  0  0
  2  6  2  0  0  0  0
  3  8  2  0  0  0  0
  3 15  1  0  0  0  0
  4  9  1  0  0  0  0
  4 15  2  0  0  0  0
  5 17  1  0  0  0  0
  6 19  1  0  0  0  0
  7 10  2  0  0  0  0
  7 18  1  0  0  0  0
  8 21  1  0  0  0  0
  9 21  2  0  0  0  0
 10 22  1  0  0  0  0
 11 12  2  0  0  0  0
 11 23  1  0  0  0  0
 12 24  1  0  0  0  0
 13 20  1  0  0  0  0
 13 22  2  0  0  0  0
 14 24  2  0  0  0  0
 14 25  1  0  0  0  0
 15 26  1  0  0  0  0
 16 26  1  0  0  0  0
 16 27  2  0  0  0  0
 16 30  1  0  0  0  0
 17 19  2  0  0  0  0
 17 35  1  0  0  0  0
 18 20  2  0  0  0  0
 18 36  1  0  0  0  0
 19 44  1  0  0  0  0
 20 37  1  0  0  0  0
 21 85  1  0  0  0  0
 22 86  1  0  0  0  0
 23 25  2  0  0  0  0
 23 85  1  0  0  0  0
 24 87  1  0  0  0  0
 25 88  1  0  0  0  0
 26 67  2  0  0  0  0
 27 70  1  0  0  0  0
 27 74  1  0  0  0  0
 28 53  1  0  0  0  0
 28 68  1  0  0  0  0
 28 69  2  0  0  0  0
 29 54  1  0  0  0  0
 29 68  2  0  0  0  0
 29 71  1  0  0  0  0
 30 75  1  0  0  0  0
 30 80  2  0  0  0  0
 31 45  1  0  0  0  0
 31 76  1  0  0  0  0
 31 81  2  0  0  0  0
 32 64  1  0  0  0  0
 32 72  1  0  0  0  0
 32 82  2  0  0  0  0
 33 65  1  0  0  0  0
 33 77  1  0  0  0  0
 33 83  2  0  0  0  0
 34 73  1  0  0  0  0
 34 78  1  0  0  0  0
 34 84  2  0  0  0  0
 35 38  1  0  0  0  0
 36 45  1  0  0  0  0
 37 72  1  0  0  0  0
 38 40  1  0  0  0  0
 39 41  1  0  0  0  0
 39 42  1  0  0  0  0
 40 44  1  0  0  0  0
 41 46  1  0  0  0  0
 42 73  1  0  0  0  0
 43 46  1  0  0  0  0
 43 73  1  0  0  0  0
 44 76  1  0  0  0  0
 45 72  1  0  0  0  0
 46 70  1  0  0  0  0
 47 55  1  0  0  0  0
 48 65  1  0  0  0  0
 49 66  1  0  0  0  0
 50 66  1  0  0  0  0
 51 66  1  0  0  0  0
 52 79  1  0  0  0  0
 53 56  1  0  0  0  0
 54 86  1  0  0  0  0
 55 57  1  0  0  0  0
 56 58  1  0  0  0  0
 57 59  1  0  0  0  0
 58 59  1  0  0  0  0
 60 61  1  0  0  0  0
 60 62  1  0  0  0  0
 61 63  1  0  0  0  0
 62 71  1  0  0  0  0
 63 78  1  0  0  0  0
 64 66  1  0  0  0  0
 64 77  1  0  0  0  0
 65 79  1  0  0  0  0
 67 70  1  0  0  0  0
 69 71  1  0  0  0  0
M  CHG  1  79   1
M  ISO  4  34 100  54 101  78 100  86 101
M  END
> <Batch ID>
0037

> <Smiles>
CCCCCCCc1nc([101CH2:1][101O:1]c2ccc3c(c2)CN(C(=O)C(NC(=O)C(C)NC)C(C)(C)C)C(C(=O)NC2CCCc4ccccc42)C3)n(CCCC[100NH:0][100C:0](=O)N2CCCC(n3nc(-c4ccc(Oc5ccc(F)cc5F)cc4)c(C(N)=O)c3N)C2)n1

> <Shape>
0.219

> <Color>
0.077

> <Negative vol penalty>
0.000

$$$$

  -OEChem-04052316593D

 81 89  0     1  0  0  0  0  0999 V2000
  -17.2532  -29.1918   18.3110 C   0  0  0  0  0  0  0  0  0  0  0  0
  -18.5288  -28.7935   17.9242 C   0  0  0  0  0  0  0  0  0  0  0  0
  -23.9966  -24.6613   27.0792 C   0  0  0  0  0  0  0  0  0  0  0  0
  -25.7438  -26.2109   26.4602 C   0  0  0  0  0  0  0  0  0  0  0  0
  -17.0784  -30.3880   19.0056 C   0  0  0  0  0  0  0  0  0  0  0  0
  -19.6302  -29.5918   18.2308 C   0  0  0  0  0  0  0  0  0  0  0  0
  -25.2786  -27.6887   19.6381 C   0  0  0  0  0  0  0  0  0  0  0  0
  -24.0989  -25.0764   28.4069 C   0  0  0  0  0  0  0  0  0  0  0  0
  -25.8461  -26.6259   27.7879 C   0  0  0  0  0  0  0  0  0  0  0  0
  -26.4442  -27.5708   18.8822 C   0  0  0  0  0  0  0  0  0  0  0  0
  -26.3174  -28.3515   30.9531 C   0  0  0  0  0  0  0  0  0  0  0  0
  -26.3980  -29.7218   31.2006 C   0  0  0  0  0  0  0  0  0  0  0  0
  -27.1702  -29.7299   19.6762 C   0  0  0  0  0  0  0  0  0  0  0  0
  -31.1306  -25.3404   20.6267 C   0  0  0  0  0  0  0  0  0  0  0  0
  -24.2486  -30.0390   30.1441 C   0  0  0  0  0  0  0  0  0  0  0  0
  -30.5818  -25.8659   18.0059 C   0  0  0  0  0  0  0  0  0  0  0  0
  -24.8191  -25.2285   26.1058 C   0  0  0  0  0  0  0  0  0  0  0  0
  -23.8817  -25.3401   23.7359 C   0  0  0  0  0  0  0  0  0  0  0  0
  -18.1793  -31.1966   19.3293 C   0  0  0  0  0  0  0  0  0  0  0  0
  -25.0446  -28.8349   20.4114 C   0  0  0  0  0  0  0  0  0  0  0  0
  -19.4698  -30.8006   18.9292 C   0  0  0  0  0  0  0  0  0  0  0  0
  -26.0021  -29.8588   20.4429 C   0  0  0  0  0  0  0  0  0  0  0  0
  -31.1767  -26.6529   20.1700 C   0  0  0  0  0  0  0  0  0  0  0  0
  -30.8984  -26.9291   18.8360 C   0  0  0  0  0  0  0  0  0  0  0  0
  -25.0236  -26.0587   28.7613 C   0  0  0  0  0  0  0  0  0  0  0  0
  -27.3889  -28.5928   18.8989 C   0  0  0  0  0  0  0  0  0  0  0  0
  -25.2024  -27.8249   30.3010 C   0  0  0  0  0  0  0  0  0  0  0  0
  -25.3636  -30.5656   30.7961 C   0  0  0  0  0  0  0  0  0  0  0  0
  -24.1680  -28.6687   29.8966 C   0  0  0  0  0  0  0  0  0  0  0  0
  -24.7143  -24.7998   24.7342 C   0  0  0  0  0  0  0  0  0  0  0  0
  -30.8034  -24.3483   19.7165 C   0  0  0  0  0  0  0  0  0  0  0  0
  -24.1532  -24.5889   22.6186 C   0  0  0  0  0  0  0  0  0  0  0  0
  -22.9464  -26.4243   23.8118 C   0  0  0  0  0  0  0  0  0  0  0  0
  -22.8331  -31.1180   20.4260 C   0  0  0  0  0  0  0  0  0  0  0  0
  -24.3789  -32.0576   23.1186 C   0  0  0  0  0  0  0  0  0  0  0  0
  -27.2573  -32.0702   24.9520 C   0  0  0  0  0  0  0  0  0  0  0  0
  -28.9273  -21.4065   20.9064 C   0  0  0  0  0  0  0  0  0  0  0  0
  -17.9355  -32.5044   20.0400 C   0  0  0  0  0  0  0  0  0  0  0  0
  -23.7947  -28.9350   21.2420 C   0  0  0  0  0  0  0  0  0  0  0  0
  -25.8079  -31.1008   21.2725 C   0  0  0  0  0  0  0  0  0  0  0  0
  -19.1959  -33.1082   20.6539 C   0  0  0  0  0  0  0  0  0  0  0  0
  -25.5938  -20.2202   21.3031 C   0  0  0  0  0  0  0  0  0  0  0  0
  -20.3477  -33.0698   19.6545 C   0  0  0  0  0  0  0  0  0  0  0  0
  -24.9153  -21.3082   22.1374 C   0  0  0  0  0  0  0  0  0  0  0  0
  -27.0480  -20.0133   21.7210 C   0  0  0  0  0  0  0  0  0  0  0  0
  -27.1921  -22.3253   22.5621 C   0  0  0  0  0  0  0  0  0  0  0  0
  -20.6922  -31.6272   19.2650 C   0  0  1  0  0  0  0  0  0  0  0  0
  -23.4222  -30.3728   21.5902 C   0  0  1  0  0  0  0  0  0  0  0  0
  -25.7403  -22.6091   22.1400 C   0  0  2  0  0  0  0  0  0  0  0  0
  -31.5258  -27.7452   21.1257 C   0  0  0  0  0  0  0  0  0  0  0  0
  -28.2259  -32.9530   27.0921 C   0  0  0  0  0  0  0  0  0  0  0  0
  -24.6166  -34.8291   21.8649 C   0  0  0  0  0  0  0  0  0  0  0  0
  -26.3685  -35.3732   23.5687 C   0  0  0  0  0  0  0  0  0  0  0  0
  -24.0460  -34.8311   24.2998 C   0  0  0  0  0  0  0  0  0  0  0  0
  -27.7801  -29.3431   25.9760 C   0  0  0  0  0  0  0  0  0  0  0  0
  -30.9344  -28.3347   18.2870 C   0  0  0  0  0  0  0  0  0  0  0  0
  -30.7447  -22.9283   20.1714 C   0  0  0  0  0  0  0  0  0  0  0  0
  -29.6921  -29.1355   18.6617 C   0  0  0  0  0  0  0  0  0  1  0  0
  -25.5319  -32.9838   23.4214 C   0  0  1  0  0  0  0  0  0  0  0  0
  -27.5175  -31.7869   26.4205 C   0  0  2  0  0  0  0  0  0  0  0  0
  -25.1438  -34.4819   23.2714 C   0  0  0  0  0  0  0  0  0  0  0  0
  -30.5269  -24.5780   18.4132 N   0  0  0  0  0  0  0  0  0  0  0  0
  -25.4589  -23.7837   24.2903 N   0  0  0  0  0  0  0  0  0  0  0  0
  -25.0950  -23.6794   23.0008 N   0  0  0  0  0  0  0  0  0  0  0  0
  -24.5667  -31.1546   22.0625 N   0  0  0  0  0  0  0  0  0  0  0  0
  -27.7753  -21.2847   21.7009 N   0  0  0  0  0  0  0  0  0  0  0  0
  -23.6758  -24.6241   21.3564 N   0  0  0  0  0  0  0  0  0  0  0  0
  -22.7907  -27.0879   25.0364 N   0  0  0  0  0  0  0  0  0  0  0  0
  -21.4618  -30.9909   20.3125 N   0  0  0  0  0  0  0  0  0  0  0  0
  -26.0090  -32.6204   24.7513 N   0  0  0  0  0  0  0  0  0  0  0  0
  -29.5528  -22.6468   20.9400 N   0  0  0  0  0  0  0  0  0  0  0  0
  -28.3666  -30.5714   26.5711 N   0  3  0  0  0  0  0  0  0  0  0  0
  -22.2570  -26.7829   22.8271 O   0  0  0  0  0  0  0  0  0  0  0  0
  -23.5680  -31.7618   19.6864 O   0  0  0  0  0  0  0  0  0  0  0  0
  -23.3522  -32.1276   23.7988 O   0  0  0  0  0  0  0  0  0  0  0  0
  -28.0807  -31.8311   24.0714 O   0  0  0  0  0  0  0  0  0  0  0  0
  -29.3629  -20.4803   20.2141 O   0  0  0  0  0  0  0  0  0  0  0  0
  -25.1235  -26.4641   30.0568 O   0  0  0  0  0  0  0  0  0  0  0  0
  -28.5271  -28.4805   18.1616 O   0  0  0  0  0  0  0  0  0  1  0  0
  -25.4404  -31.8813   31.0352 F   0  0  0  0  0  0  0  0  0  0  0  0
  -23.0937  -28.1685   29.2707 F   0  0  0  0  0  0  0  0  0  0  0  0
  1  2  1  0  0  0  0
  1  5  2  0  0  0  0
  2  6  2  0  0  0  0
  3  8  2  0  0  0  0
  3 17  1  0  0  0  0
  4  9  1  0  0  0  0
  4 17  2  0  0  0  0
  5 19  1  0  0  0  0
  6 21  1  0  0  0  0
  7 10  2  0  0  0  0
  7 20  1  0  0  0  0
  8 25  1  0  0  0  0
  9 25  2  0  0  0  0
 10 26  1  0  0  0  0
 11 12  2  0  0  0  0
 11 27  1  0  0  0  0
 12 28  1  0  0  0  0
 13 22  1  0  0  0  0
 13 26  2  0  0  0  0
 14 23  1  0  0  0  0
 14 31  2  0  0  0  0
 15 28  2  0  0  0  0
 15 29  1  0  0  0  0
 16 24  1  0  0  0  0
 16 62  2  0  0  0  0
 17 30  1  0  0  0  0
 18 30  1  0  0  0  0
 18 32  2  0  0  0  0
 18 33  1  0  0  0  0
 19 21  2  0  0  0  0
 19 38  1  0  0  0  0
 20 22  2  0  0  0  0
 20 39  1  0  0  0  0
 21 47  1  0  0  0  0
 22 40  1  0  0  0  0
 23 24  2  0  0  0  0
 23 50  1  0  0  0  0
 24 56  1  0  0  0  0
 25 78  1  0  0  0  0
 26 79  1  0  0  0  0
 27 29  2  0  0  0  0
 27 78  1  0  0  0  0
 28 80  1  0  0  0  0
 29 81  1  0  0  0  0
 30 63  2  0  0  0  0
 31 57  1  0  0  0  0
 31 62  1  0  0  0  0
 32 64  1  0  0  0  0
 32 67  1  0  0  0  0
 33 68  1  0  0  0  0
 33 73  2  0  0  0  0
 34 48  1  0  0  0  0
 34 69  1  0  0  0  0
 34 74  2  0  0  0  0
 35 59  1  0  0  0  0
 35 65  1  0  0  0  0
 35 75  2  0  0  0  0
 36 60  1  0  0  0  0
 36 70  1  0  0  0  0
 36 76  2  0  0  0  0
 37 66  1  0  0  0  0
 37 71  1  0  0  0  0
 37 77  2  0  0  0  0
 38 41  1  0  0  0  0
 39 48  1  0  0  0  0
 40 65  1  0  0  0  0
 41 43  1  0  0  0  0
 42 44  1  0  0  0  0
 42 45  1  0  0  0  0
 43 47  1  0  0  0  0
 44 49  1  0  0  0  0
 45 66  1  0  0  0  0
 46 49  1  0  0  0  0
 46 66  1  0  0  0  0
 47 69  1  0  0  0  0
 48 65  1  0  0  0  0
 49 64  1  0  0  0  0
 51 60  1  0  0  0  0
 52 61  1  0  0  0  0
 53 61  1  0  0  0  0
 54 61  1  0  0  0  0
 55 72  1  0  0  0  0
 56 58  1  0  0  0  0
 57 71  1  0  0  0  0
 58 79  1  0  0  0  0
 59 61  1  0  0  0  0
 59 70  1  0  0  0  0
 60 72  1  0  0  0  0
 63 64  1  0  0  0  0
M  CHG  1  72   1
M  ISO  4  37 100  58 101  71 100  79 101
M  END
> <Batch ID>
0037

> <Smiles>
CNC(C)C(=O)NC(C(=O)N1Cc2cc([101O:1][101CH2:1]Cc3cnc(C[100NH:0][100C:0](=O)N4CCCC(n5nc(-c6ccc(Oc7ccc(F)cc7F)cc6)c(C(N)=O)c5N)C4)cc3C)ccc2CC1C(=O)NC1CCCc2ccccc21)C(C)(C)C

> <Shape>
0.189

> <Color>
0.075

> <Negative vol penalty>
0.000

$$$$

  -OEChem-04052316593D

 83 91  0     1  0  0  0  0  0999 V2000
  -16.6205  -28.9894   23.6129 C   0  0  0  0  0  0  0  0  0  0  0  0
  -17.2590  -28.4392   22.5061 C   0  0  0  0  0  0  0  0  0  0  0  0
  -26.3298  -12.4334   20.0901 C   0  0  0  0  0  0  0  0  0  0  0  0
  -24.6426  -14.1373   20.3851 C   0  0  0  0  0  0  0  0  0  0  0  0
  -17.2289  -30.0219   24.3254 C   0  0  0  0  0  0  0  0  0  0  0  0
  -18.5059  -28.9221   22.1105 C   0  0  0  0  0  0  0  0  0  0  0  0
  -21.7635  -25.2081   20.9971 C   0  0  0  0  0  0  0  0  0  0  0  0
  -25.5786  -11.5543   20.8701 C   0  0  0  0  0  0  0  0  0  0  0  0
  -23.8913  -13.2582   21.1652 C   0  0  0  0  0  0  0  0  0  0  0  0
  -21.6196  -24.5852   19.7581 C   0  0  0  0  0  0  0  0  0  0  0  0
  -22.8671   -9.5723   20.4793 C   0  0  0  0  0  0  0  0  0  0  0  0
  -22.7144   -8.2649   20.0180 C   0  0  0  0  0  0  0  0  0  0  0  0
  -23.4223  -25.9269   18.8810 C   0  0  0  0  0  0  0  0  0  0  0  0
  -24.6000  -23.2200   15.5855 C   0  0  0  0  0  0  0  0  0  0  0  0
  -23.7787   -7.4337   22.0214 C   0  0  0  0  0  0  0  0  0  0  0  0
  -24.5585  -21.1601   16.7736 C   0  0  0  0  0  0  0  0  0  0  0  0
  -25.8619  -13.7249   19.8476 C   0  0  0  0  0  0  0  0  0  0  0  0
  -26.5670  -14.8055   17.6470 C   0  0  0  0  0  0  0  0  0  0  0  0
  -18.4882  -30.5111   23.9441 C   0  0  0  0  0  0  0  0  0  0  0  0
  -22.7322  -26.2045   21.1846 C   0  0  0  0  0  0  0  0  0  0  0  0
  -19.1311  -29.9630   22.8177 C   0  0  0  0  0  0  0  0  0  0  0  0
  -23.5782  -26.5591   20.1241 C   0  0  0  0  0  0  0  0  0  0  0  0
  -23.8642  -22.2144   16.2025 C   0  0  0  0  0  0  0  0  0  0  0  0
  -24.3593  -11.9667   21.4076 C   0  0  0  0  0  0  0  0  0  0  0  0
  -22.4472  -24.9466   18.6991 C   0  0  0  0  0  0  0  0  0  0  0  0
  -23.4757   -9.8105   21.7116 C   0  0  0  0  0  0  0  0  0  0  0  0
  -23.1702   -7.1956   20.7890 C   0  0  0  0  0  0  0  0  0  0  0  0
  -23.9314   -8.7412   22.4827 C   0  0  0  0  0  0  0  0  0  0  0  0
  -25.9880  -23.1418   15.5590 C   0  0  0  0  0  0  0  0  0  0  0  0
  -26.6378  -14.6336   19.0424 C   0  0  0  0  0  0  0  0  0  0  0  0
  -26.5872  -22.0461   16.1591 C   0  0  0  0  0  0  0  0  0  0  0  0
  -27.4987  -15.7767   17.3730 C   0  0  0  0  0  0  0  0  0  0  0  0
  -25.7335  -14.1462   16.6845 C   0  0  0  0  0  0  0  0  0  0  0  0
  -22.6587  -29.2889   21.9492 C   0  0  0  0  0  0  0  0  0  0  0  0
  -25.8836  -28.9469   22.0245 C   0  0  0  0  0  0  0  0  0  0  0  0
  -28.6396  -27.2253   20.9818 C   0  0  0  0  0  0  0  0  0  0  0  0
  -29.6924  -20.6317   19.6381 C   0  0  0  0  0  0  0  0  0  0  0  0
  -19.0849  -31.6605   24.7170 C   0  0  0  0  0  0  0  0  0  0  0  0
  -22.8925  -26.8479   22.5347 C   0  0  0  0  0  0  0  0  0  0  0  0
  -24.6473  -27.6085   20.2793 C   0  0  0  0  0  0  0  0  0  0  0  0
  -20.5757  -31.8609   24.4567 C   0  0  0  0  0  0  0  0  0  0  0  0
  -31.4748  -17.5505   19.7152 C   0  0  0  0  0  0  0  0  0  0  0  0
  -20.8679  -31.8093   22.9604 C   0  0  0  0  0  0  0  0  0  0  0  0
  -30.4026  -16.5002   19.4199 C   0  0  0  0  0  0  0  0  0  0  0  0
  -30.9257  -18.6939   20.5656 C   0  0  0  0  0  0  0  0  0  0  0  0
  -28.6422  -18.2897   19.7314 C   0  0  0  0  0  0  0  0  0  0  0  0
  -20.4954  -30.4430   22.3723 C   0  0  1  0  0  0  0  0  0  0  0  0
  -23.5699  -28.2133   22.4693 C   0  0  1  0  0  0  0  0  0  0  0  0
  -29.1339  -17.1446   18.8296 C   0  0  2  0  0  0  0  0  0  0  0  0
  -31.1411  -27.2049   21.1800 C   0  0  0  0  0  0  0  0  0  0  0  0
  -26.0533  -31.3044   20.0948 C   0  0  0  0  0  0  0  0  0  0  0  0
  -28.4151  -30.6384   19.5985 C   0  0  0  0  0  0  0  0  0  0  0  0
  -27.7723  -31.3173   21.9112 C   0  0  0  0  0  0  0  0  0  0  0  0
  -28.6364  -24.5323   22.2094 C   0  0  0  0  0  0  0  0  0  0  0  0
  -22.3565  -22.2691   16.2481 C   0  0  0  0  0  0  0  0  0  0  0  0
  -28.0739  -21.8950   16.1685 C   0  0  0  0  0  0  0  0  0  0  0  0
  -28.7917  -22.7432   17.2351 C   0  0  0  0  0  0  0  0  0  0  0  0
  -28.3371  -22.4701   18.6673 C   0  0  0  0  0  0  0  0  0  0  0  0
  -21.8398  -22.9928   17.4868 C   0  0  0  0  0  0  0  0  0  1  0  0
  -26.9971  -29.0842   21.0144 C   0  0  1  0  0  0  0  0  0  0  0  0
  -29.8318  -26.6755   21.7440 C   0  0  2  0  0  0  0  0  0  0  0  0
  -27.2881  -30.5676   20.6510 C   0  0  0  0  0  0  0  0  0  0  0  0
  -25.9059  -21.0496   16.7678 N   0  0  0  0  0  0  0  0  0  0  0  0
  -27.5430  -15.4316   19.6150 N   0  0  0  0  0  0  0  0  0  0  0  0
  -28.0497  -16.1142   18.5741 N   0  0  0  0  0  0  0  0  0  0  0  0
  -24.7605  -28.2132   21.6169 N   0  0  0  0  0  0  0  0  0  0  0  0
  -29.7243  -19.2624   19.9498 N   0  0  0  0  0  0  0  0  0  0  0  0
  -27.8922  -16.3664   16.2241 N   0  0  0  0  0  0  0  0  0  0  0  0
  -24.8314  -13.1735   17.1367 N   0  0  0  0  0  0  0  0  0  0  0  0
  -21.5082  -29.4608   22.6949 N   0  0  0  0  0  0  0  0  0  0  0  0
  -28.1416  -28.3692   21.5688 N   0  0  0  0  0  0  0  0  0  0  0  0
  -28.5186  -21.0878   19.0510 N   0  0  0  0  0  0  0  0  0  0  0  0
  -29.8544  -25.1873   21.6669 N   0  3  0  0  0  0  0  0  0  0  0  0
  -25.7987  -14.4000   15.4578 O   0  0  0  0  0  0  0  0  0  0  0  0
  -22.9768  -29.9174   20.9464 O   0  0  0  0  0  0  0  0  0  0  0  0
  -26.0088  -29.4654   23.1367 O   0  0  0  0  0  0  0  0  0  0  0  0
  -28.1969  -26.6952   19.9652 O   0  0  0  0  0  0  0  0  0  0  0  0
  -30.6420  -21.3903   19.8612 O   0  0  0  0  0  0  0  0  0  0  0  0
  -23.6258  -11.1091   22.1686 O   0  0  0  0  0  0  0  0  0  0  0  0
  -22.3085  -24.3406   17.4885 O   0  0  0  0  0  0  0  0  0  1  0  0
  -23.0221   -5.9400   20.3466 F   0  0  0  0  0  0  0  0  0  0  0  0
  -24.5158   -8.9637   23.6679 F   0  0  0  0  0  0  0  0  0  0  0  0
  -26.8960  -24.3878   14.7957 Cl  0  0  0  0  0  0  0  0  0  0  0  0
  1  2  1  0  0  0  0
  1  5  2  0  0  0  0
  2  6  2  0  0  0  0
  3  8  2  0  0  0  0
  3 17  1  0  0  0  0
  4  9  1  0  0  0  0
  4 17  2  0  0  0  0
  5 19  1  0  0  0  0
  6 21  1  0  0  0  0
  7 10  2  0  0  0  0
  7 20  1  0  0  0  0
  8 24  1  0  0  0  0
  9 24  2  0  0  0  0
 10 25  1  0  0  0  0
 11 12  2  0  0  0  0
 11 26  1  0  0  0  0
 12 27  1  0  0  0  0
 13 22  1  0  0  0  0
 13 25  2  0  0  0  0
 14 23  2  0  0  0  0
 14 29  1  0  0  0  0
 15 27  2  0  0  0  0
 15 28  1  0  0  0  0
 16 23  1  0  0  0  0
 16 63  2  0  0  0  0
 17 30  1  0  0  0  0
 18 30  1  0  0  0  0
 18 32  2  0  0  0  0
 18 33  1  0  0  0  0
 19 21  2  0  0  0  0
 19 38  1  0  0  0  0
 20 22  2  0  0  0  0
 20 39  1  0  0  0  0
 21 47  1  0  0  0  0
 22 40  1  0  0  0  0
 23 55  1  0  0  0  0
 24 79  1  0  0  0  0
 25 80  1  0  0  0  0
 26 28  2  0  0  0  0
 26 79  1  0  0  0  0
 27 81  1  0  0  0  0
 28 82  1  0  0  0  0
 29 31  2  0  0  0  0
 29 83  1  0  0  0  0
 30 64  2  0  0  0  0
 31 56  1  0  0  0  0
 31 63  1  0  0  0  0
 32 65  1  0  0  0  0
 32 68  1  0  0  0  0
 33 69  1  0  0  0  0
 33 74  2  0  0  0  0
 34 48  1  0  0  0  0
 34 70  1  0  0  0  0
 34 75  2  0  0  0  0
 35 60  1  0  0  0  0
 35 66  1  0  0  0  0
 35 76  2  0  0  0  0
 36 61  1  0  0  0  0
 36 71  1  0  0  0  0
 36 77  2  0  0  0  0
 37 67  1  0  0  0  0
 37 72  1  0  0  0  0
 37 78  2  0  0  0  0
 38 41  1  0  0  0  0
 39 48  1  0  0  0  0
 40 66  1  0  0  0  0
 41 43  1  0  0  0  0
 42 44  1  0  0  0  0
 42 45  1  0  0  0  0
 43 47  1  0  0  0  0
 44 49  1  0  0  0  0
 45 67  1  0  0  0  0
 46 49  1  0  0  0  0
 46 67  1  0  0  0  0
 47 70  1  0  0  0  0
 48 66  1  0  0  0  0
 49 65  1  0  0  0  0
 50 61  1  0  0  0  0
 51 62  1  0  0  0  0
 52 62  1  0  0  0  0
 53 62  1  0  0  0  0
 54 73  1  0  0  0  0
 55 59  1  0  0  0  0
 56 57  1  0  0  0  0
 57 58  1  0  0  0  0
 58 72  1  0  0  0  0
 59 80  1  0  0  0  0
 60 62  1  0  0  0  0
 60 71  1  0  0  0  0
 61 73  1  0  0  0  0
 64 65  1  0  0  0  0
M  CHG  1  73   1
M  ISO  4  37 100  59 101  72 100  80 101
M  END
> <Batch ID>
0037

> <Smiles>
CNC(C)C(=O)NC(C(=O)N1Cc2cc([101O:1][101CH2:1]Cc3cnc(CCC[100NH:0][100C:0](=O)N4CCCC(n5nc(-c6ccc(Oc7ccc(F)cc7F)cc6)c(C(N)=O)c5N)C4)c(Cl)c3)ccc2CC1C(=O)NC1CCCc2ccccc21)C(C)(C)C

> <Shape>
0.249

> <Color>
0.087

> <Negative vol penalty>
0.000

$$$$

  -OEChem-04052316593D

 88 97  0     1  0  0  0  0  0999 V2000
  -18.6934  -28.6551   22.7307 C   0  0  0  0  0  0  0  0  0  0  0  0
  -19.2021  -28.1264   21.5487 C   0  0  0  0  0  0  0  0  0  0  0  0
  -27.1662  -23.6649   21.0978 C   0  0  0  0  0  0  0  0  0  0  0  0
  -28.9641  -23.2946   19.5270 C   0  0  0  0  0  0  0  0  0  0  0  0
  -18.6975  -27.8878   23.8948 C   0  0  0  0  0  0  0  0  0  0  0  0
  -19.7163  -26.8304   21.5304 C   0  0  0  0  0  0  0  0  0  0  0  0
  -20.3516  -21.1365   17.2301 C   0  0  0  0  0  0  0  0  0  0  0  0
  -27.3524  -25.0427   20.9861 C   0  0  0  0  0  0  0  0  0  0  0  0
  -29.1503  -24.6724   19.4152 C   0  0  0  0  0  0  0  0  0  0  0  0
  -21.3179  -20.2582   16.7416 C   0  0  0  0  0  0  0  0  0  0  0  0
  -26.5508  -27.4956   18.8012 C   0  0  0  0  0  0  0  0  0  0  0  0
  -25.4159  -28.2933   18.6551 C   0  0  0  0  0  0  0  0  0  0  0  0
  -25.6609  -13.6333   20.2222 C   0  0  0  0  0  0  0  0  0  0  0  0
  -21.2006  -18.9969   18.7945 C   0  0  0  0  0  0  0  0  0  0  0  0
  -25.4107  -14.1616   17.8606 C   0  0  0  0  0  0  0  0  0  0  0  0
  -25.9785  -29.4665   20.6909 C   0  0  0  0  0  0  0  0  0  0  0  0
  -27.9721  -22.7908   20.3683 C   0  0  0  0  0  0  0  0  0  0  0  0
  -26.6140  -20.6393   20.1825 C   0  0  0  0  0  0  0  0  0  0  0  0
  -19.2031  -26.5783   23.8885 C   0  0  0  0  0  0  0  0  0  0  0  0
  -19.8096  -20.9576   18.5110 C   0  0  0  0  0  0  0  0  0  0  0  0
  -19.7283  -26.0453   22.6958 C   0  0  0  0  0  0  0  0  0  0  0  0
  -24.2840  -13.7103   20.3492 C   0  0  0  0  0  0  0  0  0  0  0  0
  -20.2257  -19.8728   19.2959 C   0  0  0  0  0  0  0  0  0  0  0  0
  -23.4740  -14.0145   19.2499 C   0  0  0  0  0  0  0  0  0  0  0  0
  -26.2235  -13.8559   18.9636 C   0  0  0  0  0  0  0  0  0  0  0  0
  -24.0240  -14.2486   18.0006 C   0  0  0  0  0  0  0  0  0  0  0  0
  -28.3444  -25.5465   20.1448 C   0  0  0  0  0  0  0  0  0  0  0  0
  -21.7447  -19.1899   17.5249 C   0  0  0  0  0  0  0  0  0  0  0  0
  -27.3995  -27.6832   19.8922 C   0  0  0  0  0  0  0  0  0  0  0  0
  -25.1298  -29.2788   19.5999 C   0  0  0  0  0  0  0  0  0  0  0  0
  -27.1134  -28.6687   20.8370 C   0  0  0  0  0  0  0  0  0  0  0  0
  -27.7807  -21.3673   20.4836 C   0  0  0  0  0  0  0  0  0  0  0  0
  -26.9428  -19.3346   20.4580 C   0  0  0  0  0  0  0  0  0  0  0  0
  -25.3465  -21.1012   19.6970 C   0  0  0  0  0  0  0  0  0  0  0  0
  -19.7635  -22.6727   21.1868 C   0  0  0  0  0  0  0  0  0  0  0  0
  -17.7787  -20.3163   22.2017 C   0  0  0  0  0  0  0  0  0  0  0  0
  -16.7238  -17.0851   21.8965 C   0  0  0  0  0  0  0  0  0  0  0  0
  -30.8330  -15.2437   19.7889 C   0  0  0  0  0  0  0  0  0  0  0  0
  -19.2296  -25.8042   25.1826 C   0  0  0  0  0  0  0  0  0  0  0  0
  -18.7486  -21.8984   19.0128 C   0  0  0  0  0  0  0  0  0  0  0  0
  -23.4649  -13.5493   21.5909 C   0  0  0  0  0  0  0  0  0  0  0  0
  -22.0336  -14.0860   19.6481 C   0  0  0  0  0  0  0  0  0  0  0  0
  -19.6603  -19.6250   20.6697 C   0  0  0  0  0  0  0  0  0  0  0  0
  -19.4493  -24.3056   24.9916 C   0  0  0  0  0  0  0  0  0  0  0  0
  -30.9402  -17.3574   22.8258 C   0  0  0  0  0  0  0  0  0  0  0  0
  -20.5920  -24.0541   24.0130 C   0  0  0  0  0  0  0  0  0  0  0  0
  -30.0870  -18.5597   22.4251 C   0  0  0  0  0  0  0  0  0  0  0  0
  -31.6088  -16.7085   21.6176 C   0  0  0  0  0  0  0  0  0  0  0  0
  -29.8063  -17.5280   20.1365 C   0  0  0  0  0  0  0  0  0  0  0  0
  -20.2720  -24.6346   22.6302 C   0  0  1  0  0  0  0  0  0  0  0  0
  -18.6394  -21.9189   20.5343 C   0  0  1  0  0  0  0  0  0  0  0  0
  -22.0539  -13.3407   21.0001 C   0  0  2  0  0  0  0  0  0  0  0  0
  -29.0814  -18.1766   21.3254 C   0  0  2  0  0  0  0  0  0  0  0  0
  -19.6008  -13.5858   21.3460 C   0  0  0  0  0  0  0  0  0  0  0  0
  -15.1141  -15.4362   22.8901 C   0  0  0  0  0  0  0  0  0  0  0  0
  -19.6180  -19.9769   24.6124 C   0  0  0  0  0  0  0  0  0  0  0  0
  -18.5340  -17.7609   25.0397 C   0  0  0  0  0  0  0  0  0  0  0  0
  -17.1761  -19.8512   25.1375 C   0  0  0  0  0  0  0  0  0  0  0  0
  -30.2790  -14.2589   17.5974 C   0  0  0  0  0  0  0  0  0  0  0  0
  -15.2914  -16.7594   19.3272 C   0  0  0  0  0  0  0  0  0  0  0  0
  -27.7025  -13.7614   18.7874 C   0  0  0  0  0  0  0  0  0  0  0  0
  -23.1624  -14.5877   16.8106 C   0  0  0  0  0  0  0  0  0  0  0  0
  -20.9516  -13.8027   21.9400 C   0  0  0  0  0  0  0  0  0  0  0  0
  -23.1930  -16.0696   16.4302 C   0  0  0  0  0  0  0  0  0  0  0  0
  -28.4321  -15.0920   19.0048 C   0  0  0  0  0  0  0  0  0  0  0  0
  -22.6301  -16.9827   17.5131 C   0  0  0  0  0  0  0  0  0  1  0  0
  -17.9629  -18.9881   22.8952 C   0  0  1  0  0  0  0  0  0  0  0  0
  -15.3328  -16.4835   21.8094 C   0  0  2  0  0  0  0  0  0  0  0  0
  -18.3350  -19.1498   24.3962 C   0  0  0  0  0  0  0  0  0  0  0  0
  -28.7762  -20.5897   20.9174 N   0  0  0  0  0  0  0  0  0  0  0  0
  -28.2359  -19.3594   20.8910 N   0  0  0  0  0  0  0  0  0  0  0  0
  -18.6300  -20.5762   21.1184 N   0  0  0  0  0  0  0  0  0  0  0  0
  -30.6365  -16.3943   20.5702 N   0  0  0  0  0  0  0  0  0  0  0  0
  -26.2490  -18.1799   20.3699 N   0  0  0  0  0  0  0  0  0  0  0  0
  -25.1464  -21.1700   18.3115 N   0  0  0  0  0  0  0  0  0  0  0  0
  -19.3541  -23.7705   21.9194 N   0  0  0  0  0  0  0  0  0  0  0  0
  -16.7372  -18.2321   22.6616 N   0  0  0  0  0  0  0  0  0  0  0  0
  -29.8740  -14.9691   18.8022 N   0  0  0  0  0  0  0  0  0  0  0  0
  -15.1297  -15.8382   20.4815 N   0  3  0  0  0  0  0  0  0  0  0  0
  -24.4244  -21.4584   20.4689 O   0  0  0  0  0  0  0  0  0  0  0  0
  -20.9168  -22.2861   21.0379 O   0  0  0  0  0  0  0  0  0  0  0  0
  -16.9066  -21.0916   22.6018 O   0  0  0  0  0  0  0  0  0  0  0  0
  -17.7015  -16.5852   21.3444 O   0  0  0  0  0  0  0  0  0  0  0  0
  -31.8049  -14.4989   19.9698 O   0  0  0  0  0  0  0  0  0  0  0  0
  -28.5262  -26.8909   20.0354 O   0  0  0  0  0  0  0  0  0  0  0  0
  -22.6882  -18.3315   17.0508 O   0  0  0  0  0  0  0  0  0  1  0  0
  -24.0408  -30.0458   19.4586 F   0  0  0  0  0  0  0  0  0  0  0  0
  -27.9256  -28.8544   21.8865 F   0  0  0  0  0  0  0  0  0  0  0  0
  1  2  1  0  0  0  0
  1  5  2  0  0  0  0
  2  6  2  0  0  0  0
  3  8  2  0  0  0  0
  3 17  1  0  0  0  0
  4  9  1  0  0  0  0
  4 17  2  0  0  0  0
  5 19  1  0  0  0  0
  6 21  1  0  0  0  0
  7 10  2  0  0  0  0
  7 20  1  0  0  0  0
  8 27  1  0  0  0  0
  9 27  2  0  0  0  0
 10 28  1  0  0  0  0
 11 12  2  0  0  0  0
 11 29  1  0  0  0  0
 12 30  1  0  0  0  0
 13 22  1  0  0  0  0
 13 25  2  0  0  0  0
 14 23  1  0  0  0  0
 14 28  2  0  0  0  0
 15 25  1  0  0  0  0
 15 26  2  0  0  0  0
 16 30  2  0  0  0  0
 16 31  1  0  0  0  0
 17 32  1  0  0  0  0
 18 32  1  0  0  0  0
 18 33  2  0  0  0  0
 18 34  1  0  0  0  0
 19 21  2  0  0  0  0
 19 39  1  0  0  0  0
 20 23  2  0  0  0  0
 20 40  1  0  0  0  0
 21 50  1  0  0  0  0
 22 24  2  0  0  0  0
 22 41  1  0  0  0  0
 23 43  1  0  0  0  0
 24 26  1  0  0  0  0
 24 42  1  0  0  0  0
 25 61  1  0  0  0  0
 26 62  1  0  0  0  0
 27 85  1  0  0  0  0
 28 86  1  0  0  0  0
 29 31  2  0  0  0  0
 29 85  1  0  0  0  0
 30 87  1  0  0  0  0
 31 88  1  0  0  0  0
 32 70  2  0  0  0  0
 33 71  1  0  0  0  0
 33 74  1  0  0  0  0
 34 75  1  0  0  0  0
 34 80  2  0  0  0  0
 35 51  1  0  0  0  0
 35 76  1  0  0  0  0
 35 81  2  0  0  0  0
 36 67  1  0  0  0  0
 36 72  1  0  0  0  0
 36 82  2  0  0  0  0
 37 68  1  0  0  0  0
 37 77  1  0  0  0  0
 37 83  2  0  0  0  0
 38 73  1  0  0  0  0
 38 78  1  0  0  0  0
 38 84  2  0  0  0  0
 39 44  1  0  0  0  0
 40 51  1  0  0  0  0
 41 52  1  0  0  0  0
 42 52  1  0  0  0  0
 43 72  1  0  0  0  0
 44 46  1  0  0  0  0
 45 47  1  0  0  0  0
 45 48  1  0  0  0  0
 46 50  1  0  0  0  0
 47 53  1  0  0  0  0
 48 73  1  0  0  0  0
 49 53  1  0  0  0  0
 49 73  1  0  0  0  0
 50 76  1  0  0  0  0
 51 72  1  0  0  0  0
 52 63  1  0  0  0  0
 53 71  1  0  0  0  0
 54 63  1  0  0  0  0
 55 68  1  0  0  0  0
 56 69  1  0  0  0  0
 57 69  1  0  0  0  0
 58 69  1  0  0  0  0
 59 78  1  0  0  0  0
 60 79  1  0  0  0  0
 61 65  1  0  0  0  0
 62 64  1  0  0  0  0
 64 66  1  0  0  0  0
 65 78  1  0  0  0  0
 66 86  1  0  0  0  0
 67 69  1  0  0  0  0
 67 77  1  0  0  0  0
 68 79  1  0  0  0  0
 70 71  1  0  0  0  0
M  CHG  1  79   1
M  ISO  4  38 100  66 101  78 100  86 101
M  END
> <Batch ID>
0037

> <Smiles>
CCC1Cc2cc(CC[100N:0](C)[100C:0](=O)N3CCCC(n4nc(-c5ccc(Oc6ccc(F)cc6F)cc5)c(C(N)=O)c4N)C3)cc(CC[101CH2:1][101O:1]c3ccc4c(c3)CN(C(=O)C(NC(=O)C(C)NC)C(C)(C)C)C(C(=O)NC3CCCc5ccccc53)C4)c2C1

> <Shape>
0.193

> <Color>
0.076

> <Negative vol penalty>
0.000

$$$$

  -OEChem-04052316593D

 81 89  0     1  0  0  0  0  0999 V2000
  -27.6218  -10.0233   22.6542 C   0  0  0  0  0  0  0  0  0  0  0  0
  -28.3540  -11.1870   22.4423 C   0  0  0  0  0  0  0  0  0  0  0  0
  -22.2393  -28.5720   20.8728 C   0  0  0  0  0  0  0  0  0  0  0  0
  -23.2034  -27.3869   22.7444 C   0  0  0  0  0  0  0  0  0  0  0  0
  -26.3585   -9.8818   22.0814 C   0  0  0  0  0  0  0  0  0  0  0  0
  -27.8238  -12.2097   21.6565 C   0  0  0  0  0  0  0  0  0  0  0  0
  -28.4663  -16.7849   23.7299 C   0  0  0  0  0  0  0  0  0  0  0  0
  -20.9825  -28.4976   21.4730 C   0  0  0  0  0  0  0  0  0  0  0  0
  -21.9465  -27.3125   23.3447 C   0  0  0  0  0  0  0  0  0  0  0  0
  -29.7299  -17.3633   23.6172 C   0  0  0  0  0  0  0  0  0  0  0  0
  -19.2973  -30.0952   23.9309 C   0  0  0  0  0  0  0  0  0  0  0  0
  -18.5139  -31.2492   23.9398 C   0  0  0  0  0  0  0  0  0  0  0  0
  -28.9411  -18.7141   21.7808 C   0  0  0  0  0  0  0  0  0  0  0  0
  -16.7978  -30.0937   22.6919 C   0  0  0  0  0  0  0  0  0  0  0  0
  -33.4733  -23.1762   19.6671 C   0  0  0  0  0  0  0  0  0  0  0  0
  -23.3498  -28.0166   21.5085 C   0  0  0  0  0  0  0  0  0  0  0  0
  -25.6053  -29.1136   21.0425 C   0  0  0  0  0  0  0  0  0  0  0  0
  -25.8085  -10.9073   21.2962 C   0  0  0  0  0  0  0  0  0  0  0  0
  -27.4319  -17.1595   22.8603 C   0  0  0  0  0  0  0  0  0  0  0  0
  -26.5525  -12.0813   21.0716 C   0  0  0  0  0  0  0  0  0  0  0  0
  -27.6647  -18.1408   21.8862 C   0  0  0  0  0  0  0  0  0  0  0  0
  -32.7894  -22.9473   18.4581 C   0  0  0  0  0  0  0  0  0  0  0  0
  -20.8360  -27.8679   22.7090 C   0  0  0  0  0  0  0  0  0  0  0  0
  -29.9682  -18.3259   22.6407 C   0  0  0  0  0  0  0  0  0  0  0  0
  -18.8311  -28.9404   23.3024 C   0  0  0  0  0  0  0  0  0  0  0  0
  -17.2641  -31.2485   23.3203 C   0  0  0  0  0  0  0  0  0  0  0  0
  -17.5813  -28.9397   22.6830 C   0  0  0  0  0  0  0  0  0  0  0  0
  -24.6483  -28.0926   20.8887 C   0  0  0  0  0  0  0  0  0  0  0  0
  -32.7689  -21.5801   18.3287 C   0  0  0  0  0  0  0  0  0  0  0  0
  -26.6575  -28.7199   20.2524 C   0  0  0  0  0  0  0  0  0  0  0  0
  -25.5482  -30.3108   21.8294 C   0  0  0  0  0  0  0  0  0  0  0  0
  -25.6681  -15.6485   20.6902 C   0  0  0  0  0  0  0  0  0  0  0  0
  -24.0892  -18.4797   20.5709 C   0  0  0  0  0  0  0  0  0  0  0  0
  -24.1479  -21.8534   21.0818 C   0  0  0  0  0  0  0  0  0  0  0  0
  -30.1564  -24.8660   18.5635 C   0  0  0  0  0  0  0  0  0  0  0  0
  -24.4590  -10.6892   20.6590 C   0  0  0  0  0  0  0  0  0  0  0  0
  -26.0672  -16.5456   23.0123 C   0  0  0  0  0  0  0  0  0  0  0  0
  -26.5823  -18.5926   20.9412 C   0  0  0  0  0  0  0  0  0  0  0  0
  -23.8121  -11.9739   20.1477 C   0  0  0  0  0  0  0  0  0  0  0  0
  -26.9929  -25.0253   16.8130 C   0  0  0  0  0  0  0  0  0  0  0  0
  -24.8217  -12.8031   19.3602 C   0  0  0  0  0  0  0  0  0  0  0  0
  -26.1776  -25.9290   17.7398 C   0  0  0  0  0  0  0  0  0  0  0  0
  -27.9016  -24.0931   17.6089 C   0  0  0  0  0  0  0  0  0  0  0  0
  -28.0074  -25.6913   19.4819 C   0  0  0  0  0  0  0  0  0  0  0  0
  -26.0010  -13.2232   20.2457 C   0  0  1  0  0  0  0  0  0  0  0  0
  -25.2292  -16.6296   21.7402 C   0  0  1  0  0  0  0  0  0  0  0  0
  -27.0851  -26.6734   18.7371 C   0  0  2  0  0  0  0  0  0  0  0  0
  -32.2033  -20.7096   17.2806 C   0  0  0  0  0  0  0  0  0  0  0  0
  -22.7199  -23.9048   20.8580 C   0  0  0  0  0  0  0  0  0  0  0  0
  -24.5393  -18.4607   17.5531 C   0  0  0  0  0  0  0  0  0  0  0  0
  -23.9671  -20.8979   17.5226 C   0  0  0  0  0  0  0  0  0  0  0  0
  -22.2681  -19.2288   18.2643 C   0  0  0  0  0  0  0  0  0  0  0  0
  -24.2795  -22.4035   23.9868 C   0  0  0  0  0  0  0  0  0  0  0  0
  -32.2248  -23.9523   17.5420 C   0  0  0  0  0  0  0  0  0  0  0  0
  -33.1204  -19.2247   21.1278 C   0  0  0  0  0  0  0  0  0  0  0  0
  -33.6658  -19.6434   19.7607 C   0  0  0  0  0  0  0  0  0  0  0  0
  -31.6024  -19.3202   21.2275 C   0  0  0  0  0  0  0  0  0  1  0  0
  -24.2320  -19.7504   19.7686 C   0  0  1  0  0  0  0  0  0  0  0  0
  -23.1725  -22.7835   21.7803 C   0  0  2  0  0  0  0  0  0  0  0  0
  -23.7728  -19.5748   18.2935 C   0  0  0  0  0  0  0  0  0  0  0  0
  -33.8592  -22.0450   20.2633 N   0  0  0  0  0  0  0  0  0  0  0  0
  -25.0564  -27.1233   20.0653 N   0  0  0  0  0  0  0  0  0  0  0  0
  -33.4163  -21.0922   19.4255 N   0  0  0  0  0  0  0  0  0  0  0  0
  -26.2813  -27.5334   19.6947 N   0  0  0  0  0  0  0  0  0  0  0  0
  -25.2666  -17.9582   21.1255 N   0  0  0  0  0  0  0  0  0  0  0  0
  -28.7521  -24.8656   18.5255 N   0  0  0  0  0  0  0  0  0  0  0  0
  -27.8585  -29.2764   19.9871 N   0  0  0  0  0  0  0  0  0  0  0  0
  -24.3928  -30.5611   22.5821 N   0  0  0  0  0  0  0  0  0  0  0  0
  -25.6234  -14.3293   21.0991 N   0  0  0  0  0  0  0  0  0  0  0  0
  -23.5045  -20.7804   20.5023 N   0  0  0  0  0  0  0  0  0  0  0  0
  -30.7849  -24.0520   17.6291 N   0  0  0  0  0  0  0  0  0  0  0  0
  -23.8079  -23.3920   22.9832 N   0  3  0  0  0  0  0  0  0  0  0  0
  -26.4872  -31.1422   21.8512 O   0  0  0  0  0  0  0  0  0  0  0  0
  -26.0197  -16.0580   19.5900 O   0  0  0  0  0  0  0  0  0  0  0  0
  -22.9730  -17.9725   20.7067 O   0  0  0  0  0  0  0  0  0  0  0  0
  -25.3590  -22.0602   21.0501 O   0  0  0  0  0  0  0  0  0  0  0  0
  -30.8029  -25.5460   19.3677 O   0  0  0  0  0  0  0  0  0  0  0  0
  -19.6097  -27.7953   23.2951 O   0  0  0  0  0  0  0  0  0  0  0  0
  -31.2008  -18.8916   22.5281 O   0  0  0  0  0  0  0  0  0  1  0  0
  -16.5112  -32.3563   23.3303 F   0  0  0  0  0  0  0  0  0  0  0  0
  -17.1275  -27.8331   22.0786 F   0  0  0  0  0  0  0  0  0  0  0  0
  1  2  1  0  0  0  0
  1  5  2  0  0  0  0
  2  6  2  0  0  0  0
  3  8  2  0  0  0  0
  3 16  1  0  0  0  0
  4  9  1  0  0  0  0
  4 16  2  0  0  0  0
  5 18  1  0  0  0  0
  6 20  1  0  0  0  0
  7 10  2  0  0  0  0
  7 19  1  0  0  0  0
  8 23  1  0  0  0  0
  9 23  2  0  0  0  0
 10 24  1  0  0  0  0
 11 12  2  0  0  0  0
 11 25  1  0  0  0  0
 12 26  1  0  0  0  0
 13 21  1  0  0  0  0
 13 24  2  0  0  0  0
 14 26  2  0  0  0  0
 14 27  1  0  0  0  0
 15 22  1  0  0  0  0
 15 61  2  0  0  0  0
 16 28  1  0  0  0  0
 17 28  1  0  0  0  0
 17 30  2  0  0  0  0
 17 31  1  0  0  0  0
 18 20  2  0  0  0  0
 18 36  1  0  0  0  0
 19 21  2  0  0  0  0
 19 37  1  0  0  0  0
 20 45  1  0  0  0  0
 21 38  1  0  0  0  0
 22 29  2  0  0  0  0
 22 54  1  0  0  0  0
 23 78  1  0  0  0  0
 24 79  1  0  0  0  0
 25 27  2  0  0  0  0
 25 78  1  0  0  0  0
 26 80  1  0  0  0  0
 27 81  1  0  0  0  0
 28 62  2  0  0  0  0
 29 48  1  0  0  0  0
 29 63  1  0  0  0  0
 30 64  1  0  0  0  0
 30 67  1  0  0  0  0
 31 68  1  0  0  0  0
 31 73  2  0  0  0  0
 32 46  1  0  0  0  0
 32 69  1  0  0  0  0
 32 74  2  0  0  0  0
 33 58  1  0  0  0  0
 33 65  1  0  0  0  0
 33 75  2  0  0  0  0
 34 59  1  0  0  0  0
 34 70  1  0  0  0  0
 34 76  2  0  0  0  0
 35 66  1  0  0  0  0
 35 71  1  0  0  0  0
 35 77  2  0  0  0  0
 36 39  1  0  0  0  0
 37 46  1  0  0  0  0
 38 65  1  0  0  0  0
 39 41  1  0  0  0  0
 40 42  1  0  0  0  0
 40 43  1  0  0  0  0
 41 45  1  0  0  0  0
 42 47  1  0  0  0  0
 43 66  1  0  0  0  0
 44 47  1  0  0  0  0
 44 66  1  0  0  0  0
 45 69  1  0  0  0  0
 46 65  1  0  0  0  0
 47 64  1  0  0  0  0
 49 59  1  0  0  0  0
 50 60  1  0  0  0  0
 51 60  1  0  0  0  0
 52 60  1  0  0  0  0
 53 72  1  0  0  0  0
 54 71  1  0  0  0  0
 55 56  1  0  0  0  0
 55 57  1  0  0  0  0
 56 63  1  0  0  0  0
 57 79  1  0  0  0  0
 58 60  1  0  0  0  0
 58 70  1  0  0  0  0
 59 72  1  0  0  0  0
 61 63  1  0  0  0  0
 62 64  1  0  0  0  0
M  CHG  1  72   1
M  ISO  4  35 100  57 101  71 100  79 101
M  END
> <Batch ID>
0037

> <Smiles>
CNC(C)C(=O)NC(C(=O)N1Cc2cc([101O:1][101CH2:1]CCn3ncc(C[100NH:0][100C:0](=O)N4CCCC(n5nc(-c6ccc(Oc7ccc(F)cc7F)cc6)c(C(N)=O)c5N)C4)c3C)ccc2CC1C(=O)NC1CCCc2ccccc21)C(C)(C)C

> <Shape>
0.213

> <Color>
0.065

> <Negative vol penalty>
0.000

$$$$

  -OEChem-04052316593D

 90 98  0     1  0  0  0  0  0999 V2000
  -30.3747  -24.2346   19.5890 C   0  0  0  0  0  0  0  0  0  0  0  0
  -28.9993  -24.3774   19.4361 C   0  0  0  0  0  0  0  0  0  0  0  0
  -27.4354  -11.3025   20.4835 C   0  0  0  0  0  0  0  0  0  0  0  0
  -26.7432  -12.8365   18.7501 C   0  0  0  0  0  0  0  0  0  0  0  0
  -31.0205  -24.8324   20.6704 C   0  0  0  0  0  0  0  0  0  0  0  0
  -28.2688  -25.1173   20.3653 C   0  0  0  0  0  0  0  0  0  0  0  0
  -23.3611  -28.6075   19.2523 C   0  0  0  0  0  0  0  0  0  0  0  0
  -26.3023  -10.5241   20.2472 C   0  0  0  0  0  0  0  0  0  0  0  0
  -25.6101  -12.0581   18.5137 C   0  0  0  0  0  0  0  0  0  0  0  0
  -21.9936  -28.3753   19.3930 C   0  0  0  0  0  0  0  0  0  0  0  0
  -23.0129  -10.6154   21.0190 C   0  0  0  0  0  0  0  0  0  0  0  0
  -22.2930  -10.1671   22.1264 C   0  0  0  0  0  0  0  0  0  0  0  0
  -22.0400  -29.4474   21.5535 C   0  0  0  0  0  0  0  0  0  0  0  0
  -22.6853   -7.8795   21.4554 C   0  0  0  0  0  0  0  0  0  0  0  0
  -20.4013  -24.4620   21.6011 C   0  0  0  0  0  0  0  0  0  0  0  0
  -27.6558  -12.4587   19.7350 C   0  0  0  0  0  0  0  0  0  0  0  0
  -30.0865  -13.1390   19.3652 C   0  0  0  0  0  0  0  0  0  0  0  0
  -30.2990  -25.5881   21.6079 C   0  0  0  0  0  0  0  0  0  0  0  0
  -24.0816  -29.2527   20.2676 C   0  0  0  0  0  0  0  0  0  0  0  0
  -28.9054  -25.7247   21.4610 C   0  0  0  0  0  0  0  0  0  0  0  0
  -23.4160  -29.6888   21.4221 C   0  0  0  0  0  0  0  0  0  0  0  0
  -25.3897  -10.9019   19.2623 C   0  0  0  0  0  0  0  0  0  0  0  0
  -21.3334  -28.7927   20.5449 C   0  0  0  0  0  0  0  0  0  0  0  0
  -23.5690   -9.6958   20.1297 C   0  0  0  0  0  0  0  0  0  0  0  0
  -22.1292   -8.7991   22.3446 C   0  0  0  0  0  0  0  0  0  0  0  0
  -23.4052   -8.3279   20.3479 C   0  0  0  0  0  0  0  0  0  0  0  0
  -28.8258  -13.2635   19.9791 C   0  0  0  0  0  0  0  0  0  0  0  0
  -19.8642  -25.6940   21.8470 C   0  0  0  0  0  0  0  0  0  0  0  0
  -30.8464  -14.1297   19.9373 C   0  0  0  0  0  0  0  0  0  0  0  0
  -21.3226  -25.2516   23.4526 C   0  0  0  0  0  0  0  0  0  0  0  0
  -30.5309  -12.2107   18.3669 C   0  0  0  0  0  0  0  0  0  0  0  0
  -26.5037  -28.4441   22.1606 C   0  0  0  0  0  0  0  0  0  0  0  0
  -29.3501  -19.3248   22.5612 C   0  0  0  0  0  0  0  0  0  0  0  0
  -26.3211  -31.5525   23.0700 C   0  0  0  0  0  0  0  0  0  0  0  0
  -24.4321  -34.3798   23.3613 C   0  0  0  0  0  0  0  0  0  0  0  0
  -31.0338  -26.1761   22.7865 C   0  0  0  0  0  0  0  0  0  0  0  0
  -25.5511  -29.5195   20.0888 C   0  0  0  0  0  0  0  0  0  0  0  0
  -24.1400  -30.4040   22.5324 C   0  0  0  0  0  0  0  0  0  0  0  0
  -30.2429  -27.2561   23.5202 C   0  0  0  0  0  0  0  0  0  0  0  0
  -31.2959  -16.6621   23.9627 C   0  0  0  0  0  0  0  0  0  0  0  0
  -28.8082  -26.7971   23.7602 C   0  0  0  0  0  0  0  0  0  0  0  0
  -30.9755  -15.4704   23.0613 C   0  0  0  0  0  0  0  0  0  0  0  0
  -30.0826  -17.5693   24.1411 C   0  0  0  0  0  0  0  0  0  0  0  0
  -29.1688  -16.8611   21.9536 C   0  0  0  0  0  0  0  0  0  0  0  0
  -28.0821  -26.5402   22.4342 C   0  0  1  0  0  0  0  0  0  0  0  0
  -26.2857  -29.7272   21.4097 C   0  0  1  0  0  0  0  0  0  0  0  0
  -30.3764  -15.9356   21.7222 C   0  0  2  0  0  0  0  0  0  0  0  0
  -19.5696  -24.6404   27.4909 C   0  0  0  0  0  0  0  0  0  0  0  0
  -29.9359  -19.7647   20.2183 C   0  0  0  0  0  0  0  0  0  0  0  0
  -24.5469  -36.7503   24.1767 C   0  0  0  0  0  0  0  0  0  0  0  0
  -18.4282  -27.8662   19.0185 C   0  0  0  0  0  0  0  0  0  0  0  0
  -26.1282  -30.5680   25.9516 C   0  0  0  0  0  0  0  0  0  0  0  0
  -25.3043  -32.8417   26.5997 C   0  0  0  0  0  0  0  0  0  0  0  0
  -27.5869  -32.5738   25.6299 C   0  0  0  0  0  0  0  0  0  0  0  0
  -23.8570  -35.4573   20.6655 C   0  0  0  0  0  0  0  0  0  0  0  0
  -18.8313  -26.5005   21.0959 C   0  0  0  0  0  0  0  0  0  0  0  0
  -22.1540  -25.3910   24.6742 C   0  0  0  0  0  0  0  0  0  0  0  0
  -20.3734  -24.4286   26.2179 C   0  0  0  0  0  0  0  0  0  0  0  0
  -21.3034  -25.6095   25.9394 C   0  0  0  0  0  0  0  0  0  0  0  0
  -25.7682  -22.0752   21.7747 C   0  0  0  0  0  0  0  0  0  0  0  0
  -24.3542  -21.8776   22.3252 C   0  0  0  0  0  0  0  0  0  0  0  0
  -26.5582  -20.7647   21.7879 C   0  0  0  0  0  0  0  0  0  0  0  0
  -23.5523  -23.1819   22.2748 C   0  0  0  0  0  0  0  0  0  0  0  0
  -27.9840  -20.9701   21.2637 C   0  0  0  0  0  0  0  0  0  0  0  0
  -22.1005  -23.0116   22.7363 C   0  0  0  0  0  0  0  0  0  0  0  0
  -28.7791  -19.6606   21.2065 C   0  0  2  0  0  0  0  0  0  0  0  0
  -25.5660  -32.3127   24.1333 C   0  0  1  0  0  0  0  0  0  0  0  0
  -24.7137  -35.8227   22.9831 C   0  0  2  0  0  0  0  0  0  0  0  0
  -19.4641  -27.4121   20.0391 C   0  0  2  0  0  0  0  0  0  1  0  0
  -26.1328  -32.0589   25.5587 C   0  0  0  0  0  0  0  0  0  0  0  0
  -28.7833  -14.2552   20.8729 N   0  0  0  0  0  0  0  0  0  0  0  0
  -21.3008  -24.2139   22.6098 N   0  0  0  0  0  0  0  0  0  0  0  0
  -30.0267  -14.7626   20.8249 N   0  0  0  0  0  0  0  0  0  0  0  0
  -20.4521  -26.1591   22.9986 N   0  3  0  0  0  0  0  0  0  0  0  0
  -25.5773  -30.6358   22.3135 N   0  0  0  0  0  0  0  0  0  0  0  0
  -29.5293  -17.9711   22.8467 N   0  0  0  0  0  0  0  0  0  0  0  0
  -32.1292  -14.5125   19.7629 N   0  0  0  0  0  0  0  0  0  0  0  0
  -29.6211  -11.2581   17.8882 N   0  0  0  0  0  0  0  0  0  0  0  0
  -27.6757  -27.7909   21.8300 N   0  0  0  0  0  0  0  0  0  0  0  0
  -25.5832  -33.7129   23.7240 N   0  0  0  0  0  0  0  0  0  0  0  0
  -23.7822  -36.2678   21.9083 N   0  3  0  0  0  0  0  0  0  0  0  0
  -31.7048  -12.2151   17.9248 O   0  0  0  0  0  0  0  0  0  0  0  0
  -25.6710  -28.0748   22.9804 O   0  0  0  0  0  0  0  0  0  0  0  0
  -29.6307  -20.2397   23.3399 O   0  0  0  0  0  0  0  0  0  0  0  0
  -27.5251  -31.7694   22.9114 O   0  0  0  0  0  0  0  0  0  0  0  0
  -23.3034  -33.8939   23.3408 O   0  0  0  0  0  0  0  0  0  0  0  0
  -24.2841  -10.1424   19.0312 O   0  0  0  0  0  0  0  0  0  0  0  0
  -19.9988  -28.5668   20.6851 O   0  0  0  0  0  0  0  0  0  1  0  0
  -21.4392   -8.3687   23.4089 F   0  0  0  0  0  0  0  0  0  0  0  0
  -23.9381   -7.4396   19.4977 F   0  0  0  0  0  0  0  0  0  0  0  0
  1  2  1  0  0  0  0
  1  5  2  0  0  0  0
  2  6  2  0  0  0  0
  3  8  2  0  0  0  0
  3 16  1  0  0  0  0
  4  9  1  0  0  0  0
  4 16  2  0  0  0  0
  5 18  1  0  0  0  0
  6 20  1  0  0  0  0
  7 10  2  0  0  0  0
  7 19  1  0  0  0  0
  8 22  1  0  0  0  0
  9 22  2  0  0  0  0
 10 23  1  0  0  0  0
 11 12  2  0  0  0  0
 11 24  1  0  0  0  0
 12 25  1  0  0  0  0
 13 21  1  0  0  0  0
 13 23  2  0  0  0  0
 14 25  2  0  0  0  0
 14 26  1  0  0  0  0
 15 28  2  0  0  0  0
 15 72  1  0  0  0  0
 16 27  1  0  0  0  0
 17 27  1  0  0  0  0
 17 29  2  0  0  0  0
 17 31  1  0  0  0  0
 18 20  2  0  0  0  0
 18 36  1  0  0  0  0
 19 21  2  0  0  0  0
 19 37  1  0  0  0  0
 20 45  1  0  0  0  0
 21 38  1  0  0  0  0
 22 87  1  0  0  0  0
 23 88  1  0  0  0  0
 24 26  2  0  0  0  0
 24 87  1  0  0  0  0
 25 89  1  0  0  0  0
 26 90  1  0  0  0  0
 27 71  2  0  0  0  0
 28 56  1  0  0  0  0
 28 74  1  0  0  0  0
 29 73  1  0  0  0  0
 29 77  1  0  0  0  0
 30 57  1  0  0  0  0
 30 72  1  0  0  0  0
 30 74  2  0  0  0  0
 31 78  1  0  0  0  0
 31 82  2  0  0  0  0
 32 46  1  0  0  0  0
 32 79  1  0  0  0  0
 32 83  2  0  0  0  0
 33 66  1  0  0  0  0
 33 76  1  0  0  0  0
 33 84  2  0  0  0  0
 34 67  1  0  0  0  0
 34 75  1  0  0  0  0
 34 85  2  0  0  0  0
 35 68  1  0  0  0  0
 35 80  1  0  0  0  0
 35 86  2  0  0  0  0
 36 39  1  0  0  0  0
 37 46  1  0  0  0  0
 38 75  1  0  0  0  0
 39 41  1  0  0  0  0
 40 42  1  0  0  0  0
 40 43  1  0  0  0  0
 41 45  1  0  0  0  0
 42 47  1  0  0  0  0
 43 76  1  0  0  0  0
 44 47  1  0  0  0  0
 44 76  1  0  0  0  0
 45 79  1  0  0  0  0
 46 75  1  0  0  0  0
 47 73  1  0  0  0  0
 48 58  1  0  0  0  0
 49 66  1  0  0  0  0
 50 68  1  0  0  0  0
 51 69  1  0  0  0  0
 52 70  1  0  0  0  0
 53 70  1  0  0  0  0
 54 70  1  0  0  0  0
 55 81  1  0  0  0  0
 56 69  1  0  0  0  0
 57 59  1  0  0  0  0
 58 59  1  0  0  0  0
 60 61  1  0  0  0  0
 60 62  1  0  0  0  0
 61 63  1  0  0  0  0
 62 64  1  0  0  0  0
 63 65  1  0  0  0  0
 64 66  1  0  0  0  0
 65 72  1  0  0  0  0
 67 70  1  0  0  0  0
 67 80  1  0  0  0  0
 68 81  1  0  0  0  0
 69 88  1  0  0  0  0
 71 73  1  0  0  0  0
M  CHG  2  74   1  81   1
M  ISO  4  33 100  66 100  69 101  88 101
M  END
> <Batch ID>
0037

> <Smiles>
CCCCc1nc(C[101CH:1](C)[101O:1]c2ccc3c(c2)CN(C(=O)C(NC(=O)C(C)NC)C(C)(C)C)C(C(=O)NC2CCCc4ccccc42)C3)cn1CCCCCC[100CH:0](C)[100C:0](=O)N1CCCC(n2nc(-c3ccc(Oc4ccc(F)cc4F)cc3)c(C(N)=O)c2N)C1

> <Shape>
0.326

> <Color>
0.072

> <Negative vol penalty>
0.000

$$$$

  -OEChem-04052316593D

 82 90  0     1  0  0  0  0  0999 V2000
  -25.8208  -11.1496   23.8764 C   0  0  0  0  0  0  0  0  0  0  0  0
  -26.6406  -12.2736   23.8767 C   0  0  0  0  0  0  0  0  0  0  0  0
  -22.6722  -29.8029   21.2346 C   0  0  0  0  0  0  0  0  0  0  0  0
  -23.9305  -28.7428   23.0037 C   0  0  0  0  0  0  0  0  0  0  0  0
  -25.0614  -10.8423   22.7482 C   0  0  0  0  0  0  0  0  0  0  0  0
  -26.7022  -13.0905   22.7483 C   0  0  0  0  0  0  0  0  0  0  0  0
  -27.4126  -19.1724   22.6406 C   0  0  0  0  0  0  0  0  0  0  0  0
  -21.6131  -30.0176   22.1164 C   0  0  0  0  0  0  0  0  0  0  0  0
  -22.8714  -28.9575   23.8857 C   0  0  0  0  0  0  0  0  0  0  0  0
  -28.5290  -19.9829   22.4394 C   0  0  0  0  0  0  0  0  0  0  0  0
  -19.0804  -28.2207   23.4510 C   0  0  0  0  0  0  0  0  0  0  0  0
  -17.7931  -27.9293   22.9999 C   0  0  0  0  0  0  0  0  0  0  0  0
  -27.9495  -20.1917   20.1070 C   0  0  0  0  0  0  0  0  0  0  0  0
  -31.5819  -23.7149   21.1601 C   0  0  0  0  0  0  0  0  0  0  0  0
  -17.1467  -30.2294   23.3584 C   0  0  0  0  0  0  0  0  0  0  0  0
  -33.1563  -22.0626   21.8292 C   0  0  0  0  0  0  0  0  0  0  0  0
  -23.8310  -29.1654   21.6782 C   0  0  0  0  0  0  0  0  0  0  0  0
  -26.0087  -29.8050   20.5137 C   0  0  0  0  0  0  0  0  0  0  0  0
  -25.1064  -11.6612   21.6089 C   0  0  0  0  0  0  0  0  0  0  0  0
  -26.5609  -18.8560   21.5724 C   0  0  0  0  0  0  0  0  0  0  0  0
  -25.9437  -12.7932   21.6033 C   0  0  0  0  0  0  0  0  0  0  0  0
  -26.8216  -19.3790   20.2978 C   0  0  0  0  0  0  0  0  0  0  0  0
  -31.8347  -22.4555   21.6924 C   0  0  0  0  0  0  0  0  0  0  0  0
  -32.6434  -24.5314   20.7862 C   0  0  0  0  0  0  0  0  0  0  0  0
  -21.7127  -29.5949   23.4420 C   0  0  0  0  0  0  0  0  0  0  0  0
  -28.7992  -20.4904   21.1719 C   0  0  0  0  0  0  0  0  0  0  0  0
  -19.4008  -29.5165   23.8560 C   0  0  0  0  0  0  0  0  0  0  0  0
  -16.8263  -28.9336   22.9535 C   0  0  0  0  0  0  0  0  0  0  0  0
  -18.4340  -30.5209   23.8096 C   0  0  0  0  0  0  0  0  0  0  0  0
  -24.9251  -28.9429   20.7675 C   0  0  0  0  0  0  0  0  0  0  0  0
  -33.9288  -24.0456   20.9637 C   0  0  0  0  0  0  0  0  0  0  0  0
  -26.7646  -29.1405   19.5790 C   0  0  0  0  0  0  0  0  0  0  0  0
  -26.3055  -31.0915   21.0728 C   0  0  0  0  0  0  0  0  0  0  0  0
  -25.6910  -16.1669   20.1178 C   0  0  0  0  0  0  0  0  0  0  0  0
  -23.6640  -18.1403   18.5305 C   0  0  0  0  0  0  0  0  0  0  0  0
  -22.9404  -21.2994   17.4612 C   0  0  0  0  0  0  0  0  0  0  0  0
  -29.1548  -24.4676   17.6826 C   0  0  0  0  0  0  0  0  0  0  0  0
  -24.3036  -11.2623   20.3960 C   0  0  0  0  0  0  0  0  0  0  0  0
  -25.3459  -18.0021   21.8115 C   0  0  0  0  0  0  0  0  0  0  0  0
  -25.9271  -19.0857   19.1221 C   0  0  0  0  0  0  0  0  0  0  0  0
  -24.1399  -12.3871   19.3770 C   0  0  0  0  0  0  0  0  0  0  0  0
  -25.7367  -25.0097   16.8466 C   0  0  0  0  0  0  0  0  0  0  0  0
  -25.4767  -13.0769   19.1239 C   0  0  0  0  0  0  0  0  0  0  0  0
  -25.3090  -26.1475   17.7752 C   0  0  0  0  0  0  0  0  0  0  0  0
  -26.7161  -24.0596   17.5322 C   0  0  0  0  0  0  0  0  0  0  0  0
  -27.4742  -25.8485   19.0484 C   0  0  0  0  0  0  0  0  0  0  0  0
  -26.0186  -13.7175   20.4074 C   0  0  1  0  0  0  0  0  0  0  0  0
  -24.8332  -17.3244   20.5446 C   0  0  1  0  0  0  0  0  0  0  0  0
  -26.5298  -26.8642   18.3830 C   0  0  2  0  0  0  0  0  0  0  0  0
  -35.1079  -24.8792   20.5806 C   0  0  0  0  0  0  0  0  0  0  0  0
  -21.2339  -22.5940   16.1538 C   0  0  0  0  0  0  0  0  0  0  0  0
  -24.8107  -17.0237   15.9327 C   0  0  0  0  0  0  0  0  0  0  0  0
  -23.7977  -18.9718   14.7298 C   0  0  0  0  0  0  0  0  0  0  0  0
  -22.3307  -17.3461   15.9247 C   0  0  0  0  0  0  0  0  0  0  0  0
  -22.2703  -22.9947   19.7927 C   0  0  0  0  0  0  0  0  0  0  0  0
  -32.3795  -25.8811   20.2135 C   0  0  0  0  0  0  0  0  0  0  0  0
  -30.7118  -21.5506   22.1066 C   0  0  0  0  0  0  0  0  0  1  0  0
  -32.4945  -25.9580   18.6775 C   0  0  0  0  0  0  0  0  0  0  0  0
  -31.5653  -25.0041   17.9299 C   0  0  0  0  0  0  0  0  0  0  0  0
  -23.7419  -18.9598   17.2651 C   0  0  1  0  0  0  0  0  0  0  0  0
  -21.6651  -22.1197   17.5329 C   0  0  2  0  0  0  0  0  0  0  0  0
  -23.6884  -18.0795   15.9846 C   0  0  0  0  0  0  0  0  0  0  0  0
  -34.2137  -22.8280   21.4773 N   0  0  0  0  0  0  0  0  0  0  0  0
  -24.9836  -27.8167   20.0518 N   0  0  0  0  0  0  0  0  0  0  0  0
  -26.1130  -27.9666   19.3390 N   0  0  0  0  0  0  0  0  0  0  0  0
  -24.7551  -18.2409   19.4053 N   0  0  0  0  0  0  0  0  0  0  0  0
  -27.8514  -24.8018   18.0855 N   0  0  0  0  0  0  0  0  0  0  0  0
  -27.9163  -29.4517   18.9473 N   0  0  0  0  0  0  0  0  0  0  0  0
  -25.4232  -31.6277   22.0206 N   0  0  0  0  0  0  0  0  0  0  0  0
  -25.3283  -14.9593   20.6829 N   0  0  0  0  0  0  0  0  0  0  0  0
  -22.6747  -19.9506   17.3541 N   0  0  0  0  0  0  0  0  0  0  0  0
  -30.1726  -25.2245   18.2502 N   0  0  0  0  0  0  0  0  0  0  0  0
  -21.8662  -23.3153   18.3995 N   0  3  0  0  0  0  0  0  0  0  0  0
  -27.3143  -31.7533   20.7296 O   0  0  0  0  0  0  0  0  0  0  0  0
  -26.6128  -16.3553   19.3326 O   0  0  0  0  0  0  0  0  0  0  0  0
  -22.6685  -17.4422   18.7385 O   0  0  0  0  0  0  0  0  0  0  0  0
  -24.0602  -21.8049   17.4931 O   0  0  0  0  0  0  0  0  0  0  0  0
  -29.3935  -23.5653   16.8728 O   0  0  0  0  0  0  0  0  0  0  0  0
  -20.6795  -29.8045   24.3029 O   0  0  0  0  0  0  0  0  0  0  0  0
  -29.8886  -21.2812   20.9726 O   0  0  0  0  0  0  0  0  0  1  0  0
  -15.5906  -28.6539   22.5188 F   0  0  0  0  0  0  0  0  0  0  0  0
  -18.7362  -31.7679   24.1962 F   0  0  0  0  0  0  0  0  0  0  0  0
  1  2  1  0  0  0  0
  1  5  2  0  0  0  0
  2  6  2  0  0  0  0
  3  8  2  0  0  0  0
  3 17  1  0  0  0  0
  4  9  1  0  0  0  0
  4 17  2  0  0  0  0
  5 19  1  0  0  0  0
  6 21  1  0  0  0  0
  7 10  2  0  0  0  0
  7 20  1  0  0  0  0
  8 25  1  0  0  0  0
  9 25  2  0  0  0  0
 10 26  1  0  0  0  0
 11 12  2  0  0  0  0
 11 27  1  0  0  0  0
 12 28  1  0  0  0  0
 13 22  1  0  0  0  0
 13 26  2  0  0  0  0
 14 23  2  0  0  0  0
 14 24  1  0  0  0  0
 15 28  2  0  0  0  0
 15 29  1  0  0  0  0
 16 23  1  0  0  0  0
 16 63  2  0  0  0  0
 17 30  1  0  0  0  0
 18 30  1  0  0  0  0
 18 32  2  0  0  0  0
 18 33  1  0  0  0  0
 19 21  2  0  0  0  0
 19 38  1  0  0  0  0
 20 22  2  0  0  0  0
 20 39  1  0  0  0  0
 21 47  1  0  0  0  0
 22 40  1  0  0  0  0
 23 57  1  0  0  0  0
 24 31  2  0  0  0  0
 24 56  1  0  0  0  0
 25 79  1  0  0  0  0
 26 80  1  0  0  0  0
 27 29  2  0  0  0  0
 27 79  1  0  0  0  0
 28 81  1  0  0  0  0
 29 82  1  0  0  0  0
 30 64  2  0  0  0  0
 31 50  1  0  0  0  0
 31 63  1  0  0  0  0
 32 65  1  0  0  0  0
 32 68  1  0  0  0  0
 33 69  1  0  0  0  0
 33 74  2  0  0  0  0
 34 48  1  0  0  0  0
 34 70  1  0  0  0  0
 34 75  2  0  0  0  0
 35 60  1  0  0  0  0
 35 66  1  0  0  0  0
 35 76  2  0  0  0  0
 36 61  1  0  0  0  0
 36 71  1  0  0  0  0
 36 77  2  0  0  0  0
 37 67  1  0  0  0  0
 37 72  1  0  0  0  0
 37 78  2  0  0  0  0
 38 41  1  0  0  0  0
 39 48  1  0  0  0  0
 40 66  1  0  0  0  0
 41 43  1  0  0  0  0
 42 44  1  0  0  0  0
 42 45  1  0  0  0  0
 43 47  1  0  0  0  0
 44 49  1  0  0  0  0
 45 67  1  0  0  0  0
 46 49  1  0  0  0  0
 46 67  1  0  0  0  0
 47 70  1  0  0  0  0
 48 66  1  0  0  0  0
 49 65  1  0  0  0  0
 51 61  1  0  0  0  0
 52 62  1  0  0  0  0
 53 62  1  0  0  0  0
 54 62  1  0  0  0  0
 55 73  1  0  0  0  0
 56 58  1  0  0  0  0
 57 80  1  0  0  0  0
 58 59  1  0  0  0  0
 59 72  1  0  0  0  0
 60 62  1  0  0  0  0
 60 71  1  0  0  0  0
 61 73  1  0  0  0  0
 64 65  1  0  0  0  0
M  CHG  1  73   1
M  ISO  4  37 100  57 101  72 100  80 101
M  END
> <Batch ID>
0037

> <Smiles>
CNC(C)C(=O)NC(C(=O)N1Cc2cc([101O:1][101CH2:1]c3cnc(C)c(CCC[100NH:0][100C:0](=O)N4CCCC(n5nc(-c6ccc(Oc7ccc(F)cc7F)cc6)c(C(N)=O)c5N)C4)c3)ccc2CC1C(=O)NC1CCCc2ccccc21)C(C)(C)C

> <Shape>
0.212

> <Color>
0.070

> <Negative vol penalty>
0.000

$$$$

  -OEChem-04052316593D

 82 90  0     1  0  0  0  0  0999 V2000
  -19.8268  -21.6094   23.9032 C   0  0  0  0  0  0  0  0  0  0  0  0
  -21.1801  -21.3071   23.7910 C   0  0  0  0  0  0  0  0  0  0  0  0
  -25.3258  -13.6759   21.5438 C   0  0  0  0  0  0  0  0  0  0  0  0
  -26.1496  -13.6099   19.2736 C   0  0  0  0  0  0  0  0  0  0  0  0
  -19.2880  -22.6700   23.1761 C   0  0  0  0  0  0  0  0  0  0  0  0
  -21.9952  -22.0647   22.9507 C   0  0  0  0  0  0  0  0  0  0  0  0
  -28.7108  -24.4949   22.3917 C   0  0  0  0  0  0  0  0  0  0  0  0
  -30.8713  -20.6922   16.3511 C   0  0  0  0  0  0  0  0  0  0  0  0
  -32.2490  -20.9076   16.3844 C   0  0  0  0  0  0  0  0  0  0  0  0
  -24.3930  -12.6862   21.2341 C   0  0  0  0  0  0  0  0  0  0  0  0
  -25.2168  -12.6202   18.9639 C   0  0  0  0  0  0  0  0  0  0  0  0
  -29.7751  -24.5215   21.4916 C   0  0  0  0  0  0  0  0  0  0  0  0
  -24.3613   -9.3277   20.8434 C   0  0  0  0  0  0  0  0  0  0  0  0
  -24.2086   -8.2755   21.7463 C   0  0  0  0  0  0  0  0  0  0  0  0
  -28.7508  -26.3802   20.3447 C   0  0  0  0  0  0  0  0  0  0  0  0
  -30.4951  -23.0110   16.9160 C   0  0  0  0  0  0  0  0  0  0  0  0
  -21.8841   -8.8651   22.0400 C   0  0  0  0  0  0  0  0  0  0  0  0
  -26.2041  -14.1378   20.5636 C   0  0  0  0  0  0  0  0  0  0  0  0
  -28.4775  -14.9742   21.3633 C   0  0  0  0  0  0  0  0  0  0  0  0
  -20.0989  -23.4471   22.3339 C   0  0  0  0  0  0  0  0  0  0  0  0
  -27.6513  -25.4052   22.2683 C   0  0  0  0  0  0  0  0  0  0  0  0
  -21.4665  -23.1359   22.2107 C   0  0  0  0  0  0  0  0  0  0  0  0
  -27.6754  -26.3646   21.2461 C   0  0  0  0  0  0  0  0  0  0  0  0
  -29.9943  -21.7439   16.6168 C   0  0  0  0  0  0  0  0  0  0  0  0
  -32.7498  -22.1747   16.6835 C   0  0  0  0  0  0  0  0  0  0  0  0
  -31.8728  -23.2264   16.9493 C   0  0  0  0  0  0  0  0  0  0  0  0
  -24.3385  -12.1583   19.9442 C   0  0  0  0  0  0  0  0  0  0  0  0
  -29.7938  -25.4624   20.4661 C   0  0  0  0  0  0  0  0  0  0  0  0
  -23.2755  -10.1486   20.5388 C   0  0  0  0  0  0  0  0  0  0  0  0
  -22.9700   -8.0442   22.3446 C   0  0  0  0  0  0  0  0  0  0  0  0
  -22.0369   -9.9173   21.1371 C   0  0  0  0  0  0  0  0  0  0  0  0
  -27.1675  -15.1606   20.8827 C   0  0  0  0  0  0  0  0  0  0  0  0
  -28.9751  -16.2464   21.5060 C   0  0  0  0  0  0  0  0  0  0  0  0
  -29.1817  -13.7597   21.6545 C   0  0  0  0  0  0  0  0  0  0  0  0
  -24.5268  -25.1527   21.7415 C   0  0  0  0  0  0  0  0  0  0  0  0
  -24.5735  -28.3522   22.2736 C   0  0  0  0  0  0  0  0  0  0  0  0
  -26.3565  -31.2621   22.2819 C   0  0  0  0  0  0  0  0  0  0  0  0
  -27.6321  -21.4663   18.8982 C   0  0  0  0  0  0  0  0  0  0  0  0
  -19.4617  -24.5540   21.5318 C   0  0  0  0  0  0  0  0  0  0  0  0
  -26.5237  -25.3806   23.2635 C   0  0  0  0  0  0  0  0  0  0  0  0
  -26.5724  -27.3770   21.0825 C   0  0  0  0  0  0  0  0  0  0  0  0
  -20.4692  -25.5427   20.9506 C   0  0  0  0  0  0  0  0  0  0  0  0
  -27.5773  -20.7373   22.3828 C   0  0  0  0  0  0  0  0  0  0  0  0
  -21.6319  -24.7998   20.3002 C   0  0  0  0  0  0  0  0  0  0  0  0
  -27.5842  -19.2086   22.4368 C   0  0  0  0  0  0  0  0  0  0  0  0
  -26.7550  -21.2567   21.2054 C   0  0  0  0  0  0  0  0  0  0  0  0
  -27.1416  -19.1735   19.9465 C   0  0  0  0  0  0  0  0  0  0  0  0
  -22.3881  -23.9501   21.3287 C   0  0  1  0  0  0  0  0  0  0  0  0
  -25.2452  -26.0227   22.7338 C   0  0  1  0  0  0  0  0  0  0  0  0
  -28.0042  -18.6016   21.0846 C   0  0  2  0  0  0  0  0  0  0  0  0
  -34.2286  -22.3809   16.7144 C   0  0  0  0  0  0  0  0  0  0  0  0
  -26.1135  -33.7201   22.7257 C   0  0  0  0  0  0  0  0  0  0  0  0
  -23.1460  -28.6916   19.5984 C   0  0  0  0  0  0  0  0  0  0  0  0
  -23.7762  -31.1141   19.6486 C   0  0  0  0  0  0  0  0  0  0  0  0
  -22.3012  -30.1738   21.4270 C   0  0  0  0  0  0  0  0  0  0  0  0
  -28.3526  -31.1833   24.4655 C   0  0  0  0  0  0  0  0  0  0  0  0
  -32.3909  -24.6044   17.2753 C   0  0  0  0  0  0  0  0  0  0  0  0
  -28.5214  -21.5133   16.5817 C   0  0  0  0  0  0  0  0  0  0  0  0
  -32.9306  -24.7381   18.7009 C   0  0  0  0  0  0  0  0  0  0  0  0
  -31.8668  -24.5261   19.7717 C   0  0  0  0  0  0  0  0  0  1  0  0
  -24.7579  -29.5770   21.4105 C   0  0  1  0  0  0  0  0  0  0  0  0
  -26.4771  -32.3666   23.3163 C   0  0  2  0  0  0  0  0  0  0  0  0
  -23.5153  -29.8689   20.5228 C   0  0  0  0  0  0  0  0  0  0  0  0
  -26.8526  -16.4496   20.7305 N   0  0  0  0  0  0  0  0  0  0  0  0
  -27.9718  -17.0848   21.1177 N   0  0  0  0  0  0  0  0  0  0  0  0
  -25.4887  -27.3085   22.0767 N   0  0  0  0  0  0  0  0  0  0  0  0
  -27.2045  -20.6435   19.9533 N   0  0  0  0  0  0  0  0  0  0  0  0
  -30.1685  -16.7185   21.9246 N   0  0  0  0  0  0  0  0  0  0  0  0
  -28.5221  -12.5399   21.4514 N   0  0  0  0  0  0  0  0  0  0  0  0
  -23.2543  -24.7838   22.1342 N   0  0  0  0  0  0  0  0  0  0  0  0
  -25.1145  -30.6642   22.3156 N   0  0  0  0  0  0  0  0  0  0  0  0
  -28.0478  -20.8042   17.7495 N   0  0  0  0  0  0  0  0  0  0  0  0
  -27.8721  -32.4399   23.8355 N   0  3  0  0  0  0  0  0  0  0  0  0
  -30.3551  -13.7568   22.0978 O   0  0  0  0  0  0  0  0  0  0  0  0
  -25.0850  -24.8404   20.6962 O   0  0  0  0  0  0  0  0  0  0  0  0
  -23.6557  -28.3255   23.0974 O   0  0  0  0  0  0  0  0  0  0  0  0
  -27.2712  -30.9624   21.5177 O   0  0  0  0  0  0  0  0  0  0  0  0
  -27.6477  -22.6994   18.9762 O   0  0  0  0  0  0  0  0  0  0  0  0
  -23.4286  -11.1923   19.6416 O   0  0  0  0  0  0  0  0  0  0  0  0
  -30.8312  -25.4901   19.5858 O   0  0  0  0  0  0  0  0  0  1  0  0
  -22.8230   -7.0329   23.2104 F   0  0  0  0  0  0  0  0  0  0  0  0
  -20.9898  -10.7019   20.8476 F   0  0  0  0  0  0  0  0  0  0  0  0
  1  2  1  0  0  0  0
  1  5  2  0  0  0  0
  2  6  2  0  0  0  0
  3 10  2  0  0  0  0
  3 18  1  0  0  0  0
  4 11  1  0  0  0  0
  4 18  2  0  0  0  0
  5 20  1  0  0  0  0
  6 22  1  0  0  0  0
  7 12  2  0  0  0  0
  7 21  1  0  0  0  0
  8  9  2  0  0  0  0
  8 24  1  0  0  0  0
  9 25  1  0  0  0  0
 10 27  1  0  0  0  0
 11 27  2  0  0  0  0
 12 28  1  0  0  0  0
 13 14  2  0  0  0  0
 13 29  1  0  0  0  0
 14 30  1  0  0  0  0
 15 23  1  0  0  0  0
 15 28  2  0  0  0  0
 16 24  2  0  0  0  0
 16 26  1  0  0  0  0
 17 30  2  0  0  0  0
 17 31  1  0  0  0  0
 18 32  1  0  0  0  0
 19 32  1  0  0  0  0
 19 33  2  0  0  0  0
 19 34  1  0  0  0  0
 20 22  2  0  0  0  0
 20 39  1  0  0  0  0
 21 23  2  0  0  0  0
 21 40  1  0  0  0  0
 22 48  1  0  0  0  0
 23 41  1  0  0  0  0
 24 58  1  0  0  0  0
 25 26  2  0  0  0  0
 25 51  1  0  0  0  0
 26 57  1  0  0  0  0
 27 79  1  0  0  0  0
 28 80  1  0  0  0  0
 29 31  2  0  0  0  0
 29 79  1  0  0  0  0
 30 81  1  0  0  0  0
 31 82  1  0  0  0  0
 32 64  2  0  0  0  0
 33 65  1  0  0  0  0
 33 68  1  0  0  0  0
 34 69  1  0  0  0  0
 34 74  2  0  0  0  0
 35 49  1  0  0  0  0
 35 70  1  0  0  0  0
 35 75  2  0  0  0  0
 36 61  1  0  0  0  0
 36 66  1  0  0  0  0
 36 76  2  0  0  0  0
 37 62  1  0  0  0  0
 37 71  1  0  0  0  0
 37 77  2  0  0  0  0
 38 67  1  0  0  0  0
 38 72  1  0  0  0  0
 38 78  2  0  0  0  0
 39 42  1  0  0  0  0
 40 49  1  0  0  0  0
 41 66  1  0  0  0  0
 42 44  1  0  0  0  0
 43 45  1  0  0  0  0
 43 46  1  0  0  0  0
 44 48  1  0  0  0  0
 45 50  1  0  0  0  0
 46 67  1  0  0  0  0
 47 50  1  0  0  0  0
 47 67  1  0  0  0  0
 48 70  1  0  0  0  0
 49 66  1  0  0  0  0
 50 65  1  0  0  0  0
 52 62  1  0  0  0  0
 53 63  1  0  0  0  0
 54 63  1  0  0  0  0
 55 63  1  0  0  0  0
 56 73  1  0  0  0  0
 57 59  1  0  0  0  0
 58 72  1  0  0  0  0
 59 60  1  0  0  0  0
 60 80  1  0  0  0  0
 61 63  1  0  0  0  0
 61 71  1  0  0  0  0
 62 73  1  0  0  0  0
 64 65  1  0  0  0  0
M  CHG  1  73   1
M  ISO  4  38 100  60 101  72 100  80 101
M  END
> <Batch ID>
0037

> <Smiles>
CNC(C)C(=O)NC(C(=O)N1Cc2cc([101O:1][101CH2:1]CCc3cc(C[100NH:0][100C:0](=O)N4CCCC(n5nc(-c6ccc(Oc7ccc(F)cc7F)cc6)c(C(N)=O)c5N)C4)ccc3C)ccc2CC1C(=O)NC1CCCc2ccccc21)C(C)(C)C

> <Shape>
0.237

> <Color>
0.068

> <Negative vol penalty>
0.000

$$$$

  -OEChem-04052316593D

 86 94  0     1  0  0  0  0  0999 V2000
  -16.8273  -28.6114   24.0416 C   0  0  0  0  0  0  0  0  0  0  0  0
  -17.4825  -27.8268   23.0980 C   0  0  0  0  0  0  0  0  0  0  0  0
  -30.4819  -23.1382   19.1353 C   0  0  0  0  0  0  0  0  0  0  0  0
  -28.8770  -22.3275   17.5216 C   0  0  0  0  0  0  0  0  0  0  0  0
  -17.2833  -29.9009   24.3120 C   0  0  0  0  0  0  0  0  0  0  0  0
  -18.5935  -28.3317   22.4233 C   0  0  0  0  0  0  0  0  0  0  0  0
  -22.3910  -24.9917   22.1618 C   0  0  0  0  0  0  0  0  0  0  0  0
  -31.0651  -23.9387   18.1531 C   0  0  0  0  0  0  0  0  0  0  0  0
  -29.4602  -23.1280   16.5394 C   0  0  0  0  0  0  0  0  0  0  0  0
  -22.2831  -23.9781   21.2106 C   0  0  0  0  0  0  0  0  0  0  0  0
  -32.7508  -26.4677   16.1586 C   0  0  0  0  0  0  0  0  0  0  0  0
  -33.0624  -27.7847   16.4960 C   0  0  0  0  0  0  0  0  0  0  0  0
  -23.7533  -25.2059   19.7442 C   0  0  0  0  0  0  0  0  0  0  0  0
  -22.3846  -16.2121   17.9746 C   0  0  0  0  0  0  0  0  0  0  0  0
  -24.3537  -16.2332   19.3743 C   0  0  0  0  0  0  0  0  0  0  0  0
  -30.7340  -28.2120   16.9786 C   0  0  0  0  0  0  0  0  0  0  0  0
  -29.3878  -22.3326   18.8195 C   0  0  0  0  0  0  0  0  0  0  0  0
  -27.7344  -21.8550   20.7026 C   0  0  0  0  0  0  0  0  0  0  0  0
  -18.4063  -30.4184   23.6473 C   0  0  0  0  0  0  0  0  0  0  0  0
  -23.1735  -26.1270   21.9064 C   0  0  0  0  0  0  0  0  0  0  0  0
  -19.0641  -29.6299   22.6841 C   0  0  0  0  0  0  0  0  0  0  0  0
  -23.8716  -26.2313   20.6948 C   0  0  0  0  0  0  0  0  0  0  0  0
  -23.4889  -16.8861   18.4960 C   0  0  0  0  0  0  0  0  0  0  0  0
  -22.1451  -14.8851   18.3316 C   0  0  0  0  0  0  0  0  0  0  0  0
  -24.1142  -14.9062   19.7313 C   0  0  0  0  0  0  0  0  0  0  0  0
  -23.0099  -14.2322   19.2100 C   0  0  0  0  0  0  0  0  0  0  0  0
  -30.5543  -23.9336   16.8552 C   0  0  0  0  0  0  0  0  0  0  0  0
  -22.9620  -24.0864   20.0005 C   0  0  0  0  0  0  0  0  0  0  0  0
  -31.4307  -26.0228   16.2311 C   0  0  0  0  0  0  0  0  0  0  0  0
  -32.0540  -28.6569   16.9061 C   0  0  0  0  0  0  0  0  0  0  0  0
  -30.4223  -26.8950   16.6411 C   0  0  0  0  0  0  0  0  0  0  0  0
  -28.7852  -21.5051   19.8336 C   0  0  0  0  0  0  0  0  0  0  0  0
  -27.5323  -20.7317   21.4667 C   0  0  0  0  0  0  0  0  0  0  0  0
  -27.0061  -23.0853   20.8095 C   0  0  0  0  0  0  0  0  0  0  0  0
  -22.5924  -29.2422   21.6575 C   0  0  0  0  0  0  0  0  0  0  0  0
  -25.8240  -29.4322   21.4500 C   0  0  0  0  0  0  0  0  0  0  0  0
  -28.7734  -27.8956   20.6840 C   0  0  0  0  0  0  0  0  0  0  0  0
  -28.6196  -14.9176   20.5363 C   0  0  0  0  0  0  0  0  0  0  0  0
  -18.8335  -31.8351   23.9388 C   0  0  0  0  0  0  0  0  0  0  0  0
  -23.3010  -27.1992   22.9537 C   0  0  0  0  0  0  0  0  0  0  0  0
  -24.7409  -27.4203   20.3802 C   0  0  0  0  0  0  0  0  0  0  0  0
  -20.2436  -32.1586   23.4517 C   0  0  0  0  0  0  0  0  0  0  0  0
  -29.8447  -16.9235   23.2106 C   0  0  0  0  0  0  0  0  0  0  0  0
  -20.4438  -31.6567   22.0252 C   0  0  0  0  0  0  0  0  0  0  0  0
  -29.6173  -18.3567   22.7268 C   0  0  0  0  0  0  0  0  0  0  0  0
  -30.2436  -15.9973   22.0638 C   0  0  0  0  0  0  0  0  0  0  0  0
  -29.0952  -17.4392   20.4280 C   0  0  0  0  0  0  0  0  0  0  0  0
  -20.2877  -30.1331   21.9494 C   0  0  1  0  0  0  0  0  0  0  0  0
  -23.7146  -28.5502   22.3783 C   0  0  1  0  0  0  0  0  0  0  0  0
  -28.6366  -18.3988   21.5395 C   0  0  2  0  0  0  0  0  0  0  0  0
  -20.9562  -14.1854   17.7584 C   0  0  0  0  0  0  0  0  0  0  0  0
  -22.7532  -12.8092   19.5922 C   0  0  0  0  0  0  0  0  0  0  0  0
  -31.2448  -28.3176   20.5770 C   0  0  0  0  0  0  0  0  0  0  0  0
  -25.4402  -31.0109   18.8673 C   0  0  0  0  0  0  0  0  0  0  0  0
  -27.8468  -30.5798   18.3281 C   0  0  0  0  0  0  0  0  0  0  0  0
  -27.2414  -31.8847   20.3661 C   0  0  0  0  0  0  0  0  0  0  0  0
  -29.3362  -25.7961   22.6925 C   0  0  0  0  0  0  0  0  0  0  0  0
  -23.7474  -18.3209   18.1106 C   0  0  0  0  0  0  0  0  0  0  0  0
  -25.0555  -14.2296   20.6736 C   0  0  0  0  0  0  0  0  0  0  0  0
  -23.0772  -19.3413   19.0374 C   0  0  0  0  0  0  0  0  0  0  0  0
  -26.0766  -13.2986   19.9928 C   0  0  0  0  0  0  0  0  0  0  0  0
  -23.2867  -20.7876   18.5865 C   0  0  0  0  0  0  0  0  0  0  0  0
  -26.9555  -13.9846   18.9490 C   0  0  0  0  0  0  0  0  0  0  0  0
  -22.6416  -21.7730   19.5516 C   0  0  0  0  0  0  0  0  0  1  0  0
  -26.8272  -29.3910   20.3227 C   0  0  1  0  0  0  0  0  0  0  0  0
  -30.0917  -27.8159   21.4324 C   0  0  2  0  0  0  0  0  0  0  0  0
  -26.8210  -30.6950   19.4759 C   0  0  0  0  0  0  0  0  0  0  0  0
  -29.2204  -20.2572   20.0269 N   0  0  0  0  0  0  0  0  0  0  0  0
  -28.4393  -19.8132   21.0263 N   0  0  0  0  0  0  0  0  0  0  0  0
  -24.8284  -28.4452   21.4336 N   0  0  0  0  0  0  0  0  0  0  0  0
  -29.2718  -16.0832   20.9710 N   0  0  0  0  0  0  0  0  0  0  0  0
  -26.6691  -20.4499   22.4656 N   0  0  0  0  0  0  0  0  0  0  0  0
  -27.3424  -24.1379   19.9474 N   0  0  0  0  0  0  0  0  0  0  0  0
  -21.4800  -29.4778   22.4426 N   0  0  0  0  0  0  0  0  0  0  0  0
  -28.1153  -29.0813   20.9336 N   0  0  0  0  0  0  0  0  0  0  0  0
  -27.7094  -15.0884   19.5003 N   0  0  0  0  0  0  0  0  0  0  0  0
  -30.3782  -26.4081   21.8285 N   0  3  0  0  0  0  0  0  0  0  0  0
  -26.0954  -23.2521   21.6559 O   0  0  0  0  0  0  0  0  0  0  0  0
  -22.7265  -29.5415   20.4768 O   0  0  0  0  0  0  0  0  0  0  0  0
  -25.9244  -30.3037   22.3172 O   0  0  0  0  0  0  0  0  0  0  0  0
  -28.3696  -26.9976   19.9485 O   0  0  0  0  0  0  0  0  0  0  0  0
  -28.8287  -13.8079   21.0380 O   0  0  0  0  0  0  0  0  0  0  0  0
  -31.1230  -24.7147   15.8966 O   0  0  0  0  0  0  0  0  0  0  0  0
  -22.8579  -23.0988   19.0701 O   0  0  0  0  0  0  0  0  0  1  0  0
  -32.3537  -29.9212   17.2315 F   0  0  0  0  0  0  0  0  0  0  0  0
  -29.1525  -26.4730   16.7139 F   0  0  0  0  0  0  0  0  0  0  0  0
  1  2  1  0  0  0  0
  1  5  2  0  0  0  0
  2  6  2  0  0  0  0
  3  8  2  0  0  0  0
  3 17  1  0  0  0  0
  4  9  1  0  0  0  0
  4 17  2  0  0  0  0
  5 19  1  0  0  0  0
  6 21  1  0  0  0  0
  7 10  2  0  0  0  0
  7 20  1  0  0  0  0
  8 27  1  0  0  0  0
  9 27  2  0  0  0  0
 10 28  1  0  0  0  0
 11 12  2  0  0  0  0
 11 29  1  0  0  0  0
 12 30  1  0  0  0  0
 13 22  1  0  0  0  0
 13 28  2  0  0  0  0
 14 23  1  0  0  0  0
 14 24  2  0  0  0  0
 15 23  2  0  0  0  0
 15 25  1  0  0  0  0
 16 30  2  0  0  0  0
 16 31  1  0  0  0  0
 17 32  1  0  0  0  0
 18 32  1  0  0  0  0
 18 33  2  0  0  0  0
 18 34  1  0  0  0  0
 19 21  2  0  0  0  0
 19 39  1  0  0  0  0
 20 22  2  0  0  0  0
 20 40  1  0  0  0  0
 21 48  1  0  0  0  0
 22 41  1  0  0  0  0
 23 58  1  0  0  0  0
 24 26  1  0  0  0  0
 24 51  1  0  0  0  0
 25 26  2  0  0  0  0
 25 59  1  0  0  0  0
 26 52  1  0  0  0  0
 27 83  1  0  0  0  0
 28 84  1  0  0  0  0
 29 31  2  0  0  0  0
 29 83  1  0  0  0  0
 30 85  1  0  0  0  0
 31 86  1  0  0  0  0
 32 68  2  0  0  0  0
 33 69  1  0  0  0  0
 33 72  1  0  0  0  0
 34 73  1  0  0  0  0
 34 78  2  0  0  0  0
 35 49  1  0  0  0  0
 35 74  1  0  0  0  0
 35 79  2  0  0  0  0
 36 65  1  0  0  0  0
 36 70  1  0  0  0  0
 36 80  2  0  0  0  0
 37 66  1  0  0  0  0
 37 75  1  0  0  0  0
 37 81  2  0  0  0  0
 38 71  1  0  0  0  0
 38 76  1  0  0  0  0
 38 82  2  0  0  0  0
 39 42  1  0  0  0  0
 40 49  1  0  0  0  0
 41 70  1  0  0  0  0
 42 44  1  0  0  0  0
 43 45  1  0  0  0  0
 43 46  1  0  0  0  0
 44 48  1  0  0  0  0
 45 50  1  0  0  0  0
 46 71  1  0  0  0  0
 47 50  1  0  0  0  0
 47 71  1  0  0  0  0
 48 74  1  0  0  0  0
 49 70  1  0  0  0  0
 50 69  1  0  0  0  0
 53 66  1  0  0  0  0
 54 67  1  0  0  0  0
 55 67  1  0  0  0  0
 56 67  1  0  0  0  0
 57 77  1  0  0  0  0
 58 60  1  0  0  0  0
 59 61  1  0  0  0  0
 60 62  1  0  0  0  0
 61 63  1  0  0  0  0
 62 64  1  0  0  0  0
 63 76  1  0  0  0  0
 64 84  1  0  0  0  0
 65 67  1  0  0  0  0
 65 75  1  0  0  0  0
 66 77  1  0  0  0  0
 68 69  1  0  0  0  0
M  CHG  1  77   1
M  ISO  4  38 100  64 101  76 100  84 101
M  END
> <Batch ID>
0037

> <Smiles>
CNC(C)C(=O)NC(C(=O)N1Cc2cc([101O:1][101CH2:1]CCCc3cc(C)c(C)c(CCC[100NH:0][100C:0](=O)N4CCCC(n5nc(-c6ccc(Oc7ccc(F)cc7F)cc6)c(C(N)=O)c5N)C4)c3)ccc2CC1C(=O)NC1CCCc2ccccc21)C(C)(C)C

> <Shape>
0.249

> <Color>
0.075

> <Negative vol penalty>
0.000

$$$$

  -OEChem-04052316593D

 82 90  0     1  0  0  0  0  0999 V2000
  -25.5168   -7.5843   23.2627 C   0  0  0  0  0  0  0  0  0  0  0  0
  -26.4886   -8.5432   22.9951 C   0  0  0  0  0  0  0  0  0  0  0  0
  -24.6316  -30.0307   20.3577 C   0  0  0  0  0  0  0  0  0  0  0  0
  -24.3700  -28.4474   22.1638 C   0  0  0  0  0  0  0  0  0  0  0  0
  -24.2648   -7.6739   22.6558 C   0  0  0  0  0  0  0  0  0  0  0  0
  -26.2092   -9.5918   22.1195 C   0  0  0  0  0  0  0  0  0  0  0  0
  -28.2663  -15.3480   22.4939 C   0  0  0  0  0  0  0  0  0  0  0  0
  -24.2864  -31.0713   21.2199 C   0  0  0  0  0  0  0  0  0  0  0  0
  -24.0249  -29.4881   23.0261 C   0  0  0  0  0  0  0  0  0  0  0  0
  -29.3158  -16.0121   21.8603 C   0  0  0  0  0  0  0  0  0  0  0  0
  -23.4256  -31.7708   25.7917 C   0  0  0  0  0  0  0  0  0  0  0  0
  -24.0101  -31.7855   27.0581 C   0  0  0  0  0  0  0  0  0  0  0  0
  -27.7740  -16.8631   20.2117 C   0  0  0  0  0  0  0  0  0  0  0  0
  -26.1999  -31.9176   26.0460 C   0  0  0  0  0  0  0  0  0  0  0  0
  -29.3125  -20.0989   19.0923 C   0  0  0  0  0  0  0  0  0  0  0  0
  -24.6733  -28.7187   20.8296 C   0  0  0  0  0  0  0  0  0  0  0  0
  -26.3197  -27.1409   19.6862 C   0  0  0  0  0  0  0  0  0  0  0  0
  -23.9667   -8.7295   21.7797 C   0  0  0  0  0  0  0  0  0  0  0  0
  -26.9625  -15.4277   21.9839 C   0  0  0  0  0  0  0  0  0  0  0  0
  -24.9525   -9.6949   21.4992 C   0  0  0  0  0  0  0  0  0  0  0  0
  -26.7094  -16.2011   20.8421 C   0  0  0  0  0  0  0  0  0  0  0  0
  -23.9831  -30.8001   22.5541 C   0  0  0  0  0  0  0  0  0  0  0  0
  -29.0702  -16.7674   20.7174 C   0  0  0  0  0  0  0  0  0  0  0  0
  -24.2283  -31.8294   24.6524 C   0  0  0  0  0  0  0  0  0  0  0  0
  -25.3972  -31.8590   27.1853 C   0  0  0  0  0  0  0  0  0  0  0  0
  -25.6154  -31.9028   24.7796 C   0  0  0  0  0  0  0  0  0  0  0  0
  -25.0292  -27.6432   19.9393 C   0  0  0  0  0  0  0  0  0  0  0  0
  -29.2772  -18.8964   18.3614 C   0  0  0  0  0  0  0  0  0  0  0  0
  -28.5135  -20.9583   18.3784 C   0  0  0  0  0  0  0  0  0  0  0  0
  -26.1230  -26.1324   18.7748 C   0  0  0  0  0  0  0  0  0  0  0  0
  -27.5834  -27.5494   20.2267 C   0  0  0  0  0  0  0  0  0  0  0  0
  -24.8722  -13.3283   20.8320 C   0  0  0  0  0  0  0  0  0  0  0  0
  -22.8967  -15.9010   20.7994 C   0  0  0  0  0  0  0  0  0  0  0  0
  -22.5620  -19.2957   20.6975 C   0  0  0  0  0  0  0  0  0  0  0  0
  -23.2930  -21.6628   16.9973 C   0  0  0  0  0  0  0  0  0  0  0  0
  -22.6153   -8.7582   21.1109 C   0  0  0  0  0  0  0  0  0  0  0  0
  -25.8369  -14.7272   22.6944 C   0  0  0  0  0  0  0  0  0  0  0  0
  -25.3241  -16.3353   20.2662 C   0  0  0  0  0  0  0  0  0  0  0  0
  -22.2735  -10.1083   20.4858 C   0  0  0  0  0  0  0  0  0  0  0  0
  -22.0202  -24.8650   16.1014 C   0  0  0  0  0  0  0  0  0  0  0  0
  -23.4548  -10.6371   19.6785 C   0  0  0  0  0  0  0  0  0  0  0  0
  -22.7912  -25.8305   17.0032 C   0  0  0  0  0  0  0  0  0  0  0  0
  -21.7034  -23.5543   16.8182 C   0  0  0  0  0  0  0  0  0  0  0  0
  -23.6416  -23.8407   18.3133 C   0  0  0  0  0  0  0  0  0  0  0  0
  -24.6791  -10.8611   20.5743 C   0  0  1  0  0  0  0  0  0  0  0  0
  -24.6359  -14.4593   21.7925 C   0  0  1  0  0  0  0  0  0  0  0  0
  -24.0327  -25.1549   17.6161 C   0  0  2  0  0  0  0  0  0  0  0  0
  -28.1461  -22.3655   18.6203 C   0  0  0  0  0  0  0  0  0  0  0  0
  -31.3808  -17.5402   18.0807 C   0  0  0  0  0  0  0  0  0  0  0  0
  -20.8217  -21.1029   20.6445 C   0  0  0  0  0  0  0  0  0  0  0  0
  -22.3600  -15.2945   17.8576 C   0  0  0  0  0  0  0  0  0  0  0  0
  -21.4173  -17.6022   17.6258 C   0  0  0  0  0  0  0  0  0  0  0  0
  -20.3397  -15.9659   19.1698 C   0  0  0  0  0  0  0  0  0  0  0  0
  -23.5191  -20.4527   23.2479 C   0  0  0  0  0  0  0  0  0  0  0  0
  -25.9276  -19.8604   16.0730 C   0  0  0  0  0  0  0  0  0  0  0  0
  -27.1893  -20.7145   16.2568 C   0  0  0  0  0  0  0  0  0  0  0  0
  -24.9797  -19.8630   17.2704 C   0  0  0  0  0  0  0  0  0  0  0  0
  -29.9840  -17.6002   18.6858 C   0  0  1  0  0  0  0  0  0  1  0  0
  -22.5669  -16.9831   19.7998 C   0  0  1  0  0  0  0  0  0  0  0  0
  -21.7212  -20.2503   21.5259 C   0  0  2  0  0  0  0  0  0  0  0  0
  -21.6975  -16.4575   18.6227 C   0  0  0  0  0  0  0  0  0  0  0  0
  -24.0827  -27.0064   19.2447 N   0  0  0  0  0  0  0  0  0  0  0  0
  -28.5159  -18.9802   17.2671 N   0  0  0  0  0  0  0  0  0  0  0  0
  -28.0653  -20.2458   17.3052 N   0  0  0  0  0  0  0  0  0  0  0  0
  -24.7790  -26.0936   18.5460 N   0  0  0  0  0  0  0  0  0  0  0  0
  -24.2579  -15.6265   20.9931 N   0  0  0  0  0  0  0  0  0  0  0  0
  -22.9232  -22.9642   17.3749 N   0  0  0  0  0  0  0  0  0  0  0  0
  -26.9703  -25.2839   18.1546 N   0  0  0  0  0  0  0  0  0  0  0  0
  -27.6055  -28.6021   21.1517 N   0  0  0  0  0  0  0  0  0  0  0  0
  -24.5337  -12.0854   21.3321 N   0  0  0  0  0  0  0  0  0  0  0  0
  -21.9524  -18.0667   20.5591 N   0  0  0  0  0  0  0  0  0  0  0  0
  -24.4659  -21.1818   17.5662 N   0  0  0  0  0  0  0  0  0  0  0  0
  -22.5977  -21.1573   22.3196 N   0  3  0  0  0  0  0  0  0  0  0  0
  -28.6627  -27.0081   19.8866 O   0  0  0  0  0  0  0  0  0  0  0  0
  -25.3266  -13.5658   19.7190 O   0  0  0  0  0  0  0  0  0  0  0  0
  -21.9805  -15.3255   21.3920 O   0  0  0  0  0  0  0  0  0  0  0  0
  -23.6490  -19.6102   20.2179 O   0  0  0  0  0  0  0  0  0  0  0  0
  -22.6301  -20.9822   16.2072 O   0  0  0  0  0  0  0  0  0  0  0  0
  -23.6465  -31.8154   23.3958 O   0  0  0  0  0  0  0  0  0  0  0  0
  -30.0929  -17.4161   20.0967 O   0  0  0  0  0  0  0  0  0  1  0  0
  -25.9582  -31.8747   28.4015 F   0  0  0  0  0  0  0  0  0  0  0  0
  -26.3917  -31.9605   23.6887 F   0  0  0  0  0  0  0  0  0  0  0  0
  1  2  1  0  0  0  0
  1  5  2  0  0  0  0
  2  6  2  0  0  0  0
  3  8  2  0  0  0  0
  3 16  1  0  0  0  0
  4  9  1  0  0  0  0
  4 16  2  0  0  0  0
  5 18  1  0  0  0  0
  6 20  1  0  0  0  0
  7 10  2  0  0  0  0
  7 19  1  0  0  0  0
  8 22  1  0  0  0  0
  9 22  2  0  0  0  0
 10 23  1  0  0  0  0
 11 12  2  0  0  0  0
 11 24  1  0  0  0  0
 12 25  1  0  0  0  0
 13 21  1  0  0  0  0
 13 23  2  0  0  0  0
 14 25  2  0  0  0  0
 14 26  1  0  0  0  0
 15 28  1  0  0  0  0
 15 29  2  0  0  0  0
 16 27  1  0  0  0  0
 17 27  1  0  0  0  0
 17 30  2  0  0  0  0
 17 31  1  0  0  0  0
 18 20  2  0  0  0  0
 18 36  1  0  0  0  0
 19 21  2  0  0  0  0
 19 37  1  0  0  0  0
 20 45  1  0  0  0  0
 21 38  1  0  0  0  0
 22 79  1  0  0  0  0
 23 80  1  0  0  0  0
 24 26  2  0  0  0  0
 24 79  1  0  0  0  0
 25 81  1  0  0  0  0
 26 82  1  0  0  0  0
 27 62  2  0  0  0  0
 28 58  1  0  0  0  0
 28 63  2  0  0  0  0
 29 48  1  0  0  0  0
 29 64  1  0  0  0  0
 30 65  1  0  0  0  0
 30 68  1  0  0  0  0
 31 69  1  0  0  0  0
 31 74  2  0  0  0  0
 32 46  1  0  0  0  0
 32 70  1  0  0  0  0
 32 75  2  0  0  0  0
 33 59  1  0  0  0  0
 33 66  1  0  0  0  0
 33 76  2  0  0  0  0
 34 60  1  0  0  0  0
 34 71  1  0  0  0  0
 34 77  2  0  0  0  0
 35 67  1  0  0  0  0
 35 72  1  0  0  0  0
 35 78  2  0  0  0  0
 36 39  1  0  0  0  0
 37 46  1  0  0  0  0
 38 66  1  0  0  0  0
 39 41  1  0  0  0  0
 40 42  1  0  0  0  0
 40 43  1  0  0  0  0
 41 45  1  0  0  0  0
 42 47  1  0  0  0  0
 43 67  1  0  0  0  0
 44 47  1  0  0  0  0
 44 67  1  0  0  0  0
 45 70  1  0  0  0  0
 46 66  1  0  0  0  0
 47 65  1  0  0  0  0
 49 58  1  0  0  0  0
 50 60  1  0  0  0  0
 51 61  1  0  0  0  0
 52 61  1  0  0  0  0
 53 61  1  0  0  0  0
 54 73  1  0  0  0  0
 55 56  1  0  0  0  0
 55 57  1  0  0  0  0
 56 64  1  0  0  0  0
 57 72  1  0  0  0  0
 58 80  1  0  0  0  0
 59 61  1  0  0  0  0
 59 71  1  0  0  0  0
 60 73  1  0  0  0  0
 62 65  1  0  0  0  0
 63 64  1  0  0  0  0
M  CHG  1  73   1
M  ISO  4  35 100  58 101  72 100  80 101
M  END
> <Batch ID>
0037

> <Smiles>
CNC(C)C(=O)NC(C(=O)N1Cc2cc([101O:1][101CH:1](C)c3cc(C)n(CCC[100NH:0][100C:0](=O)N4CCCC(n5nc(-c6ccc(Oc7ccc(F)cc7F)cc6)c(C(N)=O)c5N)C4)n3)ccc2CC1C(=O)NC1CCCc2ccccc21)C(C)(C)C

> <Shape>
0.227

> <Color>
0.074

> <Negative vol penalty>
0.000

$$$$

  -OEChem-04052316593D

 89 97  0     1  0  0  0  0  0999 V2000
  -26.5141   -7.9421   24.2174 C   0  0  0  0  0  0  0  0  0  0  0  0
  -27.3898   -8.9843   23.9304 C   0  0  0  0  0  0  0  0  0  0  0  0
  -24.7864  -32.0198   23.5284 C   0  0  0  0  0  0  0  0  0  0  0  0
  -26.3242  -30.2060   23.9558 C   0  0  0  0  0  0  0  0  0  0  0  0
  -25.3814   -7.7475   23.4280 C   0  0  0  0  0  0  0  0  0  0  0  0
  -27.1340   -9.8318   22.8530 C   0  0  0  0  0  0  0  0  0  0  0  0
  -28.3645  -15.8212   22.5076 C   0  0  0  0  0  0  0  0  0  0  0  0
  -25.5960  -32.8808   24.2693 C   0  0  0  0  0  0  0  0  0  0  0  0
  -27.1338  -31.0670   24.6966 C   0  0  0  0  0  0  0  0  0  0  0  0
  -29.4149  -16.5310   21.9274 C   0  0  0  0  0  0  0  0  0  0  0  0
  -28.4658  -34.6097   23.8136 C   0  0  0  0  0  0  0  0  0  0  0  0
  -28.7315  -35.8702   23.2787 C   0  0  0  0  0  0  0  0  0  0  0  0
  -28.0802  -16.8763   19.9479 C   0  0  0  0  0  0  0  0  0  0  0  0
  -30.1653  -20.4809   18.4807 C   0  0  0  0  0  0  0  0  0  0  0  0
  -30.3291  -21.6797   20.5593 C   0  0  0  0  0  0  0  0  0  0  0  0
  -27.7107  -36.9044   25.2089 C   0  0  0  0  0  0  0  0  0  0  0  0
  -25.1504  -30.6824   23.3717 C   0  0  0  0  0  0  0  0  0  0  0  0
  -24.3904  -29.5312   21.2258 C   0  0  0  0  0  0  0  0  0  0  0  0
  -25.1065   -8.5990   22.3463 C   0  0  0  0  0  0  0  0  0  0  0  0
  -27.1660  -15.6239   21.8068 C   0  0  0  0  0  0  0  0  0  0  0  0
  -25.9973   -9.6476   22.0476 C   0  0  0  0  0  0  0  0  0  0  0  0
  -27.0152  -16.1658   20.5224 C   0  0  0  0  0  0  0  0  0  0  0  0
  -30.7311  -20.6290   19.7421 C   0  0  0  0  0  0  0  0  0  0  0  0
  -26.7697  -32.4044   24.8533 C   0  0  0  0  0  0  0  0  0  0  0  0
  -29.2739  -17.0562   20.6462 C   0  0  0  0  0  0  0  0  0  0  0  0
  -27.8225  -34.4965   25.0461 C   0  0  0  0  0  0  0  0  0  0  0  0
  -28.3540  -37.0176   23.9764 C   0  0  0  0  0  0  0  0  0  0  0  0
  -27.4449  -35.6438   25.7437 C   0  0  0  0  0  0  0  0  0  0  0  0
  -24.3142  -29.7923   22.6070 C   0  0  0  0  0  0  0  0  0  0  0  0
  -29.2091  -21.4029   18.0865 C   0  0  0  0  0  0  0  0  0  0  0  0
  -29.3657  -22.5481   20.0720 C   0  0  0  0  0  0  0  0  0  0  0  0
  -23.3863  -28.6237   20.9920 C   0  0  0  0  0  0  0  0  0  0  0  0
  -25.2886  -30.0616   20.2421 C   0  0  0  0  0  0  0  0  0  0  0  0
  -25.5788  -13.0813   20.7486 C   0  0  0  0  0  0  0  0  0  0  0  0
  -23.3322  -15.2903   19.9771 C   0  0  0  0  0  0  0  0  0  0  0  0
  -22.5991  -18.5393   19.2332 C   0  0  0  0  0  0  0  0  0  0  0  0
  -20.6703  -24.8409   24.9734 C   0  0  0  0  0  0  0  0  0  0  0  0
  -23.8946   -8.3203   21.4928 C   0  0  0  0  0  0  0  0  0  0  0  0
  -26.0328  -14.8788   22.4571 C   0  0  0  0  0  0  0  0  0  0  0  0
  -25.7415  -15.9993   19.7361 C   0  0  0  0  0  0  0  0  0  0  0  0
  -23.4979   -9.4912   20.5974 C   0  0  0  0  0  0  0  0  0  0  0  0
  -19.1136  -27.2447   22.6283 C   0  0  0  0  0  0  0  0  0  0  0  0
  -24.7234  -10.0622   19.8910 C   0  0  0  0  0  0  0  0  0  0  0  0
  -20.2703  -28.1877   22.3013 C   0  0  0  0  0  0  0  0  0  0  0  0
  -19.2609  -26.6260   24.0150 C   0  0  0  0  0  0  0  0  0  0  0  0
  -21.7181  -26.8787   23.9047 C   0  0  0  0  0  0  0  0  0  0  0  0
  -25.7410  -10.6032   20.9025 C   0  0  1  0  0  0  0  0  0  0  0  0
  -25.0444  -14.2975   21.4508 C   0  0  1  0  0  0  0  0  0  0  0  0
  -21.6242  -27.4832   22.4957 C   0  0  2  0  0  0  0  0  0  0  0  0
  -27.3224  -20.4085   16.7680 C   0  0  0  0  0  0  0  0  0  0  0  0
  -20.6813  -20.0332   18.6104 C   0  0  0  0  0  0  0  0  0  0  0  0
  -23.3804  -14.1658   17.1411 C   0  0  0  0  0  0  0  0  0  0  0  0
  -22.2102  -16.2415   16.3727 C   0  0  0  0  0  0  0  0  0  0  0  0
  -21.0996  -14.7176   18.0058 C   0  0  0  0  0  0  0  0  0  0  0  0
  -22.0925  -23.0535   25.9019 C   0  0  0  0  0  0  0  0  0  0  0  0
  -22.9595  -20.2050   21.6529 C   0  0  0  0  0  0  0  0  0  0  0  0
  -31.7768  -19.6524   20.2228 C   0  0  0  0  0  0  0  0  0  0  0  0
  -28.5791  -21.2742   16.7399 C   0  0  0  0  0  0  0  0  0  0  0  0
  -28.9121  -23.6880   20.9214 C   0  0  0  0  0  0  0  0  0  0  0  0
  -27.7114  -23.3630   21.8295 C   0  0  0  0  0  0  0  0  0  0  0  0
  -27.2316  -24.5773   22.6321 C   0  0  0  0  0  0  0  0  0  0  0  0
  -25.9981  -24.2861   23.4927 C   0  0  0  0  0  0  0  0  0  0  0  0
  -25.4735  -25.5161   24.2380 C   0  0  0  0  0  0  0  0  0  0  0  0
  -24.2594  -25.1619   25.1033 C   0  0  0  0  0  0  0  0  0  0  0  0
  -23.0940  -24.6204   24.2810 C   0  0  0  0  0  0  0  0  0  0  0  0
  -31.1661  -18.4632   20.9561 C   0  0  0  0  0  0  0  0  0  1  0  0
  -23.0438  -16.1439   18.7658 C   0  0  1  0  0  0  0  0  0  0  0  0
  -21.5180  -19.4716   19.7494 C   0  0  2  0  0  0  0  0  0  0  0  0
  -22.4583  -15.3188   17.5851 C   0  0  0  0  0  0  0  0  0  0  0  0
  -23.3387  -29.1063   23.2085 N   0  0  0  0  0  0  0  0  0  0  0  0
  -28.7932  -22.4363   18.8524 N   0  0  0  0  0  0  0  0  0  0  0  0
  -22.7926  -28.4052   22.2003 N   0  0  0  0  0  0  0  0  0  0  0  0
  -24.6645  -15.2576   20.4125 N   0  0  0  0  0  0  0  0  0  0  0  0
  -20.5727  -26.0010   24.1876 N   0  0  0  0  0  0  0  0  0  0  0  0
  -22.9621  -27.9994   19.8728 N   0  0  0  0  0  0  0  0  0  0  0  0
  -26.2608  -30.9837   20.6530 N   0  0  0  0  0  0  0  0  0  0  0  0
  -25.3181  -11.8932   21.4043 N   0  0  0  0  0  0  0  0  0  0  0  0
  -22.1797  -17.2258   19.2252 N   0  0  0  0  0  0  0  0  0  0  0  0
  -21.9423  -24.2638   25.1066 N   0  0  0  0  0  0  0  0  0  0  0  0
  -22.1277  -20.6115   20.4910 N   0  3  0  0  0  0  0  0  0  0  0  0
  -25.2202  -29.7401   19.0315 O   0  0  0  0  0  0  0  0  0  0  0  0
  -26.1816  -13.2111   19.6896 O   0  0  0  0  0  0  0  0  0  0  0  0
  -22.4080  -14.6809   20.5213 O   0  0  0  0  0  0  0  0  0  0  0  0
  -23.7038  -18.9370   18.8697 O   0  0  0  0  0  0  0  0  0  0  0  0
  -19.6755  -24.3436   25.5167 O   0  0  0  0  0  0  0  0  0  0  0  0
  -27.5601  -33.2443   25.5761 O   0  0  0  0  0  0  0  0  0  0  0  0
  -30.2978  -17.7489   20.0773 O   0  0  0  0  0  0  0  0  0  1  0  0
  -28.6106  -38.2280   23.4634 F   0  0  0  0  0  0  0  0  0  0  0  0
  -26.8277  -35.5414   26.9287 F   0  0  0  0  0  0  0  0  0  0  0  0
  1  2  1  0  0  0  0
  1  5  2  0  0  0  0
  2  6  2  0  0  0  0
  3  8  2  0  0  0  0
  3 17  1  0  0  0  0
  4  9  1  0  0  0  0
  4 17  2  0  0  0  0
  5 19  1  0  0  0  0
  6 21  1  0  0  0  0
  7 10  2  0  0  0  0
  7 20  1  0  0  0  0
  8 24  1  0  0  0  0
  9 24  2  0  0  0  0
 10 25  1  0  0  0  0
 11 12  2  0  0  0  0
 11 26  1  0  0  0  0
 12 27  1  0  0  0  0
 13 22  1  0  0  0  0
 13 25  2  0  0  0  0
 14 23  2  0  0  0  0
 14 30  1  0  0  0  0
 15 23  1  0  0  0  0
 15 31  2  0  0  0  0
 16 27  2  0  0  0  0
 16 28  1  0  0  0  0
 17 29  1  0  0  0  0
 18 29  1  0  0  0  0
 18 32  2  0  0  0  0
 18 33  1  0  0  0  0
 19 21  2  0  0  0  0
 19 38  1  0  0  0  0
 20 22  2  0  0  0  0
 20 39  1  0  0  0  0
 21 47  1  0  0  0  0
 22 40  1  0  0  0  0
 23 57  1  0  0  0  0
 24 86  1  0  0  0  0
 25 87  1  0  0  0  0
 26 28  2  0  0  0  0
 26 86  1  0  0  0  0
 27 88  1  0  0  0  0
 28 89  1  0  0  0  0
 29 70  2  0  0  0  0
 30 58  1  0  0  0  0
 30 71  2  0  0  0  0
 31 59  1  0  0  0  0
 31 71  1  0  0  0  0
 32 72  1  0  0  0  0
 32 75  1  0  0  0  0
 33 76  1  0  0  0  0
 33 81  2  0  0  0  0
 34 48  1  0  0  0  0
 34 77  1  0  0  0  0
 34 82  2  0  0  0  0
 35 67  1  0  0  0  0
 35 73  1  0  0  0  0
 35 83  2  0  0  0  0
 36 68  1  0  0  0  0
 36 78  1  0  0  0  0
 36 84  2  0  0  0  0
 37 74  1  0  0  0  0
 37 79  1  0  0  0  0
 37 85  2  0  0  0  0
 38 41  1  0  0  0  0
 39 48  1  0  0  0  0
 40 73  1  0  0  0  0
 41 43  1  0  0  0  0
 42 44  1  0  0  0  0
 42 45  1  0  0  0  0
 43 47  1  0  0  0  0
 44 49  1  0  0  0  0
 45 74  1  0  0  0  0
 46 49  1  0  0  0  0
 46 74  1  0  0  0  0
 47 77  1  0  0  0  0
 48 73  1  0  0  0  0
 49 72  1  0  0  0  0
 50 58  1  0  0  0  0
 51 68  1  0  0  0  0
 52 69  1  0  0  0  0
 53 69  1  0  0  0  0
 54 69  1  0  0  0  0
 55 79  1  0  0  0  0
 56 80  1  0  0  0  0
 57 66  1  0  0  0  0
 59 60  1  0  0  0  0
 60 61  1  0  0  0  0
 61 62  1  0  0  0  0
 62 63  1  0  0  0  0
 63 64  1  0  0  0  0
 64 65  1  0  0  0  0
 65 79  1  0  0  0  0
 66 87  1  0  0  0  0
 67 69  1  0  0  0  0
 67 78  1  0  0  0  0
 68 80  1  0  0  0  0
 70 72  1  0  0  0  0
M  CHG  1  80   1
M  ISO  4  37 100  66 101  79 100  87 101
M  END
> <Batch ID>
0037

> <Smiles>
CCc1cc(C[101CH2:1][101O:1]c2ccc3c(c2)CN(C(=O)C(NC(=O)C(C)NC)C(C)(C)C)C(C(=O)NC2CCCc4ccccc42)C3)cc(CCCCCCC[100N:0](C)[100C:0](=O)N2CCCC(n3nc(-c4ccc(Oc5ccc(F)cc5F)cc4)c(C(N)=O)c3N)C2)n1

> <Shape>
0.253

> <Color>
0.073

> <Negative vol penalty>
0.000

$$$$

  -OEChem-04052316593D

 86 94  0     1  0  0  0  0  0999 V2000
  -18.8845  -26.7620   17.9196 C   0  0  0  0  0  0  0  0  0  0  0  0
  -19.1397  -25.4777   17.4496 C   0  0  0  0  0  0  0  0  0  0  0  0
  -27.8880  -23.5802   20.8215 C   0  0  0  0  0  0  0  0  0  0  0  0
  -28.0161  -23.0459   18.4688 C   0  0  0  0  0  0  0  0  0  0  0  0
  -19.3264  -27.1398   19.1868 C   0  0  0  0  0  0  0  0  0  0  0  0
  -19.8379  -24.5708   18.2461 C   0  0  0  0  0  0  0  0  0  0  0  0
  -20.2379  -17.5667   19.6946 C   0  0  0  0  0  0  0  0  0  0  0  0
  -27.8699  -24.9401   20.5117 C   0  0  0  0  0  0  0  0  0  0  0  0
  -27.9980  -24.4058   18.1590 C   0  0  0  0  0  0  0  0  0  0  0  0
  -21.1705  -16.5327   19.7639 C   0  0  0  0  0  0  0  0  0  0  0  0
  -25.6224  -27.2147   19.4126 C   0  0  0  0  0  0  0  0  0  0  0  0
  -24.6942  -28.0181   20.0748 C   0  0  0  0  0  0  0  0  0  0  0  0
  -21.8163  -17.2710   21.9678 C   0  0  0  0  0  0  0  0  0  0  0  0
  -25.3442  -13.7940   20.0645 C   0  0  0  0  0  0  0  0  0  0  0  0
  -26.4945  -29.3479   20.9848 C   0  0  0  0  0  0  0  0  0  0  0  0
  -27.9612  -22.6331   19.8001 C   0  0  0  0  0  0  0  0  0  0  0  0
  -26.8715  -20.3715   20.2535 C   0  0  0  0  0  0  0  0  0  0  0  0
  -20.0219  -26.2341   20.0032 C   0  0  0  0  0  0  0  0  0  0  0  0
  -20.0948  -18.4687   20.7587 C   0  0  0  0  0  0  0  0  0  0  0  0
  -20.2907  -24.9374   19.5250 C   0  0  0  0  0  0  0  0  0  0  0  0
  -20.8794  -18.3141   21.9106 C   0  0  0  0  0  0  0  0  0  0  0  0
  -23.9973  -13.4537   20.1226 C   0  0  0  0  0  0  0  0  0  0  0  0
  -23.6282  -12.1500   20.4345 C   0  0  0  0  0  0  0  0  0  0  0  0
  -27.9248  -25.3529   19.1804 C   0  0  0  0  0  0  0  0  0  0  0  0
  -21.9620  -16.3865   20.8994 C   0  0  0  0  0  0  0  0  0  0  0  0
  -26.9867  -27.4778   19.5365 C   0  0  0  0  0  0  0  0  0  0  0  0
  -25.1302  -29.0847   20.8609 C   0  0  0  0  0  0  0  0  0  0  0  0
  -27.4227  -28.5444   20.3225 C   0  0  0  0  0  0  0  0  0  0  0  0
  -27.9805  -21.2282   20.1195 C   0  0  0  0  0  0  0  0  0  0  0  0
  -26.2756  -12.8016   20.3244 C   0  0  0  0  0  0  0  0  0  0  0  0
  -24.6364  -11.2312   20.6777 C   0  0  0  0  0  0  0  0  0  0  0  0
  -27.4171  -19.1489   20.5600 C   0  0  0  0  0  0  0  0  0  0  0  0
  -25.4731  -20.6555   20.1133 C   0  0  0  0  0  0  0  0  0  0  0  0
  -20.4808  -21.6044   21.1085 C   0  0  0  0  0  0  0  0  0  0  0  0
  -19.2583  -21.0322   24.0582 C   0  0  0  0  0  0  0  0  0  0  0  0
  -18.7115  -18.8052   26.5857 C   0  0  0  0  0  0  0  0  0  0  0  0
  -31.2455  -15.1777   19.7127 C   0  0  0  0  0  0  0  0  0  0  0  0
  -20.5210  -26.7033   21.3469 C   0  0  0  0  0  0  0  0  0  0  0  0
  -19.0655  -19.5626   20.6794 C   0  0  0  0  0  0  0  0  0  0  0  0
  -20.7504  -19.2436   23.0886 C   0  0  0  0  0  0  0  0  0  0  0  0
  -20.9271  -25.5636   22.2777 C   0  0  0  0  0  0  0  0  0  0  0  0
  -32.1416  -17.8818   21.8484 C   0  0  0  0  0  0  0  0  0  0  0  0
  -21.7925  -24.5505   21.5351 C   0  0  0  0  0  0  0  0  0  0  0  0
  -31.0514  -18.9246   21.5953 C   0  0  0  0  0  0  0  0  0  0  0  0
  -32.5084  -17.1277   20.5722 C   0  0  0  0  0  0  0  0  0  0  0  0
  -30.2783  -17.5549   19.6141 C   0  0  0  0  0  0  0  0  0  0  0  0
  -21.0233  -23.9174   20.3693 C   0  0  1  0  0  0  0  0  0  0  0  0
  -19.3645  -20.7331   21.6110 C   0  0  1  0  0  0  0  0  0  0  0  0
  -29.8350  -18.3026   20.8833 C   0  0  2  0  0  0  0  0  0  0  0  0
  -25.5075   -9.0501   21.5556 C   0  0  0  0  0  0  0  0  0  0  0  0
  -20.0527  -11.8627   21.8622 C   0  0  0  0  0  0  0  0  0  0  0  0
  -17.7220  -18.6400   28.8859 C   0  0  0  0  0  0  0  0  0  0  0  0
  -21.7042  -22.4472   25.2093 C   0  0  0  0  0  0  0  0  0  0  0  0
  -21.1568  -21.4351   27.4328 C   0  0  0  0  0  0  0  0  0  0  0  0
  -19.5471  -23.0011   26.3470 C   0  0  0  0  0  0  0  0  0  0  0  0
  -16.7199  -16.7983   25.7110 C   0  0  0  0  0  0  0  0  0  0  0  0
  -22.1910  -11.7567   20.5065 C   0  0  0  0  0  0  0  0  0  0  0  0
  -22.9662  -14.5073   19.8430 C   0  0  0  0  0  0  0  0  0  1  0  0
  -27.7302  -13.1309   20.2724 C   0  0  0  0  0  0  0  0  0  0  0  0
  -24.3020   -9.8158   21.0191 C   0  0  0  0  0  0  0  0  0  0  0  0
  -21.5258  -12.2348   21.8060 C   0  0  0  0  0  0  0  0  0  0  0  0
  -28.3780  -12.9381   18.8874 C   0  0  0  0  0  0  0  0  0  0  0  0
  -29.8542  -13.3245   18.8244 C   0  0  0  0  0  0  0  0  0  0  0  0
  -19.8387  -20.6731   25.4048 C   0  0  1  0  0  0  0  0  0  0  0  0
  -17.4674  -18.4851   27.3947 C   0  0  2  0  0  0  0  0  0  0  0  0
  -20.5657  -21.8726   26.0757 C   0  0  0  0  0  0  0  0  0  0  0  0
  -29.1428  -20.6028   20.3243 N   0  0  0  0  0  0  0  0  0  0  0  0
  -25.9553  -11.5244   20.6306 N   0  0  0  0  0  0  0  0  0  0  0  0
  -28.7671  -19.3402   20.5902 N   0  0  0  0  0  0  0  0  0  0  0  0
  -19.7342  -20.3013   22.9605 N   0  0  0  0  0  0  0  0  0  0  0  0
  -31.3110  -16.5611   19.9468 N   0  0  0  0  0  0  0  0  0  0  0  0
  -26.8689  -17.9396   20.8041 N   0  0  0  0  0  0  0  0  0  0  0  0
  -25.0857  -21.9645   19.7956 N   0  0  0  0  0  0  0  0  0  0  0  0
  -20.1055  -22.9103   20.8570 N   0  0  0  0  0  0  0  0  0  0  0  0
  -18.7381  -20.1260   26.1909 N   0  0  0  0  0  0  0  0  0  0  0  0
  -30.0730  -14.7224   19.1222 N   0  0  0  0  0  0  0  0  0  0  0  0
  -17.0273  -17.0850   27.1359 N   0  3  0  0  0  0  0  0  0  0  0  0
  -24.5923  -19.7783   20.2813 O   0  0  0  0  0  0  0  0  0  0  0  0
  -21.6000  -21.1275   20.9615 O   0  0  0  0  0  0  0  0  0  0  0  0
  -18.4086  -21.9233   23.9841 O   0  0  0  0  0  0  0  0  0  0  0  0
  -19.5752  -17.9681   26.3328 O   0  0  0  0  0  0  0  0  0  0  0  0
  -32.1616  -14.4047   20.0129 O   0  0  0  0  0  0  0  0  0  0  0  0
  -27.9069  -26.6798   18.8777 O   0  0  0  0  0  0  0  0  0  0  0  0
  -22.8735  -15.3785   20.9694 O   0  0  0  0  0  0  0  0  0  1  0  0
  -24.2387  -29.8571   21.4955 F   0  0  0  0  0  0  0  0  0  0  0  0
  -28.7319  -28.8029   20.4444 F   0  0  0  0  0  0  0  0  0  0  0  0
  1  2  1  0  0  0  0
  1  5  2  0  0  0  0
  2  6  2  0  0  0  0
  3  8  2  0  0  0  0
  3 16  1  0  0  0  0
  4  9  1  0  0  0  0
  4 16  2  0  0  0  0
  5 18  1  0  0  0  0
  6 20  1  0  0  0  0
  7 10  2  0  0  0  0
  7 19  1  0  0  0  0
  8 24  1  0  0  0  0
  9 24  2  0  0  0  0
 10 25  1  0  0  0  0
 11 12  2  0  0  0  0
 11 26  1  0  0  0  0
 12 27  1  0  0  0  0
 13 21  1  0  0  0  0
 13 25  2  0  0  0  0
 14 22  2  0  0  0  0
 14 30  1  0  0  0  0
 15 27  2  0  0  0  0
 15 28  1  0  0  0  0
 16 29  1  0  0  0  0
 17 29  1  0  0  0  0
 17 32  2  0  0  0  0
 17 33  1  0  0  0  0
 18 20  2  0  0  0  0
 18 38  1  0  0  0  0
 19 21  2  0  0  0  0
 19 39  1  0  0  0  0
 20 47  1  0  0  0  0
 21 40  1  0  0  0  0
 22 23  1  0  0  0  0
 22 58  1  0  0  0  0
 23 31  2  0  0  0  0
 23 57  1  0  0  0  0
 24 83  1  0  0  0  0
 25 84  1  0  0  0  0
 26 28  2  0  0  0  0
 26 83  1  0  0  0  0
 27 85  1  0  0  0  0
 28 86  1  0  0  0  0
 29 67  2  0  0  0  0
 30 59  1  0  0  0  0
 30 68  2  0  0  0  0
 31 60  1  0  0  0  0
 31 68  1  0  0  0  0
 32 69  1  0  0  0  0
 32 72  1  0  0  0  0
 33 73  1  0  0  0  0
 33 78  2  0  0  0  0
 34 48  1  0  0  0  0
 34 74  1  0  0  0  0
 34 79  2  0  0  0  0
 35 64  1  0  0  0  0
 35 70  1  0  0  0  0
 35 80  2  0  0  0  0
 36 65  1  0  0  0  0
 36 75  1  0  0  0  0
 36 81  2  0  0  0  0
 37 71  1  0  0  0  0
 37 76  1  0  0  0  0
 37 82  2  0  0  0  0
 38 41  1  0  0  0  0
 39 48  1  0  0  0  0
 40 70  1  0  0  0  0
 41 43  1  0  0  0  0
 42 44  1  0  0  0  0
 42 45  1  0  0  0  0
 43 47  1  0  0  0  0
 44 49  1  0  0  0  0
 45 71  1  0  0  0  0
 46 49  1  0  0  0  0
 46 71  1  0  0  0  0
 47 74  1  0  0  0  0
 48 70  1  0  0  0  0
 49 69  1  0  0  0  0
 50 60  1  0  0  0  0
 51 61  1  0  0  0  0
 52 65  1  0  0  0  0
 53 66  1  0  0  0  0
 54 66  1  0  0  0  0
 55 66  1  0  0  0  0
 56 77  1  0  0  0  0
 57 61  1  0  0  0  0
 58 84  1  0  0  0  0
 59 62  1  0  0  0  0
 62 63  1  0  0  0  0
 63 76  1  0  0  0  0
 64 66  1  0  0  0  0
 64 75  1  0  0  0  0
 65 77  1  0  0  0  0
 67 69  1  0  0  0  0
M  CHG  1  77   1
M  ISO  4  37 100  58 101  76 100  84 101
M  END
> <Batch ID>
0037

> <Smiles>
CCCc1c([101CH2:1][101O:1]c2ccc3c(c2)CN(C(=O)C(NC(=O)C(C)NC)C(C)(C)C)C(C(=O)NC2CCCc4ccccc42)C3)cc(CCC[100NH:0][100C:0](=O)N2CCCC(n3nc(-c4ccc(Oc5ccc(F)cc5F)cc4)c(C(N)=O)c3N)C2)nc1CC

> <Shape>
0.203

> <Color>
0.096

> <Negative vol penalty>
0.000

$$$$

  -OEChem-04052316593D

 85 93  0     1  0  0  0  0  0999 V2000
  -31.5265  -26.4076   17.7820 C   0  0  0  0  0  0  0  0  0  0  0  0
  -30.1596  -26.1618   17.8627 C   0  0  0  0  0  0  0  0  0  0  0  0
  -27.3012  -21.1401   22.5098 C   0  0  0  0  0  0  0  0  0  0  0  0
  -25.9189  -20.9860   20.5343 C   0  0  0  0  0  0  0  0  0  0  0  0
  -32.1806  -27.0535   18.8302 C   0  0  0  0  0  0  0  0  0  0  0  0
  -29.4461  -26.5610   18.9923 C   0  0  0  0  0  0  0  0  0  0  0  0
  -23.6668  -28.5793   19.1734 C   0  0  0  0  0  0  0  0  0  0  0  0
  -28.4100  -20.7376   21.7654 C   0  0  0  0  0  0  0  0  0  0  0  0
  -27.0278  -20.5836   19.7899 C   0  0  0  0  0  0  0  0  0  0  0  0
  -22.4625  -27.9490   19.4834 C   0  0  0  0  0  0  0  0  0  0  0  0
  -28.8116  -17.7519   19.3095 C   0  0  0  0  0  0  0  0  0  0  0  0
  -28.6512  -16.6738   18.4392 C   0  0  0  0  0  0  0  0  0  0  0  0
  -22.6261  -28.7639   21.7480 C   0  0  0  0  0  0  0  0  0  0  0  0
  -17.3959  -23.9448   21.8927 C   0  0  0  0  0  0  0  0  0  0  0  0
  -29.2591  -18.0871   16.5763 C   0  0  0  0  0  0  0  0  0  0  0  0
  -16.4298  -23.1164   19.8834 C   0  0  0  0  0  0  0  0  0  0  0  0
  -26.0556  -21.2642   21.8943 C   0  0  0  0  0  0  0  0  0  0  0  0
  -24.4600  -22.9964   22.8746 C   0  0  0  0  0  0  0  0  0  0  0  0
  -31.4730  -27.4694   19.9691 C   0  0  0  0  0  0  0  0  0  0  0  0
  -24.3665  -29.2986   20.1529 C   0  0  0  0  0  0  0  0  0  0  0  0
  -30.0916  -27.2119   20.0574 C   0  0  0  0  0  0  0  0  0  0  0  0
  -23.8378  -29.4044   21.4472 C   0  0  0  0  0  0  0  0  0  0  0  0
  -16.7100  -22.9343   21.2281 C   0  0  0  0  0  0  0  0  0  0  0  0
  -28.2733  -20.4594   20.4054 C   0  0  0  0  0  0  0  0  0  0  0  0
  -21.9434  -28.0389   20.7716 C   0  0  0  0  0  0  0  0  0  0  0  0
  -29.1956  -18.9977   18.8132 C   0  0  0  0  0  0  0  0  0  0  0  0
  -17.7753  -25.0904   21.2021 C   0  0  0  0  0  0  0  0  0  0  0  0
  -28.8750  -16.8413   17.0726 C   0  0  0  0  0  0  0  0  0  0  0  0
  -29.4194  -19.1652   17.4467 C   0  0  0  0  0  0  0  0  0  0  0  0
  -24.9098  -21.6793   22.6629 C   0  0  0  0  0  0  0  0  0  0  0  0
  -17.4477  -25.1759   19.8585 C   0  0  0  0  0  0  0  0  0  0  0  0
  -23.3452  -22.8557   23.6646 C   0  0  0  0  0  0  0  0  0  0  0  0
  -25.0014  -24.2361   22.3997 C   0  0  0  0  0  0  0  0  0  0  0  0
  -27.2272  -29.0362   21.5135 C   0  0  0  0  0  0  0  0  0  0  0  0
  -26.3962  -31.8504   22.8963 C   0  0  0  0  0  0  0  0  0  0  0  0
  -23.9111  -33.9669   23.8919 C   0  0  0  0  0  0  0  0  0  0  0  0
  -19.4587  -18.3729   24.4711 C   0  0  0  0  0  0  0  0  0  0  0  0
  -32.2320  -28.1218   21.0973 C   0  0  0  0  0  0  0  0  0  0  0  0
  -25.6509  -29.9951   19.7954 C   0  0  0  0  0  0  0  0  0  0  0  0
  -24.5398  -30.1817   22.5295 C   0  0  0  0  0  0  0  0  0  0  0  0
  -31.3341  -28.8472   22.0962 C   0  0  0  0  0  0  0  0  0  0  0  0
  -21.4359  -19.9670   26.9663 C   0  0  0  0  0  0  0  0  0  0  0  0
  -30.1453  -27.9715   22.4793 C   0  0  0  0  0  0  0  0  0  0  0  0
  -22.5099  -20.7054   26.1654 C   0  0  0  0  0  0  0  0  0  0  0  0
  -21.0781  -18.6264   26.3283 C   0  0  0  0  0  0  0  0  0  0  0  0
  -21.7667  -19.4388   24.1058 C   0  0  0  0  0  0  0  0  0  0  0  0
  -29.2785  -27.6518   21.2555 C   0  0  1  0  0  0  0  0  0  0  0  0
  -26.5379  -30.2709   21.0056 C   0  0  1  0  0  0  0  0  0  0  0  0
  -22.1206  -20.8216   24.6794 C   0  0  2  0  0  0  0  0  0  0  0  0
  -17.8342  -26.3840   19.0703 C   0  0  0  0  0  0  0  0  0  0  0  0
  -23.5404  -36.1740   25.0270 C   0  0  0  0  0  0  0  0  0  0  0  0
  -27.0175  -30.5651   25.5930 C   0  0  0  0  0  0  0  0  0  0  0  0
  -25.7539  -32.4259   26.6925 C   0  0  0  0  0  0  0  0  0  0  0  0
  -27.8010  -32.9285   25.3585 C   0  0  0  0  0  0  0  0  0  0  0  0
  -22.5738  -35.1001   21.5073 C   0  0  0  0  0  0  0  0  0  0  0  0
  -16.2886  -21.6970   21.9379 C   0  0  0  0  0  0  0  0  0  0  0  0
  -17.3585  -20.5933   21.8764 C   0  0  0  0  0  0  0  0  0  0  0  0
  -16.8971  -19.3122   22.5775 C   0  0  0  0  0  0  0  0  0  0  0  0
  -17.9405  -18.2014   22.5154 C   0  0  0  0  0  0  0  0  0  0  0  0
  -20.6004  -26.9751   22.4212 C   0  0  0  0  0  0  0  0  0  1  0  0
  -19.7037  -25.7523   22.4265 C   0  0  0  0  0  0  0  0  0  0  0  0
  -25.6792  -32.2481   24.1638 C   0  0  1  0  0  0  0  0  0  0  0  0
  -23.7213  -35.4603   23.6964 C   0  0  2  0  0  0  0  0  0  0  0  0
  -26.5504  -32.0256   25.4323 C   0  0  0  0  0  0  0  0  0  0  0  0
  -16.7823  -24.2151   19.1790 N   0  0  0  0  0  0  0  0  0  0  0  0
  -24.1434  -20.7689   23.2695 N   0  0  0  0  0  0  0  0  0  0  0  0
  -23.2009  -21.5151   23.8703 N   0  0  0  0  0  0  0  0  0  0  0  0
  -25.7956  -30.8396   22.1325 N   0  0  0  0  0  0  0  0  0  0  0  0
  -20.7170  -18.8065   24.9201 N   0  0  0  0  0  0  0  0  0  0  0  0
  -22.4843  -23.7491   24.1965 N   0  0  0  0  0  0  0  0  0  0  0  0
  -26.1511  -24.1999   21.5989 N   0  0  0  0  0  0  0  0  0  0  0  0
  -28.4472  -28.7864   20.9147 N   0  0  0  0  0  0  0  0  0  0  0  0
  -25.2452  -33.6276   23.9716 N   0  0  0  0  0  0  0  0  0  0  0  0
  -19.1941  -18.5872   23.1239 N   0  0  0  0  0  0  0  0  0  0  0  0
  -22.5203  -35.7240   22.8544 N   0  3  0  0  0  0  0  0  0  0  0  0
  -24.4905  -25.3442   22.6906 O   0  0  0  0  0  0  0  0  0  0  0  0
  -26.6925  -28.3610   22.3852 O   0  0  0  0  0  0  0  0  0  0  0  0
  -27.4467  -32.4206   22.5913 O   0  0  0  0  0  0  0  0  0  0  0  0
  -22.9698  -33.1804   23.9701 O   0  0  0  0  0  0  0  0  0  0  0  0
  -18.6301  -17.8395   25.2167 O   0  0  0  0  0  0  0  0  0  0  0  0
  -29.3551  -20.0669   19.6787 O   0  0  0  0  0  0  0  0  0  0  0  0
  -20.7683  -27.4241   21.0771 O   0  0  0  0  0  0  0  0  0  1  0  0
  -18.4499  -26.0931   21.8475 O   0  0  0  0  0  0  0  0  0  0  0  0
  -28.7224  -15.8055   16.2372 F   0  0  0  0  0  0  0  0  0  0  0  0
  -29.7896  -20.3594   16.9642 F   0  0  0  0  0  0  0  0  0  0  0  0
  1  2  1  0  0  0  0
  1  5  2  0  0  0  0
  2  6  2  0  0  0  0
  3  8  2  0  0  0  0
  3 17  1  0  0  0  0
  4  9  1  0  0  0  0
  4 17  2  0  0  0  0
  5 19  1  0  0  0  0
  6 21  1  0  0  0  0
  7 10  2  0  0  0  0
  7 20  1  0  0  0  0
  8 24  1  0  0  0  0
  9 24  2  0  0  0  0
 10 25  1  0  0  0  0
 11 12  2  0  0  0  0
 11 26  1  0  0  0  0
 12 28  1  0  0  0  0
 13 22  1  0  0  0  0
 13 25  2  0  0  0  0
 14 23  2  0  0  0  0
 14 27  1  0  0  0  0
 15 28  2  0  0  0  0
 15 29  1  0  0  0  0
 16 23  1  0  0  0  0
 16 65  2  0  0  0  0
 17 30  1  0  0  0  0
 18 30  1  0  0  0  0
 18 32  2  0  0  0  0
 18 33  1  0  0  0  0
 19 21  2  0  0  0  0
 19 38  1  0  0  0  0
 20 22  2  0  0  0  0
 20 39  1  0  0  0  0
 21 47  1  0  0  0  0
 22 40  1  0  0  0  0
 23 56  1  0  0  0  0
 24 81  1  0  0  0  0
 25 82  1  0  0  0  0
 26 29  2  0  0  0  0
 26 81  1  0  0  0  0
 27 31  2  0  0  0  0
 27 83  1  0  0  0  0
 28 84  1  0  0  0  0
 29 85  1  0  0  0  0
 30 66  2  0  0  0  0
 31 50  1  0  0  0  0
 31 65  1  0  0  0  0
 32 67  1  0  0  0  0
 32 70  1  0  0  0  0
 33 71  1  0  0  0  0
 33 76  2  0  0  0  0
 34 48  1  0  0  0  0
 34 72  1  0  0  0  0
 34 77  2  0  0  0  0
 35 62  1  0  0  0  0
 35 68  1  0  0  0  0
 35 78  2  0  0  0  0
 36 63  1  0  0  0  0
 36 73  1  0  0  0  0
 36 79  2  0  0  0  0
 37 69  1  0  0  0  0
 37 74  1  0  0  0  0
 37 80  2  0  0  0  0
 38 41  1  0  0  0  0
 39 48  1  0  0  0  0
 40 68  1  0  0  0  0
 41 43  1  0  0  0  0
 42 44  1  0  0  0  0
 42 45  1  0  0  0  0
 43 47  1  0  0  0  0
 44 49  1  0  0  0  0
 45 69  1  0  0  0  0
 46 49  1  0  0  0  0
 46 69  1  0  0  0  0
 47 72  1  0  0  0  0
 48 68  1  0  0  0  0
 49 67  1  0  0  0  0
 51 63  1  0  0  0  0
 52 64  1  0  0  0  0
 53 64  1  0  0  0  0
 54 64  1  0  0  0  0
 55 75  1  0  0  0  0
 56 57  1  0  0  0  0
 57 58  1  0  0  0  0
 58 59  1  0  0  0  0
 59 74  1  0  0  0  0
 60 61  1  0  0  0  0
 60 82  1  0  0  0  0
 61 83  1  0  0  0  0
 62 64  1  0  0  0  0
 62 73  1  0  0  0  0
 63 75  1  0  0  0  0
 66 67  1  0  0  0  0
M  CHG  1  75   1
M  ISO  4  37 100  60 101  74 100  82 101
M  END
> <Batch ID>
0037

> <Smiles>
CNC(C)C(=O)NC(C(=O)N1Cc2cc([101O:1][101CH2:1]COc3cc(CCCC[100NH:0][100C:0](=O)N4CCCC(n5nc(-c6ccc(Oc7ccc(F)cc7F)cc6)c(C(N)=O)c5N)C4)cnc3C)ccc2CC1C(=O)NC1CCCc2ccccc21)C(C)(C)C

> <Shape>
0.222

> <Color>
0.063

> <Negative vol penalty>
0.000

$$$$

  -OEChem-04052316593D

 83 91  0     1  0  0  0  0  0999 V2000
  -23.1468   -7.5588   24.5892 C   0  0  0  0  0  0  0  0  0  0  0  0
  -24.2210   -8.4161   24.8053 C   0  0  0  0  0  0  0  0  0  0  0  0
  -25.0065  -30.1829   20.3595 C   0  0  0  0  0  0  0  0  0  0  0  0
  -24.5774  -28.5649   22.1017 C   0  0  0  0  0  0  0  0  0  0  0  0
  -22.5210   -7.5275   23.3437 C   0  0  0  0  0  0  0  0  0  0  0  0
  -24.6707   -9.2418   23.7756 C   0  0  0  0  0  0  0  0  0  0  0  0
  -27.5847  -15.6899   22.6587 C   0  0  0  0  0  0  0  0  0  0  0  0
  -24.5611  -31.2044   21.1984 C   0  0  0  0  0  0  0  0  0  0  0  0
  -24.1320  -29.5864   22.9406 C   0  0  0  0  0  0  0  0  0  0  0  0
  -28.6670  -16.2854   22.0123 C   0  0  0  0  0  0  0  0  0  0  0  0
  -23.2211  -31.8128   25.6667 C   0  0  0  0  0  0  0  0  0  0  0  0
  -23.6705  -31.8108   26.9872 C   0  0  0  0  0  0  0  0  0  0  0  0
  -27.4584  -16.2033   19.9262 C   0  0  0  0  0  0  0  0  0  0  0  0
  -25.9519  -31.9832   26.2111 C   0  0  0  0  0  0  0  0  0  0  0  0
  -28.6687  -21.3880   18.8582 C   0  0  0  0  0  0  0  0  0  0  0  0
  -25.0145  -28.8631   20.8111 C   0  0  0  0  0  0  0  0  0  0  0  0
  -26.7897  -27.3229   19.8191 C   0  0  0  0  0  0  0  0  0  0  0  0
  -22.9571   -8.3602   22.3011 C   0  0  0  0  0  0  0  0  0  0  0  0
  -26.4335  -15.3361   21.9405 C   0  0  0  0  0  0  0  0  0  0  0  0
  -24.0510   -9.2206   22.5145 C   0  0  0  0  0  0  0  0  0  0  0  0
  -26.3619  -15.6058   20.5663 C   0  0  0  0  0  0  0  0  0  0  0  0
  -28.7845  -20.7390   17.6144 C   0  0  0  0  0  0  0  0  0  0  0  0
  -24.1239  -30.9062   22.4890 C   0  0  0  0  0  0  0  0  0  0  0  0
  -28.6051  -16.5396   20.6453 C   0  0  0  0  0  0  0  0  0  0  0  0
  -24.1372  -31.9000   24.6184 C   0  0  0  0  0  0  0  0  0  0  0  0
  -25.0358  -31.8960   27.2594 C   0  0  0  0  0  0  0  0  0  0  0  0
  -25.5026  -31.9852   24.8906 C   0  0  0  0  0  0  0  0  0  0  0  0
  -25.4739  -27.8074   19.9447 C   0  0  0  0  0  0  0  0  0  0  0  0
  -29.7269  -19.7620   17.8233 C   0  0  0  0  0  0  0  0  0  0  0  0
  -26.7009  -26.3289   18.8753 C   0  0  0  0  0  0  0  0  0  0  0  0
  -27.9853  -27.7343   20.4951 C   0  0  0  0  0  0  0  0  0  0  0  0
  -24.9253  -12.6071   21.3227 C   0  0  0  0  0  0  0  0  0  0  0  0
  -22.7238  -14.5787   19.9854 C   0  0  0  0  0  0  0  0  0  0  0  0
  -22.0272  -17.5991   18.5576 C   0  0  0  0  0  0  0  0  0  0  0  0
  -24.1246  -21.8636   16.7377 C   0  0  0  0  0  0  0  0  0  0  0  0
  -22.2794   -8.2570   20.9577 C   0  0  0  0  0  0  0  0  0  0  0  0
  -25.2642  -14.7188   22.6575 C   0  0  0  0  0  0  0  0  0  0  0  0
  -25.1409  -15.2638   19.7536 C   0  0  0  0  0  0  0  0  0  0  0  0
  -22.5777   -9.4342   20.0329 C   0  0  0  0  0  0  0  0  0  0  0  0
  -22.9138  -25.0683   15.7680 C   0  0  0  0  0  0  0  0  0  0  0  0
  -24.0708   -9.7465   20.0308 C   0  0  0  0  0  0  0  0  0  0  0  0
  -23.5753  -26.0252   16.7613 C   0  0  0  0  0  0  0  0  0  0  0  0
  -22.5399  -23.7418   16.4257 C   0  0  0  0  0  0  0  0  0  0  0  0
  -24.3084  -24.0209   18.1193 C   0  0  0  0  0  0  0  0  0  0  0  0
  -24.5521  -10.1494   21.4299 C   0  0  1  0  0  0  0  0  0  0  0  0
  -24.3434  -13.9308   21.7309 C   0  0  1  0  0  0  0  0  0  0  0  0
  -24.7542  -25.3514   17.4888 C   0  0  2  0  0  0  0  0  0  0  0  0
  -31.6984  -19.1052   16.4202 C   0  0  0  0  0  0  0  0  0  0  0  0
  -20.1471  -18.9056   17.5302 C   0  0  0  0  0  0  0  0  0  0  0  0
  -22.9547  -12.9072   17.4432 C   0  0  0  0  0  0  0  0  0  0  0  0
  -21.8277  -14.7665   16.2017 C   0  0  0  0  0  0  0  0  0  0  0  0
  -20.6219  -13.5847   18.0380 C   0  0  0  0  0  0  0  0  0  0  0  0
  -22.2284  -19.7234   20.6085 C   0  0  0  0  0  0  0  0  0  0  0  0
  -28.0559  -21.0436   16.3717 C   0  0  0  0  0  0  0  0  0  0  0  0
  -30.2934  -18.7457   16.9164 C   0  0  0  0  0  0  0  0  0  0  0  0
  -26.8624  -20.1049   16.0628 C   0  0  0  0  0  0  0  0  0  0  0  0
  -31.1203  -19.0377   19.8598 C   0  0  0  0  0  0  0  0  0  0  0  0
  -25.7952  -20.0763   17.1548 C   0  0  0  0  0  0  0  0  0  0  0  0
  -30.4688  -18.0107   20.7795 C   0  0  0  0  0  0  0  0  0  1  0  0
  -22.5093  -15.1662   18.6115 C   0  0  1  0  0  0  0  0  0  0  0  0
  -20.9124  -18.5985   18.8080 C   0  0  2  0  0  0  0  0  0  0  0  0
  -22.0023  -14.1110   17.5883 C   0  0  0  0  0  0  0  0  0  0  0  0
  -29.4732  -20.8671   19.7885 N   0  0  0  0  0  0  0  0  0  0  0  0
  -24.6124  -27.1737   19.1446 N   0  0  0  0  0  0  0  0  0  0  0  0
  -30.1035  -19.8803   19.1288 N   0  0  0  0  0  0  0  0  0  0  0  0
  -25.3885  -26.2807   18.5071 N   0  0  0  0  0  0  0  0  0  0  0  0
  -24.0262  -14.6560   20.4989 N   0  0  0  0  0  0  0  0  0  0  0  0
  -23.7021  -23.1542   17.0966 N   0  0  0  0  0  0  0  0  0  0  0  0
  -27.6181  -25.5003   18.3327 N   0  0  0  0  0  0  0  0  0  0  0  0
  -27.8985  -28.7704   21.4349 N   0  0  0  0  0  0  0  0  0  0  0  0
  -24.1755  -11.5164   21.7197 N   0  0  0  0  0  0  0  0  0  0  0  0
  -21.6139  -16.3042   18.7894 N   0  0  0  0  0  0  0  0  0  0  0  0
  -25.2377  -21.3843   17.4176 N   0  0  0  0  0  0  0  0  0  0  0  0
  -21.4700  -19.8741   19.3400 N   0  3  0  0  0  0  0  0  0  0  0  0
  -29.1005  -27.2102   20.2603 O   0  0  0  0  0  0  0  0  0  0  0  0
  -25.9760  -12.5775   20.6928 O   0  0  0  0  0  0  0  0  0  0  0  0
  -21.7694  -14.0764   20.5841 O   0  0  0  0  0  0  0  0  0  0  0  0
  -23.1512  -17.9334   18.1894 O   0  0  0  0  0  0  0  0  0  0  0  0
  -23.5557  -21.1906   15.8715 O   0  0  0  0  0  0  0  0  0  0  0  0
  -23.6895  -31.9027   23.3080 O   0  0  0  0  0  0  0  0  0  0  0  0
  -29.6603  -17.1201   20.0118 O   0  0  0  0  0  0  0  0  0  1  0  0
  -25.4671  -31.8955   28.5276 F   0  0  0  0  0  0  0  0  0  0  0  0
  -26.3874  -32.0703   23.8878 F   0  0  0  0  0  0  0  0  0  0  0  0
  1  2  1  0  0  0  0
  1  5  2  0  0  0  0
  2  6  2  0  0  0  0
  3  8  2  0  0  0  0
  3 16  1  0  0  0  0
  4  9  1  0  0  0  0
  4 16  2  0  0  0  0
  5 18  1  0  0  0  0
  6 20  1  0  0  0  0
  7 10  2  0  0  0  0
  7 19  1  0  0  0  0
  8 23  1  0  0  0  0
  9 23  2  0  0  0  0
 10 24  1  0  0  0  0
 11 12  2  0  0  0  0
 11 25  1  0  0  0  0
 12 26  1  0  0  0  0
 13 21  1  0  0  0  0
 13 24  2  0  0  0  0
 14 26  2  0  0  0  0
 14 27  1  0  0  0  0
 15 22  1  0  0  0  0
 15 63  2  0  0  0  0
 16 28  1  0  0  0  0
 17 28  1  0  0  0  0
 17 30  2  0  0  0  0
 17 31  1  0  0  0  0
 18 20  2  0  0  0  0
 18 36  1  0  0  0  0
 19 21  2  0  0  0  0
 19 37  1  0  0  0  0
 20 45  1  0  0  0  0
 21 38  1  0  0  0  0
 22 29  2  0  0  0  0
 22 54  1  0  0  0  0
 23 80  1  0  0  0  0
 24 81  1  0  0  0  0
 25 27  2  0  0  0  0
 25 80  1  0  0  0  0
 26 82  1  0  0  0  0
 27 83  1  0  0  0  0
 28 64  2  0  0  0  0
 29 55  1  0  0  0  0
 29 65  1  0  0  0  0
 30 66  1  0  0  0  0
 30 69  1  0  0  0  0
 31 70  1  0  0  0  0
 31 75  2  0  0  0  0
 32 46  1  0  0  0  0
 32 71  1  0  0  0  0
 32 76  2  0  0  0  0
 33 60  1  0  0  0  0
 33 67  1  0  0  0  0
 33 77  2  0  0  0  0
 34 61  1  0  0  0  0
 34 72  1  0  0  0  0
 34 78  2  0  0  0  0
 35 68  1  0  0  0  0
 35 73  1  0  0  0  0
 35 79  2  0  0  0  0
 36 39  1  0  0  0  0
 37 46  1  0  0  0  0
 38 67  1  0  0  0  0
 39 41  1  0  0  0  0
 40 42  1  0  0  0  0
 40 43  1  0  0  0  0
 41 45  1  0  0  0  0
 42 47  1  0  0  0  0
 43 68  1  0  0  0  0
 44 47  1  0  0  0  0
 44 68  1  0  0  0  0
 45 71  1  0  0  0  0
 46 67  1  0  0  0  0
 47 66  1  0  0  0  0
 48 55  1  0  0  0  0
 49 61  1  0  0  0  0
 50 62  1  0  0  0  0
 51 62  1  0  0  0  0
 52 62  1  0  0  0  0
 53 74  1  0  0  0  0
 54 56  1  0  0  0  0
 56 58  1  0  0  0  0
 57 59  1  0  0  0  0
 57 65  1  0  0  0  0
 58 73  1  0  0  0  0
 59 81  1  0  0  0  0
 60 62  1  0  0  0  0
 60 72  1  0  0  0  0
 61 74  1  0  0  0  0
 63 65  1  0  0  0  0
 64 66  1  0  0  0  0
M  CHG  1  74   1
M  ISO  4  35 100  59 101  73 100  81 101
M  END
> <Batch ID>
0037

> <Smiles>
CCc1c(CCC[100NH:0][100C:0](=O)N2CCCC(n3nc(-c4ccc(Oc5ccc(F)cc5F)cc4)c(C(N)=O)c3N)C2)cnn1C[101CH2:1][101O:1]c1ccc2c(c1)CN(C(=O)C(NC(=O)C(C)NC)C(C)(C)C)C(C(=O)NC1CCCc3ccccc31)C2

> <Shape>
0.231

> <Color>
0.099

> <Negative vol penalty>
0.000

$$$$

  -OEChem-04052316593D

 84 92  0     1  0  0  0  0  0999 V2000
  -30.8702  -26.8375   16.3964 C   0  0  0  0  0  0  0  0  0  0  0  0
  -29.4814  -26.7627   16.4261 C   0  0  0  0  0  0  0  0  0  0  0  0
  -25.9673  -14.2138   21.7942 C   0  0  0  0  0  0  0  0  0  0  0  0
  -24.9969  -15.2365   19.8322 C   0  0  0  0  0  0  0  0  0  0  0  0
  -31.5771  -27.1189   17.5648 C   0  0  0  0  0  0  0  0  0  0  0  0
  -28.7986  -26.9681   17.6244 C   0  0  0  0  0  0  0  0  0  0  0  0
  -23.3290  -29.6295   18.3356 C   0  0  0  0  0  0  0  0  0  0  0  0
  -24.9073  -13.3087   21.8468 C   0  0  0  0  0  0  0  0  0  0  0  0
  -23.9369  -14.3313   19.8847 C   0  0  0  0  0  0  0  0  0  0  0  0
  -22.0455  -29.1082   18.4932 C   0  0  0  0  0  0  0  0  0  0  0  0
  -23.9802  -10.4643   20.2711 C   0  0  0  0  0  0  0  0  0  0  0  0
  -24.2848   -9.1216   20.4941 C   0  0  0  0  0  0  0  0  0  0  0  0
  -22.2586  -29.3232   20.8864 C   0  0  0  0  0  0  0  0  0  0  0  0
  -22.9487   -9.1527   22.5069 C   0  0  0  0  0  0  0  0  0  0  0  0
  -26.0121  -15.1777   20.7870 C   0  0  0  0  0  0  0  0  0  0  0  0
  -28.3261  -15.9561   20.0471 C   0  0  0  0  0  0  0  0  0  0  0  0
  -30.9021  -27.3375   18.7761 C   0  0  0  0  0  0  0  0  0  0  0  0
  -24.0923  -29.9921   19.4547 C   0  0  0  0  0  0  0  0  0  0  0  0
  -29.4972  -27.2514   18.8103 C   0  0  0  0  0  0  0  0  0  0  0  0
  -23.5504  -29.8513   20.7402 C   0  0  0  0  0  0  0  0  0  0  0  0
  -22.4598  -23.8209   20.0846 C   0  0  0  0  0  0  0  0  0  0  0  0
  -23.8921  -13.3674   20.8920 C   0  0  0  0  0  0  0  0  0  0  0  0
  -21.5113  -28.9522   19.7688 C   0  0  0  0  0  0  0  0  0  0  0  0
  -23.1599  -11.1514   21.1660 C   0  0  0  0  0  0  0  0  0  0  0  0
  -23.7690   -8.4657   21.6120 C   0  0  0  0  0  0  0  0  0  0  0  0
  -22.6441  -10.4956   22.2839 C   0  0  0  0  0  0  0  0  0  0  0  0
  -27.1066  -16.1133   20.7325 C   0  0  0  0  0  0  0  0  0  0  0  0
  -21.6715  -23.4648   21.1952 C   0  0  0  0  0  0  0  0  0  0  0  0
  -21.6808  -24.7062   19.3804 C   0  0  0  0  0  0  0  0  0  0  0  0
  -29.0180  -17.1137   20.3073 C   0  0  0  0  0  0  0  0  0  0  0  0
  -28.7919  -14.8614   19.2468 C   0  0  0  0  0  0  0  0  0  0  0  0
  -26.8603  -29.0328   20.6882 C   0  0  0  0  0  0  0  0  0  0  0  0
  -26.3696  -31.5145   22.7187 C   0  0  0  0  0  0  0  0  0  0  0  0
  -24.1579  -33.6378   24.2175 C   0  0  0  0  0  0  0  0  0  0  0  0
  -27.2886  -22.6556   21.7728 C   0  0  0  0  0  0  0  0  0  0  0  0
  -31.7120  -27.5919   20.0227 C   0  0  0  0  0  0  0  0  0  0  0  0
  -25.4648  -30.5779   19.2665 C   0  0  0  0  0  0  0  0  0  0  0  0
  -24.3211  -30.2444   21.9731 C   0  0  0  0  0  0  0  0  0  0  0  0
  -30.8921  -28.1670   21.1748 C   0  0  0  0  0  0  0  0  0  0  0  0
  -29.4774  -20.5379   23.6170 C   0  0  0  0  0  0  0  0  0  0  0  0
  -29.5904  -27.3899   21.3437 C   0  0  0  0  0  0  0  0  0  0  0  0
  -29.2280  -19.1496   23.0250 C   0  0  0  0  0  0  0  0  0  0  0  0
  -28.1938  -21.3626   23.6821 C   0  0  0  0  0  0  0  0  0  0  0  0
  -27.2163  -20.0885   21.8125 C   0  0  0  0  0  0  0  0  0  0  0  0
  -28.7194  -27.4927   20.0858 C   0  0  1  0  0  0  0  0  0  0  0  0
  -26.3503  -30.4336   20.5003 C   0  0  1  0  0  0  0  0  0  0  0  0
  -28.4918  -19.2398   21.6748 C   0  0  2  0  0  0  0  0  0  0  0  0
  -22.0155  -22.5373   22.2874 C   0  0  0  0  0  0  0  0  0  0  0  0
  -21.9309  -25.4383   18.1243 C   0  0  0  0  0  0  0  0  0  0  0  0
  -24.0503  -35.5347   25.8569 C   0  0  0  0  0  0  0  0  0  0  0  0
  -26.7521  -29.5457   25.0182 C   0  0  0  0  0  0  0  0  0  0  0  0
  -25.7152  -31.2365   26.5461 C   0  0  0  0  0  0  0  0  0  0  0  0
  -27.8423  -31.7708   25.3575 C   0  0  0  0  0  0  0  0  0  0  0  0
  -23.0383  -35.4798   22.1896 C   0  0  0  0  0  0  0  0  0  0  0  0
  -23.8153  -23.3512   19.7493 C   0  0  0  0  0  0  0  0  0  0  0  0
  -24.9574  -24.3359   20.1037 C   0  0  0  0  0  0  0  0  0  0  0  0
  -18.9305  -26.6634   20.8335 C   0  0  0  0  0  0  0  0  0  0  0  0
  -19.3272  -25.6768   19.7331 C   0  0  0  0  0  0  0  0  0  0  0  0
  -26.3546  -23.8090   19.7837 C   0  0  0  0  0  0  0  0  0  0  0  0
  -20.0013  -27.7092   21.1219 C   0  0  0  0  0  0  0  0  0  1  0  0
  -25.6798  -31.6858   24.0505 C   0  0  1  0  0  0  0  0  0  0  0  0
  -24.1692  -35.1458   24.3915 C   0  0  2  0  0  0  0  0  0  0  0  0
  -26.4834  -31.0504   25.2201 C   0  0  0  0  0  0  0  0  0  0  0  0
  -27.0253  -17.2790   21.3796 N   0  0  0  0  0  0  0  0  0  0  0  0
  -20.4830  -24.0742   21.2007 N   0  0  0  0  0  0  0  0  0  0  0  0
  -20.5187  -24.8223   20.0848 N   0  0  0  0  0  0  0  0  0  0  0  0
  -28.2027  -17.8646   21.1020 N   0  0  0  0  0  0  0  0  0  0  0  0
  -25.6612  -30.8066   21.7374 N   0  0  0  0  0  0  0  0  0  0  0  0
  -27.5454  -21.4101   22.3694 N   0  0  0  0  0  0  0  0  0  0  0  0
  -30.2381  -17.5523   19.9315 N   0  0  0  0  0  0  0  0  0  0  0  0
  -27.9542  -13.7498   19.0826 N   0  0  0  0  0  0  0  0  0  0  0  0
  -28.0516  -28.7757   20.0369 N   0  0  0  0  0  0  0  0  0  0  0  0
  -25.4340  -33.1158   24.2019 N   0  0  0  0  0  0  0  0  0  0  0  0
  -26.6771  -22.6107   20.5259 N   0  0  0  0  0  0  0  0  0  0  0  0
  -23.0336  -35.7614   23.6482 N   0  3  0  0  0  0  0  0  0  0  0  0
  -29.9242  -14.8618   18.7070 O   0  0  0  0  0  0  0  0  0  0  0  0
  -26.2211  -28.2441   21.3744 O   0  0  0  0  0  0  0  0  0  0  0  0
  -27.4926  -31.9973   22.5527 O   0  0  0  0  0  0  0  0  0  0  0  0
  -23.1206  -32.9874   24.1102 O   0  0  0  0  0  0  0  0  0  0  0  0
  -27.5873  -23.7280   22.3092 O   0  0  0  0  0  0  0  0  0  0  0  0
  -22.8578  -12.4842   20.9428 O   0  0  0  0  0  0  0  0  0  0  0  0
  -20.2591  -28.4430   19.9255 O   0  0  0  0  0  0  0  0  0  1  0  0
  -24.0604   -7.1758   21.8252 F   0  0  0  0  0  0  0  0  0  0  0  0
  -21.8546  -11.1500   23.1465 F   0  0  0  0  0  0  0  0  0  0  0  0
  1  2  1  0  0  0  0
  1  5  2  0  0  0  0
  2  6  2  0  0  0  0
  3  8  2  0  0  0  0
  3 15  1  0  0  0  0
  4  9  1  0  0  0  0
  4 15  2  0  0  0  0
  5 17  1  0  0  0  0
  6 19  1  0  0  0  0
  7 10  2  0  0  0  0
  7 18  1  0  0  0  0
  8 22  1  0  0  0  0
  9 22  2  0  0  0  0
 10 23  1  0  0  0  0
 11 12  2  0  0  0  0
 11 24  1  0  0  0  0
 12 25  1  0  0  0  0
 13 20  1  0  0  0  0
 13 23  2  0  0  0  0
 14 25  2  0  0  0  0
 14 26  1  0  0  0  0
 15 27  1  0  0  0  0
 16 27  1  0  0  0  0
 16 30  2  0  0  0  0
 16 31  1  0  0  0  0
 17 19  2  0  0  0  0
 17 36  1  0  0  0  0
 18 20  2  0  0  0  0
 18 37  1  0  0  0  0
 19 45  1  0  0  0  0
 20 38  1  0  0  0  0
 21 28  1  0  0  0  0
 21 29  2  0  0  0  0
 21 55  1  0  0  0  0
 22 81  1  0  0  0  0
 23 82  1  0  0  0  0
 24 26  2  0  0  0  0
 24 81  1  0  0  0  0
 25 83  1  0  0  0  0
 26 84  1  0  0  0  0
 27 64  2  0  0  0  0
 28 48  1  0  0  0  0
 28 65  2  0  0  0  0
 29 49  1  0  0  0  0
 29 66  1  0  0  0  0
 30 67  1  0  0  0  0
 30 70  1  0  0  0  0
 31 71  1  0  0  0  0
 31 76  2  0  0  0  0
 32 46  1  0  0  0  0
 32 72  1  0  0  0  0
 32 77  2  0  0  0  0
 33 61  1  0  0  0  0
 33 68  1  0  0  0  0
 33 78  2  0  0  0  0
 34 62  1  0  0  0  0
 34 73  1  0  0  0  0
 34 79  2  0  0  0  0
 35 69  1  0  0  0  0
 35 74  1  0  0  0  0
 35 80  2  0  0  0  0
 36 39  1  0  0  0  0
 37 46  1  0  0  0  0
 38 68  1  0  0  0  0
 39 41  1  0  0  0  0
 40 42  1  0  0  0  0
 40 43  1  0  0  0  0
 41 45  1  0  0  0  0
 42 47  1  0  0  0  0
 43 69  1  0  0  0  0
 44 47  1  0  0  0  0
 44 69  1  0  0  0  0
 45 72  1  0  0  0  0
 46 68  1  0  0  0  0
 47 67  1  0  0  0  0
 50 62  1  0  0  0  0
 51 63  1  0  0  0  0
 52 63  1  0  0  0  0
 53 63  1  0  0  0  0
 54 75  1  0  0  0  0
 55 56  1  0  0  0  0
 56 59  1  0  0  0  0
 57 58  1  0  0  0  0
 57 60  1  0  0  0  0
 58 66  1  0  0  0  0
 59 74  1  0  0  0  0
 60 82  1  0  0  0  0
 61 63  1  0  0  0  0
 61 73  1  0  0  0  0
 62 75  1  0  0  0  0
 64 67  1  0  0  0  0
 65 66  1  0  0  0  0
M  CHG  1  75   1
M  ISO  4  35 100  60 101  74 100  82 101
M  END
> <Batch ID>
0037

> <Smiles>
CNC(C)C(=O)NC(C(=O)N1Cc2cc([101O:1][101CH2:1]CCn3nc(C)c(CCC[100NH:0][100C:0](=O)N4CCCC(n5nc(-c6ccc(Oc7ccc(F)cc7F)cc6)c(C(N)=O)c5N)C4)c3C)ccc2CC1C(=O)NC1CCCc2ccccc21)C(C)(C)C

> <Shape>
0.290

> <Color>
0.081

> <Negative vol penalty>
0.000

$$$$

  -OEChem-04052316593D

 85 93  0     1  0  0  0  0  0999 V2000
  -26.8608  -35.0399   21.8958 C   0  0  0  0  0  0  0  0  0  0  0  0
  -27.2705  -33.7106   21.9206 C   0  0  0  0  0  0  0  0  0  0  0  0
  -25.0180  -10.4803   23.5332 C   0  0  0  0  0  0  0  0  0  0  0  0
  -23.7377   -9.8809   21.5740 C   0  0  0  0  0  0  0  0  0  0  0  0
  -25.5752  -35.3798   22.3151 C   0  0  0  0  0  0  0  0  0  0  0  0
  -26.3952  -32.7206   22.3658 C   0  0  0  0  0  0  0  0  0  0  0  0
  -26.3970  -28.6363   19.3719 C   0  0  0  0  0  0  0  0  0  0  0  0
  -28.6015  -22.7613   17.7559 C   0  0  0  0  0  0  0  0  0  0  0  0
  -27.6692  -21.7449   17.5477 C   0  0  0  0  0  0  0  0  0  0  0  0
  -25.0514   -9.1410   23.9212 C   0  0  0  0  0  0  0  0  0  0  0  0
  -23.7711   -8.5415   21.9620 C   0  0  0  0  0  0  0  0  0  0  0  0
  -27.4616  -27.7466   19.5092 C   0  0  0  0  0  0  0  0  0  0  0  0
  -22.1675   -6.5471   24.1715 C   0  0  0  0  0  0  0  0  0  0  0  0
  -20.9794   -5.8204   24.0948 C   0  0  0  0  0  0  0  0  0  0  0  0
  -26.0739  -26.3031   20.8545 C   0  0  0  0  0  0  0  0  0  0  0  0
  -28.2945  -22.5540   20.1434 C   0  0  0  0  0  0  0  0  0  0  0  0
  -22.0192   -4.2839   22.5471 C   0  0  0  0  0  0  0  0  0  0  0  0
  -24.3611  -10.8503   22.3596 C   0  0  0  0  0  0  0  0  0  0  0  0
  -25.2563  -12.9068   21.1443 C   0  0  0  0  0  0  0  0  0  0  0  0
  -24.6805  -34.3924   22.7565 C   0  0  0  0  0  0  0  0  0  0  0  0
  -25.1640  -28.3709   19.9849 C   0  0  0  0  0  0  0  0  0  0  0  0
  -25.0969  -33.0479   22.7926 C   0  0  0  0  0  0  0  0  0  0  0  0
  -24.9944  -27.1897   20.7213 C   0  0  0  0  0  0  0  0  0  0  0  0
  -28.9142  -23.1658   19.0538 C   0  0  0  0  0  0  0  0  0  0  0  0
  -27.0495  -21.1331   18.6373 C   0  0  0  0  0  0  0  0  0  0  0  0
  -24.4279   -8.1715   23.1356 C   0  0  0  0  0  0  0  0  0  0  0  0
  -27.3010  -26.5813   20.2530 C   0  0  0  0  0  0  0  0  0  0  0  0
  -23.2815   -6.1423   23.4360 C   0  0  0  0  0  0  0  0  0  0  0  0
  -20.9053   -4.6888   23.2826 C   0  0  0  0  0  0  0  0  0  0  0  0
  -23.2073   -5.0107   22.6238 C   0  0  0  0  0  0  0  0  0  0  0  0
  -27.3622  -21.5376   19.9352 C   0  0  0  0  0  0  0  0  0  0  0  0
  -24.3258  -12.2338   21.9585 C   0  0  0  0  0  0  0  0  0  0  0  0
  -24.7763  -14.1912   21.0639 C   0  0  0  0  0  0  0  0  0  0  0  0
  -26.4478  -12.4150   20.5166 C   0  0  0  0  0  0  0  0  0  0  0  0
  -23.4029  -29.8180   22.2004 C   0  0  0  0  0  0  0  0  0  0  0  0
  -21.2515  -27.5127   21.4388 C   0  0  0  0  0  0  0  0  0  0  0  0
  -20.6677  -24.4043   20.1568 C   0  0  0  0  0  0  0  0  0  0  0  0
  -20.5536  -17.7746   20.3760 C   0  0  0  0  0  0  0  0  0  0  0  0
  -23.3171  -34.8139   23.2446 C   0  0  0  0  0  0  0  0  0  0  0  0
  -24.0174  -29.3276   19.8050 C   0  0  0  0  0  0  0  0  0  0  0  0
  -23.6848  -26.8485   21.3823 C   0  0  0  0  0  0  0  0  0  0  0  0
  -22.3235  -33.6597   23.3484 C   0  0  0  0  0  0  0  0  0  0  0  0
  -21.0960  -16.4988   23.6555 C   0  0  0  0  0  0  0  0  0  0  0  0
  -22.9660  -32.4631   24.0428 C   0  0  0  0  0  0  0  0  0  0  0  0
  -22.0559  -15.3278   23.4383 C   0  0  0  0  0  0  0  0  0  0  0  0
  -20.0857  -16.6191   22.5167 C   0  0  0  0  0  0  0  0  0  0  0  0
  -21.6382  -15.5185   20.9507 C   0  0  0  0  0  0  0  0  0  0  0  0
  -24.1679  -31.9424   23.2455 C   0  0  1  0  0  0  0  0  0  0  0  0
  -22.9619  -29.2080   20.8999 C   0  0  1  0  0  0  0  0  0  0  0  0
  -22.7113  -15.3909   22.0455 C   0  0  2  0  0  0  0  0  0  0  0  0
  -18.8114  -22.7786   19.7001 C   0  0  0  0  0  0  0  0  0  0  0  0
  -21.1320  -26.8189   24.4077 C   0  0  0  0  0  0  0  0  0  0  0  0
  -20.0477  -24.6496   23.7857 C   0  0  0  0  0  0  0  0  0  0  0  0
  -18.9186  -26.8069   23.2436 C   0  0  0  0  0  0  0  0  0  0  0  0
  -21.2085  -24.4258   17.2472 C   0  0  0  0  0  0  0  0  0  0  0  0
  -29.9230  -24.2658   19.2791 C   0  0  0  0  0  0  0  0  0  0  0  0
  -26.0558  -20.0488   18.3718 C   0  0  0  0  0  0  0  0  0  0  0  0
  -24.6095  -20.5383   18.5301 C   0  0  0  0  0  0  0  0  0  0  0  0
  -23.6021  -19.4111   18.2940 C   0  0  0  0  0  0  0  0  0  0  0  0
  -22.1623  -19.9187   18.4155 C   0  0  0  0  0  0  0  0  0  0  0  0
  -21.1319  -18.8154   18.1985 C   0  0  0  0  0  0  0  0  0  0  0  0
  -29.2768  -25.6465   19.3158 C   0  0  0  0  0  0  0  0  0  1  0  0
  -20.9644  -26.1143   21.9295 C   0  0  1  0  0  0  0  0  0  0  0  0
  -19.6588  -23.9087   19.1365 C   0  0  2  0  0  0  0  0  0  0  0  0
  -20.2910  -26.1045   23.3309 C   0  0  0  0  0  0  0  0  0  0  0  0
  -23.3302  -13.0252   22.3664 N   0  0  0  0  0  0  0  0  0  0  0  0
  -23.6323  -14.2088   21.8062 N   0  0  0  0  0  0  0  0  0  0  0  0
  -22.5956  -27.8186   21.1825 N   0  0  0  0  0  0  0  0  0  0  0  0
  -20.7718  -16.6760   21.2237 N   0  0  0  0  0  0  0  0  0  0  0  0
  -25.2256  -15.2960   20.4314 N   0  0  0  0  0  0  0  0  0  0  0  0
  -26.7945  -11.0698   20.7026 N   0  0  0  0  0  0  0  0  0  0  0  0
  -23.7222  -31.1595   22.1128 N   0  0  0  0  0  0  0  0  0  0  0  0
  -20.1779  -25.4683   20.8842 N   0  0  0  0  0  0  0  0  0  0  0  0
  -21.2476  -17.7529   19.1725 N   0  0  0  0  0  0  0  0  0  0  0  0
  -20.3567  -23.4100   17.9179 N   0  3  0  0  0  0  0  0  0  0  0  0
  -27.1922  -13.1508   19.8252 O   0  0  0  0  0  0  0  0  0  0  0  0
  -23.4485  -29.1233   23.2088 O   0  0  0  0  0  0  0  0  0  0  0  0
  -20.3169  -28.3023   21.2817 O   0  0  0  0  0  0  0  0  0  0  0  0
  -21.7778  -23.8958   20.2972 O   0  0  0  0  0  0  0  0  0  0  0  0
  -19.8004  -18.7083   20.6723 O   0  0  0  0  0  0  0  0  0  0  0  0
  -24.4605   -6.8644   23.5138 O   0  0  0  0  0  0  0  0  0  0  0  0
  -28.3387  -25.7115   20.3892 O   0  0  0  0  0  0  0  0  0  1  0  0
  -19.7648   -3.9901   23.2102 F   0  0  0  0  0  0  0  0  0  0  0  0
  -24.2745   -4.6163   21.9158 F   0  0  0  0  0  0  0  0  0  0  0  0
  -26.6146  -20.8040   21.3072 Cl  0  0  0  0  0  0  0  0  0  0  0  0
  1  2  1  0  0  0  0
  1  5  2  0  0  0  0
  2  6  2  0  0  0  0
  3 10  2  0  0  0  0
  3 18  1  0  0  0  0
  4 11  1  0  0  0  0
  4 18  2  0  0  0  0
  5 20  1  0  0  0  0
  6 22  1  0  0  0  0
  7 12  2  0  0  0  0
  7 21  1  0  0  0  0
  8  9  2  0  0  0  0
  8 24  1  0  0  0  0
  9 25  1  0  0  0  0
 10 26  1  0  0  0  0
 11 26  2  0  0  0  0
 12 27  1  0  0  0  0
 13 14  2  0  0  0  0
 13 28  1  0  0  0  0
 14 29  1  0  0  0  0
 15 23  1  0  0  0  0
 15 27  2  0  0  0  0
 16 24  2  0  0  0  0
 16 31  1  0  0  0  0
 17 29  2  0  0  0  0
 17 30  1  0  0  0  0
 18 32  1  0  0  0  0
 19 32  1  0  0  0  0
 19 33  2  0  0  0  0
 19 34  1  0  0  0  0
 20 22  2  0  0  0  0
 20 39  1  0  0  0  0
 21 23  2  0  0  0  0
 21 40  1  0  0  0  0
 22 48  1  0  0  0  0
 23 41  1  0  0  0  0
 24 56  1  0  0  0  0
 25 31  2  0  0  0  0
 25 57  1  0  0  0  0
 26 81  1  0  0  0  0
 27 82  1  0  0  0  0
 28 30  2  0  0  0  0
 28 81  1  0  0  0  0
 29 83  1  0  0  0  0
 30 84  1  0  0  0  0
 31 85  1  0  0  0  0
 32 66  2  0  0  0  0
 33 67  1  0  0  0  0
 33 70  1  0  0  0  0
 34 71  1  0  0  0  0
 34 76  2  0  0  0  0
 35 49  1  0  0  0  0
 35 72  1  0  0  0  0
 35 77  2  0  0  0  0
 36 63  1  0  0  0  0
 36 68  1  0  0  0  0
 36 78  2  0  0  0  0
 37 64  1  0  0  0  0
 37 73  1  0  0  0  0
 37 79  2  0  0  0  0
 38 69  1  0  0  0  0
 38 74  1  0  0  0  0
 38 80  2  0  0  0  0
 39 42  1  0  0  0  0
 40 49  1  0  0  0  0
 41 68  1  0  0  0  0
 42 44  1  0  0  0  0
 43 45  1  0  0  0  0
 43 46  1  0  0  0  0
 44 48  1  0  0  0  0
 45 50  1  0  0  0  0
 46 69  1  0  0  0  0
 47 50  1  0  0  0  0
 47 69  1  0  0  0  0
 48 72  1  0  0  0  0
 49 68  1  0  0  0  0
 50 67  1  0  0  0  0
 51 64  1  0  0  0  0
 52 65  1  0  0  0  0
 53 65  1  0  0  0  0
 54 65  1  0  0  0  0
 55 75  1  0  0  0  0
 56 62  1  0  0  0  0
 57 58  1  0  0  0  0
 58 59  1  0  0  0  0
 59 60  1  0  0  0  0
 60 61  1  0  0  0  0
 61 74  1  0  0  0  0
 62 82  1  0  0  0  0
 63 65  1  0  0  0  0
 63 73  1  0  0  0  0
 64 75  1  0  0  0  0
 66 67  1  0  0  0  0
M  CHG  1  75   1
M  ISO  4  38 100  62 101  74 100  82 101
M  END
> <Batch ID>
0037

> <Smiles>
CNC(C)C(=O)NC(C(=O)N1Cc2cc([101O:1][101CH2:1]Cc3ccc(CCCCC[100NH:0][100C:0](=O)N4CCCC(n5nc(-c6ccc(Oc7ccc(F)cc7F)cc6)c(C(N)=O)c5N)C4)c(Cl)c3)ccc2CC1C(=O)NC1CCCc2ccccc21)C(C)(C)C

> <Shape>
0.255

> <Color>
0.089

> <Negative vol penalty>
0.000

$$$$

  -OEChem-04052316593D

 80 88  0     1  0  0  0  0  0999 V2000
  -20.8417  -25.0602   27.8128 C   0  0  0  0  0  0  0  0  0  0  0  0
  -22.1482  -25.1586   27.3449 C   0  0  0  0  0  0  0  0  0  0  0  0
  -28.0144  -16.3439   22.1923 C   0  0  0  0  0  0  0  0  0  0  0  0
  -26.1096  -16.7810   20.7718 C   0  0  0  0  0  0  0  0  0  0  0  0
  -19.8270  -25.7972   27.2038 C   0  0  0  0  0  0  0  0  0  0  0  0
  -22.4404  -25.9934   26.2669 C   0  0  0  0  0  0  0  0  0  0  0  0
  -27.5652  -29.2331   25.4028 C   0  0  0  0  0  0  0  0  0  0  0  0
  -27.6934  -14.9866   22.2051 C   0  0  0  0  0  0  0  0  0  0  0  0
  -25.7886  -15.4236   20.7846 C   0  0  0  0  0  0  0  0  0  0  0  0
  -28.7077  -28.9955   24.6398 C   0  0  0  0  0  0  0  0  0  0  0  0
  -28.0460  -12.3240   20.1511 C   0  0  0  0  0  0  0  0  0  0  0  0
  -29.0832  -11.4108   19.9620 C   0  0  0  0  0  0  0  0  0  0  0  0
  -27.7826  -30.3243   22.8516 C   0  0  0  0  0  0  0  0  0  0  0  0
  -28.6226  -10.4397   22.1258 C   0  0  0  0  0  0  0  0  0  0  0  0
  -28.1525  -26.3478   21.7143 C   0  0  0  0  0  0  0  0  0  0  0  0
  -27.2225  -17.2412   21.4757 C   0  0  0  0  0  0  0  0  0  0  0  0
  -28.3887  -19.3113   20.5472 C   0  0  0  0  0  0  0  0  0  0  0  0
  -20.1085  -26.6488   26.1239 C   0  0  0  0  0  0  0  0  0  0  0  0
  -26.5164  -30.0104   24.8907 C   0  0  0  0  0  0  0  0  0  0  0  0
  -21.4282  -26.7415   25.6419 C   0  0  0  0  0  0  0  0  0  0  0  0
  -26.6290  -30.5724   23.6110 C   0  0  0  0  0  0  0  0  0  0  0  0
  -26.5805  -14.5264   21.5013 C   0  0  0  0  0  0  0  0  0  0  0  0
  -28.8153  -29.5387   23.3630 C   0  0  0  0  0  0  0  0  0  0  0  0
  -27.2971  -12.2952   21.3275 C   0  0  0  0  0  0  0  0  0  0  0  0
  -29.3715  -10.4686   20.9493 C   0  0  0  0  0  0  0  0  0  0  0  0
  -27.5854  -11.3530   22.3149 C   0  0  0  0  0  0  0  0  0  0  0  0
  -27.5532  -18.6435   21.4625 C   0  0  0  0  0  0  0  0  0  0  0  0
  -29.2716  -26.3008   20.8652 C   0  0  0  0  0  0  0  0  0  0  0  0
  -27.1861  -25.6723   21.0172 C   0  0  0  0  0  0  0  0  0  0  0  0
  -28.3774  -20.6201   20.9636 C   0  0  0  0  0  0  0  0  0  0  0  0
  -29.1105  -18.7947   19.4211 C   0  0  0  0  0  0  0  0  0  0  0  0
  -23.4551  -29.4827   24.2170 C   0  0  0  0  0  0  0  0  0  0  0  0
  -25.5237  -25.0854   22.7543 C   0  0  0  0  0  0  0  0  0  0  0  0
  -23.4343  -32.6751   23.6426 C   0  0  0  0  0  0  0  0  0  0  0  0
  -25.1923  -35.4826   22.8214 C   0  0  0  0  0  0  0  0  0  0  0  0
  -18.9704  -27.3895   25.4676 C   0  0  0  0  0  0  0  0  0  0  0  0
  -25.3022  -30.2795   25.7367 C   0  0  0  0  0  0  0  0  0  0  0  0
  -25.5399  -31.4308   23.0232 C   0  0  0  0  0  0  0  0  0  0  0  0
  -19.4274  -28.5368   24.5703 C   0  0  0  0  0  0  0  0  0  0  0  0
  -26.6228  -22.7181   25.2095 C   0  0  0  0  0  0  0  0  0  0  0  0
  -20.5698  -28.0850   23.6661 C   0  0  0  0  0  0  0  0  0  0  0  0
  -27.0027  -21.4917   24.3808 C   0  0  0  0  0  0  0  0  0  0  0  0
  -25.4280  -23.4508   24.6071 C   0  0  0  0  0  0  0  0  0  0  0  0
  -25.9941  -22.6188   22.3468 C   0  0  0  0  0  0  0  0  0  0  0  0
  -21.7891  -27.6550   24.4907 C   0  0  1  0  0  0  0  0  0  0  0  0
  -24.0742  -30.6602   24.9154 C   0  0  1  0  0  0  0  0  0  0  0  0
  -27.2160  -21.8671   22.9037 C   0  0  2  0  0  0  0  0  0  0  0  0
  -24.7739  -26.3970   20.7987 C   0  0  0  0  0  0  0  0  0  0  0  0
  -24.8955  -37.9367   22.3893 C   0  0  0  0  0  0  0  0  0  0  0  0
  -22.2572  -32.0471   20.8985 C   0  0  0  0  0  0  0  0  0  0  0  0
  -22.8662  -34.3678   20.1833 C   0  0  0  0  0  0  0  0  0  0  0  0
  -21.2392  -34.0242   22.0427 C   0  0  0  0  0  0  0  0  0  0  0  0
  -26.9795  -36.2121   25.0648 C   0  0  0  0  0  0  0  0  0  0  0  0
  -30.6402  -26.8857   21.1069 C   0  0  0  0  0  0  0  0  0  0  0  0
  -30.7929  -28.3234   20.6057 C   0  0  0  0  0  0  0  0  0  0  0  0
  -29.7665  -29.2818   21.1984 C   0  0  0  0  0  0  0  0  0  1  0  0
  -25.7833  -25.3366   21.2902 C   0  0  1  0  0  0  0  0  0  0  0  0
  -23.6904  -33.5460   22.4364 C   0  0  1  0  0  0  0  0  0  0  0  0
  -25.2109  -36.8733   23.4297 C   0  0  2  0  0  0  0  0  0  0  0  0
  -22.5331  -33.4785   21.4002 C   0  0  0  0  0  0  0  0  0  0  0  0
  -27.0480  -19.4606   22.3905 N   0  0  0  0  0  0  0  0  0  0  0  0
  -29.0187  -25.6462   19.7284 N   0  0  0  0  0  0  0  0  0  0  0  0
  -27.5677  -20.6552   22.0605 N   0  0  0  0  0  0  0  0  0  0  0  0
  -24.3697  -31.6597   23.8869 N   0  0  0  0  0  0  0  0  0  0  0  0
  -25.6608  -23.7698   23.1974 N   0  0  0  0  0  0  0  0  0  0  0  0
  -28.9814  -21.7327   20.4949 N   0  0  0  0  0  0  0  0  0  0  0  0
  -29.0112  -17.4264   19.1345 N   0  0  0  0  0  0  0  0  0  0  0  0
  -22.5089  -28.8150   24.9710 N   0  0  0  0  0  0  0  0  0  0  0  0
  -23.9559  -34.8858   22.9492 N   0  0  0  0  0  0  0  0  0  0  0  0
  -26.5518  -37.1669   24.0102 N   0  3  0  0  0  0  0  0  0  0  0  0
  -29.8354  -19.5219   18.7006 O   0  0  0  0  0  0  0  0  0  0  0  0
  -23.8086  -29.2016   23.0778 O   0  0  0  0  0  0  0  0  0  0  0  0
  -25.2115  -26.0320   23.4814 O   0  0  0  0  0  0  0  0  0  0  0  0
  -22.4448  -32.8925   24.3463 O   0  0  0  0  0  0  0  0  0  0  0  0
  -26.1752  -34.9778   22.2832 O   0  0  0  0  0  0  0  0  0  0  0  0
  -27.6910  -25.2486   19.8303 O   0  0  0  0  0  0  0  0  0  0  0  0
  -26.2671  -13.2020   21.5134 O   0  0  0  0  0  0  0  0  0  0  0  0
  -29.9291  -29.3078   22.6159 O   0  0  0  0  0  0  0  0  0  1  0  0
  -30.3666   -9.5907   20.7669 F   0  0  0  0  0  0  0  0  0  0  0  0
  -26.8686  -11.3196   23.4467 F   0  0  0  0  0  0  0  0  0  0  0  0
  1  2  1  0  0  0  0
  1  5  2  0  0  0  0
  2  6  2  0  0  0  0
  3  8  2  0  0  0  0
  3 16  1  0  0  0  0
  4  9  1  0  0  0  0
  4 16  2  0  0  0  0
  5 18  1  0  0  0  0
  6 20  1  0  0  0  0
  7 10  2  0  0  0  0
  7 19  1  0  0  0  0
  8 22  1  0  0  0  0
  9 22  2  0  0  0  0
 10 23  1  0  0  0  0
 11 12  2  0  0  0  0
 11 24  1  0  0  0  0
 12 25  1  0  0  0  0
 13 21  1  0  0  0  0
 13 23  2  0  0  0  0
 14 25  2  0  0  0  0
 14 26  1  0  0  0  0
 15 28  1  0  0  0  0
 15 29  2  0  0  0  0
 16 27  1  0  0  0  0
 17 27  1  0  0  0  0
 17 30  2  0  0  0  0
 17 31  1  0  0  0  0
 18 20  2  0  0  0  0
 18 36  1  0  0  0  0
 19 21  2  0  0  0  0
 19 37  1  0  0  0  0
 20 45  1  0  0  0  0
 21 38  1  0  0  0  0
 22 77  1  0  0  0  0
 23 78  1  0  0  0  0
 24 26  2  0  0  0  0
 24 77  1  0  0  0  0
 25 79  1  0  0  0  0
 26 80  1  0  0  0  0
 27 61  2  0  0  0  0
 28 54  1  0  0  0  0
 28 62  2  0  0  0  0
 29 57  1  0  0  0  0
 29 76  1  0  0  0  0
 30 63  1  0  0  0  0
 30 66  1  0  0  0  0
 31 67  1  0  0  0  0
 31 71  2  0  0  0  0
 32 46  1  0  0  0  0
 32 68  1  0  0  0  0
 32 72  2  0  0  0  0
 33 57  1  0  0  0  0
 33 65  1  0  0  0  0
 33 73  2  0  0  0  0
 34 58  1  0  0  0  0
 34 64  1  0  0  0  0
 34 74  2  0  0  0  0
 35 59  1  0  0  0  0
 35 69  1  0  0  0  0
 35 75  2  0  0  0  0
 36 39  1  0  0  0  0
 37 46  1  0  0  0  0
 38 64  1  0  0  0  0
 39 41  1  0  0  0  0
 40 42  1  0  0  0  0
 40 43  1  0  0  0  0
 41 45  1  0  0  0  0
 42 47  1  0  0  0  0
 43 65  1  0  0  0  0
 44 47  1  0  0  0  0
 44 65  1  0  0  0  0
 45 68  1  0  0  0  0
 46 64  1  0  0  0  0
 47 63  1  0  0  0  0
 48 57  1  0  0  0  0
 49 59  1  0  0  0  0
 50 60  1  0  0  0  0
 51 60  1  0  0  0  0
 52 60  1  0  0  0  0
 53 70  1  0  0  0  0
 54 55  1  0  0  0  0
 55 56  1  0  0  0  0
 56 78  1  0  0  0  0
 58 60  1  0  0  0  0
 58 69  1  0  0  0  0
 59 70  1  0  0  0  0
 61 63  1  0  0  0  0
 62 76  1  0  0  0  0
M  CHG  1  70   1
M  ISO  4  33 100  56 101  57 100  78 101
M  END
> <Batch ID>
0037

> <Smiles>
CNC(C)C(=O)NC(C(=O)N1Cc2cc([101O:1][101CH2:1]CCc3cc([100CH:0](C)[100C:0](=O)N4CCCC(n5nc(-c6ccc(Oc7ccc(F)cc7F)cc6)c(C(N)=O)c5N)C4)on3)ccc2CC1C(=O)NC1CCCc2ccccc21)C(C)(C)C

> <Shape>
0.217

> <Color>
0.079

> <Negative vol penalty>
0.000

$$$$

  -OEChem-04052316593D

 85 93  0     1  0  0  0  0  0999 V2000
  -35.0371  -32.4470   20.0029 C   0  0  0  0  0  0  0  0  0  0  0  0
  -34.8554  -31.4397   20.9452 C   0  0  0  0  0  0  0  0  0  0  0  0
  -23.0087   -9.8336   19.9881 C   0  0  0  0  0  0  0  0  0  0  0  0
  -23.7247   -9.9265   22.2937 C   0  0  0  0  0  0  0  0  0  0  0  0
  -34.1082  -32.6160   18.9770 C   0  0  0  0  0  0  0  0  0  0  0  0
  -33.7441  -30.6015   20.8626 C   0  0  0  0  0  0  0  0  0  0  0  0
  -34.9296  -25.7286   21.5659 C   0  0  0  0  0  0  0  0  0  0  0  0
  -22.2565   -8.6927   20.2675 C   0  0  0  0  0  0  0  0  0  0  0  0
  -22.9724   -8.7856   22.5732 C   0  0  0  0  0  0  0  0  0  0  0  0
  -35.1406  -25.3076   22.8781 C   0  0  0  0  0  0  0  0  0  0  0  0
  -23.2633   -5.4440   22.1489 C   0  0  0  0  0  0  0  0  0  0  0  0
  -23.8617   -4.4454   22.9172 C   0  0  0  0  0  0  0  0  0  0  0  0
  -32.9102  -24.3905   22.9361 C   0  0  0  0  0  0  0  0  0  0  0  0
  -35.7024  -20.5498   25.3823 C   0  0  0  0  0  0  0  0  0  0  0  0
  -33.5912  -21.4396   26.1489 C   0  0  0  0  0  0  0  0  0  0  0  0
  -22.1286   -4.6884   24.5828 C   0  0  0  0  0  0  0  0  0  0  0  0
  -23.7428  -10.4505   21.0011 C   0  0  0  0  0  0  0  0  0  0  0  0
  -24.0950  -12.9684   20.7913 C   0  0  0  0  0  0  0  0  0  0  0  0
  -32.9901  -31.7733   18.8761 C   0  0  0  0  0  0  0  0  0  0  0  0
  -33.7014  -25.4929   20.9315 C   0  0  0  0  0  0  0  0  0  0  0  0
  -32.7987  -30.7602   19.8351 C   0  0  0  0  0  0  0  0  0  0  0  0
  -32.6870  -24.8072   21.6149 C   0  0  0  0  0  0  0  0  0  0  0  0
  -34.9637  -21.5880   25.9497 C   0  0  0  0  0  0  0  0  0  0  0  0
  -35.0684  -19.3631   25.0139 C   0  0  0  0  0  0  0  0  0  0  0  0
  -32.9572  -20.2530   25.7806 C   0  0  0  0  0  0  0  0  0  0  0  0
  -33.6959  -19.2147   25.2131 C   0  0  0  0  0  0  0  0  0  0  0  0
  -22.2383   -8.1687   21.5601 C   0  0  0  0  0  0  0  0  0  0  0  0
  -34.1298  -24.6410   23.5645 C   0  0  0  0  0  0  0  0  0  0  0  0
  -22.0976   -6.0649   22.5975 C   0  0  0  0  0  0  0  0  0  0  0  0
  -23.2943   -4.0675   24.1341 C   0  0  0  0  0  0  0  0  0  0  0  0
  -21.5302   -5.6870   23.8145 C   0  0  0  0  0  0  0  0  0  0  0  0
  -24.5205  -11.6287   20.7129 C   0  0  0  0  0  0  0  0  0  0  0  0
  -25.1962  -13.7007   20.4207 C   0  0  0  0  0  0  0  0  0  0  0  0
  -22.8184  -13.5030   21.1657 C   0  0  0  0  0  0  0  0  0  0  0  0
  -31.4165  -27.3357   19.7121 C   0  0  0  0  0  0  0  0  0  0  0  0
  -30.1874  -24.4967   18.7367 C   0  0  0  0  0  0  0  0  0  0  0  0
  -29.9859  -21.1195   19.1853 C   0  0  0  0  0  0  0  0  0  0  0  0
  -30.6786  -14.7127   20.6753 C   0  0  0  0  0  0  0  0  0  0  0  0
  -31.9883  -32.0247   17.7771 C   0  0  0  0  0  0  0  0  0  0  0  0
  -33.4990  -25.9298   19.5065 C   0  0  0  0  0  0  0  0  0  0  0  0
  -31.3575  -24.5116   20.9719 C   0  0  0  0  0  0  0  0  0  0  0  0
  -31.0351  -30.8556   17.5426 C   0  0  0  0  0  0  0  0  0  0  0  0
  -29.5792  -12.2414   18.3600 C   0  0  0  0  0  0  0  0  0  0  0  0
  -30.4890  -30.3377   18.8694 C   0  0  0  0  0  0  0  0  0  0  0  0
  -28.1328  -11.9680   18.7761 C   0  0  0  0  0  0  0  0  0  0  0  0
  -30.4739  -12.5058   19.5690 C   0  0  0  0  0  0  0  0  0  0  0  0
  -28.5484  -13.2941   20.8898 C   0  0  0  0  0  0  0  0  0  0  0  0
  -31.6189  -29.8151   19.7647 C   0  0  1  0  0  0  0  0  0  0  0  0
  -32.0284  -26.0911   19.1341 C   0  0  1  0  0  0  0  0  0  0  0  0
  -27.5963  -13.0769   19.7012 C   0  0  2  0  0  0  0  0  0  0  0  0
  -35.8824  -18.2661   24.4092 C   0  0  0  0  0  0  0  0  0  0  0  0
  -31.4862  -20.1191   26.0045 C   0  0  0  0  0  0  0  0  0  0  0  0
  -28.8721  -19.0719   18.2559 C   0  0  0  0  0  0  0  0  0  0  0  0
  -27.5780  -25.3009   20.0985 C   0  0  0  0  0  0  0  0  0  0  0  0
  -26.8556  -22.9071   19.9725 C   0  0  0  0  0  0  0  0  0  0  0  0
  -27.2954  -24.1872   17.8772 C   0  0  0  0  0  0  0  0  0  0  0  0
  -32.5824  -19.8810   18.4902 C   0  0  0  0  0  0  0  0  0  0  0  0
  -35.6496  -22.8724   26.3477 C   0  0  0  0  0  0  0  0  0  0  0  0
  -33.0165  -17.9421   24.8185 C   0  0  0  0  0  0  0  0  0  0  0  0
  -32.2393  -18.0864   23.5025 C   0  0  0  0  0  0  0  0  0  0  0  0
  -31.5189  -16.7877   23.1285 C   0  0  0  0  0  0  0  0  0  0  0  0
  -30.7277  -16.9088   21.8302 C   0  0  0  0  0  0  0  0  0  0  0  0
  -35.6695  -23.8939   25.2158 C   0  0  0  0  0  0  0  0  0  1  0  0
  -29.2406  -23.4813   19.3298 C   0  0  1  0  0  0  0  0  0  0  0  0
  -30.1022  -19.9647   18.2069 C   0  0  2  0  0  0  0  0  0  0  0  0
  -27.7666  -23.9762   19.3325 C   0  0  0  0  0  0  0  0  0  0  0  0
  -25.7928  -11.5139   20.3230 N   0  0  0  0  0  0  0  0  0  0  0  0
  -26.1762  -12.7907   20.1529 N   0  0  0  0  0  0  0  0  0  0  0  0
  -31.2058  -24.9644   19.5793 N   0  0  0  0  0  0  0  0  0  0  0  0
  -29.9098  -13.5688   20.4042 N   0  0  0  0  0  0  0  0  0  0  0  0
  -25.4123  -15.0279   20.3009 N   0  0  0  0  0  0  0  0  0  0  0  0
  -21.7973  -12.6098   21.5180 N   0  0  0  0  0  0  0  0  0  0  0  0
  -32.0459  -28.5037   19.3260 N   0  0  0  0  0  0  0  0  0  0  0  0
  -29.4536  -22.2429   18.5886 N   0  0  0  0  0  0  0  0  0  0  0  0
  -30.0664  -15.6745   21.4696 N   0  0  0  0  0  0  0  0  0  0  0  0
  -31.2984  -19.1347   18.5250 N   0  3  0  0  0  0  0  0  0  0  0  0
  -22.5850  -14.7354   21.1714 O   0  0  0  0  0  0  0  0  0  0  0  0
  -30.4442  -27.2434   20.4523 O   0  0  0  0  0  0  0  0  0  0  0  0
  -30.0335  -24.8560   17.5668 O   0  0  0  0  0  0  0  0  0  0  0  0
  -30.3292  -21.0326   20.3622 O   0  0  0  0  0  0  0  0  0  0  0  0
  -31.8236  -14.8679   20.2372 O   0  0  0  0  0  0  0  0  0  0  0  0
  -21.5043   -7.0556   21.8333 O   0  0  0  0  0  0  0  0  0  0  0  0
  -34.3329  -24.2296   24.8456 O   0  0  0  0  0  0  0  0  0  1  0  0
  -23.8682   -3.1075   24.8711 F   0  0  0  0  0  0  0  0  0  0  0  0
  -20.4097   -6.2790   24.2502 F   0  0  0  0  0  0  0  0  0  0  0  0
  1  2  1  0  0  0  0
  1  5  2  0  0  0  0
  2  6  2  0  0  0  0
  3  8  2  0  0  0  0
  3 17  1  0  0  0  0
  4  9  1  0  0  0  0
  4 17  2  0  0  0  0
  5 19  1  0  0  0  0
  6 21  1  0  0  0  0
  7 10  2  0  0  0  0
  7 20  1  0  0  0  0
  8 27  1  0  0  0  0
  9 27  2  0  0  0  0
 10 28  1  0  0  0  0
 11 12  2  0  0  0  0
 11 29  1  0  0  0  0
 12 30  1  0  0  0  0
 13 22  1  0  0  0  0
 13 28  2  0  0  0  0
 14 23  1  0  0  0  0
 14 24  2  0  0  0  0
 15 23  2  0  0  0  0
 15 25  1  0  0  0  0
 16 30  2  0  0  0  0
 16 31  1  0  0  0  0
 17 32  1  0  0  0  0
 18 32  1  0  0  0  0
 18 33  2  0  0  0  0
 18 34  1  0  0  0  0
 19 21  2  0  0  0  0
 19 39  1  0  0  0  0
 20 22  2  0  0  0  0
 20 40  1  0  0  0  0
 21 48  1  0  0  0  0
 22 41  1  0  0  0  0
 23 58  1  0  0  0  0
 24 26  1  0  0  0  0
 24 51  1  0  0  0  0
 25 26  2  0  0  0  0
 25 52  1  0  0  0  0
 26 59  1  0  0  0  0
 27 82  1  0  0  0  0
 28 83  1  0  0  0  0
 29 31  2  0  0  0  0
 29 82  1  0  0  0  0
 30 84  1  0  0  0  0
 31 85  1  0  0  0  0
 32 67  2  0  0  0  0
 33 68  1  0  0  0  0
 33 71  1  0  0  0  0
 34 72  1  0  0  0  0
 34 77  2  0  0  0  0
 35 49  1  0  0  0  0
 35 73  1  0  0  0  0
 35 78  2  0  0  0  0
 36 64  1  0  0  0  0
 36 69  1  0  0  0  0
 36 79  2  0  0  0  0
 37 65  1  0  0  0  0
 37 74  1  0  0  0  0
 37 80  2  0  0  0  0
 38 70  1  0  0  0  0
 38 75  1  0  0  0  0
 38 81  2  0  0  0  0
 39 42  1  0  0  0  0
 40 49  1  0  0  0  0
 41 69  1  0  0  0  0
 42 44  1  0  0  0  0
 43 45  1  0  0  0  0
 43 46  1  0  0  0  0
 44 48  1  0  0  0  0
 45 50  1  0  0  0  0
 46 70  1  0  0  0  0
 47 50  1  0  0  0  0
 47 70  1  0  0  0  0
 48 73  1  0  0  0  0
 49 69  1  0  0  0  0
 50 68  1  0  0  0  0
 53 65  1  0  0  0  0
 54 66  1  0  0  0  0
 55 66  1  0  0  0  0
 56 66  1  0  0  0  0
 57 76  1  0  0  0  0
 58 63  1  0  0  0  0
 59 60  1  0  0  0  0
 60 61  1  0  0  0  0
 61 62  1  0  0  0  0
 62 75  1  0  0  0  0
 63 83  1  0  0  0  0
 64 66  1  0  0  0  0
 64 74  1  0  0  0  0
 65 76  1  0  0  0  0
 67 68  1  0  0  0  0
M  CHG  1  76   1
M  ISO  4  38 100  63 101  75 100  83 101
M  END
> <Batch ID>
0037

> <Smiles>
CNC(C)C(=O)NC(C(=O)N1Cc2cc([101O:1][101CH2:1]Cc3cc(C)c(CCCC[100NH:0][100C:0](=O)N4CCCC(n5nc(-c6ccc(Oc7ccc(F)cc7F)cc6)c(C(N)=O)c5N)C4)c(C)c3)ccc2CC1C(=O)NC1CCCc2ccccc21)C(C)(C)C

> <Shape>
0.246

> <Color>
0.212

> <Negative vol penalty>
0.000

$$$$

  -OEChem-04052316593D

 84 92  0     1  0  0  0  0  0999 V2000
  -17.0171  -31.3109   23.8582 C   0  0  0  0  0  0  0  0  0  0  0  0
  -18.2451  -31.5435   24.4692 C   0  0  0  0  0  0  0  0  0  0  0  0
  -26.7930  -18.2203   18.9900 C   0  0  0  0  0  0  0  0  0  0  0  0
  -27.6888  -18.1945   21.2337 C   0  0  0  0  0  0  0  0  0  0  0  0
  -16.8584  -30.2163   23.0093 C   0  0  0  0  0  0  0  0  0  0  0  0
  -19.3149  -30.6809   24.2325 C   0  0  0  0  0  0  0  0  0  0  0  0
  -26.4556  -30.6687   23.6606 C   0  0  0  0  0  0  0  0  0  0  0  0
  -26.2269  -16.9632   19.2016 C   0  0  0  0  0  0  0  0  0  0  0  0
  -27.1226  -16.9374   21.4453 C   0  0  0  0  0  0  0  0  0  0  0  0
  -27.5756  -30.0123   24.1688 C   0  0  0  0  0  0  0  0  0  0  0  0
  -24.2415  -13.9188   19.2742 C   0  0  0  0  0  0  0  0  0  0  0  0
  -22.9256  -13.7214   18.8558 C   0  0  0  0  0  0  0  0  0  0  0  0
  -27.2076  -28.1987   22.6214 C   0  0  0  0  0  0  0  0  0  0  0  0
  -32.8218  -25.2746   25.5545 C   0  0  0  0  0  0  0  0  0  0  0  0
  -30.5406  -26.0659   25.6359 C   0  0  0  0  0  0  0  0  0  0  0  0
  -31.7355  -26.0385   23.5362 C   0  0  0  0  0  0  0  0  0  0  0  0
  -22.1911  -15.4862   20.3334 C   0  0  0  0  0  0  0  0  0  0  0  0
  -27.5240  -18.8359   20.0060 C   0  0  0  0  0  0  0  0  0  0  0  0
  -27.5177  -21.3867   20.0388 C   0  0  0  0  0  0  0  0  0  0  0  0
  -17.9295  -29.3454   22.7545 C   0  0  0  0  0  0  0  0  0  0  0  0
  -25.6954  -30.0889   22.6346 C   0  0  0  0  0  0  0  0  0  0  0  0
  -19.1700  -29.5729   23.3804 C   0  0  0  0  0  0  0  0  0  0  0  0
  -26.0798  -28.8509   22.1001 C   0  0  0  0  0  0  0  0  0  0  0  0
  -31.6632  -25.5475   26.2815 C   0  0  0  0  0  0  0  0  0  0  0  0
  -32.8580  -25.5201   24.1819 C   0  0  0  0  0  0  0  0  0  0  0  0
  -30.5767  -26.3114   24.2632 C   0  0  0  0  0  0  0  0  0  0  0  0
  -26.3917  -16.3217   20.4292 C   0  0  0  0  0  0  0  0  0  0  0  0
  -27.9501  -28.7758   23.6513 C   0  0  0  0  0  0  0  0  0  0  0  0
  -24.5322  -14.8998   20.2223 C   0  0  0  0  0  0  0  0  0  0  0  0
  -21.9004  -14.5051   19.3854 C   0  0  0  0  0  0  0  0  0  0  0  0
  -23.5070  -15.6835   20.7519 C   0  0  0  0  0  0  0  0  0  0  0  0
  -28.1095  -20.1343   19.7879 C   0  0  0  0  0  0  0  0  0  0  0  0
  -28.4749  -22.2992   19.6680 C   0  0  0  0  0  0  0  0  0  0  0  0
  -26.2189  -21.6975   20.5604 C   0  0  0  0  0  0  0  0  0  0  0  0
  -22.6884  -29.0968   22.3572 C   0  0  0  0  0  0  0  0  0  0  0  0
  -23.5303  -28.6561   19.2557 C   0  0  0  0  0  0  0  0  0  0  0  0
  -26.0132  -28.1286   16.9745 C   0  0  0  0  0  0  0  0  0  0  0  0
  -34.4429  -22.0161   19.2743 C   0  0  0  0  0  0  0  0  0  0  0  0
  -17.6966  -28.1486   21.8667 C   0  0  0  0  0  0  0  0  0  0  0  0
  -24.5055  -30.8222   22.0789 C   0  0  0  0  0  0  0  0  0  0  0  0
  -25.3093  -28.1952   20.9844 C   0  0  0  0  0  0  0  0  0  0  0  0
  -18.9855  -27.4957   21.3739 C   0  0  0  0  0  0  0  0  0  0  0  0
  -32.1626  -22.8484   16.6696 C   0  0  0  0  0  0  0  0  0  0  0  0
  -19.9691  -27.3195   22.5264 C   0  0  0  0  0  0  0  0  0  0  0  0
  -30.8119  -22.3602   17.1961 C   0  0  0  0  0  0  0  0  0  0  0  0
  -33.2991  -21.9143   17.0793 C   0  0  0  0  0  0  0  0  0  0  0  0
  -32.0342  -21.1526   19.0525 C   0  0  0  0  0  0  0  0  0  0  0  0
  -20.3611  -28.6740   23.1291 C   0  0  1  0  0  0  0  0  0  0  0  0
  -23.5060  -29.9009   21.3863 C   0  0  1  0  0  0  0  0  0  0  0  0
  -30.8647  -22.0922   18.7122 C   0  0  2  0  0  0  0  0  0  0  0  0
  -31.1470  -23.8715   28.0734 C   0  0  0  0  0  0  0  0  0  0  0  0
  -26.3892  -27.7717   14.5192 C   0  0  0  0  0  0  0  0  0  0  0  0
  -22.5292  -25.7861   19.5221 C   0  0  0  0  0  0  0  0  0  0  0  0
  -23.7732  -25.2310   17.4215 C   0  0  0  0  0  0  0  0  0  0  0  0
  -21.9254  -26.9060   17.3690 C   0  0  0  0  0  0  0  0  0  0  0  0
  -27.6796  -30.5648   16.7573 C   0  0  0  0  0  0  0  0  0  0  0  0
  -31.6250  -25.2845   27.7491 C   0  0  0  0  0  0  0  0  0  0  0  0
  -34.0966  -25.2281   23.4039 C   0  0  0  0  0  0  0  0  0  0  0  0
  -29.3690  -26.8690   23.5691 C   0  0  0  0  0  0  0  0  0  1  0  0
  -34.1125  -23.7938   22.8526 C   0  0  0  0  0  0  0  0  0  0  0  0
  -35.4054  -23.4949   22.0879 C   0  0  0  0  0  0  0  0  0  0  0  0
  -35.4483  -22.0711   21.5426 C   0  0  0  0  0  0  0  0  0  0  0  0
  -24.1225  -27.5180   18.4600 C   0  0  1  0  0  0  0  0  0  0  0  0
  -26.3161  -28.7930   15.6436 C   0  0  2  0  0  0  0  0  0  0  0  0
  -23.1012  -26.3715   18.2155 C   0  0  0  0  0  0  0  0  0  0  0  0
  -29.3468  -20.2380   19.2956 N   0  0  0  0  0  0  0  0  0  0  0  0
  -29.5403  -21.5664   19.2341 N   0  0  0  0  0  0  0  0  0  0  0  0
  -24.1498  -28.9487   20.4790 N   0  0  0  0  0  0  0  0  0  0  0  0
  -33.2943  -21.7027   18.5289 N   0  0  0  0  0  0  0  0  0  0  0  0
  -28.5008  -23.6490   19.6739 N   0  0  0  0  0  0  0  0  0  0  0  0
  -25.3606  -20.6396   20.8901 N   0  0  0  0  0  0  0  0  0  0  0  0
  -21.3301  -29.3408   22.2861 N   0  0  0  0  0  0  0  0  0  0  0  0
  -24.6602  -28.1096   17.2397 N   0  0  0  0  0  0  0  0  0  0  0  0
  -34.3517  -21.7915   20.6425 N   0  0  0  0  0  0  0  0  0  0  0  0
  -27.6188  -29.5139   15.7091 N   0  3  0  0  0  0  0  0  0  0  0  0
  -25.8247  -22.8784   20.7138 O   0  0  0  0  0  0  0  0  0  0  0  0
  -23.2482  -28.3120   23.1137 O   0  0  0  0  0  0  0  0  0  0  0  0
  -22.5586  -29.2678   18.8050 O   0  0  0  0  0  0  0  0  0  0  0  0
  -26.8890  -27.6689   17.7041 O   0  0  0  0  0  0  0  0  0  0  0  0
  -35.4713  -22.4679   18.7594 O   0  0  0  0  0  0  0  0  0  0  0  0
  -25.8392  -15.0951   20.6361 O   0  0  0  0  0  0  0  0  0  0  0  0
  -29.0426  -28.1327   24.1460 O   0  0  0  0  0  0  0  0  0  1  0  0
  -20.6370  -14.3165   18.9824 F   0  0  0  0  0  0  0  0  0  0  0  0
  -23.7802  -16.6283   21.6621 F   0  0  0  0  0  0  0  0  0  0  0  0
  1  2  1  0  0  0  0
  1  5  2  0  0  0  0
  2  6  2  0  0  0  0
  3  8  2  0  0  0  0
  3 18  1  0  0  0  0
  4  9  1  0  0  0  0
  4 18  2  0  0  0  0
  5 20  1  0  0  0  0
  6 22  1  0  0  0  0
  7 10  2  0  0  0  0
  7 21  1  0  0  0  0
  8 27  1  0  0  0  0
  9 27  2  0  0  0  0
 10 28  1  0  0  0  0
 11 12  2  0  0  0  0
 11 29  1  0  0  0  0
 12 30  1  0  0  0  0
 13 23  1  0  0  0  0
 13 28  2  0  0  0  0
 14 24  1  0  0  0  0
 14 25  2  0  0  0  0
 15 24  2  0  0  0  0
 15 26  1  0  0  0  0
 16 25  1  0  0  0  0
 16 26  2  0  0  0  0
 17 30  2  0  0  0  0
 17 31  1  0  0  0  0
 18 32  1  0  0  0  0
 19 32  1  0  0  0  0
 19 33  2  0  0  0  0
 19 34  1  0  0  0  0
 20 22  2  0  0  0  0
 20 39  1  0  0  0  0
 21 23  2  0  0  0  0
 21 40  1  0  0  0  0
 22 48  1  0  0  0  0
 23 41  1  0  0  0  0
 24 57  1  0  0  0  0
 25 58  1  0  0  0  0
 26 59  1  0  0  0  0
 27 81  1  0  0  0  0
 28 82  1  0  0  0  0
 29 31  2  0  0  0  0
 29 81  1  0  0  0  0
 30 83  1  0  0  0  0
 31 84  1  0  0  0  0
 32 66  2  0  0  0  0
 33 67  1  0  0  0  0
 33 70  1  0  0  0  0
 34 71  1  0  0  0  0
 34 76  2  0  0  0  0
 35 49  1  0  0  0  0
 35 72  1  0  0  0  0
 35 77  2  0  0  0  0
 36 63  1  0  0  0  0
 36 68  1  0  0  0  0
 36 78  2  0  0  0  0
 37 64  1  0  0  0  0
 37 73  1  0  0  0  0
 37 79  2  0  0  0  0
 38 69  1  0  0  0  0
 38 74  1  0  0  0  0
 38 80  2  0  0  0  0
 39 42  1  0  0  0  0
 40 49  1  0  0  0  0
 41 68  1  0  0  0  0
 42 44  1  0  0  0  0
 43 45  1  0  0  0  0
 43 46  1  0  0  0  0
 44 48  1  0  0  0  0
 45 50  1  0  0  0  0
 46 69  1  0  0  0  0
 47 50  1  0  0  0  0
 47 69  1  0  0  0  0
 48 72  1  0  0  0  0
 49 68  1  0  0  0  0
 50 67  1  0  0  0  0
 51 57  1  0  0  0  0
 52 64  1  0  0  0  0
 53 65  1  0  0  0  0
 54 65  1  0  0  0  0
 55 65  1  0  0  0  0
 56 75  1  0  0  0  0
 58 60  1  0  0  0  0
 59 82  1  0  0  0  0
 60 61  1  0  0  0  0
 61 62  1  0  0  0  0
 62 74  1  0  0  0  0
 63 65  1  0  0  0  0
 63 73  1  0  0  0  0
 64 75  1  0  0  0  0
 66 67  1  0  0  0  0
M  CHG  1  75   1
M  ISO  4  38 100  59 101  74 100  82 101
M  END
> <Batch ID>
0037

> <Smiles>
CCc1cc(CCCC[100NH:0][100C:0](=O)N2CCCC(n3nc(-c4ccc(Oc5ccc(F)cc5F)cc4)c(C(N)=O)c3N)C2)cc([101CH2:1][101O:1]c2ccc3c(c2)CN(C(=O)C(NC(=O)C(C)NC)C(C)(C)C)C(C(=O)NC2CCCc4ccccc42)C3)c1

> <Shape>
0.198

> <Color>
0.092

> <Negative vol penalty>
0.000

$$$$

  -OEChem-04052316593D

 87 96  0     1  0  0  0  0  0999 V2000
  -28.3909  -37.7422   25.0463 C   0  0  0  0  0  0  0  0  0  0  0  0
  -28.9861  -36.4896   25.1574 C   0  0  0  0  0  0  0  0  0  0  0  0
  -24.1859   -9.5301   21.0940 C   0  0  0  0  0  0  0  0  0  0  0  0
  -25.2029  -10.5762   23.0197 C   0  0  0  0  0  0  0  0  0  0  0  0
  -27.0058  -37.8660   25.1476 C   0  0  0  0  0  0  0  0  0  0  0  0
  -28.1966  -35.3602   25.3709 C   0  0  0  0  0  0  0  0  0  0  0  0
  -28.2877  -29.8427   20.7406 C   0  0  0  0  0  0  0  0  0  0  0  0
  -24.0988   -8.3266   21.7937 C   0  0  0  0  0  0  0  0  0  0  0  0
  -25.1157   -9.3727   23.7195 C   0  0  0  0  0  0  0  0  0  0  0  0
  -28.4075  -28.6582   20.0135 C   0  0  0  0  0  0  0  0  0  0  0  0
  -23.2787   -5.0743   23.1954 C   0  0  0  0  0  0  0  0  0  0  0  0
  -22.0810   -4.3638   23.1170 C   0  0  0  0  0  0  0  0  0  0  0  0
  -26.6987  -27.6321   21.3829 C   0  0  0  0  0  0  0  0  0  0  0  0
  -20.9031   -6.2436   24.0740 C   0  0  0  0  0  0  0  0  0  0  0  0
  -29.2161  -20.2149   21.9609 C   0  0  0  0  0  0  0  0  0  0  0  0
  -27.1057  -20.7366   22.4982 C   0  0  0  0  0  0  0  0  0  0  0  0
  -24.7380  -10.6549   21.7069 C   0  0  0  0  0  0  0  0  0  0  0  0
  -23.7669  -12.6429   20.4371 C   0  0  0  0  0  0  0  0  0  0  0  0
  -26.1981  -36.7363   25.3528 C   0  0  0  0  0  0  0  0  0  0  0  0
  -27.3609  -29.9314   21.7830 C   0  0  0  0  0  0  0  0  0  0  0  0
  -26.7995  -35.4692   25.4764 C   0  0  0  0  0  0  0  0  0  0  0  0
  -26.5654  -28.8200   22.1067 C   0  0  0  0  0  0  0  0  0  0  0  0
  -28.6905  -19.1443   22.6499 C   0  0  0  0  0  0  0  0  0  0  0  0
  -27.3554  -19.4744   22.9900 C   0  0  0  0  0  0  0  0  0  0  0  0
  -24.5636   -8.2479   23.1065 C   0  0  0  0  0  0  0  0  0  0  0  0
  -27.6151  -27.5556   20.3340 C   0  0  0  0  0  0  0  0  0  0  0  0
  -23.2887   -6.3695   23.7132 C   0  0  0  0  0  0  0  0  0  0  0  0
  -20.8932   -4.9484   23.5563 C   0  0  0  0  0  0  0  0  0  0  0  0
  -22.1009   -6.9541   24.1525 C   0  0  0  0  0  0  0  0  0  0  0  0
  -24.8289  -11.8982   20.9844 C   0  0  0  0  0  0  0  0  0  0  0  0
  -24.3731  -13.7313   19.8588 C   0  0  0  0  0  0  0  0  0  0  0  0
  -22.3585  -12.3747   20.4503 C   0  0  0  0  0  0  0  0  0  0  0  0
  -25.8202  -32.0524   24.4670 C   0  0  0  0  0  0  0  0  0  0  0  0
  -23.5454  -30.4360   23.1929 C   0  0  0  0  0  0  0  0  0  0  0  0
  -21.2764  -28.7916   21.2475 C   0  0  0  0  0  0  0  0  0  0  0  0
  -29.5605  -16.5370   20.8927 C   0  0  0  0  0  0  0  0  0  0  0  0
  -24.7095  -36.9259   25.5029 C   0  0  0  0  0  0  0  0  0  0  0  0
  -27.2411  -31.1672   22.6329 C   0  0  0  0  0  0  0  0  0  0  0  0
  -25.6065  -28.9501   23.2584 C   0  0  0  0  0  0  0  0  0  0  0  0
  -23.9127  -35.6321   25.3552 C   0  0  0  0  0  0  0  0  0  0  0  0
  -28.4865  -15.0848   17.8245 C   0  0  0  0  0  0  0  0  0  0  0  0
  -24.5525  -34.5149   26.1733 C   0  0  0  0  0  0  0  0  0  0  0  0
  -27.3315  -14.1707   18.2370 C   0  0  0  0  0  0  0  0  0  0  0  0
  -27.4394  -22.6766   19.9997 C   0  0  0  0  0  0  0  0  0  0  0  0
  -28.2475  -23.6901   22.1815 C   0  0  0  0  0  0  0  0  0  0  0  0
  -27.6138  -24.0295   19.3147 C   0  0  0  0  0  0  0  0  0  0  0  0
  -28.4163  -25.0380   21.4852 C   0  0  0  0  0  0  0  0  0  0  0  0
  -29.5956  -15.1016   18.8741 C   0  0  0  0  0  0  0  0  0  0  0  0
  -27.9945  -14.5154   20.6537 C   0  0  0  0  0  0  0  0  0  0  0  0
  -25.9748  -34.2174   25.6834 C   0  0  1  0  0  0  0  0  0  0  0  0
  -25.7994  -31.4442   23.0955 C   0  0  1  0  0  0  0  0  0  0  0  0
  -28.4023  -22.5226   21.1905 C   0  0  0  0  0  0  0  0  0  0  0  0
  -26.8266  -14.5091   19.6526 C   0  0  2  0  0  0  0  0  0  0  0  0
  -27.4625  -25.1852   20.3009 C   0  0  0  0  0  0  0  0  0  1  0  0
  -18.8109  -28.3890   21.0093 C   0  0  0  0  0  0  0  0  0  0  0  0
  -25.0161  -19.3420   23.9152 C   0  0  0  0  0  0  0  0  0  0  0  0
  -26.9250  -18.2803   25.1662 C   0  0  0  0  0  0  0  0  0  0  0  0
  -26.0555  -17.2433   23.0806 C   0  0  0  0  0  0  0  0  0  0  0  0
  -23.6397  -28.4923   25.5417 C   0  0  0  0  0  0  0  0  0  0  0  0
  -21.5303  -27.4569   24.6779 C   0  0  0  0  0  0  0  0  0  0  0  0
  -21.5429  -29.8470   25.3918 C   0  0  0  0  0  0  0  0  0  0  0  0
  -21.2181  -30.0199   18.5555 C   0  0  0  0  0  0  0  0  0  0  0  0
  -29.3978  -17.8880   22.9682 C   0  0  0  0  0  0  0  0  0  0  0  0
  -22.6981  -29.1898   23.2411 C   0  0  1  0  0  0  0  0  0  0  0  0
  -19.9887  -29.2553   20.5908 C   0  0  2  0  0  0  0  0  0  0  0  0
  -26.3991  -18.6307   23.7335 C   0  0  0  0  0  0  0  0  0  0  0  0
  -22.3759  -28.7481   24.6966 C   0  0  0  0  0  0  0  0  0  0  0  0
  -26.0194  -12.4655   20.7727 N   0  0  0  0  0  0  0  0  0  0  0  0
  -28.2437  -21.1768   21.8744 N   0  0  0  0  0  0  0  0  0  0  0  0
  -25.7092  -13.5782   20.0858 N   0  0  0  0  0  0  0  0  0  0  0  0
  -24.9341  -30.2577   23.2070 N   0  0  0  0  0  0  0  0  0  0  0  0
  -29.0507  -15.4306   20.1935 N   0  0  0  0  0  0  0  0  0  0  0  0
  -23.8882  -14.7948   19.1833 N   0  0  0  0  0  0  0  0  0  0  0  0
  -21.9057  -11.2119   21.0882 N   0  0  0  0  0  0  0  0  0  0  0  0
  -25.9371  -33.4292   24.4702 N   0  0  0  0  0  0  0  0  0  0  0  0
  -21.5202  -29.4652   22.4256 N   0  0  0  0  0  0  0  0  0  0  0  0
  -28.9842  -16.7825   22.1330 N   0  0  0  0  0  0  0  0  0  0  0  0
  -20.1129  -29.1945   19.1069 N   0  3  0  0  0  0  0  0  0  0  0  0
  -21.5277  -13.1352   19.8980 O   0  0  0  0  0  0  0  0  0  0  0  0
  -25.7348  -31.3269   25.4510 O   0  0  0  0  0  0  0  0  0  0  0  0
  -22.9936  -31.5392   23.1497 O   0  0  0  0  0  0  0  0  0  0  0  0
  -21.9923  -27.9166   20.7655 O   0  0  0  0  0  0  0  0  0  0  0  0
  -30.4589  -17.2563   20.4426 O   0  0  0  0  0  0  0  0  0  0  0  0
  -24.4785   -7.0738   23.7897 O   0  0  0  0  0  0  0  0  0  0  0  0
  -27.7340  -26.4038   19.6171 O   0  0  0  0  0  0  0  0  0  1  0  0
  -19.7428   -4.2666   23.4794 F   0  0  0  0  0  0  0  0  0  0  0  0
  -22.1041   -8.1985   24.6498 F   0  0  0  0  0  0  0  0  0  0  0  0
  1  2  1  0  0  0  0
  1  5  2  0  0  0  0
  2  6  2  0  0  0  0
  3  8  2  0  0  0  0
  3 17  1  0  0  0  0
  4  9  1  0  0  0  0
  4 17  2  0  0  0  0
  5 19  1  0  0  0  0
  6 21  1  0  0  0  0
  7 10  2  0  0  0  0
  7 20  1  0  0  0  0
  8 25  1  0  0  0  0
  9 25  2  0  0  0  0
 10 26  1  0  0  0  0
 11 12  2  0  0  0  0
 11 27  1  0  0  0  0
 12 28  1  0  0  0  0
 13 22  1  0  0  0  0
 13 26  2  0  0  0  0
 14 28  2  0  0  0  0
 14 29  1  0  0  0  0
 15 23  2  0  0  0  0
 15 69  1  0  0  0  0
 16 24  2  0  0  0  0
 16 69  1  0  0  0  0
 17 30  1  0  0  0  0
 18 30  1  0  0  0  0
 18 31  2  0  0  0  0
 18 32  1  0  0  0  0
 19 21  2  0  0  0  0
 19 37  1  0  0  0  0
 20 22  2  0  0  0  0
 20 38  1  0  0  0  0
 21 50  1  0  0  0  0
 22 39  1  0  0  0  0
 23 24  1  0  0  0  0
 23 63  1  0  0  0  0
 24 66  1  0  0  0  0
 25 84  1  0  0  0  0
 26 85  1  0  0  0  0
 27 29  2  0  0  0  0
 27 84  1  0  0  0  0
 28 86  1  0  0  0  0
 29 87  1  0  0  0  0
 30 68  2  0  0  0  0
 31 70  1  0  0  0  0
 31 73  1  0  0  0  0
 32 74  1  0  0  0  0
 32 79  2  0  0  0  0
 33 51  1  0  0  0  0
 33 75  1  0  0  0  0
 33 80  2  0  0  0  0
 34 64  1  0  0  0  0
 34 71  1  0  0  0  0
 34 81  2  0  0  0  0
 35 65  1  0  0  0  0
 35 76  1  0  0  0  0
 35 82  2  0  0  0  0
 36 72  1  0  0  0  0
 36 77  1  0  0  0  0
 36 83  2  0  0  0  0
 37 40  1  0  0  0  0
 38 51  1  0  0  0  0
 39 71  1  0  0  0  0
 40 42  1  0  0  0  0
 41 43  1  0  0  0  0
 41 48  1  0  0  0  0
 42 50  1  0  0  0  0
 43 53  1  0  0  0  0
 44 46  1  0  0  0  0
 44 52  1  0  0  0  0
 45 47  1  0  0  0  0
 45 52  1  0  0  0  0
 46 54  1  0  0  0  0
 47 54  1  0  0  0  0
 48 72  1  0  0  0  0
 49 53  1  0  0  0  0
 49 72  1  0  0  0  0
 50 75  1  0  0  0  0
 51 71  1  0  0  0  0
 52 69  1  0  0  0  0
 53 70  1  0  0  0  0
 54 85  1  0  0  0  0
 55 65  1  0  0  0  0
 56 66  1  0  0  0  0
 57 66  1  0  0  0  0
 58 66  1  0  0  0  0
 59 67  1  0  0  0  0
 60 67  1  0  0  0  0
 61 67  1  0  0  0  0
 62 78  1  0  0  0  0
 63 77  1  0  0  0  0
 64 67  1  0  0  0  0
 64 76  1  0  0  0  0
 65 78  1  0  0  0  0
 68 70  1  0  0  0  0
M  CHG  1  78   1
M  ISO  4  36 100  54 101  77 100  85 101
M  END
> <Batch ID>
0037

> <Smiles>
CNC(C)C(=O)NC(C(=O)N1Cc2cc([101O:1][101CH:1]3CCC(n4cc(C[100NH:0][100C:0](=O)N5CCCC(n6nc(-c7ccc(Oc8ccc(F)cc8F)cc7)c(C(N)=O)c6N)C5)c(C(C)(C)C)c4)CC3)ccc2CC1C(=O)NC1CCCc2ccccc21)C(C)(C)C

> <Shape>
0.298

> <Color>
0.105

> <Negative vol penalty>
0.000

$$$$

  -OEChem-04052316593D

 94102  0     1  0  0  0  0  0999 V2000
  -29.3421  -24.5609   17.2411 C   0  0  0  0  0  0  0  0  0  0  0  0
  -28.0371  -24.8788   17.6035 C   0  0  0  0  0  0  0  0  0  0  0  0
  -23.1292   -9.7954   19.9851 C   0  0  0  0  0  0  0  0  0  0  0  0
  -23.8550   -9.8963   22.2874 C   0  0  0  0  0  0  0  0  0  0  0  0
  -30.4011  -24.9069   18.0795 C   0  0  0  0  0  0  0  0  0  0  0  0
  -27.7902  -25.5420   18.8050 C   0  0  0  0  0  0  0  0  0  0  0  0
  -24.4646  -29.3259   18.2876 C   0  0  0  0  0  0  0  0  0  0  0  0
  -22.4262   -8.6221   20.2581 C   0  0  0  0  0  0  0  0  0  0  0  0
  -23.1519   -8.7229   22.5604 C   0  0  0  0  0  0  0  0  0  0  0  0
  -23.1158  -28.9819   18.2087 C   0  0  0  0  0  0  0  0  0  0  0  0
  -23.5769   -5.4002   22.1027 C   0  0  0  0  0  0  0  0  0  0  0  0
  -24.2204   -4.4199   22.8581 C   0  0  0  0  0  0  0  0  0  0  0  0
  -22.8406  -29.5513   20.5366 C   0  0  0  0  0  0  0  0  0  0  0  0
  -18.2676  -27.1815   20.3714 C   0  0  0  0  0  0  0  0  0  0  0  0
  -18.8281  -24.5134   19.7797 C   0  0  0  0  0  0  0  0  0  0  0  0
  -22.4891   -4.5761   24.5359 C   0  0  0  0  0  0  0  0  0  0  0  0
  -23.8437  -10.4325   20.9997 C   0  0  0  0  0  0  0  0  0  0  0  0
  -24.0910  -12.9645   20.8118 C   0  0  0  0  0  0  0  0  0  0  0  0
  -30.1678  -25.5832   19.2873 C   0  0  0  0  0  0  0  0  0  0  0  0
  -25.0149  -29.7757   19.4965 C   0  0  0  0  0  0  0  0  0  0  0  0
  -28.8469  -25.8962   19.6609 C   0  0  0  0  0  0  0  0  0  0  0  0
  -24.1961  -29.9029   20.6276 C   0  0  0  0  0  0  0  0  0  0  0  0
  -18.0324  -26.1914   21.3252 C   0  0  0  0  0  0  0  0  0  0  0  0
  -18.3127  -24.8573   21.0295 C   0  0  0  0  0  0  0  0  0  0  0  0
  -18.7829  -26.8376   19.1216 C   0  0  0  0  0  0  0  0  0  0  0  0
  -19.0632  -25.5036   18.8258 C   0  0  0  0  0  0  0  0  0  0  0  0
  -22.4375   -8.0858   21.5457 C   0  0  0  0  0  0  0  0  0  0  0  0
  -22.3043  -29.0918   19.3340 C   0  0  0  0  0  0  0  0  0  0  0  0
  -22.3895   -5.9685   22.5640 C   0  0  0  0  0  0  0  0  0  0  0  0
  -23.6765   -4.0079   24.0746 C   0  0  0  0  0  0  0  0  0  0  0  0
  -21.8456   -5.5564   23.7806 C   0  0  0  0  0  0  0  0  0  0  0  0
  -24.5706  -11.6443   20.7182 C   0  0  0  0  0  0  0  0  0  0  0  0
  -25.1590  -13.7448   20.4418 C   0  0  0  0  0  0  0  0  0  0  0  0
  -22.7959  -13.4428   21.1986 C   0  0  0  0  0  0  0  0  0  0  0  0
  -27.2874  -28.7250   21.4549 C   0  0  0  0  0  0  0  0  0  0  0  0
  -26.7361  -31.5379   22.9735 C   0  0  0  0  0  0  0  0  0  0  0  0
  -24.5841  -34.1050   23.6258 C   0  0  0  0  0  0  0  0  0  0  0  0
  -30.5968  -14.9786   20.6743 C   0  0  0  0  0  0  0  0  0  0  0  0
  -31.3405  -25.8944   20.1832 C   0  0  0  0  0  0  0  0  0  0  0  0
  -26.4656  -30.1682   19.5582 C   0  0  0  0  0  0  0  0  0  0  0  0
  -24.7336  -30.3999   21.9438 C   0  0  0  0  0  0  0  0  0  0  0  0
  -31.0260  -26.9287   21.2610 C   0  0  0  0  0  0  0  0  0  0  0  0
  -29.5854  -12.4858   18.3421 C   0  0  0  0  0  0  0  0  0  0  0  0
  -29.7024  -26.6014   21.9449 C   0  0  0  0  0  0  0  0  0  0  0  0
  -28.1540  -12.1494   18.7639 C   0  0  0  0  0  0  0  0  0  0  0  0
  -30.4759  -12.7755   19.5483 C   0  0  0  0  0  0  0  0  0  0  0  0
  -28.5278  -13.4718   20.8877 C   0  0  0  0  0  0  0  0  0  0  0  0
  -28.5408  -26.6372   20.9444 C   0  0  1  0  0  0  0  0  0  0  0  0
  -27.0364  -30.1256   20.9723 C   0  0  1  0  0  0  0  0  0  0  0  0
  -27.5782  -13.2268   19.7026 C   0  0  2  0  0  0  0  0  0  0  0  0
  -17.4809  -26.5835   22.6566 C   0  0  0  0  0  0  0  0  0  0  0  0
  -18.0697  -23.7802   22.0350 C   0  0  0  0  0  0  0  0  0  0  0  0
  -24.4026  -36.2395   24.9329 C   0  0  0  0  0  0  0  0  0  0  0  0
  -26.3304  -29.9315   25.5357 C   0  0  0  0  0  0  0  0  0  0  0  0
  -25.2450  -31.9488   26.5459 C   0  0  0  0  0  0  0  0  0  0  0  0
  -27.6314  -32.0475   25.8261 C   0  0  0  0  0  0  0  0  0  0  0  0
  -24.2014  -35.7122   21.1703 C   0  0  0  0  0  0  0  0  0  0  0  0
  -19.0257  -27.9148   18.1160 C   0  0  0  0  0  0  0  0  0  0  0  0
  -19.6172  -25.1097   17.4883 C   0  0  0  0  0  0  0  0  0  0  0  0
  -26.7028  -21.0835   18.6069 C   0  0  0  0  0  0  0  0  0  0  0  0
  -26.9808  -19.9966   19.6471 C   0  0  0  0  0  0  0  0  0  0  0  0
  -25.2169  -21.4279   18.4664 C   0  0  0  0  0  0  0  0  0  0  0  0
  -28.4754  -19.6776   19.7288 C   0  0  0  0  0  0  0  0  0  0  0  0
  -24.8819  -22.5534   17.4827 C   0  0  0  0  0  0  0  0  0  0  0  0
  -28.7527  -18.5673   20.7445 C   0  0  0  0  0  0  0  0  0  0  0  0
  -23.3819  -22.8369   17.3684 C   0  0  0  0  0  0  0  0  0  0  0  0
  -30.2525  -18.2769   20.8539 C   0  0  0  0  0  0  0  0  0  0  0  0
  -23.1102  -23.9821   16.3875 C   0  0  0  0  0  0  0  0  0  0  0  0
  -30.5629  -17.1642   21.8497 C   0  0  0  0  0  0  0  0  0  0  0  0
  -21.6309  -24.3169   16.2413 C   0  0  0  0  0  0  0  0  0  0  0  0
  -20.5031  -28.2986   17.9989 C   0  0  0  0  0  0  0  0  0  1  0  0
  -25.8094  -31.9950   24.0740 C   0  0  1  0  0  0  0  0  0  0  0  0
  -24.7749  -35.6108   23.5992 C   0  0  2  0  0  0  0  0  0  0  0  0
  -26.2440  -31.4694   25.4713 C   0  0  0  0  0  0  0  0  0  0  0  0
  -25.8441  -11.5853   20.3199 N   0  0  0  0  0  0  0  0  0  0  0  0
  -26.1738  -12.8783   20.1598 N   0  0  0  0  0  0  0  0  0  0  0  0
  -26.1597  -30.7653   21.9553 N   0  0  0  0  0  0  0  0  0  0  0  0
  -29.8739  -13.8067   20.3969 N   0  0  0  0  0  0  0  0  0  0  0  0
  -25.3197  -15.0808   20.3334 N   0  0  0  0  0  0  0  0  0  0  0  0
  -21.8145  -12.5053   21.5483 N   0  0  0  0  0  0  0  0  0  0  0  0
  -28.1594  -28.0042   20.6615 N   0  0  0  0  0  0  0  0  0  0  0  0
  -25.7453  -33.4492   23.9760 N   0  0  0  0  0  0  0  0  0  0  0  0
  -29.9506  -15.9072   21.4812 N   0  0  0  0  0  0  0  0  0  0  0  0
  -23.9254  -36.2219   22.5381 N   0  3  0  0  0  0  0  0  0  0  0  0
  -21.0667  -24.7714   17.5337 N   0  3  0  0  0  0  0  0  0  0  0  0
  -22.5122  -14.6646   21.2174 O   0  0  0  0  0  0  0  0  0  0  0  0
  -26.7321  -28.3281   22.4727 O   0  0  0  0  0  0  0  0  0  0  0  0
  -27.9261  -31.8606   23.0120 O   0  0  0  0  0  0  0  0  0  0  0  0
  -23.5112  -33.5648   23.3658 O   0  0  0  0  0  0  0  0  0  0  0  0
  -31.7317  -15.1847   20.2312 O   0  0  0  0  0  0  0  0  0  0  0  0
  -21.7513   -6.9410   21.8126 O   0  0  0  0  0  0  0  0  0  0  0  0
  -20.9783  -28.7536   19.2594 O   0  0  0  0  0  0  0  0  0  1  0  0
  -24.2938   -3.0654   24.7991 F   0  0  0  0  0  0  0  0  0  0  0  0
  -20.7044   -6.0979   24.2283 F   0  0  0  0  0  0  0  0  0  0  0  0
  1  2  1  0  0  0  0
  1  5  2  0  0  0  0
  2  6  2  0  0  0  0
  3  8  2  0  0  0  0
  3 17  1  0  0  0  0
  4  9  1  0  0  0  0
  4 17  2  0  0  0  0
  5 19  1  0  0  0  0
  6 21  1  0  0  0  0
  7 10  2  0  0  0  0
  7 20  1  0  0  0  0
  8 27  1  0  0  0  0
  9 27  2  0  0  0  0
 10 28  1  0  0  0  0
 11 12  2  0  0  0  0
 11 29  1  0  0  0  0
 12 30  1  0  0  0  0
 13 22  1  0  0  0  0
 13 28  2  0  0  0  0
 14 23  2  0  0  0  0
 14 25  1  0  0  0  0
 15 24  2  0  0  0  0
 15 26  1  0  0  0  0
 16 30  2  0  0  0  0
 16 31  1  0  0  0  0
 17 32  1  0  0  0  0
 18 32  1  0  0  0  0
 18 33  2  0  0  0  0
 18 34  1  0  0  0  0
 19 21  2  0  0  0  0
 19 39  1  0  0  0  0
 20 22  2  0  0  0  0
 20 40  1  0  0  0  0
 21 48  1  0  0  0  0
 22 41  1  0  0  0  0
 23 24  1  0  0  0  0
 23 51  1  0  0  0  0
 24 52  1  0  0  0  0
 25 26  2  0  0  0  0
 25 58  1  0  0  0  0
 26 59  1  0  0  0  0
 27 91  1  0  0  0  0
 28 92  1  0  0  0  0
 29 31  2  0  0  0  0
 29 91  1  0  0  0  0
 30 93  1  0  0  0  0
 31 94  1  0  0  0  0
 32 75  2  0  0  0  0
 33 76  1  0  0  0  0
 33 79  1  0  0  0  0
 34 80  1  0  0  0  0
 34 86  2  0  0  0  0
 35 49  1  0  0  0  0
 35 81  1  0  0  0  0
 35 87  2  0  0  0  0
 36 72  1  0  0  0  0
 36 77  1  0  0  0  0
 36 88  2  0  0  0  0
 37 73  1  0  0  0  0
 37 82  1  0  0  0  0
 37 89  2  0  0  0  0
 38 78  1  0  0  0  0
 38 83  1  0  0  0  0
 38 90  2  0  0  0  0
 39 42  1  0  0  0  0
 40 49  1  0  0  0  0
 41 77  1  0  0  0  0
 42 44  1  0  0  0  0
 43 45  1  0  0  0  0
 43 46  1  0  0  0  0
 44 48  1  0  0  0  0
 45 50  1  0  0  0  0
 46 78  1  0  0  0  0
 47 50  1  0  0  0  0
 47 78  1  0  0  0  0
 48 81  1  0  0  0  0
 49 77  1  0  0  0  0
 50 76  1  0  0  0  0
 53 73  1  0  0  0  0
 54 74  1  0  0  0  0
 55 74  1  0  0  0  0
 56 74  1  0  0  0  0
 57 84  1  0  0  0  0
 58 71  1  0  0  0  0
 59 85  1  0  0  0  0
 60 61  1  0  0  0  0
 60 62  1  0  0  0  0
 61 63  1  0  0  0  0
 62 64  1  0  0  0  0
 63 65  1  0  0  0  0
 64 66  1  0  0  0  0
 65 67  1  0  0  0  0
 66 68  1  0  0  0  0
 67 69  1  0  0  0  0
 68 70  1  0  0  0  0
 69 83  1  0  0  0  0
 70 85  1  0  0  0  0
 71 92  1  0  0  0  0
 72 74  1  0  0  0  0
 72 82  1  0  0  0  0
 73 84  1  0  0  0  0
 75 76  1  0  0  0  0
M  CHG  2  84   1  85   1
M  ISO  4  38 100  71 101  83 100  92 101
M  END
> <Batch ID>
0037

> <Smiles>
CNC(C)C(=O)NC(C(=O)N1Cc2cc([101O:1][101CH2:1]Cc3cc(C)c(C)cc3CNCCCCCCCCCCC[100NH:0][100C:0](=O)N3CCCC(n4nc(-c5ccc(Oc6ccc(F)cc6F)cc5)c(C(N)=O)c4N)C3)ccc2CC1C(=O)NC1CCCc2ccccc21)C(C)(C)C

> <Shape>
0.430

> <Color>
0.245

> <Negative vol penalty>
0.000

$$$$

  -OEChem-04052316593D

 85 93  0     1  0  0  0  0  0999 V2000
  -29.5970  -26.7259   15.7472 C   0  0  0  0  0  0  0  0  0  0  0  0
  -28.6441  -25.7980   16.1520 C   0  0  0  0  0  0  0  0  0  0  0  0
  -24.4435  -13.9239   20.9180 C   0  0  0  0  0  0  0  0  0  0  0  0
  -26.7630  -13.4977   20.3931 C   0  0  0  0  0  0  0  0  0  0  0  0
  -30.0324  -27.7056   16.6370 C   0  0  0  0  0  0  0  0  0  0  0  0
  -28.1175  -25.8569   17.4428 C   0  0  0  0  0  0  0  0  0  0  0  0
  -23.9404  -22.4911   22.2003 C   0  0  0  0  0  0  0  0  0  0  0  0
  -24.1164  -12.6256   20.5267 C   0  0  0  0  0  0  0  0  0  0  0  0
  -26.4359  -12.1994   20.0018 C   0  0  0  0  0  0  0  0  0  0  0  0
  -23.8970  -21.9198   23.4713 C   0  0  0  0  0  0  0  0  0  0  0  0
  -22.7263   -9.3071   20.0068 C   0  0  0  0  0  0  0  0  0  0  0  0
  -21.8681   -8.5784   20.8302 C   0  0  0  0  0  0  0  0  0  0  0  0
  -23.7519  -24.1204   24.4489 C   0  0  0  0  0  0  0  0  0  0  0  0
  -23.4433   -8.7805   22.6509 C   0  0  0  0  0  0  0  0  0  0  0  0
  -29.1986  -22.5558   26.8777 C   0  0  0  0  0  0  0  0  0  0  0  0
  -25.7668  -14.3599   20.8511 C   0  0  0  0  0  0  0  0  0  0  0  0
  -26.4762  -16.1334   22.5420 C   0  0  0  0  0  0  0  0  0  0  0  0
  -29.5196  -27.7681   17.9431 C   0  0  0  0  0  0  0  0  0  0  0  0
  -23.9009  -23.8841   22.0443 C   0  0  0  0  0  0  0  0  0  0  0  0
  -28.5266  -26.8529   18.3479 C   0  0  0  0  0  0  0  0  0  0  0  0
  -23.7924  -24.7068   23.1746 C   0  0  0  0  0  0  0  0  0  0  0  0
  -25.1126  -11.7634   20.0686 C   0  0  0  0  0  0  0  0  0  0  0  0
  -23.8056  -22.7346   24.5960 C   0  0  0  0  0  0  0  0  0  0  0  0
  -23.9431   -9.7724   20.5054 C   0  0  0  0  0  0  0  0  0  0  0  0
  -22.2265   -8.3151   22.1522 C   0  0  0  0  0  0  0  0  0  0  0  0
  -24.3016   -9.5091   21.8275 C   0  0  0  0  0  0  0  0  0  0  0  0
  -26.1053  -15.7011   21.2546 C   0  0  0  0  0  0  0  0  0  0  0  0
  -28.4363  -22.8345   25.7275 C   0  0  0  0  0  0  0  0  0  0  0  0
  -28.3510  -21.8381   27.6857 C   0  0  0  0  0  0  0  0  0  0  0  0
  -26.6933  -17.4824   22.4019 C   0  0  0  0  0  0  0  0  0  0  0  0
  -26.6125  -15.3828   23.7559 C   0  0  0  0  0  0  0  0  0  0  0  0
  -25.8781  -26.0638   20.8430 C   0  0  0  0  0  0  0  0  0  0  0  0
  -23.3807  -28.0618   21.3849 C   0  0  0  0  0  0  0  0  0  0  0  0
  -20.5240  -28.7210   23.1318 C   0  0  0  0  0  0  0  0  0  0  0  0
  -28.8364  -21.8008   19.5904 C   0  0  0  0  0  0  0  0  0  0  0  0
  -30.0204  -28.8540   18.8624 C   0  0  0  0  0  0  0  0  0  0  0  0
  -23.9217  -24.4837   20.6650 C   0  0  0  0  0  0  0  0  0  0  0  0
  -23.7263  -26.2071   23.0601 C   0  0  0  0  0  0  0  0  0  0  0  0
  -29.7377  -28.5651   20.3331 C   0  0  0  0  0  0  0  0  0  0  0  0
  -25.6443  -20.6045   18.5628 C   0  0  0  0  0  0  0  0  0  0  0  0
  -28.2788  -28.1740   20.5149 C   0  0  0  0  0  0  0  0  0  0  0  0
  -25.5133  -19.2558   19.2725 C   0  0  0  0  0  0  0  0  0  0  0  0
  -27.0796  -20.8687   18.1134 C   0  0  0  0  0  0  0  0  0  0  0  0
  -27.9623  -19.4042   19.8881 C   0  0  0  0  0  0  0  0  0  0  0  0
  -27.9621  -26.8786   19.7568 C   0  0  1  0  0  0  0  0  0  0  0  0
  -24.3935  -25.9345   20.6512 C   0  0  1  0  0  0  0  0  0  0  0  0
  -26.5436  -19.1180   20.4094 C   0  0  2  0  0  0  0  0  0  0  0  0
  -29.0866  -19.8188   28.9772 C   0  0  0  0  0  0  0  0  0  0  0  0
  -18.7218  -30.4494   23.3808 C   0  0  0  0  0  0  0  0  0  0  0  0
  -25.3031  -29.8366   22.9548 C   0  0  0  0  0  0  0  0  0  0  0  0
  -23.3160  -30.9907   23.9485 C   0  0  0  0  0  0  0  0  0  0  0  0
  -23.7030  -31.0758   21.4857 C   0  0  0  0  0  0  0  0  0  0  0  0
  -18.4161  -26.8074   22.3232 C   0  0  0  0  0  0  0  0  0  0  0  0
  -28.8571  -23.5848   24.5322 C   0  0  0  0  0  0  0  0  0  0  0  0
  -28.5521  -21.2549   29.0248 C   0  0  0  0  0  0  0  0  0  0  0  0
  -29.4843  -22.6831   23.4472 C   0  0  0  0  0  0  0  0  0  0  0  0
  -29.9557  -23.4807   22.2276 C   0  0  0  0  0  0  0  0  0  0  0  0
  -24.8423  -21.9875   27.9723 C   0  0  0  0  0  0  0  0  0  0  0  0
  -25.9207  -21.0361   27.4493 C   0  0  0  0  0  0  0  0  0  0  0  0
  -30.5883  -22.5968   21.1577 C   0  0  0  0  0  0  0  0  0  0  0  0
  -24.3138  -22.9441   26.9098 C   0  0  0  0  0  0  0  0  0  1  0  0
  -22.9264  -28.9152   22.5444 C   0  0  1  0  0  0  0  0  0  0  0  0
  -19.1466  -29.1694   22.6779 C   0  0  2  0  0  0  0  0  0  0  0  0
  -23.8153  -30.1764   22.7359 C   0  0  0  0  0  0  0  0  0  0  0  0
  -26.0865  -16.6949   20.3624 N   0  0  0  0  0  0  0  0  0  0  0  0
  -27.1996  -22.3345   25.7948 N   0  0  0  0  0  0  0  0  0  0  0  0
  -27.1784  -21.7342   26.9970 N   0  0  0  0  0  0  0  0  0  0  0  0
  -26.4483  -17.7651   21.0903 N   0  0  0  0  0  0  0  0  0  0  0  0
  -23.7564  -26.7459   21.6903 N   0  0  0  0  0  0  0  0  0  0  0  0
  -28.0063  -20.7236   19.2386 N   0  0  0  0  0  0  0  0  0  0  0  0
  -27.0678  -18.4425   23.2739 N   0  0  0  0  0  0  0  0  0  0  0  0
  -26.3514  -14.0062   23.7231 N   0  0  0  0  0  0  0  0  0  0  0  0
  -26.5333  -26.6554   19.7799 N   0  0  0  0  0  0  0  0  0  0  0  0
  -21.5168  -29.2079   22.3081 N   0  0  0  0  0  0  0  0  0  0  0  0
  -29.6801  -21.5816   20.6725 N   0  0  0  0  0  0  0  0  0  0  0  0
  -18.1356  -28.1145   22.9711 N   0  3  0  0  0  0  0  0  0  0  0  0
  -26.9398  -15.9198   24.8412 O   0  0  0  0  0  0  0  0  0  0  0  0
  -26.3910  -25.6584   21.8795 O   0  0  0  0  0  0  0  0  0  0  0  0
  -23.3947  -28.5426   20.2491 O   0  0  0  0  0  0  0  0  0  0  0  0
  -20.7017  -28.0128   24.1205 O   0  0  0  0  0  0  0  0  0  0  0  0
  -28.8226  -22.8798   18.9883 O   0  0  0  0  0  0  0  0  0  0  0  0
  -24.7938  -10.4964   19.6869 O   0  0  0  0  0  0  0  0  0  0  0  0
  -23.7637  -22.1796   25.8378 O   0  0  0  0  0  0  0  0  0  1  0  0
  -21.4015   -7.6167   22.9433 F   0  0  0  0  0  0  0  0  0  0  0  0
  -25.4687   -9.9546   22.3125 F   0  0  0  0  0  0  0  0  0  0  0  0
  1  2  1  0  0  0  0
  1  5  2  0  0  0  0
  2  6  2  0  0  0  0
  3  8  2  0  0  0  0
  3 16  1  0  0  0  0
  4  9  1  0  0  0  0
  4 16  2  0  0  0  0
  5 18  1  0  0  0  0
  6 20  1  0  0  0  0
  7 10  2  0  0  0  0
  7 19  1  0  0  0  0
  8 22  1  0  0  0  0
  9 22  2  0  0  0  0
 10 23  1  0  0  0  0
 11 12  2  0  0  0  0
 11 24  1  0  0  0  0
 12 25  1  0  0  0  0
 13 21  1  0  0  0  0
 13 23  2  0  0  0  0
 14 25  2  0  0  0  0
 14 26  1  0  0  0  0
 15 28  1  0  0  0  0
 15 29  2  0  0  0  0
 16 27  1  0  0  0  0
 17 27  1  0  0  0  0
 17 30  2  0  0  0  0
 17 31  1  0  0  0  0
 18 20  2  0  0  0  0
 18 36  1  0  0  0  0
 19 21  2  0  0  0  0
 19 37  1  0  0  0  0
 20 45  1  0  0  0  0
 21 38  1  0  0  0  0
 22 82  1  0  0  0  0
 23 83  1  0  0  0  0
 24 26  2  0  0  0  0
 24 82  1  0  0  0  0
 25 84  1  0  0  0  0
 26 85  1  0  0  0  0
 27 65  2  0  0  0  0
 28 54  1  0  0  0  0
 28 66  2  0  0  0  0
 29 55  1  0  0  0  0
 29 67  1  0  0  0  0
 30 68  1  0  0  0  0
 30 71  1  0  0  0  0
 31 72  1  0  0  0  0
 31 77  2  0  0  0  0
 32 46  1  0  0  0  0
 32 73  1  0  0  0  0
 32 78  2  0  0  0  0
 33 62  1  0  0  0  0
 33 69  1  0  0  0  0
 33 79  2  0  0  0  0
 34 63  1  0  0  0  0
 34 74  1  0  0  0  0
 34 80  2  0  0  0  0
 35 70  1  0  0  0  0
 35 75  1  0  0  0  0
 35 81  2  0  0  0  0
 36 39  1  0  0  0  0
 37 46  1  0  0  0  0
 38 69  1  0  0  0  0
 39 41  1  0  0  0  0
 40 42  1  0  0  0  0
 40 43  1  0  0  0  0
 41 45  1  0  0  0  0
 42 47  1  0  0  0  0
 43 70  1  0  0  0  0
 44 47  1  0  0  0  0
 44 70  1  0  0  0  0
 45 73  1  0  0  0  0
 46 69  1  0  0  0  0
 47 68  1  0  0  0  0
 48 55  1  0  0  0  0
 49 63  1  0  0  0  0
 50 64  1  0  0  0  0
 51 64  1  0  0  0  0
 52 64  1  0  0  0  0
 53 76  1  0  0  0  0
 54 56  1  0  0  0  0
 56 57  1  0  0  0  0
 57 60  1  0  0  0  0
 58 59  1  0  0  0  0
 58 61  1  0  0  0  0
 59 67  1  0  0  0  0
 60 75  1  0  0  0  0
 61 83  1  0  0  0  0
 62 64  1  0  0  0  0
 62 74  1  0  0  0  0
 63 76  1  0  0  0  0
 65 68  1  0  0  0  0
 66 67  1  0  0  0  0
M  CHG  1  76   1
M  ISO  4  35 100  61 101  75 100  83 101
M  END
> <Batch ID>
0037

> <Smiles>
CCc1cc(CCCC[100NH:0][100C:0](=O)N2CCCC(n3nc(-c4ccc(Oc5ccc(F)cc5F)cc4)c(C(N)=O)c3N)C2)nn1CC[101CH2:1][101O:1]c1ccc2c(c1)CN(C(=O)C(NC(=O)C(C)NC)C(C)(C)C)C(C(=O)NC1CCCc3ccccc31)C2

> <Shape>
0.220

> <Color>
0.071

> <Negative vol penalty>
0.000

$$$$

  -OEChem-04052316593D

 85 93  0     1  0  0  0  0  0999 V2000
  -21.1761  -23.1568   19.8611 C   0  0  0  0  0  0  0  0  0  0  0  0
  -22.5071  -22.8015   19.6677 C   0  0  0  0  0  0  0  0  0  0  0  0
  -22.5475  -29.9818   21.5678 C   0  0  0  0  0  0  0  0  0  0  0  0
  -23.5925  -28.9191   23.4693 C   0  0  0  0  0  0  0  0  0  0  0  0
  -20.3725  -22.4053   20.7175 C   0  0  0  0  0  0  0  0  0  0  0  0
  -23.0357  -21.6950   20.3315 C   0  0  0  0  0  0  0  0  0  0  0  0
  -27.2619  -17.8026   18.2114 C   0  0  0  0  0  0  0  0  0  0  0  0
  -31.2455  -17.2755   25.8838 C   0  0  0  0  0  0  0  0  0  0  0  0
  -21.4172  -30.2511   22.3394 C   0  0  0  0  0  0  0  0  0  0  0  0
  -22.4621  -29.1884   24.2410 C   0  0  0  0  0  0  0  0  0  0  0  0
  -28.6390  -17.7139   18.4100 C   0  0  0  0  0  0  0  0  0  0  0  0
  -18.1124  -30.8996   23.7110 C   0  0  0  0  0  0  0  0  0  0  0  0
  -16.8632  -30.6446   23.1452 C   0  0  0  0  0  0  0  0  0  0  0  0
  -30.5330  -18.4459   25.6482 C   0  0  0  0  0  0  0  0  0  0  0  0
  -28.2767  -16.0860   20.1530 C   0  0  0  0  0  0  0  0  0  0  0  0
  -17.4538  -28.3157   22.8909 C   0  0  0  0  0  0  0  0  0  0  0  0
  -23.6352  -29.3157   22.1327 C   0  0  0  0  0  0  0  0  0  0  0  0
  -25.9356  -29.8563   21.1718 C   0  0  0  0  0  0  0  0  0  0  0  0
  -20.8889  -21.2833   21.3846 C   0  0  0  0  0  0  0  0  0  0  0  0
  -26.3798  -17.0406   18.9908 C   0  0  0  0  0  0  0  0  0  0  0  0
  -22.2387  -20.9285   21.1986 C   0  0  0  0  0  0  0  0  0  0  0  0
  -26.8889  -16.1650   19.9605 C   0  0  0  0  0  0  0  0  0  0  0  0
  -32.0209  -16.7241   24.8699 C   0  0  0  0  0  0  0  0  0  0  0  0
  -21.3745  -29.8544   23.6760 C   0  0  0  0  0  0  0  0  0  0  0  0
  -29.1465  -16.8576   19.3828 C   0  0  0  0  0  0  0  0  0  0  0  0
  -19.0323  -29.8627   23.8667 C   0  0  0  0  0  0  0  0  0  0  0  0
  -16.5339  -29.3527   22.7352 C   0  0  0  0  0  0  0  0  0  0  0  0
  -18.7030  -28.5707   23.4567 C   0  0  0  0  0  0  0  0  0  0  0  0
  -24.8029  -29.0367   21.3360 C   0  0  0  0  0  0  0  0  0  0  0  0
  -30.6286  -19.0216   24.3915 C   0  0  0  0  0  0  0  0  0  0  0  0
  -32.0498  -17.3767   23.6480 C   0  0  0  0  0  0  0  0  0  0  0  0
  -26.7534  -29.1465   20.3268 C   0  0  0  0  0  0  0  0  0  0  0  0
  -26.2230  -31.1440   21.7330 C   0  0  0  0  0  0  0  0  0  0  0  0
  -24.0511  -17.7121   21.0475 C   0  0  0  0  0  0  0  0  0  0  0  0
  -27.1773  -23.2684   19.1524 C   0  0  0  0  0  0  0  0  0  0  0  0
  -23.6027  -14.5000   20.9886 C   0  0  0  0  0  0  0  0  0  0  0  0
  -24.9143  -11.4016   20.4173 C   0  0  0  0  0  0  0  0  0  0  0  0
  -19.9946  -20.5298   22.3370 C   0  0  0  0  0  0  0  0  0  0  0  0
  -24.8983  -17.1278   18.7460 C   0  0  0  0  0  0  0  0  0  0  0  0
  -25.9853  -15.3103   20.8099 C   0  0  0  0  0  0  0  0  0  0  0  0
  -20.5297  -19.1504   22.7127 C   0  0  0  0  0  0  0  0  0  0  0  0
  -26.6181  -25.9195   16.8074 C   0  0  0  0  0  0  0  0  0  0  0  0
  -22.0095  -19.2319   23.0734 C   0  0  0  0  0  0  0  0  0  0  0  0
  -26.1648  -27.0854   17.6851 C   0  0  0  0  0  0  0  0  0  0  0  0
  -26.1154  -24.5848   17.3486 C   0  0  0  0  0  0  0  0  0  0  0  0
  -26.0411  -25.4893   19.6503 C   0  0  0  0  0  0  0  0  0  0  0  0
  -22.8418  -19.7203   21.8816 C   0  0  1  0  0  0  0  0  0  0  0  0
  -24.0672  -16.6886   19.9476 C   0  0  1  0  0  0  0  0  0  0  0  0
  -26.5534  -26.8537   19.1561 C   0  0  2  0  0  0  0  0  0  0  0  0
  -32.7855  -15.4697   25.1159 C   0  0  0  0  0  0  0  0  0  0  0  0
  -24.3165   -8.9655   20.4897 C   0  0  0  0  0  0  0  0  0  0  0  0
  -23.8183  -14.5400   24.0319 C   0  0  0  0  0  0  0  0  0  0  0  0
  -24.1686  -12.0617   23.9701 C   0  0  0  0  0  0  0  0  0  0  0  0
  -22.0318  -13.0388   23.1323 C   0  0  0  0  0  0  0  0  0  0  0  0
  -25.4247  -11.0712   17.5209 C   0  0  0  0  0  0  0  0  0  0  0  0
  -29.8784  -20.2793   24.1045 C   0  0  0  0  0  0  0  0  0  0  0  0
  -32.8757  -16.8270   22.5125 C   0  0  0  0  0  0  0  0  0  0  0  0
  -27.5268  -23.1637   20.6155 C   0  0  0  0  0  0  0  0  0  0  0  0
  -29.4491  -20.4419   22.6354 C   0  0  0  0  0  0  0  0  0  0  0  0
  -32.2892  -17.1144   21.1287 C   0  0  0  0  0  0  0  0  0  0  0  0
  -28.2783  -21.8686   20.9074 C   0  0  0  0  0  0  0  0  0  0  0  0
  -28.6658  -21.7348   22.3840 C   0  0  0  0  0  0  0  0  0  0  0  0
  -30.9346  -16.4546   20.8982 C   0  0  0  0  0  0  0  0  0  1  0  0
  -24.1444  -13.3303   21.7744 C   0  0  1  0  0  0  0  0  0  0  0  0
  -24.3903  -10.2159   19.6274 C   0  0  2  0  0  0  0  0  0  0  0  0
  -23.5580  -13.2601   23.2127 C   0  0  0  0  0  0  0  0  0  0  0  0
  -24.8895  -27.8938   20.6502 N   0  0  0  0  0  0  0  0  0  0  0  0
  -31.3713  -18.5153   23.3817 N   0  0  0  0  0  0  0  0  0  0  0  0
  -26.0865  -27.9902   20.0469 N   0  0  0  0  0  0  0  0  0  0  0  0
  -24.5440  -15.4359   20.5370 N   0  0  0  0  0  0  0  0  0  0  0  0
  -26.4854  -24.4125   18.7545 N   0  0  0  0  0  0  0  0  0  0  0  0
  -27.9706  -29.4050   19.8033 N   0  0  0  0  0  0  0  0  0  0  0  0
  -25.2737  -31.7301   22.5813 N   0  0  0  0  0  0  0  0  0  0  0  0
  -23.0408  -18.6476   20.9307 N   0  0  0  0  0  0  0  0  0  0  0  0
  -23.8894  -12.1426   20.9665 N   0  0  0  0  0  0  0  0  0  0  0  0
  -25.2798   -9.9337   18.4655 N   0  3  0  0  0  0  0  0  0  0  0  0
  -27.2828  -31.7640   21.4764 O   0  0  0  0  0  0  0  0  0  0  0  0
  -24.8921  -17.6564   21.9371 O   0  0  0  0  0  0  0  0  0  0  0  0
  -27.5127  -22.3607   18.3869 O   0  0  0  0  0  0  0  0  0  0  0  0
  -22.3899  -14.5766   20.7769 O   0  0  0  0  0  0  0  0  0  0  0  0
  -26.1131  -11.6439   20.5385 O   0  0  0  0  0  0  0  0  0  0  0  0
  -20.2718  -30.1173   24.4294 O   0  0  0  0  0  0  0  0  0  0  0  0
  -30.4902  -16.7696   19.5792 O   0  0  0  0  0  0  0  0  0  1  0  0
  -15.3337  -29.1077   22.1933 F   0  0  0  0  0  0  0  0  0  0  0  0
  -19.5822  -27.5703   23.6049 F   0  0  0  0  0  0  0  0  0  0  0  0
  1  2  1  0  0  0  0
  1  5  2  0  0  0  0
  2  6  2  0  0  0  0
  3  9  2  0  0  0  0
  3 17  1  0  0  0  0
  4 10  1  0  0  0  0
  4 17  2  0  0  0  0
  5 19  1  0  0  0  0
  6 21  1  0  0  0  0
  7 11  2  0  0  0  0
  7 20  1  0  0  0  0
  8 14  2  0  0  0  0
  8 23  1  0  0  0  0
  9 24  1  0  0  0  0
 10 24  2  0  0  0  0
 11 25  1  0  0  0  0
 12 13  2  0  0  0  0
 12 26  1  0  0  0  0
 13 27  1  0  0  0  0
 14 30  1  0  0  0  0
 15 22  1  0  0  0  0
 15 25  2  0  0  0  0
 16 27  2  0  0  0  0
 16 28  1  0  0  0  0
 17 29  1  0  0  0  0
 18 29  1  0  0  0  0
 18 32  2  0  0  0  0
 18 33  1  0  0  0  0
 19 21  2  0  0  0  0
 19 38  1  0  0  0  0
 20 22  2  0  0  0  0
 20 39  1  0  0  0  0
 21 47  1  0  0  0  0
 22 40  1  0  0  0  0
 23 31  2  0  0  0  0
 23 50  1  0  0  0  0
 24 82  1  0  0  0  0
 25 83  1  0  0  0  0
 26 28  2  0  0  0  0
 26 82  1  0  0  0  0
 27 84  1  0  0  0  0
 28 85  1  0  0  0  0
 29 67  2  0  0  0  0
 30 56  1  0  0  0  0
 30 68  2  0  0  0  0
 31 57  1  0  0  0  0
 31 68  1  0  0  0  0
 32 69  1  0  0  0  0
 32 72  1  0  0  0  0
 33 73  1  0  0  0  0
 33 77  2  0  0  0  0
 34 48  1  0  0  0  0
 34 74  1  0  0  0  0
 34 78  2  0  0  0  0
 35 58  1  0  0  0  0
 35 71  1  0  0  0  0
 35 79  2  0  0  0  0
 36 64  1  0  0  0  0
 36 70  1  0  0  0  0
 36 80  2  0  0  0  0
 37 65  1  0  0  0  0
 37 75  1  0  0  0  0
 37 81  2  0  0  0  0
 38 41  1  0  0  0  0
 39 48  1  0  0  0  0
 40 70  1  0  0  0  0
 41 43  1  0  0  0  0
 42 44  1  0  0  0  0
 42 45  1  0  0  0  0
 43 47  1  0  0  0  0
 44 49  1  0  0  0  0
 45 71  1  0  0  0  0
 46 49  1  0  0  0  0
 46 71  1  0  0  0  0
 47 74  1  0  0  0  0
 48 70  1  0  0  0  0
 49 69  1  0  0  0  0
 51 65  1  0  0  0  0
 52 66  1  0  0  0  0
 53 66  1  0  0  0  0
 54 66  1  0  0  0  0
 55 76  1  0  0  0  0
 56 59  1  0  0  0  0
 57 60  1  0  0  0  0
 58 61  1  0  0  0  0
 59 62  1  0  0  0  0
 60 63  1  0  0  0  0
 61 62  1  0  0  0  0
 63 83  1  0  0  0  0
 64 66  1  0  0  0  0
 64 75  1  0  0  0  0
 65 76  1  0  0  0  0
 67 69  1  0  0  0  0
M  CHG  1  76   1
M  ISO  4  35 100  58 100  63 101  83 101
M  END
> <Batch ID>
0037

> <Smiles>
CNC(C)C(=O)NC(C(=O)N1Cc2cc([101O:1][101CH2:1]CCc3nc(CCCC[100CH2:0][100C:0](=O)N4CCCC(n5nc(-c6ccc(Oc7ccc(F)cc7F)cc6)c(C(N)=O)c5N)C4)ccc3C)ccc2CC1C(=O)NC1CCCc2ccccc21)C(C)(C)C

> <Shape>
0.223

> <Color>
0.075

> <Negative vol penalty>
0.000

$$$$
