
  -OEChem-04052317013D

 84 92  0     1  0  0  0  0  0999 V2000
  -19.4016  -34.3067   22.6674 C   0  0  0  0  0  0  0  0  0  0  0  0
  -19.6679  -33.3264   21.7169 C   0  0  0  0  0  0  0  0  0  0  0  0
  -26.1888  -13.0898   21.5156 C   0  0  0  0  0  0  0  0  0  0  0  0
  -25.8625  -13.7398   19.2117 C   0  0  0  0  0  0  0  0  0  0  0  0
  -20.4401  -35.0900   23.1692 C   0  0  0  0  0  0  0  0  0  0  0  0
  -20.9729  -33.1296   21.2667 C   0  0  0  0  0  0  0  0  0  0  0  0
  -22.2309  -28.2296   21.0382 C   0  0  0  0  0  0  0  0  0  0  0  0
  -24.9971  -12.3658   21.4801 C   0  0  0  0  0  0  0  0  0  0  0  0
  -24.6708  -13.0158   19.1762 C   0  0  0  0  0  0  0  0  0  0  0  0
  -21.7533  -27.4997   19.9506 C   0  0  0  0  0  0  0  0  0  0  0  0
  -22.2239  -10.0508   21.8869 C   0  0  0  0  0  0  0  0  0  0  0  0
  -22.2256   -8.7714   22.4426 C   0  0  0  0  0  0  0  0  0  0  0  0
  -23.8981  -27.7200   18.8686 C   0  0  0  0  0  0  0  0  0  0  0  0
  -24.5143  -23.0179   15.9439 C   0  0  0  0  0  0  0  0  0  0  0  0
  -23.9348   -8.0931   20.8755 C   0  0  0  0  0  0  0  0  0  0  0  0
  -24.0651  -22.5294   18.2278 C   0  0  0  0  0  0  0  0  0  0  0  0
  -26.6215  -13.7769   20.3814 C   0  0  0  0  0  0  0  0  0  0  0  0
  -29.1417  -14.0569   20.1025 C   0  0  0  0  0  0  0  0  0  0  0  0
  -21.7600  -34.8962   22.7320 C   0  0  0  0  0  0  0  0  0  0  0  0
  -23.5445  -28.7204   21.0444 C   0  0  0  0  0  0  0  0  0  0  0  0
  -22.0299  -33.9120   21.7620 C   0  0  0  0  0  0  0  0  0  0  0  0
  -24.3907  -28.4537   19.9586 C   0  0  0  0  0  0  0  0  0  0  0  0
  -24.9126  -22.4247   17.1367 C   0  0  0  0  0  0  0  0  0  0  0  0
  -23.2979  -23.6884   15.8796 C   0  0  0  0  0  0  0  0  0  0  0  0
  -24.2381  -12.3288   20.3104 C   0  0  0  0  0  0  0  0  0  0  0  0
  -22.5860  -27.2472   18.8643 C   0  0  0  0  0  0  0  0  0  0  0  0
  -23.0776  -10.3513   20.8254 C   0  0  0  0  0  0  0  0  0  0  0  0
  -23.0810   -7.7926   21.9369 C   0  0  0  0  0  0  0  0  0  0  0  0
  -23.9330   -9.3724   20.3198 C   0  0  0  0  0  0  0  0  0  0  0  0
  -27.8521  -14.5255   20.4176 C   0  0  0  0  0  0  0  0  0  0  0  0
  -22.5226  -23.7364   17.0270 C   0  0  0  0  0  0  0  0  0  0  0  0
  -29.9583  -15.1448   20.2929 C   0  0  0  0  0  0  0  0  0  0  0  0
  -29.5637  -12.7548   19.6759 C   0  0  0  0  0  0  0  0  0  0  0  0
  -24.8579  -31.6129   21.1542 C   0  0  0  0  0  0  0  0  0  0  0  0
  -27.6173  -29.9243   21.3921 C   0  0  0  0  0  0  0  0  0  0  0  0
  -29.2879  -27.0064   20.8075 C   0  0  0  0  0  0  0  0  0  0  0  0
  -28.9805  -21.0504   20.1574 C   0  0  0  0  0  0  0  0  0  0  0  0
  -22.8423  -35.7992   23.2684 C   0  0  0  0  0  0  0  0  0  0  0  0
  -24.0529  -29.4832   22.2369 C   0  0  0  0  0  0  0  0  0  0  0  0
  -25.8155  -28.9410   19.9252 C   0  0  0  0  0  0  0  0  0  0  0  0
  -24.2536  -35.2750   23.0158 C   0  0  0  0  0  0  0  0  0  0  0  0
  -30.3047  -19.1614   22.8693 C   0  0  0  0  0  0  0  0  0  0  0  0
  -24.3984  -34.8062   21.5715 C   0  0  0  0  0  0  0  0  0  0  0  0
  -29.9427  -17.7168   22.5201 C   0  0  0  0  0  0  0  0  0  0  0  0
  -29.2069  -20.1359   22.4484 C   0  0  0  0  0  0  0  0  0  0  0  0
  -28.4408  -18.5952   20.6840 C   0  0  0  0  0  0  0  0  0  0  0  0
  -23.4361  -33.6517   21.2671 C   0  0  1  0  0  0  0  0  0  0  0  0
  -25.2472  -30.3747   21.9111 C   0  0  1  0  0  0  0  0  0  0  0  0
  -29.5421  -17.5816   21.0387 C   0  0  2  0  0  0  0  0  0  0  0  0
  -21.8054  -23.5085   13.8729 C   0  0  0  0  0  0  0  0  0  0  0  0
  -31.5430  -25.9393   21.0783 C   0  0  0  0  0  0  0  0  0  0  0  0
  -28.6631  -31.5389   19.0237 C   0  0  0  0  0  0  0  0  0  0  0  0
  -30.4694  -29.8279   18.7443 C   0  0  0  0  0  0  0  0  0  0  0  0
  -30.3321  -31.1620   20.8477 C   0  0  0  0  0  0  0  0  0  0  0  0
  -28.2022  -24.8857   22.5633 C   0  0  0  0  0  0  0  0  0  0  0  0
  -26.2071  -21.6996   17.2381 C   0  0  0  0  0  0  0  0  0  0  0  0
  -22.8659  -24.3278   14.6053 C   0  0  0  0  0  0  0  0  0  0  0  0
  -21.1923  -24.4495   17.0164 C   0  0  0  0  0  0  0  0  0  0  0  0
  -27.4034  -22.5774   17.6624 C   0  0  0  0  0  0  0  0  0  0  0  0
  -28.7185  -21.8154   17.8111 C   0  0  0  0  0  0  0  0  0  0  0  0
  -21.1189  -25.5553   18.0637 C   0  0  0  0  0  0  0  0  0  1  0  0
  -28.6137  -29.3602   20.4083 C   0  0  1  0  0  0  0  0  0  0  0  0
  -30.1725  -26.1558   21.7010 C   0  0  2  0  0  0  0  0  0  0  0  0
  -29.4922  -30.4646   19.7555 C   0  0  0  0  0  0  0  0  0  0  0  0
  -22.8761  -23.1723   18.2036 N   0  0  0  0  0  0  0  0  0  0  0  0
  -27.8449  -15.8108   20.7807 N   0  0  0  0  0  0  0  0  0  0  0  0
  -29.1401  -16.1592   20.6951 N   0  0  0  0  0  0  0  0  0  0  0  0
  -26.2640  -29.6878   21.1120 N   0  0  0  0  0  0  0  0  0  0  0  0
  -28.8748  -19.9571   21.0329 N   0  0  0  0  0  0  0  0  0  0  0  0
  -31.2892  -15.3230   20.1540 N   0  0  0  0  0  0  0  0  0  0  0  0
  -28.5948  -11.7525   19.5311 N   0  0  0  0  0  0  0  0  0  0  0  0
  -23.9445  -32.4122   21.8146 N   0  0  0  0  0  0  0  0  0  0  0  0
  -29.3708  -28.3442   21.1313 N   0  0  0  0  0  0  0  0  0  0  0  0
  -28.6531  -20.7933   18.8317 N   0  0  0  0  0  0  0  0  0  0  0  0
  -29.5460  -24.8236   21.9330 N   0  3  0  0  0  0  0  0  0  0  0  0
  -30.7667  -12.4835   19.4461 O   0  0  0  0  0  0  0  0  0  0  0  0
  -25.3509  -31.8280   20.0531 O   0  0  0  0  0  0  0  0  0  0  0  0
  -28.0250  -30.5455   22.3768 O   0  0  0  0  0  0  0  0  0  0  0  0
  -28.5957  -26.5321   19.9095 O   0  0  0  0  0  0  0  0  0  0  0  0
  -29.3451  -22.1713   20.5286 O   0  0  0  0  0  0  0  0  0  0  0  0
  -23.0753  -11.6222   20.2754 O   0  0  0  0  0  0  0  0  0  0  0  0
  -22.1222  -26.5356   17.8012 O   0  0  0  0  0  0  0  0  0  1  0  0
  -23.0837   -6.5645   22.4716 F   0  0  0  0  0  0  0  0  0  0  0  0
  -24.7563   -9.6555   19.3010 F   0  0  0  0  0  0  0  0  0  0  0  0
  1  2  1  0  0  0  0
  1  5  2  0  0  0  0
  2  6  2  0  0  0  0
  3  8  2  0  0  0  0
  3 17  1  0  0  0  0
  4  9  1  0  0  0  0
  4 17  2  0  0  0  0
  5 19  1  0  0  0  0
  6 21  1  0  0  0  0
  7 10  2  0  0  0  0
  7 20  1  0  0  0  0
  8 25  1  0  0  0  0
  9 25  2  0  0  0  0
 10 26  1  0  0  0  0
 11 12  2  0  0  0  0
 11 27  1  0  0  0  0
 12 28  1  0  0  0  0
 13 22  1  0  0  0  0
 13 26  2  0  0  0  0
 14 23  2  0  0  0  0
 14 24  1  0  0  0  0
 15 28  2  0  0  0  0
 15 29  1  0  0  0  0
 16 23  1  0  0  0  0
 16 65  2  0  0  0  0
 17 30  1  0  0  0  0
 18 30  1  0  0  0  0
 18 32  2  0  0  0  0
 18 33  1  0  0  0  0
 19 21  2  0  0  0  0
 19 38  1  0  0  0  0
 20 22  2  0  0  0  0
 20 39  1  0  0  0  0
 21 47  1  0  0  0  0
 22 40  1  0  0  0  0
 23 56  1  0  0  0  0
 24 31  2  0  0  0  0
 24 57  1  0  0  0  0
 25 81  1  0  0  0  0
 26 82  1  0  0  0  0
 27 29  2  0  0  0  0
 27 81  1  0  0  0  0
 28 83  1  0  0  0  0
 29 84  1  0  0  0  0
 30 66  2  0  0  0  0
 31 58  1  0  0  0  0
 31 65  1  0  0  0  0
 32 67  1  0  0  0  0
 32 70  1  0  0  0  0
 33 71  1  0  0  0  0
 33 76  2  0  0  0  0
 34 48  1  0  0  0  0
 34 72  1  0  0  0  0
 34 77  2  0  0  0  0
 35 62  1  0  0  0  0
 35 68  1  0  0  0  0
 35 78  2  0  0  0  0
 36 63  1  0  0  0  0
 36 73  1  0  0  0  0
 36 79  2  0  0  0  0
 37 69  1  0  0  0  0
 37 74  1  0  0  0  0
 37 80  2  0  0  0  0
 38 41  1  0  0  0  0
 39 48  1  0  0  0  0
 40 68  1  0  0  0  0
 41 43  1  0  0  0  0
 42 44  1  0  0  0  0
 42 45  1  0  0  0  0
 43 47  1  0  0  0  0
 44 49  1  0  0  0  0
 45 69  1  0  0  0  0
 46 49  1  0  0  0  0
 46 69  1  0  0  0  0
 47 72  1  0  0  0  0
 48 68  1  0  0  0  0
 49 67  1  0  0  0  0
 50 57  1  0  0  0  0
 51 63  1  0  0  0  0
 52 64  1  0  0  0  0
 53 64  1  0  0  0  0
 54 64  1  0  0  0  0
 55 75  1  0  0  0  0
 56 59  1  0  0  0  0
 58 61  1  0  0  0  0
 59 60  1  0  0  0  0
 60 74  1  0  0  0  0
 61 82  1  0  0  0  0
 62 64  1  0  0  0  0
 62 73  1  0  0  0  0
 63 75  1  0  0  0  0
 66 67  1  0  0  0  0
M  CHG  1  75   1
M  ISO  4  37 100  61 101  74 100  82 101
M  END
> <Batch ID>
0038

> <Smiles>
CCc1cc(CCC[100NH:0][100C:0](=O)N2CCCC(n3nc(-c4ccc(Oc5ccc(F)cc5F)cc4)c(C(N)=O)c3N)C2)cnc1C[101CH2:1][101O:1]c1ccc2c(c1)CN(C(=O)C(NC(=O)C(C)NC)C(C)(C)C)C(C(=O)NC1CCCc3ccccc31)C2

> <Shape>
0.254

> <Color>
0.070

> <Negative vol penalty>
0.000

$$$$

  -OEChem-04052317013D

 86 94  0     1  0  0  0  0  0999 V2000
  -23.4698  -33.3490   25.0261 C   0  0  0  0  0  0  0  0  0  0  0  0
  -24.3012  -32.3372   24.5567 C   0  0  0  0  0  0  0  0  0  0  0  0
  -24.7721  -18.5940   19.6269 C   0  0  0  0  0  0  0  0  0  0  0  0
  -26.6642  -17.4102   18.7018 C   0  0  0  0  0  0  0  0  0  0  0  0
  -22.0982  -33.1262   25.1397 C   0  0  0  0  0  0  0  0  0  0  0  0
  -23.7615  -31.1014   24.2016 C   0  0  0  0  0  0  0  0  0  0  0  0
  -25.6109  -29.3606   19.8204 C   0  0  0  0  0  0  0  0  0  0  0  0
  -24.0861  -17.3877   19.7675 C   0  0  0  0  0  0  0  0  0  0  0  0
  -25.9782  -16.2039   18.8425 C   0  0  0  0  0  0  0  0  0  0  0  0
  -26.8823  -28.7892   19.8482 C   0  0  0  0  0  0  0  0  0  0  0  0
  -24.8640  -12.7725   19.2923 C   0  0  0  0  0  0  0  0  0  0  0  0
  -25.5609  -11.6875   19.8240 C   0  0  0  0  0  0  0  0  0  0  0  0
  -25.8875  -26.5917   19.8756 C   0  0  0  0  0  0  0  0  0  0  0  0
  -32.9388  -25.4576   19.9619 C   0  0  0  0  0  0  0  0  0  0  0  0
  -31.3828  -26.8247   18.7395 C   0  0  0  0  0  0  0  0  0  0  0  0
  -25.9553  -12.9359   21.8546 C   0  0  0  0  0  0  0  0  0  0  0  0
  -26.0611  -18.6053   19.0940 C   0  0  0  0  0  0  0  0  0  0  0  0
  -27.6154  -20.4640   19.8922 C   0  0  0  0  0  0  0  0  0  0  0  0
  -21.5401  -31.8903   24.7766 C   0  0  0  0  0  0  0  0  0  0  0  0
  -24.4662  -28.5507   19.8311 C   0  0  0  0  0  0  0  0  0  0  0  0
  -22.3813  -30.8614   24.3116 C   0  0  0  0  0  0  0  0  0  0  0  0
  -24.6028  -27.1552   19.8453 C   0  0  0  0  0  0  0  0  0  0  0  0
  -32.5511  -26.0718   18.7762 C   0  0  0  0  0  0  0  0  0  0  0  0
  -24.6891  -16.1926   19.3754 C   0  0  0  0  0  0  0  0  0  0  0  0
  -27.0208  -27.4047   19.8787 C   0  0  0  0  0  0  0  0  0  0  0  0
  -24.7129  -13.9393   20.0417 C   0  0  0  0  0  0  0  0  0  0  0  0
  -26.1065  -11.7692   21.1052 C   0  0  0  0  0  0  0  0  0  0  0  0
  -25.2585  -14.0209   21.3228 C   0  0  0  0  0  0  0  0  0  0  0  0
  -26.7701  -19.8512   18.9479 C   0  0  0  0  0  0  0  0  0  0  0  0
  -32.1297  -25.6257   21.0740 C   0  0  0  0  0  0  0  0  0  0  0  0
  -30.6432  -26.9314   19.9063 C   0  0  0  0  0  0  0  0  0  0  0  0
  -28.0376  -21.6174   19.2775 C   0  0  0  0  0  0  0  0  0  0  0  0
  -27.9859  -20.0294   21.2073 C   0  0  0  0  0  0  0  0  0  0  0  0
  -22.0048  -28.1717   21.8064 C   0  0  0  0  0  0  0  0  0  0  0  0
  -20.9130  -26.2298   19.4485 C   0  0  0  0  0  0  0  0  0  0  0  0
  -21.6282  -24.2468   16.7647 C   0  0  0  0  0  0  0  0  0  0  0  0
  -28.5871  -23.2097   13.5318 C   0  0  0  0  0  0  0  0  0  0  0  0
  -20.0580  -31.6807   24.9614 C   0  0  0  0  0  0  0  0  0  0  0  0
  -23.1021  -29.1820   19.7738 C   0  0  0  0  0  0  0  0  0  0  0  0
  -23.4058  -26.2411   19.8374 C   0  0  0  0  0  0  0  0  0  0  0  0
  -19.5161  -30.4674   24.2100 C   0  0  0  0  0  0  0  0  0  0  0  0
  -26.6584  -24.8523   16.0335 C   0  0  0  0  0  0  0  0  0  0  0  0
  -20.4175  -29.2567   24.4303 C   0  0  0  0  0  0  0  0  0  0  0  0
  -26.5446  -23.8122   17.1493 C   0  0  0  0  0  0  0  0  0  0  0  0
  -26.6139  -24.2045   14.6513 C   0  0  0  0  0  0  0  0  0  0  0  0
  -27.4815  -22.0834   15.5580 C   0  0  0  0  0  0  0  0  0  0  0  0
  -21.8302  -29.5156   23.8930 C   0  0  1  0  0  0  0  0  0  0  0  0
  -21.9998  -28.2721   20.3072 C   0  0  1  0  0  0  0  0  0  0  0  0
  -27.5777  -22.6834   16.9711 C   0  0  2  0  0  0  0  0  0  0  0  0
  -32.5154  -24.9824   22.3641 C   0  0  0  0  0  0  0  0  0  0  0  0
  -20.5316  -22.7614   15.0651 C   0  0  0  0  0  0  0  0  0  0  0  0
  -20.5942  -24.0517   21.5614 C   0  0  0  0  0  0  0  0  0  0  0  0
  -20.4245  -22.3764   19.7086 C   0  0  0  0  0  0  0  0  0  0  0  0
  -18.7200  -24.1865   19.9111 C   0  0  0  0  0  0  0  0  0  0  0  0
  -22.5590  -25.9342   14.5186 C   0  0  0  0  0  0  0  0  0  0  0  0
  -33.3857  -25.9245   17.5492 C   0  0  0  0  0  0  0  0  0  0  0  0
  -29.3759  -27.7346   19.9026 C   0  0  0  0  0  0  0  0  0  1  0  0
  -33.0136  -24.7157   16.6699 C   0  0  0  0  0  0  0  0  0  0  0  0
  -33.9387  -24.5596   15.4580 C   0  0  0  0  0  0  0  0  0  0  0  0
  -33.6212  -23.3252   14.6080 C   0  0  0  0  0  0  0  0  0  0  0  0
  -32.2277  -23.3658   13.9753 C   0  0  0  0  0  0  0  0  0  0  0  0
  -31.9530  -22.0968   13.1615 C   0  0  0  0  0  0  0  0  0  0  0  0
  -30.5657  -22.0987   12.5269 C   0  0  0  0  0  0  0  0  0  0  0  0
  -21.0518  -24.7625   19.1219 C   0  0  1  0  0  0  0  0  0  0  0  0
  -21.0152  -24.1688   15.3781 C   0  0  2  0  0  0  0  0  0  0  0  0
  -20.2204  -23.8613   20.0779 C   0  0  0  0  0  0  0  0  0  0  0  0
  -26.6604  -20.5570   17.8193 N   0  0  0  0  0  0  0  0  0  0  0  0
  -30.9879  -26.3494   21.0769 N   0  0  0  0  0  0  0  0  0  0  0  0
  -27.4424  -21.6252   18.0504 N   0  0  0  0  0  0  0  0  0  0  0  0
  -22.0933  -26.9064   19.7874 N   0  0  0  0  0  0  0  0  0  0  0  0
  -27.6189  -23.1438   14.5474 N   0  0  0  0  0  0  0  0  0  0  0  0
  -28.8561  -22.6156   19.6725 N   0  0  0  0  0  0  0  0  0  0  0  0
  -27.4615  -18.8203   21.6839 N   0  0  0  0  0  0  0  0  0  0  0  0
  -21.8548  -29.3842   22.4520 N   0  0  0  0  0  0  0  0  0  0  0  0
  -20.7004  -24.6230   17.7128 N   0  0  0  0  0  0  0  0  0  0  0  0
  -29.5060  -22.1677   13.5082 N   0  0  0  0  0  0  0  0  0  0  0  0
  -22.0161  -24.5621   14.3464 N   0  3  0  0  0  0  0  0  0  0  0  0
  -28.7462  -20.7018   21.9445 O   0  0  0  0  0  0  0  0  0  0  0  0
  -22.1336  -27.0751   22.3380 O   0  0  0  0  0  0  0  0  0  0  0  0
  -19.7994  -26.7579   19.3977 O   0  0  0  0  0  0  0  0  0  0  0  0
  -22.8108  -23.9953   16.9853 O   0  0  0  0  0  0  0  0  0  0  0  0
  -28.6326  -24.1318   12.7104 O   0  0  0  0  0  0  0  0  0  0  0  0
  -24.0201  -15.0153   19.5127 O   0  0  0  0  0  0  0  0  0  0  0  0
  -28.2606  -26.8444   19.9065 O   0  0  0  0  0  0  0  0  0  1  0  0
  -26.7744  -10.7266   21.6162 F   0  0  0  0  0  0  0  0  0  0  0  0
  -25.1155  -15.1388   22.0479 F   0  0  0  0  0  0  0  0  0  0  0  0
  1  2  1  0  0  0  0
  1  5  2  0  0  0  0
  2  6  2  0  0  0  0
  3  8  2  0  0  0  0
  3 17  1  0  0  0  0
  4  9  1  0  0  0  0
  4 17  2  0  0  0  0
  5 19  1  0  0  0  0
  6 21  1  0  0  0  0
  7 10  2  0  0  0  0
  7 20  1  0  0  0  0
  8 24  1  0  0  0  0
  9 24  2  0  0  0  0
 10 25  1  0  0  0  0
 11 12  2  0  0  0  0
 11 26  1  0  0  0  0
 12 27  1  0  0  0  0
 13 22  1  0  0  0  0
 13 25  2  0  0  0  0
 14 23  1  0  0  0  0
 14 30  2  0  0  0  0
 15 23  2  0  0  0  0
 15 31  1  0  0  0  0
 16 27  2  0  0  0  0
 16 28  1  0  0  0  0
 17 29  1  0  0  0  0
 18 29  1  0  0  0  0
 18 32  2  0  0  0  0
 18 33  1  0  0  0  0
 19 21  2  0  0  0  0
 19 38  1  0  0  0  0
 20 22  2  0  0  0  0
 20 39  1  0  0  0  0
 21 47  1  0  0  0  0
 22 40  1  0  0  0  0
 23 56  1  0  0  0  0
 24 83  1  0  0  0  0
 25 84  1  0  0  0  0
 26 28  2  0  0  0  0
 26 83  1  0  0  0  0
 27 85  1  0  0  0  0
 28 86  1  0  0  0  0
 29 67  2  0  0  0  0
 30 50  1  0  0  0  0
 30 68  1  0  0  0  0
 31 57  1  0  0  0  0
 31 68  2  0  0  0  0
 32 69  1  0  0  0  0
 32 72  1  0  0  0  0
 33 73  1  0  0  0  0
 33 78  2  0  0  0  0
 34 48  1  0  0  0  0
 34 74  1  0  0  0  0
 34 79  2  0  0  0  0
 35 64  1  0  0  0  0
 35 70  1  0  0  0  0
 35 80  2  0  0  0  0
 36 65  1  0  0  0  0
 36 75  1  0  0  0  0
 36 81  2  0  0  0  0
 37 71  1  0  0  0  0
 37 76  1  0  0  0  0
 37 82  2  0  0  0  0
 38 41  1  0  0  0  0
 39 48  1  0  0  0  0
 40 70  1  0  0  0  0
 41 43  1  0  0  0  0
 42 44  1  0  0  0  0
 42 45  1  0  0  0  0
 43 47  1  0  0  0  0
 44 49  1  0  0  0  0
 45 71  1  0  0  0  0
 46 49  1  0  0  0  0
 46 71  1  0  0  0  0
 47 74  1  0  0  0  0
 48 70  1  0  0  0  0
 49 69  1  0  0  0  0
 51 65  1  0  0  0  0
 52 66  1  0  0  0  0
 53 66  1  0  0  0  0
 54 66  1  0  0  0  0
 55 77  1  0  0  0  0
 56 58  1  0  0  0  0
 57 84  1  0  0  0  0
 58 59  1  0  0  0  0
 59 60  1  0  0  0  0
 60 61  1  0  0  0  0
 61 62  1  0  0  0  0
 62 63  1  0  0  0  0
 63 76  1  0  0  0  0
 64 66  1  0  0  0  0
 64 75  1  0  0  0  0
 65 77  1  0  0  0  0
 67 69  1  0  0  0  0
M  CHG  1  77   1
M  ISO  4  37 100  57 101  76 100  84 101
M  END
> <Batch ID>
0038

> <Smiles>
CNC(C)C(=O)NC(C(=O)N1Cc2cc([101O:1][101CH2:1]c3cc(CCCCCCC[100NH:0][100C:0](=O)N4CCCC(n5nc(-c6ccc(Oc7ccc(F)cc7F)cc6)c(C(N)=O)c5N)C4)cc(C)n3)ccc2CC1C(=O)NC1CCCc2ccccc21)C(C)(C)C

> <Shape>
0.175

> <Color>
0.077

> <Negative vol penalty>
0.000

$$$$

  -OEChem-04052317013D

 85 93  0     1  0  0  0  0  0999 V2000
  -17.6605  -27.0979   25.8392 C   0  0  0  0  0  0  0  0  0  0  0  0
  -18.2912  -25.8623   25.7350 C   0  0  0  0  0  0  0  0  0  0  0  0
  -23.2987  -15.1335   21.9950 C   0  0  0  0  0  0  0  0  0  0  0  0
  -24.2746  -13.9102   23.8357 C   0  0  0  0  0  0  0  0  0  0  0  0
  -17.8278  -28.0515   24.8359 C   0  0  0  0  0  0  0  0  0  0  0  0
  -19.0889  -25.5791   24.6269 C   0  0  0  0  0  0  0  0  0  0  0  0
  -24.9590  -21.9213   22.7618 C   0  0  0  0  0  0  0  0  0  0  0  0
  -22.0275  -14.9237   22.5295 C   0  0  0  0  0  0  0  0  0  0  0  0
  -23.0034  -13.7004   24.3702 C   0  0  0  0  0  0  0  0  0  0  0  0
  -25.3897  -20.9788   21.8290 C   0  0  0  0  0  0  0  0  0  0  0  0
  -19.9881  -12.5336   26.0305 C   0  0  0  0  0  0  0  0  0  0  0  0
  -19.6813  -11.2529   26.4901 C   0  0  0  0  0  0  0  0  0  0  0  0
  -25.6702  -22.7321   20.1961 C   0  0  0  0  0  0  0  0  0  0  0  0
  -27.9918  -19.2701   18.6599 C   0  0  0  0  0  0  0  0  0  0  0  0
  -20.0675  -10.3659   24.2762 C   0  0  0  0  0  0  0  0  0  0  0  0
  -24.4222  -14.6267   22.6480 C   0  0  0  0  0  0  0  0  0  0  0  0
  -26.5999  -15.9229   22.3560 C   0  0  0  0  0  0  0  0  0  0  0  0
  -18.6357  -27.7834   23.7196 C   0  0  0  0  0  0  0  0  0  0  0  0
  -24.8700  -23.2770   22.4147 C   0  0  0  0  0  0  0  0  0  0  0  0
  -19.2661  -26.5295   23.6071 C   0  0  0  0  0  0  0  0  0  0  0  0
  -25.2405  -23.6901   21.1270 C   0  0  0  0  0  0  0  0  0  0  0  0
  -29.3539  -19.0280   18.6304 C   0  0  0  0  0  0  0  0  0  0  0  0
  -21.8799  -14.2072   23.7171 C   0  0  0  0  0  0  0  0  0  0  0  0
  -25.7427  -21.3837   20.5451 C   0  0  0  0  0  0  0  0  0  0  0  0
  -20.3345  -12.7305   24.6937 C   0  0  0  0  0  0  0  0  0  0  0  0
  -19.7210  -10.1691   25.6130 C   0  0  0  0  0  0  0  0  0  0  0  0
  -20.3743  -11.6467   23.8166 C   0  0  0  0  0  0  0  0  0  0  0  0
  -25.7356  -14.8425   22.0961 C   0  0  0  0  0  0  0  0  0  0  0  0
  -30.1534  -19.7257   19.5132 C   0  0  0  0  0  0  0  0  0  0  0  0
  -27.5193  -20.1940   19.5702 C   0  0  0  0  0  0  0  0  0  1  0  0
  -27.7129  -15.6631   21.5944 C   0  0  0  0  0  0  0  0  0  0  0  0
  -26.4134  -17.0596   23.2097 C   0  0  0  0  0  0  0  0  0  0  0  0
  -22.5094  -25.3988   22.2448 C   0  0  0  0  0  0  0  0  0  0  0  0
  -24.9347  -27.4674   21.6437 C   0  0  0  0  0  0  0  0  0  0  0  0
  -28.1208  -27.9483   20.5194 C   0  0  0  0  0  0  0  0  0  0  0  0
  -31.5925  -12.1308   19.6924 C   0  0  0  0  0  0  0  0  0  0  0  0
  -18.7485  -28.8280   22.6376 C   0  0  0  0  0  0  0  0  0  0  0  0
  -24.4290  -24.2848   23.4406 C   0  0  0  0  0  0  0  0  0  0  0  0
  -25.1822  -25.1364   20.7107 C   0  0  0  0  0  0  0  0  0  0  0  0
  -19.9115  -28.5882   21.6783 C   0  0  0  0  0  0  0  0  0  0  0  0
  -28.4858  -12.2348   17.9563 C   0  0  0  0  0  0  0  0  0  0  0  0
  -19.9461  -27.1289   21.2355 C   0  0  0  0  0  0  0  0  0  0  0  0
  -27.5637  -13.0058   18.9024 C   0  0  0  0  0  0  0  0  0  0  0  0
  -29.4563  -11.3374   18.7210 C   0  0  0  0  0  0  0  0  0  0  0  0
  -29.3271  -12.7954   20.7037 C   0  0  0  0  0  0  0  0  0  0  0  0
  -20.1592  -26.1941   22.4323 C   0  0  1  0  0  0  0  0  0  0  0  0
  -23.8863  -25.5692   22.8215 C   0  0  1  0  0  0  0  0  0  0  0  0
  -28.3677  -13.7564   19.9810 C   0  0  2  0  0  0  0  0  0  0  0  0
  -29.9147  -18.0400   17.6669 C   0  0  0  0  0  0  0  0  0  0  0  0
  -29.8142  -29.7548   20.1115 C   0  0  0  0  0  0  0  0  0  0  0  0
  -23.4247  -28.3119   19.1304 C   0  0  0  0  0  0  0  0  0  0  0  0
  -25.5376  -29.3674   18.2999 C   0  0  0  0  0  0  0  0  0  0  0  0
  -24.4738  -30.1945   20.3992 C   0  0  0  0  0  0  0  0  0  0  0  0
  -30.0295  -26.7534   22.4399 C   0  0  0  0  0  0  0  0  0  0  0  0
  -31.6298  -19.5159   19.5395 C   0  0  0  0  0  0  0  0  0  0  0  0
  -32.0765  -18.2425   20.2821 C   0  0  0  0  0  0  0  0  0  0  0  0
  -33.6012  -18.1008   20.3475 C   0  0  0  0  0  0  0  0  0  0  0  0
  -34.0623  -16.8720   21.1379 C   0  0  0  0  0  0  0  0  0  0  0  0
  -33.6190  -15.5467   20.5130 C   0  0  0  0  0  0  0  0  0  0  0  0
  -34.0820  -14.3550   21.3579 C   0  0  0  0  0  0  0  0  0  0  0  0
  -33.6453  -13.0170   20.7694 C   0  0  0  0  0  0  0  0  0  0  0  0
  -25.6428  -27.9527   20.4019 C   0  0  1  0  0  0  0  0  0  0  0  0
  -29.2873  -28.7268   21.1006 C   0  0  2  0  0  0  0  0  0  0  0  0
  -24.7691  -28.9291   19.5648 C   0  0  0  0  0  0  0  0  0  0  0  0
  -26.2548  -13.9621   21.2363 N   0  0  0  0  0  0  0  0  0  0  0  0
  -29.6637  -20.6245   20.3933 N   0  0  0  0  0  0  0  0  0  0  0  0
  -28.3251  -20.8624   20.4223 N   0  0  0  0  0  0  0  0  0  0  0  0
  -27.4574  -14.4888   20.9494 N   0  0  0  0  0  0  0  0  0  0  0  0
  -24.7386  -26.0829   21.7474 N   0  0  0  0  0  0  0  0  0  0  0  0
  -30.1884  -12.1105   19.7271 N   0  0  0  0  0  0  0  0  0  0  0  0
  -28.8755  -16.3269   21.4201 N   0  0  0  0  0  0  0  0  0  0  0  0
  -25.2106  -17.1711   23.9206 N   0  0  0  0  0  0  0  0  0  0  0  0
  -21.5492  -26.1980   22.8354 N   0  0  0  0  0  0  0  0  0  0  0  0
  -26.9102  -28.5196   20.8500 N   0  0  0  0  0  0  0  0  0  0  0  0
  -32.2076  -12.8930   20.6781 N   0  0  0  0  0  0  0  0  0  0  0  0
  -30.4011  -27.8026   21.4560 N   0  3  0  0  0  0  0  0  0  0  0  0
  -27.2807  -17.9584   23.3258 O   0  0  0  0  0  0  0  0  0  0  0  0
  -22.3315  -24.6024   21.3306 O   0  0  0  0  0  0  0  0  0  0  0  0
  -24.5753  -28.2858   22.4938 O   0  0  0  0  0  0  0  0  0  0  0  0
  -28.2689  -26.9368   19.8371 O   0  0  0  0  0  0  0  0  0  0  0  0
  -32.2491  -11.5196   18.8426 O   0  0  0  0  0  0  0  0  0  0  0  0
  -20.6396  -14.0025   24.2391 O   0  0  0  0  0  0  0  0  0  0  0  0
  -26.1628  -20.4658   19.6325 O   0  0  0  0  0  0  0  0  0  1  0  0
  -19.4279   -8.9390   26.0548 F   0  0  0  0  0  0  0  0  0  0  0  0
  -20.7075  -11.8295   22.5315 F   0  0  0  0  0  0  0  0  0  0  0  0
  1  2  1  0  0  0  0
  1  5  2  0  0  0  0
  2  6  2  0  0  0  0
  3  8  2  0  0  0  0
  3 16  1  0  0  0  0
  4  9  1  0  0  0  0
  4 16  2  0  0  0  0
  5 18  1  0  0  0  0
  6 20  1  0  0  0  0
  7 10  2  0  0  0  0
  7 19  1  0  0  0  0
  8 23  1  0  0  0  0
  9 23  2  0  0  0  0
 10 24  1  0  0  0  0
 11 12  2  0  0  0  0
 11 25  1  0  0  0  0
 12 26  1  0  0  0  0
 13 21  1  0  0  0  0
 13 24  2  0  0  0  0
 14 22  2  0  0  0  0
 14 30  1  0  0  0  0
 15 26  2  0  0  0  0
 15 27  1  0  0  0  0
 16 28  1  0  0  0  0
 17 28  1  0  0  0  0
 17 31  2  0  0  0  0
 17 32  1  0  0  0  0
 18 20  2  0  0  0  0
 18 37  1  0  0  0  0
 19 21  2  0  0  0  0
 19 38  1  0  0  0  0
 20 46  1  0  0  0  0
 21 39  1  0  0  0  0
 22 29  1  0  0  0  0
 22 49  1  0  0  0  0
 23 82  1  0  0  0  0
 24 83  1  0  0  0  0
 25 27  2  0  0  0  0
 25 82  1  0  0  0  0
 26 84  1  0  0  0  0
 27 85  1  0  0  0  0
 28 65  2  0  0  0  0
 29 55  1  0  0  0  0
 29 66  2  0  0  0  0
 30 67  2  0  0  0  0
 30 83  1  0  0  0  0
 31 68  1  0  0  0  0
 31 71  1  0  0  0  0
 32 72  1  0  0  0  0
 32 77  2  0  0  0  0
 33 47  1  0  0  0  0
 33 73  1  0  0  0  0
 33 78  2  0  0  0  0
 34 62  1  0  0  0  0
 34 69  1  0  0  0  0
 34 79  2  0  0  0  0
 35 63  1  0  0  0  0
 35 74  1  0  0  0  0
 35 80  2  0  0  0  0
 36 70  1  0  0  0  0
 36 75  1  0  0  0  0
 36 81  2  0  0  0  0
 37 40  1  0  0  0  0
 38 47  1  0  0  0  0
 39 69  1  0  0  0  0
 40 42  1  0  0  0  0
 41 43  1  0  0  0  0
 41 44  1  0  0  0  0
 42 46  1  0  0  0  0
 43 48  1  0  0  0  0
 44 70  1  0  0  0  0
 45 48  1  0  0  0  0
 45 70  1  0  0  0  0
 46 73  1  0  0  0  0
 47 69  1  0  0  0  0
 48 68  1  0  0  0  0
 50 63  1  0  0  0  0
 51 64  1  0  0  0  0
 52 64  1  0  0  0  0
 53 64  1  0  0  0  0
 54 76  1  0  0  0  0
 55 56  1  0  0  0  0
 56 57  1  0  0  0  0
 57 58  1  0  0  0  0
 58 59  1  0  0  0  0
 59 60  1  0  0  0  0
 60 61  1  0  0  0  0
 61 75  1  0  0  0  0
 62 64  1  0  0  0  0
 62 74  1  0  0  0  0
 63 76  1  0  0  0  0
 65 68  1  0  0  0  0
 66 67  1  0  0  0  0
M  CHG  1  76   1
M  ISO  4  30 101  36 100  75 100  83 101
M  END
> <Batch ID>
0038

> <Smiles>
CNC(C)C(=O)NC(C(=O)N1Cc2cc([101O:1][101c:1]3cc(C)c(CCCCCCC[100NH:0][100C:0](=O)N4CCCC(n5nc(-c6ccc(Oc7ccc(F)cc7F)cc6)c(C(N)=O)c5N)C4)nn3)ccc2CC1C(=O)NC1CCCc2ccccc21)C(C)(C)C

> <Shape>
0.199

> <Color>
0.071

> <Negative vol penalty>
0.000

$$$$

  -OEChem-04052317013D

 83 91  0     1  0  0  0  0  0999 V2000
  -27.7063  -33.7289   23.4149 C   0  0  0  0  0  0  0  0  0  0  0  0
  -27.9287  -32.4127   23.8068 C   0  0  0  0  0  0  0  0  0  0  0  0
  -23.1479   -9.8410   21.0790 C   0  0  0  0  0  0  0  0  0  0  0  0
  -23.9084  -10.5356   23.2644 C   0  0  0  0  0  0  0  0  0  0  0  0
  -26.4358  -34.1264   23.0006 C   0  0  0  0  0  0  0  0  0  0  0  0
  -26.8804  -31.4934   23.7855 C   0  0  0  0  0  0  0  0  0  0  0  0
  -28.2325  -27.0513   21.7645 C   0  0  0  0  0  0  0  0  0  0  0  0
  -22.4446   -8.7854   21.6592 C   0  0  0  0  0  0  0  0  0  0  0  0
  -23.2051   -9.4800   23.8447 C   0  0  0  0  0  0  0  0  0  0  0  0
  -28.9680  -26.1829   22.5698 C   0  0  0  0  0  0  0  0  0  0  0  0
  -23.1319   -5.7134   22.8901 C   0  0  0  0  0  0  0  0  0  0  0  0
  -23.2339   -4.4593   22.2882 C   0  0  0  0  0  0  0  0  0  0  0  0
  -26.9599  -24.9344   23.0473 C   0  0  0  0  0  0  0  0  0  0  0  0
  -20.8449   -4.4375   21.9288 C   0  0  0  0  0  0  0  0  0  0  0  0
  -29.9290  -21.8971   21.5236 C   0  0  0  0  0  0  0  0  0  0  0  0
  -23.8798  -10.7161   21.8816 C   0  0  0  0  0  0  0  0  0  0  0  0
  -24.1338  -13.1087   21.0338 C   0  0  0  0  0  0  0  0  0  0  0  0
  -25.3736  -33.2092   22.9650 C   0  0  0  0  0  0  0  0  0  0  0  0
  -26.8509  -26.8739   21.6029 C   0  0  0  0  0  0  0  0  0  0  0  0
  -25.5942  -31.8794   23.3715 C   0  0  0  0  0  0  0  0  0  0  0  0
  -26.2096  -25.8004   22.2373 C   0  0  0  0  0  0  0  0  0  0  0  0
  -22.4732   -8.6049   23.0420 C   0  0  0  0  0  0  0  0  0  0  0  0
  -28.3313  -25.1260   23.2137 C   0  0  0  0  0  0  0  0  0  0  0  0
  -21.8864   -6.3296   23.0114 C   0  0  0  0  0  0  0  0  0  0  0  0
  -22.0905   -3.8213   21.8075 C   0  0  0  0  0  0  0  0  0  0  0  0
  -20.7429   -5.6916   22.5308 C   0  0  0  0  0  0  0  0  0  0  0  0
  -24.6070  -11.8064   21.2828 C   0  0  0  0  0  0  0  0  0  0  0  0
  -30.6656  -20.9938   22.2580 C   0  0  0  0  0  0  0  0  0  0  0  0
  -30.3353  -22.2529   24.1381 C   0  0  0  0  0  0  0  0  0  0  0  0
  -29.5989  -23.1563   23.4038 C   0  0  0  0  0  0  0  0  0  1  0  0
  -25.1991  -13.7569   20.4580 C   0  0  0  0  0  0  0  0  0  0  0  0
  -22.8464  -13.6813   21.2993 C   0  0  0  0  0  0  0  0  0  0  0  0
  -24.2729  -28.6068   22.2772 C   0  0  0  0  0  0  0  0  0  0  0  0
  -30.6675  -14.9327   20.3979 C   0  0  0  0  0  0  0  0  0  0  0  0
  -22.7389  -26.2306   20.6889 C   0  0  0  0  0  0  0  0  0  0  0  0
  -22.7292  -22.9832   19.6396 C   0  0  0  0  0  0  0  0  0  0  0  0
  -24.0067  -33.6970   22.5547 C   0  0  0  0  0  0  0  0  0  0  0  0
  -26.0764  -27.8036   20.7094 C   0  0  0  0  0  0  0  0  0  0  0  0
  -24.7320  -25.5545   22.0802 C   0  0  0  0  0  0  0  0  0  0  0  0
  -23.0379  -32.5706   22.2043 C   0  0  0  0  0  0  0  0  0  0  0  0
  -29.5816  -11.9768   18.6881 C   0  0  0  0  0  0  0  0  0  0  0  0
  -23.0905  -31.4728   23.2622 C   0  0  0  0  0  0  0  0  0  0  0  0
  -28.1631  -11.7590   19.2131 C   0  0  0  0  0  0  0  0  0  0  0  0
  -30.4952  -12.5477   19.7681 C   0  0  0  0  0  0  0  0  0  0  0  0
  -28.5683  -13.5923   20.9160 C   0  0  0  0  0  0  0  0  0  0  0  0
  -24.4883  -30.8469   23.3386 C   0  0  1  0  0  0  0  0  0  0  0  0
  -24.5846  -27.8332   21.0275 C   0  0  1  0  0  0  0  0  0  0  0  0
  -27.6051  -13.0452   19.8477 C   0  0  2  0  0  0  0  0  0  0  0  0
  -32.0564  -22.6161   25.9435 C   0  0  0  0  0  0  0  0  0  0  0  0
  -29.9570  -21.3145   26.4469 C   0  0  0  0  0  0  0  0  0  0  0  0
  -21.3222  -21.3195   18.3948 C   0  0  0  0  0  0  0  0  0  0  0  0
  -20.9343  -25.9332   23.1312 C   0  0  0  0  0  0  0  0  0  0  0  0
  -20.2158  -23.7057   22.2424 C   0  0  0  0  0  0  0  0  0  0  0  0
  -19.7500  -25.7778   20.9340 C   0  0  0  0  0  0  0  0  0  0  0  0
  -24.7974  -22.6201   17.5540 C   0  0  0  0  0  0  0  0  0  0  0  0
  -31.2549  -19.7921   21.6058 C   0  0  0  0  0  0  0  0  0  0  0  0
  -30.0058  -16.1359   21.0212 C   0  0  0  0  0  0  0  0  0  0  0  0
  -30.3019  -18.5856   21.6339 C   0  0  0  0  0  0  0  0  0  0  0  0
  -30.9340  -17.3461   20.9931 C   0  0  0  0  0  0  0  0  0  0  0  0
  -30.5643  -22.4478   25.5978 C   0  0  0  0  0  0  0  0  0  0  0  0
  -22.1202  -24.9100   21.0788 C   0  0  1  0  0  0  0  0  0  0  0  0
  -22.4241  -22.3622   18.2884 C   0  0  2  0  0  0  0  0  0  0  0  0
  -20.7826  -25.0872   21.8513 C   0  0  0  0  0  0  0  0  0  0  0  0
  -29.3823  -22.9946   22.0834 N   0  0  0  0  0  0  0  0  0  0  0  0
  -25.8742  -11.6357   20.8967 N   0  0  0  0  0  0  0  0  0  0  0  0
  -30.8819  -21.1554   23.5784 N   0  0  0  0  0  0  0  0  0  0  0  0
  -26.2063  -12.8391   20.3991 N   0  0  0  0  0  0  0  0  0  0  0  0
  -24.0170  -26.4946   21.2012 N   0  0  0  0  0  0  0  0  0  0  0  0
  -29.9194  -13.7558   20.3617 N   0  0  0  0  0  0  0  0  0  0  0  0
  -25.3631  -15.0166   20.0013 N   0  0  0  0  0  0  0  0  0  0  0  0
  -21.8668  -12.8754   21.8954 N   0  0  0  0  0  0  0  0  0  0  0  0
  -24.6894  -29.9239   22.2422 N   0  0  0  0  0  0  0  0  0  0  0  0
  -22.0014  -24.1357   19.8480 N   0  0  0  0  0  0  0  0  0  0  0  0
  -23.6411  -21.7049   17.7337 N   0  3  0  0  0  0  0  0  0  0  0  0
  -22.5676  -14.8674   21.0012 O   0  0  0  0  0  0  0  0  0  0  0  0
  -23.6958  -28.0504   23.2041 O   0  0  0  0  0  0  0  0  0  0  0  0
  -31.8139  -15.0384   19.9542 O   0  0  0  0  0  0  0  0  0  0  0  0
  -22.1141  -26.9967   19.9510 O   0  0  0  0  0  0  0  0  0  0  0  0
  -23.5301  -22.4929   20.4324 O   0  0  0  0  0  0  0  0  0  0  0  0
  -21.7869   -7.5751   23.6086 O   0  0  0  0  0  0  0  0  0  0  0  0
  -29.0468  -24.2773   24.0009 O   0  0  0  0  0  0  0  0  0  1  0  0
  -22.1888   -2.6176   21.2281 F   0  0  0  0  0  0  0  0  0  0  0  0
  -19.5437   -6.2791   22.6434 F   0  0  0  0  0  0  0  0  0  0  0  0
  1  2  1  0  0  0  0
  1  5  2  0  0  0  0
  2  6  2  0  0  0  0
  3  8  2  0  0  0  0
  3 16  1  0  0  0  0
  4  9  1  0  0  0  0
  4 16  2  0  0  0  0
  5 18  1  0  0  0  0
  6 20  1  0  0  0  0
  7 10  2  0  0  0  0
  7 19  1  0  0  0  0
  8 22  1  0  0  0  0
  9 22  2  0  0  0  0
 10 23  1  0  0  0  0
 11 12  2  0  0  0  0
 11 24  1  0  0  0  0
 12 25  1  0  0  0  0
 13 21  1  0  0  0  0
 13 23  2  0  0  0  0
 14 25  2  0  0  0  0
 14 26  1  0  0  0  0
 15 28  1  0  0  0  0
 15 64  2  0  0  0  0
 16 27  1  0  0  0  0
 17 27  1  0  0  0  0
 17 31  2  0  0  0  0
 17 32  1  0  0  0  0
 18 20  2  0  0  0  0
 18 37  1  0  0  0  0
 19 21  2  0  0  0  0
 19 38  1  0  0  0  0
 20 46  1  0  0  0  0
 21 39  1  0  0  0  0
 22 80  1  0  0  0  0
 23 81  1  0  0  0  0
 24 26  2  0  0  0  0
 24 80  1  0  0  0  0
 25 82  1  0  0  0  0
 26 83  1  0  0  0  0
 27 65  2  0  0  0  0
 28 56  1  0  0  0  0
 28 66  2  0  0  0  0
 29 30  2  0  0  0  0
 29 60  1  0  0  0  0
 29 66  1  0  0  0  0
 30 64  1  0  0  0  0
 30 81  1  0  0  0  0
 31 67  1  0  0  0  0
 31 70  1  0  0  0  0
 32 71  1  0  0  0  0
 32 75  2  0  0  0  0
 33 47  1  0  0  0  0
 33 72  1  0  0  0  0
 33 76  2  0  0  0  0
 34 57  1  0  0  0  0
 34 69  1  0  0  0  0
 34 77  2  0  0  0  0
 35 61  1  0  0  0  0
 35 68  1  0  0  0  0
 35 78  2  0  0  0  0
 36 62  1  0  0  0  0
 36 73  1  0  0  0  0
 36 79  2  0  0  0  0
 37 40  1  0  0  0  0
 38 47  1  0  0  0  0
 39 68  1  0  0  0  0
 40 42  1  0  0  0  0
 41 43  1  0  0  0  0
 41 44  1  0  0  0  0
 42 46  1  0  0  0  0
 43 48  1  0  0  0  0
 44 69  1  0  0  0  0
 45 48  1  0  0  0  0
 45 69  1  0  0  0  0
 46 72  1  0  0  0  0
 47 68  1  0  0  0  0
 48 67  1  0  0  0  0
 49 60  1  0  0  0  0
 50 60  1  0  0  0  0
 51 62  1  0  0  0  0
 52 63  1  0  0  0  0
 53 63  1  0  0  0  0
 54 63  1  0  0  0  0
 55 74  1  0  0  0  0
 56 58  1  0  0  0  0
 57 59  1  0  0  0  0
 58 59  1  0  0  0  0
 61 63  1  0  0  0  0
 61 73  1  0  0  0  0
 62 74  1  0  0  0  0
 65 67  1  0  0  0  0
M  CHG  1  74   1
M  ISO  4  30 101  34 100  57 100  81 101
M  END
> <Batch ID>
0038

> <Smiles>
CNC(C)C(=O)NC(C(=O)N1Cc2cc([101O:1][101c:1]3ncc(CCC[100CH2:0][100C:0](=O)N4CCCC(n5nc(-c6ccc(Oc7ccc(F)cc7F)cc6)c(C(N)=O)c5N)C4)nc3C(C)C)ccc2CC1C(=O)NC1CCCc2ccccc21)C(C)(C)C

> <Shape>
0.258

> <Color>
0.162

> <Negative vol penalty>
0.000

$$$$

  -OEChem-04052317013D

 88 96  0     1  0  0  0  0  0999 V2000
  -21.8810   -9.2424   20.8194 C   0  0  0  0  0  0  0  0  0  0  0  0
  -22.3275  -10.5439   20.6139 C   0  0  0  0  0  0  0  0  0  0  0  0
  -18.2537  -28.8952   24.6879 C   0  0  0  0  0  0  0  0  0  0  0  0
  -19.0113  -28.9306   22.3940 C   0  0  0  0  0  0  0  0  0  0  0  0
  -22.7026   -8.3183   21.4635 C   0  0  0  0  0  0  0  0  0  0  0  0
  -23.5956  -10.9223   21.0534 C   0  0  0  0  0  0  0  0  0  0  0  0
  -27.3960  -14.8918   18.3504 C   0  0  0  0  0  0  0  0  0  0  0  0
  -16.9504  -29.1500   24.2614 C   0  0  0  0  0  0  0  0  0  0  0  0
  -17.7079  -29.1853   21.9675 C   0  0  0  0  0  0  0  0  0  0  0  0
  -27.6680  -16.2388   18.5857 C   0  0  0  0  0  0  0  0  0  0  0  0
  -14.3844  -27.4074   22.9153 C   0  0  0  0  0  0  0  0  0  0  0  0
  -13.3576  -26.6530   23.4828 C   0  0  0  0  0  0  0  0  0  0  0  0
  -29.5700  -15.6135   19.9314 C   0  0  0  0  0  0  0  0  0  0  0  0
  -12.3335  -28.6755   24.3182 C   0  0  0  0  0  0  0  0  0  0  0  0
  -19.2842  -28.7855   23.7542 C   0  0  0  0  0  0  0  0  0  0  0  0
  -21.2362  -27.2648   24.3744 C   0  0  0  0  0  0  0  0  0  0  0  0
  -23.9852   -8.6829   21.9025 C   0  0  0  0  0  0  0  0  0  0  0  0
  -28.2040  -13.8936   18.9137 C   0  0  0  0  0  0  0  0  0  0  0  0
  -24.4347  -10.0026   21.7051 C   0  0  0  0  0  0  0  0  0  0  0  0
  -29.3077  -14.2547   19.6996 C   0  0  0  0  0  0  0  0  0  0  0  0
  -16.6774  -29.2950   22.9012 C   0  0  0  0  0  0  0  0  0  0  0  0
  -28.7533  -16.5998   19.3787 C   0  0  0  0  0  0  0  0  0  0  0  0
  -14.3859  -28.7958   23.0493 C   0  0  0  0  0  0  0  0  0  0  0  0
  -12.3321  -27.2870   24.1842 C   0  0  0  0  0  0  0  0  0  0  0  0
  -13.3604  -29.4298   23.7507 C   0  0  0  0  0  0  0  0  0  0  0  0
  -20.6309  -28.5229   24.1941 C   0  0  0  0  0  0  0  0  0  0  0  0
  -30.2855  -21.5987   20.1598 C   0  0  0  0  0  0  0  0  0  0  0  0
  -27.8168  -21.3534   19.1733 C   0  0  0  0  0  0  0  0  0  0  0  0
  -29.4806  -22.7014   19.9759 C   0  0  0  0  0  0  0  0  0  0  0  0
  -28.6218  -20.2507   19.3565 C   0  0  0  0  0  0  0  0  0  0  0  0
  -22.5100  -27.5543   24.7987 C   0  0  0  0  0  0  0  0  0  0  0  0
  -20.6954  -25.9518   24.1761 C   0  0  0  0  0  0  0  0  0  0  0  0
  -27.7250  -11.5107   20.9622 C   0  0  0  0  0  0  0  0  0  0  0  0
  -30.7920  -10.7672   20.2119 C   0  0  0  0  0  0  0  0  0  0  0  0
  -33.8291  -11.8159   19.0615 C   0  0  0  0  0  0  0  0  0  0  0  0
  -26.0563  -32.3271   24.0947 C   0  0  0  0  0  0  0  0  0  0  0  0
  -24.8188   -7.6623   22.6359 C   0  0  0  0  0  0  0  0  0  0  0  0
  -27.9130  -12.4457   18.6284 C   0  0  0  0  0  0  0  0  0  0  0  0
  -30.2178  -13.2219   20.3108 C   0  0  0  0  0  0  0  0  0  0  0  0
  -26.2944   -8.0401   22.7370 C   0  0  0  0  0  0  0  0  0  0  0  0
  -25.0016  -30.8788   27.1715 C   0  0  0  0  0  0  0  0  0  0  0  0
  -26.4445   -9.4948   23.1709 C   0  0  0  0  0  0  0  0  0  0  0  0
  -23.8165  -29.9973   26.7736 C   0  0  0  0  0  0  0  0  0  0  0  0
  -25.0477  -32.1662   26.3515 C   0  0  0  0  0  0  0  0  0  0  0  0
  -23.8413  -31.0891   24.4919 C   0  0  0  0  0  0  0  0  0  0  0  0
  -25.8135  -10.4443   22.1453 C   0  0  1  0  0  0  0  0  0  0  0  0
  -28.4983  -11.5014   19.6739 C   0  0  1  0  0  0  0  0  0  0  0  0
  -23.7847  -29.7534   25.2528 C   0  0  2  0  0  0  0  0  0  0  0  0
  -31.6646  -21.7260   20.7105 C   0  0  0  0  0  0  0  0  0  0  0  0
  -26.4376  -21.2265   18.6230 C   0  0  0  0  0  0  0  0  0  0  0  0
  -36.1519  -10.9884   18.5955 C   0  0  0  0  0  0  0  0  0  0  0  0
  -31.3971  -10.7891   23.2024 C   0  0  0  0  0  0  0  0  0  0  0  0
  -33.8334  -10.9082   22.6378 C   0  0  0  0  0  0  0  0  0  0  0  0
  -32.4863   -8.9311   21.9313 C   0  0  0  0  0  0  0  0  0  0  0  0
  -33.6130  -12.4785   16.1852 C   0  0  0  0  0  0  0  0  0  0  0  0
  -29.9519  -24.0734   20.3187 C   0  0  0  0  0  0  0  0  0  0  0  0
  -28.1479  -18.8699   19.0100 C   0  0  0  0  0  0  0  0  0  1  0  0
  -28.8381  -25.1359   20.3675 C   0  0  0  0  0  0  0  0  0  0  0  0
  -29.3667  -26.5348   20.7030 C   0  0  0  0  0  0  0  0  0  0  0  0
  -28.2351  -27.5658   20.7111 C   0  0  0  0  0  0  0  0  0  0  0  0
  -28.6952  -28.9710   21.1104 C   0  0  0  0  0  0  0  0  0  0  0  0
  -27.5522  -29.9867   21.1897 C   0  0  0  0  0  0  0  0  0  0  0  0
  -28.0662  -31.3640   21.6227 C   0  0  0  0  0  0  0  0  0  0  0  0
  -26.9478  -32.3901   21.7794 C   0  0  0  0  0  0  0  0  0  0  0  0
  -32.1479  -11.1448   20.7578 C   0  0  1  0  0  0  0  0  0  0  0  0
  -34.7666  -11.2347   18.0185 C   0  0  2  0  0  0  0  0  0  0  0  0
  -32.4481  -10.4630   22.1225 C   0  0  0  0  0  0  0  0  0  0  0  0
  -21.4526  -29.5362   24.4806 N   0  0  0  0  0  0  0  0  0  0  0  0
  -28.2318  -22.5986   19.4797 N   0  0  0  0  0  0  0  0  0  0  0  0
  -29.8706  -20.3536   19.8531 N   0  0  0  0  0  0  0  0  0  0  0  0
  -22.5872  -28.9152   24.8452 N   0  0  0  0  0  0  0  0  0  0  0  0
  -29.8881  -11.8194   20.0079 N   0  0  0  0  0  0  0  0  0  0  0  0
  -25.0164  -31.8651   24.9182 N   0  0  0  0  0  0  0  0  0  0  0  0
  -23.5605  -26.7749   25.1328 N   0  0  0  0  0  0  0  0  0  0  0  0
  -19.3695  -25.8347   23.7372 N   0  0  0  0  0  0  0  0  0  0  0  0
  -26.6844  -10.6024   21.0003 N   0  0  0  0  0  0  0  0  0  0  0  0
  -33.1120  -10.8318   19.7086 N   0  0  0  0  0  0  0  0  0  0  0  0
  -25.9526  -31.9923   22.7501 N   0  0  0  0  0  0  0  0  0  0  0  0
  -34.8977  -12.1668   16.8631 N   0  3  0  0  0  0  0  0  0  0  0  0
  -21.3627  -24.9131   24.3976 O   0  0  0  0  0  0  0  0  0  0  0  0
  -28.0495  -12.2836   21.8560 O   0  0  0  0  0  0  0  0  0  0  0  0
  -30.5465   -9.5831   19.9684 O   0  0  0  0  0  0  0  0  0  0  0  0
  -33.7442  -13.0218   19.2828 O   0  0  0  0  0  0  0  0  0  0  0  0
  -27.0095  -32.9842   24.5266 O   0  0  0  0  0  0  0  0  0  0  0  0
  -15.4056  -29.5434   22.4847 O   0  0  0  0  0  0  0  0  0  0  0  0
  -29.0206  -17.9138   19.6105 O   0  0  0  0  0  0  0  0  0  1  0  0
  -11.3452  -26.5626   24.7278 F   0  0  0  0  0  0  0  0  0  0  0  0
  -13.3557  -30.7635   23.8818 F   0  0  0  0  0  0  0  0  0  0  0  0
  1  2  1  0  0  0  0
  1  5  2  0  0  0  0
  2  6  2  0  0  0  0
  3  8  2  0  0  0  0
  3 15  1  0  0  0  0
  4  9  1  0  0  0  0
  4 15  2  0  0  0  0
  5 17  1  0  0  0  0
  6 19  1  0  0  0  0
  7 10  2  0  0  0  0
  7 18  1  0  0  0  0
  8 21  1  0  0  0  0
  9 21  2  0  0  0  0
 10 22  1  0  0  0  0
 11 12  2  0  0  0  0
 11 23  1  0  0  0  0
 12 24  1  0  0  0  0
 13 20  1  0  0  0  0
 13 22  2  0  0  0  0
 14 24  2  0  0  0  0
 14 25  1  0  0  0  0
 15 26  1  0  0  0  0
 16 26  1  0  0  0  0
 16 31  2  0  0  0  0
 16 32  1  0  0  0  0
 17 19  2  0  0  0  0
 17 37  1  0  0  0  0
 18 20  2  0  0  0  0
 18 38  1  0  0  0  0
 19 46  1  0  0  0  0
 20 39  1  0  0  0  0
 21 85  1  0  0  0  0
 22 86  1  0  0  0  0
 23 25  2  0  0  0  0
 23 85  1  0  0  0  0
 24 87  1  0  0  0  0
 25 88  1  0  0  0  0
 26 68  2  0  0  0  0
 27 29  1  0  0  0  0
 27 49  1  0  0  0  0
 27 70  2  0  0  0  0
 28 30  2  0  0  0  0
 28 50  1  0  0  0  0
 28 69  1  0  0  0  0
 29 56  1  0  0  0  0
 29 69  2  0  0  0  0
 30 57  1  0  0  0  0
 30 70  1  0  0  0  0
 31 71  1  0  0  0  0
 31 74  1  0  0  0  0
 32 75  1  0  0  0  0
 32 80  2  0  0  0  0
 33 47  1  0  0  0  0
 33 76  1  0  0  0  0
 33 81  2  0  0  0  0
 34 65  1  0  0  0  0
 34 72  1  0  0  0  0
 34 82  2  0  0  0  0
 35 66  1  0  0  0  0
 35 77  1  0  0  0  0
 35 83  2  0  0  0  0
 36 73  1  0  0  0  0
 36 78  1  0  0  0  0
 36 84  2  0  0  0  0
 37 40  1  0  0  0  0
 38 47  1  0  0  0  0
 39 72  1  0  0  0  0
 40 42  1  0  0  0  0
 41 43  1  0  0  0  0
 41 44  1  0  0  0  0
 42 46  1  0  0  0  0
 43 48  1  0  0  0  0
 44 73  1  0  0  0  0
 45 48  1  0  0  0  0
 45 73  1  0  0  0  0
 46 76  1  0  0  0  0
 47 72  1  0  0  0  0
 48 71  1  0  0  0  0
 51 66  1  0  0  0  0
 52 67  1  0  0  0  0
 53 67  1  0  0  0  0
 54 67  1  0  0  0  0
 55 79  1  0  0  0  0
 56 58  1  0  0  0  0
 57 86  1  0  0  0  0
 58 59  1  0  0  0  0
 59 60  1  0  0  0  0
 60 61  1  0  0  0  0
 61 62  1  0  0  0  0
 62 63  1  0  0  0  0
 63 64  1  0  0  0  0
 64 78  1  0  0  0  0
 65 67  1  0  0  0  0
 65 77  1  0  0  0  0
 66 79  1  0  0  0  0
 68 71  1  0  0  0  0
M  CHG  1  79   1
M  ISO  4  36 100  57 101  78 100  86 101
M  END
> <Batch ID>
0038

> <Smiles>
CNC(C)C(=O)NC(C(=O)N1Cc2cc([101O:1][101CH2:1]c3nc(C)c(CCCCCCCC[100NH:0][100C:0](=O)N4CCCC(n5nc(-c6ccc(Oc7ccc(F)cc7F)cc6)c(C(N)=O)c5N)C4)nc3C)ccc2CC1C(=O)NC1CCCc2ccccc21)C(C)(C)C

> <Shape>
0.274

> <Color>
0.076

> <Negative vol penalty>
0.000

$$$$

  -OEChem-04052317013D

 82 90  0     1  0  0  0  0  0999 V2000
  -29.4794  -22.6622   18.6017 C   0  0  0  0  0  0  0  0  0  0  0  0
  -28.1947  -22.9790   19.0312 C   0  0  0  0  0  0  0  0  0  0  0  0
  -27.4835  -16.0270   19.1460 C   0  0  0  0  0  0  0  0  0  0  0  0
  -26.7101  -17.8434   20.5388 C   0  0  0  0  0  0  0  0  0  0  0  0
  -30.5828  -23.2680   19.2013 C   0  0  0  0  0  0  0  0  0  0  0  0
  -28.0126  -23.9011   20.0612 C   0  0  0  0  0  0  0  0  0  0  0  0
  -24.3304  -27.2304   19.0600 C   0  0  0  0  0  0  0  0  0  0  0  0
  -28.7718  -16.5613   19.1646 C   0  0  0  0  0  0  0  0  0  0  0  0
  -27.9985  -18.3777   20.5574 C   0  0  0  0  0  0  0  0  0  0  0  0
  -23.0163  -26.7956   19.2267 C   0  0  0  0  0  0  0  0  0  0  0  0
  -31.1604  -20.0248   21.2694 C   0  0  0  0  0  0  0  0  0  0  0  0
  -31.6642  -20.4624   22.4942 C   0  0  0  0  0  0  0  0  0  0  0  0
  -22.9281  -27.9025   21.3682 C   0  0  0  0  0  0  0  0  0  0  0  0
  -19.8410  -23.8103   19.9942 C   0  0  0  0  0  0  0  0  0  0  0  0
  -31.4187  -18.2327   23.3917 C   0  0  0  0  0  0  0  0  0  0  0  0
  -20.4863  -23.1392   22.1717 C   0  0  0  0  0  0  0  0  0  0  0  0
  -26.4526  -16.6681   19.8331 C   0  0  0  0  0  0  0  0  0  0  0  0
  -24.5723  -15.1892   20.7191 C   0  0  0  0  0  0  0  0  0  0  0  0
  -30.4138  -24.2052   20.2327 C   0  0  0  0  0  0  0  0  0  0  0  0
  -24.9580  -27.9967   20.0527 C   0  0  0  0  0  0  0  0  0  0  0  0
  -29.1148  -24.5190   20.6761 C   0  0  0  0  0  0  0  0  0  0  0  0
  -24.2494  -28.3480   21.2106 C   0  0  0  0  0  0  0  0  0  0  0  0
  -19.9459  -24.1017   21.3429 C   0  0  0  0  0  0  0  0  0  0  0  0
  -29.0293  -17.7366   19.8703 C   0  0  0  0  0  0  0  0  0  0  0  0
  -22.3159  -27.1292   20.3822 C   0  0  0  0  0  0  0  0  0  0  0  0
  -30.7857  -18.6912   21.1057 C   0  0  0  0  0  0  0  0  0  0  0  0
  -31.7934  -19.5664   23.5554 C   0  0  0  0  0  0  0  0  0  0  0  0
  -30.9148  -17.7952   22.1668 C   0  0  0  0  0  0  0  0  0  0  0  0
  -25.1215  -16.1169   19.8138 C   0  0  0  0  0  0  0  0  0  0  0  0
  -20.2839  -22.5758   19.5635 C   0  0  0  0  0  0  0  0  0  0  0  0
  -23.2900  -14.9888   20.2698 C   0  0  0  0  0  0  0  0  0  0  0  0
  -25.1681  -14.5645   21.8639 C   0  0  0  0  0  0  0  0  0  0  0  0
  -27.5004  -27.6014   21.9192 C   0  0  0  0  0  0  0  0  0  0  0  0
  -26.8587  -30.6623   22.7803 C   0  0  0  0  0  0  0  0  0  0  0  0
  -24.5651  -33.1743   23.0557 C   0  0  0  0  0  0  0  0  0  0  0  0
  -19.5362  -18.3397   17.0246 C   0  0  0  0  0  0  0  0  0  0  0  0
  -31.6388  -24.7985   20.8823 C   0  0  0  0  0  0  0  0  0  0  0  0
  -26.3671  -28.4804   19.8458 C   0  0  0  0  0  0  0  0  0  0  0  0
  -24.8709  -29.1856   22.2971 C   0  0  0  0  0  0  0  0  0  0  0  0
  -31.3444  -26.0449   21.7130 C   0  0  0  0  0  0  0  0  0  0  0  0
  -20.6726  -15.0521   16.2653 C   0  0  0  0  0  0  0  0  0  0  0  0
  -30.1307  -25.8156   22.6081 C   0  0  0  0  0  0  0  0  0  0  0  0
  -21.8921  -14.8685   17.1703 C   0  0  0  0  0  0  0  0  0  0  0  0
  -20.5655  -16.4843   15.7463 C   0  0  0  0  0  0  0  0  0  0  0  0
  -21.8052  -17.3412   17.6963 C   0  0  0  0  0  0  0  0  0  0  0  0
  -28.8755  -25.5329   21.7737 C   0  0  1  0  0  0  0  0  0  0  0  0
  -27.0792  -28.8221   21.1510 C   0  0  1  0  0  0  0  0  0  0  0  0
  -21.9244  -15.9268   18.2893 C   0  0  2  0  0  0  0  0  0  0  0  0
  -24.3284  -35.5495   23.8301 C   0  0  0  0  0  0  0  0  0  0  0  0
  -26.8571  -29.7141   25.6804 C   0  0  0  0  0  0  0  0  0  0  0  0
  -25.7052  -31.8476   26.3043 C   0  0  0  0  0  0  0  0  0  0  0  0
  -27.9886  -31.9120   25.3021 C   0  0  0  0  0  0  0  0  0  0  0  0
  -23.7960  -34.1012   20.3523 C   0  0  0  0  0  0  0  0  0  0  0  0
  -19.4837  -25.4300   21.8907 C   0  0  0  0  0  0  0  0  0  0  0  0
  -20.1940  -22.2126   18.1211 C   0  0  0  0  0  0  0  0  0  0  0  0
  -18.8757  -21.5223   17.7167 C   0  0  0  0  0  0  0  0  0  0  0  0
  -18.6276  -20.1856   18.4125 C   0  0  0  0  0  0  0  0  0  0  0  0
  -20.5924  -26.4768   21.8855 C   0  0  0  0  0  0  0  0  0  1  0  0
  -26.0110  -31.3186   23.8431 C   0  0  1  0  0  0  0  0  0  0  0  0
  -24.6184  -34.6360   22.6493 C   0  0  2  0  0  0  0  0  0  0  0  0
  -26.6291  -31.1806   25.2631 C   0  0  0  0  0  0  0  0  0  0  0  0
  -20.9117  -21.9393   21.7228 N   0  0  0  0  0  0  0  0  0  0  0  0
  -24.2587  -16.4806   18.8613 N   0  0  0  0  0  0  0  0  0  0  0  0
  -20.8089  -21.6531   20.3971 N   0  0  0  0  0  0  0  0  0  0  0  0
  -23.1544  -15.7777   19.1655 N   0  0  0  0  0  0  0  0  0  0  0  0
  -26.2530  -29.6291   22.0512 N   0  0  0  0  0  0  0  0  0  0  0  0
  -20.6005  -17.4384   16.8572 N   0  0  0  0  0  0  0  0  0  0  0  0
  -22.2764  -14.2165   20.7155 N   0  0  0  0  0  0  0  0  0  0  0  0
  -26.4949  -14.8830   22.1840 N   0  0  0  0  0  0  0  0  0  0  0  0
  -28.3481  -26.7623   21.2216 N   0  0  0  0  0  0  0  0  0  0  0  0
  -25.8091  -32.6972   23.4106 N   0  0  0  0  0  0  0  0  0  0  0  0
  -19.6454  -19.2054   18.1060 N   0  0  0  0  0  0  0  0  0  0  0  0
  -23.6155  -34.9140   21.5826 N   0  3  0  0  0  0  0  0  0  0  0  0
  -24.5477  -13.7356   22.5721 O   0  0  0  0  0  0  0  0  0  0  0  0
  -27.0879  -27.4339   23.0610 O   0  0  0  0  0  0  0  0  0  0  0  0
  -28.0133  -31.0568   22.5986 O   0  0  0  0  0  0  0  0  0  0  0  0
  -23.5234  -32.5221   23.0615 O   0  0  0  0  0  0  0  0  0  0  0  0
  -18.5584  -18.3671   16.2696 O   0  0  0  0  0  0  0  0  0  0  0  0
  -30.2864  -18.2582   19.8888 O   0  0  0  0  0  0  0  0  0  0  0  0
  -21.0333  -26.7056   20.5477 O   0  0  0  0  0  0  0  0  0  1  0  0
  -32.2787  -19.9863   24.7311 F   0  0  0  0  0  0  0  0  0  0  0  0
  -30.5576  -16.5125   22.0152 F   0  0  0  0  0  0  0  0  0  0  0  0
  1  2  1  0  0  0  0
  1  5  2  0  0  0  0
  2  6  2  0  0  0  0
  3  8  2  0  0  0  0
  3 17  1  0  0  0  0
  4  9  1  0  0  0  0
  4 17  2  0  0  0  0
  5 19  1  0  0  0  0
  6 21  1  0  0  0  0
  7 10  2  0  0  0  0
  7 20  1  0  0  0  0
  8 24  1  0  0  0  0
  9 24  2  0  0  0  0
 10 25  1  0  0  0  0
 11 12  2  0  0  0  0
 11 26  1  0  0  0  0
 12 27  1  0  0  0  0
 13 22  1  0  0  0  0
 13 25  2  0  0  0  0
 14 23  2  0  0  0  0
 14 30  1  0  0  0  0
 15 27  2  0  0  0  0
 15 28  1  0  0  0  0
 16 23  1  0  0  0  0
 16 62  2  0  0  0  0
 17 29  1  0  0  0  0
 18 29  1  0  0  0  0
 18 31  2  0  0  0  0
 18 32  1  0  0  0  0
 19 21  2  0  0  0  0
 19 37  1  0  0  0  0
 20 22  2  0  0  0  0
 20 38  1  0  0  0  0
 21 46  1  0  0  0  0
 22 39  1  0  0  0  0
 23 54  1  0  0  0  0
 24 79  1  0  0  0  0
 25 80  1  0  0  0  0
 26 28  2  0  0  0  0
 26 79  1  0  0  0  0
 27 81  1  0  0  0  0
 28 82  1  0  0  0  0
 29 63  2  0  0  0  0
 30 55  1  0  0  0  0
 30 64  2  0  0  0  0
 31 65  1  0  0  0  0
 31 68  1  0  0  0  0
 32 69  1  0  0  0  0
 32 74  2  0  0  0  0
 33 47  1  0  0  0  0
 33 70  1  0  0  0  0
 33 75  2  0  0  0  0
 34 59  1  0  0  0  0
 34 66  1  0  0  0  0
 34 76  2  0  0  0  0
 35 60  1  0  0  0  0
 35 71  1  0  0  0  0
 35 77  2  0  0  0  0
 36 67  1  0  0  0  0
 36 72  1  0  0  0  0
 36 78  2  0  0  0  0
 37 40  1  0  0  0  0
 38 47  1  0  0  0  0
 39 66  1  0  0  0  0
 40 42  1  0  0  0  0
 41 43  1  0  0  0  0
 41 44  1  0  0  0  0
 42 46  1  0  0  0  0
 43 48  1  0  0  0  0
 44 67  1  0  0  0  0
 45 48  1  0  0  0  0
 45 67  1  0  0  0  0
 46 70  1  0  0  0  0
 47 66  1  0  0  0  0
 48 65  1  0  0  0  0
 49 60  1  0  0  0  0
 50 61  1  0  0  0  0
 51 61  1  0  0  0  0
 52 61  1  0  0  0  0
 53 73  1  0  0  0  0
 54 58  1  0  0  0  0
 55 56  1  0  0  0  0
 56 57  1  0  0  0  0
 57 72  1  0  0  0  0
 58 80  1  0  0  0  0
 59 61  1  0  0  0  0
 59 71  1  0  0  0  0
 60 73  1  0  0  0  0
 62 64  1  0  0  0  0
 63 65  1  0  0  0  0
M  CHG  1  73   1
M  ISO  4  36 100  58 101  72 100  80 101
M  END
> <Batch ID>
0038

> <Smiles>
CNC(C)C(=O)NC(C(=O)N1Cc2cc([101O:1][101CH2:1]Cc3cnnc(CCC[100NH:0][100C:0](=O)N4CCCC(n5nc(-c6ccc(Oc7ccc(F)cc7F)cc6)c(C(N)=O)c5N)C4)c3)ccc2CC1C(=O)NC1CCCc2ccccc21)C(C)(C)C

> <Shape>
0.223

> <Color>
0.065

> <Negative vol penalty>
0.000

$$$$

  -OEChem-04052317013D

 87 95  0     1  0  0  0  0  0999 V2000
  -25.8678  -22.6487   11.9217 C   0  0  0  0  0  0  0  0  0  0  0  0
  -25.9026  -23.4056   13.0885 C   0  0  0  0  0  0  0  0  0  0  0  0
  -23.7964   -9.8115   22.1536 C   0  0  0  0  0  0  0  0  0  0  0  0
  -22.2277  -10.4401   20.4271 C   0  0  0  0  0  0  0  0  0  0  0  0
  -25.8737  -21.2564   11.9949 C   0  0  0  0  0  0  0  0  0  0  0  0
  -25.9422  -22.7705   14.3293 C   0  0  0  0  0  0  0  0  0  0  0  0
  -29.3273  -24.8506   17.4691 C   0  0  0  0  0  0  0  0  0  0  0  0
  -23.2634   -8.5227   22.1687 C   0  0  0  0  0  0  0  0  0  0  0  0
  -21.6946   -9.1512   20.4421 C   0  0  0  0  0  0  0  0  0  0  0  0
  -28.9651  -26.0409   18.0981 C   0  0  0  0  0  0  0  0  0  0  0  0
  -20.1600   -5.9244   19.7709 C   0  0  0  0  0  0  0  0  0  0  0  0
  -19.9180   -5.3075   18.5436 C   0  0  0  0  0  0  0  0  0  0  0  0
  -28.4168  -24.8099   20.0989 C   0  0  0  0  0  0  0  0  0  0  0  0
  -24.5899  -29.8085   22.0705 C   0  0  0  0  0  0  0  0  0  0  0  0
  -22.2629   -5.4880   17.9904 C   0  0  0  0  0  0  0  0  0  0  0  0
  -24.2540  -28.6429   20.0247 C   0  0  0  0  0  0  0  0  0  0  0  0
  -23.2785  -10.7703   21.2828 C   0  0  0  0  0  0  0  0  0  0  0  0
  -24.8909  -12.5738   20.4732 C   0  0  0  0  0  0  0  0  0  0  0  0
  -25.9232  -20.6040   13.2369 C   0  0  0  0  0  0  0  0  0  0  0  0
  -29.2266  -23.6277   18.1479 C   0  0  0  0  0  0  0  0  0  0  0  0
  -25.9474  -21.3681   14.4192 C   0  0  0  0  0  0  0  0  0  0  0  0
  -28.7809  -23.6057   19.4772 C   0  0  0  0  0  0  0  0  0  0  0  0
  -23.7304  -29.1358   21.2091 C   0  0  0  0  0  0  0  0  0  0  0  0
  -25.9279  -29.9654   21.7261 C   0  0  0  0  0  0  0  0  0  0  0  0
  -22.2125   -8.1925   21.3130 C   0  0  0  0  0  0  0  0  0  0  0  0
  -28.5070  -26.0204   19.4122 C   0  0  0  0  0  0  0  0  0  0  0  0
  -21.4535   -6.3232   20.1080 C   0  0  0  0  0  0  0  0  0  0  0  0
  -20.9694   -5.0893   17.6533 C   0  0  0  0  0  0  0  0  0  0  0  0
  -22.5049   -6.1050   19.2178 C   0  0  0  0  0  0  0  0  0  0  0  0
  -23.8284  -12.1021   21.2672 C   0  0  0  0  0  0  0  0  0  0  0  0
  -26.3532  -29.4352   20.5187 C   0  0  0  0  0  0  0  0  0  0  0  0
  -25.0262  -13.8933   20.8296 C   0  0  0  0  0  0  0  0  0  0  0  0
  -25.6845  -11.8812   19.5006 C   0  0  0  0  0  0  0  0  0  0  0  0
  -27.5678  -20.9512   17.7137 C   0  0  0  0  0  0  0  0  0  0  0  0
  -22.7139  -18.7864   21.8242 C   0  0  0  0  0  0  0  0  0  0  0  0
  -29.3644  -19.8955   20.1996 C   0  0  0  0  0  0  0  0  0  0  0  0
  -31.2206  -20.6546   22.9610 C   0  0  0  0  0  0  0  0  0  0  0  0
  -25.8801  -19.0967   13.2673 C   0  0  0  0  0  0  0  0  0  0  0  0
  -29.6467  -22.3554   17.4643 C   0  0  0  0  0  0  0  0  0  0  0  0
  -28.6736  -22.3214   20.2565 C   0  0  0  0  0  0  0  0  0  0  0  0
  -26.3015  -18.5022   14.6087 C   0  0  0  0  0  0  0  0  0  0  0  0
  -22.9989  -16.5084   24.6450 C   0  0  0  0  0  0  0  0  0  0  0  0
  -25.6157  -19.2359   15.7568 C   0  0  0  0  0  0  0  0  0  0  0  0
  -23.2996  -15.1860   23.9407 C   0  0  0  0  0  0  0  0  0  0  0  0
  -22.0429  -17.3744   23.8287 C   0  0  0  0  0  0  0  0  0  0  0  0
  -22.8113  -16.3161   21.7277 C   0  0  0  0  0  0  0  0  0  0  0  0
  -26.0159  -20.7160   15.7831 C   0  0  1  0  0  0  0  0  0  0  0  0
  -29.0163  -21.1100   18.0799 C   0  0  1  0  0  0  0  0  0  0  0  0
  -23.7962  -15.4262   22.5043 C   0  0  2  0  0  0  0  0  0  0  0  0
  -26.8538  -30.6866   22.6437 C   0  0  0  0  0  0  0  0  0  0  0  0
  -32.5306  -19.5781   24.8109 C   0  0  0  0  0  0  0  0  0  0  0  0
  -26.7608  -19.1225   21.5903 C   0  0  0  0  0  0  0  0  0  0  0  0
  -28.0381  -18.9567   23.7372 C   0  0  0  0  0  0  0  0  0  0  0  0
  -28.6071  -17.4528   21.8301 C   0  0  0  0  0  0  0  0  0  0  0  0
  -33.7244  -21.9915   22.1227 C   0  0  0  0  0  0  0  0  0  0  0  0
  -22.2741  -28.9477   21.5532 C   0  0  0  0  0  0  0  0  0  0  0  0
  -27.7797  -29.5728   20.0972 C   0  0  0  0  0  0  0  0  0  0  0  0
  -22.3661  -20.0162   22.6245 C   0  0  0  0  0  0  0  0  0  0  0  0
  -21.9823  -27.6603   22.3343 C   0  0  0  0  0  0  0  0  0  0  0  0
  -22.6054  -21.2846   21.8114 C   0  0  0  0  0  0  0  0  0  0  0  0
  -22.4123  -26.3620   21.6394 C   0  0  0  0  0  0  0  0  0  0  0  0
  -22.2079  -22.5537   22.5729 C   0  0  0  0  0  0  0  0  0  0  0  0
  -22.1137  -25.1068   22.4634 C   0  0  0  0  0  0  0  0  0  0  0  0
  -22.4876  -23.8084   21.7409 C   0  0  0  0  0  0  0  0  0  0  0  0
  -28.2736  -28.3829   19.2704 C   0  0  0  0  0  0  0  0  0  1  0  0
  -29.2195  -19.9024   21.7023 C   0  0  1  0  0  0  0  0  0  0  0  0
  -32.5892  -20.1811   23.4160 C   0  0  2  0  0  0  0  0  0  0  0  0
  -28.1565  -18.8828   22.1999 C   0  0  0  0  0  0  0  0  0  0  0  0
  -25.5479  -28.7757   19.6560 N   0  0  0  0  0  0  0  0  0  0  0  0
  -23.3245  -13.0452   22.0676 N   0  0  0  0  0  0  0  0  0  0  0  0
  -24.0738  -14.1227   21.7785 N   0  0  0  0  0  0  0  0  0  0  0  0
  -29.0902  -21.1032   19.5424 N   0  0  0  0  0  0  0  0  0  0  0  0
  -22.5380  -17.5566   22.4589 N   0  0  0  0  0  0  0  0  0  0  0  0
  -25.8657  -14.8682   20.4206 N   0  0  0  0  0  0  0  0  0  0  0  0
  -25.4119  -10.5282   19.2567 N   0  0  0  0  0  0  0  0  0  0  0  0
  -27.3367  -20.8723   16.3536 N   0  0  0  0  0  0  0  0  0  0  0  0
  -30.5569  -19.6829   22.2423 N   0  0  0  0  0  0  0  0  0  0  0  0
  -33.5509  -21.3194   23.4361 N   0  3  0  0  0  0  0  0  0  0  0  0
  -26.6188  -12.4410   18.8784 O   0  0  0  0  0  0  0  0  0  0  0  0
  -26.7224  -20.9022   18.5995 O   0  0  0  0  0  0  0  0  0  0  0  0
  -23.1318  -18.9170   20.6708 O   0  0  0  0  0  0  0  0  0  0  0  0
  -29.7150  -18.8587   19.6307 O   0  0  0  0  0  0  0  0  0  0  0  0
  -30.7825  -21.7732   23.2205 O   0  0  0  0  0  0  0  0  0  0  0  0
  -21.6923   -6.9348   21.3273 O   0  0  0  0  0  0  0  0  0  0  0  0
  -28.1496  -27.1889   20.0325 O   0  0  0  0  0  0  0  0  0  1  0  0
  -20.7371   -4.4955   16.4753 F   0  0  0  0  0  0  0  0  0  0  0  0
  -23.7499   -6.4848   19.5366 F   0  0  0  0  0  0  0  0  0  0  0  0
  1  2  1  0  0  0  0
  1  5  2  0  0  0  0
  2  6  2  0  0  0  0
  3  8  2  0  0  0  0
  3 17  1  0  0  0  0
  4  9  1  0  0  0  0
  4 17  2  0  0  0  0
  5 19  1  0  0  0  0
  6 21  1  0  0  0  0
  7 10  2  0  0  0  0
  7 20  1  0  0  0  0
  8 25  1  0  0  0  0
  9 25  2  0  0  0  0
 10 26  1  0  0  0  0
 11 12  2  0  0  0  0
 11 27  1  0  0  0  0
 12 28  1  0  0  0  0
 13 22  1  0  0  0  0
 13 26  2  0  0  0  0
 14 23  2  0  0  0  0
 14 24  1  0  0  0  0
 15 28  2  0  0  0  0
 15 29  1  0  0  0  0
 16 23  1  0  0  0  0
 16 69  2  0  0  0  0
 17 30  1  0  0  0  0
 18 30  1  0  0  0  0
 18 32  2  0  0  0  0
 18 33  1  0  0  0  0
 19 21  2  0  0  0  0
 19 38  1  0  0  0  0
 20 22  2  0  0  0  0
 20 39  1  0  0  0  0
 21 47  1  0  0  0  0
 22 40  1  0  0  0  0
 23 56  1  0  0  0  0
 24 31  2  0  0  0  0
 24 50  1  0  0  0  0
 25 84  1  0  0  0  0
 26 85  1  0  0  0  0
 27 29  2  0  0  0  0
 27 84  1  0  0  0  0
 28 86  1  0  0  0  0
 29 87  1  0  0  0  0
 30 70  2  0  0  0  0
 31 57  1  0  0  0  0
 31 69  1  0  0  0  0
 32 71  1  0  0  0  0
 32 74  1  0  0  0  0
 33 75  1  0  0  0  0
 33 79  2  0  0  0  0
 34 48  1  0  0  0  0
 34 76  1  0  0  0  0
 34 80  2  0  0  0  0
 35 58  1  0  0  0  0
 35 73  1  0  0  0  0
 35 81  2  0  0  0  0
 36 66  1  0  0  0  0
 36 72  1  0  0  0  0
 36 82  2  0  0  0  0
 37 67  1  0  0  0  0
 37 77  1  0  0  0  0
 37 83  2  0  0  0  0
 38 41  1  0  0  0  0
 39 48  1  0  0  0  0
 40 72  1  0  0  0  0
 41 43  1  0  0  0  0
 42 44  1  0  0  0  0
 42 45  1  0  0  0  0
 43 47  1  0  0  0  0
 44 49  1  0  0  0  0
 45 73  1  0  0  0  0
 46 49  1  0  0  0  0
 46 73  1  0  0  0  0
 47 76  1  0  0  0  0
 48 72  1  0  0  0  0
 49 71  1  0  0  0  0
 51 67  1  0  0  0  0
 52 68  1  0  0  0  0
 53 68  1  0  0  0  0
 54 68  1  0  0  0  0
 55 78  1  0  0  0  0
 56 59  1  0  0  0  0
 57 65  1  0  0  0  0
 58 60  1  0  0  0  0
 59 61  1  0  0  0  0
 60 62  1  0  0  0  0
 61 63  1  0  0  0  0
 62 64  1  0  0  0  0
 63 64  1  0  0  0  0
 65 85  1  0  0  0  0
 66 68  1  0  0  0  0
 66 77  1  0  0  0  0
 67 78  1  0  0  0  0
 70 71  1  0  0  0  0
M  CHG  1  78   1
M  ISO  4  35 100  58 100  65 101  85 101
M  END
> <Batch ID>
0038

> <Smiles>
CNC(C)C(=O)NC(C(=O)N1Cc2cc([101O:1][101CH2:1]Cc3ncc(CCCCCCC[100CH2:0][100C:0](=O)N4CCCC(n5nc(-c6ccc(Oc7ccc(F)cc7F)cc6)c(C(N)=O)c5N)C4)cc3C)ccc2CC1C(=O)NC1CCCc2ccccc21)C(C)(C)C

> <Shape>
0.209

> <Color>
0.101

> <Negative vol penalty>
0.000

$$$$

  -OEChem-04052317013D

 84 92  0     1  0  0  0  0  0999 V2000
  -19.0420  -32.1031   22.8438 C   0  0  0  0  0  0  0  0  0  0  0  0
  -20.3884  -31.8107   22.6508 C   0  0  0  0  0  0  0  0  0  0  0  0
  -24.5065   -9.3936   21.6730 C   0  0  0  0  0  0  0  0  0  0  0  0
  -22.7199  -10.4267   20.4168 C   0  0  0  0  0  0  0  0  0  0  0  0
  -18.1178  -31.0682   22.9806 C   0  0  0  0  0  0  0  0  0  0  0  0
  -20.8115  -30.4832   22.5955 C   0  0  0  0  0  0  0  0  0  0  0  0
  -25.3320  -28.2002   19.1519 C   0  0  0  0  0  0  0  0  0  0  0  0
  -23.7407   -8.2359   21.8101 C   0  0  0  0  0  0  0  0  0  0  0  0
  -21.9541   -9.2690   20.5539 C   0  0  0  0  0  0  0  0  0  0  0  0
  -26.6617  -27.8906   19.4345 C   0  0  0  0  0  0  0  0  0  0  0  0
  -20.0438   -7.8127   22.9331 C   0  0  0  0  0  0  0  0  0  0  0  0
  -18.7023   -7.9610   23.2854 C   0  0  0  0  0  0  0  0  0  0  0  0
  -26.0385  -25.5920   19.8183 C   0  0  0  0  0  0  0  0  0  0  0  0
  -29.9900  -22.6750   16.9061 C   0  0  0  0  0  0  0  0  0  0  0  0
  -30.5679  -25.0167   17.0450 C   0  0  0  0  0  0  0  0  0  0  0  0
  -29.9963  -23.7927   19.0480 C   0  0  0  0  0  0  0  0  0  0  0  0
  -18.0429   -6.8657   21.2354 C   0  0  0  0  0  0  0  0  0  0  0  0
  -23.9961  -10.4891   20.9764 C   0  0  0  0  0  0  0  0  0  0  0  0
  -25.6903  -11.9898   19.7994 C   0  0  0  0  0  0  0  0  0  0  0  0
  -18.5284  -29.7273   22.9174 C   0  0  0  0  0  0  0  0  0  0  0  0
  -24.3422  -27.2086   19.2111 C   0  0  0  0  0  0  0  0  0  0  0  0
  -19.8920  -29.4294   22.7329 C   0  0  0  0  0  0  0  0  0  0  0  0
  -24.6975  -25.8911   19.5334 C   0  0  0  0  0  0  0  0  0  0  0  0
  -30.3731  -23.8636   16.2847 C   0  0  0  0  0  0  0  0  0  0  0  0
  -29.8016  -22.6395   18.2877 C   0  0  0  0  0  0  0  0  0  0  0  0
  -30.3794  -24.9813   18.4267 C   0  0  0  0  0  0  0  0  0  0  0  0
  -22.4645   -8.1736   21.2505 C   0  0  0  0  0  0  0  0  0  0  0  0
  -27.0147  -26.5869   19.7706 C   0  0  0  0  0  0  0  0  0  0  0  0
  -20.3848   -7.1910   21.7319 C   0  0  0  0  0  0  0  0  0  0  0  0
  -17.7019   -7.4875   22.4366 C   0  0  0  0  0  0  0  0  0  0  0  0
  -19.3843   -6.7175   20.8830 C   0  0  0  0  0  0  0  0  0  0  0  0
  -24.7865  -11.6855   20.8350 C   0  0  0  0  0  0  0  0  0  0  0  0
  -26.1790  -13.2317   20.1241 C   0  0  0  0  0  0  0  0  0  0  0  0
  -26.0554  -11.2188   18.6470 C   0  0  0  0  0  0  0  0  0  0  0  0
  -21.7187  -26.7588   20.9485 C   0  0  0  0  0  0  0  0  0  0  0  0
  -21.2979  -24.2386   18.9501 C   0  0  0  0  0  0  0  0  0  0  0  0
  -22.6949  -21.9526   16.8360 C   0  0  0  0  0  0  0  0  0  0  0  0
  -25.3837  -18.4649   21.8921 C   0  0  0  0  0  0  0  0  0  0  0  0
  -17.4995  -28.6429   23.1179 C   0  0  0  0  0  0  0  0  0  0  0  0
  -22.9167  -27.5533   18.8773 C   0  0  0  0  0  0  0  0  0  0  0  0
  -23.6759  -24.7858   19.5910 C   0  0  0  0  0  0  0  0  0  0  0  0
  -17.9751  -27.2623   22.6728 C   0  0  0  0  0  0  0  0  0  0  0  0
  -25.7332  -15.9370   24.3749 C   0  0  0  0  0  0  0  0  0  0  0  0
  -19.3803  -26.9866   23.1983 C   0  0  0  0  0  0  0  0  0  0  0  0
  -25.5864  -14.6316   23.5910 C   0  0  0  0  0  0  0  0  0  0  0  0
  -24.8158  -17.0291   23.8293 C   0  0  0  0  0  0  0  0  0  0  0  0
  -24.8034  -15.9802   21.5992 C   0  0  0  0  0  0  0  0  0  0  0  0
  -20.3862  -28.0019   22.6426 C   0  0  1  0  0  0  0  0  0  0  0  0
  -21.9102  -26.5719   19.4699 C   0  0  1  0  0  0  0  0  0  0  0  0
  -25.7496  -14.8653   22.0770 C   0  0  2  0  0  0  0  0  0  0  0  0
  -30.5748  -23.9008   14.8074 C   0  0  0  0  0  0  0  0  0  0  0  0
  -22.1029  -19.9958   15.3807 C   0  0  0  0  0  0  0  0  0  0  0  0
  -21.0363  -22.4778   21.4283 C   0  0  0  0  0  0  0  0  0  0  0  0
  -21.4018  -20.4811   19.9627 C   0  0  0  0  0  0  0  0  0  0  0  0
  -19.4178  -21.9482   19.5967 C   0  0  0  0  0  0  0  0  0  0  0  0
  -23.6519  -23.3288   14.3969 C   0  0  0  0  0  0  0  0  0  0  0  0
  -29.3923  -21.3688   18.9527 C   0  0  0  0  0  0  0  0  0  0  0  0
  -30.5902  -26.2293   19.2490 C   0  0  0  0  0  0  0  0  0  0  0  0
  -27.8649  -21.2211   19.0348 C   0  0  0  0  0  0  0  0  0  0  0  0
  -27.4581  -19.9308   19.7526 C   0  0  0  0  0  0  0  0  0  0  0  0
  -25.9450  -19.7700   19.8572 C   0  0  0  0  0  0  0  0  0  0  0  0
  -29.3152  -27.0538   19.3888 C   0  0  0  0  0  0  0  0  0  1  0  0
  -21.7151  -22.7877   18.9566 C   0  0  1  0  0  0  0  0  0  0  0  0
  -22.3052  -21.5019   15.4398 C   0  0  2  0  0  0  0  0  0  0  0  0
  -20.9119  -21.9447   19.9870 C   0  0  0  0  0  0  0  0  0  0  0  0
  -24.7041  -12.6558   21.7491 N   0  0  0  0  0  0  0  0  0  0  0  0
  -25.5624  -13.5819   21.2892 N   0  0  0  0  0  0  0  0  0  0  0  0
  -22.2943  -25.1741   19.2625 N   0  0  0  0  0  0  0  0  0  0  0  0
  -25.0213  -17.2021   22.3892 N   0  0  0  0  0  0  0  0  0  0  0  0
  -27.0717  -14.0472   19.5238 N   0  0  0  0  0  0  0  0  0  0  0  0
  -25.4580   -9.9639   18.4660 N   0  0  0  0  0  0  0  0  0  0  0  0
  -20.7352  -27.6721   21.2773 N   0  0  0  0  0  0  0  0  0  0  0  0
  -21.5939  -22.3220   17.5794 N   0  0  0  0  0  0  0  0  0  0  0  0
  -25.5649  -18.5405   20.5166 N   0  0  0  0  0  0  0  0  0  0  0  0
  -23.3661  -21.8724   14.4609 N   0  3  0  0  0  0  0  0  0  0  0  0
  -26.8990  -11.6235   17.8115 O   0  0  0  0  0  0  0  0  0  0  0  0
  -22.4110  -26.1207   21.7328 O   0  0  0  0  0  0  0  0  0  0  0  0
  -20.1325  -24.5314   18.6710 O   0  0  0  0  0  0  0  0  0  0  0  0
  -23.8592  -21.9713   17.2292 O   0  0  0  0  0  0  0  0  0  0  0  0
  -25.5397  -19.4506   22.6209 O   0  0  0  0  0  0  0  0  0  0  0  0
  -21.7170   -7.0439   21.3839 O   0  0  0  0  0  0  0  0  0  0  0  0
  -28.3117  -26.2821   20.0476 O   0  0  0  0  0  0  0  0  0  1  0  0
  -16.4138   -7.6285   22.7758 F   0  0  0  0  0  0  0  0  0  0  0  0
  -19.7058   -6.1184   19.7283 F   0  0  0  0  0  0  0  0  0  0  0  0
  1  2  1  0  0  0  0
  1  5  2  0  0  0  0
  2  6  2  0  0  0  0
  3  8  2  0  0  0  0
  3 18  1  0  0  0  0
  4  9  1  0  0  0  0
  4 18  2  0  0  0  0
  5 20  1  0  0  0  0
  6 22  1  0  0  0  0
  7 10  2  0  0  0  0
  7 21  1  0  0  0  0
  8 27  1  0  0  0  0
  9 27  2  0  0  0  0
 10 28  1  0  0  0  0
 11 12  2  0  0  0  0
 11 29  1  0  0  0  0
 12 30  1  0  0  0  0
 13 23  1  0  0  0  0
 13 28  2  0  0  0  0
 14 24  1  0  0  0  0
 14 25  2  0  0  0  0
 15 24  2  0  0  0  0
 15 26  1  0  0  0  0
 16 25  1  0  0  0  0
 16 26  2  0  0  0  0
 17 30  2  0  0  0  0
 17 31  1  0  0  0  0
 18 32  1  0  0  0  0
 19 32  1  0  0  0  0
 19 33  2  0  0  0  0
 19 34  1  0  0  0  0
 20 22  2  0  0  0  0
 20 39  1  0  0  0  0
 21 23  2  0  0  0  0
 21 40  1  0  0  0  0
 22 48  1  0  0  0  0
 23 41  1  0  0  0  0
 24 51  1  0  0  0  0
 25 57  1  0  0  0  0
 26 58  1  0  0  0  0
 27 81  1  0  0  0  0
 28 82  1  0  0  0  0
 29 31  2  0  0  0  0
 29 81  1  0  0  0  0
 30 83  1  0  0  0  0
 31 84  1  0  0  0  0
 32 66  2  0  0  0  0
 33 67  1  0  0  0  0
 33 70  1  0  0  0  0
 34 71  1  0  0  0  0
 34 76  2  0  0  0  0
 35 49  1  0  0  0  0
 35 72  1  0  0  0  0
 35 77  2  0  0  0  0
 36 63  1  0  0  0  0
 36 68  1  0  0  0  0
 36 78  2  0  0  0  0
 37 64  1  0  0  0  0
 37 73  1  0  0  0  0
 37 79  2  0  0  0  0
 38 69  1  0  0  0  0
 38 74  1  0  0  0  0
 38 80  2  0  0  0  0
 39 42  1  0  0  0  0
 40 49  1  0  0  0  0
 41 68  1  0  0  0  0
 42 44  1  0  0  0  0
 43 45  1  0  0  0  0
 43 46  1  0  0  0  0
 44 48  1  0  0  0  0
 45 50  1  0  0  0  0
 46 69  1  0  0  0  0
 47 50  1  0  0  0  0
 47 69  1  0  0  0  0
 48 72  1  0  0  0  0
 49 68  1  0  0  0  0
 50 67  1  0  0  0  0
 52 64  1  0  0  0  0
 53 65  1  0  0  0  0
 54 65  1  0  0  0  0
 55 65  1  0  0  0  0
 56 75  1  0  0  0  0
 57 59  1  0  0  0  0
 58 62  1  0  0  0  0
 59 60  1  0  0  0  0
 60 61  1  0  0  0  0
 61 74  1  0  0  0  0
 62 82  1  0  0  0  0
 63 65  1  0  0  0  0
 63 73  1  0  0  0  0
 64 75  1  0  0  0  0
 66 67  1  0  0  0  0
M  CHG  1  75   1
M  ISO  4  38 100  62 101  74 100  82 101
M  END
> <Batch ID>
0038

> <Smiles>
CNC(C)C(=O)NC(C(=O)N1Cc2cc([101O:1][101CH2:1]Cc3cc(C)cc(CCCC[100NH:0][100C:0](=O)N4CCCC(n5nc(-c6ccc(Oc7ccc(F)cc7F)cc6)c(C(N)=O)c5N)C4)c3)ccc2CC1C(=O)NC1CCCc2ccccc21)C(C)(C)C

> <Shape>
0.223

> <Color>
0.089

> <Negative vol penalty>
0.000

$$$$

  -OEChem-04052317013D

 84 92  0     1  0  0  0  0  0999 V2000
  -18.0654  -25.2969   22.4181 C   0  0  0  0  0  0  0  0  0  0  0  0
  -19.3692  -25.0535   21.9982 C   0  0  0  0  0  0  0  0  0  0  0  0
  -26.6004  -15.5134   21.7724 C   0  0  0  0  0  0  0  0  0  0  0  0
  -25.8677  -15.3757   19.4743 C   0  0  0  0  0  0  0  0  0  0  0  0
  -17.5731  -26.6011   22.4394 C   0  0  0  0  0  0  0  0  0  0  0  0
  -20.1811  -26.1142   21.5981 C   0  0  0  0  0  0  0  0  0  0  0  0
  -26.2292  -26.6306   22.4103 C   0  0  0  0  0  0  0  0  0  0  0  0
  -26.4317  -14.1355   21.9088 C   0  0  0  0  0  0  0  0  0  0  0  0
  -25.6991  -13.9978   19.6106 C   0  0  0  0  0  0  0  0  0  0  0  0
  -27.3129  -26.3865   21.5679 C   0  0  0  0  0  0  0  0  0  0  0  0
  -26.5387  -10.6018   22.7552 C   0  0  0  0  0  0  0  0  0  0  0  0
  -27.5498   -9.8849   23.3950 C   0  0  0  0  0  0  0  0  0  0  0  0
  -27.3755  -28.7254   20.9805 C   0  0  0  0  0  0  0  0  0  0  0  0
  -27.6715  -23.7912   16.4971 C   0  0  0  0  0  0  0  0  0  0  0  0
  -27.7672  -26.1779   16.8595 C   0  0  0  0  0  0  0  0  0  0  0  0
  -29.1263  -10.6069   21.7126 C   0  0  0  0  0  0  0  0  0  0  0  0
  -26.3183  -16.1335   20.5552 C   0  0  0  0  0  0  0  0  0  0  0  0
  -27.6548  -18.2349   20.0023 C   0  0  0  0  0  0  0  0  0  0  0  0
  -18.3826  -27.6794   22.0486 C   0  0  0  0  0  0  0  0  0  0  0  0
  -25.7027  -27.9242   22.5360 C   0  0  0  0  0  0  0  0  0  0  0  0
  -19.6987  -27.4340   21.6129 C   0  0  0  0  0  0  0  0  0  0  0  0
  -26.2867  -28.9837   21.8272 C   0  0  0  0  0  0  0  0  0  0  0  0
  -27.0659  -25.0465   16.4425 C   0  0  0  0  0  0  0  0  0  0  0  0
  -28.9784  -23.6672   16.9687 C   0  0  0  0  0  0  0  0  0  0  0  0
  -29.0741  -26.0539   17.3310 C   0  0  0  0  0  0  0  0  0  0  0  0
  -29.6797  -24.7986   17.3856 C   0  0  0  0  0  0  0  0  0  0  0  0
  -25.9811  -13.3777   20.8279 C   0  0  0  0  0  0  0  0  0  0  0  0
  -27.8845  -27.4334   20.8506 C   0  0  0  0  0  0  0  0  0  0  0  0
  -26.8214  -11.3212   21.5941 C   0  0  0  0  0  0  0  0  0  0  0  0
  -28.8436   -9.8875   22.8738 C   0  0  0  0  0  0  0  0  0  0  0  0
  -28.1152  -11.3238   21.0728 C   0  0  0  0  0  0  0  0  0  0  0  0
  -26.4917  -17.5569   20.4139 C   0  0  0  0  0  0  0  0  0  0  0  0
  -27.3069  -19.5632   20.0327 C   0  0  0  0  0  0  0  0  0  0  0  0
  -28.9352  -17.7108   19.6260 C   0  0  0  0  0  0  0  0  0  0  0  0
  -22.8900  -29.2709   21.9200 C   0  0  0  0  0  0  0  0  0  0  0  0
  -23.6333  -23.6134   18.8535 C   0  0  0  0  0  0  0  0  0  0  0  0
  -24.2542  -31.8511   23.3357 C   0  0  0  0  0  0  0  0  0  0  0  0
  -27.1082  -33.5165   24.1887 C   0  0  0  0  0  0  0  0  0  0  0  0
  -17.7910  -29.0668   22.0435 C   0  0  0  0  0  0  0  0  0  0  0  0
  -24.5503  -28.1758   23.4694 C   0  0  0  0  0  0  0  0  0  0  0  0
  -25.7716  -30.3944   21.9426 C   0  0  0  0  0  0  0  0  0  0  0  0
  -18.8375  -30.1749   21.9601 C   0  0  0  0  0  0  0  0  0  0  0  0
  -23.2475  -21.8691   21.9597 C   0  0  0  0  0  0  0  0  0  0  0  0
  -19.8650  -29.8585   20.8779 C   0  0  0  0  0  0  0  0  0  0  0  0
  -24.1288  -20.6324   21.7888 C   0  0  0  0  0  0  0  0  0  0  0  0
  -22.5855  -22.2689   20.6449 C   0  0  0  0  0  0  0  0  0  0  0  0
  -24.4293  -21.2485   19.3485 C   0  0  0  0  0  0  0  0  0  0  0  0
  -20.6183  -28.5609   21.1950 C   0  0  1  0  0  0  0  0  0  0  0  0
  -23.7690  -29.4406   23.1268 C   0  0  1  0  0  0  0  0  0  0  0  0
  -25.1414  -20.8288   20.6466 C   0  0  2  0  0  0  0  0  0  0  0  0
  -29.6044  -22.3116   17.0159 C   0  0  0  0  0  0  0  0  0  0  0  0
  -32.1112  -25.1032   16.8552 C   0  0  0  0  0  0  0  0  0  0  0  0
  -27.9034  -35.6180   25.3063 C   0  0  0  0  0  0  0  0  0  0  0  0
  -23.5096  -33.4530   20.8478 C   0  0  0  0  0  0  0  0  0  0  0  0
  -25.1206  -35.2205   21.5888 C   0  0  0  0  0  0  0  0  0  0  0  0
  -23.1495  -34.6568   23.0101 C   0  0  0  0  0  0  0  0  0  0  0  0
  -28.5409  -31.9972   26.2859 C   0  0  0  0  0  0  0  0  0  0  0  0
  -25.6684  -25.1790   15.9390 C   0  0  0  0  0  0  0  0  0  0  0  0
  -29.8111  -27.2937   17.7761 C   0  0  0  0  0  0  0  0  0  0  0  0
  -31.0811  -24.6654   17.8908 C   0  0  0  0  0  0  0  0  0  0  0  0
  -24.6844  -23.6997   17.7757 C   0  0  0  0  0  0  0  0  0  0  0  0
  -24.6296  -25.0491   17.0664 C   0  0  0  0  0  0  0  0  0  0  0  0
  -29.0745  -28.0402   18.8830 C   0  0  0  0  0  0  0  0  0  1  0  0
  -25.0741  -33.0246   22.8565 C   0  0  1  0  0  0  0  0  0  0  0  0
  -27.5525  -34.1503   25.4947 C   0  0  2  0  0  0  0  0  0  0  0  0
  -24.2222  -34.0619   22.0719 C   0  0  0  0  0  0  0  0  0  0  0  0
  -25.4806  -18.3861   20.6861 N   0  0  0  0  0  0  0  0  0  0  0  0
  -26.0073  -19.5988   20.4450 N   0  0  0  0  0  0  0  0  0  0  0  0
  -24.6392  -30.5884   22.8632 N   0  0  0  0  0  0  0  0  0  0  0  0
  -23.5781  -22.4238   19.5800 N   0  0  0  0  0  0  0  0  0  0  0  0
  -27.9889  -20.6926   19.7469 N   0  0  0  0  0  0  0  0  0  0  0  0
  -29.1220  -16.3219   19.6504 N   0  0  0  0  0  0  0  0  0  0  0  0
  -21.6249  -28.7955   22.2079 N   0  0  0  0  0  0  0  0  0  0  0  0
  -25.7387  -33.5672   24.0364 N   0  0  0  0  0  0  0  0  0  0  0  0
  -28.7511  -33.4455   26.0310 N   0  3  0  0  0  0  0  0  0  0  0  0
  -29.8904  -18.4530   19.2941 O   0  0  0  0  0  0  0  0  0  0  0  0
  -23.3268  -29.5519   20.8101 O   0  0  0  0  0  0  0  0  0  0  0  0
  -22.8863  -24.5766   19.0445 O   0  0  0  0  0  0  0  0  0  0  0  0
  -23.3113  -32.0468   24.1066 O   0  0  0  0  0  0  0  0  0  0  0  0
  -27.8974  -33.0289   23.3826 O   0  0  0  0  0  0  0  0  0  0  0  0
  -25.8167  -12.0331   20.9605 O   0  0  0  0  0  0  0  0  0  0  0  0
  -28.9419  -27.1978   20.0272 O   0  0  0  0  0  0  0  0  0  1  0  0
  -29.8148   -9.2002   23.4891 F   0  0  0  0  0  0  0  0  0  0  0  0
  -28.3931  -12.0140   19.9583 F   0  0  0  0  0  0  0  0  0  0  0  0
  1  2  1  0  0  0  0
  1  5  2  0  0  0  0
  2  6  2  0  0  0  0
  3  8  2  0  0  0  0
  3 17  1  0  0  0  0
  4  9  1  0  0  0  0
  4 17  2  0  0  0  0
  5 19  1  0  0  0  0
  6 21  1  0  0  0  0
  7 10  2  0  0  0  0
  7 20  1  0  0  0  0
  8 27  1  0  0  0  0
  9 27  2  0  0  0  0
 10 28  1  0  0  0  0
 11 12  2  0  0  0  0
 11 29  1  0  0  0  0
 12 30  1  0  0  0  0
 13 22  1  0  0  0  0
 13 28  2  0  0  0  0
 14 23  1  0  0  0  0
 14 24  2  0  0  0  0
 15 23  2  0  0  0  0
 15 25  1  0  0  0  0
 16 30  2  0  0  0  0
 16 31  1  0  0  0  0
 17 32  1  0  0  0  0
 18 32  1  0  0  0  0
 18 33  2  0  0  0  0
 18 34  1  0  0  0  0
 19 21  2  0  0  0  0
 19 39  1  0  0  0  0
 20 22  2  0  0  0  0
 20 40  1  0  0  0  0
 21 48  1  0  0  0  0
 22 41  1  0  0  0  0
 23 58  1  0  0  0  0
 24 26  1  0  0  0  0
 24 51  1  0  0  0  0
 25 26  2  0  0  0  0
 25 59  1  0  0  0  0
 26 60  1  0  0  0  0
 27 81  1  0  0  0  0
 28 82  1  0  0  0  0
 29 31  2  0  0  0  0
 29 81  1  0  0  0  0
 30 83  1  0  0  0  0
 31 84  1  0  0  0  0
 32 67  2  0  0  0  0
 33 68  1  0  0  0  0
 33 71  1  0  0  0  0
 34 72  1  0  0  0  0
 34 76  2  0  0  0  0
 35 49  1  0  0  0  0
 35 73  1  0  0  0  0
 35 77  2  0  0  0  0
 36 61  1  0  0  0  0
 36 70  1  0  0  0  0
 36 78  2  0  0  0  0
 37 64  1  0  0  0  0
 37 69  1  0  0  0  0
 37 79  2  0  0  0  0
 38 65  1  0  0  0  0
 38 74  1  0  0  0  0
 38 80  2  0  0  0  0
 39 42  1  0  0  0  0
 40 49  1  0  0  0  0
 41 69  1  0  0  0  0
 42 44  1  0  0  0  0
 43 45  1  0  0  0  0
 43 46  1  0  0  0  0
 44 48  1  0  0  0  0
 45 50  1  0  0  0  0
 46 70  1  0  0  0  0
 47 50  1  0  0  0  0
 47 70  1  0  0  0  0
 48 73  1  0  0  0  0
 49 69  1  0  0  0  0
 50 68  1  0  0  0  0
 52 60  1  0  0  0  0
 53 65  1  0  0  0  0
 54 66  1  0  0  0  0
 55 66  1  0  0  0  0
 56 66  1  0  0  0  0
 57 75  1  0  0  0  0
 58 62  1  0  0  0  0
 59 63  1  0  0  0  0
 61 62  1  0  0  0  0
 63 82  1  0  0  0  0
 64 66  1  0  0  0  0
 64 74  1  0  0  0  0
 65 75  1  0  0  0  0
 67 68  1  0  0  0  0
M  CHG  1  75   1
M  ISO  4  36 100  61 100  63 101  82 101
M  END
> <Batch ID>
0038

> <Smiles>
CCc1c(C)cc(CC[100CH2:0][100C:0](=O)N2CCCC(n3nc(-c4ccc(Oc5ccc(F)cc5F)cc4)c(C(N)=O)c3N)C2)cc1C[101CH2:1][101O:1]c1ccc2c(c1)CN(C(=O)C(NC(=O)C(C)NC)C(C)(C)C)C(C(=O)NC1CCCc3ccccc31)C2

> <Shape>
0.253

> <Color>
0.090

> <Negative vol penalty>
0.000

$$$$

  -OEChem-04052317013D

 91100  0     1  0  0  0  0  0999 V2000
  -19.0168  -28.8556    8.4822 C   0  0  0  0  0  0  0  0  0  0  0  0
  -19.5189  -27.7727    9.1967 C   0  0  0  0  0  0  0  0  0  0  0  0
  -23.4227   -9.9294   22.3297 C   0  0  0  0  0  0  0  0  0  0  0  0
  -23.3621   -9.7030   19.9251 C   0  0  0  0  0  0  0  0  0  0  0  0
  -19.4862  -30.1416    8.7464 C   0  0  0  0  0  0  0  0  0  0  0  0
  -20.4917  -27.9750   10.1751 C   0  0  0  0  0  0  0  0  0  0  0  0
  -21.1332  -24.8848   15.4234 C   0  0  0  0  0  0  0  0  0  0  0  0
  -22.6592   -8.7692   22.4582 C   0  0  0  0  0  0  0  0  0  0  0  0
  -22.5986   -8.5427   20.0536 C   0  0  0  0  0  0  0  0  0  0  0  0
  -21.9643  -23.8287   15.7945 C   0  0  0  0  0  0  0  0  0  0  0  0
  -23.1599   -5.4285   22.3100 C   0  0  0  0  0  0  0  0  0  0  0  0
  -23.5588   -4.4924   23.2641 C   0  0  0  0  0  0  0  0  0  0  0  0
  -25.5165  -22.1928   22.2548 C   0  0  0  0  0  0  0  0  0  0  0  0
  -23.5299  -25.4014   16.7405 C   0  0  0  0  0  0  0  0  0  0  0  0
  -21.4317   -4.7288   24.3852 C   0  0  0  0  0  0  0  0  0  0  0  0
  -23.7741  -10.3963   21.0632 C   0  0  0  0  0  0  0  0  0  0  0  0
  -24.2284  -12.8865   21.3797 C   0  0  0  0  0  0  0  0  0  0  0  0
  -20.4582  -30.3610    9.7352 C   0  0  0  0  0  0  0  0  0  0  0  0
  -21.4999  -26.2099   15.6988 C   0  0  0  0  0  0  0  0  0  0  0  0
  -20.9756  -29.2650   10.4518 C   0  0  0  0  0  0  0  0  0  0  0  0
  -24.2140  -22.6383   22.5129 C   0  0  0  0  0  0  0  0  0  0  0  0
  -22.7004  -26.4723   16.3741 C   0  0  0  0  0  0  0  0  0  0  0  0
  -25.8572  -21.6951   21.0035 C   0  0  0  0  0  0  0  0  0  0  0  0
  -22.2471   -8.0758   21.3202 C   0  0  0  0  0  0  0  0  0  0  0  0
  -23.1643  -24.0871   16.4506 C   0  0  0  0  0  0  0  0  0  0  0  0
  -21.8970   -6.0149   22.3936 C   0  0  0  0  0  0  0  0  0  0  0  0
  -22.6947   -4.1425   24.3016 C   0  0  0  0  0  0  0  0  0  0  0  0
  -21.0330   -5.6650   23.4312 C   0  0  0  0  0  0  0  0  0  0  0  0
  -24.5624  -11.5951   20.9297 C   0  0  0  0  0  0  0  0  0  0  0  0
  -23.2861  -22.5541   21.4712 C   0  0  0  0  0  0  0  0  0  0  0  0
  -24.8715  -21.6569   20.0380 C   0  0  0  0  0  0  0  0  0  0  0  0
  -25.2987  -13.6653   21.0131 C   0  0  0  0  0  0  0  0  0  0  0  0
  -23.0556  -13.3415   22.0676 C   0  0  0  0  0  0  0  0  0  0  0  0
  -22.1155  -28.7802   13.9330 C   0  0  0  0  0  0  0  0  0  0  0  0
  -22.2748  -30.2467   16.8220 C   0  0  0  0  0  0  0  0  0  0  0  0
  -22.7974  -29.9761   20.1836 C   0  0  0  0  0  0  0  0  0  0  0  0
  -30.8029  -14.4904   20.6021 C   0  0  0  0  0  0  0  0  0  0  0  0
  -20.9692  -31.7633    9.9524 C   0  0  0  0  0  0  0  0  0  0  0  0
  -20.5796  -27.3363   15.3157 C   0  0  0  0  0  0  0  0  0  0  0  0
  -23.8598  -23.1771   23.8721 C   0  0  0  0  0  0  0  0  0  0  0  0
  -23.1303  -27.8758   16.7112 C   0  0  0  0  0  0  0  0  0  0  0  0
  -21.8582  -22.9975   21.6480 C   0  0  0  0  0  0  0  0  0  0  0  0
  -21.7291  -31.9382   11.2647 C   0  0  0  0  0  0  0  0  0  0  0  0
  -23.4417  -24.6473   23.8431 C   0  0  0  0  0  0  0  0  0  0  0  0
  -21.7257  -24.4934   21.9280 C   0  0  0  0  0  0  0  0  0  0  0  0
  -22.0027  -24.8747   23.3817 C   0  0  0  0  0  0  0  0  0  0  0  0
  -29.2274  -12.6504   17.9928 C   0  0  0  0  0  0  0  0  0  0  0  0
  -22.7278  -30.8016   11.4589 C   0  0  0  0  0  0  0  0  0  0  0  0
  -27.8489  -12.3133   18.5637 C   0  0  0  0  0  0  0  0  0  0  0  0
  -30.3098  -12.6081   19.0692 C   0  0  0  0  0  0  0  0  0  0  0  0
  -28.6556  -13.0997   20.8286 C   0  0  0  0  0  0  0  0  0  0  0  0
  -22.0134  -29.4471   11.5380 C   0  0  1  0  0  0  0  0  0  0  0  0
  -21.2967  -28.6768   15.1885 C   0  0  1  0  0  0  0  0  0  0  0  0
  -27.5223  -13.1842   19.7918 C   0  0  2  0  0  0  0  0  0  0  0  0
  -22.8995  -31.3539   22.2785 C   0  0  0  0  0  0  0  0  0  0  0  0
  -25.0285  -31.2775   16.0069 C   0  0  0  0  0  0  0  0  0  0  0  0
  -25.4637  -31.8124   18.4137 C   0  0  0  0  0  0  0  0  0  0  0  0
  -23.6015  -32.9473   17.2026 C   0  0  0  0  0  0  0  0  0  0  0  0
  -20.5506  -28.4898   21.4091 C   0  0  0  0  0  0  0  0  0  0  0  0
  -27.2460  -21.2267   20.7393 C   0  0  0  0  0  0  0  0  0  0  0  0
  -25.1757  -21.1303   18.6583 C   0  0  0  0  0  0  0  0  0  0  0  0
  -27.5799  -19.8485   21.3412 C   0  0  0  0  0  0  0  0  0  0  0  0
  -25.9578  -22.1120   17.7830 C   0  0  0  0  0  0  0  0  0  0  0  0
  -29.0355  -19.4343   21.1030 C   0  0  0  0  0  0  0  0  0  0  0  0
  -29.3356  -18.0738   21.7372 C   0  0  0  0  0  0  0  0  0  0  0  0
  -30.8009  -17.6780   21.5329 C   0  0  0  0  0  0  0  0  0  0  0  0
  -31.1493  -16.3537   22.2044 C   0  0  0  0  0  0  0  0  0  0  0  0
  -25.1922  -23.3953   17.4826 C   0  0  0  0  0  0  0  0  0  1  0  0
  -23.3685  -30.5090   17.8289 C   0  0  1  0  0  0  0  0  0  0  0  0
  -22.0171  -30.5114   21.3706 C   0  0  2  0  0  0  0  0  0  0  0  0
  -24.3587  -31.6101   17.3551 C   0  0  0  0  0  0  0  0  0  0  0  0
  -25.7517  -11.5518   20.3234 N   0  0  0  0  0  0  0  0  0  0  0  0
  -23.6026  -22.0713   20.2410 N   0  0  0  0  0  0  0  0  0  0  0  0
  -26.1744  -12.8257   20.3897 N   0  0  0  0  0  0  0  0  0  0  0  0
  -22.1994  -28.9436   16.3102 N   0  0  0  0  0  0  0  0  0  0  0  0
  -29.9397  -13.4559   20.2050 N   0  0  0  0  0  0  0  0  0  0  0  0
  -25.5668  -14.9795   21.1662 N   0  0  0  0  0  0  0  0  0  0  0  0
  -21.9668  -13.7898   21.3075 N   0  0  0  0  0  0  0  0  0  0  0  0
  -21.4169  -29.2658   12.8441 N   0  0  0  0  0  0  0  0  0  0  0  0
  -22.6990  -30.8098   19.0897 N   0  0  0  0  0  0  0  0  0  0  0  0
  -30.3735  -15.2503   21.6833 N   0  0  0  0  0  0  0  0  0  0  0  0
  -21.4567  -29.3867   22.1718 N   0  3  0  0  0  0  0  0  0  0  0  0
  -22.9817  -13.3656   23.3196 O   0  0  0  0  0  0  0  0  0  0  0  0
  -23.2943  -28.4457   13.9511 O   0  0  0  0  0  0  0  0  0  0  0  0
  -21.5109  -31.1625   16.5066 O   0  0  0  0  0  0  0  0  0  0  0  0
  -23.4339  -28.9255   20.2239 O   0  0  0  0  0  0  0  0  0  0  0  0
  -31.8741  -14.7232   20.0319 O   0  0  0  0  0  0  0  0  0  0  0  0
  -21.5023   -6.9435   21.4452 O   0  0  0  0  0  0  0  0  0  0  0  0
  -23.9777  -23.0582   16.8134 O   0  0  0  0  0  0  0  0  0  1  0  0
  -23.0772   -3.2424   25.2169 F   0  0  0  0  0  0  0  0  0  0  0  0
  -19.8180   -6.2241   23.5161 F   0  0  0  0  0  0  0  0  0  0  0  0
  1  2  1  0  0  0  0
  1  5  2  0  0  0  0
  2  6  2  0  0  0  0
  3  8  2  0  0  0  0
  3 16  1  0  0  0  0
  4  9  1  0  0  0  0
  4 16  2  0  0  0  0
  5 18  1  0  0  0  0
  6 20  1  0  0  0  0
  7 10  2  0  0  0  0
  7 19  1  0  0  0  0
  8 24  1  0  0  0  0
  9 24  2  0  0  0  0
 10 25  1  0  0  0  0
 11 12  2  0  0  0  0
 11 26  1  0  0  0  0
 12 27  1  0  0  0  0
 13 21  2  0  0  0  0
 13 23  1  0  0  0  0
 14 22  1  0  0  0  0
 14 25  2  0  0  0  0
 15 27  2  0  0  0  0
 15 28  1  0  0  0  0
 16 29  1  0  0  0  0
 17 29  1  0  0  0  0
 17 32  2  0  0  0  0
 17 33  1  0  0  0  0
 18 20  2  0  0  0  0
 18 38  1  0  0  0  0
 19 22  2  0  0  0  0
 19 39  1  0  0  0  0
 20 52  1  0  0  0  0
 21 30  1  0  0  0  0
 21 40  1  0  0  0  0
 22 41  1  0  0  0  0
 23 31  2  0  0  0  0
 23 60  1  0  0  0  0
 24 88  1  0  0  0  0
 25 89  1  0  0  0  0
 26 28  2  0  0  0  0
 26 88  1  0  0  0  0
 27 90  1  0  0  0  0
 28 91  1  0  0  0  0
 29 72  2  0  0  0  0
 30 42  1  0  0  0  0
 30 73  2  0  0  0  0
 31 61  1  0  0  0  0
 31 73  1  0  0  0  0
 32 74  1  0  0  0  0
 32 77  1  0  0  0  0
 33 78  1  0  0  0  0
 33 83  2  0  0  0  0
 34 53  1  0  0  0  0
 34 79  1  0  0  0  0
 34 84  2  0  0  0  0
 35 69  1  0  0  0  0
 35 75  1  0  0  0  0
 35 85  2  0  0  0  0
 36 70  1  0  0  0  0
 36 80  1  0  0  0  0
 36 86  2  0  0  0  0
 37 76  1  0  0  0  0
 37 81  1  0  0  0  0
 37 87  2  0  0  0  0
 38 43  1  0  0  0  0
 39 53  1  0  0  0  0
 40 44  1  0  0  0  0
 41 75  1  0  0  0  0
 42 45  1  0  0  0  0
 43 48  1  0  0  0  0
 44 46  1  0  0  0  0
 45 46  1  0  0  0  0
 47 49  1  0  0  0  0
 47 50  1  0  0  0  0
 48 52  1  0  0  0  0
 49 54  1  0  0  0  0
 50 76  1  0  0  0  0
 51 54  1  0  0  0  0
 51 76  1  0  0  0  0
 52 79  1  0  0  0  0
 53 75  1  0  0  0  0
 54 74  1  0  0  0  0
 55 70  1  0  0  0  0
 56 71  1  0  0  0  0
 57 71  1  0  0  0  0
 58 71  1  0  0  0  0
 59 82  1  0  0  0  0
 60 62  1  0  0  0  0
 61 63  1  0  0  0  0
 62 64  1  0  0  0  0
 63 68  1  0  0  0  0
 64 65  1  0  0  0  0
 65 66  1  0  0  0  0
 66 67  1  0  0  0  0
 67 81  1  0  0  0  0
 68 89  1  0  0  0  0
 69 71  1  0  0  0  0
 69 80  1  0  0  0  0
 70 82  1  0  0  0  0
 72 74  1  0  0  0  0
M  CHG  1  82   1
M  ISO  4  37 100  68 101  81 100  89 101
M  END
> <Batch ID>
0038

> <Smiles>
CNC(C)C(=O)NC(C(=O)N1Cc2cc([101O:1][101CH2:1]CCc3nc4c(cc3CCCCCC[100NH:0][100C:0](=O)N3CCCC(n5nc(-c6ccc(Oc7ccc(F)cc7F)cc6)c(C(N)=O)c5N)C3)CCCCC4)ccc2CC1C(=O)NC1CCCc2ccccc21)C(C)(C)C

> <Shape>
0.220

> <Color>
0.177

> <Negative vol penalty>
0.000

$$$$

  -OEChem-04052317013D

 87 95  0     1  0  0  0  0  0999 V2000
  -22.0021  -11.2993   20.1363 C   0  0  0  0  0  0  0  0  0  0  0  0
  -21.7786  -12.4471   20.8901 C   0  0  0  0  0  0  0  0  0  0  0  0
  -19.8928  -26.1656   18.4148 C   0  0  0  0  0  0  0  0  0  0  0  0
  -20.4897  -24.6891   20.2316 C   0  0  0  0  0  0  0  0  0  0  0  0
  -23.2987  -10.9614   19.7509 C   0  0  0  0  0  0  0  0  0  0  0  0
  -22.8518  -13.2570   21.2597 C   0  0  0  0  0  0  0  0  0  0  0  0
  -22.8419  -19.3563   21.8115 C   0  0  0  0  0  0  0  0  0  0  0  0
  -19.3817  -25.0813   17.7015 C   0  0  0  0  0  0  0  0  0  0  0  0
  -19.9786  -23.6048   19.5183 C   0  0  0  0  0  0  0  0  0  0  0  0
  -22.7188  -20.1980   22.9161 C   0  0  0  0  0  0  0  0  0  0  0  0
  -19.1579  -20.3938   18.0264 C   0  0  0  0  0  0  0  0  0  0  0  0
  -19.9185  -19.2252   17.9899 C   0  0  0  0  0  0  0  0  0  0  0  0
  -25.1215  -20.3722   23.0436 C   0  0  0  0  0  0  0  0  0  0  0  0
  -22.8791  -22.3052   27.4870 C   0  0  0  0  0  0  0  0  0  0  0  0
  -21.7273  -20.4354   16.9407 C   0  0  0  0  0  0  0  0  0  0  0  0
  -22.1990  -24.1071   26.0916 C   0  0  0  0  0  0  0  0  0  0  0  0
  -20.4469  -25.9695   19.6798 C   0  0  0  0  0  0  0  0  0  0  0  0
  -20.2809  -27.9174   21.3186 C   0  0  0  0  0  0  0  0  0  0  0  0
  -24.3872  -11.7728   20.1078 C   0  0  0  0  0  0  0  0  0  0  0  0
  -24.1081  -19.0069   21.3205 C   0  0  0  0  0  0  0  0  0  0  0  0
  -24.1643  -12.9289   20.8799 C   0  0  0  0  0  0  0  0  0  0  0  0
  -25.2579  -19.5280   21.9310 C   0  0  0  0  0  0  0  0  0  0  0  0
  -22.4999  -22.7617   26.2296 C   0  0  0  0  0  0  0  0  0  0  0  0
  -22.9449  -23.1955   28.5530 C   0  0  0  0  0  0  0  0  0  0  0  0
  -19.4246  -23.8010   18.2533 C   0  0  0  0  0  0  0  0  0  0  0  0
  -23.8587  -20.7038   23.5341 C   0  0  0  0  0  0  0  0  0  0  0  0
  -19.6819  -21.5832   17.5200 C   0  0  0  0  0  0  0  0  0  0  0  0
  -21.2033  -19.2460   17.4471 C   0  0  0  0  0  0  0  0  0  0  0  0
  -20.9666  -21.6040   16.9771 C   0  0  0  0  0  0  0  0  0  0  0  0
  -20.9755  -27.0890   20.4169 C   0  0  0  0  0  0  0  0  0  0  0  0
  -22.6242  -24.5216   28.3110 C   0  0  0  0  0  0  0  0  0  0  0  0
  -21.2207  -28.8229   21.7468 C   0  0  0  0  0  0  0  0  0  0  0  0
  -18.9088  -27.8724   21.7323 C   0  0  0  0  0  0  0  0  0  0  0  0
  -25.7116  -16.2826   20.9877 C   0  0  0  0  0  0  0  0  0  0  0  0
  -27.8556  -18.1833   19.4669 C   0  0  0  0  0  0  0  0  0  0  0  0
  -29.1401  -21.3116   19.0078 C   0  0  0  0  0  0  0  0  0  0  0  0
  -27.1953  -28.6412   22.0963 C   0  0  0  0  0  0  0  0  0  0  0  0
  -25.7760  -11.3413   19.7082 C   0  0  0  0  0  0  0  0  0  0  0  0
  -24.2233  -18.1194   20.1116 C   0  0  0  0  0  0  0  0  0  0  0  0
  -26.6398  -19.1996   21.4301 C   0  0  0  0  0  0  0  0  0  0  0  0
  -26.8158  -12.4532   19.8224 C   0  0  0  0  0  0  0  0  0  0  0  0
  -25.2259  -31.0188   20.3229 C   0  0  0  0  0  0  0  0  0  0  0  0
  -26.6755  -13.1803   21.1560 C   0  0  0  0  0  0  0  0  0  0  0  0
  -23.8506  -30.3560   20.2273 C   0  0  0  0  0  0  0  0  0  0  0  0
  -26.3544  -29.9972   20.2014 C   0  0  0  0  0  0  0  0  0  0  0  0
  -24.8929  -28.2017   21.0464 C   0  0  0  0  0  0  0  0  0  0  0  0
  -25.2997  -13.8462   21.2793 C   0  0  1  0  0  0  0  0  0  0  0  0
  -25.5741  -17.4173   20.0124 C   0  0  1  0  0  0  0  0  0  0  0  0
  -23.7224  -29.1846   21.2196 C   0  0  2  0  0  0  0  0  0  0  0  0
  -23.3487  -22.7127   29.9032 C   0  0  0  0  0  0  0  0  0  0  0  0
  -30.9117  -22.5454   17.7286 C   0  0  0  0  0  0  0  0  0  0  0  0
  -29.9835  -17.0819   21.3561 C   0  0  0  0  0  0  0  0  0  0  0  0
  -31.4617  -18.9901   20.6915 C   0  0  0  0  0  0  0  0  0  0  0  0
  -30.7253  -17.3307   18.9808 C   0  0  0  0  0  0  0  0  0  0  0  0
  -27.1357  -23.0036   17.6373 C   0  0  0  0  0  0  0  0  0  0  0  0
  -22.4199  -21.8271   25.0585 C   0  0  0  0  0  0  0  0  0  1  0  0
  -22.6781  -25.5230   29.4182 C   0  0  0  0  0  0  0  0  0  0  0  0
  -23.0527  -26.9460   28.9681 C   0  0  0  0  0  0  0  0  0  0  0  0
  -24.4223  -27.0118   28.2834 C   0  0  0  0  0  0  0  0  0  0  0  0
  -24.7425  -28.4365   27.8240 C   0  0  0  0  0  0  0  0  0  0  0  0
  -26.1321  -28.5752   27.1951 C   0  0  0  0  0  0  0  0  0  0  0  0
  -26.3057  -27.7546   25.9141 C   0  0  0  0  0  0  0  0  0  0  0  0
  -27.7012  -27.9562   25.3138 C   0  0  0  0  0  0  0  0  0  0  0  0
  -27.8928  -27.2075   23.9982 C   0  0  0  0  0  0  0  0  0  0  0  0
  -29.0550  -18.9954   19.8924 C   0  0  1  0  0  0  0  0  0  0  0  0
  -29.4595  -22.0943   17.7470 C   0  0  2  0  0  0  0  0  0  0  0  0
  -30.2805  -18.1043   20.2411 C   0  0  0  0  0  0  0  0  0  0  0  0
  -22.2516  -25.0021   27.1035 N   0  0  0  0  0  0  0  0  0  0  0  0
  -22.2576  -27.4374   20.2794 N   0  0  0  0  0  0  0  0  0  0  0  0
  -22.3760  -28.4948   21.1004 N   0  0  0  0  0  0  0  0  0  0  0  0
  -26.7004  -18.3226   20.2491 N   0  0  0  0  0  0  0  0  0  0  0  0
  -26.1745  -28.9137   21.1707 N   0  0  0  0  0  0  0  0  0  0  0  0
  -21.1633  -29.8598   22.6093 N   0  0  0  0  0  0  0  0  0  0  0  0
  -18.0812  -26.8773   21.1946 N   0  0  0  0  0  0  0  0  0  0  0  0
  -25.2590  -15.0690   20.5063 N   0  0  0  0  0  0  0  0  0  0  0  0
  -29.2993  -19.9548   18.8208 N   0  0  0  0  0  0  0  0  0  0  0  0
  -26.9413  -27.6024   22.9835 N   0  0  0  0  0  0  0  0  0  0  0  0
  -28.5910  -23.3017   17.6529 N   0  3  0  0  0  0  0  0  0  0  0  0
  -18.4269  -28.7005   22.5419 O   0  0  0  0  0  0  0  0  0  0  0  0
  -26.1940  -16.4923   22.0945 O   0  0  0  0  0  0  0  0  0  0  0  0
  -27.9384  -17.4577   18.4728 O   0  0  0  0  0  0  0  0  0  0  0  0
  -28.7885  -21.8502   20.0551 O   0  0  0  0  0  0  0  0  0  0  0  0
  -28.2524  -29.2800   22.1329 O   0  0  0  0  0  0  0  0  0  0  0  0
  -18.9257  -22.7427   17.5576 O   0  0  0  0  0  0  0  0  0  0  0  0
  -23.7414  -21.5250   24.6129 O   0  0  0  0  0  0  0  0  0  1  0  0
  -21.9342  -18.1241   17.4135 F   0  0  0  0  0  0  0  0  0  0  0  0
  -21.4759  -22.7439   16.4902 F   0  0  0  0  0  0  0  0  0  0  0  0
  1  2  1  0  0  0  0
  1  5  2  0  0  0  0
  2  6  2  0  0  0  0
  3  8  2  0  0  0  0
  3 17  1  0  0  0  0
  4  9  1  0  0  0  0
  4 17  2  0  0  0  0
  5 19  1  0  0  0  0
  6 21  1  0  0  0  0
  7 10  2  0  0  0  0
  7 20  1  0  0  0  0
  8 25  1  0  0  0  0
  9 25  2  0  0  0  0
 10 26  1  0  0  0  0
 11 12  2  0  0  0  0
 11 27  1  0  0  0  0
 12 28  1  0  0  0  0
 13 22  1  0  0  0  0
 13 26  2  0  0  0  0
 14 23  2  0  0  0  0
 14 24  1  0  0  0  0
 15 28  2  0  0  0  0
 15 29  1  0  0  0  0
 16 23  1  0  0  0  0
 16 68  2  0  0  0  0
 17 30  1  0  0  0  0
 18 30  1  0  0  0  0
 18 32  2  0  0  0  0
 18 33  1  0  0  0  0
 19 21  2  0  0  0  0
 19 38  1  0  0  0  0
 20 22  2  0  0  0  0
 20 39  1  0  0  0  0
 21 47  1  0  0  0  0
 22 40  1  0  0  0  0
 23 56  1  0  0  0  0
 24 31  2  0  0  0  0
 24 50  1  0  0  0  0
 25 84  1  0  0  0  0
 26 85  1  0  0  0  0
 27 29  2  0  0  0  0
 27 84  1  0  0  0  0
 28 86  1  0  0  0  0
 29 87  1  0  0  0  0
 30 69  2  0  0  0  0
 31 57  1  0  0  0  0
 31 68  1  0  0  0  0
 32 70  1  0  0  0  0
 32 73  1  0  0  0  0
 33 74  1  0  0  0  0
 33 79  2  0  0  0  0
 34 48  1  0  0  0  0
 34 75  1  0  0  0  0
 34 80  2  0  0  0  0
 35 65  1  0  0  0  0
 35 71  1  0  0  0  0
 35 81  2  0  0  0  0
 36 66  1  0  0  0  0
 36 76  1  0  0  0  0
 36 82  2  0  0  0  0
 37 72  1  0  0  0  0
 37 77  1  0  0  0  0
 37 83  2  0  0  0  0
 38 41  1  0  0  0  0
 39 48  1  0  0  0  0
 40 71  1  0  0  0  0
 41 43  1  0  0  0  0
 42 44  1  0  0  0  0
 42 45  1  0  0  0  0
 43 47  1  0  0  0  0
 44 49  1  0  0  0  0
 45 72  1  0  0  0  0
 46 49  1  0  0  0  0
 46 72  1  0  0  0  0
 47 75  1  0  0  0  0
 48 71  1  0  0  0  0
 49 70  1  0  0  0  0
 51 66  1  0  0  0  0
 52 67  1  0  0  0  0
 53 67  1  0  0  0  0
 54 67  1  0  0  0  0
 55 78  1  0  0  0  0
 56 85  1  0  0  0  0
 57 58  1  0  0  0  0
 58 59  1  0  0  0  0
 59 60  1  0  0  0  0
 60 61  1  0  0  0  0
 61 62  1  0  0  0  0
 62 63  1  0  0  0  0
 63 64  1  0  0  0  0
 64 77  1  0  0  0  0
 65 67  1  0  0  0  0
 65 76  1  0  0  0  0
 66 78  1  0  0  0  0
 69 70  1  0  0  0  0
M  CHG  1  78   1
M  ISO  4  37 100  56 101  77 100  85 101
M  END
> <Batch ID>
0038

> <Smiles>
CNC(C)C(=O)NC(C(=O)N1Cc2cc([101O:1][101CH2:1]c3cnc(CCCCCCCC[100NH:0][100C:0](=O)N4CCCC(n5nc(-c6ccc(Oc7ccc(F)cc7F)cc6)c(C(N)=O)c5N)C4)c(C)c3)ccc2CC1C(=O)NC1CCCc2ccccc21)C(C)(C)C

> <Shape>
0.195

> <Color>
0.066

> <Negative vol penalty>
0.000

$$$$

  -OEChem-04052317013D

 89 97  0     1  0  0  0  0  0999 V2000
  -29.5261  -34.8581   26.4676 C   0  0  0  0  0  0  0  0  0  0  0  0
  -29.4000  -33.6067   25.8729 C   0  0  0  0  0  0  0  0  0  0  0  0
  -24.4485   -9.2417   21.9675 C   0  0  0  0  0  0  0  0  0  0  0  0
  -22.8560  -10.2724   20.4712 C   0  0  0  0  0  0  0  0  0  0  0  0
  -28.3897  -35.6234   26.7262 C   0  0  0  0  0  0  0  0  0  0  0  0
  -28.1373  -33.1194   25.5375 C   0  0  0  0  0  0  0  0  0  0  0  0
  -28.0187  -31.0465   20.9187 C   0  0  0  0  0  0  0  0  0  0  0  0
  -23.7048   -8.0618   21.9463 C   0  0  0  0  0  0  0  0  0  0  0  0
  -22.1123   -9.0925   20.4500 C   0  0  0  0  0  0  0  0  0  0  0  0
  -28.5424  -29.7615   20.7838 C   0  0  0  0  0  0  0  0  0  0  0  0
  -20.8939   -6.8636   23.3912 C   0  0  0  0  0  0  0  0  0  0  0  0
  -20.6604   -6.2236   24.6084 C   0  0  0  0  0  0  0  0  0  0  0  0
  -26.3093  -28.8513   20.8457 C   0  0  0  0  0  0  0  0  0  0  0  0
  -21.7974   -4.2547   23.7914 C   0  0  0  0  0  0  0  0  0  0  0  0
  -24.0241  -10.3470   21.2299 C   0  0  0  0  0  0  0  0  0  0  0  0
  -25.8399  -11.9265   20.3841 C   0  0  0  0  0  0  0  0  0  0  0  0
  -27.1132  -35.1493   26.3850 C   0  0  0  0  0  0  0  0  0  0  0  0
  -26.6346  -31.2430   21.0292 C   0  0  0  0  0  0  0  0  0  0  0  0
  -26.9827  -33.8785   25.7931 C   0  0  0  0  0  0  0  0  0  0  0  0
  -25.7703  -30.1400   20.9793 C   0  0  0  0  0  0  0  0  0  0  0  0
  -22.5367   -7.9872   21.1876 C   0  0  0  0  0  0  0  0  0  0  0  0
  -27.6879  -28.6634   20.7502 C   0  0  0  0  0  0  0  0  0  0  0  0
  -21.5791   -6.1990   22.3741 C   0  0  0  0  0  0  0  0  0  0  0  0
  -21.1122   -4.9192   24.8085 C   0  0  0  0  0  0  0  0  0  0  0  0
  -22.0309   -4.8946   22.5741 C   0  0  0  0  0  0  0  0  0  0  0  0
  -24.7916  -11.5662   21.2518 C   0  0  0  0  0  0  0  0  0  0  0  0
  -30.6185  -23.2697   20.0428 C   0  0  0  0  0  0  0  0  0  0  0  0
  -30.6699  -24.1490   18.9837 C   0  0  0  0  0  0  0  0  0  0  0  0
  -29.9226  -24.9622   21.4142 C   0  0  0  0  0  0  0  0  0  0  0  0
  -29.9746  -25.8417   20.3553 C   0  0  0  0  0  0  0  0  0  0  0  0
  -26.2340  -13.1684   20.8187 C   0  0  0  0  0  0  0  0  0  0  0  0
  -26.4067  -11.2033   19.2834 C   0  0  0  0  0  0  0  0  0  0  0  0
  -24.7109  -32.4497   23.2533 C   0  0  0  0  0  0  0  0  0  0  0  0
  -22.4482  -32.0352   20.9662 C   0  0  0  0  0  0  0  0  0  0  0  0
  -21.4414  -30.3888   18.1515 C   0  0  0  0  0  0  0  0  0  0  0  0
  -23.3375  -17.4281   23.7032 C   0  0  0  0  0  0  0  0  0  0  0  0
  -25.9104  -35.9924   26.7273 C   0  0  0  0  0  0  0  0  0  0  0  0
  -26.0838  -32.6377   21.1472 C   0  0  0  0  0  0  0  0  0  0  0  0
  -24.2756  -30.2989   21.0736 C   0  0  0  0  0  0  0  0  0  0  0  0
  -24.6389  -35.5635   25.9994 C   0  0  0  0  0  0  0  0  0  0  0  0
  -26.4249  -15.8677   24.7665 C   0  0  0  0  0  0  0  0  0  0  0  0
  -24.4653  -34.0499   26.0749 C   0  0  0  0  0  0  0  0  0  0  0  0
  -26.4487  -14.6131   23.8915 C   0  0  0  0  0  0  0  0  0  0  0  0
  -25.0060  -16.1991   25.2193 C   0  0  0  0  0  0  0  0  0  0  0  0
  -24.0470  -15.1005   23.2326 C   0  0  0  0  0  0  0  0  0  0  0  0
  -25.6321  -33.3260   25.3921 C   0  0  1  0  0  0  0  0  0  0  0  0
  -24.6911  -32.6794   21.7686 C   0  0  1  0  0  0  0  0  0  0  0  0
  -25.4507  -14.7253   22.7238 C   0  0  2  0  0  0  0  0  0  0  0  0
  -30.9758  -21.8322   19.8780 C   0  0  0  0  0  0  0  0  0  0  0  0
  -31.3755  -24.8768   16.6905 C   0  0  0  0  0  0  0  0  0  0  0  0
  -19.5280  -30.2398   16.5347 C   0  0  0  0  0  0  0  0  0  0  0  0
  -20.8348  -30.4630   23.0242 C   0  0  0  0  0  0  0  0  0  0  0  0
  -19.4499  -29.5587   21.1446 C   0  0  0  0  0  0  0  0  0  0  0  0
  -19.4823  -32.0111   21.5999 C   0  0  0  0  0  0  0  0  0  0  0  0
  -23.1497  -31.2017   15.8756 C   0  0  0  0  0  0  0  0  0  0  0  0
  -31.0848  -23.7034   17.6232 C   0  0  0  0  0  0  0  0  0  0  0  0
  -29.5064  -25.4073   22.7745 C   0  0  0  0  0  0  0  0  0  0  0  0
  -29.6152  -27.2889   20.5217 C   0  0  0  0  0  0  0  0  0  1  0  0
  -28.7857  -24.3290   23.6049 C   0  0  0  0  0  0  0  0  0  0  0  0
  -27.5099  -23.8140   22.9295 C   0  0  0  0  0  0  0  0  0  0  0  0
  -26.8412  -22.7235   23.7704 C   0  0  0  0  0  0  0  0  0  0  0  0
  -25.5216  -22.2211   23.1771 C   0  0  0  0  0  0  0  0  0  0  0  0
  -24.8155  -21.1831   24.0537 C   0  0  0  0  0  0  0  0  0  0  0  0
  -23.4890  -20.7410   23.4265 C   0  0  0  0  0  0  0  0  0  0  0  0
  -22.7203  -19.7557   24.3020 C   0  0  0  0  0  0  0  0  0  0  0  0
  -21.5164  -30.9137   20.5750 C   0  0  1  0  0  0  0  0  0  0  0  0
  -20.8665  -30.8938   16.8405 C   0  0  2  0  0  0  0  0  0  0  0  0
  -20.3491  -30.7331   21.5861 C   0  0  0  0  0  0  0  0  0  0  0  0
  -24.5360  -12.5033   22.1686 N   0  0  0  0  0  0  0  0  0  0  0  0
  -30.2439  -23.6605   21.2771 N   0  0  0  0  0  0  0  0  0  0  0  0
  -30.3489  -25.4508   19.1210 N   0  0  0  0  0  0  0  0  0  0  0  0
  -25.4294  -13.4647   21.8794 N   0  0  0  0  0  0  0  0  0  0  0  0
  -23.7858  -31.6821   21.1942 N   0  0  0  0  0  0  0  0  0  0  0  0
  -24.1105  -16.3104   24.0592 N   0  0  0  0  0  0  0  0  0  0  0  0
  -27.1869  -14.0248   20.3934 N   0  0  0  0  0  0  0  0  0  0  0  0
  -25.8829   -9.9410   18.9727 N   0  0  0  0  0  0  0  0  0  0  0  0
  -25.4768  -33.3620   23.9536 N   0  0  0  0  0  0  0  0  0  0  0  0
  -21.0863  -31.1977   19.2102 N   0  0  0  0  0  0  0  0  0  0  0  0
  -23.4495  -18.5302   24.5420 N   0  0  0  0  0  0  0  0  0  0  0  0
  -21.8009  -30.5993   15.7175 N   0  3  0  0  0  0  0  0  0  0  0  0
  -27.3607  -11.6558   18.6062 O   0  0  0  0  0  0  0  0  0  0  0  0
  -24.0769  -31.5149   23.7285 O   0  0  0  0  0  0  0  0  0  0  0  0
  -22.0070  -33.1834   21.0590 O   0  0  0  0  0  0  0  0  0  0  0  0
  -22.1330  -29.3758   18.2293 O   0  0  0  0  0  0  0  0  0  0  0  0
  -22.6054  -17.4447   22.7079 O   0  0  0  0  0  0  0  0  0  0  0  0
  -21.8108   -6.8360   21.1665 O   0  0  0  0  0  0  0  0  0  0  0  0
  -28.1966  -27.4080   20.6194 O   0  0  0  0  0  0  0  0  0  1  0  0
  -20.8892   -4.3054   25.9780 F   0  0  0  0  0  0  0  0  0  0  0  0
  -22.6908   -4.2516   21.6011 F   0  0  0  0  0  0  0  0  0  0  0  0
  1  2  1  0  0  0  0
  1  5  2  0  0  0  0
  2  6  2  0  0  0  0
  3  8  2  0  0  0  0
  3 15  1  0  0  0  0
  4  9  1  0  0  0  0
  4 15  2  0  0  0  0
  5 17  1  0  0  0  0
  6 19  1  0  0  0  0
  7 10  2  0  0  0  0
  7 18  1  0  0  0  0
  8 21  1  0  0  0  0
  9 21  2  0  0  0  0
 10 22  1  0  0  0  0
 11 12  2  0  0  0  0
 11 23  1  0  0  0  0
 12 24  1  0  0  0  0
 13 20  1  0  0  0  0
 13 22  2  0  0  0  0
 14 24  2  0  0  0  0
 14 25  1  0  0  0  0
 15 26  1  0  0  0  0
 16 26  1  0  0  0  0
 16 31  2  0  0  0  0
 16 32  1  0  0  0  0
 17 19  2  0  0  0  0
 17 37  1  0  0  0  0
 18 20  2  0  0  0  0
 18 38  1  0  0  0  0
 19 46  1  0  0  0  0
 20 39  1  0  0  0  0
 21 86  1  0  0  0  0
 22 87  1  0  0  0  0
 23 25  2  0  0  0  0
 23 86  1  0  0  0  0
 24 88  1  0  0  0  0
 25 89  1  0  0  0  0
 26 69  2  0  0  0  0
 27 28  2  0  0  0  0
 27 49  1  0  0  0  0
 27 70  1  0  0  0  0
 28 56  1  0  0  0  0
 28 71  1  0  0  0  0
 29 30  1  0  0  0  0
 29 57  1  0  0  0  0
 29 70  2  0  0  0  0
 30 58  1  0  0  0  0
 30 71  2  0  0  0  0
 31 72  1  0  0  0  0
 31 75  1  0  0  0  0
 32 76  1  0  0  0  0
 32 81  2  0  0  0  0
 33 47  1  0  0  0  0
 33 77  1  0  0  0  0
 33 82  2  0  0  0  0
 34 66  1  0  0  0  0
 34 73  1  0  0  0  0
 34 83  2  0  0  0  0
 35 67  1  0  0  0  0
 35 78  1  0  0  0  0
 35 84  2  0  0  0  0
 36 74  1  0  0  0  0
 36 79  1  0  0  0  0
 36 85  2  0  0  0  0
 37 40  1  0  0  0  0
 38 47  1  0  0  0  0
 39 73  1  0  0  0  0
 40 42  1  0  0  0  0
 41 43  1  0  0  0  0
 41 44  1  0  0  0  0
 42 46  1  0  0  0  0
 43 48  1  0  0  0  0
 44 74  1  0  0  0  0
 45 48  1  0  0  0  0
 45 74  1  0  0  0  0
 46 77  1  0  0  0  0
 47 73  1  0  0  0  0
 48 72  1  0  0  0  0
 50 56  1  0  0  0  0
 51 67  1  0  0  0  0
 52 68  1  0  0  0  0
 53 68  1  0  0  0  0
 54 68  1  0  0  0  0
 55 80  1  0  0  0  0
 57 59  1  0  0  0  0
 58 87  1  0  0  0  0
 59 60  1  0  0  0  0
 60 61  1  0  0  0  0
 61 62  1  0  0  0  0
 62 63  1  0  0  0  0
 63 64  1  0  0  0  0
 64 65  1  0  0  0  0
 65 79  1  0  0  0  0
 66 68  1  0  0  0  0
 66 78  1  0  0  0  0
 67 80  1  0  0  0  0
 69 72  1  0  0  0  0
M  CHG  1  80   1
M  ISO  4  36 100  58 101  79 100  87 101
M  END
> <Batch ID>
0038

> <Smiles>
CCc1nc([101CH2:1][101O:1]c2ccc3c(c2)CN(C(=O)C(NC(=O)C(C)NC)C(C)(C)C)C(C(=O)NC2CCCc4ccccc42)C3)c(CCCCCCCC[100NH:0][100C:0](=O)N2CCCC(n3nc(-c4ccc(Oc5ccc(F)cc5F)cc4)c(C(N)=O)c3N)C2)nc1C

> <Shape>
0.270

> <Color>
0.115

> <Negative vol penalty>
0.000

$$$$

  -OEChem-04052317013D

 89 97  0     1  0  0  0  0  0999 V2000
  -17.0479  -29.2756   24.3450 C   0  0  0  0  0  0  0  0  0  0  0  0
  -17.3908  -28.1661   23.5790 C   0  0  0  0  0  0  0  0  0  0  0  0
  -26.6055  -14.0582   21.7308 C   0  0  0  0  0  0  0  0  0  0  0  0
  -26.2518  -14.2224   19.3465 C   0  0  0  0  0  0  0  0  0  0  0  0
  -17.7738  -30.4593   24.2194 C   0  0  0  0  0  0  0  0  0  0  0  0
  -18.4592  -28.2401   22.6860 C   0  0  0  0  0  0  0  0  0  0  0  0
  -22.3744  -23.7551   21.2503 C   0  0  0  0  0  0  0  0  0  0  0  0
  -25.7848  -12.9312   21.7749 C   0  0  0  0  0  0  0  0  0  0  0  0
  -25.4311  -13.0953   19.3906 C   0  0  0  0  0  0  0  0  0  0  0  0
  -22.4333  -22.8700   20.1746 C   0  0  0  0  0  0  0  0  0  0  0  0
  -24.0730   -9.7978   22.4578 C   0  0  0  0  0  0  0  0  0  0  0  0
  -24.5130   -8.7039   23.2031 C   0  0  0  0  0  0  0  0  0  0  0  0
  -23.9894  -24.3379   19.0597 C   0  0  0  0  0  0  0  0  0  0  0  0
  -26.4767   -8.5413   21.8052 C   0  0  0  0  0  0  0  0  0  0  0  0
  -20.7457  -23.2876   15.4169 C   0  0  0  0  0  0  0  0  0  0  0  0
  -26.8389  -14.7039   20.5165 C   0  0  0  0  0  0  0  0  0  0  0  0
  -29.0785  -15.8992   20.2657 C   0  0  0  0  0  0  0  0  0  0  0  0
  -18.8577  -30.5449   23.3315 C   0  0  0  0  0  0  0  0  0  0  0  0
  -23.1154  -24.9455   21.2339 C   0  0  0  0  0  0  0  0  0  0  0  0
  -19.1994  -29.4265   22.5474 C   0  0  0  0  0  0  0  0  0  0  0  0
  -23.9401  -25.2352   20.1375 C   0  0  0  0  0  0  0  0  0  0  0  0
  -21.9196  -22.5644   15.4736 C   0  0  0  0  0  0  0  0  0  0  0  0
  -25.1977  -12.4497   20.6049 C   0  0  0  0  0  0  0  0  0  0  0  0
  -23.2386  -23.1627   19.0779 C   0  0  0  0  0  0  0  0  0  0  0  0
  -24.8348  -10.2633   21.3860 C   0  0  0  0  0  0  0  0  0  0  0  0
  -25.7149   -8.0757   22.8768 C   0  0  0  0  0  0  0  0  0  0  0  0
  -26.0367   -9.6351   21.0598 C   0  0  0  0  0  0  0  0  0  0  0  0
  -27.6861  -15.8684   20.4704 C   0  0  0  0  0  0  0  0  0  0  0  0
  -22.9826  -23.0958   14.7722 C   0  0  0  0  0  0  0  0  0  0  0  0
  -29.4026  -17.2332   20.3087 C   0  0  0  0  0  0  0  0  0  0  0  0
  -21.7170  -24.8561   14.0891 C   0  0  0  0  0  0  0  0  0  0  0  0
  -29.9970  -14.8184   20.0555 C   0  0  0  0  0  0  0  0  0  0  0  0
  -22.3911  -28.0397   21.3053 C   0  0  0  0  0  0  0  0  0  0  0  0
  -25.6093  -28.3893   21.5136 C   0  0  0  0  0  0  0  0  0  0  0  0
  -28.7090  -27.0893   20.9236 C   0  0  0  0  0  0  0  0  0  0  0  0
  -28.3900  -22.5354   18.8922 C   0  0  0  0  0  0  0  0  0  0  0  0
  -19.5828  -31.8603   23.1957 C   0  0  0  0  0  0  0  0  0  0  0  0
  -23.0616  -25.8769   22.4137 C   0  0  0  0  0  0  0  0  0  0  0  0
  -24.7709  -26.4901   20.0799 C   0  0  0  0  0  0  0  0  0  0  0  0
  -20.9363  -31.7408   22.4999 C   0  0  0  0  0  0  0  0  0  0  0  0
  -26.6629  -21.2427   21.7247 C   0  0  0  0  0  0  0  0  0  0  0  0
  -20.8164  -30.8854   21.2426 C   0  0  0  0  0  0  0  0  0  0  0  0
  -26.8848  -19.7321   21.6303 C   0  0  0  0  0  0  0  0  0  0  0  0
  -26.4952  -21.8757   20.3451 C   0  0  0  0  0  0  0  0  0  0  0  0
  -27.8021  -20.0682   19.2970 C   0  0  0  0  0  0  0  0  0  0  0  0
  -20.3675  -29.4599   21.5858 C   0  0  1  0  0  0  0  0  0  0  0  0
  -23.4610  -27.3072   22.0645 C   0  0  1  0  0  0  0  0  0  0  0  0
  -28.0325  -19.3934   20.6601 C   0  0  2  0  0  0  0  0  0  0  0  0
  -22.2483  -27.3062   14.0496 C   0  0  0  0  0  0  0  0  0  0  0  0
  -31.1486  -27.6240   21.1681 C   0  0  0  0  0  0  0  0  0  0  0  0
  -25.4340  -30.2728   19.1195 C   0  0  0  0  0  0  0  0  0  0  0  0
  -27.9069  -30.0159   18.8247 C   0  0  0  0  0  0  0  0  0  0  0  0
  -27.0000  -31.0186   20.9211 C   0  0  0  0  0  0  0  0  0  0  0  0
  -29.1569  -24.7718   22.7090 C   0  0  0  0  0  0  0  0  0  0  0  0
  -22.0082  -21.2784   16.2588 C   0  0  0  0  0  0  0  0  0  0  0  0
  -24.3034  -22.3995   14.7619 C   0  0  0  0  0  0  0  0  0  0  0  0
  -21.6049  -26.1294   13.3207 C   0  0  0  0  0  0  0  0  0  0  0  0
  -25.4671  -23.2543   14.2290 C   0  0  0  0  0  0  0  0  0  0  0  0
  -26.8011  -22.4999   14.2156 C   0  0  0  0  0  0  0  0  0  0  0  0
  -27.9242  -23.3733   13.6507 C   0  0  0  0  0  0  0  0  0  0  0  0
  -29.2965  -22.6937   13.6793 C   0  0  0  0  0  0  0  0  0  0  0  0
  -29.7239  -22.2427   15.0786 C   0  0  0  0  0  0  0  0  0  0  0  0
  -29.8366  -23.4362   16.0333 C   0  0  0  0  0  0  0  0  0  0  0  0
  -30.3257  -23.0379   17.4227 C   0  0  0  0  0  0  0  0  0  0  0  0
  -22.1319  -21.5222   17.7589 C   0  0  0  0  0  0  0  0  0  1  0  0
  -26.7353  -28.5366   20.5189 C   0  0  1  0  0  0  0  0  0  0  0  0
  -29.9358  -26.9679   21.8095 C   0  0  2  0  0  0  0  0  0  0  0  0
  -26.7520  -29.9382   19.8460 C   0  0  0  0  0  0  0  0  0  0  0  0
  -20.6086  -24.4417   14.7317 N   0  0  0  0  0  0  0  0  0  0  0  0
  -27.1616  -17.0862   20.6316 N   0  0  0  0  0  0  0  0  0  0  0  0
  -22.9162  -24.2438   14.0664 N   0  0  0  0  0  0  0  0  0  0  0  0
  -28.2302  -17.8946   20.5283 N   0  0  0  0  0  0  0  0  0  0  0  0
  -24.6795  -27.3722   21.2551 N   0  0  0  0  0  0  0  0  0  0  0  0
  -27.6172  -21.5171   19.4743 N   0  0  0  0  0  0  0  0  0  0  0  0
  -30.5731  -17.8932   20.1798 N   0  0  0  0  0  0  0  0  0  0  0  0
  -29.4963  -13.5095   20.0404 N   0  0  0  0  0  0  0  0  0  0  0  0
  -21.4772  -28.6930   22.1099 N   0  0  0  0  0  0  0  0  0  0  0  0
  -27.9607  -28.2041   21.2373 N   0  0  0  0  0  0  0  0  0  0  0  0
  -29.4380  -22.1089   18.0857 N   0  0  0  0  0  0  0  0  0  0  0  0
  -30.2544  -25.5337   22.0595 N   0  3  0  0  0  0  0  0  0  0  0  0
  -31.2277  -15.0068   19.9025 O   0  0  0  0  0  0  0  0  0  0  0  0
  -22.3953  -28.0152   20.0801 O   0  0  0  0  0  0  0  0  0  0  0  0
  -25.5606  -29.1442   22.4880 O   0  0  0  0  0  0  0  0  0  0  0  0
  -28.4433  -26.2784   20.0391 O   0  0  0  0  0  0  0  0  0  0  0  0
  -28.1661  -23.7358   19.0819 O   0  0  0  0  0  0  0  0  0  0  0  0
  -24.3970  -11.3499   20.6475 O   0  0  0  0  0  0  0  0  0  0  0  0
  -23.2974  -22.3009   18.0264 O   0  0  0  0  0  0  0  0  0  1  0  0
  -26.1380   -7.0263   23.5936 F   0  0  0  0  0  0  0  0  0  0  0  0
  -26.7735  -10.0786   20.0320 F   0  0  0  0  0  0  0  0  0  0  0  0
  1  2  1  0  0  0  0
  1  5  2  0  0  0  0
  2  6  2  0  0  0  0
  3  8  2  0  0  0  0
  3 16  1  0  0  0  0
  4  9  1  0  0  0  0
  4 16  2  0  0  0  0
  5 18  1  0  0  0  0
  6 20  1  0  0  0  0
  7 10  2  0  0  0  0
  7 19  1  0  0  0  0
  8 23  1  0  0  0  0
  9 23  2  0  0  0  0
 10 24  1  0  0  0  0
 11 12  2  0  0  0  0
 11 25  1  0  0  0  0
 12 26  1  0  0  0  0
 13 21  1  0  0  0  0
 13 24  2  0  0  0  0
 14 26  2  0  0  0  0
 14 27  1  0  0  0  0
 15 22  1  0  0  0  0
 15 69  2  0  0  0  0
 16 28  1  0  0  0  0
 17 28  1  0  0  0  0
 17 30  2  0  0  0  0
 17 32  1  0  0  0  0
 18 20  2  0  0  0  0
 18 37  1  0  0  0  0
 19 21  2  0  0  0  0
 19 38  1  0  0  0  0
 20 46  1  0  0  0  0
 21 39  1  0  0  0  0
 22 29  2  0  0  0  0
 22 55  1  0  0  0  0
 23 86  1  0  0  0  0
 24 87  1  0  0  0  0
 25 27  2  0  0  0  0
 25 86  1  0  0  0  0
 26 88  1  0  0  0  0
 27 89  1  0  0  0  0
 28 70  2  0  0  0  0
 29 56  1  0  0  0  0
 29 71  1  0  0  0  0
 30 72  1  0  0  0  0
 30 75  1  0  0  0  0
 31 57  1  0  0  0  0
 31 69  1  0  0  0  0
 31 71  2  0  0  0  0
 32 76  1  0  0  0  0
 32 81  2  0  0  0  0
 33 47  1  0  0  0  0
 33 77  1  0  0  0  0
 33 82  2  0  0  0  0
 34 66  1  0  0  0  0
 34 73  1  0  0  0  0
 34 83  2  0  0  0  0
 35 67  1  0  0  0  0
 35 78  1  0  0  0  0
 35 84  2  0  0  0  0
 36 74  1  0  0  0  0
 36 79  1  0  0  0  0
 36 85  2  0  0  0  0
 37 40  1  0  0  0  0
 38 47  1  0  0  0  0
 39 73  1  0  0  0  0
 40 42  1  0  0  0  0
 41 43  1  0  0  0  0
 41 44  1  0  0  0  0
 42 46  1  0  0  0  0
 43 48  1  0  0  0  0
 44 74  1  0  0  0  0
 45 48  1  0  0  0  0
 45 74  1  0  0  0  0
 46 77  1  0  0  0  0
 47 73  1  0  0  0  0
 48 72  1  0  0  0  0
 49 57  1  0  0  0  0
 50 67  1  0  0  0  0
 51 68  1  0  0  0  0
 52 68  1  0  0  0  0
 53 68  1  0  0  0  0
 54 80  1  0  0  0  0
 55 65  1  0  0  0  0
 56 58  1  0  0  0  0
 58 59  1  0  0  0  0
 59 60  1  0  0  0  0
 60 61  1  0  0  0  0
 61 62  1  0  0  0  0
 62 63  1  0  0  0  0
 63 64  1  0  0  0  0
 64 79  1  0  0  0  0
 65 87  1  0  0  0  0
 66 68  1  0  0  0  0
 66 78  1  0  0  0  0
 67 80  1  0  0  0  0
 70 72  1  0  0  0  0
M  CHG  1  80   1
M  ISO  4  36 100  65 101  79 100  87 101
M  END
> <Batch ID>
0038

> <Smiles>
CCc1ncc(C[101CH2:1][101O:1]c2ccc3c(c2)CN(C(=O)C(NC(=O)C(C)NC)C(C)(C)C)C(C(=O)NC2CCCc4ccccc42)C3)c(CCCCCCCC[100NH:0][100C:0](=O)N2CCCC(n3nc(-c4ccc(Oc5ccc(F)cc5F)cc4)c(C(N)=O)c3N)C2)n1

> <Shape>
0.227

> <Color>
0.085

> <Negative vol penalty>
0.000

$$$$

  -OEChem-04052317013D

 84 92  0     1  0  0  0  0  0999 V2000
  -33.7542  -26.4937   29.9667 C   0  0  0  0  0  0  0  0  0  0  0  0
  -33.4970  -25.5515   28.9759 C   0  0  0  0  0  0  0  0  0  0  0  0
  -22.9863   -9.8848   20.0025 C   0  0  0  0  0  0  0  0  0  0  0  0
  -23.7605   -9.9406   22.2904 C   0  0  0  0  0  0  0  0  0  0  0  0
  -32.9012  -27.5848   30.1276 C   0  0  0  0  0  0  0  0  0  0  0  0
  -32.3861  -25.6994   28.1462 C   0  0  0  0  0  0  0  0  0  0  0  0
  -31.9750  -24.1544   22.2343 C   0  0  0  0  0  0  0  0  0  0  0  0
  -22.2285   -8.7488   20.2865 C   0  0  0  0  0  0  0  0  0  0  0  0
  -23.0026   -8.8046   22.5745 C   0  0  0  0  0  0  0  0  0  0  0  0
  -31.4440  -23.0370   21.5916 C   0  0  0  0  0  0  0  0  0  0  0  0
  -23.2451   -5.4656   22.1017 C   0  0  0  0  0  0  0  0  0  0  0  0
  -23.8511   -4.4509   22.8424 C   0  0  0  0  0  0  0  0  0  0  0  0
  -29.3782  -24.2308   21.2357 C   0  0  0  0  0  0  0  0  0  0  0  0
  -29.6238  -18.0566   23.5781 C   0  0  0  0  0  0  0  0  0  0  0  0
  -22.1628   -4.6917   24.5538 C   0  0  0  0  0  0  0  0  0  0  0  0
  -23.7524  -10.4807   21.0044 C   0  0  0  0  0  0  0  0  0  0  0  0
  -24.1276  -12.9970   20.8170 C   0  0  0  0  0  0  0  0  0  0  0  0
  -31.7847  -27.7512   29.2932 C   0  0  0  0  0  0  0  0  0  0  0  0
  -31.2065  -25.3167   22.3924 C   0  0  0  0  0  0  0  0  0  0  0  0
  -31.5167  -26.7930   28.2970 C   0  0  0  0  0  0  0  0  0  0  0  0
  -29.9027  -25.3625   21.8785 C   0  0  0  0  0  0  0  0  0  0  0  0
  -29.9309  -17.7166   22.2654 C   0  0  0  0  0  0  0  0  0  0  0  0
  -29.3729  -18.4398   21.2171 C   0  0  0  0  0  0  0  0  0  0  0  0
  -22.2366   -8.2087   21.5726 C   0  0  0  0  0  0  0  0  0  0  0  0
  -30.1444  -23.0740   21.0947 C   0  0  0  0  0  0  0  0  0  0  0  0
  -22.0980   -6.0935   22.5871 C   0  0  0  0  0  0  0  0  0  0  0  0
  -23.3100   -4.0639   24.0684 C   0  0  0  0  0  0  0  0  0  0  0  0
  -21.5569   -5.7066   23.8131 C   0  0  0  0  0  0  0  0  0  0  0  0
  -24.5359  -11.6539   20.7114 C   0  0  0  0  0  0  0  0  0  0  0  0
  -28.7602  -19.1197   23.7877 C   0  0  0  0  0  0  0  0  0  0  0  0
  -28.5204  -19.4856   21.5324 C   0  0  0  0  0  0  0  0  0  0  0  0
  -25.2275  -13.7218   20.4280 C   0  0  0  0  0  0  0  0  0  0  0  0
  -22.8668  -13.5408   21.2298 C   0  0  0  0  0  0  0  0  0  0  0  0
  -30.1131  -26.9613   24.8831 C   0  0  0  0  0  0  0  0  0  0  0  0
  -29.1521  -29.0447   22.5901 C   0  0  0  0  0  0  0  0  0  0  0  0
  -28.2874  -29.5693   19.3307 C   0  0  0  0  0  0  0  0  0  0  0  0
  -30.7465  -14.5827   20.7121 C   0  0  0  0  0  0  0  0  0  0  0  0
  -30.8649  -28.9216   29.5361 C   0  0  0  0  0  0  0  0  0  0  0  0
  -31.8032  -26.5228   23.0645 C   0  0  0  0  0  0  0  0  0  0  0  0
  -29.0434  -26.5931   22.0045 C   0  0  0  0  0  0  0  0  0  0  0  0
  -29.9192  -29.2048   28.3718 C   0  0  0  0  0  0  0  0  0  0  0  0
  -29.5341  -12.2677   18.2280 C   0  0  0  0  0  0  0  0  0  0  0  0
  -29.2764  -27.9121   27.8795 C   0  0  0  0  0  0  0  0  0  0  0  0
  -28.1046  -11.9827   18.6872 C   0  0  0  0  0  0  0  0  0  0  0  0
  -30.4688  -12.4866   19.4134 C   0  0  0  0  0  0  0  0  0  0  0  0
  -28.5793  -13.2805   20.8120 C   0  0  0  0  0  0  0  0  0  0  0  0
  -30.3356  -26.9318   27.3611 C   0  0  1  0  0  0  0  0  0  0  0  0
  -30.7519  -27.4761   23.6243 C   0  0  1  0  0  0  0  0  0  0  0  0
  -27.6018  -13.0809   19.6410 C   0  0  2  0  0  0  0  0  0  0  0  0
  -28.4092  -19.5137   25.1836 C   0  0  0  0  0  0  0  0  0  0  0  0
  -28.8455  -17.0191   17.6662 C   0  0  0  0  0  0  0  0  0  0  0  0
  -27.5121  -31.3695   17.7635 C   0  0  0  0  0  0  0  0  0  0  0  0
  -26.3520  -28.8810   23.7912 C   0  0  0  0  0  0  0  0  0  0  0  0
  -25.4638  -29.8981   21.6829 C   0  0  0  0  0  0  0  0  0  0  0  0
  -27.0610  -31.1797   23.1074 C   0  0  0  0  0  0  0  0  0  0  0  0
  -30.6844  -29.2737   17.6201 C   0  0  0  0  0  0  0  0  0  0  0  0
  -29.6861  -18.0995   19.7989 C   0  0  0  0  0  0  0  0  0  0  0  0
  -30.8567  -16.5736   22.0092 C   0  0  0  0  0  0  0  0  0  0  0  0
  -27.8850  -20.3085   20.4381 C   0  0  0  0  0  0  0  0  0  0  0  0
  -28.5386  -17.3352   19.1215 C   0  0  0  0  0  0  0  0  0  0  0  0
  -28.2128  -21.7924   20.5638 C   0  0  0  0  0  0  0  0  0  1  0  0
  -27.9054  -29.2166   21.7564 C   0  0  1  0  0  0  0  0  0  0  0  0
  -28.7136  -30.6321   18.3340 C   0  0  2  0  0  0  0  0  0  0  0  0
  -26.7108  -29.7698   22.5836 C   0  0  0  0  0  0  0  0  0  0  0  0
  -25.7967  -11.5300   20.2883 N   0  0  0  0  0  0  0  0  0  0  0  0
  -28.1986  -19.8455   22.7951 N   0  0  0  0  0  0  0  0  0  0  0  0
  -26.1901  -12.8046   20.1246 N   0  0  0  0  0  0  0  0  0  0  0  0
  -29.6696  -27.7444   22.6752 N   0  0  0  0  0  0  0  0  0  0  0  0
  -29.9436  -13.5072   20.3195 N   0  0  0  0  0  0  0  0  0  0  0  0
  -25.4554  -15.0480   20.3193 N   0  0  0  0  0  0  0  0  0  0  0  0
  -21.8448  -12.6545   21.5965 N   0  0  0  0  0  0  0  0  0  0  0  0
  -30.7795  -27.3197   26.0394 N   0  0  0  0  0  0  0  0  0  0  0  0
  -28.2847  -30.0522   20.6222 N   0  0  0  0  0  0  0  0  0  0  0  0
  -29.4641  -30.0125   17.2053 N   0  3  0  0  0  0  0  0  0  0  0  0
  -22.6476  -14.7756   21.2567 O   0  0  0  0  0  0  0  0  0  0  0  0
  -29.0905  -26.2899   24.8108 O   0  0  0  0  0  0  0  0  0  0  0  0
  -29.6526  -30.0292   23.1396 O   0  0  0  0  0  0  0  0  0  0  0  0
  -27.9834  -28.4264   18.9965 O   0  0  0  0  0  0  0  0  0  0  0  0
  -31.9078  -14.7509   20.3442 O   0  0  0  0  0  0  0  0  0  0  0  0
  -21.4970   -7.1003   21.8502 O   0  0  0  0  0  0  0  0  0  0  0  0
  -29.6235  -21.9845   20.4675 O   0  0  0  0  0  0  0  0  0  1  0  0
  -30.1007  -15.4430   21.5600 O   0  0  0  0  0  0  0  0  0  0  0  0
  -23.8912   -3.0884   24.7788 F   0  0  0  0  0  0  0  0  0  0  0  0
  -20.4543   -6.3053   24.2840 F   0  0  0  0  0  0  0  0  0  0  0  0
  1  2  1  0  0  0  0
  1  5  2  0  0  0  0
  2  6  2  0  0  0  0
  3  8  2  0  0  0  0
  3 16  1  0  0  0  0
  4  9  1  0  0  0  0
  4 16  2  0  0  0  0
  5 18  1  0  0  0  0
  6 20  1  0  0  0  0
  7 10  2  0  0  0  0
  7 19  1  0  0  0  0
  8 24  1  0  0  0  0
  9 24  2  0  0  0  0
 10 25  1  0  0  0  0
 11 12  2  0  0  0  0
 11 26  1  0  0  0  0
 12 27  1  0  0  0  0
 13 21  1  0  0  0  0
 13 25  2  0  0  0  0
 14 22  2  0  0  0  0
 14 30  1  0  0  0  0
 15 27  2  0  0  0  0
 15 28  1  0  0  0  0
 16 29  1  0  0  0  0
 17 29  1  0  0  0  0
 17 32  2  0  0  0  0
 17 33  1  0  0  0  0
 18 20  2  0  0  0  0
 18 38  1  0  0  0  0
 19 21  2  0  0  0  0
 19 39  1  0  0  0  0
 20 47  1  0  0  0  0
 21 40  1  0  0  0  0
 22 23  1  0  0  0  0
 22 58  1  0  0  0  0
 23 31  2  0  0  0  0
 23 57  1  0  0  0  0
 24 80  1  0  0  0  0
 25 81  1  0  0  0  0
 26 28  2  0  0  0  0
 26 80  1  0  0  0  0
 27 83  1  0  0  0  0
 28 84  1  0  0  0  0
 29 65  2  0  0  0  0
 30 50  1  0  0  0  0
 30 66  2  0  0  0  0
 31 59  1  0  0  0  0
 31 66  1  0  0  0  0
 32 67  1  0  0  0  0
 32 70  1  0  0  0  0
 33 71  1  0  0  0  0
 33 75  2  0  0  0  0
 34 48  1  0  0  0  0
 34 72  1  0  0  0  0
 34 76  2  0  0  0  0
 35 62  1  0  0  0  0
 35 68  1  0  0  0  0
 35 77  2  0  0  0  0
 36 63  1  0  0  0  0
 36 73  1  0  0  0  0
 36 78  2  0  0  0  0
 37 69  1  0  0  0  0
 37 79  2  0  0  0  0
 37 82  1  0  0  0  0
 38 41  1  0  0  0  0
 39 48  1  0  0  0  0
 40 68  1  0  0  0  0
 41 43  1  0  0  0  0
 42 44  1  0  0  0  0
 42 45  1  0  0  0  0
 43 47  1  0  0  0  0
 44 49  1  0  0  0  0
 45 69  1  0  0  0  0
 46 49  1  0  0  0  0
 46 69  1  0  0  0  0
 47 72  1  0  0  0  0
 48 68  1  0  0  0  0
 49 67  1  0  0  0  0
 51 60  1  0  0  0  0
 52 63  1  0  0  0  0
 53 64  1  0  0  0  0
 54 64  1  0  0  0  0
 55 64  1  0  0  0  0
 56 74  1  0  0  0  0
 57 60  1  0  0  0  0
 58 82  1  0  0  0  0
 59 61  1  0  0  0  0
 61 81  1  0  0  0  0
 62 64  1  0  0  0  0
 62 73  1  0  0  0  0
 63 74  1  0  0  0  0
 65 67  1  0  0  0  0
M  CHG  1  74   1
M  ISO  4  37 100  61 101  81 101  82 100
M  END
> <Batch ID>
0038

> <Smiles>
CCCc1c(C[100O:0][100C:0](=O)N2CCCC(n3nc(-c4ccc(Oc5ccc(F)cc5F)cc4)c(C(N)=O)c3N)C2)cc(C)nc1C[101CH2:1][101O:1]c1ccc2c(c1)CN(C(=O)C(NC(=O)C(C)NC)C(C)(C)C)C(C(=O)NC1CCCc3ccccc31)C2

> <Shape>
0.278

> <Color>
0.201

> <Negative vol penalty>
0.000

$$$$

  -OEChem-04052317013D

 91 99  0     1  0  0  0  0  0999 V2000
  -17.9328  -29.8637   25.3419 C   0  0  0  0  0  0  0  0  0  0  0  0
  -19.3196  -29.8464   25.4507 C   0  0  0  0  0  0  0  0  0  0  0  0
  -27.1749  -17.1407   18.0159 C   0  0  0  0  0  0  0  0  0  0  0  0
  -28.5250  -17.1743   20.0192 C   0  0  0  0  0  0  0  0  0  0  0  0
  -17.3032  -29.1144   24.3488 C   0  0  0  0  0  0  0  0  0  0  0  0
  -20.0777  -29.0789   24.5671 C   0  0  0  0  0  0  0  0  0  0  0  0
  -26.4091  -29.0469   21.2163 C   0  0  0  0  0  0  0  0  0  0  0  0
  -27.9118  -18.2074   17.5014 C   0  0  0  0  0  0  0  0  0  0  0  0
  -29.2620  -18.2410   19.5047 C   0  0  0  0  0  0  0  0  0  0  0  0
  -27.5199  -28.2274   21.0204 C   0  0  0  0  0  0  0  0  0  0  0  0
  -30.9115  -18.6741   16.0124 C   0  0  0  0  0  0  0  0  0  0  0  0
  -31.3260  -18.5942   14.6830 C   0  0  0  0  0  0  0  0  0  0  0  0
  -26.3286  -27.0354   19.2944 C   0  0  0  0  0  0  0  0  0  0  0  0
  -30.0874  -20.6056   14.1758 C   0  0  0  0  0  0  0  0  0  0  0  0
  -27.4815  -16.6242   19.2749 C   0  0  0  0  0  0  0  0  0  0  0  0
  -26.9881  -14.1497   19.6500 C   0  0  0  0  0  0  0  0  0  0  0  0
  -18.0545  -28.3449   23.4466 C   0  0  0  0  0  0  0  0  0  0  0  0
  -25.2439  -28.8594   20.4590 C   0  0  0  0  0  0  0  0  0  0  0  0
  -19.4575  -28.3175   23.5619 C   0  0  0  0  0  0  0  0  0  0  0  0
  -25.2053  -27.8554   19.4809 C   0  0  0  0  0  0  0  0  0  0  0  0
  -25.7390  -20.8942   20.9345 C   0  0  0  0  0  0  0  0  0  0  0  0
  -28.9554  -18.7575   18.2457 C   0  0  0  0  0  0  0  0  0  0  0  0
  -27.4788  -27.2196   20.0614 C   0  0  0  0  0  0  0  0  0  0  0  0
  -30.0848  -19.7198   16.4235 C   0  0  0  0  0  0  0  0  0  0  0  0
  -30.9140  -19.5599   13.7646 C   0  0  0  0  0  0  0  0  0  0  0  0
  -29.6729  -20.6855   15.5052 C   0  0  0  0  0  0  0  0  0  0  0  0
  -26.7202  -15.5227   19.8072 C   0  0  0  0  0  0  0  0  0  0  0  0
  -25.8761  -21.3176   19.6283 C   0  0  0  0  0  0  0  0  0  0  0  0
  -26.8324  -21.1071   21.7490 C   0  0  0  0  0  0  0  0  0  0  0  0
  -25.9803  -13.5220   20.3406 C   0  0  0  0  0  0  0  0  0  0  0  0
  -27.9866  -22.0567   20.0364 C   0  0  0  0  0  0  0  0  0  0  0  0
  -28.0526  -13.4997   18.9429 C   0  0  0  0  0  0  0  0  0  0  0  0
  -22.2305  -28.1020   21.1295 C   0  0  0  0  0  0  0  0  0  0  0  0
  -21.7910  -28.6818   17.9683 C   0  0  0  0  0  0  0  0  0  0  0  0
  -23.1437  -28.8618   14.8403 C   0  0  0  0  0  0  0  0  0  0  0  0
  -22.4875  -15.2214   24.8973 C   0  0  0  0  0  0  0  0  0  0  0  0
  -17.3266  -27.5142   22.4195 C   0  0  0  0  0  0  0  0  0  0  0  0
  -24.0636  -29.7690   20.6639 C   0  0  0  0  0  0  0  0  0  0  0  0
  -23.9856  -27.6261   18.6276 C   0  0  0  0  0  0  0  0  0  0  0  0
  -18.2241  -27.0224   21.2868 C   0  0  0  0  0  0  0  0  0  0  0  0
  -21.4268  -14.1164   21.6832 C   0  0  0  0  0  0  0  0  0  0  0  0
  -19.5222  -26.4482   21.8452 C   0  0  0  0  0  0  0  0  0  0  0  0
  -22.6873  -14.2276   20.8238 C   0  0  0  0  0  0  0  0  0  0  0  0
  -21.3375  -15.2492   22.7034 C   0  0  0  0  0  0  0  0  0  0  0  0
  -23.7875  -15.5162   22.7020 C   0  0  0  0  0  0  0  0  0  0  0  0
  -20.3157  -27.5169   22.6066 C   0  0  1  0  0  0  0  0  0  0  0  0
  -22.7483  -29.1565   20.1926 C   0  0  1  0  0  0  0  0  0  0  0  0
  -23.9501  -14.3643   21.6955 C   0  0  2  0  0  0  0  0  0  0  0  0
  -24.4929  -20.2520   21.4321 C   0  0  0  0  0  0  0  0  0  0  0  0
  -24.7577  -21.1399   18.6545 C   0  0  0  0  0  0  0  0  0  0  0  0
  -22.5282  -29.3217   12.4513 C   0  0  0  0  0  0  0  0  0  0  0  0
  -20.5219  -25.9144   17.7651 C   0  0  0  0  0  0  0  0  0  0  0  0
  -20.8015  -26.0452   15.2806 C   0  0  0  0  0  0  0  0  0  0  0  0
  -19.3512  -27.6974   16.4594 C   0  0  0  0  0  0  0  0  0  0  0  0
  -24.9726  -31.1841   14.6946 C   0  0  0  0  0  0  0  0  0  0  0  0
  -26.8009  -20.6852   23.1970 C   0  0  0  0  0  0  0  0  0  0  0  0
  -29.2338  -22.7047   19.5383 C   0  0  0  0  0  0  0  0  0  0  0  0
  -26.6050  -21.8353   24.1932 C   0  0  0  0  0  0  0  0  0  0  0  0
  -29.4026  -24.1694   19.9727 C   0  0  0  0  0  0  0  0  0  0  0  0
  -26.6300  -21.4348   25.6734 C   0  0  0  0  0  0  0  0  0  0  0  0
  -25.5994  -20.3616   26.0320 C   0  0  0  0  0  0  0  0  0  0  0  0
  -25.6204  -19.9709   27.5143 C   0  0  0  0  0  0  0  0  0  0  0  0
  -24.5659  -18.9466   27.9474 C   0  0  0  0  0  0  0  0  0  0  0  0
  -24.7352  -17.5821   27.2757 C   0  0  0  0  0  0  0  0  0  0  0  0
  -23.6732  -16.5600   27.6985 C   0  0  0  0  0  0  0  0  0  0  0  0
  -23.7818  -15.2001   27.0148 C   0  0  0  0  0  0  0  0  0  0  0  0
  -28.3131  -25.0849   19.4267 C   0  0  0  0  0  0  0  0  0  1  0  0
  -21.8623  -27.8520   16.7091 C   0  0  1  0  0  0  0  0  0  0  0  0
  -23.0353  -29.9179   13.7552 C   0  0  2  0  0  0  0  0  0  0  0  0
  -20.6567  -26.8801   16.5708 C   0  0  0  0  0  0  0  0  0  0  0  0
  -25.6279  -15.7544   20.5401 N   0  0  0  0  0  0  0  0  0  0  0  0
  -26.9899  -21.9048   19.1436 N   0  0  0  0  0  0  0  0  0  0  0  0
  -27.9766  -21.6875   21.3314 N   0  0  0  0  0  0  0  0  0  0  0  0
  -25.2004  -14.5184   20.8495 N   0  0  0  0  0  0  0  0  0  0  0  0
  -22.8549  -28.5374   18.8699 N   0  0  0  0  0  0  0  0  0  0  0  0
  -22.5656  -15.3238   23.4986 N   0  0  0  0  0  0  0  0  0  0  0  0
  -25.6941  -12.2204   20.5562 N   0  0  0  0  0  0  0  0  0  0  0  0
  -29.0031  -14.2948   18.2881 N   0  0  0  0  0  0  0  0  0  0  0  0
  -20.9978  -28.3954   21.6807 N   0  0  0  0  0  0  0  0  0  0  0  0
  -21.9985  -28.7961   15.6053 N   0  0  0  0  0  0  0  0  0  0  0  0
  -23.6986  -15.2956   25.5744 N   0  0  0  0  0  0  0  0  0  0  0  0
  -24.3663  -30.5387   13.5018 N   0  3  0  0  0  0  0  0  0  0  0  0
  -28.1486  -12.2506   18.8794 O   0  0  0  0  0  0  0  0  0  0  0  0
  -22.8991  -27.0960   21.3357 O   0  0  0  0  0  0  0  0  0  0  0  0
  -20.8303  -29.4358   18.1420 O   0  0  0  0  0  0  0  0  0  0  0  0
  -24.1429  -28.1623   14.9916 O   0  0  0  0  0  0  0  0  0  0  0  0
  -21.4183  -15.0693   25.4979 O   0  0  0  0  0  0  0  0  0  0  0  0
  -29.6748  -19.7982   17.7439 O   0  0  0  0  0  0  0  0  0  0  0  0
  -28.5690  -26.4123   19.8673 O   0  0  0  0  0  0  0  0  0  1  0  0
  -31.3134  -19.4838   12.4884 F   0  0  0  0  0  0  0  0  0  0  0  0
  -28.8797  -21.6931   15.8945 F   0  0  0  0  0  0  0  0  0  0  0  0
  1  2  1  0  0  0  0
  1  5  2  0  0  0  0
  2  6  2  0  0  0  0
  3  8  2  0  0  0  0
  3 15  1  0  0  0  0
  4  9  1  0  0  0  0
  4 15  2  0  0  0  0
  5 17  1  0  0  0  0
  6 19  1  0  0  0  0
  7 10  2  0  0  0  0
  7 18  1  0  0  0  0
  8 22  1  0  0  0  0
  9 22  2  0  0  0  0
 10 23  1  0  0  0  0
 11 12  2  0  0  0  0
 11 24  1  0  0  0  0
 12 25  1  0  0  0  0
 13 20  1  0  0  0  0
 13 23  2  0  0  0  0
 14 25  2  0  0  0  0
 14 26  1  0  0  0  0
 15 27  1  0  0  0  0
 16 27  1  0  0  0  0
 16 30  2  0  0  0  0
 16 32  1  0  0  0  0
 17 19  2  0  0  0  0
 17 37  1  0  0  0  0
 18 20  2  0  0  0  0
 18 38  1  0  0  0  0
 19 46  1  0  0  0  0
 20 39  1  0  0  0  0
 21 28  1  0  0  0  0
 21 29  2  0  0  0  0
 21 49  1  0  0  0  0
 22 88  1  0  0  0  0
 23 89  1  0  0  0  0
 24 26  2  0  0  0  0
 24 88  1  0  0  0  0
 25 90  1  0  0  0  0
 26 91  1  0  0  0  0
 27 71  2  0  0  0  0
 28 50  1  0  0  0  0
 28 72  2  0  0  0  0
 29 56  1  0  0  0  0
 29 73  1  0  0  0  0
 30 74  1  0  0  0  0
 30 77  1  0  0  0  0
 31 57  1  0  0  0  0
 31 72  1  0  0  0  0
 31 73  2  0  0  0  0
 32 78  1  0  0  0  0
 32 83  2  0  0  0  0
 33 47  1  0  0  0  0
 33 79  1  0  0  0  0
 33 84  2  0  0  0  0
 34 68  1  0  0  0  0
 34 75  1  0  0  0  0
 34 85  2  0  0  0  0
 35 69  1  0  0  0  0
 35 80  1  0  0  0  0
 35 86  2  0  0  0  0
 36 76  1  0  0  0  0
 36 81  1  0  0  0  0
 36 87  2  0  0  0  0
 37 40  1  0  0  0  0
 38 47  1  0  0  0  0
 39 75  1  0  0  0  0
 40 42  1  0  0  0  0
 41 43  1  0  0  0  0
 41 44  1  0  0  0  0
 42 46  1  0  0  0  0
 43 48  1  0  0  0  0
 44 76  1  0  0  0  0
 45 48  1  0  0  0  0
 45 76  1  0  0  0  0
 46 79  1  0  0  0  0
 47 75  1  0  0  0  0
 48 74  1  0  0  0  0
 51 69  1  0  0  0  0
 52 70  1  0  0  0  0
 53 70  1  0  0  0  0
 54 70  1  0  0  0  0
 55 82  1  0  0  0  0
 56 58  1  0  0  0  0
 57 59  1  0  0  0  0
 58 60  1  0  0  0  0
 59 67  1  0  0  0  0
 60 61  1  0  0  0  0
 61 62  1  0  0  0  0
 62 63  1  0  0  0  0
 63 64  1  0  0  0  0
 64 65  1  0  0  0  0
 65 66  1  0  0  0  0
 66 81  1  0  0  0  0
 67 89  1  0  0  0  0
 68 70  1  0  0  0  0
 68 80  1  0  0  0  0
 69 82  1  0  0  0  0
 71 74  1  0  0  0  0
M  CHG  1  82   1
M  ISO  4  36 100  67 101  81 100  89 101
M  END
> <Batch ID>
0038

> <Smiles>
CNC(C)C(=O)NC(C(=O)N1Cc2cc([101O:1][101CH2:1]CCc3nc(C)c(C)c(CCCCCCCCC[100NH:0][100C:0](=O)N4CCCC(n5nc(-c6ccc(Oc7ccc(F)cc7F)cc6)c(C(N)=O)c5N)C4)n3)ccc2CC1C(=O)NC1CCCc2ccccc21)C(C)(C)C

> <Shape>
0.221

> <Color>
0.082

> <Negative vol penalty>
0.000

$$$$

  -OEChem-04052317013D

 85 93  0     1  0  0  0  0  0999 V2000
  -27.2064  -32.9223   26.9768 C   0  0  0  0  0  0  0  0  0  0  0  0
  -27.5274  -31.8541   26.1454 C   0  0  0  0  0  0  0  0  0  0  0  0
  -25.6907  -13.6803   21.6870 C   0  0  0  0  0  0  0  0  0  0  0  0
  -25.4961  -14.2434   19.3456 C   0  0  0  0  0  0  0  0  0  0  0  0
  -25.8760  -33.1647   27.3163 C   0  0  0  0  0  0  0  0  0  0  0  0
  -26.5182  -31.0269   25.6538 C   0  0  0  0  0  0  0  0  0  0  0  0
  -27.0646  -30.0163   20.7218 C   0  0  0  0  0  0  0  0  0  0  0  0
  -25.4288  -12.3435   21.3873 C   0  0  0  0  0  0  0  0  0  0  0  0
  -25.2341  -12.9065   19.0458 C   0  0  0  0  0  0  0  0  0  0  0  0
  -28.0128  -29.0567   20.3697 C   0  0  0  0  0  0  0  0  0  0  0  0
  -24.4553   -8.8414   21.2813 C   0  0  0  0  0  0  0  0  0  0  0  0
  -23.5502   -8.1584   22.0936 C   0  0  0  0  0  0  0  0  0  0  0  0
  -26.2579  -27.4185   20.1326 C   0  0  0  0  0  0  0  0  0  0  0  0
  -29.2979  -26.3365   15.8782 C   0  0  0  0  0  0  0  0  0  0  0  0
  -28.3913  -24.6968   17.3861 C   0  0  0  0  0  0  0  0  0  0  0  0
  -21.8250   -9.7438   21.5042 C   0  0  0  0  0  0  0  0  0  0  0  0
  -25.7243  -14.6303   20.6661 C   0  0  0  0  0  0  0  0  0  0  0  0
  -27.2522  -16.6420   21.0220 C   0  0  0  0  0  0  0  0  0  0  0  0
  -24.8491  -32.3458   26.8208 C   0  0  0  0  0  0  0  0  0  0  0  0
  -25.7049  -29.6809   20.7926 C   0  0  0  0  0  0  0  0  0  0  0  0
  -25.1730  -31.2577   25.9881 C   0  0  0  0  0  0  0  0  0  0  0  0
  -25.2943  -28.3764   20.4834 C   0  0  0  0  0  0  0  0  0  0  0  0
  -29.2949  -25.7208   17.1248 C   0  0  0  0  0  0  0  0  0  0  0  0
  -25.2005  -11.9566   20.0667 C   0  0  0  0  0  0  0  0  0  0  0  0
  -27.6098  -27.7569   20.0778 C   0  0  0  0  0  0  0  0  0  0  0  0
  -24.0454   -9.9756   20.5805 C   0  0  0  0  0  0  0  0  0  0  0  0
  -22.2350   -8.6096   22.2050 C   0  0  0  0  0  0  0  0  0  0  0  0
  -22.7303  -10.4268   20.6919 C   0  0  0  0  0  0  0  0  0  0  0  0
  -25.9944  -16.0115   20.9751 C   0  0  0  0  0  0  0  0  0  0  0  0
  -28.3843  -25.8951   14.9346 C   0  0  0  0  0  0  0  0  0  0  0  0
  -27.5181  -24.3289   16.3751 C   0  0  0  0  0  0  0  0  0  0  0  0
  -26.9714  -17.9439   21.3576 C   0  0  0  0  0  0  0  0  0  0  0  0
  -28.5577  -16.0993   20.7834 C   0  0  0  0  0  0  0  0  0  0  0  0
  -23.5188  -29.6527   23.1000 C   0  0  0  0  0  0  0  0  0  0  0  0
  -21.5133  -28.9264   20.6562 C   0  0  0  0  0  0  0  0  0  0  0  0
  -21.1122  -27.6281   17.5256 C   0  0  0  0  0  0  0  0  0  0  0  0
  -22.1100  -21.3724   20.6772 C   0  0  0  0  0  0  0  0  0  0  0  0
  -23.4303  -32.6187   27.2537 C   0  0  0  0  0  0  0  0  0  0  0  0
  -24.6917  -30.7343   21.1480 C   0  0  0  0  0  0  0  0  0  0  0  0
  -23.8444  -27.9705   20.5251 C   0  0  0  0  0  0  0  0  0  0  0  0
  -22.3845  -31.9202   26.3884 C   0  0  0  0  0  0  0  0  0  0  0  0
  -23.7694  -20.5923   23.7291 C   0  0  0  0  0  0  0  0  0  0  0  0
  -22.7683  -30.4617   26.1602 C   0  0  0  0  0  0  0  0  0  0  0  0
  -24.6413  -19.3867   23.3736 C   0  0  0  0  0  0  0  0  0  0  0  0
  -22.4312  -20.5573   22.9943 C   0  0  0  0  0  0  0  0  0  0  0  0
  -23.4044  -19.2104   21.1742 C   0  0  0  0  0  0  0  0  0  0  0  0
  -24.1040  -30.3528   25.4148 C   0  0  1  0  0  0  0  0  0  0  0  0
  -23.3894  -30.1524   21.6889 C   0  0  1  0  0  0  0  0  0  0  0  0
  -24.7871  -19.2305   21.8480 C   0  0  2  0  0  0  0  0  0  0  0  0
  -28.3598  -26.5317   13.5853 C   0  0  0  0  0  0  0  0  0  0  0  0
  -19.3499  -27.1344   15.8087 C   0  0  0  0  0  0  0  0  0  0  0  0
  -20.6128  -26.5053   22.2801 C   0  0  0  0  0  0  0  0  0  0  0  0
  -19.6101  -25.5628   20.1886 C   0  0  0  0  0  0  0  0  0  0  0  0
  -18.7672  -27.7220   21.1107 C   0  0  0  0  0  0  0  0  0  0  0  0
  -22.3701  -29.4335   15.5464 C   0  0  0  0  0  0  0  0  0  0  0  0
  -30.2695  -26.1614   18.1898 C   0  0  0  0  0  0  0  0  0  0  0  0
  -26.5336  -23.2350   16.6215 C   0  0  0  0  0  0  0  0  0  0  0  0
  -25.2070  -23.7640   17.1865 C   0  0  0  0  0  0  0  0  0  0  0  0
  -24.2197  -22.6305   17.4721 C   0  0  0  0  0  0  0  0  0  0  0  0
  -22.8877  -23.1735   17.9977 C   0  0  0  0  0  0  0  0  0  0  0  0
  -21.8843  -22.0669   18.3053 C   0  0  0  0  0  0  0  0  0  0  0  0
  -29.7072  -27.2763   19.0650 C   0  0  0  0  0  0  0  0  0  1  0  0
  -21.0398  -27.6492   20.0053 C   0  0  1  0  0  0  0  0  0  0  0  0
  -20.3692  -28.1467   16.3076 C   0  0  2  0  0  0  0  0  0  0  0  0
  -20.0351  -26.8666   20.8972 C   0  0  0  0  0  0  0  0  0  0  0  0
  -24.9893  -16.8443   21.2585 N   0  0  0  0  0  0  0  0  0  0  0  0
  -27.4913  -24.9036   15.1517 N   0  0  0  0  0  0  0  0  0  0  0  0
  -25.6153  -18.0114   21.4867 N   0  0  0  0  0  0  0  0  0  0  0  0
  -22.8925  -29.0346   20.8840 N   0  0  0  0  0  0  0  0  0  0  0  0
  -22.6397  -20.4094   21.5519 N   0  0  0  0  0  0  0  0  0  0  0  0
  -27.7547  -19.0261   21.5520 N   0  0  0  0  0  0  0  0  0  0  0  0
  -28.6663  -14.7426   20.4489 N   0  0  0  0  0  0  0  0  0  0  0  0
  -23.9187  -30.6181   24.0042 N   0  0  0  0  0  0  0  0  0  0  0  0
  -20.5103  -28.0284   18.6998 N   0  0  0  0  0  0  0  0  0  0  0  0
  -22.3588  -21.1601   19.3267 N   0  0  0  0  0  0  0  0  0  0  0  0
  -21.3254  -28.4352   15.2015 N   0  3  0  0  0  0  0  0  0  0  0  0
  -29.5983  -16.7929   20.8805 O   0  0  0  0  0  0  0  0  0  0  0  0
  -23.2726  -28.4786   23.3502 O   0  0  0  0  0  0  0  0  0  0  0  0
  -20.6906  -29.7990   20.9451 O   0  0  0  0  0  0  0  0  0  0  0  0
  -22.1232  -26.9340   17.4436 O   0  0  0  0  0  0  0  0  0  0  0  0
  -21.4677  -22.3518   21.0710 O   0  0  0  0  0  0  0  0  0  0  0  0
  -24.9451  -10.6521   19.7739 O   0  0  0  0  0  0  0  0  0  0  0  0
  -28.5333  -26.8181   19.7345 O   0  0  0  0  0  0  0  0  0  1  0  0
  -21.3655   -7.9527   22.9838 F   0  0  0  0  0  0  0  0  0  0  0  0
  -22.3303  -11.5152   20.0202 F   0  0  0  0  0  0  0  0  0  0  0  0
  1  2  1  0  0  0  0
  1  5  2  0  0  0  0
  2  6  2  0  0  0  0
  3  8  2  0  0  0  0
  3 17  1  0  0  0  0
  4  9  1  0  0  0  0
  4 17  2  0  0  0  0
  5 19  1  0  0  0  0
  6 21  1  0  0  0  0
  7 10  2  0  0  0  0
  7 20  1  0  0  0  0
  8 24  1  0  0  0  0
  9 24  2  0  0  0  0
 10 25  1  0  0  0  0
 11 12  2  0  0  0  0
 11 26  1  0  0  0  0
 12 27  1  0  0  0  0
 13 22  1  0  0  0  0
 13 25  2  0  0  0  0
 14 23  1  0  0  0  0
 14 30  2  0  0  0  0
 15 23  2  0  0  0  0
 15 31  1  0  0  0  0
 16 27  2  0  0  0  0
 16 28  1  0  0  0  0
 17 29  1  0  0  0  0
 18 29  1  0  0  0  0
 18 32  2  0  0  0  0
 18 33  1  0  0  0  0
 19 21  2  0  0  0  0
 19 38  1  0  0  0  0
 20 22  2  0  0  0  0
 20 39  1  0  0  0  0
 21 47  1  0  0  0  0
 22 40  1  0  0  0  0
 23 56  1  0  0  0  0
 24 82  1  0  0  0  0
 25 83  1  0  0  0  0
 26 28  2  0  0  0  0
 26 82  1  0  0  0  0
 27 84  1  0  0  0  0
 28 85  1  0  0  0  0
 29 66  2  0  0  0  0
 30 50  1  0  0  0  0
 30 67  1  0  0  0  0
 31 57  1  0  0  0  0
 31 67  2  0  0  0  0
 32 68  1  0  0  0  0
 32 71  1  0  0  0  0
 33 72  1  0  0  0  0
 33 77  2  0  0  0  0
 34 48  1  0  0  0  0
 34 73  1  0  0  0  0
 34 78  2  0  0  0  0
 35 63  1  0  0  0  0
 35 69  1  0  0  0  0
 35 79  2  0  0  0  0
 36 64  1  0  0  0  0
 36 74  1  0  0  0  0
 36 80  2  0  0  0  0
 37 70  1  0  0  0  0
 37 75  1  0  0  0  0
 37 81  2  0  0  0  0
 38 41  1  0  0  0  0
 39 48  1  0  0  0  0
 40 69  1  0  0  0  0
 41 43  1  0  0  0  0
 42 44  1  0  0  0  0
 42 45  1  0  0  0  0
 43 47  1  0  0  0  0
 44 49  1  0  0  0  0
 45 70  1  0  0  0  0
 46 49  1  0  0  0  0
 46 70  1  0  0  0  0
 47 73  1  0  0  0  0
 48 69  1  0  0  0  0
 49 68  1  0  0  0  0
 51 64  1  0  0  0  0
 52 65  1  0  0  0  0
 53 65  1  0  0  0  0
 54 65  1  0  0  0  0
 55 76  1  0  0  0  0
 56 62  1  0  0  0  0
 57 58  1  0  0  0  0
 58 59  1  0  0  0  0
 59 60  1  0  0  0  0
 60 61  1  0  0  0  0
 61 75  1  0  0  0  0
 62 83  1  0  0  0  0
 63 65  1  0  0  0  0
 63 74  1  0  0  0  0
 64 76  1  0  0  0  0
 66 68  1  0  0  0  0
M  CHG  1  76   1
M  ISO  4  37 100  62 101  75 100  83 101
M  END
> <Batch ID>
0038

> <Smiles>
CNC(C)C(=O)NC(C(=O)N1Cc2cc([101O:1][101CH2:1]Cc3cc(C)nc(CCCCC[100NH:0][100C:0](=O)N4CCCC(n5nc(-c6ccc(Oc7ccc(F)cc7F)cc6)c(C(N)=O)c5N)C4)c3)ccc2CC1C(=O)NC1CCCc2ccccc21)C(C)(C)C

> <Shape>
0.241

> <Color>
0.086

> <Negative vol penalty>
0.000

$$$$

  -OEChem-04052317013D

 81 89  0     1  0  0  0  0  0999 V2000
  -28.9196  -33.5977   26.4434 C   0  0  0  0  0  0  0  0  0  0  0  0
  -28.8889  -32.3919   25.7502 C   0  0  0  0  0  0  0  0  0  0  0  0
  -23.0190   -9.6192   21.6572 C   0  0  0  0  0  0  0  0  0  0  0  0
  -24.5127  -10.1660   23.4757 C   0  0  0  0  0  0  0  0  0  0  0  0
  -27.7281  -34.2479   26.7620 C   0  0  0  0  0  0  0  0  0  0  0  0
  -27.6665  -31.8350   25.3761 C   0  0  0  0  0  0  0  0  0  0  0  0
  -27.6846  -30.1353   20.6058 C   0  0  0  0  0  0  0  0  0  0  0  0
  -22.4397   -8.6163   22.4345 C   0  0  0  0  0  0  0  0  0  0  0  0
  -23.9334   -9.1630   24.2531 C   0  0  0  0  0  0  0  0  0  0  0  0
  -28.3070  -28.9105   20.3687 C   0  0  0  0  0  0  0  0  0  0  0  0
  -23.1772   -5.4540   23.3729 C   0  0  0  0  0  0  0  0  0  0  0  0
  -22.9522   -4.2164   22.7700 C   0  0  0  0  0  0  0  0  0  0  0  0
  -26.1527  -27.8250   20.3561 C   0  0  0  0  0  0  0  0  0  0  0  0
  -20.5863   -4.4328   23.2091 C   0  0  0  0  0  0  0  0  0  0  0  0
  -24.0555  -10.3940   22.1778 C   0  0  0  0  0  0  0  0  0  0  0  0
  -24.0130  -12.5528   20.8194 C   0  0  0  0  0  0  0  0  0  0  0  0
  -26.4908  -33.7034   26.3832 C   0  0  0  0  0  0  0  0  0  0  0  0
  -26.2900  -30.2126   20.7310 C   0  0  0  0  0  0  0  0  0  0  0  0
  -26.4573  -32.4777   25.6911 C   0  0  0  0  0  0  0  0  0  0  0  0
  -25.5149  -29.0524   20.5924 C   0  0  0  0  0  0  0  0  0  0  0  0
  -22.8969   -8.3882   23.7325 C   0  0  0  0  0  0  0  0  0  0  0  0
  -27.5413  -27.7547   20.2467 C   0  0  0  0  0  0  0  0  0  0  0  0
  -22.1068   -6.1810   23.8939 C   0  0  0  0  0  0  0  0  0  0  0  0
  -21.6567   -3.7059   22.6881 C   0  0  0  0  0  0  0  0  0  0  0  0
  -20.8113   -5.6704   23.8119 C   0  0  0  0  0  0  0  0  0  0  0  0
  -24.6546  -11.4298   21.3751 C   0  0  0  0  0  0  0  0  0  0  0  0
  -25.0095  -13.2225   20.1522 C   0  0  0  0  0  0  0  0  0  0  0  0
  -22.6390  -12.9549   20.8992 C   0  0  0  0  0  0  0  0  0  0  0  0
  -24.2902  -31.0820   23.0438 C   0  0  0  0  0  0  0  0  0  0  0  0
  -30.2328  -15.2206   20.0336 C   0  0  0  0  0  0  0  0  0  0  0  0
  -22.0539  -30.6746   20.7296 C   0  0  0  0  0  0  0  0  0  0  0  0
  -21.1634  -29.1844   17.7914 C   0  0  0  0  0  0  0  0  0  0  0  0
  -25.2274  -34.4189   26.7913 C   0  0  0  0  0  0  0  0  0  0  0  0
  -25.6319  -31.5455   20.9602 C   0  0  0  0  0  0  0  0  0  0  0  0
  -24.0128  -29.0849   20.6983 C   0  0  0  0  0  0  0  0  0  0  0  0
  -23.9895  -33.9507   26.0307 C   0  0  0  0  0  0  0  0  0  0  0  0
  -29.7247  -11.8277   18.9994 C   0  0  0  0  0  0  0  0  0  0  0  0
  -23.9359  -32.4269   25.9844 C   0  0  0  0  0  0  0  0  0  0  0  0
  -30.0103  -22.7090   20.5439 C   0  0  0  0  0  0  0  0  0  0  0  0
  -28.1283  -21.6851   19.2075 C   0  0  0  0  0  0  0  0  0  0  0  0
  -29.1685  -23.9639   20.7680 C   0  0  0  0  0  0  0  0  0  0  0  0
  -27.2865  -22.9400   19.4315 C   0  0  0  0  0  0  0  0  0  0  0  0
  -28.3198  -11.5045   19.5061 C   0  0  0  0  0  0  0  0  0  0  0  0
  -30.4624  -12.7598   19.9554 C   0  0  0  0  0  0  0  0  0  0  0  0
  -28.3235  -13.7059   20.7626 C   0  0  0  0  0  0  0  0  0  0  0  0
  -25.1520  -31.8543   25.2464 C   0  0  1  0  0  0  0  0  0  0  0  0
  -24.2438  -31.4275   21.5822 C   0  0  1  0  0  0  0  0  0  0  0  0
  -29.1335  -21.4662   20.3453 C   0  0  0  0  0  0  0  0  0  0  0  0
  -28.1634  -24.1828   19.6301 C   0  0  0  0  0  0  0  0  0  0  0  0
  -27.5324  -12.7912   19.8107 C   0  0  2  0  0  0  0  0  0  0  0  0
  -19.2584  -29.0147   16.1667 C   0  0  0  0  0  0  0  0  0  0  0  0
  -20.5811  -28.8204   22.6539 C   0  0  0  0  0  0  0  0  0  0  0  0
  -19.2608  -27.9630   20.7072 C   0  0  0  0  0  0  0  0  0  0  0  0
  -19.1029  -30.3661   21.3577 C   0  0  0  0  0  0  0  0  0  0  0  0
  -22.7893  -30.3089   15.5889 C   0  0  0  0  0  0  0  0  0  0  0  0
  -29.3564  -16.4084   20.3422 C   0  0  0  0  0  0  0  0  0  0  0  0
  -29.9960  -20.2352   20.0737 C   0  0  0  0  0  0  0  0  0  0  0  0
  -27.3008  -25.4140   19.9016 C   0  0  0  0  0  0  0  0  0  1  0  0
  -30.0942  -17.7167   20.0754 C   0  0  0  0  0  0  0  0  0  0  0  0
  -29.2154  -18.9470   20.3214 C   0  0  0  0  0  0  0  0  0  0  0  0
  -21.2110  -29.5180   20.2492 C   0  0  1  0  0  0  0  0  0  0  0  0
  -20.5430  -29.7457   16.5247 C   0  0  2  0  0  0  0  0  0  0  0  0
  -20.0674  -29.1656   21.2419 C   0  0  0  0  0  0  0  0  0  0  0  0
  -25.9579  -11.3850   21.0860 N   0  0  0  0  0  0  0  0  0  0  0  0
  -26.1432  -12.4882   20.3413 N   0  0  0  0  0  0  0  0  0  0  0  0
  -23.4165  -30.4110   20.9292 N   0  0  0  0  0  0  0  0  0  0  0  0
  -29.6722  -13.9596   20.2371 N   0  0  0  0  0  0  0  0  0  0  0  0
  -25.0178  -14.3618   19.4281 N   0  0  0  0  0  0  0  0  0  0  0  0
  -22.2471  -13.7884   21.9555 N   0  0  0  0  0  0  0  0  0  0  0  0
  -24.9861  -31.9929   23.8154 N   0  0  0  0  0  0  0  0  0  0  0  0
  -20.7519  -29.8755   18.9113 N   0  0  0  0  0  0  0  0  0  0  0  0
  -21.4912  -29.6166   15.3823 N   0  3  0  0  0  0  0  0  0  0  0  0
  -21.7810  -12.5726   20.0679 O   0  0  0  0  0  0  0  0  0  0  0  0
  -23.7345  -30.0650   23.4421 O   0  0  0  0  0  0  0  0  0  0  0  0
  -31.3801  -15.4100   19.6212 O   0  0  0  0  0  0  0  0  0  0  0  0
  -21.5244  -31.7733   20.9139 O   0  0  0  0  0  0  0  0  0  0  0  0
  -21.9330  -28.2261   17.7880 O   0  0  0  0  0  0  0  0  0  0  0  0
  -22.3318   -7.4098   24.4913 O   0  0  0  0  0  0  0  0  0  0  0  0
  -28.1463  -26.5578   20.0158 O   0  0  0  0  0  0  0  0  0  1  0  0
  -21.4406   -2.5181   22.1078 F   0  0  0  0  0  0  0  0  0  0  0  0
  -19.7788   -6.3647   24.3096 F   0  0  0  0  0  0  0  0  0  0  0  0
  1  2  1  0  0  0  0
  1  5  2  0  0  0  0
  2  6  2  0  0  0  0
  3  8  2  0  0  0  0
  3 15  1  0  0  0  0
  4  9  1  0  0  0  0
  4 15  2  0  0  0  0
  5 17  1  0  0  0  0
  6 19  1  0  0  0  0
  7 10  2  0  0  0  0
  7 18  1  0  0  0  0
  8 21  1  0  0  0  0
  9 21  2  0  0  0  0
 10 22  1  0  0  0  0
 11 12  2  0  0  0  0
 11 23  1  0  0  0  0
 12 24  1  0  0  0  0
 13 20  1  0  0  0  0
 13 22  2  0  0  0  0
 14 24  2  0  0  0  0
 14 25  1  0  0  0  0
 15 26  1  0  0  0  0
 16 26  1  0  0  0  0
 16 27  2  0  0  0  0
 16 28  1  0  0  0  0
 17 19  2  0  0  0  0
 17 33  1  0  0  0  0
 18 20  2  0  0  0  0
 18 34  1  0  0  0  0
 19 46  1  0  0  0  0
 20 35  1  0  0  0  0
 21 78  1  0  0  0  0
 22 79  1  0  0  0  0
 23 25  2  0  0  0  0
 23 78  1  0  0  0  0
 24 80  1  0  0  0  0
 25 81  1  0  0  0  0
 26 64  2  0  0  0  0
 27 65  1  0  0  0  0
 27 68  1  0  0  0  0
 28 69  1  0  0  0  0
 28 73  2  0  0  0  0
 29 47  1  0  0  0  0
 29 70  1  0  0  0  0
 29 74  2  0  0  0  0
 30 56  1  0  0  0  0
 30 67  1  0  0  0  0
 30 75  2  0  0  0  0
 31 61  1  0  0  0  0
 31 66  1  0  0  0  0
 31 76  2  0  0  0  0
 32 62  1  0  0  0  0
 32 71  1  0  0  0  0
 32 77  2  0  0  0  0
 33 36  1  0  0  0  0
 34 47  1  0  0  0  0
 35 66  1  0  0  0  0
 36 38  1  0  0  0  0
 37 43  1  0  0  0  0
 37 44  1  0  0  0  0
 38 46  1  0  0  0  0
 39 41  1  0  0  0  0
 39 48  1  0  0  0  0
 40 42  1  0  0  0  0
 40 48  1  0  0  0  0
 41 49  1  0  0  0  0
 42 49  1  0  0  0  0
 43 50  1  0  0  0  0
 44 67  1  0  0  0  0
 45 50  1  0  0  0  0
 45 67  1  0  0  0  0
 46 70  1  0  0  0  0
 47 66  1  0  0  0  0
 48 57  1  0  0  0  0
 49 58  1  0  0  0  0
 50 65  1  0  0  0  0
 51 62  1  0  0  0  0
 52 63  1  0  0  0  0
 53 63  1  0  0  0  0
 54 63  1  0  0  0  0
 55 72  1  0  0  0  0
 56 59  1  0  0  0  0
 57 60  1  0  0  0  0
 58 79  1  0  0  0  0
 59 60  1  0  0  0  0
 61 63  1  0  0  0  0
 61 71  1  0  0  0  0
 62 72  1  0  0  0  0
 64 65  1  0  0  0  0
M  CHG  1  72   1
M  ISO  4  30 100  56 100  58 101  79 101
M  END
> <Batch ID>
0038

> <Smiles>
CNC(C)C(=O)NC(C(=O)N1Cc2cc([101O:1][101CH2:1]C3CCC(CCC[100CH2:0][100C:0](=O)N4CCCC(n5nc(-c6ccc(Oc7ccc(F)cc7F)cc6)c(C(N)=O)c5N)C4)CC3)ccc2CC1C(=O)NC1CCCc2ccccc21)C(C)(C)C

> <Shape>
0.356

> <Color>
0.142

> <Negative vol penalty>
0.000

$$$$

  -OEChem-04052317013D

 85 94  0     1  0  0  0  0  0999 V2000
  -19.4932  -27.7262   23.0115 C   0  0  0  0  0  0  0  0  0  0  0  0
  -20.1814  -26.6604   23.5825 C   0  0  0  0  0  0  0  0  0  0  0  0
  -28.3336  -23.9349   19.4784 C   0  0  0  0  0  0  0  0  0  0  0  0
  -27.9312  -23.1424   21.7249 C   0  0  0  0  0  0  0  0  0  0  0  0
  -18.7880  -27.5424   21.8228 C   0  0  0  0  0  0  0  0  0  0  0  0
  -20.1638  -25.4100   22.9658 C   0  0  0  0  0  0  0  0  0  0  0  0
  -24.2638  -19.6221   21.9620 C   0  0  0  0  0  0  0  0  0  0  0  0
  -27.3346  -24.8952   19.6381 C   0  0  0  0  0  0  0  0  0  0  0  0
  -26.9323  -24.1028   21.8848 C   0  0  0  0  0  0  0  0  0  0  0  0
  -24.2247  -18.2361   22.1076 C   0  0  0  0  0  0  0  0  0  0  0  0
  -26.9957  -27.9135   21.1240 C   0  0  0  0  0  0  0  0  0  0  0  0
  -27.2695  -29.2117   20.6934 C   0  0  0  0  0  0  0  0  0  0  0  0
  -23.0382  -18.0558   20.0151 C   0  0  0  0  0  0  0  0  0  0  0  0
  -25.4128  -29.0922   19.1522 C   0  0  0  0  0  0  0  0  0  0  0  0
  -25.8077  -13.6434   20.5638 C   0  0  0  0  0  0  0  0  0  0  0  0
  -28.6319  -23.0585   20.5217 C   0  0  0  0  0  0  0  0  0  0  0  0
  -31.0327  -22.2060   20.6519 C   0  0  0  0  0  0  0  0  0  0  0  0
  -18.7698  -26.2914   21.1861 C   0  0  0  0  0  0  0  0  0  0  0  0
  -23.6798  -20.2373   20.8454 C   0  0  0  0  0  0  0  0  0  0  0  0
  -19.4566  -25.2089   21.7682 C   0  0  0  0  0  0  0  0  0  0  0  0
  -23.0734  -19.4496   19.8564 C   0  0  0  0  0  0  0  0  0  0  0  0
  -26.6340  -24.9791   20.8413 C   0  0  0  0  0  0  0  0  0  0  0  0
  -23.6093  -17.4529   21.1355 C   0  0  0  0  0  0  0  0  0  0  0  0
  -25.9304  -27.2046   20.5686 C   0  0  0  0  0  0  0  0  0  0  0  0
  -26.4781  -29.8010   19.7075 C   0  0  0  0  0  0  0  0  0  0  0  0
  -25.1389  -27.7940   19.5827 C   0  0  0  0  0  0  0  0  0  0  0  0
  -29.6633  -22.0659   20.3571 C   0  0  0  0  0  0  0  0  0  0  0  0
  -24.8275  -13.3091   21.4646 C   0  0  0  0  0  0  0  0  0  0  0  0
  -26.1913  -12.4157   20.0009 C   0  0  0  0  0  0  0  0  0  0  0  0
  -31.5809  -20.9906   20.3223 C   0  0  0  0  0  0  0  0  0  0  0  0
  -23.0013  -12.1198   23.0567 C   0  0  0  0  0  0  0  0  0  0  0  0
  -24.0079  -14.0727   22.3796 C   0  0  0  0  0  0  0  0  0  0  0  0
  -23.7195  -11.3246   22.2355 C   0  0  0  0  0  0  0  0  0  0  0  0
  -31.7454  -23.3338   21.1769 C   0  0  0  0  0  0  0  0  0  0  0  0
  -21.3185  -22.3203   20.4109 C   0  0  0  0  0  0  0  0  0  0  0  0
  -22.3169  -22.2163   17.3263 C   0  0  0  0  0  0  0  0  0  0  0  0
  -23.9222  -20.4919   14.8573 C   0  0  0  0  0  0  0  0  0  0  0  0
  -29.2634  -15.5660   20.0799 C   0  0  0  0  0  0  0  0  0  0  0  0
  -17.9546  -26.1293   19.9276 C   0  0  0  0  0  0  0  0  0  0  0  0
  -23.7539  -21.7315   20.6898 C   0  0  0  0  0  0  0  0  0  0  0  0
  -22.4496  -20.0596   18.6287 C   0  0  0  0  0  0  0  0  0  0  0  0
  -18.2951  -24.8668   19.1398 C   0  0  0  0  0  0  0  0  0  0  0  0
  -30.9508  -17.2746   17.3724 C   0  0  0  0  0  0  0  0  0  0  0  0
  -18.3743  -23.6615   20.0712 C   0  0  0  0  0  0  0  0  0  0  0  0
  -30.9381  -18.7209   17.8706 C   0  0  0  0  0  0  0  0  0  0  0  0
  -29.6592  -16.5512   17.7421 C   0  0  0  0  0  0  0  0  0  0  0  0
  -29.3244  -18.0139   19.6971 C   0  0  0  0  0  0  0  0  0  0  0  0
  -19.4818  -23.8436   21.1161 C   0  0  1  0  0  0  0  0  0  0  0  0
  -22.6756  -22.2904   19.7667 C   0  0  1  0  0  0  0  0  0  0  0  0
  -30.6126  -18.7927   19.3743 C   0  0  2  0  0  0  0  0  0  0  0  0
  -23.5459   -9.8392   22.1740 C   0  0  0  0  0  0  0  0  0  0  0  0
  -24.5457  -20.6471   12.4315 C   0  0  0  0  0  0  0  0  0  0  0  0
  -19.4388  -21.5679   16.5477 C   0  0  0  0  0  0  0  0  0  0  0  0
  -20.2864  -20.8118   14.3165 C   0  0  0  0  0  0  0  0  0  0  0  0
  -20.5924  -23.1835   15.0265 C   0  0  0  0  0  0  0  0  0  0  0  0
  -26.8141  -20.3617   15.4726 C   0  0  0  0  0  0  0  0  0  0  0  0
  -27.2171  -12.1880   18.9687 C   0  0  0  0  0  0  0  0  0  0  0  0
  -24.1774  -15.5494   22.4431 C   0  0  0  0  0  0  0  0  0  1  0  0
  -28.6463  -11.9314   19.5088 C   0  0  0  0  0  0  0  0  0  0  0  0
  -29.2273  -13.0955   20.3085 C   0  0  0  0  0  0  0  0  0  0  0  0
  -21.9777  -21.3735   16.1207 C   0  0  1  0  0  0  0  0  0  0  0  0
  -24.9872  -20.9152   13.8618 C   0  0  2  0  0  0  0  0  0  0  0  0
  -20.5838  -21.7225   15.5268 C   0  0  0  0  0  0  0  0  0  0  0  0
  -29.3602  -20.8570   19.8769 N   0  0  0  0  0  0  0  0  0  0  0  0
  -25.5149  -11.3782   20.4974 N   0  0  0  0  0  0  0  0  0  0  0  0
  -23.1257  -13.4949   23.1481 N   0  0  0  0  0  0  0  0  0  0  0  0
  -24.6700  -11.9324   21.4048 N   0  0  0  0  0  0  0  0  0  0  0  0
  -30.5469  -20.2263   19.8674 N   0  0  0  0  0  0  0  0  0  0  0  0
  -22.5422  -21.5253   18.5253 N   0  0  0  0  0  0  0  0  0  0  0  0
  -29.4173  -16.6412   19.1890 N   0  0  0  0  0  0  0  0  0  0  0  0
  -32.8418  -20.5117   20.3800 N   0  0  0  0  0  0  0  0  0  0  0  0
  -31.0284  -24.5042   21.4606 N   0  0  0  0  0  0  0  0  0  0  0  0
  -20.7789  -23.5871   20.5277 N   0  0  0  0  0  0  0  0  0  0  0  0
  -23.0842  -21.5370   15.1840 N   0  0  0  0  0  0  0  0  0  0  0  0
  -29.3582  -14.2989   19.5176 N   0  0  0  0  0  0  0  0  0  0  0  0
  -26.2538  -20.1702   14.1102 N   0  3  0  0  0  0  0  0  0  0  0  0
  -32.9842  -23.3101   21.3729 O   0  0  0  0  0  0  0  0  0  0  0  0
  -20.7987  -21.2716   20.7738 O   0  0  0  0  0  0  0  0  0  0  0  0
  -22.3867  -23.4421   17.2070 O   0  0  0  0  0  0  0  0  0  0  0  0
  -23.8395  -19.3476   15.2980 O   0  0  0  0  0  0  0  0  0  0  0  0
  -29.0616  -15.7235   21.2889 O   0  0  0  0  0  0  0  0  0  0  0  0
  -25.6593  -25.9162   20.9977 O   0  0  0  0  0  0  0  0  0  0  0  0
  -23.5692  -16.0999   21.2755 O   0  0  0  0  0  0  0  0  0  1  0  0
  -26.7402  -31.0482   19.2952 F   0  0  0  0  0  0  0  0  0  0  0  0
  -24.1134  -27.1184   19.0464 F   0  0  0  0  0  0  0  0  0  0  0  0
  1  2  1  0  0  0  0
  1  5  2  0  0  0  0
  2  6  2  0  0  0  0
  3  8  2  0  0  0  0
  3 16  1  0  0  0  0
  4  9  1  0  0  0  0
  4 16  2  0  0  0  0
  5 18  1  0  0  0  0
  6 20  1  0  0  0  0
  7 10  2  0  0  0  0
  7 19  1  0  0  0  0
  8 22  1  0  0  0  0
  9 22  2  0  0  0  0
 10 23  1  0  0  0  0
 11 12  2  0  0  0  0
 11 24  1  0  0  0  0
 12 25  1  0  0  0  0
 13 21  1  0  0  0  0
 13 23  2  0  0  0  0
 14 25  2  0  0  0  0
 14 26  1  0  0  0  0
 15 28  2  0  0  0  0
 15 29  1  0  0  0  0
 16 27  1  0  0  0  0
 17 27  1  0  0  0  0
 17 30  2  0  0  0  0
 17 34  1  0  0  0  0
 18 20  2  0  0  0  0
 18 39  1  0  0  0  0
 19 21  2  0  0  0  0
 19 40  1  0  0  0  0
 20 48  1  0  0  0  0
 21 41  1  0  0  0  0
 22 82  1  0  0  0  0
 23 83  1  0  0  0  0
 24 26  2  0  0  0  0
 24 82  1  0  0  0  0
 25 84  1  0  0  0  0
 26 85  1  0  0  0  0
 27 64  2  0  0  0  0
 28 32  1  0  0  0  0
 28 67  1  0  0  0  0
 29 57  1  0  0  0  0
 29 65  2  0  0  0  0
 30 68  1  0  0  0  0
 30 71  1  0  0  0  0
 31 33  2  0  0  0  0
 31 66  1  0  0  0  0
 32 58  1  0  0  0  0
 32 66  2  0  0  0  0
 33 51  1  0  0  0  0
 33 67  1  0  0  0  0
 34 72  1  0  0  0  0
 34 77  2  0  0  0  0
 35 49  1  0  0  0  0
 35 73  1  0  0  0  0
 35 78  2  0  0  0  0
 36 61  1  0  0  0  0
 36 69  1  0  0  0  0
 36 79  2  0  0  0  0
 37 62  1  0  0  0  0
 37 74  1  0  0  0  0
 37 80  2  0  0  0  0
 38 70  1  0  0  0  0
 38 75  1  0  0  0  0
 38 81  2  0  0  0  0
 39 42  1  0  0  0  0
 40 49  1  0  0  0  0
 41 69  1  0  0  0  0
 42 44  1  0  0  0  0
 43 45  1  0  0  0  0
 43 46  1  0  0  0  0
 44 48  1  0  0  0  0
 45 50  1  0  0  0  0
 46 70  1  0  0  0  0
 47 50  1  0  0  0  0
 47 70  1  0  0  0  0
 48 73  1  0  0  0  0
 49 69  1  0  0  0  0
 50 68  1  0  0  0  0
 52 62  1  0  0  0  0
 53 63  1  0  0  0  0
 54 63  1  0  0  0  0
 55 63  1  0  0  0  0
 56 76  1  0  0  0  0
 57 59  1  0  0  0  0
 58 83  1  0  0  0  0
 59 60  1  0  0  0  0
 60 75  1  0  0  0  0
 61 63  1  0  0  0  0
 61 74  1  0  0  0  0
 62 76  1  0  0  0  0
 64 68  1  0  0  0  0
 65 67  1  0  0  0  0
M  CHG  1  76   1
M  ISO  4  38 100  58 101  75 100  83 101
M  END
> <Batch ID>
0038

> <Smiles>
CNC(C)C(=O)NC(C(=O)N1Cc2cc([101O:1][101CH2:1]c3ncc(C)n4nc(CCC[100NH:0][100C:0](=O)N5CCCC(n6nc(-c7ccc(Oc8ccc(F)cc8F)cc7)c(C(N)=O)c6N)C5)cc34)ccc2CC1C(=O)NC1CCCc2ccccc21)C(C)(C)C

> <Shape>
0.186

> <Color>
0.070

> <Negative vol penalty>
0.000

$$$$

  -OEChem-04052317013D

 85 93  0     1  0  0  0  0  0999 V2000
  -18.5754  -26.5629   25.9355 C   0  0  0  0  0  0  0  0  0  0  0  0
  -19.3608  -25.9554   24.9611 C   0  0  0  0  0  0  0  0  0  0  0  0
  -23.9103  -10.7207   23.3397 C   0  0  0  0  0  0  0  0  0  0  0  0
  -24.1612  -12.9055   24.3401 C   0  0  0  0  0  0  0  0  0  0  0  0
  -18.1368  -27.8744   25.7578 C   0  0  0  0  0  0  0  0  0  0  0  0
  -19.7071  -26.6586   23.8079 C   0  0  0  0  0  0  0  0  0  0  0  0
  -24.5921  -26.1099   22.5911 C   0  0  0  0  0  0  0  0  0  0  0  0
  -23.3949  -10.2305   24.5395 C   0  0  0  0  0  0  0  0  0  0  0  0
  -23.6457  -12.4154   25.5399 C   0  0  0  0  0  0  0  0  0  0  0  0
  -24.9632  -24.9193   21.9678 C   0  0  0  0  0  0  0  0  0  0  0  0
  -20.4505  -10.3036   26.2003 C   0  0  0  0  0  0  0  0  0  0  0  0
  -19.3126   -9.4995   26.1364 C   0  0  0  0  0  0  0  0  0  0  0  0
  -24.9384  -26.0376   19.8305 C   0  0  0  0  0  0  0  0  0  0  0  0
  -26.8844  -19.2533   18.3815 C   0  0  0  0  0  0  0  0  0  0  0  0
  -25.1658  -20.7606   19.1632 C   0  0  0  0  0  0  0  0  0  0  0  0
  -27.4318  -20.9901   19.9693 C   0  0  0  0  0  0  0  0  0  0  0  0
  -20.5351   -7.6880   27.1665 C   0  0  0  0  0  0  0  0  0  0  0  0
  -24.2936  -12.0582   23.2400 C   0  0  0  0  0  0  0  0  0  0  0  0
  -24.1051  -13.1360   20.9355 C   0  0  0  0  0  0  0  0  0  0  0  0
  -18.4859  -28.5974   24.6063 C   0  0  0  0  0  0  0  0  0  0  0  0
  -24.3804  -27.2726   21.8363 C   0  0  0  0  0  0  0  0  0  0  0  0
  -19.2716  -27.9806   23.6140 C   0  0  0  0  0  0  0  0  0  0  0  0
  -24.5672  -27.2423   20.4470 C   0  0  0  0  0  0  0  0  0  0  0  0
  -25.5563  -19.6792   18.3734 C   0  0  0  0  0  0  0  0  0  0  0  0
  -27.8222  -19.9087   19.1795 C   0  0  0  0  0  0  0  0  0  0  0  0
  -26.1035  -21.4161   19.9612 C   0  0  0  0  0  0  0  0  0  0  0  0
  -23.2625  -11.0778   25.6396 C   0  0  0  0  0  0  0  0  0  0  0  0
  -25.1335  -24.8823   20.5870 C   0  0  0  0  0  0  0  0  0  0  0  0
  -21.6307   -9.8000   26.7471 C   0  0  0  0  0  0  0  0  0  0  0  0
  -19.3549   -8.1916   26.6196 C   0  0  0  0  0  0  0  0  0  0  0  0
  -21.6730   -8.4922   27.2303 C   0  0  0  0  0  0  0  0  0  0  0  0
  -24.8266  -12.5651   22.0010 C   0  0  0  0  0  0  0  0  0  0  0  0
  -25.0628  -13.4537   20.0036 C   0  0  0  0  0  0  0  0  0  0  0  0
  -22.6953  -13.3593   20.8003 C   0  0  0  0  0  0  0  0  0  0  0  0
  -21.8929  -29.1779   21.3015 C   0  0  0  0  0  0  0  0  0  0  0  0
  -24.0989  -30.9718   19.7401 C   0  0  0  0  0  0  0  0  0  0  0  0
  -27.0913  -31.1077   18.1049 C   0  0  0  0  0  0  0  0  0  0  0  0
  -30.9174  -14.6391   20.4146 C   0  0  0  0  0  0  0  0  0  0  0  0
  -17.9487  -29.9965   24.4369 C   0  0  0  0  0  0  0  0  0  0  0  0
  -24.0065  -28.5555   22.5268 C   0  0  0  0  0  0  0  0  0  0  0  0
  -24.3720  -28.4680   19.5937 C   0  0  0  0  0  0  0  0  0  0  0  0
  -18.6716  -30.8001   23.3590 C   0  0  0  0  0  0  0  0  0  0  0  0
  -29.3811  -12.0917   18.4583 C   0  0  0  0  0  0  0  0  0  0  0  0
  -18.8376  -29.9661   22.0926 C   0  0  0  0  0  0  0  0  0  0  0  0
  -27.9746  -11.9757   19.0483 C   0  0  0  0  0  0  0  0  0  0  0  0
  -30.4240  -12.3757   19.5371 C   0  0  0  0  0  0  0  0  0  0  0  0
  -28.7246  -13.4272   20.9794 C   0  0  0  0  0  0  0  0  0  0  0  0
  -19.6888  -28.7191   22.3608 C   0  0  1  0  0  0  0  0  0  0  0  0
  -23.3166  -29.5530   21.6015 C   0  0  1  0  0  0  0  0  0  0  0  0
  -27.6308  -13.1966   19.9226 C   0  0  2  0  0  0  0  0  0  0  0  0
  -22.8282  -17.1262   17.4013 C   0  0  0  0  0  0  0  0  0  0  0  0
  -28.6111  -32.7059   16.9077 C   0  0  0  0  0  0  0  0  0  0  0  0
  -22.2485  -30.9108   17.3147 C   0  0  0  0  0  0  0  0  0  0  0  0
  -24.1782  -31.6677   15.9107 C   0  0  0  0  0  0  0  0  0  0  0  0
  -23.3277  -33.1249   17.7481 C   0  0  0  0  0  0  0  0  0  0  0  0
  -29.2863  -30.6487   20.0363 C   0  0  0  0  0  0  0  0  0  0  0  0
  -24.5541  -18.9783   17.5197 C   0  0  0  0  0  0  0  0  0  0  0  0
  -29.2426  -19.4539   19.1883 C   0  0  0  0  0  0  0  0  0  0  0  0
  -25.6831  -22.5793   20.8106 C   0  0  0  0  0  0  0  0  0  1  0  0
  -23.8738  -17.8178   18.2617 C   0  0  0  0  0  0  0  0  0  0  0  0
  -29.5055  -18.3884   20.2640 C   0  0  0  0  0  0  0  0  0  0  0  0
  -30.9749  -17.9573   20.2875 C   0  0  0  0  0  0  0  0  0  0  0  0
  -31.2614  -16.9088   21.3576 C   0  0  0  0  0  0  0  0  0  0  0  0
  -24.6214  -31.0307   18.3250 C   0  0  1  0  0  0  0  0  0  0  0  0
  -28.2703  -32.0545   18.2389 C   0  0  2  0  0  0  0  0  0  0  0  0
  -23.5958  -31.6598   17.3402 C   0  0  0  0  0  0  0  0  0  0  0  0
  -26.1412  -12.5211   21.7686 N   0  0  0  0  0  0  0  0  0  0  0  0
  -26.2533  -13.0684   20.5463 N   0  0  0  0  0  0  0  0  0  0  0  0
  -24.0005  -29.6967   20.3146 N   0  0  0  0  0  0  0  0  0  0  0  0
  -30.0392  -13.5462   20.3296 N   0  0  0  0  0  0  0  0  0  0  0  0
  -24.9942  -14.0221   18.7810 N   0  0  0  0  0  0  0  0  0  0  0  0
  -21.8538  -12.9733   21.8525 N   0  0  0  0  0  0  0  0  0  0  0  0
  -21.0919  -29.0685   22.4221 N   0  0  0  0  0  0  0  0  0  0  0  0
  -25.8972  -31.7355   18.3900 N   0  0  0  0  0  0  0  0  0  0  0  0
  -30.4728  -15.7098   21.1806 N   0  0  0  0  0  0  0  0  0  0  0  0
  -29.4725  -31.3192   18.7237 N   0  3  0  0  0  0  0  0  0  0  0  0
  -22.1949  -13.8705   19.7698 O   0  0  0  0  0  0  0  0  0  0  0  0
  -21.5465  -29.0021   20.1393 O   0  0  0  0  0  0  0  0  0  0  0  0
  -23.7960  -32.0192   20.3170 O   0  0  0  0  0  0  0  0  0  0  0  0
  -27.2166  -29.9301   17.7762 O   0  0  0  0  0  0  0  0  0  0  0  0
  -32.0140  -14.6614   19.8454 O   0  0  0  0  0  0  0  0  0  0  0  0
  -22.7593  -10.5999   26.8105 O   0  0  0  0  0  0  0  0  0  0  0  0
  -25.4950  -23.7213   19.9759 O   0  0  0  0  0  0  0  0  0  1  0  0
  -18.2616   -7.4200   26.5597 F   0  0  0  0  0  0  0  0  0  0  0  0
  -22.8036   -8.0031   27.7579 F   0  0  0  0  0  0  0  0  0  0  0  0
  1  2  1  0  0  0  0
  1  5  2  0  0  0  0
  2  6  2  0  0  0  0
  3  8  2  0  0  0  0
  3 18  1  0  0  0  0
  4  9  1  0  0  0  0
  4 18  2  0  0  0  0
  5 20  1  0  0  0  0
  6 22  1  0  0  0  0
  7 10  2  0  0  0  0
  7 21  1  0  0  0  0
  8 27  1  0  0  0  0
  9 27  2  0  0  0  0
 10 28  1  0  0  0  0
 11 12  2  0  0  0  0
 11 29  1  0  0  0  0
 12 30  1  0  0  0  0
 13 23  1  0  0  0  0
 13 28  2  0  0  0  0
 14 24  1  0  0  0  0
 14 25  2  0  0  0  0
 15 24  2  0  0  0  0
 15 26  1  0  0  0  0
 16 25  1  0  0  0  0
 16 26  2  0  0  0  0
 17 30  2  0  0  0  0
 17 31  1  0  0  0  0
 18 32  1  0  0  0  0
 19 32  1  0  0  0  0
 19 33  2  0  0  0  0
 19 34  1  0  0  0  0
 20 22  2  0  0  0  0
 20 39  1  0  0  0  0
 21 23  2  0  0  0  0
 21 40  1  0  0  0  0
 22 48  1  0  0  0  0
 23 41  1  0  0  0  0
 24 57  1  0  0  0  0
 25 58  1  0  0  0  0
 26 59  1  0  0  0  0
 27 82  1  0  0  0  0
 28 83  1  0  0  0  0
 29 31  2  0  0  0  0
 29 82  1  0  0  0  0
 30 84  1  0  0  0  0
 31 85  1  0  0  0  0
 32 67  2  0  0  0  0
 33 68  1  0  0  0  0
 33 71  1  0  0  0  0
 34 72  1  0  0  0  0
 34 77  2  0  0  0  0
 35 49  1  0  0  0  0
 35 73  1  0  0  0  0
 35 78  2  0  0  0  0
 36 64  1  0  0  0  0
 36 69  1  0  0  0  0
 36 79  2  0  0  0  0
 37 65  1  0  0  0  0
 37 74  1  0  0  0  0
 37 80  2  0  0  0  0
 38 70  1  0  0  0  0
 38 75  1  0  0  0  0
 38 81  2  0  0  0  0
 39 42  1  0  0  0  0
 40 49  1  0  0  0  0
 41 69  1  0  0  0  0
 42 44  1  0  0  0  0
 43 45  1  0  0  0  0
 43 46  1  0  0  0  0
 44 48  1  0  0  0  0
 45 50  1  0  0  0  0
 46 70  1  0  0  0  0
 47 50  1  0  0  0  0
 47 70  1  0  0  0  0
 48 73  1  0  0  0  0
 49 69  1  0  0  0  0
 50 68  1  0  0  0  0
 51 60  1  0  0  0  0
 52 65  1  0  0  0  0
 53 66  1  0  0  0  0
 54 66  1  0  0  0  0
 55 66  1  0  0  0  0
 56 76  1  0  0  0  0
 57 60  1  0  0  0  0
 58 61  1  0  0  0  0
 59 83  1  0  0  0  0
 61 62  1  0  0  0  0
 62 63  1  0  0  0  0
 63 75  1  0  0  0  0
 64 66  1  0  0  0  0
 64 74  1  0  0  0  0
 65 76  1  0  0  0  0
 67 68  1  0  0  0  0
M  CHG  1  76   1
M  ISO  4  38 100  59 101  75 100  83 101
M  END
> <Batch ID>
0038

> <Smiles>
CCCc1cc(CCCC[100NH:0][100C:0](=O)N2CCCC(n3nc(-c4ccc(Oc5ccc(F)cc5F)cc4)c(C(N)=O)c3N)C2)cc([101CH2:1][101O:1]c2ccc3c(c2)CN(C(=O)C(NC(=O)C(C)NC)C(C)(C)C)C(C(=O)NC2CCCc4ccccc42)C3)c1

> <Shape>
0.213

> <Color>
0.106

> <Negative vol penalty>
0.000

$$$$

  -OEChem-04052317013D

 88 96  0     1  0  0  0  0  0999 V2000
  -19.5467  -28.3392   26.6626 C   0  0  0  0  0  0  0  0  0  0  0  0
  -20.8057  -27.9181   26.2466 C   0  0  0  0  0  0  0  0  0  0  0  0
  -27.2058  -16.4211   23.4994 C   0  0  0  0  0  0  0  0  0  0  0  0
  -25.8957  -16.1378   21.4894 C   0  0  0  0  0  0  0  0  0  0  0  0
  -18.5875  -28.7032   25.7185 C   0  0  0  0  0  0  0  0  0  0  0  0
  -21.1058  -27.8597   24.8861 C   0  0  0  0  0  0  0  0  0  0  0  0
  -25.6568  -29.8058   23.8154 C   0  0  0  0  0  0  0  0  0  0  0  0
  -26.7055  -15.2171   23.9952 C   0  0  0  0  0  0  0  0  0  0  0  0
  -25.3954  -14.9338   21.9851 C   0  0  0  0  0  0  0  0  0  0  0  0
  -26.7693  -29.0108   24.0876 C   0  0  0  0  0  0  0  0  0  0  0  0
  -24.0499  -11.6066   22.5658 C   0  0  0  0  0  0  0  0  0  0  0  0
  -24.0059  -10.5154   21.6981 C   0  0  0  0  0  0  0  0  0  0  0  0
  -26.8935  -28.3974   21.7579 C   0  0  0  0  0  0  0  0  0  0  0  0
  -30.7422  -25.1360   25.1716 C   0  0  0  0  0  0  0  0  0  0  0  0
  -26.4021  -10.6424   21.4168 C   0  0  0  0  0  0  0  0  0  0  0  0
  -26.8008  -16.8815   22.2465 C   0  0  0  0  0  0  0  0  0  0  0  0
  -28.4741  -18.3086   20.9538 C   0  0  0  0  0  0  0  0  0  0  0  0
  -18.8792  -28.6584   24.3460 C   0  0  0  0  0  0  0  0  0  0  0  0
  -25.1468  -29.8941   22.5121 C   0  0  0  0  0  0  0  0  0  0  0  0
  -20.1492  -28.2221   23.9227 C   0  0  0  0  0  0  0  0  0  0  0  0
  -25.7759  -29.1962   21.4713 C   0  0  0  0  0  0  0  0  0  0  0  0
  -30.8042  -23.7522   25.0509 C   0  0  0  0  0  0  0  0  0  0  0  0
  -30.8026  -25.9310   24.0324 C   0  0  0  0  0  0  0  0  0  0  0  0
  -25.8004  -14.4734   23.2380 C   0  0  0  0  0  0  0  0  0  0  0  0
  -27.3861  -28.3042   23.0593 C   0  0  0  0  0  0  0  0  0  0  0  0
  -25.2700  -12.2157   22.8590 C   0  0  0  0  0  0  0  0  0  0  0  0
  -25.1819  -10.0333   21.1236 C   0  0  0  0  0  0  0  0  0  0  0  0
  -26.4461  -11.7336   22.2845 C   0  0  0  0  0  0  0  0  0  0  0  0
  -27.3168  -18.1254   21.7341 C   0  0  0  0  0  0  0  0  0  0  0  0
  -30.9255  -23.2169   23.7787 C   0  0  0  0  0  0  0  0  0  0  0  0
  -30.9242  -25.2982   22.8058 C   0  0  0  0  0  0  0  0  0  0  0  0
  -28.5255  -19.6625   20.7285 C   0  0  0  0  0  0  0  0  0  0  0  0
  -29.4181  -17.3414   20.4753 C   0  0  0  0  0  0  0  0  0  0  0  0
  -22.3834  -29.1487   21.1294 C   0  0  0  0  0  0  0  0  0  0  0  0
  -23.7316  -30.5859   18.5528 C   0  0  0  0  0  0  0  0  0  0  0  0
  -26.5759  -31.5324   16.9216 C   0  0  0  0  0  0  0  0  0  0  0  0
  -26.0312  -24.4708   19.3851 C   0  0  0  0  0  0  0  0  0  0  0  0
  -17.7944  -29.0163   23.3613 C   0  0  0  0  0  0  0  0  0  0  0  0
  -23.9622  -30.7771   22.2302 C   0  0  0  0  0  0  0  0  0  0  0  0
  -25.2797  -29.2733   20.0514 C   0  0  0  0  0  0  0  0  0  0  0  0
  -18.3156  -29.2839   21.9516 C   0  0  0  0  0  0  0  0  0  0  0  0
  -25.8771  -23.4462   22.7915 C   0  0  0  0  0  0  0  0  0  0  0  0
  -19.2989  -28.1964   21.5306 C   0  0  0  0  0  0  0  0  0  0  0  0
  -26.3271  -21.9847   22.7546 C   0  0  0  0  0  0  0  0  0  0  0  0
  -25.0489  -23.8129   21.5620 C   0  0  0  0  0  0  0  0  0  0  0  0
  -26.1418  -22.0488   20.2326 C   0  0  0  0  0  0  0  0  0  0  0  0
  -20.5208  -28.1690   22.4567 C   0  0  1  0  0  0  0  0  0  0  0  0
  -23.2160  -30.3876   20.9578 C   0  0  1  0  0  0  0  0  0  0  0  0
  -27.0273  -21.6470   21.4245 C   0  0  2  0  0  0  0  0  0  0  0  0
  -30.7399  -22.8950   26.2675 C   0  0  0  0  0  0  0  0  0  0  0  0
  -30.9978  -21.7373   23.5877 C   0  0  0  0  0  0  0  0  0  0  0  0
  -27.3599  -32.6549   14.8185 C   0  0  0  0  0  0  0  0  0  0  0  0
  -23.1135  -28.0503   16.9720 C   0  0  0  0  0  0  0  0  0  0  0  0
  -24.7221  -28.8336   15.2206 C   0  0  0  0  0  0  0  0  0  0  0  0
  -22.6868  -30.1812   15.7345 C   0  0  0  0  0  0  0  0  0  0  0  0
  -27.8985  -33.7043   18.4358 C   0  0  0  0  0  0  0  0  0  0  0  0
  -30.7362  -27.4338   24.1565 C   0  0  0  0  0  0  0  0  0  0  0  0
  -30.9922  -26.1023   21.5489 C   0  0  0  0  0  0  0  0  0  0  0  0
  -30.8505  -25.2733   20.2595 C   0  0  0  0  0  0  0  0  0  0  0  0
  -30.9972  -26.1216   18.9915 C   0  0  0  0  0  0  0  0  0  0  0  0
  -30.9216  -25.3002   17.7006 C   0  0  0  0  0  0  0  0  0  0  0  0
  -29.5706  -24.6091   17.4990 C   0  0  0  0  0  0  0  0  0  0  0  0
  -28.4345  -25.6331   17.4049 C   0  0  0  0  0  0  0  0  0  0  0  0
  -27.0736  -24.9778   17.1907 C   0  0  0  0  0  0  0  0  0  0  0  0
  -29.3160  -27.9334   24.3987 C   0  0  0  0  0  0  0  0  0  1  0  0
  -24.5891  -30.1255   17.3988 C   0  0  1  0  0  0  0  0  0  0  0  0
  -26.9779  -32.8472   16.2779 C   0  0  2  0  0  0  0  0  0  0  0  0
  -23.7863  -29.2945   16.3585 C   0  0  0  0  0  0  0  0  0  0  0  0
  -26.6791  -19.2713   21.9877 N   0  0  0  0  0  0  0  0  0  0  0  0
  -30.9873  -23.9569   22.6490 N   0  0  0  0  0  0  0  0  0  0  0  0
  -27.4384  -20.1875   21.3632 N   0  0  0  0  0  0  0  0  0  0  0  0
  -24.1146  -30.1450   19.8274 N   0  0  0  0  0  0  0  0  0  0  0  0
  -25.7700  -23.4687   20.3342 N   0  0  0  0  0  0  0  0  0  0  0  0
  -29.3941  -20.4432   20.0515 N   0  0  0  0  0  0  0  0  0  0  0  0
  -29.2151  -15.9929   20.7986 N   0  0  0  0  0  0  0  0  0  0  0  0
  -21.4304  -29.2448   22.1254 N   0  0  0  0  0  0  0  0  0  0  0  0
  -25.2147  -31.3245   16.8513 N   0  0  0  0  0  0  0  0  0  0  0  0
  -26.7251  -24.0610   18.2532 N   0  0  0  0  0  0  0  0  0  0  0  0
  -28.1424  -33.4400   16.9944 N   0  3  0  0  0  0  0  0  0  0  0  0
  -30.4213  -17.6655   19.7954 O   0  0  0  0  0  0  0  0  0  0  0  0
  -22.5894  -28.1780   20.4104 O   0  0  0  0  0  0  0  0  0  0  0  0
  -22.7620  -31.3158   18.3322 O   0  0  0  0  0  0  0  0  0  0  0  0
  -27.3887  -30.7648   17.4321 O   0  0  0  0  0  0  0  0  0  0  0  0
  -25.6773  -25.6448   19.5379 O   0  0  0  0  0  0  0  0  0  0  0  0
  -25.3122  -13.2984   23.7213 O   0  0  0  0  0  0  0  0  0  0  0  0
  -28.4717  -27.5270   23.3224 O   0  0  0  0  0  0  0  0  0  1  0  0
  -25.1397   -8.9845   20.2915 F   0  0  0  0  0  0  0  0  0  0  0  0
  -27.6214  -12.3139   22.5634 F   0  0  0  0  0  0  0  0  0  0  0  0
  1  2  1  0  0  0  0
  1  5  2  0  0  0  0
  2  6  2  0  0  0  0
  3  8  2  0  0  0  0
  3 16  1  0  0  0  0
  4  9  1  0  0  0  0
  4 16  2  0  0  0  0
  5 18  1  0  0  0  0
  6 20  1  0  0  0  0
  7 10  2  0  0  0  0
  7 19  1  0  0  0  0
  8 24  1  0  0  0  0
  9 24  2  0  0  0  0
 10 25  1  0  0  0  0
 11 12  2  0  0  0  0
 11 26  1  0  0  0  0
 12 27  1  0  0  0  0
 13 21  1  0  0  0  0
 13 25  2  0  0  0  0
 14 22  2  0  0  0  0
 14 23  1  0  0  0  0
 15 27  2  0  0  0  0
 15 28  1  0  0  0  0
 16 29  1  0  0  0  0
 17 29  1  0  0  0  0
 17 32  2  0  0  0  0
 17 33  1  0  0  0  0
 18 20  2  0  0  0  0
 18 38  1  0  0  0  0
 19 21  2  0  0  0  0
 19 39  1  0  0  0  0
 20 47  1  0  0  0  0
 21 40  1  0  0  0  0
 22 30  1  0  0  0  0
 22 50  1  0  0  0  0
 23 31  2  0  0  0  0
 23 57  1  0  0  0  0
 24 85  1  0  0  0  0
 25 86  1  0  0  0  0
 26 28  2  0  0  0  0
 26 85  1  0  0  0  0
 27 87  1  0  0  0  0
 28 88  1  0  0  0  0
 29 69  2  0  0  0  0
 30 51  1  0  0  0  0
 30 70  2  0  0  0  0
 31 58  1  0  0  0  0
 31 70  1  0  0  0  0
 32 71  1  0  0  0  0
 32 74  1  0  0  0  0
 33 75  1  0  0  0  0
 33 80  2  0  0  0  0
 34 48  1  0  0  0  0
 34 76  1  0  0  0  0
 34 81  2  0  0  0  0
 35 66  1  0  0  0  0
 35 72  1  0  0  0  0
 35 82  2  0  0  0  0
 36 67  1  0  0  0  0
 36 77  1  0  0  0  0
 36 83  2  0  0  0  0
 37 73  1  0  0  0  0
 37 78  1  0  0  0  0
 37 84  2  0  0  0  0
 38 41  1  0  0  0  0
 39 48  1  0  0  0  0
 40 72  1  0  0  0  0
 41 43  1  0  0  0  0
 42 44  1  0  0  0  0
 42 45  1  0  0  0  0
 43 47  1  0  0  0  0
 44 49  1  0  0  0  0
 45 73  1  0  0  0  0
 46 49  1  0  0  0  0
 46 73  1  0  0  0  0
 47 76  1  0  0  0  0
 48 72  1  0  0  0  0
 49 71  1  0  0  0  0
 52 67  1  0  0  0  0
 53 68  1  0  0  0  0
 54 68  1  0  0  0  0
 55 68  1  0  0  0  0
 56 79  1  0  0  0  0
 57 65  1  0  0  0  0
 58 59  1  0  0  0  0
 59 60  1  0  0  0  0
 60 61  1  0  0  0  0
 61 62  1  0  0  0  0
 62 63  1  0  0  0  0
 63 64  1  0  0  0  0
 64 78  1  0  0  0  0
 65 86  1  0  0  0  0
 66 68  1  0  0  0  0
 66 77  1  0  0  0  0
 67 79  1  0  0  0  0
 69 71  1  0  0  0  0
M  CHG  1  79   1
M  ISO  4  37 100  65 101  78 100  86 101
M  END
> <Batch ID>
0038

> <Smiles>
CNC(C)C(=O)NC(C(=O)N1Cc2cc([101O:1][101CH2:1]Cc3cc(C)c(C)nc3CCCCCCC[100NH:0][100C:0](=O)N3CCCC(n4nc(-c5ccc(Oc6ccc(F)cc6F)cc5)c(C(N)=O)c4N)C3)ccc2CC1C(=O)NC1CCCc2ccccc21)C(C)(C)C

> <Shape>
0.189

> <Color>
0.080

> <Negative vol penalty>
0.000

$$$$

  -OEChem-04052317013D

 83 91  0     1  0  0  0  0  0999 V2000
  -42.1170  -22.9228   26.5845 C   0  0  0  0  0  0  0  0  0  0  0  0
  -41.0440  -22.1611   27.0362 C   0  0  0  0  0  0  0  0  0  0  0  0
  -23.0793   -9.8623   19.9481 C   0  0  0  0  0  0  0  0  0  0  0  0
  -23.8381   -9.8822   22.2417 C   0  0  0  0  0  0  0  0  0  0  0  0
  -41.8850  -24.1237   25.9152 C   0  0  0  0  0  0  0  0  0  0  0  0
  -39.7384  -22.6005   26.8198 C   0  0  0  0  0  0  0  0  0  0  0  0
  -33.1420  -20.1019   25.5706 C   0  0  0  0  0  0  0  0  0  0  0  0
  -22.3393   -8.7077   20.2029 C   0  0  0  0  0  0  0  0  0  0  0  0
  -23.0981   -8.7276   22.4966 C   0  0  0  0  0  0  0  0  0  0  0  0
  -31.8392  -20.2112   26.0550 C   0  0  0  0  0  0  0  0  0  0  0  0
  -20.5362   -5.5501   20.1578 C   0  0  0  0  0  0  0  0  0  0  0  0
  -20.6035   -4.5157   19.2245 C   0  0  0  0  0  0  0  0  0  0  0  0
  -31.5575  -22.2625   24.8173 C   0  0  0  0  0  0  0  0  0  0  0  0
  -22.9887   -4.3555   19.5741 C   0  0  0  0  0  0  0  0  0  0  0  0
  -27.4778  -17.9573   22.8011 C   0  0  0  0  0  0  0  0  0  0  0  0
  -23.8287  -10.4495   20.9675 C   0  0  0  0  0  0  0  0  0  0  0  0
  -24.1618  -12.9753   20.8363 C   0  0  0  0  0  0  0  0  0  0  0  0
  -40.5757  -24.5732   25.6820 C   0  0  0  0  0  0  0  0  0  0  0  0
  -33.6669  -21.0795   24.7132 C   0  0  0  0  0  0  0  0  0  0  0  0
  -39.4888  -23.8092   26.1480 C   0  0  0  0  0  0  0  0  0  0  0  0
  -32.8663  -22.1620   24.3214 C   0  0  0  0  0  0  0  0  0  0  0  0
  -28.3098  -18.7721   22.0101 C   0  0  0  0  0  0  0  0  0  0  0  0
  -22.3487   -8.1403   21.4771 C   0  0  0  0  0  0  0  0  0  0  0  0
  -31.0477  -21.2931   25.6807 C   0  0  0  0  0  0  0  0  0  0  0  0
  -21.6952   -5.9873   20.7992 C   0  0  0  0  0  0  0  0  0  0  0  0
  -21.8297   -3.9183   18.9327 C   0  0  0  0  0  0  0  0  0  0  0  0
  -22.9214   -5.3899   20.5074 C   0  0  0  0  0  0  0  0  0  0  0  0
  -24.5937  -11.6419   20.7047 C   0  0  0  0  0  0  0  0  0  0  0  0
  -28.3302  -19.9796   22.6645 C   0  0  0  0  0  0  0  0  0  0  0  0
  -25.2515  -13.7269   20.4701 C   0  0  0  0  0  0  0  0  0  0  0  0
  -22.8893  -13.4885   21.2523 C   0  0  0  0  0  0  0  0  0  0  0  0
  -36.0900  -23.1310   24.8670 C   0  0  0  0  0  0  0  0  0  0  0  0
  -35.2611  -23.7391   21.7903 C   0  0  0  0  0  0  0  0  0  0  0  0
  -32.8492  -23.6930   19.3764 C   0  0  0  0  0  0  0  0  0  0  0  0
  -30.7315  -14.7659   20.6563 C   0  0  0  0  0  0  0  0  0  0  0  0
  -40.3756  -25.9012   24.9957 C   0  0  0  0  0  0  0  0  0  0  0  0
  -35.0650  -20.9331   24.1781 C   0  0  0  0  0  0  0  0  0  0  0  0
  -33.3758  -23.2278   23.3870 C   0  0  0  0  0  0  0  0  0  0  0  0
  -38.9554  -26.1107   24.4767 C   0  0  0  0  0  0  0  0  0  0  0  0
  -29.6033  -12.3668   18.2797 C   0  0  0  0  0  0  0  0  0  0  0  0
  -37.9350  -25.7236   25.5425 C   0  0  0  0  0  0  0  0  0  0  0  0
  -28.1667  -12.0700   18.7134 C   0  0  0  0  0  0  0  0  0  0  0  0
  -30.5192  -12.5962   19.4800 C   0  0  0  0  0  0  0  0  0  0  0  0
  -28.6142  -13.3268   20.8625 C   0  0  0  0  0  0  0  0  0  0  0  0
  -38.0577  -24.2400   25.9106 C   0  0  1  0  0  0  0  0  0  0  0  0
  -35.6709  -22.2560   23.7196 C   0  0  1  0  0  0  0  0  0  0  0  0
  -27.6412  -13.1436   19.6852 C   0  0  2  0  0  0  0  0  0  0  0  0
  -29.0162  -21.2468   22.3486 C   0  0  0  0  0  0  0  0  0  0  0  0
  -32.4592  -24.2877   16.9698 C   0  0  0  0  0  0  0  0  0  0  0  0
  -35.1012  -26.6904   22.5481 C   0  0  0  0  0  0  0  0  0  0  0  0
  -33.8196  -27.0917   20.4351 C   0  0  0  0  0  0  0  0  0  0  0  0
  -36.1615  -26.2392   20.3285 C   0  0  0  0  0  0  0  0  0  0  0  0
  -32.2284  -20.8885   18.6634 C   0  0  0  0  0  0  0  0  0  0  0  0
  -29.0005  -18.4065   20.7623 C   0  0  0  0  0  0  0  0  0  0  0  0
  -30.5052  -18.0711   20.9182 C   0  0  0  0  0  0  0  0  0  0  0  0
  -27.5902  -20.4170   26.2376 C   0  0  0  0  0  0  0  0  0  0  0  0
  -27.2317  -20.8564   24.8163 C   0  0  0  0  0  0  0  0  0  0  0  0
  -30.7893  -16.9223   21.8835 C   0  0  0  0  0  0  0  0  0  0  0  0
  -29.0835  -20.1886   26.4407 C   0  0  0  0  0  0  0  0  0  1  0  0
  -34.3154  -24.6972   21.1073 C   0  0  1  0  0  0  0  0  0  0  0  0
  -32.8680  -23.1930   17.9431 C   0  0  2  0  0  0  0  0  0  0  0  0
  -34.8402  -26.1607   21.1239 C   0  0  0  0  0  0  0  0  0  0  0  0
  -27.0041  -18.5933   23.8758 N   0  0  0  0  0  0  0  0  0  0  0  0
  -25.8591  -11.5486   20.2874 N   0  0  0  0  0  0  0  0  0  0  0  0
  -27.5402  -19.8206   23.7649 N   0  0  0  0  0  0  0  0  0  0  0  0
  -26.2316  -12.8329   20.1535 N   0  0  0  0  0  0  0  0  0  0  0  0
  -34.7514  -23.0434   22.8958 N   0  0  0  0  0  0  0  0  0  0  0  0
  -29.9646  -13.6268   20.3611 N   0  0  0  0  0  0  0  0  0  0  0  0
  -25.4573  -15.0588   20.3912 N   0  0  0  0  0  0  0  0  0  0  0  0
  -21.8804  -12.5773   21.5932 N   0  0  0  0  0  0  0  0  0  0  0  0
  -37.4421  -23.4145   24.8937 N   0  0  0  0  0  0  0  0  0  0  0  0
  -34.0852  -24.1601   19.7705 N   0  0  0  0  0  0  0  0  0  0  0  0
  -30.1288  -15.6964   21.4939 N   0  0  0  0  0  0  0  0  0  0  0  0
  -31.9296  -22.0465   17.7821 N   0  3  0  0  0  0  0  0  0  0  0  0
  -22.6487  -14.7185   21.3040 O   0  0  0  0  0  0  0  0  0  0  0  0
  -35.2486  -23.5214   25.6678 O   0  0  0  0  0  0  0  0  0  0  0  0
  -36.4076  -23.6072   21.3546 O   0  0  0  0  0  0  0  0  0  0  0  0
  -31.8383  -23.6746   20.0751 O   0  0  0  0  0  0  0  0  0  0  0  0
  -31.8671  -14.9433   20.2024 O   0  0  0  0  0  0  0  0  0  0  0  0
  -21.6266   -7.0138   21.7262 O   0  0  0  0  0  0  0  0  0  0  0  0
  -29.7760  -21.4025   26.1525 O   0  0  0  0  0  0  0  0  0  1  0  0
  -21.8940   -2.9240   18.0375 F   0  0  0  0  0  0  0  0  0  0  0  0
  -24.0380   -5.8048   21.1213 F   0  0  0  0  0  0  0  0  0  0  0  0
  1  2  1  0  0  0  0
  1  5  2  0  0  0  0
  2  6  2  0  0  0  0
  3  8  2  0  0  0  0
  3 16  1  0  0  0  0
  4  9  1  0  0  0  0
  4 16  2  0  0  0  0
  5 18  1  0  0  0  0
  6 20  1  0  0  0  0
  7 10  2  0  0  0  0
  7 19  1  0  0  0  0
  8 23  1  0  0  0  0
  9 23  2  0  0  0  0
 10 24  1  0  0  0  0
 11 12  2  0  0  0  0
 11 25  1  0  0  0  0
 12 26  1  0  0  0  0
 13 21  1  0  0  0  0
 13 24  2  0  0  0  0
 14 26  2  0  0  0  0
 14 27  1  0  0  0  0
 15 22  1  0  0  0  0
 15 63  2  0  0  0  0
 16 28  1  0  0  0  0
 17 28  1  0  0  0  0
 17 30  2  0  0  0  0
 17 31  1  0  0  0  0
 18 20  2  0  0  0  0
 18 36  1  0  0  0  0
 19 21  2  0  0  0  0
 19 37  1  0  0  0  0
 20 45  1  0  0  0  0
 21 38  1  0  0  0  0
 22 29  2  0  0  0  0
 22 54  1  0  0  0  0
 23 80  1  0  0  0  0
 24 81  1  0  0  0  0
 25 27  2  0  0  0  0
 25 80  1  0  0  0  0
 26 82  1  0  0  0  0
 27 83  1  0  0  0  0
 28 64  2  0  0  0  0
 29 48  1  0  0  0  0
 29 65  1  0  0  0  0
 30 66  1  0  0  0  0
 30 69  1  0  0  0  0
 31 70  1  0  0  0  0
 31 75  2  0  0  0  0
 32 46  1  0  0  0  0
 32 71  1  0  0  0  0
 32 76  2  0  0  0  0
 33 60  1  0  0  0  0
 33 67  1  0  0  0  0
 33 77  2  0  0  0  0
 34 61  1  0  0  0  0
 34 72  1  0  0  0  0
 34 78  2  0  0  0  0
 35 68  1  0  0  0  0
 35 73  1  0  0  0  0
 35 79  2  0  0  0  0
 36 39  1  0  0  0  0
 37 46  1  0  0  0  0
 38 67  1  0  0  0  0
 39 41  1  0  0  0  0
 40 42  1  0  0  0  0
 40 43  1  0  0  0  0
 41 45  1  0  0  0  0
 42 47  1  0  0  0  0
 43 68  1  0  0  0  0
 44 47  1  0  0  0  0
 44 68  1  0  0  0  0
 45 71  1  0  0  0  0
 46 67  1  0  0  0  0
 47 66  1  0  0  0  0
 49 61  1  0  0  0  0
 50 62  1  0  0  0  0
 51 62  1  0  0  0  0
 52 62  1  0  0  0  0
 53 74  1  0  0  0  0
 54 55  1  0  0  0  0
 55 58  1  0  0  0  0
 56 57  1  0  0  0  0
 56 59  1  0  0  0  0
 57 65  1  0  0  0  0
 58 73  1  0  0  0  0
 59 81  1  0  0  0  0
 60 62  1  0  0  0  0
 60 72  1  0  0  0  0
 61 74  1  0  0  0  0
 63 65  1  0  0  0  0
 64 66  1  0  0  0  0
M  CHG  1  74   1
M  ISO  4  35 100  59 101  73 100  81 101
M  END
> <Batch ID>
0038

> <Smiles>
CNC(C)C(=O)NC(C(=O)N1Cc2cc([101O:1][101CH2:1]CCn3ncc(CCC[100NH:0][100C:0](=O)N4CCCC(n5nc(-c6ccc(Oc7ccc(F)cc7F)cc6)c(C(N)=O)c5N)C4)c3C)ccc2CC1C(=O)NC1CCCc2ccccc21)C(C)(C)C

> <Shape>
0.169

> <Color>
0.196

> <Negative vol penalty>
0.000

$$$$

  -OEChem-04052317013D

 85 93  0     1  0  0  0  0  0999 V2000
  -30.0859  -16.7793   17.7448 C   0  0  0  0  0  0  0  0  0  0  0  0
  -29.2300  -17.6057   18.4641 C   0  0  0  0  0  0  0  0  0  0  0  0
  -23.0766   -9.8612   19.9565 C   0  0  0  0  0  0  0  0  0  0  0  0
  -23.8654   -9.8790   22.2400 C   0  0  0  0  0  0  0  0  0  0  0  0
  -31.2776  -17.2907   17.2356 C   0  0  0  0  0  0  0  0  0  0  0  0
  -29.5598  -18.9467   18.6642 C   0  0  0  0  0  0  0  0  0  0  0  0
  -26.7415  -23.2806   21.8892 C   0  0  0  0  0  0  0  0  0  0  0  0
  -22.3447   -8.7030   20.2183 C   0  0  0  0  0  0  0  0  0  0  0  0
  -23.1335   -8.7208   22.5019 C   0  0  0  0  0  0  0  0  0  0  0  0
  -26.7872  -23.7929   23.1851 C   0  0  0  0  0  0  0  0  0  0  0  0
  -21.1864   -5.9718   23.8694 C   0  0  0  0  0  0  0  0  0  0  0  0
  -20.4454   -5.9251   25.0502 C   0  0  0  0  0  0  0  0  0  0  0  0
  -28.2477  -25.5579   22.4294 C   0  0  0  0  0  0  0  0  0  0  0  0
  -19.1770   -7.8513   24.3304 C   0  0  0  0  0  0  0  0  0  0  0  0
  -30.6536  -23.3926   25.1403 C   0  0  0  0  0  0  0  0  0  0  0  0
  -23.8370  -10.4491   20.9673 C   0  0  0  0  0  0  0  0  0  0  0  0
  -24.1582  -12.9765   20.8376 C   0  0  0  0  0  0  0  0  0  0  0  0
  -31.6274  -18.6355   17.4406 C   0  0  0  0  0  0  0  0  0  0  0  0
  -27.4584  -23.8979   20.8542 C   0  0  0  0  0  0  0  0  0  0  0  0
  -30.7468  -19.4875   18.1376 C   0  0  0  0  0  0  0  0  0  0  0  0
  -28.2073  -25.0530   21.1207 C   0  0  0  0  0  0  0  0  0  0  0  0
  -22.3731   -8.1328   21.4910 C   0  0  0  0  0  0  0  0  0  0  0  0
  -27.5427  -24.9300   23.4559 C   0  0  0  0  0  0  0  0  0  0  0  0
  -20.9228   -6.9583   22.9191 C   0  0  0  0  0  0  0  0  0  0  0  0
  -19.4407   -6.8649   25.2807 C   0  0  0  0  0  0  0  0  0  0  0  0
  -19.9181   -7.8980   23.1496 C   0  0  0  0  0  0  0  0  0  0  0  0
  -24.5938  -11.6452   20.6973 C   0  0  0  0  0  0  0  0  0  0  0  0
  -30.4466  -23.9666   26.4089 C   0  0  0  0  0  0  0  0  0  0  0  0
  -31.3819  -22.2557   25.3926 C   0  0  0  0  0  0  0  0  0  0  0  0
  -25.2400  -13.7334   20.4589 C   0  0  0  0  0  0  0  0  0  0  0  0
  -22.8893  -13.4837   21.2715 C   0  0  0  0  0  0  0  0  0  0  0  0
  -29.8163  -23.0073   18.9174 C   0  0  0  0  0  0  0  0  0  0  0  0
  -30.7404  -14.7280   20.6723 C   0  0  0  0  0  0  0  0  0  0  0  0
  -29.2440  -25.8852   17.5345 C   0  0  0  0  0  0  0  0  0  0  0  0
  -28.0187  -29.0555   17.8431 C   0  0  0  0  0  0  0  0  0  0  0  0
  -32.9258  -19.1386   16.8606 C   0  0  0  0  0  0  0  0  0  0  0  0
  -27.3772  -23.3485   19.4563 C   0  0  0  0  0  0  0  0  0  0  0  0
  -28.9788  -25.7648   20.0406 C   0  0  0  0  0  0  0  0  0  0  0  0
  -33.3964  -20.4417   17.4983 C   0  0  0  0  0  0  0  0  0  0  0  0
  -29.5615  -12.4172   18.2004 C   0  0  0  0  0  0  0  0  0  0  0  0
  -32.2565  -21.4490   17.5243 C   0  0  0  0  0  0  0  0  0  0  0  0
  -28.1391  -12.0967   18.6581 C   0  0  0  0  0  0  0  0  0  0  0  0
  -30.4956  -12.6295   19.3877 C   0  0  0  0  0  0  0  0  0  0  0  0
  -28.6046  -13.3530   20.8098 C   0  0  0  0  0  0  0  0  0  0  0  0
  -31.0992  -20.9416   18.3939 C   0  0  1  0  0  0  0  0  0  0  0  0
  -28.5590  -23.7591   18.5833 C   0  0  1  0  0  0  0  0  0  0  0  0
  -27.6216  -13.1615   19.6413 C   0  0  2  0  0  0  0  0  0  0  0  0
  -27.7243  -31.1878   16.5533 C   0  0  0  0  0  0  0  0  0  0  0  0
  -32.2125  -26.5008   17.8792 C   0  0  0  0  0  0  0  0  0  0  0  0
  -31.6874  -28.9153   17.4758 C   0  0  0  0  0  0  0  0  0  0  0  0
  -31.2432  -27.2292   15.6919 C   0  0  0  0  0  0  0  0  0  0  0  0
  -32.2660  -21.2109   27.5000 C   0  0  0  0  0  0  0  0  0  0  0  0
  -25.0733  -28.9470   18.1112 C   0  0  0  0  0  0  0  0  0  0  0  0
  -29.7043  -25.2388   26.7317 C   0  0  0  0  0  0  0  0  0  0  0  0
  -31.9124  -21.2236   24.4830 C   0  0  0  0  0  0  0  0  0  0  0  0
  -30.1169  -15.7195   21.6222 C   0  0  0  0  0  0  0  0  0  0  0  0
  -28.2127  -25.0300   27.0019 C   0  0  0  0  0  0  0  0  0  0  0  0
  -30.9600  -20.0336   24.2149 C   0  0  0  0  0  0  0  0  0  0  0  0
  -31.0804  -16.8611   21.9307 C   0  0  0  0  0  0  0  0  0  0  0  0
  -31.4894  -18.9961   23.2176 C   0  0  0  0  0  0  0  0  0  0  0  0
  -30.4873  -17.8812   22.9087 C   0  0  0  0  0  0  0  0  0  0  0  0
  -27.4483  -24.5020   25.7934 C   0  0  0  0  0  0  0  0  0  1  0  0
  -29.7583  -27.2900   17.7372 C   0  0  1  0  0  0  0  0  0  0  0  0
  -27.0893  -29.8667   16.9585 C   0  0  2  0  0  0  0  0  0  0  0  0
  -31.2125  -27.4695   17.2170 C   0  0  0  0  0  0  0  0  0  0  0  0
  -25.8539  -11.5580   20.2632 N   0  0  0  0  0  0  0  0  0  0  0  0
  -30.9986  -23.2532   27.3940 N   0  0  0  0  0  0  0  0  0  0  0  0
  -31.5596  -22.2192   26.7443 N   0  0  0  0  0  0  0  0  0  0  0  0
  -26.2194  -12.8440   20.1274 N   0  0  0  0  0  0  0  0  0  0  0  0
  -28.8728  -25.1853   18.6913 N   0  0  0  0  0  0  0  0  0  0  0  0
  -29.9579  -13.6317   20.3094 N   0  0  0  0  0  0  0  0  0  0  0  0
  -25.4394  -15.0662   20.3804 N   0  0  0  0  0  0  0  0  0  0  0  0
  -21.8886  -12.5677   21.6235 N   0  0  0  0  0  0  0  0  0  0  0  0
  -29.9624  -21.8199   18.2260 N   0  0  0  0  0  0  0  0  0  0  0  0
  -28.7849  -28.1759   17.1079 N   0  0  0  0  0  0  0  0  0  0  0  0
  -25.8154  -30.1578   17.6750 N   0  3  0  0  0  0  0  0  0  0  0  0
  -22.6445  -14.7126   21.3292 O   0  0  0  0  0  0  0  0  0  0  0  0
  -30.5970  -23.4711   19.7404 O   0  0  0  0  0  0  0  0  0  0  0  0
  -31.8877  -14.9254   20.2638 O   0  0  0  0  0  0  0  0  0  0  0  0
  -29.1674  -25.4284   16.3912 O   0  0  0  0  0  0  0  0  0  0  0  0
  -28.0634  -29.1912   19.0638 O   0  0  0  0  0  0  0  0  0  0  0  0
  -21.6588   -7.0028   21.7469 O   0  0  0  0  0  0  0  0  0  0  0  0
  -27.5896  -25.4317   24.7200 O   0  0  0  0  0  0  0  0  0  1  0  0
  -18.7281   -6.8190   26.4139 F   0  0  0  0  0  0  0  0  0  0  0  0
  -19.6595   -8.8474   22.2398 F   0  0  0  0  0  0  0  0  0  0  0  0
  1  2  1  0  0  0  0
  1  5  2  0  0  0  0
  2  6  2  0  0  0  0
  3  8  2  0  0  0  0
  3 16  1  0  0  0  0
  4  9  1  0  0  0  0
  4 16  2  0  0  0  0
  5 18  1  0  0  0  0
  6 20  1  0  0  0  0
  7 10  2  0  0  0  0
  7 19  1  0  0  0  0
  8 22  1  0  0  0  0
  9 22  2  0  0  0  0
 10 23  1  0  0  0  0
 11 12  2  0  0  0  0
 11 24  1  0  0  0  0
 12 25  1  0  0  0  0
 13 21  1  0  0  0  0
 13 23  2  0  0  0  0
 14 25  2  0  0  0  0
 14 26  1  0  0  0  0
 15 28  1  0  0  0  0
 15 29  2  0  0  0  0
 16 27  1  0  0  0  0
 17 27  1  0  0  0  0
 17 30  2  0  0  0  0
 17 31  1  0  0  0  0
 18 20  2  0  0  0  0
 18 36  1  0  0  0  0
 19 21  2  0  0  0  0
 19 37  1  0  0  0  0
 20 45  1  0  0  0  0
 21 38  1  0  0  0  0
 22 82  1  0  0  0  0
 23 83  1  0  0  0  0
 24 26  2  0  0  0  0
 24 82  1  0  0  0  0
 25 84  1  0  0  0  0
 26 85  1  0  0  0  0
 27 66  2  0  0  0  0
 28 54  1  0  0  0  0
 28 67  2  0  0  0  0
 29 55  1  0  0  0  0
 29 68  1  0  0  0  0
 30 69  1  0  0  0  0
 30 72  1  0  0  0  0
 31 73  1  0  0  0  0
 31 77  2  0  0  0  0
 32 46  1  0  0  0  0
 32 74  1  0  0  0  0
 32 78  2  0  0  0  0
 33 56  1  0  0  0  0
 33 71  1  0  0  0  0
 33 79  2  0  0  0  0
 34 63  1  0  0  0  0
 34 70  1  0  0  0  0
 34 80  2  0  0  0  0
 35 64  1  0  0  0  0
 35 75  1  0  0  0  0
 35 81  2  0  0  0  0
 36 39  1  0  0  0  0
 37 46  1  0  0  0  0
 38 70  1  0  0  0  0
 39 41  1  0  0  0  0
 40 42  1  0  0  0  0
 40 43  1  0  0  0  0
 41 45  1  0  0  0  0
 42 47  1  0  0  0  0
 43 71  1  0  0  0  0
 44 47  1  0  0  0  0
 44 71  1  0  0  0  0
 45 74  1  0  0  0  0
 46 70  1  0  0  0  0
 47 69  1  0  0  0  0
 48 64  1  0  0  0  0
 49 65  1  0  0  0  0
 50 65  1  0  0  0  0
 51 65  1  0  0  0  0
 52 68  1  0  0  0  0
 53 76  1  0  0  0  0
 54 57  1  0  0  0  0
 55 58  1  0  0  0  0
 56 59  1  0  0  0  0
 57 62  1  0  0  0  0
 58 60  1  0  0  0  0
 59 61  1  0  0  0  0
 60 61  1  0  0  0  0
 62 83  1  0  0  0  0
 63 65  1  0  0  0  0
 63 75  1  0  0  0  0
 64 76  1  0  0  0  0
 66 69  1  0  0  0  0
 67 68  1  0  0  0  0
M  CHG  1  76   1
M  ISO  4  33 100  56 100  62 101  83 101
M  END
> <Batch ID>
0038

> <Smiles>
CNC(C)C(=O)NC(C(=O)N1Cc2cc([101O:1][101CH2:1]CCc3cc(CCCCC[100CH2:0][100C:0](=O)N4CCCC(n5nc(-c6ccc(Oc7ccc(F)cc7F)cc6)c(C(N)=O)c5N)C4)n(C)n3)ccc2CC1C(=O)NC1CCCc2ccccc21)C(C)(C)C

> <Shape>
0.231

> <Color>
0.192

> <Negative vol penalty>
0.000

$$$$

  -OEChem-04052317013D

 85 93  0     1  0  0  0  0  0999 V2000
  -28.7060  -16.6578   17.0223 C   0  0  0  0  0  0  0  0  0  0  0  0
  -29.1580  -17.3577   18.1365 C   0  0  0  0  0  0  0  0  0  0  0  0
  -23.0033   -9.8914   19.9805 C   0  0  0  0  0  0  0  0  0  0  0  0
  -23.7331   -9.9415   22.2831 C   0  0  0  0  0  0  0  0  0  0  0  0
  -29.3681  -16.7890   15.8023 C   0  0  0  0  0  0  0  0  0  0  0  0
  -30.2731  -18.1883   18.0315 C   0  0  0  0  0  0  0  0  0  0  0  0
  -29.5864  -22.6592   20.3085 C   0  0  0  0  0  0  0  0  0  0  0  0
  -22.2399   -8.7549   20.2471 C   0  0  0  0  0  0  0  0  0  0  0  0
  -22.9696   -8.8049   22.5498 C   0  0  0  0  0  0  0  0  0  0  0  0
  -29.7025  -22.6908   21.6975 C   0  0  0  0  0  0  0  0  0  0  0  0
  -23.2206   -5.4671   22.0737 C   0  0  0  0  0  0  0  0  0  0  0  0
  -23.8120   -4.4504   22.8234 C   0  0  0  0  0  0  0  0  0  0  0  0
  -31.9424  -23.5608   21.4844 C   0  0  0  0  0  0  0  0  0  0  0  0
  -22.0910   -4.6876   24.5024 C   0  0  0  0  0  0  0  0  0  0  0  0
  -32.4328  -23.0175   27.7863 C   0  0  0  0  0  0  0  0  0  0  0  0
  -23.7500  -10.4847   20.9985 C   0  0  0  0  0  0  0  0  0  0  0  0
  -24.1292  -13.0013   20.8244 C   0  0  0  0  0  0  0  0  0  0  0  0
  -30.4861  -17.6291   15.6800 C   0  0  0  0  0  0  0  0  0  0  0  0
  -30.6531  -23.0685   19.4956 C   0  0  0  0  0  0  0  0  0  0  0  0
  -30.9516  -18.3298   16.8091 C   0  0  0  0  0  0  0  0  0  0  0  0
  -31.8363  -23.5358   20.0854 C   0  0  0  0  0  0  0  0  0  0  0  0
  -32.8034  -22.6372   26.5197 C   0  0  0  0  0  0  0  0  0  0  0  0
  -22.2230   -8.2116   21.5318 C   0  0  0  0  0  0  0  0  0  0  0  0
  -30.8817  -23.1389   22.2856 C   0  0  0  0  0  0  0  0  0  0  0  0
  -22.0644   -6.0941   22.5383 C   0  0  0  0  0  0  0  0  0  0  0  0
  -23.2472   -4.0606   24.0378 C   0  0  0  0  0  0  0  0  0  0  0  0
  -21.4996   -5.7043   23.7527 C   0  0  0  0  0  0  0  0  0  0  0  0
  -24.5392  -11.6584   20.7235 C   0  0  0  0  0  0  0  0  0  0  0  0
  -32.1770  -23.5723   25.6741 C   0  0  0  0  0  0  0  0  0  0  0  0
  -25.2366  -13.7268   20.4586 C   0  0  0  0  0  0  0  0  0  0  0  0
  -22.8608  -13.5444   21.2142 C   0  0  0  0  0  0  0  0  0  0  0  0
  -32.4846  -21.6532   17.3170 C   0  0  0  0  0  0  0  0  0  0  0  0
  -33.6402  -24.6560   16.9042 C   0  0  0  0  0  0  0  0  0  0  0  0
  -34.1504  -27.7685   18.2074 C   0  0  0  0  0  0  0  0  0  0  0  0
  -30.7313  -14.6737   20.6969 C   0  0  0  0  0  0  0  0  0  0  0  0
  -31.1975  -17.7022   14.3522 C   0  0  0  0  0  0  0  0  0  0  0  0
  -30.5022  -23.0536   17.9991 C   0  0  0  0  0  0  0  0  0  0  0  0
  -33.0034  -24.0053   19.2572 C   0  0  0  0  0  0  0  0  0  0  0  0
  -32.1456  -18.8927   14.2338 C   0  0  0  0  0  0  0  0  0  0  0  0
  -29.5913  -12.2500   18.3511 C   0  0  0  0  0  0  0  0  0  0  0  0
  -33.0073  -19.0154   15.4864 C   0  0  0  0  0  0  0  0  0  0  0  0
  -28.1443  -11.9865   18.7714 C   0  0  0  0  0  0  0  0  0  0  0  0
  -30.4957  -12.4861   19.5587 C   0  0  0  0  0  0  0  0  0  0  0  0
  -28.5865  -13.2758   20.9023 C   0  0  0  0  0  0  0  0  0  0  0  0
  -32.1427  -19.2598   16.7291 C   0  0  1  0  0  0  0  0  0  0  0  0
  -31.8384  -23.0087   17.2643 C   0  0  1  0  0  0  0  0  0  0  0  0
  -27.6255  -13.0872   19.7161 C   0  0  2  0  0  0  0  0  0  0  0  0
  -35.1543  -29.9989   17.6461 C   0  0  0  0  0  0  0  0  0  0  0  0
  -36.4325  -23.5070   17.3433 C   0  0  0  0  0  0  0  0  0  0  0  0
  -37.2581  -25.8407   17.7179 C   0  0  0  0  0  0  0  0  0  0  0  0
  -36.2789  -25.2048   15.5135 C   0  0  0  0  0  0  0  0  0  0  0  0
  -31.0047  -24.8718   28.6816 C   0  0  0  0  0  0  0  0  0  0  0  0
  -31.5478  -29.1454   18.5068 C   0  0  0  0  0  0  0  0  0  0  0  0
  -33.6638  -21.5028   26.1437 C   0  0  0  0  0  0  0  0  0  0  0  0
  -32.2343  -23.6408   24.1763 C   0  0  0  0  0  0  0  0  0  1  0  0
  -32.9088  -20.2517   25.6319 C   0  0  0  0  0  0  0  0  0  0  0  0
  -33.8539  -19.0875   25.3149 C   0  0  0  0  0  0  0  0  0  0  0  0
  -33.1226  -17.8180   24.8669 C   0  0  0  0  0  0  0  0  0  0  0  0
  -32.3432  -17.9951   23.5613 C   0  0  0  0  0  0  0  0  0  0  0  0
  -31.6099  -16.7058   23.1761 C   0  0  0  0  0  0  0  0  0  0  0  0
  -30.8115  -16.8514   21.8843 C   0  0  0  0  0  0  0  0  0  0  0  0
  -34.7583  -25.4647   17.5165 C   0  0  1  0  0  0  0  0  0  0  0  0
  -33.8906  -29.1527   17.6409 C   0  0  2  0  0  0  0  0  0  0  0  0
  -36.1608  -24.9937   17.0386 C   0  0  0  0  0  0  0  0  0  0  0  0
  -25.8080  -11.5352   20.3246 N   0  0  0  0  0  0  0  0  0  0  0  0
  -31.4625  -24.4783   26.3468 N   0  0  0  0  0  0  0  0  0  0  0  0
  -31.6376  -24.1143   27.6286 N   0  0  0  0  0  0  0  0  0  0  0  0
  -26.2047  -12.8101   20.1716 N   0  0  0  0  0  0  0  0  0  0  0  0
  -32.8096  -23.9657   17.7983 N   0  0  0  0  0  0  0  0  0  0  0  0
  -29.9482  -13.5426   20.4131 N   0  0  0  0  0  0  0  0  0  0  0  0
  -25.4668  -15.0532   20.3575 N   0  0  0  0  0  0  0  0  0  0  0  0
  -21.8317  -12.6575   21.5588 N   0  0  0  0  0  0  0  0  0  0  0  0
  -31.7119  -20.6404   16.7815 N   0  0  0  0  0  0  0  0  0  0  0  0
  -34.4629  -26.8617   17.2169 N   0  0  0  0  0  0  0  0  0  0  0  0
  -30.1344  -15.6302   21.5091 N   0  0  0  0  0  0  0  0  0  0  0  0
  -32.8514  -29.8551   18.4457 N   0  3  0  0  0  0  0  0  0  0  0  0
  -22.6413  -14.7792   21.2397 O   0  0  0  0  0  0  0  0  0  0  0  0
  -33.6020  -21.5352   17.8059 O   0  0  0  0  0  0  0  0  0  0  0  0
  -33.5044  -24.6430   15.6783 O   0  0  0  0  0  0  0  0  0  0  0  0
  -34.0864  -27.5177   19.4089 O   0  0  0  0  0  0  0  0  0  0  0  0
  -31.8755  -14.8226   20.2547 O   0  0  0  0  0  0  0  0  0  0  0  0
  -21.4780   -7.1028   21.7924 O   0  0  0  0  0  0  0  0  0  0  0  0
  -30.9980  -23.1702   23.6411 O   0  0  0  0  0  0  0  0  0  1  0  0
  -23.8143   -3.0832   24.7570 F   0  0  0  0  0  0  0  0  0  0  0  0
  -20.3883   -6.3021   24.2036 F   0  0  0  0  0  0  0  0  0  0  0  0
  1  2  1  0  0  0  0
  1  5  2  0  0  0  0
  2  6  2  0  0  0  0
  3  8  2  0  0  0  0
  3 16  1  0  0  0  0
  4  9  1  0  0  0  0
  4 16  2  0  0  0  0
  5 18  1  0  0  0  0
  6 20  1  0  0  0  0
  7 10  2  0  0  0  0
  7 19  1  0  0  0  0
  8 23  1  0  0  0  0
  9 23  2  0  0  0  0
 10 24  1  0  0  0  0
 11 12  2  0  0  0  0
 11 25  1  0  0  0  0
 12 26  1  0  0  0  0
 13 21  1  0  0  0  0
 13 24  2  0  0  0  0
 14 26  2  0  0  0  0
 14 27  1  0  0  0  0
 15 22  2  0  0  0  0
 15 67  1  0  0  0  0
 16 28  1  0  0  0  0
 17 28  1  0  0  0  0
 17 30  2  0  0  0  0
 17 31  1  0  0  0  0
 18 20  2  0  0  0  0
 18 36  1  0  0  0  0
 19 21  2  0  0  0  0
 19 37  1  0  0  0  0
 20 45  1  0  0  0  0
 21 38  1  0  0  0  0
 22 29  1  0  0  0  0
 22 54  1  0  0  0  0
 23 82  1  0  0  0  0
 24 83  1  0  0  0  0
 25 27  2  0  0  0  0
 25 82  1  0  0  0  0
 26 84  1  0  0  0  0
 27 85  1  0  0  0  0
 28 65  2  0  0  0  0
 29 55  1  0  0  0  0
 29 66  2  0  0  0  0
 30 68  1  0  0  0  0
 30 71  1  0  0  0  0
 31 72  1  0  0  0  0
 31 77  2  0  0  0  0
 32 46  1  0  0  0  0
 32 73  1  0  0  0  0
 32 78  2  0  0  0  0
 33 62  1  0  0  0  0
 33 69  1  0  0  0  0
 33 79  2  0  0  0  0
 34 63  1  0  0  0  0
 34 74  1  0  0  0  0
 34 80  2  0  0  0  0
 35 70  1  0  0  0  0
 35 75  1  0  0  0  0
 35 81  2  0  0  0  0
 36 39  1  0  0  0  0
 37 46  1  0  0  0  0
 38 69  1  0  0  0  0
 39 41  1  0  0  0  0
 40 42  1  0  0  0  0
 40 43  1  0  0  0  0
 41 45  1  0  0  0  0
 42 47  1  0  0  0  0
 43 70  1  0  0  0  0
 44 47  1  0  0  0  0
 44 70  1  0  0  0  0
 45 73  1  0  0  0  0
 46 69  1  0  0  0  0
 47 68  1  0  0  0  0
 48 63  1  0  0  0  0
 49 64  1  0  0  0  0
 50 64  1  0  0  0  0
 51 64  1  0  0  0  0
 52 67  1  0  0  0  0
 53 76  1  0  0  0  0
 54 56  1  0  0  0  0
 55 83  1  0  0  0  0
 56 57  1  0  0  0  0
 57 58  1  0  0  0  0
 58 59  1  0  0  0  0
 59 60  1  0  0  0  0
 60 61  1  0  0  0  0
 61 75  1  0  0  0  0
 62 64  1  0  0  0  0
 62 74  1  0  0  0  0
 63 76  1  0  0  0  0
 65 68  1  0  0  0  0
 66 67  1  0  0  0  0
M  CHG  1  76   1
M  ISO  4  35 100  55 101  75 100  83 101
M  END
> <Batch ID>
0038

> <Smiles>
CNC(C)C(=O)NC(C(=O)N1Cc2cc([101O:1][101CH2:1]c3nn(C)cc3CCCCCCC[100NH:0][100C:0](=O)N3CCCC(n4nc(-c5ccc(Oc6ccc(F)cc6F)cc5)c(C(N)=O)c4N)C3)ccc2CC1C(=O)NC1CCCc2ccccc21)C(C)(C)C

> <Shape>
0.209

> <Color>
0.193

> <Negative vol penalty>
0.000

$$$$

  -OEChem-04052317013D

 87 95  0     1  0  0  0  0  0999 V2000
  -29.3484  -35.0779   26.3795 C   0  0  0  0  0  0  0  0  0  0  0  0
  -29.2629  -33.7983   25.8404 C   0  0  0  0  0  0  0  0  0  0  0  0
  -24.6344   -8.6067   21.3931 C   0  0  0  0  0  0  0  0  0  0  0  0
  -23.0573  -10.4370   21.4060 C   0  0  0  0  0  0  0  0  0  0  0  0
  -28.1921  -35.8355   26.5607 C   0  0  0  0  0  0  0  0  0  0  0  0
  -28.0207  -33.2751   25.4831 C   0  0  0  0  0  0  0  0  0  0  0  0
  -28.1027  -30.9876   20.9659 C   0  0  0  0  0  0  0  0  0  0  0  0
  -23.8942   -7.9619   22.3839 C   0  0  0  0  0  0  0  0  0  0  0  0
  -22.3170   -9.7921   22.3968 C   0  0  0  0  0  0  0  0  0  0  0  0
  -28.6500  -29.7065   20.9107 C   0  0  0  0  0  0  0  0  0  0  0  0
  -21.0676   -6.1163   22.5778 C   0  0  0  0  0  0  0  0  0  0  0  0
  -20.8198   -4.7530   22.4179 C   0  0  0  0  0  0  0  0  0  0  0  0
  -26.4299  -28.7634   20.9350 C   0  0  0  0  0  0  0  0  0  0  0  0
  -21.9729   -4.3001   24.4921 C   0  0  0  0  0  0  0  0  0  0  0  0
  -24.2160   -9.8443   20.9041 C   0  0  0  0  0  0  0  0  0  0  0  0
  -24.8253  -10.3876   18.4873 C   0  0  0  0  0  0  0  0  0  0  0  0
  -26.9361  -35.3251   26.1965 C   0  0  0  0  0  0  0  0  0  0  0  0
  -26.7128  -31.1661   21.0171 C   0  0  0  0  0  0  0  0  0  0  0  0
  -26.8463  -34.0261   25.6608 C   0  0  0  0  0  0  0  0  0  0  0  0
  -25.8673  -30.0478   20.9881 C   0  0  0  0  0  0  0  0  0  0  0  0
  -30.8422  -23.2040   20.5664 C   0  0  0  0  0  0  0  0  0  0  0  0
  -22.7355   -8.5545   22.8858 C   0  0  0  0  0  0  0  0  0  0  0  0
  -27.8137  -28.5941   20.8982 C   0  0  0  0  0  0  0  0  0  0  0  0
  -21.7682   -6.5716   23.6948 C   0  0  0  0  0  0  0  0  0  0  0  0
  -21.2723   -3.8449   23.3751 C   0  0  0  0  0  0  0  0  0  0  0  0
  -22.2208   -5.6635   24.6520 C   0  0  0  0  0  0  0  0  0  0  0  0
  -24.9805  -10.5112   19.8810 C   0  0  0  0  0  0  0  0  0  0  0  0
  -30.9165  -24.0497   19.4784 C   0  0  0  0  0  0  0  0  0  0  0  0
  -30.3918  -23.7770   21.7382 C   0  0  0  0  0  0  0  0  0  0  0  0
  -25.7837  -11.2182   17.9600 C   0  0  0  0  0  0  0  0  0  0  0  0
  -30.1550  -25.7952   20.7195 C   0  0  0  0  0  0  0  0  0  0  0  0
  -23.8977   -9.5930   17.7363 C   0  0  0  0  0  0  0  0  0  0  0  0
  -24.6908  -32.4431   23.1110 C   0  0  0  0  0  0  0  0  0  0  0  0
  -28.4356  -16.0289   20.2184 C   0  0  0  0  0  0  0  0  0  0  0  0
  -22.5202  -31.8851   20.7660 C   0  0  0  0  0  0  0  0  0  0  0  0
  -21.6420  -30.0930   17.9976 C   0  0  0  0  0  0  0  0  0  0  0  0
  -25.7091  -36.1631   26.4550 C   0  0  0  0  0  0  0  0  0  0  0  0
  -26.1373  -32.5554   21.0492 C   0  0  0  0  0  0  0  0  0  0  0  0
  -24.3679  -30.1862   21.0209 C   0  0  0  0  0  0  0  0  0  0  0  0
  -24.4718  -35.6798   25.7028 C   0  0  0  0  0  0  0  0  0  0  0  0
  -30.0864  -13.0630   18.9127 C   0  0  0  0  0  0  0  0  0  0  0  0
  -24.3180  -34.1687   25.8433 C   0  0  0  0  0  0  0  0  0  0  0  0
  -28.9422  -12.0502   18.9153 C   0  0  0  0  0  0  0  0  0  0  0  0
  -29.9903  -14.0215   20.0968 C   0  0  0  0  0  0  0  0  0  0  0  0
  -27.5353  -13.7246   20.1920 C   0  0  0  0  0  0  0  0  0  0  0  0
  -25.5197  -33.4332   25.2379 C   0  0  1  0  0  0  0  0  0  0  0  0
  -24.7223  -32.6031   21.6174 C   0  0  1  0  0  0  0  0  0  0  0  0
  -27.5785  -12.7583   18.9964 C   0  0  2  0  0  0  0  0  0  0  0  0
  -32.9061  -23.3770   18.1088 C   0  0  0  0  0  0  0  0  0  0  0  0
  -31.2770  -22.4234   25.2438 C   0  0  0  0  0  0  0  0  0  0  0  0
  -19.7919  -29.8372   16.3217 C   0  0  0  0  0  0  0  0  0  0  0  0
  -20.8557  -30.3841   22.8363 C   0  0  0  0  0  0  0  0  0  0  0  0
  -19.5544  -29.3704   20.9529 C   0  0  0  0  0  0  0  0  0  0  0  0
  -19.5337  -31.8416   21.2928 C   0  0  0  0  0  0  0  0  0  0  0  0
  -23.4206  -30.8271   15.7490 C   0  0  0  0  0  0  0  0  0  0  0  0
  -31.2213  -21.7681   20.4807 C   0  0  0  0  0  0  0  0  0  0  0  0
  -31.3899  -23.5410   18.1564 C   0  0  0  0  0  0  0  0  0  0  0  0
  -30.2705  -22.9601   22.9824 C   0  0  0  0  0  0  0  0  0  0  0  0
  -29.7683  -27.2425   20.8043 C   0  0  0  0  0  0  0  0  0  1  0  0
  -29.6518  -16.9204   20.2240 C   0  0  0  0  0  0  0  0  0  0  0  0
  -31.4203  -23.2308   23.9635 C   0  0  0  0  0  0  0  0  0  0  0  0
  -30.0288  -20.7932   20.4296 C   0  0  0  0  0  0  0  0  0  0  0  0
  -29.2522  -18.3909   20.2962 C   0  0  0  0  0  0  0  0  0  0  0  0
  -30.4644  -19.3280   20.3210 C   0  0  0  0  0  0  0  0  0  0  0  0
  -21.6201  -30.7314   20.3948 C   0  0  1  0  0  0  0  0  0  0  0  0
  -21.1083  -30.5268   16.6444 C   0  0  2  0  0  0  0  0  0  0  0  0
  -20.4193  -30.5789   21.3705 C   0  0  0  0  0  0  0  0  0  0  0  0
  -25.9605  -11.3539   20.2179 N   0  0  0  0  0  0  0  0  0  0  0  0
  -30.5796  -25.3555   19.5196 N   0  0  0  0  0  0  0  0  0  0  0  0
  -30.0385  -25.0742   21.8509 N   0  0  0  0  0  0  0  0  0  0  0  0
  -26.4298  -11.7673   19.0284 N   0  0  0  0  0  0  0  0  0  0  0  0
  -23.8536  -31.5652   21.0584 N   0  0  0  0  0  0  0  0  0  0  0  0
  -28.6674  -14.6547   20.1547 N   0  0  0  0  0  0  0  0  0  0  0  0
  -26.1285  -11.5252   16.6915 N   0  0  0  0  0  0  0  0  0  0  0  0
  -22.9807   -8.7968   18.4360 N   0  0  0  0  0  0  0  0  0  0  0  0
  -25.4169  -33.3996   23.7947 N   0  0  0  0  0  0  0  0  0  0  0  0
  -21.2363  -30.9444   19.0035 N   0  0  0  0  0  0  0  0  0  0  0  0
  -22.0877  -30.1958   15.5709 N   0  3  0  0  0  0  0  0  0  0  0  0
  -23.8934   -9.5765   16.4821 O   0  0  0  0  0  0  0  0  0  0  0  0
  -24.0537  -31.5211   23.6067 O   0  0  0  0  0  0  0  0  0  0  0  0
  -27.3139  -16.5406   20.2665 O   0  0  0  0  0  0  0  0  0  0  0  0
  -22.0589  -33.0290   20.7885 O   0  0  0  0  0  0  0  0  0  0  0  0
  -22.3453  -29.0963   18.1480 O   0  0  0  0  0  0  0  0  0  0  0  0
  -22.0128   -7.9254   23.8525 O   0  0  0  0  0  0  0  0  0  0  0  0
  -28.3454  -27.3425   20.8451 O   0  0  0  0  0  0  0  0  0  1  0  0
  -21.0329   -2.5359   23.2222 F   0  0  0  0  0  0  0  0  0  0  0  0
  -22.8933   -6.0949   25.7278 F   0  0  0  0  0  0  0  0  0  0  0  0
  1  2  1  0  0  0  0
  1  5  2  0  0  0  0
  2  6  2  0  0  0  0
  3  8  2  0  0  0  0
  3 15  1  0  0  0  0
  4  9  1  0  0  0  0
  4 15  2  0  0  0  0
  5 17  1  0  0  0  0
  6 19  1  0  0  0  0
  7 10  2  0  0  0  0
  7 18  1  0  0  0  0
  8 22  1  0  0  0  0
  9 22  2  0  0  0  0
 10 23  1  0  0  0  0
 11 12  2  0  0  0  0
 11 24  1  0  0  0  0
 12 25  1  0  0  0  0
 13 20  1  0  0  0  0
 13 23  2  0  0  0  0
 14 25  2  0  0  0  0
 14 26  1  0  0  0  0
 15 27  1  0  0  0  0
 16 27  1  0  0  0  0
 16 30  2  0  0  0  0
 16 32  1  0  0  0  0
 17 19  2  0  0  0  0
 17 37  1  0  0  0  0
 18 20  2  0  0  0  0
 18 38  1  0  0  0  0
 19 46  1  0  0  0  0
 20 39  1  0  0  0  0
 21 28  1  0  0  0  0
 21 29  2  0  0  0  0
 21 56  1  0  0  0  0
 22 84  1  0  0  0  0
 23 85  1  0  0  0  0
 24 26  2  0  0  0  0
 24 84  1  0  0  0  0
 25 86  1  0  0  0  0
 26 87  1  0  0  0  0
 27 68  2  0  0  0  0
 28 57  1  0  0  0  0
 28 69  2  0  0  0  0
 29 58  1  0  0  0  0
 29 70  1  0  0  0  0
 30 71  1  0  0  0  0
 30 74  1  0  0  0  0
 31 59  1  0  0  0  0
 31 69  1  0  0  0  0
 31 70  2  0  0  0  0
 32 75  1  0  0  0  0
 32 79  2  0  0  0  0
 33 47  1  0  0  0  0
 33 76  1  0  0  0  0
 33 80  2  0  0  0  0
 34 60  1  0  0  0  0
 34 73  1  0  0  0  0
 34 81  2  0  0  0  0
 35 65  1  0  0  0  0
 35 72  1  0  0  0  0
 35 82  2  0  0  0  0
 36 66  1  0  0  0  0
 36 77  1  0  0  0  0
 36 83  2  0  0  0  0
 37 40  1  0  0  0  0
 38 47  1  0  0  0  0
 39 72  1  0  0  0  0
 40 42  1  0  0  0  0
 41 43  1  0  0  0  0
 41 44  1  0  0  0  0
 42 46  1  0  0  0  0
 43 48  1  0  0  0  0
 44 73  1  0  0  0  0
 45 48  1  0  0  0  0
 45 73  1  0  0  0  0
 46 76  1  0  0  0  0
 47 72  1  0  0  0  0
 48 71  1  0  0  0  0
 49 57  1  0  0  0  0
 50 61  1  0  0  0  0
 51 66  1  0  0  0  0
 52 67  1  0  0  0  0
 53 67  1  0  0  0  0
 54 67  1  0  0  0  0
 55 78  1  0  0  0  0
 56 62  1  0  0  0  0
 58 61  1  0  0  0  0
 59 85  1  0  0  0  0
 60 63  1  0  0  0  0
 62 64  1  0  0  0  0
 63 64  1  0  0  0  0
 65 67  1  0  0  0  0
 65 77  1  0  0  0  0
 66 78  1  0  0  0  0
 68 71  1  0  0  0  0
M  CHG  1  78   1
M  ISO  4  34 100  59 101  60 100  85 101
M  END
> <Batch ID>
0038

> <Smiles>
CCCc1nc([101CH2:1][101O:1]c2ccc3c(c2)CN(C(=O)C(NC(=O)C(C)NC)C(C)(C)C)C(C(=O)NC2CCCc4ccccc42)C3)nc(CC)c1CCCC[100CH2:0][100C:0](=O)N1CCCC(n2nc(-c3ccc(Oc4ccc(F)cc4F)cc3)c(C(N)=O)c2N)C1

> <Shape>
0.290

> <Color>
0.107

> <Negative vol penalty>
0.000

$$$$

  -OEChem-04052317013D

 91 99  0     1  0  0  0  0  0999 V2000
  -16.4798  -25.1919   22.9003 C   0  0  0  0  0  0  0  0  0  0  0  0
  -17.6779  -25.0100   22.2170 C   0  0  0  0  0  0  0  0  0  0  0  0
  -22.7415  -16.4947   19.2977 C   0  0  0  0  0  0  0  0  0  0  0  0
  -23.4632  -17.3538   21.4373 C   0  0  0  0  0  0  0  0  0  0  0  0
  -16.2037  -26.4165   23.5070 C   0  0  0  0  0  0  0  0  0  0  0  0
  -18.6001  -26.0530   22.1391 C   0  0  0  0  0  0  0  0  0  0  0  0
  -23.3446  -24.5216   23.0279 C   0  0  0  0  0  0  0  0  0  0  0  0
  -21.9009  -17.5964   19.1388 C   0  0  0  0  0  0  0  0  0  0  0  0
  -22.6226  -18.4556   21.2785 C   0  0  0  0  0  0  0  0  0  0  0  0
  -24.0075  -23.8676   21.9903 C   0  0  0  0  0  0  0  0  0  0  0  0
  -20.3991  -21.3124   21.6014 C   0  0  0  0  0  0  0  0  0  0  0  0
  -19.6245  -21.6999   22.6948 C   0  0  0  0  0  0  0  0  0  0  0  0
  -25.1631  -25.9141   21.4467 C   0  0  0  0  0  0  0  0  0  0  0  0
  -25.7617  -22.3479   17.5421 C   0  0  0  0  0  0  0  0  0  0  0  0
  -18.5542  -19.5338   22.7042 C   0  0  0  0  0  0  0  0  0  0  0  0
  -23.5226  -16.3734   20.4470 C   0  0  0  0  0  0  0  0  0  0  0  0
  -24.0161  -13.8788   20.6501 C   0  0  0  0  0  0  0  0  0  0  0  0
  -17.1272  -27.4719   23.4447 C   0  0  0  0  0  0  0  0  0  0  0  0
  -23.5783  -25.8818   23.2762 C   0  0  0  0  0  0  0  0  0  0  0  0
  -18.3355  -27.2933   22.7444 C   0  0  0  0  0  0  0  0  0  0  0  0
  -24.5038  -26.5824   22.4896 C   0  0  0  0  0  0  0  0  0  0  0  0
  -26.5337  -21.8596   16.4938 C   0  0  0  0  0  0  0  0  0  0  0  0
  -26.0940  -22.0234   18.8527 C   0  0  0  0  0  0  0  0  0  0  0  0
  -21.8415  -18.5768   20.1292 C   0  0  0  0  0  0  0  0  0  0  0  0
  -24.9147  -24.5645   21.1977 C   0  0  0  0  0  0  0  0  0  0  0  0
  -20.2512  -20.0356   21.0594 C   0  0  0  0  0  0  0  0  0  0  0  0
  -18.7021  -20.8106   23.2462 C   0  0  0  0  0  0  0  0  0  0  0  0
  -19.3288  -19.1464   21.6108 C   0  0  0  0  0  0  0  0  0  0  0  0
  -24.3907  -15.2352   20.6119 C   0  0  0  0  0  0  0  0  0  0  0  0
  -27.6190  -21.0571   16.8066 C   0  0  0  0  0  0  0  0  0  0  0  0
  -27.1989  -21.2134   19.0599 C   0  0  0  0  0  0  0  0  0  0  0  0
  -25.1980  -13.2009   20.8229 C   0  0  0  0  0  0  0  0  0  0  0  0
  -22.7159  -13.2847   20.5392 C   0  0  0  0  0  0  0  0  0  0  0  0
  -21.7903  -28.5096   23.2320 C   0  0  0  0  0  0  0  0  0  0  0  0
  -24.4788  -29.8890   24.4117 C   0  0  0  0  0  0  0  0  0  0  0  0
  -27.8748  -29.8039   24.7384 C   0  0  0  0  0  0  0  0  0  0  0  0
  -30.8891  -14.5303   19.5209 C   0  0  0  0  0  0  0  0  0  0  0  0
  -16.7638  -28.7927   24.0757 C   0  0  0  0  0  0  0  0  0  0  0  0
  -22.8751  -26.5662   24.4162 C   0  0  0  0  0  0  0  0  0  0  0  0
  -24.8054  -28.0387   22.7279 C   0  0  0  0  0  0  0  0  0  0  0  0
  -17.9570  -29.7256   24.2660 C   0  0  0  0  0  0  0  0  0  0  0  0
  -29.5613  -13.7055   22.7198 C   0  0  0  0  0  0  0  0  0  0  0  0
  -18.8030  -29.7758   22.9977 C   0  0  0  0  0  0  0  0  0  0  0  0
  -28.0517  -13.8816   22.5458 C   0  0  0  0  0  0  0  0  0  0  0  0
  -30.3462  -14.7489   21.9280 C   0  0  0  0  0  0  0  0  0  0  0  0
  -28.4946  -15.0016   20.3213 C   0  0  0  0  0  0  0  0  0  0  0  0
  -19.3719  -28.3927   22.6589 C   0  0  1  0  0  0  0  0  0  0  0  0
  -22.8064  -28.0814   24.2527 C   0  0  1  0  0  0  0  0  0  0  0  0
  -27.6618  -13.9375   21.0565 C   0  0  2  0  0  0  0  0  0  0  0  0
  -24.9957  -21.3953   14.5688 C   0  0  0  0  0  0  0  0  0  0  0  0
  -30.7768  -19.1474   21.9327 C   0  0  0  0  0  0  0  0  0  0  0  0
  -29.7917  -31.0886   25.7244 C   0  0  0  0  0  0  0  0  0  0  0  0
  -24.2829  -31.9187   22.1418 C   0  0  0  0  0  0  0  0  0  0  0  0
  -26.6618  -32.5527   22.5969 C   0  0  0  0  0  0  0  0  0  0  0  0
  -24.9251  -32.8883   24.3558 C   0  0  0  0  0  0  0  0  0  0  0  0
  -28.6349  -27.5469   26.4954 C   0  0  0  0  0  0  0  0  0  0  0  0
  -26.1830  -22.2037   15.0875 C   0  0  0  0  0  0  0  0  0  0  0  0
  -25.2649  -22.5468   19.9884 C   0  0  0  0  0  0  0  0  0  1  0  0
  -28.4836  -20.5029   15.7220 C   0  0  0  0  0  0  0  0  0  0  0  0
  -27.6029  -20.8339   20.4470 C   0  0  0  0  0  0  0  0  0  0  0  0
  -29.4012  -19.7942   21.9046 C   0  0  0  0  0  0  0  0  0  0  0  0
  -29.4724  -19.4208   16.1924 C   0  0  0  0  0  0  0  0  0  0  0  0
  -29.0092  -20.2162   20.4886 C   0  0  0  0  0  0  0  0  0  0  0  0
  -30.3900  -18.9287   15.0678 C   0  0  0  0  0  0  0  0  0  0  0  0
  -31.4218  -17.8972   15.5350 C   0  0  0  0  0  0  0  0  0  0  0  0
  -30.7929  -16.6033   16.0581 C   0  0  0  0  0  0  0  0  0  0  0  0
  -31.8670  -15.6210   16.5373 C   0  0  0  0  0  0  0  0  0  0  0  0
  -31.2731  -14.3239   17.0777 C   0  0  0  0  0  0  0  0  0  0  0  0
  -25.6975  -30.5441   23.8079 C   0  0  1  0  0  0  0  0  0  0  0  0
  -28.7751  -29.9798   25.9479 C   0  0  2  0  0  0  0  0  0  0  0  0
  -25.3849  -31.9490   23.2196 C   0  0  0  0  0  0  0  0  0  0  0  0
  -25.7076  -15.4105   20.7496 N   0  0  0  0  0  0  0  0  0  0  0  0
  -27.9728  -20.7202   18.0672 N   0  0  0  0  0  0  0  0  0  0  0  0
  -26.1708  -14.1553   20.8761 N   0  0  0  0  0  0  0  0  0  0  0  0
  -24.0878  -28.6651   23.8505 N   0  0  0  0  0  0  0  0  0  0  0  0
  -29.9300  -14.7496   20.5235 N   0  0  0  0  0  0  0  0  0  0  0  0
  -25.4897  -11.8874   20.9332 N   0  0  0  0  0  0  0  0  0  0  0  0
  -21.9727  -13.0802   21.7097 N   0  0  0  0  0  0  0  0  0  0  0  0
  -20.5033  -28.0895   23.5088 N   0  0  0  0  0  0  0  0  0  0  0  0
  -26.7183  -30.5464   24.8502 N   0  0  0  0  0  0  0  0  0  0  0  0
  -30.4093  -14.5407   18.2169 N   0  0  0  0  0  0  0  0  0  0  0  0
  -29.5124  -28.7165   26.2330 N   0  3  0  0  0  0  0  0  0  0  0  0
  -22.2344  -12.9302   19.4364 O   0  0  0  0  0  0  0  0  0  0  0  0
  -22.1472  -29.1733   22.2657 O   0  0  0  0  0  0  0  0  0  0  0  0
  -23.8994  -30.4393   25.3514 O   0  0  0  0  0  0  0  0  0  0  0  0
  -28.1698  -29.0830   23.7877 O   0  0  0  0  0  0  0  0  0  0  0  0
  -32.0835  -14.3342   19.7698 O   0  0  0  0  0  0  0  0  0  0  0  0
  -21.0215  -19.6522   19.9744 O   0  0  0  0  0  0  0  0  0  0  0  0
  -25.5626  -23.9287   20.1839 O   0  0  0  0  0  0  0  0  0  1  0  0
  -17.9594  -21.1823   24.2971 F   0  0  0  0  0  0  0  0  0  0  0  0
  -19.1832  -17.9181   21.0952 F   0  0  0  0  0  0  0  0  0  0  0  0
  1  2  1  0  0  0  0
  1  5  2  0  0  0  0
  2  6  2  0  0  0  0
  3  8  2  0  0  0  0
  3 16  1  0  0  0  0
  4  9  1  0  0  0  0
  4 16  2  0  0  0  0
  5 18  1  0  0  0  0
  6 20  1  0  0  0  0
  7 10  2  0  0  0  0
  7 19  1  0  0  0  0
  8 24  1  0  0  0  0
  9 24  2  0  0  0  0
 10 25  1  0  0  0  0
 11 12  2  0  0  0  0
 11 26  1  0  0  0  0
 12 27  1  0  0  0  0
 13 21  1  0  0  0  0
 13 25  2  0  0  0  0
 14 22  2  0  0  0  0
 14 23  1  0  0  0  0
 15 27  2  0  0  0  0
 15 28  1  0  0  0  0
 16 29  1  0  0  0  0
 17 29  1  0  0  0  0
 17 32  2  0  0  0  0
 17 33  1  0  0  0  0
 18 20  2  0  0  0  0
 18 38  1  0  0  0  0
 19 21  2  0  0  0  0
 19 39  1  0  0  0  0
 20 47  1  0  0  0  0
 21 40  1  0  0  0  0
 22 30  1  0  0  0  0
 22 57  1  0  0  0  0
 23 31  2  0  0  0  0
 23 58  1  0  0  0  0
 24 88  1  0  0  0  0
 25 89  1  0  0  0  0
 26 28  2  0  0  0  0
 26 88  1  0  0  0  0
 27 90  1  0  0  0  0
 28 91  1  0  0  0  0
 29 72  2  0  0  0  0
 30 59  1  0  0  0  0
 30 73  2  0  0  0  0
 31 60  1  0  0  0  0
 31 73  1  0  0  0  0
 32 74  1  0  0  0  0
 32 77  1  0  0  0  0
 33 78  1  0  0  0  0
 33 83  2  0  0  0  0
 34 48  1  0  0  0  0
 34 79  1  0  0  0  0
 34 84  2  0  0  0  0
 35 69  1  0  0  0  0
 35 75  1  0  0  0  0
 35 85  2  0  0  0  0
 36 70  1  0  0  0  0
 36 80  1  0  0  0  0
 36 86  2  0  0  0  0
 37 76  1  0  0  0  0
 37 81  1  0  0  0  0
 37 87  2  0  0  0  0
 38 41  1  0  0  0  0
 39 48  1  0  0  0  0
 40 75  1  0  0  0  0
 41 43  1  0  0  0  0
 42 44  1  0  0  0  0
 42 45  1  0  0  0  0
 43 47  1  0  0  0  0
 44 49  1  0  0  0  0
 45 76  1  0  0  0  0
 46 49  1  0  0  0  0
 46 76  1  0  0  0  0
 47 79  1  0  0  0  0
 48 75  1  0  0  0  0
 49 74  1  0  0  0  0
 50 57  1  0  0  0  0
 51 61  1  0  0  0  0
 52 70  1  0  0  0  0
 53 71  1  0  0  0  0
 54 71  1  0  0  0  0
 55 71  1  0  0  0  0
 56 82  1  0  0  0  0
 58 89  1  0  0  0  0
 59 62  1  0  0  0  0
 60 63  1  0  0  0  0
 61 63  1  0  0  0  0
 62 64  1  0  0  0  0
 64 65  1  0  0  0  0
 65 66  1  0  0  0  0
 66 67  1  0  0  0  0
 67 68  1  0  0  0  0
 68 81  1  0  0  0  0
 69 71  1  0  0  0  0
 69 80  1  0  0  0  0
 70 82  1  0  0  0  0
 72 74  1  0  0  0  0
M  CHG  1  82   1
M  ISO  4  37 100  58 101  81 100  89 101
M  END
> <Batch ID>
0038

> <Smiles>
CCCCc1nc(CCCCCCC[100NH:0][100C:0](=O)N2CCCC(n3nc(-c4ccc(Oc5ccc(F)cc5F)cc4)c(C(N)=O)c3N)C2)c(CC)cc1[101CH2:1][101O:1]c1ccc2c(c1)CN(C(=O)C(NC(=O)C(C)NC)C(C)(C)C)C(C(=O)NC1CCCc3ccccc31)C2

> <Shape>
0.211

> <Color>
0.068

> <Negative vol penalty>
0.000

$$$$

  -OEChem-04052317013D

 84 92  0     1  0  0  0  0  0999 V2000
  -18.4567  -31.2835   23.4548 C   0  0  0  0  0  0  0  0  0  0  0  0
  -19.8463  -31.2486   23.3959 C   0  0  0  0  0  0  0  0  0  0  0  0
  -24.0907  -13.3497   18.8220 C   0  0  0  0  0  0  0  0  0  0  0  0
  -23.2678  -14.8062   20.5652 C   0  0  0  0  0  0  0  0  0  0  0  0
  -17.7215  -30.1189   23.2376 C   0  0  0  0  0  0  0  0  0  0  0  0
  -20.5014  -30.0488   23.1209 C   0  0  0  0  0  0  0  0  0  0  0  0
  -25.6878  -29.3305   19.9442 C   0  0  0  0  0  0  0  0  0  0  0  0
  -23.3695  -12.2882   19.3685 C   0  0  0  0  0  0  0  0  0  0  0  0
  -22.5465  -13.7447   21.1117 C   0  0  0  0  0  0  0  0  0  0  0  0
  -27.0146  -29.1661   20.3393 C   0  0  0  0  0  0  0  0  0  0  0  0
  -23.6897  -10.1252   21.9460 C   0  0  0  0  0  0  0  0  0  0  0  0
  -24.3389   -8.8968   22.0690 C   0  0  0  0  0  0  0  0  0  0  0  0
  -26.7726  -26.7746   20.1357 C   0  0  0  0  0  0  0  0  0  0  0  0
  -33.6016  -27.8068   22.1889 C   0  0  0  0  0  0  0  0  0  0  0  0
  -31.5012  -28.8638   22.7438 C   0  0  0  0  0  0  0  0  0  0  0  0
  -31.7958  -27.8221   20.5840 C   0  0  0  0  0  0  0  0  0  0  0  0
  -22.6816   -7.8775   20.6368 C   0  0  0  0  0  0  0  0  0  0  0  0
  -24.0399  -14.6087   19.4204 C   0  0  0  0  0  0  0  0  0  0  0  0
  -24.3439  -16.6217   17.8831 C   0  0  0  0  0  0  0  0  0  0  0  0
  -18.3677  -28.9063   22.9503 C   0  0  0  0  0  0  0  0  0  0  0  0
  -24.8888  -28.2158   19.6518 C   0  0  0  0  0  0  0  0  0  0  0  0
  -19.7742  -28.8667   22.9010 C   0  0  0  0  0  0  0  0  0  0  0  0
  -25.4366  -26.9277   19.7346 C   0  0  0  0  0  0  0  0  0  0  0  0
  -32.8033  -28.5064   23.0938 C   0  0  0  0  0  0  0  0  0  0  0  0
  -33.0979  -27.4647   20.9339 C   0  0  0  0  0  0  0  0  0  0  0  0
  -30.9974  -28.5217   21.4889 C   0  0  0  0  0  0  0  0  0  0  0  0
  -22.5974  -12.4857   20.5133 C   0  0  0  0  0  0  0  0  0  0  0  0
  -27.5564  -27.8878   20.4379 C   0  0  0  0  0  0  0  0  0  0  0  0
  -22.5363  -10.2297   21.1685 C   0  0  0  0  0  0  0  0  0  0  0  0
  -23.8349   -7.7730   21.4144 C   0  0  0  0  0  0  0  0  0  0  0  0
  -22.0323   -9.1059   20.5139 C   0  0  0  0  0  0  0  0  0  0  0  0
  -24.7851  -15.7055   18.8567 C   0  0  0  0  0  0  0  0  0  0  0  0
  -25.4149  -17.4596   17.6898 C   0  0  0  0  0  0  0  0  0  0  0  0
  -23.0791  -16.7077   17.2135 C   0  0  0  0  0  0  0  0  0  0  0  0
  -22.2207  -26.9877   20.8670 C   0  0  0  0  0  0  0  0  0  0  0  0
  -29.4040  -20.6044   19.8054 C   0  0  0  0  0  0  0  0  0  0  0  0
  -22.4631  -24.9667   18.3413 C   0  0  0  0  0  0  0  0  0  0  0  0
  -24.4551  -23.4697   16.0094 C   0  0  0  0  0  0  0  0  0  0  0  0
  -17.5323  -27.6636   22.7695 C   0  0  0  0  0  0  0  0  0  0  0  0
  -23.4672  -28.4114   19.2011 C   0  0  0  0  0  0  0  0  0  0  0  0
  -24.6269  -25.6994   19.4121 C   0  0  0  0  0  0  0  0  0  0  0  0
  -18.2887  -26.5113   22.1136 C   0  0  0  0  0  0  0  0  0  0  0  0
  -30.2086  -17.1032   19.2389 C   0  0  0  0  0  0  0  0  0  0  0  0
  -19.6583  -26.3343   22.7615 C   0  0  0  0  0  0  0  0  0  0  0  0
  -28.8195  -16.4989   19.0380 C   0  0  0  0  0  0  0  0  0  0  0  0
  -30.1869  -18.2306   20.2677 C   0  0  0  0  0  0  0  0  0  0  0  0
  -27.8137  -18.7097   19.7550 C   0  0  0  0  0  0  0  0  0  0  0  0
  -20.5203  -27.5896   22.5809 C   0  0  1  0  0  0  0  0  0  0  0  0
  -22.5947  -27.1800   19.4246 C   0  0  1  0  0  0  0  0  0  0  0  0
  -27.7868  -17.5891   18.7022 C   0  0  2  0  0  0  0  0  0  0  0  0
  -33.3424  -28.8717   24.4356 C   0  0  0  0  0  0  0  0  0  0  0  0
  -24.3738  -21.8386   14.1041 C   0  0  0  0  0  0  0  0  0  0  0  0
  -22.2622  -22.6597   20.3281 C   0  0  0  0  0  0  0  0  0  0  0  0
  -23.1261  -21.1358   18.5393 C   0  0  0  0  0  0  0  0  0  0  0  0
  -20.9623  -22.3342   18.2165 C   0  0  0  0  0  0  0  0  0  0  0  0
  -25.4008  -25.5020   14.0770 C   0  0  0  0  0  0  0  0  0  0  0  0
  -33.9509  -26.7163   19.9661 C   0  0  0  0  0  0  0  0  0  0  0  0
  -29.5968  -28.9064   21.1128 C   0  0  0  0  0  0  0  0  0  1  0  0
  -30.8169  -21.0743   20.0435 C   0  0  0  0  0  0  0  0  0  0  0  0
  -33.8434  -25.1833   20.0724 C   0  0  0  0  0  0  0  0  0  0  0  0
  -30.9249  -22.5869   19.8784 C   0  0  0  0  0  0  0  0  0  0  0  0
  -32.4301  -24.6156   19.8949 C   0  0  0  0  0  0  0  0  0  0  0  0
  -32.3525  -23.1003   20.0956 C   0  0  0  0  0  0  0  0  0  0  0  0
  -23.1281  -23.6333   18.0991 C   0  0  1  0  0  0  0  0  0  0  0  0
  -24.2985  -23.3026   14.5087 C   0  0  2  0  0  0  0  0  0  0  0  0
  -22.3846  -22.4636   18.8037 C   0  0  0  0  0  0  0  0  0  0  0  0
  -26.0387  -15.9391   19.2540 N   0  0  0  0  0  0  0  0  0  0  0  0
  -26.3945  -17.0116   18.5264 N   0  0  0  0  0  0  0  0  0  0  0  0
  -23.2400  -25.9423   18.9820 N   0  0  0  0  0  0  0  0  0  0  0  0
  -29.1716  -19.2342   19.9268 N   0  0  0  0  0  0  0  0  0  0  0  0
  -25.6050  -18.5284   16.8874 N   0  0  0  0  0  0  0  0  0  0  0  0
  -22.0896  -15.7673   17.5312 N   0  0  0  0  0  0  0  0  0  0  0  0
  -21.0621  -27.6420   21.2399 N   0  0  0  0  0  0  0  0  0  0  0  0
  -23.2350  -23.4874   16.6514 N   0  0  0  0  0  0  0  0  0  0  0  0
  -25.3727  -24.0447   13.7901 N   0  3  0  0  0  0  0  0  0  0  0  0
  -22.8392  -17.5823   16.3469 O   0  0  0  0  0  0  0  0  0  0  0  0
  -22.9299  -26.2956   21.5880 O   0  0  0  0  0  0  0  0  0  0  0  0
  -28.5349  -21.4315   19.5175 O   0  0  0  0  0  0  0  0  0  0  0  0
  -21.2997  -25.1388   17.9691 O   0  0  0  0  0  0  0  0  0  0  0  0
  -25.5504  -23.5704   16.5577 O   0  0  0  0  0  0  0  0  0  0  0  0
  -21.8933  -11.4502   21.0467 O   0  0  0  0  0  0  0  0  0  0  0  0
  -28.8511  -27.7245   20.8240 O   0  0  0  0  0  0  0  0  0  1  0  0
  -24.4593   -6.5937   21.5314 F   0  0  0  0  0  0  0  0  0  0  0  0
  -20.9253   -9.2003   19.7645 F   0  0  0  0  0  0  0  0  0  0  0  0
  1  2  1  0  0  0  0
  1  5  2  0  0  0  0
  2  6  2  0  0  0  0
  3  8  2  0  0  0  0
  3 18  1  0  0  0  0
  4  9  1  0  0  0  0
  4 18  2  0  0  0  0
  5 20  1  0  0  0  0
  6 22  1  0  0  0  0
  7 10  2  0  0  0  0
  7 21  1  0  0  0  0
  8 27  1  0  0  0  0
  9 27  2  0  0  0  0
 10 28  1  0  0  0  0
 11 12  2  0  0  0  0
 11 29  1  0  0  0  0
 12 30  1  0  0  0  0
 13 23  1  0  0  0  0
 13 28  2  0  0  0  0
 14 24  1  0  0  0  0
 14 25  2  0  0  0  0
 15 24  2  0  0  0  0
 15 26  1  0  0  0  0
 16 25  1  0  0  0  0
 16 26  2  0  0  0  0
 17 30  2  0  0  0  0
 17 31  1  0  0  0  0
 18 32  1  0  0  0  0
 19 32  1  0  0  0  0
 19 33  2  0  0  0  0
 19 34  1  0  0  0  0
 20 22  2  0  0  0  0
 20 39  1  0  0  0  0
 21 23  2  0  0  0  0
 21 40  1  0  0  0  0
 22 48  1  0  0  0  0
 23 41  1  0  0  0  0
 24 51  1  0  0  0  0
 25 57  1  0  0  0  0
 26 58  1  0  0  0  0
 27 81  1  0  0  0  0
 28 82  1  0  0  0  0
 29 31  2  0  0  0  0
 29 81  1  0  0  0  0
 30 83  1  0  0  0  0
 31 84  1  0  0  0  0
 32 67  2  0  0  0  0
 33 68  1  0  0  0  0
 33 71  1  0  0  0  0
 34 72  1  0  0  0  0
 34 76  2  0  0  0  0
 35 49  1  0  0  0  0
 35 73  1  0  0  0  0
 35 77  2  0  0  0  0
 36 59  1  0  0  0  0
 36 70  1  0  0  0  0
 36 78  2  0  0  0  0
 37 64  1  0  0  0  0
 37 69  1  0  0  0  0
 37 79  2  0  0  0  0
 38 65  1  0  0  0  0
 38 74  1  0  0  0  0
 38 80  2  0  0  0  0
 39 42  1  0  0  0  0
 40 49  1  0  0  0  0
 41 69  1  0  0  0  0
 42 44  1  0  0  0  0
 43 45  1  0  0  0  0
 43 46  1  0  0  0  0
 44 48  1  0  0  0  0
 45 50  1  0  0  0  0
 46 70  1  0  0  0  0
 47 50  1  0  0  0  0
 47 70  1  0  0  0  0
 48 73  1  0  0  0  0
 49 69  1  0  0  0  0
 50 68  1  0  0  0  0
 52 65  1  0  0  0  0
 53 66  1  0  0  0  0
 54 66  1  0  0  0  0
 55 66  1  0  0  0  0
 56 75  1  0  0  0  0
 57 60  1  0  0  0  0
 58 82  1  0  0  0  0
 59 61  1  0  0  0  0
 60 62  1  0  0  0  0
 61 63  1  0  0  0  0
 62 63  1  0  0  0  0
 64 66  1  0  0  0  0
 64 74  1  0  0  0  0
 65 75  1  0  0  0  0
 67 68  1  0  0  0  0
M  CHG  1  75   1
M  ISO  4  36 100  58 101  59 100  82 101
M  END
> <Batch ID>
0038

> <Smiles>
CNC(C)C(=O)NC(C(=O)N1Cc2cc([101O:1][101CH2:1]c3cc(C)cc(CCCCC[100CH2:0][100C:0](=O)N4CCCC(n5nc(-c6ccc(Oc7ccc(F)cc7F)cc6)c(C(N)=O)c5N)C4)c3)ccc2CC1C(=O)NC1CCCc2ccccc21)C(C)(C)C

> <Shape>
0.227

> <Color>
0.065

> <Negative vol penalty>
0.000

$$$$

  -OEChem-04052317013D

 86 94  0     1  0  0  0  0  0999 V2000
  -18.2765  -28.0197   22.9276 C   0  0  0  0  0  0  0  0  0  0  0  0
  -19.4899  -28.3668   23.5129 C   0  0  0  0  0  0  0  0  0  0  0  0
  -26.7167  -13.4782   21.4005 C   0  0  0  0  0  0  0  0  0  0  0  0
  -26.1974  -14.0249   19.1052 C   0  0  0  0  0  0  0  0  0  0  0  0
  -18.2373  -27.0419   21.9345 C   0  0  0  0  0  0  0  0  0  0  0  0
  -20.6648  -27.7353   23.1063 C   0  0  0  0  0  0  0  0  0  0  0  0
  -27.6633  -28.9903   22.2332 C   0  0  0  0  0  0  0  0  0  0  0  0
  -25.9760  -12.3016   21.2879 C   0  0  0  0  0  0  0  0  0  0  0  0
  -25.4567  -12.8483   18.9925 C   0  0  0  0  0  0  0  0  0  0  0  0
  -28.9045  -28.4656   22.5909 C   0  0  0  0  0  0  0  0  0  0  0  0
  -23.9234   -9.3302   21.7131 C   0  0  0  0  0  0  0  0  0  0  0  0
  -23.0514   -9.0089   22.7533 C   0  0  0  0  0  0  0  0  0  0  0  0
  -28.7267  -26.8474   20.8107 C   0  0  0  0  0  0  0  0  0  0  0  0
  -31.9933  -23.8535   24.3577 C   0  0  0  0  0  0  0  0  0  0  0  0
  -32.6561  -24.4543   22.1135 C   0  0  0  0  0  0  0  0  0  0  0  0
  -21.8471  -11.0699   22.3801 C   0  0  0  0  0  0  0  0  0  0  0  0
  -26.8273  -14.3399   20.3092 C   0  0  0  0  0  0  0  0  0  0  0  0
  -28.9628  -15.7268   20.1554 C   0  0  0  0  0  0  0  0  0  0  0  0
  -19.4136  -26.4050   21.5087 C   0  0  0  0  0  0  0  0  0  0  0  0
  -26.9383  -28.4395   21.1666 C   0  0  0  0  0  0  0  0  0  0  0  0
  -20.6411  -26.7470   22.1075 C   0  0  0  0  0  0  0  0  0  0  0  0
  -27.4777  -27.3685   20.4399 C   0  0  0  0  0  0  0  0  0  0  0  0
  -32.3372  -24.8266   23.4194 C   0  0  0  0  0  0  0  0  0  0  0  0
  -31.9684  -22.5081   23.9902 C   0  0  0  0  0  0  0  0  0  0  0  0
  -32.6310  -23.1090   21.7459 C   0  0  0  0  0  0  0  0  0  0  0  0
  -32.2872  -22.1359   22.6842 C   0  0  0  0  0  0  0  0  0  0  0  0
  -25.3461  -11.9866   20.0839 C   0  0  0  0  0  0  0  0  0  0  0  0
  -29.4350  -27.3921   21.8815 C   0  0  0  0  0  0  0  0  0  0  0  0
  -23.7574  -10.5213   21.0065 C   0  0  0  0  0  0  0  0  0  0  0  0
  -22.0132   -9.8787   23.0867 C   0  0  0  0  0  0  0  0  0  0  0  0
  -22.7192  -11.3911   21.3400 C   0  0  0  0  0  0  0  0  0  0  0  0
  -27.5918  -15.5557   20.4251 C   0  0  0  0  0  0  0  0  0  0  0  0
  -29.2012  -17.0540   20.4167 C   0  0  0  0  0  0  0  0  0  0  0  0
  -29.9341  -14.7715   19.7086 C   0  0  0  0  0  0  0  0  0  0  0  0
  -24.1148  -27.0089   20.8755 C   0  0  0  0  0  0  0  0  0  0  0  0
  -24.8084  -27.1470   17.7097 C   0  0  0  0  0  0  0  0  0  0  0  0
  -27.1866  -27.3602   15.2714 C   0  0  0  0  0  0  0  0  0  0  0  0
  -27.7538  -22.4290   20.0176 C   0  0  0  0  0  0  0  0  0  0  0  0
  -19.3150  -25.3204   20.4653 C   0  0  0  0  0  0  0  0  0  0  0  0
  -25.6130  -29.0341   20.7764 C   0  0  0  0  0  0  0  0  0  0  0  0
  -26.7485  -26.7543   19.2739 C   0  0  0  0  0  0  0  0  0  0  0  0
  -20.6555  -24.9654   19.8271 C   0  0  0  0  0  0  0  0  0  0  0  0
  -26.3043  -20.5389   22.6640 C   0  0  0  0  0  0  0  0  0  0  0  0
  -21.7288  -24.7978   20.8979 C   0  0  0  0  0  0  0  0  0  0  0  0
  -26.6177  -19.0886   22.2919 C   0  0  0  0  0  0  0  0  0  0  0  0
  -26.0055  -21.3864   21.4293 C   0  0  0  0  0  0  0  0  0  0  0  0
  -27.3561  -19.8916   20.0096 C   0  0  0  0  0  0  0  0  0  0  0  0
  -21.9404  -26.1022   21.6759 C   0  0  1  0  0  0  0  0  0  0  0  0
  -24.7285  -28.0641   19.9993 C   0  0  1  0  0  0  0  0  0  0  0  0
  -27.7190  -19.0108   21.2174 C   0  0  2  0  0  0  0  0  0  0  0  0
  -32.2598  -20.6934   22.2903 C   0  0  0  0  0  0  0  0  0  0  0  0
  -30.1667  -20.9826   24.8347 C   0  0  0  0  0  0  0  0  0  0  0  0
  -27.4507  -27.4133   12.7765 C   0  0  0  0  0  0  0  0  0  0  0  0
  -24.2946  -24.1416   17.5937 C   0  0  0  0  0  0  0  0  0  0  0  0
  -25.4688  -24.0967   15.3829 C   0  0  0  0  0  0  0  0  0  0  0  0
  -23.3795  -25.4319   15.6566 C   0  0  0  0  0  0  0  0  0  0  0  0
  -28.4277  -30.0460   15.3437 C   0  0  0  0  0  0  0  0  0  0  0  0
  -32.3650  -26.2823   23.8173 C   0  0  0  0  0  0  0  0  0  0  0  0
  -31.5957  -21.4858   25.0137 C   0  0  0  0  0  0  0  0  0  0  0  0
  -32.9765  -22.7365   20.3410 C   0  0  0  0  0  0  0  0  0  0  0  0
  -31.7300  -22.4116   19.5048 C   0  0  0  0  0  0  0  0  0  0  0  0
  -30.7922  -23.6176   19.3971 C   0  0  0  0  0  0  0  0  0  0  0  0
  -29.5520  -23.3232   18.5595 C   0  0  0  0  0  0  0  0  0  0  0  0
  -31.0198  -26.9677   23.6032 C   0  0  0  0  0  0  0  0  0  1  0  0
  -25.5193  -26.2443   16.7306 C   0  0  1  0  0  0  0  0  0  0  0  0
  -27.2915  -28.2430   14.0410 C   0  0  2  0  0  0  0  0  0  0  0  0
  -24.6787  -24.9887   16.3641 C   0  0  0  0  0  0  0  0  0  0  0  0
  -27.0006  -16.6840   20.8270 N   0  0  0  0  0  0  0  0  0  0  0  0
  -28.0050  -17.5767   20.8119 N   0  0  0  0  0  0  0  0  0  0  0  0
  -25.4533  -27.3668   18.9351 N   0  0  0  0  0  0  0  0  0  0  0  0
  -27.0889  -21.2698   20.4503 N   0  0  0  0  0  0  0  0  0  0  0  0
  -30.3151  -17.8131   20.3447 N   0  0  0  0  0  0  0  0  0  0  0  0
  -29.5201  -13.4507   19.4885 N   0  0  0  0  0  0  0  0  0  0  0  0
  -22.7333  -27.0310   20.8993 N   0  0  0  0  0  0  0  0  0  0  0  0
  -25.8744  -27.0799   15.5886 N   0  0  0  0  0  0  0  0  0  0  0  0
  -28.7722  -22.2290   19.0937 N   0  0  0  0  0  0  0  0  0  0  0  0
  -28.4649  -29.1545   14.1559 N   0  3  0  0  0  0  0  0  0  0  0  0
  -31.1372  -15.0762   19.5261 O   0  0  0  0  0  0  0  0  0  0  0  0
  -24.8408  -26.2313   21.4837 O   0  0  0  0  0  0  0  0  0  0  0  0
  -23.7242  -27.6448   17.3959 O   0  0  0  0  0  0  0  0  0  0  0  0
  -28.1706  -26.9563   15.8872 O   0  0  0  0  0  0  0  0  0  0  0  0
  -27.4649  -23.5580   20.4285 O   0  0  0  0  0  0  0  0  0  0  0  0
  -24.6235  -10.8385   19.9736 O   0  0  0  0  0  0  0  0  0  0  0  0
  -30.6460  -26.8777   22.2290 O   0  0  0  0  0  0  0  0  0  1  0  0
  -21.1749   -9.5694   24.0846 F   0  0  0  0  0  0  0  0  0  0  0  0
  -22.5539  -12.5364   20.6640 F   0  0  0  0  0  0  0  0  0  0  0  0
  1  2  1  0  0  0  0
  1  5  2  0  0  0  0
  2  6  2  0  0  0  0
  3  8  2  0  0  0  0
  3 17  1  0  0  0  0
  4  9  1  0  0  0  0
  4 17  2  0  0  0  0
  5 19  1  0  0  0  0
  6 21  1  0  0  0  0
  7 10  2  0  0  0  0
  7 20  1  0  0  0  0
  8 27  1  0  0  0  0
  9 27  2  0  0  0  0
 10 28  1  0  0  0  0
 11 12  2  0  0  0  0
 11 29  1  0  0  0  0
 12 30  1  0  0  0  0
 13 22  1  0  0  0  0
 13 28  2  0  0  0  0
 14 23  2  0  0  0  0
 14 24  1  0  0  0  0
 15 23  1  0  0  0  0
 15 25  2  0  0  0  0
 16 30  2  0  0  0  0
 16 31  1  0  0  0  0
 17 32  1  0  0  0  0
 18 32  1  0  0  0  0
 18 33  2  0  0  0  0
 18 34  1  0  0  0  0
 19 21  2  0  0  0  0
 19 39  1  0  0  0  0
 20 22  2  0  0  0  0
 20 40  1  0  0  0  0
 21 48  1  0  0  0  0
 22 41  1  0  0  0  0
 23 58  1  0  0  0  0
 24 26  2  0  0  0  0
 24 59  1  0  0  0  0
 25 26  1  0  0  0  0
 25 60  1  0  0  0  0
 26 51  1  0  0  0  0
 27 83  1  0  0  0  0
 28 84  1  0  0  0  0
 29 31  2  0  0  0  0
 29 83  1  0  0  0  0
 30 85  1  0  0  0  0
 31 86  1  0  0  0  0
 32 68  2  0  0  0  0
 33 69  1  0  0  0  0
 33 72  1  0  0  0  0
 34 73  1  0  0  0  0
 34 78  2  0  0  0  0
 35 49  1  0  0  0  0
 35 74  1  0  0  0  0
 35 79  2  0  0  0  0
 36 65  1  0  0  0  0
 36 70  1  0  0  0  0
 36 80  2  0  0  0  0
 37 66  1  0  0  0  0
 37 75  1  0  0  0  0
 37 81  2  0  0  0  0
 38 71  1  0  0  0  0
 38 76  1  0  0  0  0
 38 82  2  0  0  0  0
 39 42  1  0  0  0  0
 40 49  1  0  0  0  0
 41 70  1  0  0  0  0
 42 44  1  0  0  0  0
 43 45  1  0  0  0  0
 43 46  1  0  0  0  0
 44 48  1  0  0  0  0
 45 50  1  0  0  0  0
 46 71  1  0  0  0  0
 47 50  1  0  0  0  0
 47 71  1  0  0  0  0
 48 74  1  0  0  0  0
 49 70  1  0  0  0  0
 50 69  1  0  0  0  0
 52 59  1  0  0  0  0
 53 66  1  0  0  0  0
 54 67  1  0  0  0  0
 55 67  1  0  0  0  0
 56 67  1  0  0  0  0
 57 77  1  0  0  0  0
 58 64  1  0  0  0  0
 60 61  1  0  0  0  0
 61 62  1  0  0  0  0
 62 63  1  0  0  0  0
 63 76  1  0  0  0  0
 64 84  1  0  0  0  0
 65 67  1  0  0  0  0
 65 75  1  0  0  0  0
 66 77  1  0  0  0  0
 68 69  1  0  0  0  0
M  CHG  1  77   1
M  ISO  4  38 100  64 101  76 100  84 101
M  END
> <Batch ID>
0038

> <Smiles>
CCc1cc(C[101CH2:1][101O:1]c2ccc3c(c2)CN(C(=O)C(NC(=O)C(C)NC)C(C)(C)C)C(C(=O)NC2CCCc4ccccc42)C3)cc(CCCC[100NH:0][100C:0](=O)N2CCCC(n3nc(-c4ccc(Oc5ccc(F)cc5F)cc4)c(C(N)=O)c3N)C2)c1C

> <Shape>
0.230

> <Color>
0.070

> <Negative vol penalty>
0.000

$$$$

  -OEChem-04052317013D

 85 93  0     1  0  0  0  0  0999 V2000
  -20.9095  -31.8315   23.3068 C   0  0  0  0  0  0  0  0  0  0  0  0
  -21.9866  -30.9711   23.1200 C   0  0  0  0  0  0  0  0  0  0  0  0
  -24.4341   -9.1218   21.5912 C   0  0  0  0  0  0  0  0  0  0  0  0
  -22.6108  -10.0927   20.3381 C   0  0  0  0  0  0  0  0  0  0  0  0
  -19.6078  -31.3328   23.2809 C   0  0  0  0  0  0  0  0  0  0  0  0
  -21.7626  -29.6111   22.9083 C   0  0  0  0  0  0  0  0  0  0  0  0
  -24.5873  -27.7398   19.1447 C   0  0  0  0  0  0  0  0  0  0  0  0
  -23.7060   -7.9408   21.7354 C   0  0  0  0  0  0  0  0  0  0  0  0
  -21.8828   -8.9117   20.4823 C   0  0  0  0  0  0  0  0  0  0  0  0
  -25.9252  -27.4681   19.4273 C   0  0  0  0  0  0  0  0  0  0  0  0
  -21.1781   -6.7934   23.6635 C   0  0  0  0  0  0  0  0  0  0  0  0
  -21.1514   -6.1995   24.9253 C   0  0  0  0  0  0  0  0  0  0  0  0
  -25.3886  -25.1310   19.6908 C   0  0  0  0  0  0  0  0  0  0  0  0
  -29.4705  -22.5371   16.7628 C   0  0  0  0  0  0  0  0  0  0  0  0
  -29.9641  -24.8830   16.9562 C   0  0  0  0  0  0  0  0  0  0  0  0
  -22.1550   -4.2029   24.0068 C   0  0  0  0  0  0  0  0  0  0  0  0
  -23.8865  -10.1978   20.8925 C   0  0  0  0  0  0  0  0  0  0  0  0
  -25.5276  -11.7471   19.7035 C   0  0  0  0  0  0  0  0  0  0  0  0
  -19.3673  -29.9676   23.0591 C   0  0  0  0  0  0  0  0  0  0  0  0
  -23.6364  -26.7091   19.1438 C   0  0  0  0  0  0  0  0  0  0  0  0
  -20.4565  -29.0935   22.8808 C   0  0  0  0  0  0  0  0  0  0  0  0
  -24.0397  -25.3919   19.4055 C   0  0  0  0  0  0  0  0  0  0  0  0
  -29.8129  -23.7468   16.1691 C   0  0  0  0  0  0  0  0  0  0  0  0
  -22.4304   -7.8357   21.1810 C   0  0  0  0  0  0  0  0  0  0  0  0
  -26.3256  -26.1640   19.7032 C   0  0  0  0  0  0  0  0  0  0  0  0
  -21.6932   -6.0921   22.5733 C   0  0  0  0  0  0  0  0  0  0  0  0
  -21.6398   -4.9043   25.0970 C   0  0  0  0  0  0  0  0  0  0  0  0
  -22.1817   -4.7969   22.7450 C   0  0  0  0  0  0  0  0  0  0  0  0
  -24.6378  -11.4182   20.7436 C   0  0  0  0  0  0  0  0  0  0  0  0
  -29.2920  -22.5165   18.1367 C   0  0  0  0  0  0  0  0  0  0  0  0
  -29.7633  -24.7574   18.3214 C   0  0  0  0  0  0  0  0  0  0  0  0
  -25.9777  -13.0052   20.0217 C   0  0  0  0  0  0  0  0  0  0  0  0
  -25.9127  -10.9838   18.5525 C   0  0  0  0  0  0  0  0  0  0  0  0
  -21.0158  -26.0734   20.8267 C   0  0  0  0  0  0  0  0  0  0  0  0
  -20.7130  -23.6405   18.7027 C   0  0  0  0  0  0  0  0  0  0  0  0
  -22.2186  -21.5171   16.4955 C   0  0  0  0  0  0  0  0  0  0  0  0
  -25.0228  -18.2171   21.7736 C   0  0  0  0  0  0  0  0  0  0  0  0
  -17.9448  -29.4673   23.0868 C   0  0  0  0  0  0  0  0  0  0  0  0
  -22.2018  -27.0146   18.8109 C   0  0  0  0  0  0  0  0  0  0  0  0
  -23.0616  -24.2466   19.3970 C   0  0  0  0  0  0  0  0  0  0  0  0
  -17.7770  -28.0751   22.4835 C   0  0  0  0  0  0  0  0  0  0  0  0
  -25.4619  -15.7110   24.2642 C   0  0  0  0  0  0  0  0  0  0  0  0
  -18.8515  -27.1307   23.0130 C   0  0  0  0  0  0  0  0  0  0  0  0
  -25.3538  -14.3987   23.4857 C   0  0  0  0  0  0  0  0  0  0  0  0
  -24.5082  -16.7713   23.7182 C   0  0  0  0  0  0  0  0  0  0  0  0
  -24.5209  -15.7141   21.4920 C   0  0  0  0  0  0  0  0  0  0  0  0
  -20.2531  -27.6161   22.6237 C   0  0  1  0  0  0  0  0  0  0  0  0
  -21.2287  -25.9671   19.3431 C   0  0  1  0  0  0  0  0  0  0  0  0
  -25.5038  -14.6317   21.9703 C   0  0  2  0  0  0  0  0  0  0  0  0
  -28.7301  -24.1585   13.9454 C   0  0  0  0  0  0  0  0  0  0  0  0
  -21.7176  -19.6132   14.9395 C   0  0  0  0  0  0  0  0  0  0  0  0
  -20.4964  -21.7508   21.0885 C   0  0  0  0  0  0  0  0  0  0  0  0
  -20.9538  -19.8444   19.5313 C   0  0  0  0  0  0  0  0  0  0  0  0
  -18.9177  -21.2503   19.2146 C   0  0  0  0  0  0  0  0  0  0  0  0
  -23.1447  -23.0478   14.1379 C   0  0  0  0  0  0  0  0  0  0  0  0
  -30.0180  -23.8252   14.6942 C   0  0  0  0  0  0  0  0  0  0  0  0
  -28.9257  -21.2353   18.8084 C   0  0  0  0  0  0  0  0  0  0  0  0
  -29.9172  -25.9706   19.2062 C   0  0  0  0  0  0  0  0  0  0  0  0
  -27.4043  -21.0400   18.8966 C   0  0  0  0  0  0  0  0  0  0  0  0
  -27.0415  -19.7401   19.6207 C   0  0  0  0  0  0  0  0  0  0  0  0
  -25.5346  -19.5317   19.7317 C   0  0  0  0  0  0  0  0  0  0  0  0
  -28.6097  -26.7374   19.3714 C   0  0  0  0  0  0  0  0  0  1  0  0
  -21.1865  -22.2082   18.6430 C   0  0  1  0  0  0  0  0  0  0  0  0
  -21.8603  -21.1212   15.0745 C   0  0  2  0  0  0  0  0  0  0  0  0
  -20.4070  -21.2851   19.6215 C   0  0  0  0  0  0  0  0  0  0  0  0
  -24.5280  -12.3888   21.6545 N   0  0  0  0  0  0  0  0  0  0  0  0
  -29.4301  -23.5993   18.9341 N   0  0  0  0  0  0  0  0  0  0  0  0
  -25.3547  -13.3400   21.1878 N   0  0  0  0  0  0  0  0  0  0  0  0
  -21.6691  -24.5972   19.0720 N   0  0  0  0  0  0  0  0  0  0  0  0
  -24.7027  -16.9453   22.2767 N   0  0  0  0  0  0  0  0  0  0  0  0
  -26.8417  -13.8465   19.4150 N   0  0  0  0  0  0  0  0  0  0  0  0
  -25.3550   -9.7099   18.3784 N   0  0  0  0  0  0  0  0  0  0  0  0
  -20.5309  -27.2999   21.2390 N   0  0  0  0  0  0  0  0  0  0  0  0
  -21.0969  -21.8067   17.2433 N   0  0  0  0  0  0  0  0  0  0  0  0
  -25.1964  -18.2932   20.3971 N   0  0  0  0  0  0  0  0  0  0  0  0
  -22.9154  -21.5801   14.1273 N   0  3  0  0  0  0  0  0  0  0  0  0
  -26.7399  -11.4119   17.7122 O   0  0  0  0  0  0  0  0  0  0  0  0
  -21.2711  -25.1132   21.5440 O   0  0  0  0  0  0  0  0  0  0  0  0
  -19.5399  -23.9016   18.4247 O   0  0  0  0  0  0  0  0  0  0  0  0
  -23.3774  -21.5612   16.9026 O   0  0  0  0  0  0  0  0  0  0  0  0
  -25.1501  -19.2100   22.4981 O   0  0  0  0  0  0  0  0  0  0  0  0
  -21.7198   -6.6834   21.3214 O   0  0  0  0  0  0  0  0  0  0  0  0
  -27.6308  -25.8961   19.9800 O   0  0  0  0  0  0  0  0  0  1  0  0
  -21.6155   -4.3346   26.3090 F   0  0  0  0  0  0  0  0  0  0  0  0
  -22.6789   -4.1186   21.7017 F   0  0  0  0  0  0  0  0  0  0  0  0
  1  2  1  0  0  0  0
  1  5  2  0  0  0  0
  2  6  2  0  0  0  0
  3  8  2  0  0  0  0
  3 17  1  0  0  0  0
  4  9  1  0  0  0  0
  4 17  2  0  0  0  0
  5 19  1  0  0  0  0
  6 21  1  0  0  0  0
  7 10  2  0  0  0  0
  7 20  1  0  0  0  0
  8 24  1  0  0  0  0
  9 24  2  0  0  0  0
 10 25  1  0  0  0  0
 11 12  2  0  0  0  0
 11 26  1  0  0  0  0
 12 27  1  0  0  0  0
 13 22  1  0  0  0  0
 13 25  2  0  0  0  0
 14 23  1  0  0  0  0
 14 30  2  0  0  0  0
 15 23  2  0  0  0  0
 15 31  1  0  0  0  0
 16 27  2  0  0  0  0
 16 28  1  0  0  0  0
 17 29  1  0  0  0  0
 18 29  1  0  0  0  0
 18 32  2  0  0  0  0
 18 33  1  0  0  0  0
 19 21  2  0  0  0  0
 19 38  1  0  0  0  0
 20 22  2  0  0  0  0
 20 39  1  0  0  0  0
 21 47  1  0  0  0  0
 22 40  1  0  0  0  0
 23 56  1  0  0  0  0
 24 82  1  0  0  0  0
 25 83  1  0  0  0  0
 26 28  2  0  0  0  0
 26 82  1  0  0  0  0
 27 84  1  0  0  0  0
 28 85  1  0  0  0  0
 29 66  2  0  0  0  0
 30 57  1  0  0  0  0
 30 67  1  0  0  0  0
 31 58  1  0  0  0  0
 31 67  2  0  0  0  0
 32 68  1  0  0  0  0
 32 71  1  0  0  0  0
 33 72  1  0  0  0  0
 33 77  2  0  0  0  0
 34 48  1  0  0  0  0
 34 73  1  0  0  0  0
 34 78  2  0  0  0  0
 35 63  1  0  0  0  0
 35 69  1  0  0  0  0
 35 79  2  0  0  0  0
 36 64  1  0  0  0  0
 36 74  1  0  0  0  0
 36 80  2  0  0  0  0
 37 70  1  0  0  0  0
 37 75  1  0  0  0  0
 37 81  2  0  0  0  0
 38 41  1  0  0  0  0
 39 48  1  0  0  0  0
 40 69  1  0  0  0  0
 41 43  1  0  0  0  0
 42 44  1  0  0  0  0
 42 45  1  0  0  0  0
 43 47  1  0  0  0  0
 44 49  1  0  0  0  0
 45 70  1  0  0  0  0
 46 49  1  0  0  0  0
 46 70  1  0  0  0  0
 47 73  1  0  0  0  0
 48 69  1  0  0  0  0
 49 68  1  0  0  0  0
 50 56  1  0  0  0  0
 51 64  1  0  0  0  0
 52 65  1  0  0  0  0
 53 65  1  0  0  0  0
 54 65  1  0  0  0  0
 55 76  1  0  0  0  0
 57 59  1  0  0  0  0
 58 62  1  0  0  0  0
 59 60  1  0  0  0  0
 60 61  1  0  0  0  0
 61 75  1  0  0  0  0
 62 83  1  0  0  0  0
 63 65  1  0  0  0  0
 63 74  1  0  0  0  0
 64 76  1  0  0  0  0
 66 68  1  0  0  0  0
M  CHG  1  76   1
M  ISO  4  37 100  62 101  75 100  83 101
M  END
> <Batch ID>
0038

> <Smiles>
CCc1cc(CCCC[100NH:0][100C:0](=O)N2CCCC(n3nc(-c4ccc(Oc5ccc(F)cc5F)cc4)c(C(N)=O)c3N)C2)nc(C[101CH2:1][101O:1]c2ccc3c(c2)CN(C(=O)C(NC(=O)C(C)NC)C(C)(C)C)C(C(=O)NC2CCCc4ccccc42)C3)c1

> <Shape>
0.251

> <Color>
0.098

> <Negative vol penalty>
0.000

$$$$

  -OEChem-04052317013D

 84 92  0     1  0  0  0  0  0999 V2000
  -16.1028  -25.1274   22.3037 C   0  0  0  0  0  0  0  0  0  0  0  0
  -17.1063  -24.2753   22.7533 C   0  0  0  0  0  0  0  0  0  0  0  0
  -23.1231   -9.9505   19.9660 C   0  0  0  0  0  0  0  0  0  0  0  0
  -23.6831  -10.0074   22.3155 C   0  0  0  0  0  0  0  0  0  0  0  0
  -16.3744  -26.4811   22.1096 C   0  0  0  0  0  0  0  0  0  0  0  0
  -18.3824  -24.7762   23.0082 C   0  0  0  0  0  0  0  0  0  0  0  0
  -22.2531  -22.9376   27.3835 C   0  0  0  0  0  0  0  0  0  0  0  0
  -22.3168   -8.8337   20.1851 C   0  0  0  0  0  0  0  0  0  0  0  0
  -22.8767   -8.8906   22.5347 C   0  0  0  0  0  0  0  0  0  0  0  0
  -23.3467  -22.0731   27.3657 C   0  0  0  0  0  0  0  0  0  0  0  0
  -19.2265   -8.1919   21.3979 C   0  0  0  0  0  0  0  0  0  0  0  0
  -17.9653   -8.1760   20.8024 C   0  0  0  0  0  0  0  0  0  0  0  0
  -24.8265  -23.9600   27.1030 C   0  0  0  0  0  0  0  0  0  0  0  0
  -18.5613   -6.1709   19.5935 C   0  0  0  0  0  0  0  0  0  0  0  0
  -27.5524  -19.3215   26.2120 C   0  0  0  0  0  0  0  0  0  0  0  0
  -23.8063  -10.5374   21.0311 C   0  0  0  0  0  0  0  0  0  0  0  0
  -24.2540  -13.0433   20.8647 C   0  0  0  0  0  0  0  0  0  0  0  0
  -17.6519  -27.0007   22.3714 C   0  0  0  0  0  0  0  0  0  0  0  0
  -22.4374  -24.3213   27.2501 C   0  0  0  0  0  0  0  0  0  0  0  0
  -18.6718  -26.1379   22.8162 C   0  0  0  0  0  0  0  0  0  0  0  0
  -23.7338  -24.8402   27.1221 C   0  0  0  0  0  0  0  0  0  0  0  0
  -22.1936   -8.3037   21.4695 C   0  0  0  0  0  0  0  0  0  0  0  0
  -24.6334  -22.5839   27.2225 C   0  0  0  0  0  0  0  0  0  0  0  0
  -20.1552   -7.1973   21.0911 C   0  0  0  0  0  0  0  0  0  0  0  0
  -17.6326   -7.1655   19.9002 C   0  0  0  0  0  0  0  0  0  0  0  0
  -19.8226   -6.1868   20.1890 C   0  0  0  0  0  0  0  0  0  0  0  0
  -24.6399  -11.6908   20.8052 C   0  0  0  0  0  0  0  0  0  0  0  0
  -26.7311  -19.5945   27.3223 C   0  0  0  0  0  0  0  0  0  0  0  0
  -28.6088  -18.6143   26.7319 C   0  0  0  0  0  0  0  0  0  0  0  0
  -25.4013  -13.7407   20.5752 C   0  0  0  0  0  0  0  0  0  0  0  0
  -22.9730  -13.6179   21.1556 C   0  0  0  0  0  0  0  0  0  0  0  0
  -21.5220  -26.5128   25.1375 C   0  0  0  0  0  0  0  0  0  0  0  0
  -22.8616  -28.5613   27.2662 C   0  0  0  0  0  0  0  0  0  0  0  0
  -25.0940  -29.0566   29.7996 C   0  0  0  0  0  0  0  0  0  0  0  0
  -31.2178  -12.4298   21.1232 C   0  0  0  0  0  0  0  0  0  0  0  0
  -17.9106  -28.4619   22.1016 C   0  0  0  0  0  0  0  0  0  0  0  0
  -21.2495  -25.2427   27.2982 C   0  0  0  0  0  0  0  0  0  0  0  0
  -23.9870  -26.3195   26.9957 C   0  0  0  0  0  0  0  0  0  0  0  0
  -19.1885  -28.9846   22.7528 C   0  0  0  0  0  0  0  0  0  0  0  0
  -29.5037  -13.3570   18.1435 C   0  0  0  0  0  0  0  0  0  0  0  0
  -20.3456  -28.0216   22.5066 C   0  0  0  0  0  0  0  0  0  0  0  0
  -28.0280  -13.1572   18.4931 C   0  0  0  0  0  0  0  0  0  0  0  0
  -30.3867  -12.2941   18.7936 C   0  0  0  0  0  0  0  0  0  0  0  0
  -28.7468  -11.9608   20.6028 C   0  0  0  0  0  0  0  0  0  0  0  0
  -20.0620  -26.6483   23.1273 C   0  0  1  0  0  0  0  0  0  0  0  0
  -21.5131  -26.5925   26.6379 C   0  0  1  0  0  0  0  0  0  0  0  0
  -27.8231  -13.0417   20.0156 C   0  0  2  0  0  0  0  0  0  0  0  0
  -25.9917  -30.8464   31.3122 C   0  0  0  0  0  0  0  0  0  0  0  0
  -24.5235  -29.6725   24.9611 C   0  0  0  0  0  0  0  0  0  0  0  0
  -26.0276  -30.7420   26.6529 C   0  0  0  0  0  0  0  0  0  0  0  0
  -23.6252  -31.4022   26.5282 C   0  0  0  0  0  0  0  0  0  0  0  0
  -29.1920  -17.8508   29.0539 C   0  0  0  0  0  0  0  0  0  0  0  0
  -24.1573  -27.6401   32.2234 C   0  0  0  0  0  0  0  0  0  0  0  0
  -25.4331  -20.3471   27.3364 C   0  0  0  0  0  0  0  0  0  1  0  0
  -29.8029  -18.0411   26.0844 C   0  0  0  0  0  0  0  0  0  0  0  0
  -29.6374  -16.5888   25.5783 C   0  0  0  0  0  0  0  0  0  0  0  0
  -30.9260  -16.0284   24.9679 C   0  0  0  0  0  0  0  0  0  0  0  0
  -30.7355  -14.5829   24.5016 C   0  0  0  0  0  0  0  0  0  0  0  0
  -32.0345  -14.0097   23.9275 C   0  0  0  0  0  0  0  0  0  0  0  0
  -31.8958  -12.5501   23.5076 C   0  0  0  0  0  0  0  0  0  0  0  0
  -24.2413  -29.1388   27.4714 C   0  0  1  0  0  0  0  0  0  0  0  0
  -24.9546  -29.7469   31.1444 C   0  0  2  0  0  0  0  0  0  0  0  0
  -24.5998  -30.2108   26.4038 C   0  0  0  0  0  0  0  0  0  0  0  0
  -25.9314  -11.5359   20.5017 N   0  0  0  0  0  0  0  0  0  0  0  0
  -27.2234  -19.1008   28.4616 N   0  0  0  0  0  0  0  0  0  0  0  0
  -28.3654  -18.5105   28.0699 N   0  0  0  0  0  0  0  0  0  0  0  0
  -26.3669  -12.8002   20.3678 N   0  0  0  0  0  0  0  0  0  0  0  0
  -22.7926  -27.1790   27.0419 N   0  0  0  0  0  0  0  0  0  0  0  0
  -30.1450  -12.2367   20.2372 N   0  0  0  0  0  0  0  0  0  0  0  0
  -25.6682  -15.0607   20.4804 N   0  0  0  0  0  0  0  0  0  0  0  0
  -21.9017  -12.7572   21.4310 N   0  0  0  0  0  0  0  0  0  0  0  0
  -20.2797  -26.6855   24.5576 N   0  0  0  0  0  0  0  0  0  0  0  0
  -24.2789  -29.6279   28.8453 N   0  0  0  0  0  0  0  0  0  0  0  0
  -30.9009  -12.3657   22.4746 N   0  0  0  0  0  0  0  0  0  0  0  0
  -25.1279  -28.7644   32.2514 N   0  3  0  0  0  0  0  0  0  0  0  0
  -22.7801  -14.8573   21.1548 O   0  0  0  0  0  0  0  0  0  0  0  0
  -22.5780  -26.3111   24.5494 O   0  0  0  0  0  0  0  0  0  0  0  0
  -21.8808  -29.3080   27.3106 O   0  0  0  0  0  0  0  0  0  0  0  0
  -25.8530  -28.1081   29.6132 O   0  0  0  0  0  0  0  0  0  0  0  0
  -32.3715  -12.6487   20.7385 O   0  0  0  0  0  0  0  0  0  0  0  0
  -21.4066   -7.2140   21.6838 O   0  0  0  0  0  0  0  0  0  0  0  0
  -25.7025  -21.7422   27.2041 O   0  0  0  0  0  0  0  0  0  1  0  0
  -16.4209   -7.1495   19.3296 F   0  0  0  0  0  0  0  0  0  0  0  0
  -20.7102   -5.2280   19.8913 F   0  0  0  0  0  0  0  0  0  0  0  0
  1  2  1  0  0  0  0
  1  5  2  0  0  0  0
  2  6  2  0  0  0  0
  3  8  2  0  0  0  0
  3 16  1  0  0  0  0
  4  9  1  0  0  0  0
  4 16  2  0  0  0  0
  5 18  1  0  0  0  0
  6 20  1  0  0  0  0
  7 10  2  0  0  0  0
  7 19  1  0  0  0  0
  8 22  1  0  0  0  0
  9 22  2  0  0  0  0
 10 23  1  0  0  0  0
 11 12  2  0  0  0  0
 11 24  1  0  0  0  0
 12 25  1  0  0  0  0
 13 21  1  0  0  0  0
 13 23  2  0  0  0  0
 14 25  2  0  0  0  0
 14 26  1  0  0  0  0
 15 28  1  0  0  0  0
 15 29  2  0  0  0  0
 16 27  1  0  0  0  0
 17 27  1  0  0  0  0
 17 30  2  0  0  0  0
 17 31  1  0  0  0  0
 18 20  2  0  0  0  0
 18 36  1  0  0  0  0
 19 21  2  0  0  0  0
 19 37  1  0  0  0  0
 20 45  1  0  0  0  0
 21 38  1  0  0  0  0
 22 81  1  0  0  0  0
 23 82  1  0  0  0  0
 24 26  2  0  0  0  0
 24 81  1  0  0  0  0
 25 83  1  0  0  0  0
 26 84  1  0  0  0  0
 27 64  2  0  0  0  0
 28 54  1  0  0  0  0
 28 65  2  0  0  0  0
 29 55  1  0  0  0  0
 29 66  1  0  0  0  0
 30 67  1  0  0  0  0
 30 70  1  0  0  0  0
 31 71  1  0  0  0  0
 31 76  2  0  0  0  0
 32 46  1  0  0  0  0
 32 72  1  0  0  0  0
 32 77  2  0  0  0  0
 33 61  1  0  0  0  0
 33 68  1  0  0  0  0
 33 78  2  0  0  0  0
 34 62  1  0  0  0  0
 34 73  1  0  0  0  0
 34 79  2  0  0  0  0
 35 69  1  0  0  0  0
 35 74  1  0  0  0  0
 35 80  2  0  0  0  0
 36 39  1  0  0  0  0
 37 46  1  0  0  0  0
 38 68  1  0  0  0  0
 39 41  1  0  0  0  0
 40 42  1  0  0  0  0
 40 43  1  0  0  0  0
 41 45  1  0  0  0  0
 42 47  1  0  0  0  0
 43 69  1  0  0  0  0
 44 47  1  0  0  0  0
 44 69  1  0  0  0  0
 45 72  1  0  0  0  0
 46 68  1  0  0  0  0
 47 67  1  0  0  0  0
 48 62  1  0  0  0  0
 49 63  1  0  0  0  0
 50 63  1  0  0  0  0
 51 63  1  0  0  0  0
 52 66  1  0  0  0  0
 53 75  1  0  0  0  0
 54 82  1  0  0  0  0
 55 56  1  0  0  0  0
 56 57  1  0  0  0  0
 57 58  1  0  0  0  0
 58 59  1  0  0  0  0
 59 60  1  0  0  0  0
 60 74  1  0  0  0  0
 61 63  1  0  0  0  0
 61 73  1  0  0  0  0
 62 75  1  0  0  0  0
 64 67  1  0  0  0  0
 65 66  1  0  0  0  0
M  CHG  1  75   1
M  ISO  4  35 100  54 101  74 100  82 101
M  END
> <Batch ID>
0038

> <Smiles>
CNC(C)C(=O)NC(C(=O)N1Cc2cc([101O:1][101CH2:1]c3cc(CCCCCC[100NH:0][100C:0](=O)N4CCCC(n5nc(-c6ccc(Oc7ccc(F)cc7F)cc6)c(C(N)=O)c5N)C4)n(C)n3)ccc2CC1C(=O)NC1CCCc2ccccc21)C(C)(C)C

> <Shape>
0.180

> <Color>
0.183

> <Negative vol penalty>
0.000

$$$$

  -OEChem-04052317013D

 82 90  0     1  0  0  0  0  0999 V2000
  -30.1464  -12.3148   19.0868 C   0  0  0  0  0  0  0  0  0  0  0  0
  -29.9601  -13.6323   18.6808 C   0  0  0  0  0  0  0  0  0  0  0  0
  -20.1386  -27.4875   23.9075 C   0  0  0  0  0  0  0  0  0  0  0  0
  -20.2595  -28.1678   21.5924 C   0  0  0  0  0  0  0  0  0  0  0  0
  -29.2274  -11.7150   19.9469 C   0  0  0  0  0  0  0  0  0  0  0  0
  -28.8540  -14.3505   19.1337 C   0  0  0  0  0  0  0  0  0  0  0  0
  -30.0570  -19.0417   20.6139 C   0  0  0  0  0  0  0  0  0  0  0  0
  -18.7550  -27.6628   23.8868 C   0  0  0  0  0  0  0  0  0  0  0  0
  -18.8759  -28.3430   21.5716 C   0  0  0  0  0  0  0  0  0  0  0  0
  -30.2565  -19.9931   19.6146 C   0  0  0  0  0  0  0  0  0  0  0  0
  -16.0458  -25.9692   22.7801 C   0  0  0  0  0  0  0  0  0  0  0  0
  -15.2575  -24.9730   23.3560 C   0  0  0  0  0  0  0  0  0  0  0  0
  -28.0303  -20.8438   19.9884 C   0  0  0  0  0  0  0  0  0  0  0  0
  -14.3588  -26.5853   24.9148 C   0  0  0  0  0  0  0  0  0  0  0  0
  -28.6398  -26.0370   19.4219 C   0  0  0  0  0  0  0  0  0  0  0  0
  -20.8909  -27.7400   22.7603 C   0  0  0  0  0  0  0  0  0  0  0  0
  -23.0336  -26.3857   22.4733 C   0  0  0  0  0  0  0  0  0  0  0  0
  -28.1146  -12.4293   20.4182 C   0  0  0  0  0  0  0  0  0  0  0  0
  -28.8366  -18.9769   21.3016 C   0  0  0  0  0  0  0  0  0  0  0  0
  -27.9185  -13.7593   19.9998 C   0  0  0  0  0  0  0  0  0  0  0  0
  -27.8188  -19.8922   20.9978 C   0  0  0  0  0  0  0  0  0  0  0  0
  -18.1236  -28.0906   22.7189 C   0  0  0  0  0  0  0  0  0  0  0  0
  -29.2421  -20.8925   19.2997 C   0  0  0  0  0  0  0  0  0  0  0  0
  -15.9908  -27.2735   23.2716 C   0  0  0  0  0  0  0  0  0  0  0  0
  -14.4140  -25.2810   24.4233 C   0  0  0  0  0  0  0  0  0  0  0  0
  -15.1472  -27.5815   24.3389 C   0  0  0  0  0  0  0  0  0  0  0  0
  -22.3203  -27.5597   22.7812 C   0  0  0  0  0  0  0  0  0  0  0  0
  -29.8536  -25.9548   20.1301 C   0  0  0  0  0  0  0  0  0  0  0  0
  -28.8102  -25.1956   18.3497 C   0  0  0  0  0  0  0  0  0  0  0  0
  -24.3522  -26.7307   22.6427 C   0  0  0  0  0  0  0  0  0  0  0  0
  -22.5477  -25.0984   22.0702 C   0  0  0  0  0  0  0  0  0  0  0  0
  -26.5551  -16.7869   21.6209 C   0  0  0  0  0  0  0  0  0  0  0  0
  -25.3507  -18.9157   23.7516 C   0  0  0  0  0  0  0  0  0  0  0  0
  -25.1618  -22.1500   24.8241 C   0  0  0  0  0  0  0  0  0  0  0  0
  -28.5791  -30.3030   21.9235 C   0  0  0  0  0  0  0  0  0  0  0  0
  -27.1231  -11.7235   21.3089 C   0  0  0  0  0  0  0  0  0  0  0  0
  -28.6468  -17.9620   22.3954 C   0  0  0  0  0  0  0  0  0  0  0  0
  -26.4975  -19.8777   21.7206 C   0  0  0  0  0  0  0  0  0  0  0  0
  -26.1783  -12.6731   22.0410 C   0  0  0  0  0  0  0  0  0  0  0  0
  -26.4384  -30.8460   24.7162 C   0  0  0  0  0  0  0  0  0  0  0  0
  -25.6212  -13.7182   21.0797 C   0  0  0  0  0  0  0  0  0  0  0  0
  -25.2330  -29.9477   24.4331 C   0  0  0  0  0  0  0  0  0  0  0  0
  -26.9958  -31.4626   23.4352 C   0  0  0  0  0  0  0  0  0  0  0  0
  -26.1158  -29.5953   22.0889 C   0  0  0  0  0  0  0  0  0  0  0  0
  -26.7444  -14.5791   20.4892 C   0  0  1  0  0  0  0  0  0  0  0  0
  -27.1793  -17.6544   22.6770 C   0  0  1  0  0  0  0  0  0  0  0  0
  -25.5532  -28.9063   23.3440 C   0  0  2  0  0  0  0  0  0  0  0  0
  -27.9049  -24.8454   17.2400 C   0  0  0  0  0  0  0  0  0  0  0  0
  -24.0681  -23.5868   26.5668 C   0  0  0  0  0  0  0  0  0  0  0  0
  -22.7233  -18.7865   22.2056 C   0  0  0  0  0  0  0  0  0  0  0  0
  -22.0144  -20.8854   23.3719 C   0  0  0  0  0  0  0  0  0  0  0  0
  -22.4694  -18.8191   24.6933 C   0  0  0  0  0  0  0  0  0  0  0  0
  -27.7716  -22.9607   25.9600 C   0  0  0  0  0  0  0  0  0  0  0  0
  -30.2187  -26.6607   21.3699 C   0  0  0  0  0  0  0  0  0  0  0  0
  -30.8926  -28.0409   21.1658 C   0  0  0  0  0  0  0  0  0  0  0  0
  -30.7418  -23.6984   17.5499 C   0  0  0  0  0  0  0  0  0  0  0  0
  -30.0460  -29.0353   20.3742 C   0  0  0  0  0  0  0  0  0  0  0  0
  -30.7684  -22.2854   18.1223 C   0  0  0  0  0  0  0  0  0  1  0  0
  -24.4030  -20.0881   23.6721 C   0  0  1  0  0  0  0  0  0  0  0  0
  -25.2941  -22.7620   26.2070 C   0  0  2  0  0  0  0  0  0  0  0  0
  -22.9266  -19.6441   23.4706 C   0  0  0  0  0  0  0  0  0  0  0  0
  -23.1195  -28.5746   23.1207 N   0  0  0  0  0  0  0  0  0  0  0  0
  -30.7303  -25.1264   19.5564 N   0  0  0  0  0  0  0  0  0  0  0  0
  -30.0667  -24.6804   18.4763 N   0  0  0  0  0  0  0  0  0  0  0  0
  -24.3487  -28.0393   23.0271 N   0  0  0  0  0  0  0  0  0  0  0  0
  -26.3579  -18.8624   22.7776 N   0  0  0  0  0  0  0  0  0  0  0  0
  -27.2799  -30.4219   22.4441 N   0  0  0  0  0  0  0  0  0  0  0  0
  -25.5028  -26.0394   22.4989 N   0  0  0  0  0  0  0  0  0  0  0  0
  -21.1637  -24.9158   21.9451 N   0  0  0  0  0  0  0  0  0  0  0  0
  -27.1826  -15.5674   21.4513 N   0  0  0  0  0  0  0  0  0  0  0  0
  -24.6300  -20.8789   24.8769 N   0  0  0  0  0  0  0  0  0  0  0  0
  -28.7641  -29.2867   20.9942 N   0  0  0  0  0  0  0  0  0  0  0  0
  -26.4911  -23.6475   26.2692 N   0  3  0  0  0  0  0  0  0  0  0  0
  -23.3171  -24.1339   21.8440 O   0  0  0  0  0  0  0  0  0  0  0  0
  -25.5758  -17.1931   21.0064 O   0  0  0  0  0  0  0  0  0  0  0  0
  -25.2071  -18.0818   24.6491 O   0  0  0  0  0  0  0  0  0  0  0  0
  -25.4933  -22.7418   23.7993 O   0  0  0  0  0  0  0  0  0  0  0  0
  -29.5068  -31.0442   22.2657 O   0  0  0  0  0  0  0  0  0  0  0  0
  -16.7735  -28.2615   22.6982 O   0  0  0  0  0  0  0  0  0  0  0  0
  -29.4340  -21.8218   18.3242 O   0  0  0  0  0  0  0  0  0  1  0  0
  -13.6558  -24.3246   24.9753 F   0  0  0  0  0  0  0  0  0  0  0  0
  -15.0891  -28.8330   24.8146 F   0  0  0  0  0  0  0  0  0  0  0  0
  1  2  1  0  0  0  0
  1  5  2  0  0  0  0
  2  6  2  0  0  0  0
  3  8  2  0  0  0  0
  3 16  1  0  0  0  0
  4  9  1  0  0  0  0
  4 16  2  0  0  0  0
  5 18  1  0  0  0  0
  6 20  1  0  0  0  0
  7 10  2  0  0  0  0
  7 19  1  0  0  0  0
  8 22  1  0  0  0  0
  9 22  2  0  0  0  0
 10 23  1  0  0  0  0
 11 12  2  0  0  0  0
 11 24  1  0  0  0  0
 12 25  1  0  0  0  0
 13 21  1  0  0  0  0
 13 23  2  0  0  0  0
 14 25  2  0  0  0  0
 14 26  1  0  0  0  0
 15 28  1  0  0  0  0
 15 29  2  0  0  0  0
 16 27  1  0  0  0  0
 17 27  1  0  0  0  0
 17 30  2  0  0  0  0
 17 31  1  0  0  0  0
 18 20  2  0  0  0  0
 18 36  1  0  0  0  0
 19 21  2  0  0  0  0
 19 37  1  0  0  0  0
 20 45  1  0  0  0  0
 21 38  1  0  0  0  0
 22 79  1  0  0  0  0
 23 80  1  0  0  0  0
 24 26  2  0  0  0  0
 24 79  1  0  0  0  0
 25 81  1  0  0  0  0
 26 82  1  0  0  0  0
 27 62  2  0  0  0  0
 28 54  1  0  0  0  0
 28 63  2  0  0  0  0
 29 48  1  0  0  0  0
 29 64  1  0  0  0  0
 30 65  1  0  0  0  0
 30 68  1  0  0  0  0
 31 69  1  0  0  0  0
 31 74  2  0  0  0  0
 32 46  1  0  0  0  0
 32 70  1  0  0  0  0
 32 75  2  0  0  0  0
 33 59  1  0  0  0  0
 33 66  1  0  0  0  0
 33 76  2  0  0  0  0
 34 60  1  0  0  0  0
 34 71  1  0  0  0  0
 34 77  2  0  0  0  0
 35 67  1  0  0  0  0
 35 72  1  0  0  0  0
 35 78  2  0  0  0  0
 36 39  1  0  0  0  0
 37 46  1  0  0  0  0
 38 66  1  0  0  0  0
 39 41  1  0  0  0  0
 40 42  1  0  0  0  0
 40 43  1  0  0  0  0
 41 45  1  0  0  0  0
 42 47  1  0  0  0  0
 43 67  1  0  0  0  0
 44 47  1  0  0  0  0
 44 67  1  0  0  0  0
 45 70  1  0  0  0  0
 46 66  1  0  0  0  0
 47 65  1  0  0  0  0
 49 60  1  0  0  0  0
 50 61  1  0  0  0  0
 51 61  1  0  0  0  0
 52 61  1  0  0  0  0
 53 73  1  0  0  0  0
 54 55  1  0  0  0  0
 55 57  1  0  0  0  0
 56 58  1  0  0  0  0
 56 64  1  0  0  0  0
 57 72  1  0  0  0  0
 58 80  1  0  0  0  0
 59 61  1  0  0  0  0
 59 71  1  0  0  0  0
 60 73  1  0  0  0  0
 62 65  1  0  0  0  0
 63 64  1  0  0  0  0
M  CHG  1  73   1
M  ISO  4  35 100  58 101  72 100  80 101
M  END
> <Batch ID>
0038

> <Smiles>
CNC(C)C(=O)NC(C(=O)N1Cc2cc([101O:1][101CH2:1]Cn3nc(CCC[100NH:0][100C:0](=O)N4CCCC(n5nc(-c6ccc(Oc7ccc(F)cc7F)cc6)c(C(N)=O)c5N)C4)cc3C)ccc2CC1C(=O)NC1CCCc2ccccc21)C(C)(C)C

> <Shape>
0.230

> <Color>
0.075

> <Negative vol penalty>
0.000

$$$$

  -OEChem-04052317013D

 93101  0     1  0  0  0  0  0999 V2000
  -29.8081  -22.4063   20.5123 C   0  0  0  0  0  0  0  0  0  0  0  0
  -30.1250  -23.3585   21.4758 C   0  0  0  0  0  0  0  0  0  0  0  0
  -22.9899   -9.9127   19.9821 C   0  0  0  0  0  0  0  0  0  0  0  0
  -23.7623   -9.9313   22.2712 C   0  0  0  0  0  0  0  0  0  0  0  0
  -29.3744  -22.8107   19.2504 C   0  0  0  0  0  0  0  0  0  0  0  0
  -30.0095  -24.7158   21.1775 C   0  0  0  0  0  0  0  0  0  0  0  0
  -28.3324  -29.1956   25.0016 C   0  0  0  0  0  0  0  0  0  0  0  0
  -22.2293   -8.7742   20.2479 C   0  0  0  0  0  0  0  0  0  0  0  0
  -23.0016   -8.7927   22.5371 C   0  0  0  0  0  0  0  0  0  0  0  0
  -29.0666  -30.1255   25.7366 C   0  0  0  0  0  0  0  0  0  0  0  0
  -23.2370   -5.4610   22.0127 C   0  0  0  0  0  0  0  0  0  0  0  0
  -23.8401   -4.4335   22.7381 C   0  0  0  0  0  0  0  0  0  0  0  0
  -28.7510  -31.7517   23.9830 C   0  0  0  0  0  0  0  0  0  0  0  0
  -33.9256  -32.3226   25.4503 C   0  0  0  0  0  0  0  0  0  0  0  0
  -32.7316  -31.8897   27.4927 C   0  0  0  0  0  0  0  0  0  0  0  0
  -22.1509   -4.6516   24.4516 C   0  0  0  0  0  0  0  0  0  0  0  0
  -23.7565  -10.4913   20.9937 C   0  0  0  0  0  0  0  0  0  0  0  0
  -24.1375  -13.0093   20.8457 C   0  0  0  0  0  0  0  0  0  0  0  0
  -29.2442  -24.1735   18.9397 C   0  0  0  0  0  0  0  0  0  0  0  0
  -27.8103  -29.5340   23.7449 C   0  0  0  0  0  0  0  0  0  0  0  0
  -29.5750  -25.1388   19.9099 C   0  0  0  0  0  0  0  0  0  0  0  0
  -28.0083  -30.8252   23.2353 C   0  0  0  0  0  0  0  0  0  0  0  0
  -32.8884  -32.6275   26.3246 C   0  0  0  0  0  0  0  0  0  0  0  0
  -22.2351   -8.2142   21.5254 C   0  0  0  0  0  0  0  0  0  0  0  0
  -29.2785  -31.4028   25.2260 C   0  0  0  0  0  0  0  0  0  0  0  0
  -22.0909   -6.0839   22.5069 C   0  0  0  0  0  0  0  0  0  0  0  0
  -23.2970   -4.0288   23.9575 C   0  0  0  0  0  0  0  0  0  0  0  0
  -21.5478   -5.6792   23.7263 C   0  0  0  0  0  0  0  0  0  0  0  0
  -24.5429  -11.6671   20.7196 C   0  0  0  0  0  0  0  0  0  0  0  0
  -34.7722  -31.2788   25.7873 C   0  0  0  0  0  0  0  0  0  0  0  0
  -33.6315  -30.8652   27.7382 C   0  0  0  0  0  0  0  0  0  0  0  0
  -25.2394  -13.7376   20.4689 C   0  0  0  0  0  0  0  0  0  0  0  0
  -22.8776  -13.5495   21.2659 C   0  0  0  0  0  0  0  0  0  0  0  0
  -28.2333  -28.4699   20.7797 C   0  0  0  0  0  0  0  0  0  0  0  0
  -30.7598  -14.6057   20.7153 C   0  0  0  0  0  0  0  0  0  0  0  0
  -25.8210  -30.5330   20.1114 C   0  0  0  0  0  0  0  0  0  0  0  0
  -24.0788  -33.3343   20.9856 C   0  0  0  0  0  0  0  0  0  0  0  0
  -28.8168  -24.5628   17.5467 C   0  0  0  0  0  0  0  0  0  0  0  0
  -26.9977  -28.5281   22.9765 C   0  0  0  0  0  0  0  0  0  0  0  0
  -27.4517  -31.2448   21.9002 C   0  0  0  0  0  0  0  0  0  0  0  0
  -28.3630  -26.0159   17.4327 C   0  0  0  0  0  0  0  0  0  0  0  0
  -29.5453  -12.3023   18.2537 C   0  0  0  0  0  0  0  0  0  0  0  0
  -29.3518  -26.9407   18.1353 C   0  0  0  0  0  0  0  0  0  0  0  0
  -28.1126  -12.0188   18.7033 C   0  0  0  0  0  0  0  0  0  0  0  0
  -30.4754  -12.5027   19.4461 C   0  0  0  0  0  0  0  0  0  0  0  0
  -28.5916  -13.2819   20.8481 C   0  0  0  0  0  0  0  0  0  0  0  0
  -29.4388  -26.6202   19.6324 C   0  0  1  0  0  0  0  0  0  0  0  0
  -26.9497  -28.8172   21.4794 C   0  0  1  0  0  0  0  0  0  0  0  0
  -27.6129  -13.1036   19.6739 C   0  0  2  0  0  0  0  0  0  0  0  0
  -35.8974  -30.9244   24.8736 C   0  0  0  0  0  0  0  0  0  0  0  0
  -22.1854  -34.7944   20.2236 C   0  0  0  0  0  0  0  0  0  0  0  0
  -27.6271  -31.7579   17.9789 C   0  0  0  0  0  0  0  0  0  0  0  0
  -26.1031  -33.7437   17.9281 C   0  0  0  0  0  0  0  0  0  0  0  0
  -25.2365  -31.4921   17.2941 C   0  0  0  0  0  0  0  0  0  0  0  0
  -22.5194  -32.7929   23.4420 C   0  0  0  0  0  0  0  0  0  0  0  0
  -31.9485  -33.7420   26.0113 C   0  0  0  0  0  0  0  0  0  0  0  0
  -33.4905  -30.0431   28.9944 C   0  0  0  0  0  0  0  0  0  0  0  0
  -30.1527  -15.6193   21.6523 C   0  0  0  0  0  0  0  0  0  0  0  0
  -32.5959  -28.8092   28.8305 C   0  0  0  0  0  0  0  0  0  0  0  0
  -31.1633  -16.7250   21.9382 C   0  0  0  0  0  0  0  0  0  0  0  0
  -33.1493  -27.7975   27.8220 C   0  0  0  0  0  0  0  0  0  0  0  0
  -30.5966  -17.7528   22.9190 C   0  0  0  0  0  0  0  0  0  0  0  0
  -32.2107  -26.5988   27.6679 C   0  0  0  0  0  0  0  0  0  0  0  0
  -31.5433  -18.9266   23.1865 C   0  0  0  0  0  0  0  0  0  0  0  0
  -32.7769  -25.5722   26.6855 C   0  0  0  0  0  0  0  0  0  0  0  0
  -30.9861  -19.9430   24.1869 C   0  0  0  0  0  0  0  0  0  0  0  0
  -31.8237  -24.3894   26.5060 C   0  0  0  0  0  0  0  0  0  0  0  0
  -31.9620  -21.1045   24.3938 C   0  0  0  0  0  0  0  0  0  0  0  0
  -32.4050  -23.3462   25.5488 C   0  0  0  0  0  0  0  0  0  0  0  0
  -31.4638  -22.1493   25.3967 C   0  0  0  0  0  0  0  0  0  0  0  0
  -30.7295  -33.2869   25.2029 C   0  0  0  0  0  0  0  0  0  1  0  0
  -25.7366  -31.9891   19.7221 C   0  0  1  0  0  0  0  0  0  0  0  0
  -22.5880  -33.6045   21.0808 C   0  0  2  0  0  0  0  0  0  0  0  0
  -26.1881  -32.2375   18.2551 C   0  0  0  0  0  0  0  0  0  0  0  0
  -25.8038  -11.5469   20.2956 N   0  0  0  0  0  0  0  0  0  0  0  0
  -34.6515  -30.5396   26.9128 N   0  0  0  0  0  0  0  0  0  0  0  0
  -26.2002  -12.8230   20.1520 N   0  0  0  0  0  0  0  0  0  0  0  0
  -26.6694  -30.2237   21.1839 N   0  0  0  0  0  0  0  0  0  0  0  0
  -29.9546  -13.5249   20.3555 N   0  0  0  0  0  0  0  0  0  0  0  0
  -25.4704  -15.0648   20.3809 N   0  0  0  0  0  0  0  0  0  0  0  0
  -21.8533  -12.6600   21.6179 N   0  0  0  0  0  0  0  0  0  0  0  0
  -28.2950  -27.1637   20.3329 N   0  0  0  0  0  0  0  0  0  0  0  0
  -24.3684  -32.4088   20.0054 N   0  0  0  0  0  0  0  0  0  0  0  0
  -22.2025  -33.8900   22.4918 N   0  3  0  0  0  0  0  0  0  0  0  0
  -22.6612  -14.7842   21.3117 O   0  0  0  0  0  0  0  0  0  0  0  0
  -29.1027  -29.3241   20.6532 O   0  0  0  0  0  0  0  0  0  0  0  0
  -31.9144  -14.7729   20.3137 O   0  0  0  0  0  0  0  0  0  0  0  0
  -25.1531  -29.7016   19.4914 O   0  0  0  0  0  0  0  0  0  0  0  0
  -24.9041  -33.8914   21.7059 O   0  0  0  0  0  0  0  0  0  0  0  0
  -21.4928   -7.1033   21.7852 O   0  0  0  0  0  0  0  0  0  0  0  0
  -30.0004  -32.3184   25.9460 O   0  0  0  0  0  0  0  0  0  1  0  0
  -23.8754   -3.0410   24.6531 F   0  0  0  0  0  0  0  0  0  0  0  0
  -20.4463   -6.2730   24.2056 F   0  0  0  0  0  0  0  0  0  0  0  0
  1  2  1  0  0  0  0
  1  5  2  0  0  0  0
  2  6  2  0  0  0  0
  3  8  2  0  0  0  0
  3 17  1  0  0  0  0
  4  9  1  0  0  0  0
  4 17  2  0  0  0  0
  5 19  1  0  0  0  0
  6 21  1  0  0  0  0
  7 10  2  0  0  0  0
  7 20  1  0  0  0  0
  8 24  1  0  0  0  0
  9 24  2  0  0  0  0
 10 25  1  0  0  0  0
 11 12  2  0  0  0  0
 11 26  1  0  0  0  0
 12 27  1  0  0  0  0
 13 22  1  0  0  0  0
 13 25  2  0  0  0  0
 14 23  1  0  0  0  0
 14 30  2  0  0  0  0
 15 23  2  0  0  0  0
 15 31  1  0  0  0  0
 16 27  2  0  0  0  0
 16 28  1  0  0  0  0
 17 29  1  0  0  0  0
 18 29  1  0  0  0  0
 18 32  2  0  0  0  0
 18 33  1  0  0  0  0
 19 21  2  0  0  0  0
 19 38  1  0  0  0  0
 20 22  2  0  0  0  0
 20 39  1  0  0  0  0
 21 47  1  0  0  0  0
 22 40  1  0  0  0  0
 23 56  1  0  0  0  0
 24 90  1  0  0  0  0
 25 91  1  0  0  0  0
 26 28  2  0  0  0  0
 26 90  1  0  0  0  0
 27 92  1  0  0  0  0
 28 93  1  0  0  0  0
 29 75  2  0  0  0  0
 30 50  1  0  0  0  0
 30 76  1  0  0  0  0
 31 57  1  0  0  0  0
 31 76  2  0  0  0  0
 32 77  1  0  0  0  0
 32 80  1  0  0  0  0
 33 81  1  0  0  0  0
 33 85  2  0  0  0  0
 34 48  1  0  0  0  0
 34 82  1  0  0  0  0
 34 86  2  0  0  0  0
 35 58  1  0  0  0  0
 35 79  1  0  0  0  0
 35 87  2  0  0  0  0
 36 72  1  0  0  0  0
 36 78  1  0  0  0  0
 36 88  2  0  0  0  0
 37 73  1  0  0  0  0
 37 83  1  0  0  0  0
 37 89  2  0  0  0  0
 38 41  1  0  0  0  0
 39 48  1  0  0  0  0
 40 78  1  0  0  0  0
 41 43  1  0  0  0  0
 42 44  1  0  0  0  0
 42 45  1  0  0  0  0
 43 47  1  0  0  0  0
 44 49  1  0  0  0  0
 45 79  1  0  0  0  0
 46 49  1  0  0  0  0
 46 79  1  0  0  0  0
 47 82  1  0  0  0  0
 48 78  1  0  0  0  0
 49 77  1  0  0  0  0
 51 73  1  0  0  0  0
 52 74  1  0  0  0  0
 53 74  1  0  0  0  0
 54 74  1  0  0  0  0
 55 84  1  0  0  0  0
 56 71  1  0  0  0  0
 57 59  1  0  0  0  0
 58 60  1  0  0  0  0
 59 61  1  0  0  0  0
 60 62  1  0  0  0  0
 61 63  1  0  0  0  0
 62 64  1  0  0  0  0
 63 65  1  0  0  0  0
 64 66  1  0  0  0  0
 65 67  1  0  0  0  0
 66 68  1  0  0  0  0
 67 69  1  0  0  0  0
 68 70  1  0  0  0  0
 69 70  1  0  0  0  0
 71 91  1  0  0  0  0
 72 74  1  0  0  0  0
 72 83  1  0  0  0  0
 73 84  1  0  0  0  0
 75 77  1  0  0  0  0
M  CHG  1  84   1
M  ISO  4  35 100  58 100  71 101  91 101
M  END
> <Batch ID>
0038

> <Smiles>
CNC(C)C(=O)NC(C(=O)N1Cc2cc([101O:1][101CH2:1]Cc3cc(C)nc(CCCCCCCCCCCCC[100CH2:0][100C:0](=O)N4CCCC(n5nc(-c6ccc(Oc7ccc(F)cc7F)cc6)c(C(N)=O)c5N)C4)c3)ccc2CC1C(=O)NC1CCCc2ccccc21)C(C)(C)C

> <Shape>
0.291

> <Color>
0.205

> <Negative vol penalty>
0.000

$$$$

  -OEChem-04052317013D

 86 94  0     1  0  0  0  0  0999 V2000
  -28.2169  -11.1558   21.5636 C   0  0  0  0  0  0  0  0  0  0  0  0
  -28.7779  -12.3832   21.2255 C   0  0  0  0  0  0  0  0  0  0  0  0
  -20.6168  -26.8173   23.4456 C   0  0  0  0  0  0  0  0  0  0  0  0
  -19.9944  -28.5434   21.8739 C   0  0  0  0  0  0  0  0  0  0  0  0
  -26.8628  -10.9212   21.3285 C   0  0  0  0  0  0  0  0  0  0  0  0
  -27.9853  -13.3763   20.6512 C   0  0  0  0  0  0  0  0  0  0  0  0
  -28.4816  -19.4232   21.4844 C   0  0  0  0  0  0  0  0  0  0  0  0
  -19.2693  -26.5679   23.7054 C   0  0  0  0  0  0  0  0  0  0  0  0
  -18.6469  -28.2940   22.1336 C   0  0  0  0  0  0  0  0  0  0  0  0
  -29.0813  -20.4284   20.7269 C   0  0  0  0  0  0  0  0  0  0  0  0
  -16.3193  -26.0140   21.2365 C   0  0  0  0  0  0  0  0  0  0  0  0
  -15.4551  -25.9307   20.1449 C   0  0  0  0  0  0  0  0  0  0  0  0
  -26.9503  -20.9266   19.7120 C   0  0  0  0  0  0  0  0  0  0  0  0
  -31.5762  -25.6381   16.8162 C   0  0  0  0  0  0  0  0  0  0  0  0
  -31.0116  -24.7396   18.9866 C   0  0  0  0  0  0  0  0  0  0  0  0
  -14.1719  -27.7816   21.0195 C   0  0  0  0  0  0  0  0  0  0  0  0
  -20.9794  -27.8051   22.5299 C   0  0  0  0  0  0  0  0  0  0  0  0
  -23.1742  -27.4569   21.2770 C   0  0  0  0  0  0  0  0  0  0  0  0
  -26.0511  -11.9154   20.7599 C   0  0  0  0  0  0  0  0  0  0  0  0
  -27.1116  -19.1545   21.3532 C   0  0  0  0  0  0  0  0  0  0  0  0
  -26.6194  -13.1543   20.4071 C   0  0  0  0  0  0  0  0  0  0  0  0
  -26.3352  -19.9192   20.4709 C   0  0  0  0  0  0  0  0  0  0  0  0
  -31.4272  -25.8084   18.1926 C   0  0  0  0  0  0  0  0  0  0  0  0
  -31.3094  -24.3990   16.2338 C   0  0  0  0  0  0  0  0  0  0  0  0
  -30.7448  -23.5005   18.4043 C   0  0  0  0  0  0  0  0  0  0  0  0
  -30.8937  -23.3302   17.0279 C   0  0  0  0  0  0  0  0  0  0  0  0
  -18.2843  -27.3062   23.0494 C   0  0  0  0  0  0  0  0  0  0  0  0
  -28.3163  -21.1783   19.8384 C   0  0  0  0  0  0  0  0  0  0  0  0
  -16.1099  -26.9810   22.2197 C   0  0  0  0  0  0  0  0  0  0  0  0
  -14.3814  -26.8145   20.0363 C   0  0  0  0  0  0  0  0  0  0  0  0
  -15.0362  -27.8648   22.1112 C   0  0  0  0  0  0  0  0  0  0  0  0
  -22.3713  -28.0635   22.2615 C   0  0  0  0  0  0  0  0  0  0  0  0
  -24.4070  -28.0424   21.4306 C   0  0  0  0  0  0  0  0  0  0  0  0
  -22.8357  -26.4538   20.3101 C   0  0  0  0  0  0  0  0  0  0  0  0
  -25.3968  -16.6411   20.4336 C   0  0  0  0  0  0  0  0  0  0  0  0
  -22.9023  -18.4918   21.3687 C   0  0  0  0  0  0  0  0  0  0  0  0
  -21.6779  -21.6228   21.9561 C   0  0  0  0  0  0  0  0  0  0  0  0
  -27.5843  -32.5642   22.2077 C   0  0  0  0  0  0  0  0  0  0  0  0
  -24.6031  -11.5987   20.4812 C   0  0  0  0  0  0  0  0  0  0  0  0
  -26.4746  -18.0847   22.1971 C   0  0  0  0  0  0  0  0  0  0  0  0
  -24.8565  -19.6839   20.3078 C   0  0  0  0  0  0  0  0  0  0  0  0
  -23.7495  -12.8358   20.2140 C   0  0  0  0  0  0  0  0  0  0  0  0
  -26.2024  -31.0211   25.1035 C   0  0  0  0  0  0  0  0  0  0  0  0
  -24.4534  -13.7684   19.2335 C   0  0  0  0  0  0  0  0  0  0  0  0
  -25.1450  -30.0693   24.5415 C   0  0  0  0  0  0  0  0  0  0  0  0
  -26.2800  -32.3169   24.2991 C   0  0  0  0  0  0  0  0  0  0  0  0
  -25.4205  -31.1828   22.2869 C   0  0  0  0  0  0  0  0  0  0  0  0
  -25.7868  -14.2654   19.8051 C   0  0  1  0  0  0  0  0  0  0  0  0
  -25.1723  -17.5537   21.6059 C   0  0  1  0  0  0  0  0  0  0  0  0
  -25.3441  -29.8388   23.0313 C   0  0  2  0  0  0  0  0  0  0  0  0
  -31.4777  -24.2426   14.7577 C   0  0  0  0  0  0  0  0  0  0  0  0
  -30.6082  -22.0016   16.4032 C   0  0  0  0  0  0  0  0  0  0  0  0
  -19.5931  -22.8196   22.6760 C   0  0  0  0  0  0  0  0  0  0  0  0
  -21.6868  -18.0299   18.6084 C   0  0  0  0  0  0  0  0  0  0  0  0
  -20.1495  -19.9584   19.0393 C   0  0  0  0  0  0  0  0  0  0  0  0
  -20.0507  -17.9369   20.4975 C   0  0  0  0  0  0  0  0  0  0  0  0
  -23.0180  -22.7702   24.3323 C   0  0  0  0  0  0  0  0  0  0  0  0
  -31.7118  -27.1334   18.8151 C   0  0  0  0  0  0  0  0  0  0  0  0
  -30.2992  -22.3669   19.2804 C   0  0  0  0  0  0  0  0  0  1  0  0
  -30.4964  -28.0757   18.8887 C   0  0  0  0  0  0  0  0  0  0  0  0
  -30.8444  -29.4488   19.4723 C   0  0  0  0  0  0  0  0  0  0  0  0
  -29.6181  -30.3644   19.5047 C   0  0  0  0  0  0  0  0  0  0  0  0
  -29.9748  -31.7498   20.0515 C   0  0  0  0  0  0  0  0  0  0  0  0
  -28.7875  -32.7070   20.0418 C   0  0  0  0  0  0  0  0  0  0  0  0
  -22.0175  -19.5132   20.6956 C   0  0  1  0  0  0  0  0  0  0  0  0
  -20.9052  -22.1985   23.1290 C   0  0  2  0  0  0  0  0  0  0  0  0
  -21.0044  -18.8630   19.7116 C   0  0  0  0  0  0  0  0  0  0  0  0
  -23.0381  -28.9652   22.9869 N   0  0  0  0  0  0  0  0  0  0  0  0
  -24.2730  -28.9294   22.4580 N   0  0  0  0  0  0  0  0  0  0  0  0
  -24.2811  -18.6225   21.1505 N   0  0  0  0  0  0  0  0  0  0  0  0
  -26.4708  -32.0284   22.8757 N   0  0  0  0  0  0  0  0  0  0  0  0
  -25.5819  -27.8799   20.7858 N   0  0  0  0  0  0  0  0  0  0  0  0
  -21.5238  -25.9611   20.2897 N   0  0  0  0  0  0  0  0  0  0  0  0
  -25.5606  -15.3129   20.7778 N   0  0  0  0  0  0  0  0  0  0  0  0
  -21.3981  -20.2859   21.7669 N   0  0  0  0  0  0  0  0  0  0  0  0
  -27.6933  -32.2367   20.8618 N   0  0  0  0  0  0  0  0  0  0  0  0
  -21.7104  -23.2487   23.8144 N   0  3  0  0  0  0  0  0  0  0  0  0
  -23.6762  -25.9957   19.4993 O   0  0  0  0  0  0  0  0  0  0  0  0
  -25.4182  -17.1072   19.3004 O   0  0  0  0  0  0  0  0  0  0  0  0
  -22.3895  -17.6148   22.0683 O   0  0  0  0  0  0  0  0  0  0  0  0
  -22.4495  -22.2929   21.2734 O   0  0  0  0  0  0  0  0  0  0  0  0
  -28.4223  -33.2770   22.7705 O   0  0  0  0  0  0  0  0  0  0  0  0
  -16.9693  -27.0630   23.3025 O   0  0  0  0  0  0  0  0  0  0  0  0
  -28.8992  -22.1595   19.0973 O   0  0  0  0  0  0  0  0  0  1  0  0
  -13.5524  -26.7353   18.9872 F   0  0  0  0  0  0  0  0  0  0  0  0
  -14.8306  -28.7967   23.0520 F   0  0  0  0  0  0  0  0  0  0  0  0
  1  2  1  0  0  0  0
  1  5  2  0  0  0  0
  2  6  2  0  0  0  0
  3  8  2  0  0  0  0
  3 17  1  0  0  0  0
  4  9  1  0  0  0  0
  4 17  2  0  0  0  0
  5 19  1  0  0  0  0
  6 21  1  0  0  0  0
  7 10  2  0  0  0  0
  7 20  1  0  0  0  0
  8 27  1  0  0  0  0
  9 27  2  0  0  0  0
 10 28  1  0  0  0  0
 11 12  2  0  0  0  0
 11 29  1  0  0  0  0
 12 30  1  0  0  0  0
 13 22  1  0  0  0  0
 13 28  2  0  0  0  0
 14 23  1  0  0  0  0
 14 24  2  0  0  0  0
 15 23  2  0  0  0  0
 15 25  1  0  0  0  0
 16 30  2  0  0  0  0
 16 31  1  0  0  0  0
 17 32  1  0  0  0  0
 18 32  1  0  0  0  0
 18 33  2  0  0  0  0
 18 34  1  0  0  0  0
 19 21  2  0  0  0  0
 19 39  1  0  0  0  0
 20 22  2  0  0  0  0
 20 40  1  0  0  0  0
 21 48  1  0  0  0  0
 22 41  1  0  0  0  0
 23 58  1  0  0  0  0
 24 26  1  0  0  0  0
 24 51  1  0  0  0  0
 25 26  2  0  0  0  0
 25 59  1  0  0  0  0
 26 52  1  0  0  0  0
 27 83  1  0  0  0  0
 28 84  1  0  0  0  0
 29 31  2  0  0  0  0
 29 83  1  0  0  0  0
 30 85  1  0  0  0  0
 31 86  1  0  0  0  0
 32 68  2  0  0  0  0
 33 69  1  0  0  0  0
 33 72  1  0  0  0  0
 34 73  1  0  0  0  0
 34 78  2  0  0  0  0
 35 49  1  0  0  0  0
 35 74  1  0  0  0  0
 35 79  2  0  0  0  0
 36 65  1  0  0  0  0
 36 70  1  0  0  0  0
 36 80  2  0  0  0  0
 37 66  1  0  0  0  0
 37 75  1  0  0  0  0
 37 81  2  0  0  0  0
 38 71  1  0  0  0  0
 38 76  1  0  0  0  0
 38 82  2  0  0  0  0
 39 42  1  0  0  0  0
 40 49  1  0  0  0  0
 41 70  1  0  0  0  0
 42 44  1  0  0  0  0
 43 45  1  0  0  0  0
 43 46  1  0  0  0  0
 44 48  1  0  0  0  0
 45 50  1  0  0  0  0
 46 71  1  0  0  0  0
 47 50  1  0  0  0  0
 47 71  1  0  0  0  0
 48 74  1  0  0  0  0
 49 70  1  0  0  0  0
 50 69  1  0  0  0  0
 53 66  1  0  0  0  0
 54 67  1  0  0  0  0
 55 67  1  0  0  0  0
 56 67  1  0  0  0  0
 57 77  1  0  0  0  0
 58 60  1  0  0  0  0
 59 84  1  0  0  0  0
 60 61  1  0  0  0  0
 61 62  1  0  0  0  0
 62 63  1  0  0  0  0
 63 64  1  0  0  0  0
 64 76  1  0  0  0  0
 65 67  1  0  0  0  0
 65 75  1  0  0  0  0
 66 77  1  0  0  0  0
 68 69  1  0  0  0  0
M  CHG  1  77   1
M  ISO  4  38 100  59 101  76 100  84 101
M  END
> <Batch ID>
0038

> <Smiles>
CNC(C)C(=O)NC(C(=O)N1Cc2cc([101O:1][101CH2:1]c3cc(CCCCCC[100NH:0][100C:0](=O)N4CCCC(n5nc(-c6ccc(Oc7ccc(F)cc7F)cc6)c(C(N)=O)c5N)C4)cc(C)c3C)ccc2CC1C(=O)NC1CCCc2ccccc21)C(C)(C)C

> <Shape>
0.227

> <Color>
0.072

> <Negative vol penalty>
0.000

$$$$

  -OEChem-04052317013D

 87 95  0     1  0  0  0  0  0999 V2000
  -45.3749  -22.7471   23.0395 C   0  0  0  0  0  0  0  0  0  0  0  0
  -44.3615  -22.7540   23.9926 C   0  0  0  0  0  0  0  0  0  0  0  0
  -23.0743   -9.8689   19.9416 C   0  0  0  0  0  0  0  0  0  0  0  0
  -23.8384   -9.8747   22.2335 C   0  0  0  0  0  0  0  0  0  0  0  0
  -45.0977  -22.3505   21.7319 C   0  0  0  0  0  0  0  0  0  0  0  0
  -43.0700  -22.3654   23.6383 C   0  0  0  0  0  0  0  0  0  0  0  0
  -39.0287  -19.3879   27.1466 C   0  0  0  0  0  0  0  0  0  0  0  0
  -22.3317   -8.7151   20.1921 C   0  0  0  0  0  0  0  0  0  0  0  0
  -23.0958   -8.7209   22.4841 C   0  0  0  0  0  0  0  0  0  0  0  0
  -37.9462  -19.8255   27.9085 C   0  0  0  0  0  0  0  0  0  0  0  0
  -19.8693   -7.9203   23.0920 C   0  0  0  0  0  0  0  0  0  0  0  0
  -19.1146   -7.8790   24.2642 C   0  0  0  0  0  0  0  0  0  0  0  0
  -36.4596  -19.3148   26.0786 C   0  0  0  0  0  0  0  0  0  0  0  0
  -31.5654  -17.4676   29.3167 C   0  0  0  0  0  0  0  0  0  0  0  0
  -20.3587   -5.9419   24.9969 C   0  0  0  0  0  0  0  0  0  0  0  0
  -23.8277  -10.4487   20.9623 C   0  0  0  0  0  0  0  0  0  0  0  0
  -24.1675  -12.9742   20.8435 C   0  0  0  0  0  0  0  0  0  0  0  0
  -43.8044  -21.9476   21.3637 C   0  0  0  0  0  0  0  0  0  0  0  0
  -38.8357  -18.9198   25.8388 C   0  0  0  0  0  0  0  0  0  0  0  0
  -42.7750  -21.9643   22.3242 C   0  0  0  0  0  0  0  0  0  0  0  0
  -37.5409  -18.8694   25.3032 C   0  0  0  0  0  0  0  0  0  0  0  0
  -32.1993  -18.5951   29.8267 C   0  0  0  0  0  0  0  0  0  0  0  0
  -32.3004  -16.5253   28.6061 C   0  0  0  0  0  0  0  0  0  0  0  0
  -22.3424   -8.1410   21.4633 C   0  0  0  0  0  0  0  0  0  0  0  0
  -36.6618  -19.7918   27.3735 C   0  0  0  0  0  0  0  0  0  0  0  0
  -20.8687   -6.9724   22.8721 C   0  0  0  0  0  0  0  0  0  0  0  0
  -19.3593   -6.8898   25.2167 C   0  0  0  0  0  0  0  0  0  0  0  0
  -21.1134   -5.9832   23.8246 C   0  0  0  0  0  0  0  0  0  0  0  0
  -24.5955  -11.6404   20.7040 C   0  0  0  0  0  0  0  0  0  0  0  0
  -33.5594  -18.7325   29.6004 C   0  0  0  0  0  0  0  0  0  0  0  0
  -33.6559  -16.7555   28.4342 C   0  0  0  0  0  0  0  0  0  0  0  0
  -25.2585  -13.7247   20.4788 C   0  0  0  0  0  0  0  0  0  0  0  0
  -22.8975  -13.4888   21.2652 C   0  0  0  0  0  0  0  0  0  0  0  0
  -39.8207  -19.8380   22.9595 C   0  0  0  0  0  0  0  0  0  0  0  0
  -38.3661  -17.0964   22.0163 C   0  0  0  0  0  0  0  0  0  0  0  0
  -36.0183  -14.6994   22.6403 C   0  0  0  0  0  0  0  0  0  0  0  0
  -30.7418  -14.7475   20.6577 C   0  0  0  0  0  0  0  0  0  0  0  0
  -43.5424  -21.5724   19.9266 C   0  0  0  0  0  0  0  0  0  0  0  0
  -40.0105  -18.4262   25.0396 C   0  0  0  0  0  0  0  0  0  0  0  0
  -37.2778  -18.3568   23.9116 C   0  0  0  0  0  0  0  0  0  0  0  0
  -42.2313  -20.8173   19.7236 C   0  0  0  0  0  0  0  0  0  0  0  0
  -29.6015  -12.3640   18.2713 C   0  0  0  0  0  0  0  0  0  0  0  0
  -41.0967  -21.5060   20.4752 C   0  0  0  0  0  0  0  0  0  0  0  0
  -28.1651  -12.0689   18.7067 C   0  0  0  0  0  0  0  0  0  0  0  0
  -30.5207  -12.5846   19.4707 C   0  0  0  0  0  0  0  0  0  0  0  0
  -28.6210  -13.3133   20.8613 C   0  0  0  0  0  0  0  0  0  0  0  0
  -41.3670  -21.5260   21.9845 C   0  0  1  0  0  0  0  0  0  0  0  0
  -39.7621  -18.4511   23.5346 C   0  0  1  0  0  0  0  0  0  0  0  0
  -27.6448  -13.1389   19.6854 C   0  0  2  0  0  0  0  0  0  0  0  0
  -31.4175  -19.6083   30.5891 C   0  0  0  0  0  0  0  0  0  0  0  0
  -34.4947  -15.7761   27.6803 C   0  0  0  0  0  0  0  0  0  0  0  0
  -35.0353  -12.6048   21.6690 C   0  0  0  0  0  0  0  0  0  0  0  0
  -36.7966  -18.7689   20.0040 C   0  0  0  0  0  0  0  0  0  0  0  0
  -35.2075  -16.8504   19.7541 C   0  0  0  0  0  0  0  0  0  0  0  0
  -37.6059  -16.5708   19.1276 C   0  0  0  0  0  0  0  0  0  0  0  0
  -36.8615  -13.0840   24.9723 C   0  0  0  0  0  0  0  0  0  0  0  0
  -31.6271  -15.3152   28.0568 C   0  0  0  0  0  0  0  0  0  0  0  0
  -34.3013  -19.9361   30.1288 C   0  0  0  0  0  0  0  0  0  0  0  0
  -30.7905  -15.5713   26.7890 C   0  0  0  0  0  0  0  0  0  0  0  0
  -31.6364  -16.0598   25.6089 C   0  0  0  0  0  0  0  0  0  0  0  0
  -30.7753  -16.2776   24.3622 C   0  0  0  0  0  0  0  0  0  0  0  0
  -31.6271  -16.7282   23.1718 C   0  0  0  0  0  0  0  0  0  0  0  0
  -30.8085  -16.8972   21.8961 C   0  0  0  0  0  0  0  0  0  0  0  0
  -35.6978  -20.0652   29.5303 C   0  0  0  0  0  0  0  0  0  1  0  0
  -36.9727  -16.7241   21.5705 C   0  0  1  0  0  0  0  0  0  0  0  0
  -36.0905  -13.1837   22.5986 C   0  0  2  0  0  0  0  0  0  0  0  0
  -36.6505  -17.2401   20.1396 C   0  0  0  0  0  0  0  0  0  0  0  0
  -25.8596  -11.5457   20.2833 N   0  0  0  0  0  0  0  0  0  0  0  0
  -34.3066  -17.8386   28.9148 N   0  0  0  0  0  0  0  0  0  0  0  0
  -26.2354  -12.8297   20.1553 N   0  0  0  0  0  0  0  0  0  0  0  0
  -38.4598  -17.8913   23.1674 N   0  0  0  0  0  0  0  0  0  0  0  0
  -29.9711  -13.6120   20.3584 N   0  0  0  0  0  0  0  0  0  0  0  0
  -25.4678  -15.0564   20.4064 N   0  0  0  0  0  0  0  0  0  0  0  0
  -21.8868  -12.5787   21.6037 N   0  0  0  0  0  0  0  0  0  0  0  0
  -41.0856  -20.2307   22.5656 N   0  0  0  0  0  0  0  0  0  0  0  0
  -36.8689  -15.2767   21.7213 N   0  0  0  0  0  0  0  0  0  0  0  0
  -30.1436  -15.6753   21.5016 N   0  0  0  0  0  0  0  0  0  0  0  0
  -35.8786  -12.6174   23.9607 N   0  3  0  0  0  0  0  0  0  0  0  0
  -22.6605  -14.7192   21.3239 O   0  0  0  0  0  0  0  0  0  0  0  0
  -38.7940  -20.5021   22.8779 O   0  0  0  0  0  0  0  0  0  0  0  0
  -39.3360  -16.6906   21.3711 O   0  0  0  0  0  0  0  0  0  0  0  0
  -35.2784  -15.3102   23.4084 O   0  0  0  0  0  0  0  0  0  0  0  0
  -31.8768  -14.9241   20.2022 O   0  0  0  0  0  0  0  0  0  0  0  0
  -21.6177   -7.0152   21.7081 O   0  0  0  0  0  0  0  0  0  0  0  0
  -35.6035  -20.2190   28.1148 O   0  0  0  0  0  0  0  0  0  1  0  0
  -18.6355   -6.8511   26.3431 F   0  0  0  0  0  0  0  0  0  0  0  0
  -22.0730   -5.0705   23.6195 F   0  0  0  0  0  0  0  0  0  0  0  0
  1  2  1  0  0  0  0
  1  5  2  0  0  0  0
  2  6  2  0  0  0  0
  3  8  2  0  0  0  0
  3 16  1  0  0  0  0
  4  9  1  0  0  0  0
  4 16  2  0  0  0  0
  5 18  1  0  0  0  0
  6 20  1  0  0  0  0
  7 10  2  0  0  0  0
  7 19  1  0  0  0  0
  8 24  1  0  0  0  0
  9 24  2  0  0  0  0
 10 25  1  0  0  0  0
 11 12  2  0  0  0  0
 11 26  1  0  0  0  0
 12 27  1  0  0  0  0
 13 21  1  0  0  0  0
 13 25  2  0  0  0  0
 14 22  1  0  0  0  0
 14 23  2  0  0  0  0
 15 27  2  0  0  0  0
 15 28  1  0  0  0  0
 16 29  1  0  0  0  0
 17 29  1  0  0  0  0
 17 32  2  0  0  0  0
 17 33  1  0  0  0  0
 18 20  2  0  0  0  0
 18 38  1  0  0  0  0
 19 21  2  0  0  0  0
 19 39  1  0  0  0  0
 20 47  1  0  0  0  0
 21 40  1  0  0  0  0
 22 30  2  0  0  0  0
 22 50  1  0  0  0  0
 23 31  1  0  0  0  0
 23 57  1  0  0  0  0
 24 84  1  0  0  0  0
 25 85  1  0  0  0  0
 26 28  2  0  0  0  0
 26 84  1  0  0  0  0
 27 86  1  0  0  0  0
 28 87  1  0  0  0  0
 29 68  2  0  0  0  0
 30 58  1  0  0  0  0
 30 69  1  0  0  0  0
 31 51  1  0  0  0  0
 31 69  2  0  0  0  0
 32 70  1  0  0  0  0
 32 73  1  0  0  0  0
 33 74  1  0  0  0  0
 33 79  2  0  0  0  0
 34 48  1  0  0  0  0
 34 75  1  0  0  0  0
 34 80  2  0  0  0  0
 35 65  1  0  0  0  0
 35 71  1  0  0  0  0
 35 81  2  0  0  0  0
 36 66  1  0  0  0  0
 36 76  1  0  0  0  0
 36 82  2  0  0  0  0
 37 72  1  0  0  0  0
 37 77  1  0  0  0  0
 37 83  2  0  0  0  0
 38 41  1  0  0  0  0
 39 48  1  0  0  0  0
 40 71  1  0  0  0  0
 41 43  1  0  0  0  0
 42 44  1  0  0  0  0
 42 45  1  0  0  0  0
 43 47  1  0  0  0  0
 44 49  1  0  0  0  0
 45 72  1  0  0  0  0
 46 49  1  0  0  0  0
 46 72  1  0  0  0  0
 47 75  1  0  0  0  0
 48 71  1  0  0  0  0
 49 70  1  0  0  0  0
 52 66  1  0  0  0  0
 53 67  1  0  0  0  0
 54 67  1  0  0  0  0
 55 67  1  0  0  0  0
 56 78  1  0  0  0  0
 57 59  1  0  0  0  0
 58 64  1  0  0  0  0
 59 60  1  0  0  0  0
 60 61  1  0  0  0  0
 61 62  1  0  0  0  0
 62 63  1  0  0  0  0
 63 77  1  0  0  0  0
 64 85  1  0  0  0  0
 65 67  1  0  0  0  0
 65 76  1  0  0  0  0
 66 78  1  0  0  0  0
 68 70  1  0  0  0  0
M  CHG  1  78   1
M  ISO  4  37 100  64 101  77 100  85 101
M  END
> <Batch ID>
0038

> <Smiles>
CNC(C)C(=O)NC(C(=O)N1Cc2cc([101O:1][101CH2:1]Cc3nc(C)c(CCCCCC[100NH:0][100C:0](=O)N4CCCC(n5nc(-c6ccc(Oc7ccc(F)cc7F)cc6)c(C(N)=O)c5N)C4)cc3C)ccc2CC1C(=O)NC1CCCc2ccccc21)C(C)(C)C

> <Shape>
0.160

> <Color>
0.191

> <Negative vol penalty>
0.000

$$$$

  -OEChem-04052317013D

 87 95  0     1  0  0  0  0  0999 V2000
  -21.6517  -11.9484   21.1951 C   0  0  0  0  0  0  0  0  0  0  0  0
  -21.7610  -13.2556   21.6584 C   0  0  0  0  0  0  0  0  0  0  0  0
  -28.8942  -26.5681   21.5722 C   0  0  0  0  0  0  0  0  0  0  0  0
  -26.9497  -25.1602   21.3009 C   0  0  0  0  0  0  0  0  0  0  0  0
  -22.7856  -11.2712   20.7483 C   0  0  0  0  0  0  0  0  0  0  0  0
  -23.0046  -13.8860   21.6763 C   0  0  0  0  0  0  0  0  0  0  0  0
  -22.8049  -18.6268   19.9071 C   0  0  0  0  0  0  0  0  0  0  0  0
  -29.5864  -25.5017   22.1459 C   0  0  0  0  0  0  0  0  0  0  0  0
  -27.6419  -24.0937   21.8746 C   0  0  0  0  0  0  0  0  0  0  0  0
  -22.3043  -19.6058   20.7643 C   0  0  0  0  0  0  0  0  0  0  0  0
  -28.7768  -21.1005   23.5959 C   0  0  0  0  0  0  0  0  0  0  0  0
  -28.1108  -20.3351   24.5530 C   0  0  0  0  0  0  0  0  0  0  0  0
  -24.5574  -20.2900   21.2888 C   0  0  0  0  0  0  0  0  0  0  0  0
  -27.8403  -22.2984   25.9348 C   0  0  0  0  0  0  0  0  0  0  0  0
  -19.2727  -24.7193   25.8376 C   0  0  0  0  0  0  0  0  0  0  0  0
  -27.5758  -26.3974   21.1497 C   0  0  0  0  0  0  0  0  0  0  0  0
  -26.8031  -27.8401   19.1930 C   0  0  0  0  0  0  0  0  0  0  0  0
  -24.0422  -11.8971   20.7517 C   0  0  0  0  0  0  0  0  0  0  0  0
  -24.1880  -18.4646   19.7424 C   0  0  0  0  0  0  0  0  0  0  0  0
  -24.1567  -13.2162   21.2304 C   0  0  0  0  0  0  0  0  0  0  0  0
  -25.0729  -19.3099   20.4269 C   0  0  0  0  0  0  0  0  0  0  0  0
  -19.8864  -25.9469   25.8917 C   0  0  0  0  0  0  0  0  0  0  0  0
  -28.9603  -24.2645   22.2971 C   0  0  0  0  0  0  0  0  0  0  0  0
  -23.1806  -20.4356   21.4576 C   0  0  0  0  0  0  0  0  0  0  0  0
  -28.9747  -22.4648   23.8082 C   0  0  0  0  0  0  0  0  0  0  0  0
  -27.6425  -20.9340   25.7224 C   0  0  0  0  0  0  0  0  0  0  0  0
  -28.5064  -23.0638   24.9776 C   0  0  0  0  0  0  0  0  0  0  0  0
  -26.8601  -27.4988   20.5575 C   0  0  0  0  0  0  0  0  0  0  0  0
  -21.1898  -25.6690   26.3452 C   0  0  0  0  0  0  0  0  0  0  0  0
  -26.0011  -28.9544   19.1510 C   0  0  0  0  0  0  0  0  0  0  0  0
  -27.4198  -27.2066   18.0643 C   0  0  0  0  0  0  0  0  0  0  0  0
  -26.2529  -16.1131   20.2995 C   0  0  0  0  0  0  0  0  0  0  0  0
  -28.3348  -18.1169   18.8255 C   0  0  0  0  0  0  0  0  0  0  0  0
  -29.1540  -21.3122   17.9504 C   0  0  0  0  0  0  0  0  0  0  0  0
  -21.7008  -31.0216   22.7684 C   0  0  0  0  0  0  0  0  0  0  0  0
  -25.2471  -11.1085   20.3033 C   0  0  0  0  0  0  0  0  0  0  0  0
  -24.7115  -17.4216   18.7935 C   0  0  0  0  0  0  0  0  0  0  0  0
  -26.5659  -19.1900   20.2694 C   0  0  0  0  0  0  0  0  0  0  0  0
  -26.4665  -11.9768   20.0043 C   0  0  0  0  0  0  0  0  0  0  0  0
  -24.6766  -32.7163   21.7939 C   0  0  0  0  0  0  0  0  0  0  0  0
  -26.6834  -12.9947   21.1195 C   0  0  0  0  0  0  0  0  0  0  0  0
  -25.5685  -31.6021   21.2434 C   0  0  0  0  0  0  0  0  0  0  0  0
  -23.8473  -32.2392   22.9842 C   0  0  0  0  0  0  0  0  0  0  0  0
  -23.9414  -29.9097   22.1852 C   0  0  0  0  0  0  0  0  0  0  0  0
  -25.4842  -13.9426   21.2422 C   0  0  1  0  0  0  0  0  0  0  0  0
  -26.1479  -17.0060   19.0956 C   0  0  1  0  0  0  0  0  0  0  0  0
  -24.7555  -30.3271   20.9486 C   0  0  2  0  0  0  0  0  0  0  0  0
  -23.6518  -27.8783   28.3359 C   0  0  0  0  0  0  0  0  0  0  0  0
  -30.9349  -22.6398   16.7828 C   0  0  0  0  0  0  0  0  0  0  0  0
  -30.1466  -17.8258   21.2633 C   0  0  0  0  0  0  0  0  0  0  0  0
  -31.3988  -19.8503   20.4875 C   0  0  0  0  0  0  0  0  0  0  0  0
  -31.3416  -17.8009   19.0664 C   0  0  0  0  0  0  0  0  0  0  0  0
  -27.2491  -22.2884   15.9064 C   0  0  0  0  0  0  0  0  0  0  0  0
  -19.3007  -27.2539   25.5494 C   0  0  0  0  0  0  0  0  0  0  0  0
  -22.2849  -26.6248   26.5868 C   0  0  0  0  0  0  0  0  0  0  0  0
  -22.4965  -26.9219   28.0862 C   0  0  0  0  0  0  0  0  0  0  0  0
  -19.7579  -27.7739   24.1694 C   0  0  0  0  0  0  0  0  0  0  0  0
  -20.1067  -21.5837   25.0222 C   0  0  0  0  0  0  0  0  0  0  0  0
  -19.1752  -29.1523   23.8437 C   0  0  0  0  0  0  0  0  0  0  0  0
  -21.4155  -21.8445   24.2749 C   0  0  0  0  0  0  0  0  0  0  0  0
  -20.0229  -22.3240   26.3618 C   0  0  0  0  0  0  0  0  0  0  0  0
  -19.6338  -29.6772   22.4871 C   0  0  0  0  0  0  0  0  0  0  0  0
  -21.4478  -21.1219   22.9349 C   0  0  0  0  0  0  0  0  0  1  0  0
  -29.2601  -19.2201   19.2793 C   0  0  1  0  0  0  0  0  0  0  0  0
  -29.6092  -21.9101   16.6314 C   0  0  2  0  0  0  0  0  0  0  0  0
  -30.5087  -18.6755   20.0288 C   0  0  0  0  0  0  0  0  0  0  0  0
  -26.1510  -28.3291   21.3268 N   0  0  0  0  0  0  0  0  0  0  0  0
  -21.3932  -24.3672   26.5639 N   0  0  0  0  0  0  0  0  0  0  0  0
  -20.2093  -23.8160   26.2464 N   0  0  0  0  0  0  0  0  0  0  0  0
  -25.6408  -29.2032   20.4427 N   0  0  0  0  0  0  0  0  0  0  0  0
  -27.0290  -18.1508   19.3350 N   0  0  0  0  0  0  0  0  0  0  0  0
  -23.0994  -31.0281   22.6381 N   0  0  0  0  0  0  0  0  0  0  0  0
  -25.5760  -29.7358   18.1356 N   0  0  0  0  0  0  0  0  0  0  0  0
  -28.2117  -26.0716   18.2854 N   0  0  0  0  0  0  0  0  0  0  0  0
  -25.5228  -14.9442   20.1983 N   0  0  0  0  0  0  0  0  0  0  0  0
  -29.5723  -20.0058   18.0904 N   0  0  0  0  0  0  0  0  0  0  0  0
  -21.0691  -29.8361   22.4133 N   0  0  0  0  0  0  0  0  0  0  0  0
  -28.5955  -22.8774   16.1238 N   0  3  0  0  0  0  0  0  0  0  0  0
  -27.2863  -27.6440   16.8962 O   0  0  0  0  0  0  0  0  0  0  0  0
  -26.9461  -16.4584   21.2492 O   0  0  0  0  0  0  0  0  0  0  0  0
  -28.7532  -17.2608   18.0421 O   0  0  0  0  0  0  0  0  0  0  0  0
  -28.4964  -21.9423   18.7756 O   0  0  0  0  0  0  0  0  0  0  0  0
  -21.0620  -32.0017   23.1663 O   0  0  0  0  0  0  0  0  0  0  0  0
  -29.6355  -23.2235   22.8567 O   0  0  0  0  0  0  0  0  0  0  0  0
  -22.6947  -21.3916   22.2954 O   0  0  0  0  0  0  0  0  0  1  0  0
  -27.0015  -20.1992   26.6407 F   0  0  0  0  0  0  0  0  0  0  0  0
  -28.6925  -24.3743   25.1867 F   0  0  0  0  0  0  0  0  0  0  0  0
  1  2  1  0  0  0  0
  1  5  2  0  0  0  0
  2  6  2  0  0  0  0
  3  8  2  0  0  0  0
  3 16  1  0  0  0  0
  4  9  1  0  0  0  0
  4 16  2  0  0  0  0
  5 18  1  0  0  0  0
  6 20  1  0  0  0  0
  7 10  2  0  0  0  0
  7 19  1  0  0  0  0
  8 23  1  0  0  0  0
  9 23  2  0  0  0  0
 10 24  1  0  0  0  0
 11 12  2  0  0  0  0
 11 25  1  0  0  0  0
 12 26  1  0  0  0  0
 13 21  1  0  0  0  0
 13 24  2  0  0  0  0
 14 26  2  0  0  0  0
 14 27  1  0  0  0  0
 15 22  2  0  0  0  0
 15 69  1  0  0  0  0
 16 28  1  0  0  0  0
 17 28  1  0  0  0  0
 17 30  2  0  0  0  0
 17 31  1  0  0  0  0
 18 20  2  0  0  0  0
 18 36  1  0  0  0  0
 19 21  2  0  0  0  0
 19 37  1  0  0  0  0
 20 45  1  0  0  0  0
 21 38  1  0  0  0  0
 22 29  1  0  0  0  0
 22 54  1  0  0  0  0
 23 84  1  0  0  0  0
 24 85  1  0  0  0  0
 25 27  2  0  0  0  0
 25 84  1  0  0  0  0
 26 86  1  0  0  0  0
 27 87  1  0  0  0  0
 28 67  2  0  0  0  0
 29 55  1  0  0  0  0
 29 68  2  0  0  0  0
 30 70  1  0  0  0  0
 30 73  1  0  0  0  0
 31 74  1  0  0  0  0
 31 79  2  0  0  0  0
 32 46  1  0  0  0  0
 32 75  1  0  0  0  0
 32 80  2  0  0  0  0
 33 64  1  0  0  0  0
 33 71  1  0  0  0  0
 33 81  2  0  0  0  0
 34 65  1  0  0  0  0
 34 76  1  0  0  0  0
 34 82  2  0  0  0  0
 35 72  1  0  0  0  0
 35 77  1  0  0  0  0
 35 83  2  0  0  0  0
 36 39  1  0  0  0  0
 37 46  1  0  0  0  0
 38 71  1  0  0  0  0
 39 41  1  0  0  0  0
 40 42  1  0  0  0  0
 40 43  1  0  0  0  0
 41 45  1  0  0  0  0
 42 47  1  0  0  0  0
 43 72  1  0  0  0  0
 44 47  1  0  0  0  0
 44 72  1  0  0  0  0
 45 75  1  0  0  0  0
 46 71  1  0  0  0  0
 47 70  1  0  0  0  0
 48 56  1  0  0  0  0
 49 65  1  0  0  0  0
 50 66  1  0  0  0  0
 51 66  1  0  0  0  0
 52 66  1  0  0  0  0
 53 78  1  0  0  0  0
 54 57  1  0  0  0  0
 55 56  1  0  0  0  0
 57 59  1  0  0  0  0
 58 60  1  0  0  0  0
 58 61  1  0  0  0  0
 59 62  1  0  0  0  0
 60 63  1  0  0  0  0
 61 69  1  0  0  0  0
 62 77  1  0  0  0  0
 63 85  1  0  0  0  0
 64 66  1  0  0  0  0
 64 76  1  0  0  0  0
 65 78  1  0  0  0  0
 67 70  1  0  0  0  0
 68 69  1  0  0  0  0
M  CHG  1  78   1
M  ISO  4  35 100  63 101  77 100  85 101
M  END
> <Batch ID>
0038

> <Smiles>
CCCc1nn(CCC[101CH2:1][101O:1]c2ccc3c(c2)CN(C(=O)C(NC(=O)C(C)NC)C(C)(C)C)C(C(=O)NC2CCCc4ccccc42)C3)cc1CCCC[100NH:0][100C:0](=O)N1CCCC(n2nc(-c3ccc(Oc4ccc(F)cc4F)cc3)c(C(N)=O)c2N)C1

> <Shape>
0.197

> <Color>
0.074

> <Negative vol penalty>
0.000

$$$$

  -OEChem-04052317013D

 88 96  0     1  0  0  0  0  0999 V2000
  -31.0073  -22.3244   13.6981 C   0  0  0  0  0  0  0  0  0  0  0  0
  -30.0185  -22.6290   14.6281 C   0  0  0  0  0  0  0  0  0  0  0  0
  -23.0025   -9.8925   19.9818 C   0  0  0  0  0  0  0  0  0  0  0  0
  -23.7314   -9.9448   22.2846 C   0  0  0  0  0  0  0  0  0  0  0  0
  -32.2395  -21.8337   14.1278 C   0  0  0  0  0  0  0  0  0  0  0  0
  -30.2611  -22.4420   15.9885 C   0  0  0  0  0  0  0  0  0  0  0  0
  -28.6911  -26.3524   18.7973 C   0  0  0  0  0  0  0  0  0  0  0  0
  -22.2385   -8.7566   20.2494 C   0  0  0  0  0  0  0  0  0  0  0  0
  -22.9673   -8.8089   22.5523 C   0  0  0  0  0  0  0  0  0  0  0  0
  -27.3247  -26.4395   19.0603 C   0  0  0  0  0  0  0  0  0  0  0  0
  -23.2169   -5.4704   22.0799 C   0  0  0  0  0  0  0  0  0  0  0  0
  -23.8075   -4.4543   22.8310 C   0  0  0  0  0  0  0  0  0  0  0  0
  -27.6916  -25.4923   21.2483 C   0  0  0  0  0  0  0  0  0  0  0  0
  -25.2862  -22.5438   19.6570 C   0  0  0  0  0  0  0  0  0  0  0  0
  -22.0860   -4.6940   24.5091 C   0  0  0  0  0  0  0  0  0  0  0  0
  -23.6518  -21.4219   17.7819 C   0  0  0  0  0  0  0  0  0  0  0  0
  -23.7490  -10.4866   20.9994 C   0  0  0  0  0  0  0  0  0  0  0  0
  -24.1294  -13.0029   20.8228 C   0  0  0  0  0  0  0  0  0  0  0  0
  -32.5007  -21.6498   15.4948 C   0  0  0  0  0  0  0  0  0  0  0  0
  -29.5681  -25.8236   19.7553 C   0  0  0  0  0  0  0  0  0  0  0  0
  -31.4975  -21.9471   16.4368 C   0  0  0  0  0  0  0  0  0  0  0  0
  -29.0691  -25.4019   20.9960 C   0  0  0  0  0  0  0  0  0  0  0  0
  -23.9574  -22.9462   19.5819 C   0  0  0  0  0  0  0  0  0  0  0  0
  -23.1180  -22.3794   18.6293 C   0  0  0  0  0  0  0  0  0  0  0  0
  -22.2208   -8.2148   21.5346 C   0  0  0  0  0  0  0  0  0  0  0  0
  -26.8244  -26.0067   20.2848 C   0  0  0  0  0  0  0  0  0  0  0  0
  -22.0608   -6.0985   22.5434 C   0  0  0  0  0  0  0  0  0  0  0  0
  -23.2421   -4.0661   24.0456 C   0  0  0  0  0  0  0  0  0  0  0  0
  -21.4954   -5.7102   23.7579 C   0  0  0  0  0  0  0  0  0  0  0  0
  -24.5389  -11.6596   20.7235 C   0  0  0  0  0  0  0  0  0  0  0  0
  -25.7229  -21.5788   18.7638 C   0  0  0  0  0  0  0  0  0  0  0  0
  -25.2373  -13.7275   20.4566 C   0  0  0  0  0  0  0  0  0  0  0  0
  -22.8611  -13.5470   21.2115 C   0  0  0  0  0  0  0  0  0  0  0  0
  -31.5217  -23.3188   19.8677 C   0  0  0  0  0  0  0  0  0  0  0  0
  -32.4026  -24.6258   22.7029 C   0  0  0  0  0  0  0  0  0  0  0  0
  -31.5983  -26.6360   25.3408 C   0  0  0  0  0  0  0  0  0  0  0  0
  -30.7324  -14.6720   20.6961 C   0  0  0  0  0  0  0  0  0  0  0  0
  -33.8312  -21.0722   15.9083 C   0  0  0  0  0  0  0  0  0  0  0  0
  -31.0429  -25.7612   19.4663 C   0  0  0  0  0  0  0  0  0  0  0  0
  -29.9712  -24.8453   22.0659 C   0  0  0  0  0  0  0  0  0  0  0  0
  -34.1407  -21.2566   17.3917 C   0  0  0  0  0  0  0  0  0  0  0  0
  -29.5922  -12.2463   18.3525 C   0  0  0  0  0  0  0  0  0  0  0  0
  -32.9305  -20.8797   18.2404 C   0  0  0  0  0  0  0  0  0  0  0  0
  -28.1449  -11.9840   18.7724 C   0  0  0  0  0  0  0  0  0  0  0  0
  -30.4962  -12.4833   19.5602 C   0  0  0  0  0  0  0  0  0  0  0  0
  -28.5868  -13.2754   20.9022 C   0  0  0  0  0  0  0  0  0  0  0  0
  -31.7315  -21.7813   17.9227 C   0  0  1  0  0  0  0  0  0  0  0  0
  -31.7755  -24.7295   20.3185 C   0  0  1  0  0  0  0  0  0  0  0  0
  -27.6262  -13.0860   19.7157 C   0  0  2  0  0  0  0  0  0  0  0  0
  -20.7392  -21.5879   18.6691 C   0  0  0  0  0  0  0  0  0  0  0  0
  -32.5058  -27.4798   27.5230 C   0  0  0  0  0  0  0  0  0  0  0  0
  -31.8205  -21.9204   23.9883 C   0  0  0  0  0  0  0  0  0  0  0  0
  -31.8172  -23.0588   26.2181 C   0  0  0  0  0  0  0  0  0  0  0  0
  -33.8877  -23.0506   24.8269 C   0  0  0  0  0  0  0  0  0  0  0  0
  -31.4877  -29.4502   24.4316 C   0  0  0  0  0  0  0  0  0  0  0  0
  -23.4504  -23.9944   20.5400 C   0  0  0  0  0  0  0  0  0  0  0  0
  -21.6873  -22.7740   18.5049 C   0  0  0  0  0  0  0  0  0  0  0  0
  -27.1430  -21.1230   18.8152 C   0  0  0  0  0  0  0  0  0  0  0  0
  -23.2892  -25.3791   19.9090 C   0  0  0  0  0  0  0  0  0  0  0  0
  -27.3918  -19.9242   19.7481 C   0  0  0  0  0  0  0  0  0  0  0  0
  -28.8700  -19.5291   19.8260 C   0  0  0  0  0  0  0  0  0  0  0  0
  -29.0795  -18.3521   20.7820 C   0  0  0  0  0  0  0  0  0  0  0  0
  -30.5619  -17.9827   20.8901 C   0  0  0  0  0  0  0  0  0  0  0  0
  -30.8131  -16.8511   21.8812 C   0  0  0  0  0  0  0  0  0  0  0  0
  -24.6051  -25.9815   19.4304 C   0  0  0  0  0  0  0  0  0  1  0  0
  -31.9332  -24.4958   24.1318 C   0  0  1  0  0  0  0  0  0  0  0  0
  -32.3681  -27.7468   26.0322 C   0  0  2  0  0  0  0  0  0  0  0  0
  -32.3471  -23.1401   24.7706 C   0  0  0  0  0  0  0  0  0  0  0  0
  -24.9373  -21.0055   17.8248 N   0  0  0  0  0  0  0  0  0  0  0  0
  -25.8077  -11.5354   20.3252 N   0  0  0  0  0  0  0  0  0  0  0  0
  -26.2051  -12.8099   20.1710 N   0  0  0  0  0  0  0  0  0  0  0  0
  -31.4047  -24.7989   21.7333 N   0  0  0  0  0  0  0  0  0  0  0  0
  -29.9489  -13.5411   20.4132 N   0  0  0  0  0  0  0  0  0  0  0  0
  -25.4682  -15.0536   20.3542 N   0  0  0  0  0  0  0  0  0  0  0  0
  -21.8315  -12.6610   21.5567 N   0  0  0  0  0  0  0  0  0  0  0  0
  -31.8874  -23.0721   18.5582 N   0  0  0  0  0  0  0  0  0  0  0  0
  -32.4408  -25.6681   24.8364 N   0  0  0  0  0  0  0  0  0  0  0  0
  -30.1356  -15.6297   21.5070 N   0  0  0  0  0  0  0  0  0  0  0  0
  -31.6703  -29.0511   25.8508 N   0  3  0  0  0  0  0  0  0  0  0  0
  -22.6422  -14.7819   21.2356 O   0  0  0  0  0  0  0  0  0  0  0  0
  -31.0318  -22.5132   20.6506 O   0  0  0  0  0  0  0  0  0  0  0  0
  -33.6106  -24.5826   22.4569 O   0  0  0  0  0  0  0  0  0  0  0  0
  -30.3719  -26.6260   25.2599 O   0  0  0  0  0  0  0  0  0  0  0  0
  -31.8768  -14.8200   20.2541 O   0  0  0  0  0  0  0  0  0  0  0  0
  -21.4752   -7.1066   21.7961 O   0  0  0  0  0  0  0  0  0  0  0  0
  -25.4910  -26.0900   20.5438 O   0  0  0  0  0  0  0  0  0  1  0  0
  -23.8085   -3.0892   24.7660 F   0  0  0  0  0  0  0  0  0  0  0  0
  -20.3841   -6.3091   24.2078 F   0  0  0  0  0  0  0  0  0  0  0  0
  1  2  1  0  0  0  0
  1  5  2  0  0  0  0
  2  6  2  0  0  0  0
  3  8  2  0  0  0  0
  3 17  1  0  0  0  0
  4  9  1  0  0  0  0
  4 17  2  0  0  0  0
  5 19  1  0  0  0  0
  6 21  1  0  0  0  0
  7 10  2  0  0  0  0
  7 20  1  0  0  0  0
  8 25  1  0  0  0  0
  9 25  2  0  0  0  0
 10 26  1  0  0  0  0
 11 12  2  0  0  0  0
 11 27  1  0  0  0  0
 12 28  1  0  0  0  0
 13 22  1  0  0  0  0
 13 26  2  0  0  0  0
 14 23  1  0  0  0  0
 14 31  2  0  0  0  0
 15 28  2  0  0  0  0
 15 29  1  0  0  0  0
 16 24  1  0  0  0  0
 16 69  2  0  0  0  0
 17 30  1  0  0  0  0
 18 30  1  0  0  0  0
 18 32  2  0  0  0  0
 18 33  1  0  0  0  0
 19 21  2  0  0  0  0
 19 38  1  0  0  0  0
 20 22  2  0  0  0  0
 20 39  1  0  0  0  0
 21 47  1  0  0  0  0
 22 40  1  0  0  0  0
 23 24  2  0  0  0  0
 23 56  1  0  0  0  0
 24 57  1  0  0  0  0
 25 85  1  0  0  0  0
 26 86  1  0  0  0  0
 27 29  2  0  0  0  0
 27 85  1  0  0  0  0
 28 87  1  0  0  0  0
 29 88  1  0  0  0  0
 30 70  2  0  0  0  0
 31 58  1  0  0  0  0
 31 69  1  0  0  0  0
 32 71  1  0  0  0  0
 32 74  1  0  0  0  0
 33 75  1  0  0  0  0
 33 80  2  0  0  0  0
 34 48  1  0  0  0  0
 34 76  1  0  0  0  0
 34 81  2  0  0  0  0
 35 66  1  0  0  0  0
 35 72  1  0  0  0  0
 35 82  2  0  0  0  0
 36 67  1  0  0  0  0
 36 77  1  0  0  0  0
 36 83  2  0  0  0  0
 37 73  1  0  0  0  0
 37 78  1  0  0  0  0
 37 84  2  0  0  0  0
 38 41  1  0  0  0  0
 39 48  1  0  0  0  0
 40 72  1  0  0  0  0
 41 43  1  0  0  0  0
 42 44  1  0  0  0  0
 42 45  1  0  0  0  0
 43 47  1  0  0  0  0
 44 49  1  0  0  0  0
 45 73  1  0  0  0  0
 46 49  1  0  0  0  0
 46 73  1  0  0  0  0
 47 76  1  0  0  0  0
 48 72  1  0  0  0  0
 49 71  1  0  0  0  0
 50 57  1  0  0  0  0
 51 67  1  0  0  0  0
 52 68  1  0  0  0  0
 53 68  1  0  0  0  0
 54 68  1  0  0  0  0
 55 79  1  0  0  0  0
 56 59  1  0  0  0  0
 58 60  1  0  0  0  0
 59 65  1  0  0  0  0
 60 61  1  0  0  0  0
 61 62  1  0  0  0  0
 62 63  1  0  0  0  0
 63 64  1  0  0  0  0
 64 78  1  0  0  0  0
 65 86  1  0  0  0  0
 66 68  1  0  0  0  0
 66 77  1  0  0  0  0
 67 79  1  0  0  0  0
 70 71  1  0  0  0  0
M  CHG  1  79   1
M  ISO  4  37 100  65 101  78 100  86 101
M  END
> <Batch ID>
0038

> <Smiles>
CCc1cnc(CCCCCC[100NH:0][100C:0](=O)N2CCCC(n3nc(-c4ccc(Oc5ccc(F)cc5F)cc4)c(C(N)=O)c3N)C2)cc1CC[101CH2:1][101O:1]c1ccc2c(c1)CN(C(=O)C(NC(=O)C(C)NC)C(C)(C)C)C(C(=O)NC1CCCc3ccccc31)C2

> <Shape>
0.244

> <Color>
0.193

> <Negative vol penalty>
0.000

$$$$

  -OEChem-04052317013D

 86 94  0     1  0  0  0  0  0999 V2000
  -23.2167  -24.0509   18.8423 C   0  0  0  0  0  0  0  0  0  0  0  0
  -23.8495  -22.8513   19.1521 C   0  0  0  0  0  0  0  0  0  0  0  0
  -25.2229  -31.2555   21.6493 C   0  0  0  0  0  0  0  0  0  0  0  0
  -27.4167  -31.4370   20.6536 C   0  0  0  0  0  0  0  0  0  0  0  0
  -22.2676  -24.5826   19.7143 C   0  0  0  0  0  0  0  0  0  0  0  0
  -23.5341  -22.1832   20.3347 C   0  0  0  0  0  0  0  0  0  0  0  0
  -22.9006  -17.2065   19.6449 C   0  0  0  0  0  0  0  0  0  0  0  0
  -25.3120  -32.5770   22.0866 C   0  0  0  0  0  0  0  0  0  0  0  0
  -27.5058  -32.7585   21.0909 C   0  0  0  0  0  0  0  0  0  0  0  0
  -24.0514  -16.4292   19.5211 C   0  0  0  0  0  0  0  0  0  0  0  0
  -26.8045  -34.2730   24.6006 C   0  0  0  0  0  0  0  0  0  0  0  0
  -26.4152  -34.5488   25.9113 C   0  0  0  0  0  0  0  0  0  0  0  0
  -23.8412  -15.7611   21.8295 C   0  0  0  0  0  0  0  0  0  0  0  0
  -29.6821  -12.3252   19.3500 C   0  0  0  0  0  0  0  0  0  0  0  0
  -27.4113  -12.7745   18.6582 C   0  0  0  0  0  0  0  0  0  0  0  0
  -28.6398  -14.4292   19.9190 C   0  0  0  0  0  0  0  0  0  0  0  0
  -24.7237  -36.0657   25.0898 C   0  0  0  0  0  0  0  0  0  0  0  0
  -26.2752  -30.6854   20.9329 C   0  0  0  0  0  0  0  0  0  0  0  0
  -25.6654  -28.8632   19.2550 C   0  0  0  0  0  0  0  0  0  0  0  0
  -21.9334  -23.9157   20.9035 C   0  0  0  0  0  0  0  0  0  0  0  0
  -22.2165  -17.2756   20.8670 C   0  0  0  0  0  0  0  0  0  0  0  0
  -22.5806  -22.7071   21.2241 C   0  0  0  0  0  0  0  0  0  0  0  0
  -22.6805  -16.5379   21.9655 C   0  0  0  0  0  0  0  0  0  0  0  0
  -28.5157  -11.9234   18.6992 C   0  0  0  0  0  0  0  0  0  0  0  0
  -29.7442  -13.5781   19.9599 C   0  0  0  0  0  0  0  0  0  0  0  0
  -27.4734  -14.0274   19.2682 C   0  0  0  0  0  0  0  0  0  0  0  0
  -26.4534  -33.3285   21.8074 C   0  0  0  0  0  0  0  0  0  0  0  0
  -24.5236  -15.7087   20.6143 C   0  0  0  0  0  0  0  0  0  0  0  0
  -26.1535  -34.8936   23.5344 C   0  0  0  0  0  0  0  0  0  0  0  0
  -25.3749  -35.4451   26.1559 C   0  0  0  0  0  0  0  0  0  0  0  0
  -25.1131  -35.7900   23.7790 C   0  0  0  0  0  0  0  0  0  0  0  0
  -26.1840  -29.3202   20.4814 C   0  0  0  0  0  0  0  0  0  0  0  0
  -25.8046  -27.4979   19.3107 C   0  0  0  0  0  0  0  0  0  0  0  0
  -25.1078  -29.6064   18.1630 C   0  0  0  0  0  0  0  0  0  0  0  0
  -21.5238  -19.5999   22.9216 C   0  0  0  0  0  0  0  0  0  0  0  0
  -28.9317  -23.1012   20.3917 C   0  0  0  0  0  0  0  0  0  0  0  0
  -19.8062  -17.2671   24.3810 C   0  0  0  0  0  0  0  0  0  0  0  0
  -19.3217  -13.9320   24.9193 C   0  0  0  0  0  0  0  0  0  0  0  0
  -20.9357  -24.5534   21.8376 C   0  0  0  0  0  0  0  0  0  0  0  0
  -20.9615  -18.0974   20.9768 C   0  0  0  0  0  0  0  0  0  0  0  0
  -21.9710  -16.5622   23.2938 C   0  0  0  0  0  0  0  0  0  0  0  0
  -20.3858  -23.5931   22.8892 C   0  0  0  0  0  0  0  0  0  0  0  0
  -26.9996  -24.4545   23.1598 C   0  0  0  0  0  0  0  0  0  0  0  0
  -21.5183  -22.7959   23.5283 C   0  0  0  0  0  0  0  0  0  0  0  0
  -26.5979  -25.8233   22.6119 C   0  0  0  0  0  0  0  0  0  0  0  0
  -28.3934  -24.0482   22.6885 C   0  0  0  0  0  0  0  0  0  0  0  0
  -28.1557  -25.4359   20.6533 C   0  0  0  0  0  0  0  0  0  0  0  0
  -22.2475  -21.9402   22.4855 C   0  0  1  0  0  0  0  0  0  0  0  0
  -20.6351  -18.5010   22.4113 C   0  0  1  0  0  0  0  0  0  0  0  0
  -26.7434  -25.8692   21.0808 C   0  0  2  0  0  0  0  0  0  0  0  0
  -28.4501  -10.5837   18.0468 C   0  0  0  0  0  0  0  0  0  0  0  0
  -17.8636  -12.3332   26.1902 C   0  0  0  0  0  0  0  0  0  0  0  0
  -21.3142  -17.9359   26.9478 C   0  0  0  0  0  0  0  0  0  0  0  0
  -20.5388  -15.7499   27.8905 C   0  0  0  0  0  0  0  0  0  0  0  0
  -18.8721  -17.4946   27.2575 C   0  0  0  0  0  0  0  0  0  0  0  0
  -18.3376  -12.6694   22.4301 C   0  0  0  0  0  0  0  0  0  0  0  0
  -31.0053  -14.0133   20.6635 C   0  0  0  0  0  0  0  0  0  0  0  0
  -26.2923  -14.9372   19.2242 C   0  0  0  0  0  0  0  0  0  1  0  0
  -29.3134  -21.8044   21.0598 C   0  0  0  0  0  0  0  0  0  0  0  0
  -31.9988  -14.7507   19.7568 C   0  0  0  0  0  0  0  0  0  0  0  0
  -29.7648  -20.7710   20.0324 C   0  0  0  0  0  0  0  0  0  0  0  0
  -31.4863  -16.0677   19.1598 C   0  0  0  0  0  0  0  0  0  0  0  0
  -30.2161  -19.4576   20.6801 C   0  0  0  0  0  0  0  0  0  0  0  0
  -31.0874  -17.0980   20.2195 C   0  0  0  0  0  0  0  0  0  0  0  0
  -30.6345  -18.4337   19.6211 C   0  0  0  0  0  0  0  0  0  0  0  0
  -20.0945  -16.2311   25.4405 C   0  0  1  0  0  0  0  0  0  0  0  0
  -18.0680  -13.0770   24.8796 C   0  0  2  0  0  0  0  0  0  0  0  0
  -20.2196  -16.8537   26.8597 C   0  0  0  0  0  0  0  0  0  0  0  0
  -26.6200  -28.3259   21.2594 N   0  0  0  0  0  0  0  0  0  0  0  0
  -26.3755  -27.2305   20.5202 N   0  0  0  0  0  0  0  0  0  0  0  0
  -20.7520  -17.3856   23.3528 N   0  0  0  0  0  0  0  0  0  0  0  0
  -28.4994  -24.1316   21.2269 N   0  0  0  0  0  0  0  0  0  0  0  0
  -25.4930  -26.5121   18.4428 N   0  0  0  0  0  0  0  0  0  0  0  0
  -25.0402  -31.0022   18.2703 N   0  0  0  0  0  0  0  0  0  0  0  0
  -21.4734  -20.7587   22.1704 N   0  0  0  0  0  0  0  0  0  0  0  0
  -19.0474  -15.2223   25.3208 N   0  0  0  0  0  0  0  0  0  0  0  0
  -18.1589  -12.0753   23.7799 N   0  3  0  0  0  0  0  0  0  0  0  0
  -24.6671  -29.0480   17.1299 O   0  0  0  0  0  0  0  0  0  0  0  0
  -22.2036  -19.4111   23.9235 O   0  0  0  0  0  0  0  0  0  0  0  0
  -29.0133  -23.1928   19.1641 O   0  0  0  0  0  0  0  0  0  0  0  0
  -18.7761  -17.9412   24.4589 O   0  0  0  0  0  0  0  0  0  0  0  0
  -20.4337  -13.4977   24.6273 O   0  0  0  0  0  0  0  0  0  0  0  0
  -26.5406  -34.6182   22.2337 O   0  0  0  0  0  0  0  0  0  0  0  0
  -25.6547  -14.9446   20.4956 O   0  0  0  0  0  0  0  0  0  1  0  0
  -25.0001  -35.7087   27.4146 F   0  0  0  0  0  0  0  0  0  0  0  0
  -24.4831  -36.3884   22.7588 F   0  0  0  0  0  0  0  0  0  0  0  0
  1  2  1  0  0  0  0
  1  5  2  0  0  0  0
  2  6  2  0  0  0  0
  3  8  2  0  0  0  0
  3 18  1  0  0  0  0
  4  9  1  0  0  0  0
  4 18  2  0  0  0  0
  5 20  1  0  0  0  0
  6 22  1  0  0  0  0
  7 10  2  0  0  0  0
  7 21  1  0  0  0  0
  8 27  1  0  0  0  0
  9 27  2  0  0  0  0
 10 28  1  0  0  0  0
 11 12  2  0  0  0  0
 11 29  1  0  0  0  0
 12 30  1  0  0  0  0
 13 23  1  0  0  0  0
 13 28  2  0  0  0  0
 14 24  1  0  0  0  0
 14 25  2  0  0  0  0
 15 24  2  0  0  0  0
 15 26  1  0  0  0  0
 16 25  1  0  0  0  0
 16 26  2  0  0  0  0
 17 30  2  0  0  0  0
 17 31  1  0  0  0  0
 18 32  1  0  0  0  0
 19 32  1  0  0  0  0
 19 33  2  0  0  0  0
 19 34  1  0  0  0  0
 20 22  2  0  0  0  0
 20 39  1  0  0  0  0
 21 23  2  0  0  0  0
 21 40  1  0  0  0  0
 22 48  1  0  0  0  0
 23 41  1  0  0  0  0
 24 51  1  0  0  0  0
 25 57  1  0  0  0  0
 26 58  1  0  0  0  0
 27 83  1  0  0  0  0
 28 84  1  0  0  0  0
 29 31  2  0  0  0  0
 29 83  1  0  0  0  0
 30 85  1  0  0  0  0
 31 86  1  0  0  0  0
 32 69  2  0  0  0  0
 33 70  1  0  0  0  0
 33 73  1  0  0  0  0
 34 74  1  0  0  0  0
 34 78  2  0  0  0  0
 35 49  1  0  0  0  0
 35 75  1  0  0  0  0
 35 79  2  0  0  0  0
 36 59  1  0  0  0  0
 36 72  1  0  0  0  0
 36 80  2  0  0  0  0
 37 66  1  0  0  0  0
 37 71  1  0  0  0  0
 37 81  2  0  0  0  0
 38 67  1  0  0  0  0
 38 76  1  0  0  0  0
 38 82  2  0  0  0  0
 39 42  1  0  0  0  0
 40 49  1  0  0  0  0
 41 71  1  0  0  0  0
 42 44  1  0  0  0  0
 43 45  1  0  0  0  0
 43 46  1  0  0  0  0
 44 48  1  0  0  0  0
 45 50  1  0  0  0  0
 46 72  1  0  0  0  0
 47 50  1  0  0  0  0
 47 72  1  0  0  0  0
 48 75  1  0  0  0  0
 49 71  1  0  0  0  0
 50 70  1  0  0  0  0
 52 67  1  0  0  0  0
 53 68  1  0  0  0  0
 54 68  1  0  0  0  0
 55 68  1  0  0  0  0
 56 77  1  0  0  0  0
 57 60  1  0  0  0  0
 58 84  1  0  0  0  0
 59 61  1  0  0  0  0
 60 62  1  0  0  0  0
 61 63  1  0  0  0  0
 62 64  1  0  0  0  0
 63 65  1  0  0  0  0
 64 65  1  0  0  0  0
 66 68  1  0  0  0  0
 66 76  1  0  0  0  0
 67 77  1  0  0  0  0
 69 70  1  0  0  0  0
M  CHG  1  77   1
M  ISO  4  36 100  58 101  59 100  84 101
M  END
> <Batch ID>
0038

> <Smiles>
CNC(C)C(=O)NC(C(=O)N1Cc2cc([101O:1][101CH2:1]c3cc(C)cc(CCCCCCC[100CH2:0][100C:0](=O)N4CCCC(n5nc(-c6ccc(Oc7ccc(F)cc7F)cc6)c(C(N)=O)c5N)C4)c3)ccc2CC1C(=O)NC1CCCc2ccccc21)C(C)(C)C

> <Shape>
0.192

> <Color>
0.087

> <Negative vol penalty>
0.000

$$$$

  -OEChem-04052317013D

 84 92  0     1  0  0  0  0  0999 V2000
  -17.3840  -31.2437   24.0909 C   0  0  0  0  0  0  0  0  0  0  0  0
  -18.5443  -31.0448   24.8321 C   0  0  0  0  0  0  0  0  0  0  0  0
  -24.9936  -13.4833   19.4783 C   0  0  0  0  0  0  0  0  0  0  0  0
  -26.0743  -13.5872   21.6366 C   0  0  0  0  0  0  0  0  0  0  0  0
  -17.0934  -30.4060   23.0149 C   0  0  0  0  0  0  0  0  0  0  0  0
  -19.4143  -30.0074   24.4984 C   0  0  0  0  0  0  0  0  0  0  0  0
  -25.5215  -30.0341   24.9535 C   0  0  0  0  0  0  0  0  0  0  0  0
  -24.8878  -12.0976   19.5979 C   0  0  0  0  0  0  0  0  0  0  0  0
  -25.9684  -12.2015   21.7563 C   0  0  0  0  0  0  0  0  0  0  0  0
  -26.3924  -29.5305   25.9187 C   0  0  0  0  0  0  0  0  0  0  0  0
  -25.6583   -8.7300   22.7912 C   0  0  0  0  0  0  0  0  0  0  0  0
  -25.2227   -8.2152   24.0122 C   0  0  0  0  0  0  0  0  0  0  0  0
  -26.6807  -27.5279   24.6051 C   0  0  0  0  0  0  0  0  0  0  0  0
  -31.6878  -28.4793   26.1975 C   0  0  0  0  0  0  0  0  0  0  0  0
  -30.6025  -26.3335   26.2467 C   0  0  0  0  0  0  0  0  0  0  0  0
  -23.1469   -9.4301   23.7838 C   0  0  0  0  0  0  0  0  0  0  0  0
  -25.5869  -14.2281   20.4976 C   0  0  0  0  0  0  0  0  0  0  0  0
  -24.7620  -16.6235   20.7963 C   0  0  0  0  0  0  0  0  0  0  0  0
  -17.9651  -29.3638   22.6618 C   0  0  0  0  0  0  0  0  0  0  0  0
  -25.2147  -29.2825   23.8101 C   0  0  0  0  0  0  0  0  0  0  0  0
  -19.1344  -29.1542   23.4175 C   0  0  0  0  0  0  0  0  0  0  0  0
  -25.8076  -28.0253   23.6256 C   0  0  0  0  0  0  0  0  0  0  0  0
  -30.7463  -27.6204   26.7534 C   0  0  0  0  0  0  0  0  0  0  0  0
  -25.3752  -11.4567   20.7369 C   0  0  0  0  0  0  0  0  0  0  0  0
  -26.9699  -28.2760   25.7461 C   0  0  0  0  0  0  0  0  0  0  0  0
  -24.8382   -9.5950   22.0666 C   0  0  0  0  0  0  0  0  0  0  0  0
  -23.9670   -8.5652   24.5085 C   0  0  0  0  0  0  0  0  0  0  0  0
  -23.5825   -9.9449   22.5629 C   0  0  0  0  0  0  0  0  0  0  0  0
  -25.6971  -15.6594   20.3743 C   0  0  0  0  0  0  0  0  0  0  0  0
  -32.4548  -28.0069   25.1447 C   0  0  0  0  0  0  0  0  0  0  0  0
  -31.4180  -25.9573   25.1916 C   0  0  0  0  0  0  0  0  0  0  0  0
  -25.3308  -17.8261   20.4546 C   0  0  0  0  0  0  0  0  0  0  0  0
  -23.4929  -16.4476   21.4397 C   0  0  0  0  0  0  0  0  0  0  0  0
  -22.5573  -28.0320   22.5943 C   0  0  0  0  0  0  0  0  0  0  0  0
  -24.5035  -27.3055   20.1029 C   0  0  0  0  0  0  0  0  0  0  0  0
  -27.6706  -26.7161   18.9766 C   0  0  0  0  0  0  0  0  0  0  0  0
  -29.7501  -21.2255   20.2123 C   0  0  0  0  0  0  0  0  0  0  0  0
  -17.5849  -28.4549   21.5199 C   0  0  0  0  0  0  0  0  0  0  0  0
  -24.2942  -29.8513   22.7653 C   0  0  0  0  0  0  0  0  0  0  0  0
  -25.5267  -27.1873   22.4060 C   0  0  0  0  0  0  0  0  0  0  0  0
  -18.7464  -27.6119   20.9998 C   0  0  0  0  0  0  0  0  0  0  0  0
  -29.3596  -18.8632   17.5772 C   0  0  0  0  0  0  0  0  0  0  0  0
  -19.5096  -26.9808   22.1600 C   0  0  0  0  0  0  0  0  0  0  0  0
  -28.2999  -17.8958   18.1073 C   0  0  0  0  0  0  0  0  0  0  0  0
  -30.2879  -19.3478   18.6887 C   0  0  0  0  0  0  0  0  0  0  0  0
  -28.5433  -18.9651   20.3868 C   0  0  0  0  0  0  0  0  0  0  0  0
  -20.1154  -28.0551   23.0712 C   0  0  1  0  0  0  0  0  0  0  0  0
  -23.6519  -28.7809   21.8882 C   0  0  1  0  0  0  0  0  0  0  0  0
  -27.5487  -18.4924   19.3127 C   0  0  2  0  0  0  0  0  0  0  0  0
  -33.4764  -28.9004   24.5244 C   0  0  0  0  0  0  0  0  0  0  0  0
  -28.9419  -26.1102   16.8996 C   0  0  0  0  0  0  0  0  0  0  0  0
  -23.5632  -24.4154   20.3735 C   0  0  0  0  0  0  0  0  0  0  0  0
  -25.5144  -23.7221   18.9662 C   0  0  0  0  0  0  0  0  0  0  0  0
  -23.7679  -25.2296   18.0177 C   0  0  0  0  0  0  0  0  0  0  0  0
  -29.2232  -29.2346   19.0525 C   0  0  0  0  0  0  0  0  0  0  0  0
  -29.8844  -28.0827   27.9031 C   0  0  0  0  0  0  0  0  0  0  0  0
  -31.2894  -24.5842   24.6217 C   0  0  0  0  0  0  0  0  0  0  0  0
  -30.2641  -24.5232   23.4791 C   0  0  0  0  0  0  0  0  0  0  0  0
  -30.1144  -23.1020   22.9281 C   0  0  0  0  0  0  0  0  0  0  0  0
  -29.0910  -23.0150   21.8006 C   0  0  0  0  0  0  0  0  0  0  0  0
  -28.5859  -28.7280   27.4313 C   0  0  0  0  0  0  0  0  0  1  0  0
  -25.3832  -26.1336   19.7399 C   0  0  1  0  0  0  0  0  0  0  0  0
  -28.4255  -27.2450   17.7704 C   0  0  2  0  0  0  0  0  0  0  0  0
  -24.5611  -24.8899   19.2984 C   0  0  0  0  0  0  0  0  0  0  0  0
  -26.7777  -16.2027   19.8076 N   0  0  0  0  0  0  0  0  0  0  0  0
  -32.3438  -26.7636   24.6256 N   0  0  0  0  0  0  0  0  0  0  0  0
  -26.5252  -17.5211   19.8711 N   0  0  0  0  0  0  0  0  0  0  0  0
  -24.6152  -27.7843   21.4159 N   0  0  0  0  0  0  0  0  0  0  0  0
  -29.5131  -19.9036   19.8008 N   0  0  0  0  0  0  0  0  0  0  0  0
  -24.9206  -19.1041   20.5992 N   0  0  0  0  0  0  0  0  0  0  0  0
  -23.0599  -15.1441   21.7184 N   0  0  0  0  0  0  0  0  0  0  0  0
  -21.3091  -28.6119   22.4716 N   0  0  0  0  0  0  0  0  0  0  0  0
  -26.3171  -26.6215   18.7309 N   0  0  0  0  0  0  0  0  0  0  0  0
  -28.9681  -21.6759   21.2689 N   0  0  0  0  0  0  0  0  0  0  0  0
  -29.5881  -28.0687   18.2072 N   0  3  0  0  0  0  0  0  0  0  0  0
  -22.7569  -17.4170   21.7433 O   0  0  0  0  0  0  0  0  0  0  0  0
  -22.8250  -27.0032   23.2039 O   0  0  0  0  0  0  0  0  0  0  0  0
  -23.7502  -27.7831   19.2507 O   0  0  0  0  0  0  0  0  0  0  0  0
  -28.2266  -26.4135   20.0301 O   0  0  0  0  0  0  0  0  0  0  0  0
  -30.5921  -21.9524   19.6742 O   0  0  0  0  0  0  0  0  0  0  0  0
  -25.2718  -10.1046   20.8542 O   0  0  0  0  0  0  0  0  0  0  0  0
  -27.8197  -27.7818   26.6870 O   0  0  0  0  0  0  0  0  0  1  0  0
  -23.5482   -8.0695   25.6803 F   0  0  0  0  0  0  0  0  0  0  0  0
  -22.7897  -10.7745   21.8706 F   0  0  0  0  0  0  0  0  0  0  0  0
  1  2  1  0  0  0  0
  1  5  2  0  0  0  0
  2  6  2  0  0  0  0
  3  8  2  0  0  0  0
  3 17  1  0  0  0  0
  4  9  1  0  0  0  0
  4 17  2  0  0  0  0
  5 19  1  0  0  0  0
  6 21  1  0  0  0  0
  7 10  2  0  0  0  0
  7 20  1  0  0  0  0
  8 24  1  0  0  0  0
  9 24  2  0  0  0  0
 10 25  1  0  0  0  0
 11 12  2  0  0  0  0
 11 26  1  0  0  0  0
 12 27  1  0  0  0  0
 13 22  1  0  0  0  0
 13 25  2  0  0  0  0
 14 23  1  0  0  0  0
 14 30  2  0  0  0  0
 15 23  2  0  0  0  0
 15 31  1  0  0  0  0
 16 27  2  0  0  0  0
 16 28  1  0  0  0  0
 17 29  1  0  0  0  0
 18 29  1  0  0  0  0
 18 32  2  0  0  0  0
 18 33  1  0  0  0  0
 19 21  2  0  0  0  0
 19 38  1  0  0  0  0
 20 22  2  0  0  0  0
 20 39  1  0  0  0  0
 21 47  1  0  0  0  0
 22 40  1  0  0  0  0
 23 56  1  0  0  0  0
 24 81  1  0  0  0  0
 25 82  1  0  0  0  0
 26 28  2  0  0  0  0
 26 81  1  0  0  0  0
 27 83  1  0  0  0  0
 28 84  1  0  0  0  0
 29 65  2  0  0  0  0
 30 50  1  0  0  0  0
 30 66  1  0  0  0  0
 31 57  1  0  0  0  0
 31 66  2  0  0  0  0
 32 67  1  0  0  0  0
 32 70  1  0  0  0  0
 33 71  1  0  0  0  0
 33 76  2  0  0  0  0
 34 48  1  0  0  0  0
 34 72  1  0  0  0  0
 34 77  2  0  0  0  0
 35 62  1  0  0  0  0
 35 68  1  0  0  0  0
 35 78  2  0  0  0  0
 36 63  1  0  0  0  0
 36 73  1  0  0  0  0
 36 79  2  0  0  0  0
 37 69  1  0  0  0  0
 37 74  1  0  0  0  0
 37 80  2  0  0  0  0
 38 41  1  0  0  0  0
 39 48  1  0  0  0  0
 40 68  1  0  0  0  0
 41 43  1  0  0  0  0
 42 44  1  0  0  0  0
 42 45  1  0  0  0  0
 43 47  1  0  0  0  0
 44 49  1  0  0  0  0
 45 69  1  0  0  0  0
 46 49  1  0  0  0  0
 46 69  1  0  0  0  0
 47 72  1  0  0  0  0
 48 68  1  0  0  0  0
 49 67  1  0  0  0  0
 51 63  1  0  0  0  0
 52 64  1  0  0  0  0
 53 64  1  0  0  0  0
 54 64  1  0  0  0  0
 55 75  1  0  0  0  0
 56 61  1  0  0  0  0
 57 58  1  0  0  0  0
 58 59  1  0  0  0  0
 59 60  1  0  0  0  0
 60 74  1  0  0  0  0
 61 82  1  0  0  0  0
 62 64  1  0  0  0  0
 62 73  1  0  0  0  0
 63 75  1  0  0  0  0
 65 67  1  0  0  0  0
M  CHG  1  75   1
M  ISO  4  37 100  61 101  74 100  82 101
M  END
> <Batch ID>
0038

> <Smiles>
CNC(C)C(=O)NC(C(=O)N1Cc2cc([101O:1][101CH2:1]Cc3cc(C)nc(CCCC[100NH:0][100C:0](=O)N4CCCC(n5nc(-c6ccc(Oc7ccc(F)cc7F)cc6)c(C(N)=O)c5N)C4)c3)ccc2CC1C(=O)NC1CCCc2ccccc21)C(C)(C)C

> <Shape>
0.225

> <Color>
0.066

> <Negative vol penalty>
0.000

$$$$

  -OEChem-04052317013D

 87 96  0     1  0  0  0  0  0999 V2000
  -15.4446  -28.9018   19.6460 C   0  0  0  0  0  0  0  0  0  0  0  0
  -16.7053  -28.7614   19.0748 C   0  0  0  0  0  0  0  0  0  0  0  0
  -22.9773   -9.9966   19.9989 C   0  0  0  0  0  0  0  0  0  0  0  0
  -23.7639   -9.9886   22.2832 C   0  0  0  0  0  0  0  0  0  0  0  0
  -15.2709  -28.6820   21.0118 C   0  0  0  0  0  0  0  0  0  0  0  0
  -17.7934  -28.4022   19.8694 C   0  0  0  0  0  0  0  0  0  0  0  0
  -22.5489  -24.9054   18.2371 C   0  0  0  0  0  0  0  0  0  0  0  0
  -22.2052   -8.8648   20.2608 C   0  0  0  0  0  0  0  0  0  0  0  0
  -22.9918   -8.8568   22.5452 C   0  0  0  0  0  0  0  0  0  0  0  0
  -23.8405  -25.2165   17.8145 C   0  0  0  0  0  0  0  0  0  0  0  0
  -23.1855   -5.5268   21.9939 C   0  0  0  0  0  0  0  0  0  0  0  0
  -23.7812   -4.4869   22.7076 C   0  0  0  0  0  0  0  0  0  0  0  0
  -24.6409  -24.9338   20.0726 C   0  0  0  0  0  0  0  0  0  0  0  0
  -31.6309  -18.3350   19.9922 C   0  0  0  0  0  0  0  0  0  0  0  0
  -22.1053   -4.7112   24.4333 C   0  0  0  0  0  0  0  0  0  0  0  0
  -29.4703  -18.6323   20.9410 C   0  0  0  0  0  0  0  0  0  0  0  0
  -23.7567  -10.5585   21.0101 C   0  0  0  0  0  0  0  0  0  0  0  0
  -24.1658  -13.0730   20.8789 C   0  0  0  0  0  0  0  0  0  0  0  0
  -16.3556  -28.3106   21.8218 C   0  0  0  0  0  0  0  0  0  0  0  0
  -22.2912  -24.6164   19.5849 C   0  0  0  0  0  0  0  0  0  0  0  0
  -17.6344  -28.1786   21.2476 C   0  0  0  0  0  0  0  0  0  0  0  0
  -23.3455  -24.6168   20.5092 C   0  0  0  0  0  0  0  0  0  0  0  0
  -30.6708  -17.9409   20.9175 C   0  0  0  0  0  0  0  0  0  0  0  0
  -31.3649  -19.3936   19.1308 C   0  0  0  0  0  0  0  0  0  0  0  0
  -22.2125   -8.2950   21.5339 C   0  0  0  0  0  0  0  0  0  0  0  0
  -24.8863  -25.2336   18.7328 C   0  0  0  0  0  0  0  0  0  0  0  0
  -22.0497   -6.1590   22.5000 C   0  0  0  0  0  0  0  0  0  0  0  0
  -23.2411   -4.0790   23.9273 C   0  0  0  0  0  0  0  0  0  0  0  0
  -21.5096   -5.7511   23.7197 C   0  0  0  0  0  0  0  0  0  0  0  0
  -24.5549  -11.7273   20.7400 C   0  0  0  0  0  0  0  0  0  0  0  0
  -30.1332  -20.0199   19.2341 C   0  0  0  0  0  0  0  0  0  0  0  0
  -25.2737  -13.7915   20.5008 C   0  0  0  0  0  0  0  0  0  0  0  0
  -22.9149  -13.6244   21.3112 C   0  0  0  0  0  0  0  0  0  0  0  0
  -20.5054  -25.9347   21.8601 C   0  0  0  0  0  0  0  0  0  0  0  0
  -21.4213  -23.3220   23.5505 C   0  0  0  0  0  0  0  0  0  0  0  0
  -23.6981  -20.8221   24.0126 C   0  0  0  0  0  0  0  0  0  0  0  0
  -30.7850  -14.6609   20.6222 C   0  0  0  0  0  0  0  0  0  0  0  0
  -16.1281  -28.1299   23.3017 C   0  0  0  0  0  0  0  0  0  0  0  0
  -20.8970  -24.2566   20.0199 C   0  0  0  0  0  0  0  0  0  0  0  0
  -23.1252  -24.2938   21.9637 C   0  0  0  0  0  0  0  0  0  0  0  0
  -17.2605  -27.3868   24.0058 C   0  0  0  0  0  0  0  0  0  0  0  0
  -29.5548  -12.3023   18.2557 C   0  0  0  0  0  0  0  0  0  0  0  0
  -18.6134  -27.9470   23.5786 C   0  0  0  0  0  0  0  0  0  0  0  0
  -30.2518  -22.4886   18.9633 C   0  0  0  0  0  0  0  0  0  0  0  0
  -28.2795  -21.1837   18.0548 C   0  0  0  0  0  0  0  0  0  0  0  0
  -29.8534  -23.6856   18.1005 C   0  0  0  0  0  0  0  0  0  0  0  0
  -27.8858  -22.3838   17.1941 C   0  0  0  0  0  0  0  0  0  0  0  0
  -28.1151  -12.0491   18.7062 C   0  0  0  0  0  0  0  0  0  0  0  0
  -30.4917  -12.5011   19.4452 C   0  0  0  0  0  0  0  0  0  0  0  0
  -28.6270  -13.2873   20.8518 C   0  0  0  0  0  0  0  0  0  0  0  0
  -18.8346  -27.7662   22.0720 C   0  0  1  0  0  0  0  0  0  0  0  0
  -29.7918  -21.1632   18.3334 C   0  0  0  0  0  0  0  0  0  0  0  0
  -20.6592  -24.4816   21.5099 C   0  0  1  0  0  0  0  0  0  0  0  0
  -28.3449  -23.7066   17.8213 C   0  0  0  0  0  0  0  0  0  0  0  0
  -27.6347  -13.1364   19.6861 C   0  0  2  0  0  0  0  0  0  0  0  0
  -32.3898  -19.8222   18.1382 C   0  0  0  0  0  0  0  0  0  0  0  0
  -24.1973  -18.8622   25.4983 C   0  0  0  0  0  0  0  0  0  0  0  0
  -22.3734  -25.2252   25.7371 C   0  0  0  0  0  0  0  0  0  0  0  0
  -23.6847  -23.3312   26.7178 C   0  0  0  0  0  0  0  0  0  0  0  0
  -21.1989  -23.1811   26.5719 C   0  0  0  0  0  0  0  0  0  0  0  0
  -23.5381  -18.9193   21.7515 C   0  0  0  0  0  0  0  0  0  0  0  0
  -30.9240  -16.8120   21.8521 C   0  0  0  0  0  0  0  0  0  0  0  0
  -27.9824  -24.8777   16.9258 C   0  0  0  0  0  0  0  0  0  0  0  0
  -26.4958  -25.1943   16.9824 C   0  0  0  0  0  0  0  0  0  1  0  0
  -22.5782  -22.9897   24.4616 C   0  0  1  0  0  0  0  0  0  0  0  0
  -23.5257  -19.3276   24.2156 C   0  0  2  0  0  0  0  0  0  0  0  0
  -22.4629  -23.6898   25.8451 C   0  0  0  0  0  0  0  0  0  0  0  0
  -29.1757  -19.6653   20.1203 N   0  0  0  0  0  0  0  0  0  0  0  0
  -25.8116  -11.5959   20.3073 N   0  0  0  0  0  0  0  0  0  0  0  0
  -26.2219  -12.8684   20.1709 N   0  0  0  0  0  0  0  0  0  0  0  0
  -21.7432  -23.9545   22.3413 N   0  0  0  0  0  0  0  0  0  0  0  0
  -29.9798  -13.5465   20.3346 N   0  0  0  0  0  0  0  0  0  0  0  0
  -25.5194  -15.1165   20.4215 N   0  0  0  0  0  0  0  0  0  0  0  0
  -21.8826  -12.7441   21.6628 N   0  0  0  0  0  0  0  0  0  0  0  0
  -19.2067  -26.3992   21.7763 N   0  0  0  0  0  0  0  0  0  0  0  0
  -22.6373  -21.5337   24.5319 N   0  0  0  0  0  0  0  0  0  0  0  0
  -30.2213  -15.6079   21.4686 N   0  0  0  0  0  0  0  0  0  0  0  0
  -24.1220  -18.5776   23.0741 N   0  3  0  0  0  0  0  0  0  0  0  0
  -22.7130  -14.8612   21.3677 O   0  0  0  0  0  0  0  0  0  0  0  0
  -21.4917  -26.5858   22.1840 O   0  0  0  0  0  0  0  0  0  0  0  0
  -20.2749  -23.0247   23.8956 O   0  0  0  0  0  0  0  0  0  0  0  0
  -24.6776  -21.3097   23.4529 O   0  0  0  0  0  0  0  0  0  0  0  0
  -31.9199  -14.8042   20.1549 O   0  0  0  0  0  0  0  0  0  0  0  0
  -21.4590   -7.1907   21.7899 O   0  0  0  0  0  0  0  0  0  0  0  0
  -26.1479  -25.5375   18.3231 O   0  0  0  0  0  0  0  0  0  1  0  0
  -23.8124   -3.0793   24.6117 F   0  0  0  0  0  0  0  0  0  0  0  0
  -20.4180   -6.3539   24.2104 F   0  0  0  0  0  0  0  0  0  0  0  0
  1  2  1  0  0  0  0
  1  5  2  0  0  0  0
  2  6  2  0  0  0  0
  3  8  2  0  0  0  0
  3 17  1  0  0  0  0
  4  9  1  0  0  0  0
  4 17  2  0  0  0  0
  5 19  1  0  0  0  0
  6 21  1  0  0  0  0
  7 10  2  0  0  0  0
  7 20  1  0  0  0  0
  8 25  1  0  0  0  0
  9 25  2  0  0  0  0
 10 26  1  0  0  0  0
 11 12  2  0  0  0  0
 11 27  1  0  0  0  0
 12 28  1  0  0  0  0
 13 22  1  0  0  0  0
 13 26  2  0  0  0  0
 14 23  2  0  0  0  0
 14 24  1  0  0  0  0
 15 28  2  0  0  0  0
 15 29  1  0  0  0  0
 16 23  1  0  0  0  0
 16 68  2  0  0  0  0
 17 30  1  0  0  0  0
 18 30  1  0  0  0  0
 18 32  2  0  0  0  0
 18 33  1  0  0  0  0
 19 21  2  0  0  0  0
 19 38  1  0  0  0  0
 20 22  2  0  0  0  0
 20 39  1  0  0  0  0
 21 51  1  0  0  0  0
 22 40  1  0  0  0  0
 23 62  1  0  0  0  0
 24 31  2  0  0  0  0
 24 56  1  0  0  0  0
 25 84  1  0  0  0  0
 26 85  1  0  0  0  0
 27 29  2  0  0  0  0
 27 84  1  0  0  0  0
 28 86  1  0  0  0  0
 29 87  1  0  0  0  0
 30 69  2  0  0  0  0
 31 52  1  0  0  0  0
 31 68  1  0  0  0  0
 32 70  1  0  0  0  0
 32 73  1  0  0  0  0
 33 74  1  0  0  0  0
 33 79  2  0  0  0  0
 34 53  1  0  0  0  0
 34 75  1  0  0  0  0
 34 80  2  0  0  0  0
 35 65  1  0  0  0  0
 35 71  1  0  0  0  0
 35 81  2  0  0  0  0
 36 66  1  0  0  0  0
 36 76  1  0  0  0  0
 36 82  2  0  0  0  0
 37 72  1  0  0  0  0
 37 77  1  0  0  0  0
 37 83  2  0  0  0  0
 38 41  1  0  0  0  0
 39 53  1  0  0  0  0
 40 71  1  0  0  0  0
 41 43  1  0  0  0  0
 42 48  1  0  0  0  0
 42 49  1  0  0  0  0
 43 51  1  0  0  0  0
 44 46  1  0  0  0  0
 44 52  1  0  0  0  0
 45 47  1  0  0  0  0
 45 52  1  0  0  0  0
 46 54  1  0  0  0  0
 47 54  1  0  0  0  0
 48 55  1  0  0  0  0
 49 72  1  0  0  0  0
 50 55  1  0  0  0  0
 50 72  1  0  0  0  0
 51 75  1  0  0  0  0
 53 71  1  0  0  0  0
 54 63  1  0  0  0  0
 55 70  1  0  0  0  0
 57 66  1  0  0  0  0
 58 67  1  0  0  0  0
 59 67  1  0  0  0  0
 60 67  1  0  0  0  0
 61 78  1  0  0  0  0
 62 77  1  0  0  0  0
 63 64  1  0  0  0  0
 64 85  1  0  0  0  0
 65 67  1  0  0  0  0
 65 76  1  0  0  0  0
 66 78  1  0  0  0  0
 69 70  1  0  0  0  0
M  CHG  1  78   1
M  ISO  4  37 100  64 101  77 100  85 101
M  END
> <Batch ID>
0038

> <Smiles>
CNC(C)C(=O)NC(C(=O)N1Cc2cc([101O:1][101CH2:1]CC3CCC(c4ncc(C[100NH:0][100C:0](=O)N5CCCC(n6nc(-c7ccc(Oc8ccc(F)cc8F)cc7)c(C(N)=O)c6N)C5)cc4C)CC3)ccc2CC1C(=O)NC1CCCc2ccccc21)C(C)(C)C

> <Shape>
0.274

> <Color>
0.212

> <Negative vol penalty>
0.000

$$$$

  -OEChem-04052317013D

 81 89  0     1  0  0  0  0  0999 V2000
  -18.2807  -28.4275   22.8861 C   0  0  0  0  0  0  0  0  0  0  0  0
  -18.1448  -27.2090   22.2288 C   0  0  0  0  0  0  0  0  0  0  0  0
  -31.1632  -19.6088   18.3573 C   0  0  0  0  0  0  0  0  0  0  0  0
  -29.0161  -20.2463   19.2631 C   0  0  0  0  0  0  0  0  0  0  0  0
  -19.5465  -28.8836   23.2517 C   0  0  0  0  0  0  0  0  0  0  0  0
  -19.2748  -26.4463   21.9357 C   0  0  0  0  0  0  0  0  0  0  0  0
  -19.6825  -20.3359   21.8929 C   0  0  0  0  0  0  0  0  0  0  0  0
  -31.1131  -20.6901   17.4776 C   0  0  0  0  0  0  0  0  0  0  0  0
  -28.9660  -21.3277   18.3834 C   0  0  0  0  0  0  0  0  0  0  0  0
  -19.6307  -19.3995   20.8612 C   0  0  0  0  0  0  0  0  0  0  0  0
  -28.4390  -24.4653   16.6239 C   0  0  0  0  0  0  0  0  0  0  0  0
  -28.0378  -25.6997   17.1346 C   0  0  0  0  0  0  0  0  0  0  0  0
  -22.0410  -19.3795   20.7665 C   0  0  0  0  0  0  0  0  0  0  0  0
  -22.8867  -13.4481   19.3621 C   0  0  0  0  0  0  0  0  0  0  0  0
  -29.8947  -25.6639   18.6799 C   0  0  0  0  0  0  0  0  0  0  0  0
  -22.5018  -14.9505   21.1652 C   0  0  0  0  0  0  0  0  0  0  0  0
  -30.1146  -19.3869   19.2500 C   0  0  0  0  0  0  0  0  0  0  0  0
  -30.7086  -18.2543   21.4573 C   0  0  0  0  0  0  0  0  0  0  0  0
  -20.6917  -28.1216   22.9716 C   0  0  0  0  0  0  0  0  0  0  0  0
  -20.9158  -20.8100   22.3625 C   0  0  0  0  0  0  0  0  0  0  0  0
  -20.5572  -26.8933   22.2967 C   0  0  0  0  0  0  0  0  0  0  0  0
  -22.1058  -20.3199   21.8060 C   0  0  0  0  0  0  0  0  0  0  0  0
  -23.2258  -13.8952   20.6342 C   0  0  0  0  0  0  0  0  0  0  0  0
  -21.8486  -14.0613   18.6695 C   0  0  0  0  0  0  0  0  0  0  0  0
  -30.0146  -21.5496   17.4907 C   0  0  0  0  0  0  0  0  0  0  0  0
  -20.8100  -18.9234   20.2958 C   0  0  0  0  0  0  0  0  0  0  0  0
  -29.5680  -23.8301   17.1412 C   0  0  0  0  0  0  0  0  0  0  0  0
  -28.7656  -26.2990   18.1626 C   0  0  0  0  0  0  0  0  0  0  0  0
  -30.2959  -24.4294   18.1692 C   0  0  0  0  0  0  0  0  0  0  0  0
  -30.1655  -18.2697   20.1586 C   0  0  0  0  0  0  0  0  0  0  0  0
  -21.1861  -15.1090   19.2885 C   0  0  0  0  0  0  0  0  0  0  0  0
  -30.5111  -16.9680   21.8967 C   0  0  0  0  0  0  0  0  0  0  0  0
  -31.3354  -19.3083   22.2000 C   0  0  0  0  0  0  0  0  0  0  0  0
  -22.3279  -23.6554   22.4795 C   0  0  0  0  0  0  0  0  0  0  0  0
  -24.5749  -22.0370   24.1689 C   0  0  0  0  0  0  0  0  0  0  0  0
  -26.0609  -19.0520   24.8960 C   0  0  0  0  0  0  0  0  0  0  0  0
  -26.5512  -12.7220   20.4334 C   0  0  0  0  0  0  0  0  0  0  0  0
  -22.0431  -28.6782   23.3442 C   0  0  0  0  0  0  0  0  0  0  0  0
  -20.9553  -21.8000   23.4942 C   0  0  0  0  0  0  0  0  0  0  0  0
  -23.4559  -20.7818   22.2880 C   0  0  0  0  0  0  0  0  0  0  0  0
  -23.1566  -27.6341   23.3306 C   0  0  0  0  0  0  0  0  0  0  0  0
  -30.1004  -12.4820   20.2849 C   0  0  0  0  0  0  0  0  0  0  0  0
  -23.0830  -26.7917   22.0610 C   0  0  0  0  0  0  0  0  0  0  0  0
  -30.5686  -13.9367   20.3529 C   0  0  0  0  0  0  0  0  0  0  0  0
  -28.8076  -12.3420   19.4843 C   0  0  0  0  0  0  0  0  0  0  0  0
  -28.1723  -14.6665   20.0007 C   0  0  0  0  0  0  0  0  0  0  0  0
  -21.7569  -26.0257   21.9833 C   0  0  1  0  0  0  0  0  0  0  0  0
  -22.2543  -22.5982   23.5448 C   0  0  1  0  0  0  0  0  0  0  0  0
  -29.4426  -14.8657   20.8452 C   0  0  2  0  0  0  0  0  0  0  0  0
  -21.4813  -13.5883   17.3054 C   0  0  0  0  0  0  0  0  0  0  0  0
  -27.8946  -18.0514   26.2865 C   0  0  0  0  0  0  0  0  0  0  0  0
  -26.6483  -23.1213   22.2105 C   0  0  0  0  0  0  0  0  0  0  0  0
  -28.2428  -21.3795   23.0424 C   0  0  0  0  0  0  0  0  0  0  0  0
  -27.3741  -23.1203   24.6038 C   0  0  0  0  0  0  0  0  0  0  0  0
  -24.1572  -17.3462   26.3876 C   0  0  0  0  0  0  0  0  0  0  0  0
  -24.3304  -13.2602   21.4015 C   0  0  0  0  0  0  0  0  0  0  0  0
  -20.0505  -15.8119   18.5851 C   0  0  0  0  0  0  0  0  0  0  0  0
  -19.6542  -17.1107   19.2787 C   0  0  0  0  0  0  0  0  0  1  0  0
  -25.8316  -21.2762   23.8213 C   0  0  1  0  0  0  0  0  0  0  0  0
  -26.4157  -18.3995   26.2199 C   0  0  2  0  0  0  0  0  0  0  0  0
  -26.9989  -22.2169   23.4089 C   0  0  0  0  0  0  0  0  0  0  0  0
  -21.4870  -15.5711   20.5228 N   0  0  0  0  0  0  0  0  0  0  0  0
  -29.6610  -17.0872   19.7965 N   0  0  0  0  0  0  0  0  0  0  0  0
  -29.8864  -16.3166   20.8742 N   0  0  0  0  0  0  0  0  0  0  0  0
  -23.4420  -21.7553   23.3925 N   0  0  0  0  0  0  0  0  0  0  0  0
  -27.7802  -13.2484   20.0028 N   0  0  0  0  0  0  0  0  0  0  0  0
  -30.8127  -16.3420   23.0541 N   0  0  0  0  0  0  0  0  0  0  0  0
  -31.4568  -20.5686   21.5989 N   0  0  0  0  0  0  0  0  0  0  0  0
  -21.7884  -24.8709   22.8550 N   0  0  0  0  0  0  0  0  0  0  0  0
  -26.1260  -20.4273   24.9707 N   0  0  0  0  0  0  0  0  0  0  0  0
  -25.6359  -13.6491   20.9165 N   0  0  0  0  0  0  0  0  0  0  0  0
  -25.6293  -17.1476   26.4076 N   0  3  0  0  0  0  0  0  0  0  0  0
  -31.7896  -19.1333   23.3562 O   0  0  0  0  0  0  0  0  0  0  0  0
  -22.8376  -23.3884   21.3976 O   0  0  0  0  0  0  0  0  0  0  0  0
  -24.5957  -22.8461   25.0998 O   0  0  0  0  0  0  0  0  0  0  0  0
  -25.7599  -18.4062   23.8945 O   0  0  0  0  0  0  0  0  0  0  0  0
  -26.2910  -11.5146   20.3953 O   0  0  0  0  0  0  0  0  0  0  0  0
  -29.9655  -22.6050   16.6326 O   0  0  0  0  0  0  0  0  0  0  0  0
  -20.7623  -18.0099   19.2883 O   0  0  0  0  0  0  0  0  0  1  0  0
  -28.3811  -27.4851   18.6519 F   0  0  0  0  0  0  0  0  0  0  0  0
  -31.3820  -23.8246   18.6694 F   0  0  0  0  0  0  0  0  0  0  0  0
  1  2  1  0  0  0  0
  1  5  2  0  0  0  0
  2  6  2  0  0  0  0
  3  8  2  0  0  0  0
  3 17  1  0  0  0  0
  4  9  1  0  0  0  0
  4 17  2  0  0  0  0
  5 19  1  0  0  0  0
  6 21  1  0  0  0  0
  7 10  2  0  0  0  0
  7 20  1  0  0  0  0
  8 25  1  0  0  0  0
  9 25  2  0  0  0  0
 10 26  1  0  0  0  0
 11 12  2  0  0  0  0
 11 27  1  0  0  0  0
 12 28  1  0  0  0  0
 13 22  1  0  0  0  0
 13 26  2  0  0  0  0
 14 23  2  0  0  0  0
 14 24  1  0  0  0  0
 15 28  2  0  0  0  0
 15 29  1  0  0  0  0
 16 23  1  0  0  0  0
 16 62  2  0  0  0  0
 17 30  1  0  0  0  0
 18 30  1  0  0  0  0
 18 32  2  0  0  0  0
 18 33  1  0  0  0  0
 19 21  2  0  0  0  0
 19 38  1  0  0  0  0
 20 22  2  0  0  0  0
 20 39  1  0  0  0  0
 21 47  1  0  0  0  0
 22 40  1  0  0  0  0
 23 56  1  0  0  0  0
 24 31  2  0  0  0  0
 24 50  1  0  0  0  0
 25 78  1  0  0  0  0
 26 79  1  0  0  0  0
 27 29  2  0  0  0  0
 27 78  1  0  0  0  0
 28 80  1  0  0  0  0
 29 81  1  0  0  0  0
 30 63  2  0  0  0  0
 31 57  1  0  0  0  0
 31 62  1  0  0  0  0
 32 64  1  0  0  0  0
 32 67  1  0  0  0  0
 33 68  1  0  0  0  0
 33 73  2  0  0  0  0
 34 48  1  0  0  0  0
 34 69  1  0  0  0  0
 34 74  2  0  0  0  0
 35 59  1  0  0  0  0
 35 65  1  0  0  0  0
 35 75  2  0  0  0  0
 36 60  1  0  0  0  0
 36 70  1  0  0  0  0
 36 76  2  0  0  0  0
 37 66  1  0  0  0  0
 37 71  1  0  0  0  0
 37 77  2  0  0  0  0
 38 41  1  0  0  0  0
 39 48  1  0  0  0  0
 40 65  1  0  0  0  0
 41 43  1  0  0  0  0
 42 44  1  0  0  0  0
 42 45  1  0  0  0  0
 43 47  1  0  0  0  0
 44 49  1  0  0  0  0
 45 66  1  0  0  0  0
 46 49  1  0  0  0  0
 46 66  1  0  0  0  0
 47 69  1  0  0  0  0
 48 65  1  0  0  0  0
 49 64  1  0  0  0  0
 51 60  1  0  0  0  0
 52 61  1  0  0  0  0
 53 61  1  0  0  0  0
 54 61  1  0  0  0  0
 55 72  1  0  0  0  0
 56 71  1  0  0  0  0
 57 58  1  0  0  0  0
 58 79  1  0  0  0  0
 59 61  1  0  0  0  0
 59 70  1  0  0  0  0
 60 72  1  0  0  0  0
 63 64  1  0  0  0  0
M  CHG  1  72   1
M  ISO  4  37 100  58 101  71 100  79 101
M  END
> <Batch ID>
0038

> <Smiles>
CNC(C)C(=O)NC(C(=O)N1Cc2cc([101O:1][101CH2:1]Cc3ncc(C[100NH:0][100C:0](=O)N4CCCC(n5nc(-c6ccc(Oc7ccc(F)cc7F)cc6)c(C(N)=O)c5N)C4)cc3C)ccc2CC1C(=O)NC1CCCc2ccccc21)C(C)(C)C

> <Shape>
0.203

> <Color>
0.054

> <Negative vol penalty>
0.000

$$$$

  -OEChem-04052317013D

 82 90  0     1  0  0  0  0  0999 V2000
  -17.5188  -31.9633   24.1128 C   0  0  0  0  0  0  0  0  0  0  0  0
  -18.5891  -32.2873   23.2852 C   0  0  0  0  0  0  0  0  0  0  0  0
  -25.2513  -16.2592   21.5619 C   0  0  0  0  0  0  0  0  0  0  0  0
  -25.2343  -16.0372   19.1562 C   0  0  0  0  0  0  0  0  0  0  0  0
  -17.6311  -30.9053   25.0138 C   0  0  0  0  0  0  0  0  0  0  0  0
  -19.7729  -31.5541   23.3591 C   0  0  0  0  0  0  0  0  0  0  0  0
  -25.1672  -29.2327   19.2567 C   0  0  0  0  0  0  0  0  0  0  0  0
  -24.0150  -15.6169   21.6299 C   0  0  0  0  0  0  0  0  0  0  0  0
  -23.9980  -15.3949   19.2242 C   0  0  0  0  0  0  0  0  0  0  0  0
  -26.5604  -29.2349   19.2067 C   0  0  0  0  0  0  0  0  0  0  0  0
  -22.8421  -12.4491   21.4806 C   0  0  0  0  0  0  0  0  0  0  0  0
  -22.6787  -11.4584   22.4487 C   0  0  0  0  0  0  0  0  0  0  0  0
  -26.6125  -27.3778   20.7455 C   0  0  0  0  0  0  0  0  0  0  0  0
  -20.8693  -12.7199   23.4344 C   0  0  0  0  0  0  0  0  0  0  0  0
  -31.2354  -27.0507   18.6983 C   0  0  0  0  0  0  0  0  0  0  0  0
  -25.8610  -16.4694   20.3250 C   0  0  0  0  0  0  0  0  0  0  0  0
  -28.4110  -16.5345   20.3001 C   0  0  0  0  0  0  0  0  0  0  0  0
  -18.8135  -30.1526   25.0920 C   0  0  0  0  0  0  0  0  0  0  0  0
  -24.4852  -28.3085   20.0613 C   0  0  0  0  0  0  0  0  0  0  0  0
  -19.9017  -30.4858   24.2630 C   0  0  0  0  0  0  0  0  0  0  0  0
  -25.2105  -27.3643   20.8020 C   0  0  0  0  0  0  0  0  0  0  0  0
  -31.2991  -28.4224   18.6700 C   0  0  0  0  0  0  0  0  0  0  0  0
  -23.3884  -15.1847   20.4611 C   0  0  0  0  0  0  0  0  0  0  0  0
  -27.2834  -28.3093   19.9534 C   0  0  0  0  0  0  0  0  0  0  0  0
  -22.0192  -13.5754   21.4894 C   0  0  0  0  0  0  0  0  0  0  0  0
  -21.6923  -11.5937   23.4256 C   0  0  0  0  0  0  0  0  0  0  0  0
  -21.0327  -13.7107   22.4663 C   0  0  0  0  0  0  0  0  0  0  0  0
  -27.1378  -17.1333   20.2541 C   0  0  0  0  0  0  0  0  0  0  0  0
  -31.9325  -28.7202   17.4485 C   0  0  0  0  0  0  0  0  0  0  0  0
  -29.2888  -17.5858   20.1961 C   0  0  0  0  0  0  0  0  0  0  0  0
  -28.7683  -15.1517   20.4257 C   0  0  0  0  0  0  0  0  0  0  0  0
  -22.5229  -28.5219   22.5527 C   0  0  0  0  0  0  0  0  0  0  0  0
  -22.2659  -25.3161   22.1295 C   0  0  0  0  0  0  0  0  0  0  0  0
  -23.6396  -22.4333   20.9258 C   0  0  0  0  0  0  0  0  0  0  0  0
  -28.7476  -22.9354   17.7580 C   0  0  0  0  0  0  0  0  0  0  0  0
  -18.9046  -29.0480   26.1148 C   0  0  0  0  0  0  0  0  0  0  0  0
  -22.9813  -28.3019   20.0834 C   0  0  0  0  0  0  0  0  0  0  0  0
  -24.5255  -26.3381   21.6657 C   0  0  0  0  0  0  0  0  0  0  0  0
  -20.0612  -28.0829   25.8677 C   0  0  0  0  0  0  0  0  0  0  0  0
  -29.6778  -22.2518   21.1881 C   0  0  0  0  0  0  0  0  0  0  0  0
  -21.3434  -28.8523   25.5663 C   0  0  0  0  0  0  0  0  0  0  0  0
  -29.2465  -20.7915   21.3349 C   0  0  0  0  0  0  0  0  0  0  0  0
  -28.6941  -23.0345   20.3232 C   0  0  0  0  0  0  0  0  0  0  0  0
  -28.0301  -20.9907   19.1167 C   0  0  0  0  0  0  0  0  0  0  0  0
  -21.1935  -29.6983   24.2962 C   0  0  1  0  0  0  0  0  0  0  0  0
  -22.4050  -27.6485   21.3358 C   0  0  1  0  0  0  0  0  0  0  0  0
  -28.9960  -20.1404   19.9618 C   0  0  2  0  0  0  0  0  0  0  0  0
  -32.2594  -30.0484   16.9010 C   0  0  0  0  0  0  0  0  0  0  0  0
  -23.2123  -19.9659   20.7624 C   0  0  0  0  0  0  0  0  0  0  0  0
  -23.0162  -24.9940   25.0695 C   0  0  0  0  0  0  0  0  0  0  0  0
  -23.4988  -22.5807   24.6098 C   0  0  0  0  0  0  0  0  0  0  0  0
  -21.1921  -23.4732   24.2857 C   0  0  0  0  0  0  0  0  0  0  0  0
  -23.6461  -22.5105   17.9672 C   0  0  0  0  0  0  0  0  0  0  0  0
  -30.7984  -29.3838   19.7204 C   0  0  0  0  0  0  0  0  0  0  0  0
  -30.9384  -24.7925   16.0870 C   0  0  0  0  0  0  0  0  0  0  0  0
  -31.9793  -25.2569   17.1146 C   0  0  0  0  0  0  0  0  0  0  0  0
  -29.4875  -24.9621   16.5325 C   0  0  0  0  0  0  0  0  0  0  0  0
  -29.2849  -29.5620   19.6691 C   0  0  0  0  0  0  0  0  0  1  0  0
  -23.0082  -24.1068   22.6448 C   0  0  1  0  0  0  0  0  0  0  0  0
  -23.0561  -21.3160   20.0800 C   0  0  2  0  0  0  0  0  0  0  0  0
  -22.6921  -23.8091   24.1378 C   0  0  0  0  0  0  0  0  0  0  0  0
  -27.1970  -18.4619   20.1305 N   0  0  0  0  0  0  0  0  0  0  0  0
  -32.2488  -27.6256   16.7515 N   0  0  0  0  0  0  0  0  0  0  0  0
  -31.8124  -26.6267   17.5375 N   0  0  0  0  0  0  0  0  0  0  0  0
  -28.5180  -18.7067   20.0982 N   0  0  0  0  0  0  0  0  0  0  0  0
  -23.0537  -26.3762   21.6589 N   0  0  0  0  0  0  0  0  0  0  0  0
  -28.5144  -22.3720   19.0236 N   0  0  0  0  0  0  0  0  0  0  0  0
  -30.6371  -17.6514   20.1798 N   0  0  0  0  0  0  0  0  0  0  0  0
  -27.7417  -14.2023   20.5213 N   0  0  0  0  0  0  0  0  0  0  0  0
  -21.3098  -28.8661   23.1179 N   0  0  0  0  0  0  0  0  0  0  0  0
  -22.6858  -23.0121   21.7360 N   0  0  0  0  0  0  0  0  0  0  0  0
  -29.1982  -24.2498   17.7572 N   0  0  0  0  0  0  0  0  0  0  0  0
  -23.7403  -21.2560   18.7574 N   0  3  0  0  0  0  0  0  0  0  0  0
  -29.9627  -14.7707   20.4688 O   0  0  0  0  0  0  0  0  0  0  0  0
  -23.6324  -28.8575   22.9504 O   0  0  0  0  0  0  0  0  0  0  0  0
  -21.0323  -25.3172   22.1374 O   0  0  0  0  0  0  0  0  0  0  0  0
  -24.8241  -22.7576   20.8757 O   0  0  0  0  0  0  0  0  0  0  0  0
  -28.5724  -22.3112   16.7060 O   0  0  0  0  0  0  0  0  0  0  0  0
  -22.1821  -14.5578   20.5271 O   0  0  0  0  0  0  0  0  0  0  0  0
  -28.6435  -28.3097   19.9070 O   0  0  0  0  0  0  0  0  0  1  0  0
  -21.5345  -10.6415   24.3543 F   0  0  0  0  0  0  0  0  0  0  0  0
  -20.2383  -14.7899   22.4791 F   0  0  0  0  0  0  0  0  0  0  0  0
  1  2  1  0  0  0  0
  1  5  2  0  0  0  0
  2  6  2  0  0  0  0
  3  8  2  0  0  0  0
  3 16  1  0  0  0  0
  4  9  1  0  0  0  0
  4 16  2  0  0  0  0
  5 18  1  0  0  0  0
  6 20  1  0  0  0  0
  7 10  2  0  0  0  0
  7 19  1  0  0  0  0
  8 23  1  0  0  0  0
  9 23  2  0  0  0  0
 10 24  1  0  0  0  0
 11 12  2  0  0  0  0
 11 25  1  0  0  0  0
 12 26  1  0  0  0  0
 13 21  1  0  0  0  0
 13 24  2  0  0  0  0
 14 26  2  0  0  0  0
 14 27  1  0  0  0  0
 15 22  2  0  0  0  0
 15 64  1  0  0  0  0
 16 28  1  0  0  0  0
 17 28  1  0  0  0  0
 17 30  2  0  0  0  0
 17 31  1  0  0  0  0
 18 20  2  0  0  0  0
 18 36  1  0  0  0  0
 19 21  2  0  0  0  0
 19 37  1  0  0  0  0
 20 45  1  0  0  0  0
 21 38  1  0  0  0  0
 22 29  1  0  0  0  0
 22 54  1  0  0  0  0
 23 79  1  0  0  0  0
 24 80  1  0  0  0  0
 25 27  2  0  0  0  0
 25 79  1  0  0  0  0
 26 81  1  0  0  0  0
 27 82  1  0  0  0  0
 28 62  2  0  0  0  0
 29 48  1  0  0  0  0
 29 63  2  0  0  0  0
 30 65  1  0  0  0  0
 30 68  1  0  0  0  0
 31 69  1  0  0  0  0
 31 74  2  0  0  0  0
 32 46  1  0  0  0  0
 32 70  1  0  0  0  0
 32 75  2  0  0  0  0
 33 59  1  0  0  0  0
 33 66  1  0  0  0  0
 33 76  2  0  0  0  0
 34 60  1  0  0  0  0
 34 71  1  0  0  0  0
 34 77  2  0  0  0  0
 35 67  1  0  0  0  0
 35 72  1  0  0  0  0
 35 78  2  0  0  0  0
 36 39  1  0  0  0  0
 37 46  1  0  0  0  0
 38 66  1  0  0  0  0
 39 41  1  0  0  0  0
 40 42  1  0  0  0  0
 40 43  1  0  0  0  0
 41 45  1  0  0  0  0
 42 47  1  0  0  0  0
 43 67  1  0  0  0  0
 44 47  1  0  0  0  0
 44 67  1  0  0  0  0
 45 70  1  0  0  0  0
 46 66  1  0  0  0  0
 47 65  1  0  0  0  0
 49 60  1  0  0  0  0
 50 61  1  0  0  0  0
 51 61  1  0  0  0  0
 52 61  1  0  0  0  0
 53 73  1  0  0  0  0
 54 58  1  0  0  0  0
 55 56  1  0  0  0  0
 55 57  1  0  0  0  0
 56 64  1  0  0  0  0
 57 72  1  0  0  0  0
 58 80  1  0  0  0  0
 59 61  1  0  0  0  0
 59 71  1  0  0  0  0
 60 73  1  0  0  0  0
 62 65  1  0  0  0  0
 63 64  1  0  0  0  0
M  CHG  1  73   1
M  ISO  4  35 100  58 101  72 100  80 101
M  END
> <Batch ID>
0038

> <Smiles>
CNC(C)C(=O)NC(C(=O)N1Cc2cc([101O:1][101CH2:1]Cc3cn(CCC[100NH:0][100C:0](=O)N4CCCC(n5nc(-c6ccc(Oc7ccc(F)cc7F)cc6)c(C(N)=O)c5N)C4)nc3C)ccc2CC1C(=O)NC1CCCc2ccccc21)C(C)(C)C

> <Shape>
0.217

> <Color>
0.083

> <Negative vol penalty>
0.000

$$$$

  -OEChem-04052317013D

 91101  0     1  0  0  0  0  0999 V2000
  -28.9786  -33.4396   26.4001 C   0  0  0  0  0  0  0  0  0  0  0  0
  -28.8211  -32.2223   25.7452 C   0  0  0  0  0  0  0  0  0  0  0  0
  -29.3736  -21.4558   21.6521 C   0  0  0  0  0  0  0  0  0  0  0  0
  -23.7042   -9.8631   22.2380 C   0  0  0  0  0  0  0  0  0  0  0  0
  -23.7338   -8.5926   20.1832 C   0  0  0  0  0  0  0  0  0  0  0  0
  -27.8643  -34.2312   26.6749 C   0  0  0  0  0  0  0  0  0  0  0  0
  -27.5490  -31.7954   25.3658 C   0  0  0  0  0  0  0  0  0  0  0  0
  -27.4464  -29.9443   20.6533 C   0  0  0  0  0  0  0  0  0  0  0  0
  -22.3157   -9.7418   22.2930 C   0  0  0  0  0  0  0  0  0  0  0  0
  -22.3453   -8.4713   20.2383 C   0  0  0  0  0  0  0  0  0  0  0  0
  -27.9285  -28.6494   20.4672 C   0  0  0  0  0  0  0  0  0  0  0  0
  -18.7982   -9.4582   23.1658 C   0  0  0  0  0  0  0  0  0  0  0  0
  -18.2246   -9.1236   24.3924 C   0  0  0  0  0  0  0  0  0  0  0  0
  -29.6887  -20.1329   21.3772 C   0  0  0  0  0  0  0  0  0  0  0  0
  -25.6649  -27.8158   20.4481 C   0  0  0  0  0  0  0  0  0  0  0  0
  -29.6523  -24.3169   18.6038 C   0  0  0  0  0  0  0  0  0  0  0  0
  -19.4791   -7.0590   24.4159 C   0  0  0  0  0  0  0  0  0  0  0  0
  -29.4614  -22.4255   20.6442 C   0  0  0  0  0  0  0  0  0  0  0  0
  -24.4132   -9.2886   21.1830 C   0  0  0  0  0  0  0  0  0  0  0  0
  -26.8004   -8.5388   21.6800 C   0  0  0  0  0  0  0  0  0  0  0  0
  -26.5790  -33.8183   26.2900 C   0  0  0  0  0  0  0  0  0  0  0  0
  -26.0680  -30.1836   20.7492 C   0  0  0  0  0  0  0  0  0  0  0  0
  -26.4163  -32.5817   25.6369 C   0  0  0  0  0  0  0  0  0  0  0  0
  -25.1677  -29.1149   20.6328 C   0  0  0  0  0  0  0  0  0  0  0  0
  -29.2452  -24.7160   19.8708 C   0  0  0  0  0  0  0  0  0  0  0  0
  -29.9624  -22.9768   18.3593 C   0  0  0  0  0  0  0  0  0  0  0  0
  -29.1494  -23.7733   20.8904 C   0  0  0  0  0  0  0  0  0  0  0  0
  -29.8755  -22.0131   19.3603 C   0  0  0  0  0  0  0  0  0  0  0  0
  -21.6363   -9.0459   21.2932 C   0  0  0  0  0  0  0  0  0  0  0  0
  -27.0379  -27.5845   20.3675 C   0  0  0  0  0  0  0  0  0  0  0  0
  -19.7122   -8.5931   22.5641 C   0  0  0  0  0  0  0  0  0  0  0  0
  -18.5650   -7.9241   25.0175 C   0  0  0  0  0  0  0  0  0  0  0  0
  -20.0527   -7.3935   23.1892 C   0  0  0  0  0  0  0  0  0  0  0  0
  -25.8475   -9.4140   21.1253 C   0  0  0  0  0  0  0  0  0  0  0  0
  -30.0842  -19.8251   20.0912 C   0  0  0  0  0  0  0  0  0  0  0  0
  -28.0116   -9.0969   21.3513 C   0  0  0  0  0  0  0  0  0  0  0  0
  -26.6079   -7.3293   22.4255 C   0  0  0  0  0  0  0  0  0  0  0  0
  -24.1451  -31.3522   22.9944 C   0  0  0  0  0  0  0  0  0  0  0  0
  -21.9129  -31.1234   20.6520 C   0  0  0  0  0  0  0  0  0  0  0  0
  -20.9034  -29.6454   17.7462 C   0  0  0  0  0  0  0  0  0  0  0  0
  -31.3919  -13.2414   20.8713 C   0  0  0  0  0  0  0  0  0  0  0  0
  -25.3993  -34.6860   26.6509 C   0  0  0  0  0  0  0  0  0  0  0  0
  -25.5628  -31.5897   20.9232 C   0  0  0  0  0  0  0  0  0  0  0  0
  -23.6777  -29.3213   20.7089 C   0  0  0  0  0  0  0  0  0  0  0  0
  -24.1279  -34.3360   25.8820 C   0  0  0  0  0  0  0  0  0  0  0  0
  -34.1522  -15.0543   19.1921 C   0  0  0  0  0  0  0  0  0  0  0  0
  -29.1646  -12.8585   18.1835 C   0  0  0  0  0  0  0  0  0  0  0  0
  -23.9015  -32.8275   25.8834 C   0  0  0  0  0  0  0  0  0  0  0  0
  -33.7822  -16.5147   19.4392 C   0  0  0  0  0  0  0  0  0  0  0  0
  -28.1688  -11.8498   18.7555 C   0  0  0  0  0  0  0  0  0  0  0  0
  -33.6140  -14.1416   20.2887 C   0  0  0  0  0  0  0  0  0  0  0  0
  -29.5850  -13.9001   19.2216 C   0  0  0  0  0  0  0  0  0  0  0  0
  -31.7781  -15.7340   20.7508 C   0  0  0  0  0  0  0  0  0  0  0  0
  -29.1035  -12.3100   21.0538 C   0  0  0  0  0  0  0  0  0  0  0  0
  -25.0555  -32.0958   25.1874 C   0  0  1  0  0  0  0  0  0  0  0  0
  -24.1610  -31.6511   21.5219 C   0  0  1  0  0  0  0  0  0  0  0  0
  -32.2701  -16.6744   19.6452 C   0  0  1  0  0  0  0  0  0  0  0  0
  -28.7071  -11.2158   20.0505 C   0  0  1  0  0  0  0  0  0  0  0  0
  -30.3954  -22.5953   16.9776 C   0  0  0  0  0  0  0  0  0  0  0  0
  -28.7091  -24.2316   22.2485 C   0  0  0  0  0  0  0  0  0  0  0  0
  -19.0167  -29.6383   16.0916 C   0  0  0  0  0  0  0  0  0  0  0  0
  -20.2086  -29.5147   22.6058 C   0  0  0  0  0  0  0  0  0  0  0  0
  -18.8292  -28.7474   20.6625 C   0  0  0  0  0  0  0  0  0  0  0  0
  -18.9366  -31.1734   21.2329 C   0  0  0  0  0  0  0  0  0  0  0  0
  -22.6807  -30.5028   15.5406 C   0  0  0  0  0  0  0  0  0  0  0  0
  -28.9201  -26.1543   20.1074 C   0  0  0  0  0  0  0  0  0  1  0  0
  -30.4355  -18.4000   19.7460 C   0  0  0  0  0  0  0  0  0  0  0  0
  -31.9203  -18.1237   19.9755 C   0  0  0  0  0  0  0  0  0  0  0  0
  -20.9509  -30.0544   20.1926 C   0  0  1  0  0  0  0  0  0  0  0  0
  -20.3707  -30.2304   16.4507 C   0  0  2  0  0  0  0  0  0  0  0  0
  -19.7594  -29.8680   21.1739 C   0  0  0  0  0  0  0  0  0  0  0  0
  -30.1819  -20.7300   19.0905 N   0  0  0  0  0  0  0  0  0  0  0  0
  -26.4052  -10.4496   20.4925 N   0  0  0  0  0  0  0  0  0  0  0  0
  -27.7218  -10.2287   20.6475 N   0  0  0  0  0  0  0  0  0  0  0  0
  -23.2332  -30.7136   20.8859 N   0  0  0  0  0  0  0  0  0  0  0  0
  -32.1805  -14.3426   20.4978 N   0  0  0  0  0  0  0  0  0  0  0  0
  -30.0528  -13.2491   20.4526 N   0  0  0  0  0  0  0  0  0  0  0  0
  -29.2855   -8.7251   21.5987 N   0  0  0  0  0  0  0  0  0  0  0  0
  -25.2974   -6.8988   22.6737 N   0  0  0  0  0  0  0  0  0  0  0  0
  -24.9285  -32.2038   23.7498 N   0  0  0  0  0  0  0  0  0  0  0  0
  -20.5563  -30.4162   18.8355 N   0  0  0  0  0  0  0  0  0  0  0  0
  -21.3155  -29.9558   15.3313 N   0  3  0  0  0  0  0  0  0  0  0  0
  -27.5694   -6.6592   22.8729 O   0  0  0  0  0  0  0  0  0  0  0  0
  -23.4709  -30.4191   23.4142 O   0  0  0  0  0  0  0  0  0  0  0  0
  -21.5094  -32.2808   20.7910 O   0  0  0  0  0  0  0  0  0  0  0  0
  -21.5586  -28.6063   17.7881 O   0  0  0  0  0  0  0  0  0  0  0  0
  -31.8579  -12.3073   21.5357 O   0  0  0  0  0  0  0  0  0  0  0  0
  -20.2814   -8.9271   21.3467 O   0  0  0  0  0  0  0  0  0  0  0  0
  -27.5092  -26.3106   20.1852 O   0  0  0  0  0  0  0  0  0  1  0  0
  -18.0153   -7.6036   26.1961 F   0  0  0  0  0  0  0  0  0  0  0  0
  -20.9310   -6.5590   22.6167 F   0  0  0  0  0  0  0  0  0  0  0  0
  1  2  1  0  0  0  0
  1  6  2  0  0  0  0
  2  7  2  0  0  0  0
  3 14  2  0  0  0  0
  3 18  1  0  0  0  0
  4  9  2  0  0  0  0
  4 19  1  0  0  0  0
  5 10  1  0  0  0  0
  5 19  2  0  0  0  0
  6 21  1  0  0  0  0
  7 23  1  0  0  0  0
  8 11  2  0  0  0  0
  8 22  1  0  0  0  0
  9 29  1  0  0  0  0
 10 29  2  0  0  0  0
 11 30  1  0  0  0  0
 12 13  2  0  0  0  0
 12 31  1  0  0  0  0
 13 32  1  0  0  0  0
 14 35  1  0  0  0  0
 15 24  1  0  0  0  0
 15 30  2  0  0  0  0
 16 25  1  0  0  0  0
 16 26  2  0  0  0  0
 17 32  2  0  0  0  0
 17 33  1  0  0  0  0
 18 27  1  0  0  0  0
 18 28  2  0  0  0  0
 19 34  1  0  0  0  0
 20 34  1  0  0  0  0
 20 36  2  0  0  0  0
 20 37  1  0  0  0  0
 21 23  2  0  0  0  0
 21 42  1  0  0  0  0
 22 24  2  0  0  0  0
 22 43  1  0  0  0  0
 23 55  1  0  0  0  0
 24 44  1  0  0  0  0
 25 27  2  0  0  0  0
 25 66  1  0  0  0  0
 26 28  1  0  0  0  0
 26 59  1  0  0  0  0
 27 60  1  0  0  0  0
 28 72  1  0  0  0  0
 29 88  1  0  0  0  0
 30 89  1  0  0  0  0
 31 33  2  0  0  0  0
 31 88  1  0  0  0  0
 32 90  1  0  0  0  0
 33 91  1  0  0  0  0
 34 73  2  0  0  0  0
 35 67  1  0  0  0  0
 35 72  2  0  0  0  0
 36 74  1  0  0  0  0
 36 78  1  0  0  0  0
 37 79  1  0  0  0  0
 37 83  2  0  0  0  0
 38 56  1  0  0  0  0
 38 80  1  0  0  0  0
 38 84  2  0  0  0  0
 39 69  1  0  0  0  0
 39 75  1  0  0  0  0
 39 85  2  0  0  0  0
 40 70  1  0  0  0  0
 40 81  1  0  0  0  0
 40 86  2  0  0  0  0
 41 76  1  0  0  0  0
 41 77  1  0  0  0  0
 41 87  2  0  0  0  0
 42 45  1  0  0  0  0
 43 56  1  0  0  0  0
 44 75  1  0  0  0  0
 45 48  1  0  0  0  0
 46 49  1  0  0  0  0
 46 51  1  0  0  0  0
 47 50  1  0  0  0  0
 47 52  1  0  0  0  0
 48 55  1  0  0  0  0
 49 57  1  0  0  0  0
 50 58  1  0  0  0  0
 51 76  1  0  0  0  0
 52 77  1  0  0  0  0
 53 57  1  0  0  0  0
 53 76  1  0  0  0  0
 54 58  1  0  0  0  0
 54 77  1  0  0  0  0
 55 80  1  0  0  0  0
 56 75  1  0  0  0  0
 57 68  1  0  0  0  0
 58 74  1  0  0  0  0
 61 70  1  0  0  0  0
 62 71  1  0  0  0  0
 63 71  1  0  0  0  0
 64 71  1  0  0  0  0
 65 82  1  0  0  0  0
 66 89  1  0  0  0  0
 67 68  1  0  0  0  0
 69 71  1  0  0  0  0
 69 81  1  0  0  0  0
 70 82  1  0  0  0  0
 73 74  1  0  0  0  0
M  CHG  1  82   1
M  ISO  4  41 100  66 101  76 100  89 101
M  END
> <Batch ID>
0038

> <Smiles>
CNC(C)C(=O)NC(C(=O)N1Cc2cc([101O:1][101CH2:1]c3cc(C)c4nc(CCC5CCC[100N:0]([100C:0](=O)N6CCCC(n7nc(-c8ccc(Oc9ccc(F)cc9F)cc8)c(C(N)=O)c7N)C6)C5)ccc4c3C)ccc2CC1C(=O)NC1CCCc2ccccc21)C(C)(C)C

> <Shape>
0.286

> <Color>
0.081

> <Negative vol penalty>
0.000

$$$$

  -OEChem-04052317013D

 86 94  0     1  0  0  0  0  0999 V2000
  -28.8551  -17.2197   13.5248 C   0  0  0  0  0  0  0  0  0  0  0  0
  -29.0001  -16.2479   14.5085 C   0  0  0  0  0  0  0  0  0  0  0  0
  -26.7674  -28.4543   21.5192 C   0  0  0  0  0  0  0  0  0  0  0  0
  -25.6989  -28.0101   19.3983 C   0  0  0  0  0  0  0  0  0  0  0  0
  -27.8729  -18.1989   13.6573 C   0  0  0  0  0  0  0  0  0  0  0  0
  -28.1553  -16.2480   15.6190 C   0  0  0  0  0  0  0  0  0  0  0  0
  -28.5059  -12.4239   18.6941 C   0  0  0  0  0  0  0  0  0  0  0  0
  -26.1461  -29.7021   21.5709 C   0  0  0  0  0  0  0  0  0  0  0  0
  -25.0776  -29.2579   19.4500 C   0  0  0  0  0  0  0  0  0  0  0  0
  -29.5934  -12.2397   19.5470 C   0  0  0  0  0  0  0  0  0  0  0  0
  -24.5578  -32.8556   22.4353 C   0  0  0  0  0  0  0  0  0  0  0  0
  -23.9767  -33.2412   23.6433 C   0  0  0  0  0  0  0  0  0  0  0  0
  -28.2603  -13.0111   21.4036 C   0  0  0  0  0  0  0  0  0  0  0  0
  -31.4251  -17.2181   21.9581 C   0  0  0  0  0  0  0  0  0  0  0  0
  -22.5123  -31.3217   23.5515 C   0  0  0  0  0  0  0  0  0  0  0  0
  -29.4888  -16.6436   20.1234 C   0  0  0  0  0  0  0  0  0  0  0  0
  -26.5438  -27.6083   20.4329 C   0  0  0  0  0  0  0  0  0  0  0  0
  -26.6913  -25.1016   20.8826 C   0  0  0  0  0  0  0  0  0  0  0  0
  -27.0243  -18.2177   14.7764 C   0  0  0  0  0  0  0  0  0  0  0  0
  -27.2887  -12.9142   19.1885 C   0  0  0  0  0  0  0  0  0  0  0  0
  -27.1423  -17.2138   15.7591 C   0  0  0  0  0  0  0  0  0  0  0  0
  -27.1581  -13.1981   20.5554 C   0  0  0  0  0  0  0  0  0  0  0  0
  -31.1348  -18.1423   20.9607 C   0  0  0  0  0  0  0  0  0  0  0  0
  -30.1495  -17.8572   20.0219 C   0  0  0  0  0  0  0  0  0  0  0  0
  -25.3012  -30.1039   20.5363 C   0  0  0  0  0  0  0  0  0  0  0  0
  -29.4716  -12.5361   20.9014 C   0  0  0  0  0  0  0  0  0  0  0  0
  -24.1161  -31.7031   21.7854 C   0  0  0  0  0  0  0  0  0  0  0  0
  -22.9540  -32.4742   24.2014 C   0  0  0  0  0  0  0  0  0  0  0  0
  -23.0934  -30.9362   22.3435 C   0  0  0  0  0  0  0  0  0  0  0  0
  -27.1858  -26.3195   20.3786 C   0  0  0  0  0  0  0  0  0  0  0  0
  -30.7072  -16.0331   21.9730 C   0  0  0  0  0  0  0  0  0  0  0  0
  -27.6678  -24.1838   20.5819 C   0  0  0  0  0  0  0  0  0  0  0  0
  -25.4593  -24.8247   21.5617 C   0  0  0  0  0  0  0  0  0  0  0  0
  -25.5260  -15.5025   18.6439 C   0  0  0  0  0  0  0  0  0  0  0  0
  -23.4194  -14.0033   20.6027 C   0  0  0  0  0  0  0  0  0  0  0  0
  -22.8914  -11.7298   23.0925 C   0  0  0  0  0  0  0  0  0  0  0  0
  -31.3556  -21.9947   17.0107 C   0  0  0  0  0  0  0  0  0  0  0  0
  -25.9732  -19.2959   14.8654 C   0  0  0  0  0  0  0  0  0  0  0  0
  -26.1171  -13.0819   18.2603 C   0  0  0  0  0  0  0  0  0  0  0  0
  -25.8668  -13.7077   21.1396 C   0  0  0  0  0  0  0  0  0  0  0  0
  -25.4262  -19.4779   16.2775 C   0  0  0  0  0  0  0  0  0  0  0  0
  -32.3903  -24.8357   18.8908 C   0  0  0  0  0  0  0  0  0  0  0  0
  -25.0320  -18.1289   16.8600 C   0  0  0  0  0  0  0  0  0  0  0  0
  -31.0875  -25.3777   19.4815 C   0  0  0  0  0  0  0  0  0  0  0  0
  -32.1839  -24.2810   17.4831 C   0  0  0  0  0  0  0  0  0  0  0  0
  -29.8104  -23.8155   17.9559 C   0  0  0  0  0  0  0  0  0  0  0  0
  -26.2549  -17.2121   16.9907 C   0  0  1  0  0  0  0  0  0  0  0  0
  -25.0808  -14.0739   18.7794 C   0  0  1  0  0  0  0  0  0  0  0  0
  -29.9567  -24.3349   19.3964 C   0  0  2  0  0  0  0  0  0  0  0  0
  -31.8903  -19.4291   20.9172 C   0  0  0  0  0  0  0  0  0  0  0  0
  -34.1471  -12.8132   20.7758 C   0  0  0  0  0  0  0  0  0  0  0  0
  -21.0680  -10.7497   24.5110 C   0  0  0  0  0  0  0  0  0  0  0  0
  -23.3597  -16.5504   22.2816 C   0  0  0  0  0  0  0  0  0  0  0  0
  -22.3186  -15.2234   24.1318 C   0  0  0  0  0  0  0  0  0  0  0  0
  -21.1305  -15.4659   21.9518 C   0  0  0  0  0  0  0  0  0  0  0  0
  -23.3891   -9.0037   22.0533 C   0  0  0  0  0  0  0  0  0  0  0  0
  -29.7991  -18.8108   18.9329 C   0  0  0  0  0  0  0  0  0  0  0  0
  -30.9952  -15.0073   23.0399 C   0  0  0  0  0  0  0  0  0  0  0  0
  -32.8492  -12.1104   21.1528 C   0  0  0  0  0  0  0  0  0  0  0  0
  -30.7746  -18.8046   17.7382 C   0  0  0  0  0  0  0  0  0  0  0  0
  -32.0778  -13.9914   22.6475 C   0  0  0  0  0  0  0  0  0  0  0  0
  -30.3828  -19.7482   16.6031 C   0  0  0  0  0  0  0  0  0  0  0  0
  -23.1729  -13.9823   22.0919 C   0  0  1  0  0  0  0  0  0  0  0  0
  -21.8799  -10.6066   23.2331 C   0  0  2  0  0  0  0  0  0  0  0  0
  -31.7160  -13.1003   21.4490 C   0  0  2  0  0  0  0  0  0  1  0  0
  -22.5205  -15.2978   22.6032 C   0  0  0  0  0  0  0  0  0  0  0  0
  -29.7431  -15.7209   21.0781 N   0  0  0  0  0  0  0  0  0  0  0  0
  -28.3835  -26.1905   19.8017 N   0  0  0  0  0  0  0  0  0  0  0  0
  -28.6498  -24.8806   19.9413 N   0  0  0  0  0  0  0  0  0  0  0  0
  -24.7519  -13.8612   20.1904 N   0  0  0  0  0  0  0  0  0  0  0  0
  -31.0992  -23.2966   17.4715 N   0  0  0  0  0  0  0  0  0  0  0  0
  -27.7738  -22.8567   20.8056 N   0  0  0  0  0  0  0  0  0  0  0  0
  -24.5692  -25.8832   21.7893 N   0  0  0  0  0  0  0  0  0  0  0  0
  -25.8119  -15.8820   17.3463 N   0  0  0  0  0  0  0  0  0  0  0  0
  -22.3869  -12.7825   22.3587 N   0  0  0  0  0  0  0  0  0  0  0  0
  -30.2743  -21.1226   17.0392 N   0  0  0  0  0  0  0  0  0  0  0  0
  -22.5718   -9.2869   23.2611 N   0  3  0  0  0  0  0  0  0  0  0  0
  -25.1640  -23.6758   21.9697 O   0  0  0  0  0  0  0  0  0  0  0  0
  -25.6028  -16.2088   19.6424 O   0  0  0  0  0  0  0  0  0  0  0  0
  -22.4640  -14.1336   19.8334 O   0  0  0  0  0  0  0  0  0  0  0  0
  -24.0152  -11.6799   23.5875 O   0  0  0  0  0  0  0  0  0  0  0  0
  -32.4674  -21.6346   16.6090 O   0  0  0  0  0  0  0  0  0  0  0  0
  -24.6946  -31.3213   20.5865 O   0  0  0  0  0  0  0  0  0  0  0  0
  -30.5316  -12.3579   21.7359 O   0  0  0  0  0  0  0  0  0  1  0  0
  -22.3971  -32.8438   25.3623 F   0  0  0  0  0  0  0  0  0  0  0  0
  -22.6657  -29.8273   21.7243 F   0  0  0  0  0  0  0  0  0  0  0  0
  1  2  1  0  0  0  0
  1  5  2  0  0  0  0
  2  6  2  0  0  0  0
  3  8  2  0  0  0  0
  3 17  1  0  0  0  0
  4  9  1  0  0  0  0
  4 17  2  0  0  0  0
  5 19  1  0  0  0  0
  6 21  1  0  0  0  0
  7 10  2  0  0  0  0
  7 20  1  0  0  0  0
  8 25  1  0  0  0  0
  9 25  2  0  0  0  0
 10 26  1  0  0  0  0
 11 12  2  0  0  0  0
 11 27  1  0  0  0  0
 12 28  1  0  0  0  0
 13 22  1  0  0  0  0
 13 26  2  0  0  0  0
 14 23  2  0  0  0  0
 14 31  1  0  0  0  0
 15 28  2  0  0  0  0
 15 29  1  0  0  0  0
 16 24  2  0  0  0  0
 16 67  1  0  0  0  0
 17 30  1  0  0  0  0
 18 30  1  0  0  0  0
 18 32  2  0  0  0  0
 18 33  1  0  0  0  0
 19 21  2  0  0  0  0
 19 38  1  0  0  0  0
 20 22  2  0  0  0  0
 20 39  1  0  0  0  0
 21 47  1  0  0  0  0
 22 40  1  0  0  0  0
 23 24  1  0  0  0  0
 23 50  1  0  0  0  0
 24 57  1  0  0  0  0
 25 83  1  0  0  0  0
 26 84  1  0  0  0  0
 27 29  2  0  0  0  0
 27 83  1  0  0  0  0
 28 85  1  0  0  0  0
 29 86  1  0  0  0  0
 30 68  2  0  0  0  0
 31 58  1  0  0  0  0
 31 67  2  0  0  0  0
 32 69  1  0  0  0  0
 32 72  1  0  0  0  0
 33 73  1  0  0  0  0
 33 78  2  0  0  0  0
 34 48  1  0  0  0  0
 34 74  1  0  0  0  0
 34 79  2  0  0  0  0
 35 63  1  0  0  0  0
 35 70  1  0  0  0  0
 35 80  2  0  0  0  0
 36 64  1  0  0  0  0
 36 75  1  0  0  0  0
 36 81  2  0  0  0  0
 37 71  1  0  0  0  0
 37 76  1  0  0  0  0
 37 82  2  0  0  0  0
 38 41  1  0  0  0  0
 39 48  1  0  0  0  0
 40 70  1  0  0  0  0
 41 43  1  0  0  0  0
 42 44  1  0  0  0  0
 42 45  1  0  0  0  0
 43 47  1  0  0  0  0
 44 49  1  0  0  0  0
 45 71  1  0  0  0  0
 46 49  1  0  0  0  0
 46 71  1  0  0  0  0
 47 74  1  0  0  0  0
 48 70  1  0  0  0  0
 49 69  1  0  0  0  0
 51 59  1  0  0  0  0
 52 64  1  0  0  0  0
 53 66  1  0  0  0  0
 54 66  1  0  0  0  0
 55 66  1  0  0  0  0
 56 77  1  0  0  0  0
 57 60  1  0  0  0  0
 58 61  1  0  0  0  0
 59 65  1  0  0  0  0
 60 62  1  0  0  0  0
 61 65  1  0  0  0  0
 62 76  1  0  0  0  0
 63 66  1  0  0  0  0
 63 75  1  0  0  0  0
 64 77  1  0  0  0  0
 65 84  1  0  0  0  0
 68 69  1  0  0  0  0
M  CHG  1  77   1
M  ISO  4  37 100  65 101  76 100  84 101
M  END
> <Batch ID>
0038

> <Smiles>
CC[101CH:1](CCc1cc(C)c(CCC[100NH:0][100C:0](=O)N2CCCC(n3nc(-c4ccc(Oc5ccc(F)cc5F)cc4)c(C(N)=O)c3N)C2)cn1)[101O:1]c1ccc2c(c1)CN(C(=O)C(NC(=O)C(C)NC)C(C)(C)C)C(C(=O)NC1CCCc3ccccc31)C2

> <Shape>
0.249

> <Color>
0.064

> <Negative vol penalty>
0.000

$$$$

  -OEChem-04052317012D

  0  0  0     0  0  0  0  0  0999 V2000
M  END
$$$$

  -OEChem-04052317013D

 91100  0     1  0  0  0  0  0999 V2000
  -36.4123  -28.8293   23.9881 C   0  0  0  0  0  0  0  0  0  0  0  0
  -35.5712  -28.2436   23.0474 C   0  0  0  0  0  0  0  0  0  0  0  0
  -23.3187  -10.1832   22.1962 C   0  0  0  0  0  0  0  0  0  0  0  0
  -23.6484   -9.5691   19.8829 C   0  0  0  0  0  0  0  0  0  0  0  0
  -36.7227  -28.1477   25.1641 C   0  0  0  0  0  0  0  0  0  0  0  0
  -35.0409  -26.9755   23.2817 C   0  0  0  0  0  0  0  0  0  0  0  0
  -30.1076  -26.6976   22.1725 C   0  0  0  0  0  0  0  0  0  0  0  0
  -22.5773   -9.0194   22.3995 C   0  0  0  0  0  0  0  0  0  0  0  0
  -22.9069   -8.4052   20.0863 C   0  0  0  0  0  0  0  0  0  0  0  0
  -29.7630  -26.5850   20.8262 C   0  0  0  0  0  0  0  0  0  0  0  0
  -19.4408   -7.9242   21.7770 C   0  0  0  0  0  0  0  0  0  0  0  0
  -18.2467   -8.0336   22.4895 C   0  0  0  0  0  0  0  0  0  0  0  0
  -30.9033  -22.1536   16.8269 C   0  0  0  0  0  0  0  0  0  0  0  0
  -29.4548  -24.2094   21.1099 C   0  0  0  0  0  0  0  0  0  0  0  0
  -31.0584  -24.1570   18.1565 C   0  0  0  0  0  0  0  0  0  0  0  0
  -19.0966   -6.4978   24.1497 C   0  0  0  0  0  0  0  0  0  0  0  0
  -23.8543  -10.4581   20.9379 C   0  0  0  0  0  0  0  0  0  0  0  0
  -24.1825  -12.9876   20.8978 C   0  0  0  0  0  0  0  0  0  0  0  0
  -36.1882  -26.8746   25.4174 C   0  0  0  0  0  0  0  0  0  0  0  0
  -30.1390  -25.5632   22.9964 C   0  0  0  0  0  0  0  0  0  0  0  0
  -35.3455  -26.2756   24.4616 C   0  0  0  0  0  0  0  0  0  0  0  0
  -29.5007  -22.1749   16.9171 C   0  0  0  0  0  0  0  0  0  0  0  0
  -29.7977  -24.3106   22.4669 C   0  0  0  0  0  0  0  0  0  0  0  0
  -28.8751  -23.2064   17.6417 C   0  0  0  0  0  0  0  0  0  0  0  0
  -31.6761  -23.1384   17.4408 C   0  0  0  0  0  0  0  0  0  0  0  0
  -22.3714   -8.1304   21.3446 C   0  0  0  0  0  0  0  0  0  0  0  0
  -29.4394  -25.3404   20.2941 C   0  0  0  0  0  0  0  0  0  0  0  0
  -20.4628   -7.1015   22.2508 C   0  0  0  0  0  0  0  0  0  0  0  0
  -29.6683  -24.1899   18.2578 C   0  0  0  0  0  0  0  0  0  1  0  0
  -18.0746   -7.3205   23.6758 C   0  0  0  0  0  0  0  0  0  0  0  0
  -20.2907   -6.3884   23.4372 C   0  0  0  0  0  0  0  0  0  0  0  0
  -24.6198  -11.6604   20.7271 C   0  0  0  0  0  0  0  0  0  0  0  0
  -25.2753  -13.7537   20.5733 C   0  0  0  0  0  0  0  0  0  0  0  0
  -22.9028  -13.4835   21.3127 C   0  0  0  0  0  0  0  0  0  0  0  0
  -32.3906  -24.0668   24.6682 C   0  0  0  0  0  0  0  0  0  0  0  0
  -30.6629  -14.7588   21.0651 C   0  0  0  0  0  0  0  0  0  0  0  0
  -29.8858  -22.2904   25.7133 C   0  0  0  0  0  0  0  0  0  0  0  0
  -26.9307  -20.8021   24.2746 C   0  0  0  0  0  0  0  0  0  0  0  0
  -36.5902  -26.1568   26.6814 C   0  0  0  0  0  0  0  0  0  0  0  0
  -30.4868  -25.7055   24.4528 C   0  0  0  0  0  0  0  0  0  0  0  0
  -28.7069  -21.0842   16.2413 C   0  0  0  0  0  0  0  0  0  0  0  0
  -27.3748  -23.2808   17.7838 C   0  0  0  0  0  0  0  0  0  0  0  0
  -29.7965  -23.0652   23.3139 C   0  0  0  0  0  0  0  0  0  0  0  0
  -35.6876  -24.9742   27.0236 C   0  0  0  0  0  0  0  0  0  0  0  0
  -27.8001  -21.6048   15.1268 C   0  0  0  0  0  0  0  0  0  0  0  0
  -26.6558  -23.4921   16.4519 C   0  0  0  0  0  0  0  0  0  0  0  0
  -26.4930  -22.2163   15.6275 C   0  0  0  0  0  0  0  0  0  0  0  0
  -29.6571  -12.5018   18.3966 C   0  0  0  0  0  0  0  0  0  0  0  0
  -35.4443  -24.1132   25.7882 C   0  0  0  0  0  0  0  0  0  0  0  0
  -28.2221  -12.1687   18.8026 C   0  0  0  0  0  0  0  0  0  0  0  0
  -30.5599  -12.6733   19.6154 C   0  0  0  0  0  0  0  0  0  0  0  0
  -28.6274  -13.3536   21.0036 C   0  0  0  0  0  0  0  0  0  0  0  0
  -34.7307  -24.9120   24.6909 C   0  0  1  0  0  0  0  0  0  0  0  0
  -30.9853  -24.4061   25.0778 C   0  0  1  0  0  0  0  0  0  0  0  0
  -27.6776  -13.2027   19.8036 C   0  0  2  0  0  0  0  0  0  0  0  0
  -24.7191  -20.2326   25.3148 C   0  0  0  0  0  0  0  0  0  0  0  0
  -31.1142  -19.5264   26.1153 C   0  0  0  0  0  0  0  0  0  0  0  0
  -28.8849  -18.5315   25.5596 C   0  0  0  0  0  0  0  0  0  0  0  0
  -29.1280  -20.0050   27.5576 C   0  0  0  0  0  0  0  0  0  0  0  0
  -25.4464  -22.3945   22.2696 C   0  0  0  0  0  0  0  0  0  0  0  0
  -35.0748  -15.5221   21.3878 C   0  0  0  0  0  0  0  0  0  0  0  0
  -33.1626  -23.0985   17.3293 C   0  0  0  0  0  0  0  0  0  0  0  0
  -32.0809  -14.9665   20.5961 C   0  0  0  0  0  0  0  0  0  0  0  0
  -33.8629  -22.3034   18.4466 C   0  0  0  0  0  0  0  0  0  0  0  0
  -33.4140  -20.8400   18.5048 C   0  0  0  0  0  0  0  0  0  0  0  0
  -34.1504  -20.0783   19.6087 C   0  0  0  0  0  0  0  0  0  0  0  0
  -33.7285  -18.6087   19.6476 C   0  0  0  0  0  0  0  0  0  0  0  0
  -32.6867  -16.2085   21.2245 C   0  0  0  0  0  0  0  0  0  0  0  0
  -34.4907  -17.8502   20.7239 C   0  0  0  0  0  0  0  0  0  0  0  0
  -29.2019  -21.0280   25.2468 C   0  0  1  0  0  0  0  0  0  0  0  0
  -25.4945  -21.2456   24.4869 C   0  0  2  0  0  0  0  0  0  0  0  0
  -29.5952  -19.7902   26.1015 C   0  0  0  0  0  0  0  0  0  0  0  0
  -25.8913  -11.5842   20.3252 N   0  0  0  0  0  0  0  0  0  0  0  0
  -26.2623  -12.8731   20.2406 N   0  0  0  0  0  0  0  0  0  0  0  0
  -30.1496  -23.2549   24.7306 N   0  0  0  0  0  0  0  0  0  0  0  0
  -29.9927  -13.6456   20.5573 N   0  0  0  0  0  0  0  0  0  0  0  0
  -25.4787  -15.0879   20.5429 N   0  0  0  0  0  0  0  0  0  0  0  0
  -21.9369  -13.7440   20.3311 N   0  0  0  0  0  0  0  0  0  0  0  0
  -33.3206  -25.0362   24.9920 N   0  0  0  0  0  0  0  0  0  0  0  0
  -27.7721  -21.3178   25.2376 N   0  0  0  0  0  0  0  0  0  0  0  0
  -24.8037  -21.4089   23.1765 N   0  3  0  0  0  0  0  0  0  0  0  0
  -34.0834  -16.4249   20.6945 N   0  3  1  0  0  0  0  0  0  0  0  0
  -22.6297  -13.7052   22.5168 O   0  0  0  0  0  0  0  0  0  0  0  0
  -32.6147  -23.0036   24.1016 O   0  0  0  0  0  0  0  0  0  0  0  0
  -30.1666  -15.5645   21.8569 O   0  0  0  0  0  0  0  0  0  0  0  0
  -30.1688  -22.4190   26.9071 O   0  0  0  0  0  0  0  0  0  0  0  0
  -27.2714  -20.0684   23.3493 O   0  0  0  0  0  0  0  0  0  0  0  0
  -21.6481   -6.9945   21.5427 O   0  0  0  0  0  0  0  0  0  0  0  0
  -29.1033  -25.2276   18.9802 O   0  0  0  0  0  0  0  0  0  1  0  0
  -16.9284   -7.4269   24.3607 F   0  0  0  0  0  0  0  0  0  0  0  0
  -21.2694   -5.5974   23.8980 F   0  0  0  0  0  0  0  0  0  0  0  0
  1  2  1  0  0  0  0
  1  5  2  0  0  0  0
  2  6  2  0  0  0  0
  3  8  2  0  0  0  0
  3 17  1  0  0  0  0
  4  9  1  0  0  0  0
  4 17  2  0  0  0  0
  5 19  1  0  0  0  0
  6 21  1  0  0  0  0
  7 10  2  0  0  0  0
  7 20  1  0  0  0  0
  8 26  1  0  0  0  0
  9 26  2  0  0  0  0
 10 27  1  0  0  0  0
 11 12  2  0  0  0  0
 11 28  1  0  0  0  0
 12 30  1  0  0  0  0
 13 22  2  0  0  0  0
 13 25  1  0  0  0  0
 14 23  1  0  0  0  0
 14 27  2  0  0  0  0
 15 25  2  0  0  0  0
 15 29  1  0  0  0  0
 16 30  2  0  0  0  0
 16 31  1  0  0  0  0
 17 32  1  0  0  0  0
 18 32  1  0  0  0  0
 18 33  2  0  0  0  0
 18 34  1  0  0  0  0
 19 21  2  0  0  0  0
 19 39  1  0  0  0  0
 20 23  2  0  0  0  0
 20 40  1  0  0  0  0
 21 53  1  0  0  0  0
 22 24  1  0  0  0  0
 22 41  1  0  0  0  0
 23 43  1  0  0  0  0
 24 29  2  0  0  0  0
 24 42  1  0  0  0  0
 25 62  1  0  0  0  0
 26 88  1  0  0  0  0
 27 89  1  0  0  0  0
 28 31  2  0  0  0  0
 28 88  1  0  0  0  0
 29 89  1  0  0  0  0
 30 90  1  0  0  0  0
 31 91  1  0  0  0  0
 32 73  2  0  0  0  0
 33 74  1  0  0  0  0
 33 77  1  0  0  0  0
 34 78  1  0  0  0  0
 34 83  2  0  0  0  0
 35 54  1  0  0  0  0
 35 79  1  0  0  0  0
 35 84  2  0  0  0  0
 36 63  1  0  0  0  0
 36 76  1  0  0  0  0
 36 85  2  0  0  0  0
 37 70  1  0  0  0  0
 37 75  1  0  0  0  0
 37 86  2  0  0  0  0
 38 71  1  0  0  0  0
 38 80  1  0  0  0  0
 38 87  2  0  0  0  0
 39 44  1  0  0  0  0
 40 54  1  0  0  0  0
 41 45  1  0  0  0  0
 42 46  1  0  0  0  0
 43 75  1  0  0  0  0
 44 49  1  0  0  0  0
 45 47  1  0  0  0  0
 46 47  1  0  0  0  0
 48 50  1  0  0  0  0
 48 51  1  0  0  0  0
 49 53  1  0  0  0  0
 50 55  1  0  0  0  0
 51 76  1  0  0  0  0
 52 55  1  0  0  0  0
 52 76  1  0  0  0  0
 53 79  1  0  0  0  0
 54 75  1  0  0  0  0
 55 74  1  0  0  0  0
 56 71  1  0  0  0  0
 57 72  1  0  0  0  0
 58 72  1  0  0  0  0
 59 72  1  0  0  0  0
 60 81  1  0  0  0  0
 61 82  1  0  0  0  0
 62 64  1  0  0  0  0
 63 68  1  0  0  0  0
 64 65  1  0  0  0  0
 65 66  1  0  0  0  0
 66 67  1  0  0  0  0
 67 69  1  0  0  0  0
 68 82  1  0  0  0  0
 69 82  1  0  0  0  0
 70 72  1  0  0  0  0
 70 80  1  0  0  0  0
 71 81  1  0  0  0  0
 73 74  1  0  0  0  0
M  CHG  2  81   1  82   1
M  ISO  4  29 101  36 100  63 100  89 101
M  END
> <Batch ID>
0038

> <Smiles>
CNC(C)C(=O)NC(C(=O)N1Cc2cc([101O:1][101c:1]3cc(CCCCCCN(C)C[100CH2:0][100C:0](=O)N4CCCC(n5nc(-c6ccc(Oc7ccc(F)cc7F)cc6)c(C(N)=O)c5N)C4)cc4c3CCCCC4)ccc2CC1C(=O)NC1CCCc2ccccc21)C(C)(C)C

> <Shape>
0.184

> <Color>
0.138

> <Negative vol penalty>
0.000

$$$$

  -OEChem-04052317013D

 82 90  0     1  0  0  0  0  0999 V2000
  -22.1654  -25.5464   13.4796 C   0  0  0  0  0  0  0  0  0  0  0  0
  -22.9375  -25.0380   14.5191 C   0  0  0  0  0  0  0  0  0  0  0  0
  -23.0016   -9.8946   19.9895 C   0  0  0  0  0  0  0  0  0  0  0  0
  -23.7574   -9.9431   22.2837 C   0  0  0  0  0  0  0  0  0  0  0  0
  -21.4572  -26.7345   13.6554 C   0  0  0  0  0  0  0  0  0  0  0  0
  -23.0029  -25.7180   15.7348 C   0  0  0  0  0  0  0  0  0  0  0  0
  -22.5398  -22.6254   19.7181 C   0  0  0  0  0  0  0  0  0  0  0  0
  -22.2430   -8.7567   20.2634 C   0  0  0  0  0  0  0  0  0  0  0  0
  -22.9988   -8.8052   22.5577 C   0  0  0  0  0  0  0  0  0  0  0  0
  -23.6624  -21.8827   20.0814 C   0  0  0  0  0  0  0  0  0  0  0  0
  -23.2492   -5.4683   22.0748 C   0  0  0  0  0  0  0  0  0  0  0  0
  -23.8506   -4.4516   22.8167 C   0  0  0  0  0  0  0  0  0  0  0  0
  -24.1363  -23.4687   21.8362 C   0  0  0  0  0  0  0  0  0  0  0  0
  -29.4529  -19.6480   21.5669 C   0  0  0  0  0  0  0  0  0  0  0  0
  -28.0621  -17.9627   22.5976 C   0  0  0  0  0  0  0  0  0  0  0  0
  -22.1484   -4.6842   24.5154 C   0  0  0  0  0  0  0  0  0  0  0  0
  -23.7589  -10.4879   20.9996 C   0  0  0  0  0  0  0  0  0  0  0  0
  -24.1324  -13.0053   20.8242 C   0  0  0  0  0  0  0  0  0  0  0  0
  -21.5063  -27.4244   14.8770 C   0  0  0  0  0  0  0  0  0  0  0  0
  -22.2127  -23.8032   20.4052 C   0  0  0  0  0  0  0  0  0  0  0  0
  -22.2959  -26.9171   15.9266 C   0  0  0  0  0  0  0  0  0  0  0  0
  -23.0076  -24.2232   21.4813 C   0  0  0  0  0  0  0  0  0  0  0  0
  -29.3257  -18.4955   22.3422 C   0  0  0  0  0  0  0  0  0  0  0  0
  -28.3166  -20.2678   21.0469 C   0  0  0  0  0  0  0  0  0  0  0  0
  -26.9257  -18.5825   22.0776 C   0  0  0  0  0  0  0  0  0  0  0  0
  -27.0530  -19.7350   21.3022 C   0  0  0  0  0  0  0  0  0  0  0  0
  -22.2415   -8.2119   21.5475 C   0  0  0  0  0  0  0  0  0  0  0  0
  -24.4624  -22.3058   21.1387 C   0  0  0  0  0  0  0  0  0  0  0  0
  -22.0975   -6.0930   22.5533 C   0  0  0  0  0  0  0  0  0  0  0  0
  -23.3002   -4.0596   24.0369 C   0  0  0  0  0  0  0  0  0  0  0  0
  -21.5471   -5.7010   23.7736 C   0  0  0  0  0  0  0  0  0  0  0  0
  -24.5432  -11.6631   20.7170 C   0  0  0  0  0  0  0  0  0  0  0  0
  -25.2345  -13.7329   20.4466 C   0  0  0  0  0  0  0  0  0  0  0  0
  -22.8677  -13.5460   21.2289 C   0  0  0  0  0  0  0  0  0  0  0  0
  -21.9538  -26.8687   19.6054 C   0  0  0  0  0  0  0  0  0  0  0  0
  -30.7500  -14.6231   20.7220 C   0  0  0  0  0  0  0  0  0  0  0  0
  -20.8607  -27.1668   22.6449 C   0  0  0  0  0  0  0  0  0  0  0  0
  -20.7663  -25.9300   25.8242 C   0  0  0  0  0  0  0  0  0  0  0  0
  -20.7614  -28.7297   15.0040 C   0  0  0  0  0  0  0  0  0  0  0  0
  -20.9834  -24.5787   20.0181 C   0  0  0  0  0  0  0  0  0  0  0  0
  -22.6882  -25.4695   22.2642 C   0  0  0  0  0  0  0  0  0  0  0  0
  -20.5854  -29.1925   16.4480 C   0  0  0  0  0  0  0  0  0  0  0  0
  -29.5611  -12.2863   18.2795 C   0  0  0  0  0  0  0  0  0  0  0  0
  -21.9003  -29.0707   17.2116 C   0  0  0  0  0  0  0  0  0  0  0  0
  -28.1261  -12.0032   18.7222 C   0  0  0  0  0  0  0  0  0  0  0  0
  -30.4819  -12.5041   19.4761 C   0  0  0  0  0  0  0  0  0  0  0  0
  -28.5854  -13.2934   20.8552 C   0  0  0  0  0  0  0  0  0  0  0  0
  -22.3724  -27.6128   17.2683 C   0  0  1  0  0  0  0  0  0  0  0  0
  -21.0352  -26.0389   20.4570 C   0  0  1  0  0  0  0  0  0  0  0  0
  -27.6158  -13.0977   19.6762 C   0  0  2  0  0  0  0  0  0  0  0  0
  -28.4802  -21.5002   20.2187 C   0  0  0  0  0  0  0  0  0  0  0  0
  -25.5840  -17.9919   22.3655 C   0  0  0  0  0  0  0  0  0  0  0  0
  -19.8215  -26.4125   28.0984 C   0  0  0  0  0  0  0  0  0  0  0  0
  -22.9645  -29.3384   23.0554 C   0  0  0  0  0  0  0  0  0  0  0  0
  -22.6245  -29.1035   25.5247 C   0  0  0  0  0  0  0  0  0  0  0  0
  -20.7352  -29.8401   24.0719 C   0  0  0  0  0  0  0  0  0  0  0  0
  -19.2263  -23.4028   25.8483 C   0  0  0  0  0  0  0  0  0  0  0  0
  -30.5405  -17.8333   22.8987 C   0  0  0  0  0  0  0  0  0  0  0  0
  -25.8309  -20.4016   20.7424 C   0  0  0  0  0  0  0  0  0  1  0  0
  -30.1328  -15.6456   21.6426 C   0  0  0  0  0  0  0  0  0  0  0  0
  -31.1148  -16.7739   21.9422 C   0  0  0  0  0  0  0  0  0  0  0  0
  -21.4963  -27.4306   23.9885 C   0  0  1  0  0  0  0  0  0  0  0  0
  -19.6096  -25.6893   26.7775 C   0  0  2  0  0  0  0  0  0  0  0  0
  -21.9625  -28.9056   24.1443 C   0  0  0  0  0  0  0  0  0  0  0  0
  -25.8076  -11.5422   20.3036 N   0  0  0  0  0  0  0  0  0  0  0  0
  -26.2007  -12.8178   20.1476 N   0  0  0  0  0  0  0  0  0  0  0  0
  -21.4793  -26.1969   21.8434 N   0  0  0  0  0  0  0  0  0  0  0  0
  -29.9511  -13.5352   20.3695 N   0  0  0  0  0  0  0  0  0  0  0  0
  -25.4616  -15.0597   20.3445 N   0  0  0  0  0  0  0  0  0  0  0  0
  -21.8440  -12.6572   21.5842 N   0  0  0  0  0  0  0  0  0  0  0  0
  -21.6226  -26.8772   18.2639 N   0  0  0  0  0  0  0  0  0  0  0  0
  -20.5263  -27.0015   24.9902 N   0  0  0  0  0  0  0  0  0  0  0  0
  -19.4634  -24.2329   27.0573 N   0  3  0  0  0  0  0  0  0  0  0  0
  -22.6467  -14.7805   21.2584 O   0  0  0  0  0  0  0  0  0  0  0  0
  -22.8926  -27.4588   20.1270 O   0  0  0  0  0  0  0  0  0  0  0  0
  -31.9069  -14.7894   20.3268 O   0  0  0  0  0  0  0  0  0  0  0  0
  -19.8484  -27.7930   22.3214 O   0  0  0  0  0  0  0  0  0  0  0  0
  -21.7827  -25.2390   25.8223 O   0  0  0  0  0  0  0  0  0  0  0  0
  -21.5011   -7.1017   21.8153 O   0  0  0  0  0  0  0  0  0  0  0  0
  -25.5591  -21.5831   21.4950 O   0  0  0  0  0  0  0  0  0  1  0  0
  -23.8769   -3.0822   24.7484 F   0  0  0  0  0  0  0  0  0  0  0  0
  -20.4400   -6.2966   24.2378 F   0  0  0  0  0  0  0  0  0  0  0  0
  1  2  1  0  0  0  0
  1  5  2  0  0  0  0
  2  6  2  0  0  0  0
  3  8  2  0  0  0  0
  3 17  1  0  0  0  0
  4  9  1  0  0  0  0
  4 17  2  0  0  0  0
  5 19  1  0  0  0  0
  6 21  1  0  0  0  0
  7 10  2  0  0  0  0
  7 20  1  0  0  0  0
  8 27  1  0  0  0  0
  9 27  2  0  0  0  0
 10 28  1  0  0  0  0
 11 12  2  0  0  0  0
 11 29  1  0  0  0  0
 12 30  1  0  0  0  0
 13 22  1  0  0  0  0
 13 28  2  0  0  0  0
 14 23  1  0  0  0  0
 14 24  2  0  0  0  0
 15 23  2  0  0  0  0
 15 25  1  0  0  0  0
 16 30  2  0  0  0  0
 16 31  1  0  0  0  0
 17 32  1  0  0  0  0
 18 32  1  0  0  0  0
 18 33  2  0  0  0  0
 18 34  1  0  0  0  0
 19 21  2  0  0  0  0
 19 39  1  0  0  0  0
 20 22  2  0  0  0  0
 20 40  1  0  0  0  0
 21 48  1  0  0  0  0
 22 41  1  0  0  0  0
 23 58  1  0  0  0  0
 24 26  1  0  0  0  0
 24 51  1  0  0  0  0
 25 26  2  0  0  0  0
 25 52  1  0  0  0  0
 26 59  1  0  0  0  0
 27 79  1  0  0  0  0
 28 80  1  0  0  0  0
 29 31  2  0  0  0  0
 29 79  1  0  0  0  0
 30 81  1  0  0  0  0
 31 82  1  0  0  0  0
 32 65  2  0  0  0  0
 33 66  1  0  0  0  0
 33 69  1  0  0  0  0
 34 70  1  0  0  0  0
 34 74  2  0  0  0  0
 35 49  1  0  0  0  0
 35 71  1  0  0  0  0
 35 75  2  0  0  0  0
 36 60  1  0  0  0  0
 36 68  1  0  0  0  0
 36 76  2  0  0  0  0
 37 62  1  0  0  0  0
 37 67  1  0  0  0  0
 37 77  2  0  0  0  0
 38 63  1  0  0  0  0
 38 72  1  0  0  0  0
 38 78  2  0  0  0  0
 39 42  1  0  0  0  0
 40 49  1  0  0  0  0
 41 67  1  0  0  0  0
 42 44  1  0  0  0  0
 43 45  1  0  0  0  0
 43 46  1  0  0  0  0
 44 48  1  0  0  0  0
 45 50  1  0  0  0  0
 46 68  1  0  0  0  0
 47 50  1  0  0  0  0
 47 68  1  0  0  0  0
 48 71  1  0  0  0  0
 49 67  1  0  0  0  0
 50 66  1  0  0  0  0
 53 63  1  0  0  0  0
 54 64  1  0  0  0  0
 55 64  1  0  0  0  0
 56 64  1  0  0  0  0
 57 73  1  0  0  0  0
 58 61  1  0  0  0  0
 59 80  1  0  0  0  0
 60 61  1  0  0  0  0
 62 64  1  0  0  0  0
 62 72  1  0  0  0  0
 63 73  1  0  0  0  0
 65 66  1  0  0  0  0
M  CHG  1  73   1
M  ISO  4  36 100  59 101  60 100  80 101
M  END
> <Batch ID>
0038

> <Smiles>
CNC(C)C(=O)NC(C(=O)N1Cc2cc([101O:1][101CH2:1]c3c(C)cc(CC[100CH2:0][100C:0](=O)N4CCCC(n5nc(-c6ccc(Oc7ccc(F)cc7F)cc6)c(C(N)=O)c5N)C4)cc3C)ccc2CC1C(=O)NC1CCCc2ccccc21)C(C)(C)C

> <Shape>
0.248

> <Color>
0.209

> <Negative vol penalty>
0.000

$$$$

  -OEChem-04052317013D

 84 92  0     1  0  0  0  0  0999 V2000
  -29.5751  -32.7836   21.0644 C   0  0  0  0  0  0  0  0  0  0  0  0
  -29.3194  -31.4350   21.2911 C   0  0  0  0  0  0  0  0  0  0  0  0
  -22.9028  -10.0937   19.9858 C   0  0  0  0  0  0  0  0  0  0  0  0
  -24.0471   -9.4479   22.0133 C   0  0  0  0  0  0  0  0  0  0  0  0
  -28.5805  -33.7305   21.3052 C   0  0  0  0  0  0  0  0  0  0  0  0
  -28.0692  -31.0327   21.7598 C   0  0  0  0  0  0  0  0  0  0  0  0
  -26.2804  -26.9863   19.2957 C   0  0  0  0  0  0  0  0  0  0  0  0
  -22.1602   -8.9138   20.0291 C   0  0  0  0  0  0  0  0  0  0  0  0
  -23.3045   -8.2680   22.0566 C   0  0  0  0  0  0  0  0  0  0  0  0
  -26.8044  -25.7433   19.6479 C   0  0  0  0  0  0  0  0  0  0  0  0
  -23.3391   -5.2456   20.5416 C   0  0  0  0  0  0  0  0  0  0  0  0
  -24.0208   -4.0607   20.8187 C   0  0  0  0  0  0  0  0  0  0  0  0
  -24.8582  -25.3148   21.0073 C   0  0  0  0  0  0  0  0  0  0  0  0
  -29.0370  -20.4996   22.5202 C   0  0  0  0  0  0  0  0  0  0  0  0
  -28.4965  -19.6026   20.3431 C   0  0  0  0  0  0  0  0  0  0  0  0
  -22.6499   -3.7309   22.7806 C   0  0  0  0  0  0  0  0  0  0  0  0
  -23.8463  -10.3608   20.9779 C   0  0  0  0  0  0  0  0  0  0  0  0
  -24.2799  -12.8163   21.5163 C   0  0  0  0  0  0  0  0  0  0  0  0
  -27.3144  -33.3387   21.7680 C   0  0  0  0  0  0  0  0  0  0  0  0
  -25.0443  -27.4082   19.8061 C   0  0  0  0  0  0  0  0  0  0  0  0
  -27.0572  -31.9755   22.0084 C   0  0  0  0  0  0  0  0  0  0  0  0
  -24.3195  -26.5625   20.6580 C   0  0  0  0  0  0  0  0  0  0  0  0
  -28.9407  -19.4126   21.6516 C   0  0  0  0  0  0  0  0  0  0  0  0
  -28.6890  -21.7768   22.0804 C   0  0  0  0  0  0  0  0  0  0  0  0
  -28.1485  -20.8798   19.9032 C   0  0  0  0  0  0  0  0  0  0  0  0
  -28.2448  -21.9669   20.7719 C   0  0  0  0  0  0  0  0  0  0  0  0
  -22.3611   -8.0009   21.0644 C   0  0  0  0  0  0  0  0  0  0  0  0
  -26.0947  -24.9085   20.5061 C   0  0  0  0  0  0  0  0  0  0  0  0
  -22.3128   -5.6733   21.3840 C   0  0  0  0  0  0  0  0  0  0  0  0
  -23.6762   -3.3033   21.9382 C   0  0  0  0  0  0  0  0  0  0  0  0
  -21.9682   -4.9159   22.5035 C   0  0  0  0  0  0  0  0  0  0  0  0
  -24.6141  -11.5793   20.9335 C   0  0  0  0  0  0  0  0  0  0  0  0
  -25.3267  -13.6436   21.1900 C   0  0  0  0  0  0  0  0  0  0  0  0
  -23.1265  -13.1848   22.2841 C   0  0  0  0  0  0  0  0  0  0  0  0
  -24.0792  -29.8198   21.6383 C   0  0  0  0  0  0  0  0  0  0  0  0
  -21.1319  -28.6570   20.9426 C   0  0  0  0  0  0  0  0  0  0  0  0
  -19.2172  -25.9970   19.9911 C   0  0  0  0  0  0  0  0  0  0  0  0
  -30.8020  -14.5920   20.6737 C   0  0  0  0  0  0  0  0  0  0  0  0
  -26.2864  -34.4033   22.0589 C   0  0  0  0  0  0  0  0  0  0  0  0
  -24.4804  -28.7407   19.3953 C   0  0  0  0  0  0  0  0  0  0  0  0
  -22.9787  -26.9601   21.2171 C   0  0  0  0  0  0  0  0  0  0  0  0
  -24.8675  -33.8579   22.1982 C   0  0  0  0  0  0  0  0  0  0  0  0
  -29.1588  -12.9846   17.9548 C   0  0  0  0  0  0  0  0  0  0  0  0
  -24.8556  -32.6234   23.0940 C   0  0  0  0  0  0  0  0  0  0  0  0
  -27.8057  -12.5725   18.5372 C   0  0  0  0  0  0  0  0  0  0  0  0
  -30.2790  -12.8570   18.9848 C   0  0  0  0  0  0  0  0  0  0  0  0
  -28.6818  -13.1519   20.8384 C   0  0  0  0  0  0  0  0  0  0  0  0
  -25.7057  -31.4975   22.4930 C   0  0  1  0  0  0  0  0  0  0  0  0
  -23.4519  -29.2842   20.3823 C   0  0  1  0  0  0  0  0  0  0  0  0
  -27.5117  -13.3168   19.8535 C   0  0  2  0  0  0  0  0  0  0  0  0
  -28.8022  -22.9244   23.0301 C   0  0  0  0  0  0  0  0  0  0  0  0
  -26.1619  -21.2249   18.4130 C   0  0  0  0  0  0  0  0  0  0  0  0
  -16.8358  -25.3434   19.5450 C   0  0  0  0  0  0  0  0  0  0  0  0
  -20.5984  -28.5606   23.9453 C   0  0  0  0  0  0  0  0  0  0  0  0
  -18.6536  -27.0539   23.4809 C   0  0  0  0  0  0  0  0  0  0  0  0
  -18.6756  -29.3760   22.5698 C   0  0  0  0  0  0  0  0  0  0  0  0
  -19.8091  -25.3212   17.1712 C   0  0  0  0  0  0  0  0  0  0  0  0
  -29.3120  -18.0470   22.1220 C   0  0  0  0  0  0  0  0  0  0  0  0
  -27.6758  -21.0567   18.4971 C   0  0  0  0  0  0  0  0  0  0  0  0
  -27.8711  -23.3409   20.2989 C   0  0  0  0  0  0  0  0  0  1  0  0
  -30.7931  -17.6784   21.9059 C   0  0  0  0  0  0  0  0  0  0  0  0
  -31.1811  -16.2992   22.4347 C   0  0  0  0  0  0  0  0  0  0  0  0
  -20.2109  -27.6361   21.5660 C   0  0  1  0  0  0  0  0  0  0  0  0
  -18.1305  -25.8630   18.9396 C   0  0  2  0  0  0  0  0  0  0  0  0
  -19.5608  -28.1497   22.8817 C   0  0  0  0  0  0  0  0  0  0  0  0
  -25.7817  -11.6131   20.2858 N   0  0  0  0  0  0  0  0  0  0  0  0
  -26.1904  -12.8815   20.4597 N   0  0  0  0  0  0  0  0  0  0  0  0
  -22.4725  -28.2752   20.7910 N   0  0  0  0  0  0  0  0  0  0  0  0
  -29.9385  -13.5865   20.2087 N   0  0  0  0  0  0  0  0  0  0  0  0
  -25.5833  -14.9413   21.4594 N   0  0  0  0  0  0  0  0  0  0  0  0
  -22.1467  -12.2123   22.5265 N   0  0  0  0  0  0  0  0  0  0  0  0
  -24.9879  -30.8383   21.4231 N   0  0  0  0  0  0  0  0  0  0  0  0
  -19.2521  -27.2654   20.5308 N   0  0  0  0  0  0  0  0  0  0  0  0
  -30.4015  -15.2383   21.8367 N   0  0  0  0  0  0  0  0  0  0  0  0
  -18.5599  -24.9204   17.8681 N   0  3  0  0  0  0  0  0  0  0  0  0
  -22.9615  -14.3464   22.7278 O   0  0  0  0  0  0  0  0  0  0  0  0
  -23.7611  -29.3452   22.7224 O   0  0  0  0  0  0  0  0  0  0  0  0
  -20.6772  -29.7501   20.5963 O   0  0  0  0  0  0  0  0  0  0  0  0
  -19.9584  -25.0683   20.3051 O   0  0  0  0  0  0  0  0  0  0  0  0
  -31.8494  -14.8953   20.0924 O   0  0  0  0  0  0  0  0  0  0  0  0
  -21.6365   -6.8495   21.1071 O   0  0  0  0  0  0  0  0  0  0  0  0
  -26.6042  -23.6950   20.8521 O   0  0  0  0  0  0  0  0  0  1  0  0
  -24.3299   -2.1647   22.2033 F   0  0  0  0  0  0  0  0  0  0  0  0
  -20.9824   -5.3210   23.3158 F   0  0  0  0  0  0  0  0  0  0  0  0
  1  2  1  0  0  0  0
  1  5  2  0  0  0  0
  2  6  2  0  0  0  0
  3  8  2  0  0  0  0
  3 17  1  0  0  0  0
  4  9  1  0  0  0  0
  4 17  2  0  0  0  0
  5 19  1  0  0  0  0
  6 21  1  0  0  0  0
  7 10  2  0  0  0  0
  7 20  1  0  0  0  0
  8 27  1  0  0  0  0
  9 27  2  0  0  0  0
 10 28  1  0  0  0  0
 11 12  2  0  0  0  0
 11 29  1  0  0  0  0
 12 30  1  0  0  0  0
 13 22  1  0  0  0  0
 13 28  2  0  0  0  0
 14 23  1  0  0  0  0
 14 24  2  0  0  0  0
 15 23  2  0  0  0  0
 15 25  1  0  0  0  0
 16 30  2  0  0  0  0
 16 31  1  0  0  0  0
 17 32  1  0  0  0  0
 18 32  1  0  0  0  0
 18 33  2  0  0  0  0
 18 34  1  0  0  0  0
 19 21  2  0  0  0  0
 19 39  1  0  0  0  0
 20 22  2  0  0  0  0
 20 40  1  0  0  0  0
 21 48  1  0  0  0  0
 22 41  1  0  0  0  0
 23 58  1  0  0  0  0
 24 26  1  0  0  0  0
 24 51  1  0  0  0  0
 25 26  2  0  0  0  0
 25 59  1  0  0  0  0
 26 60  1  0  0  0  0
 27 81  1  0  0  0  0
 28 82  1  0  0  0  0
 29 31  2  0  0  0  0
 29 81  1  0  0  0  0
 30 83  1  0  0  0  0
 31 84  1  0  0  0  0
 32 66  2  0  0  0  0
 33 67  1  0  0  0  0
 33 70  1  0  0  0  0
 34 71  1  0  0  0  0
 34 76  2  0  0  0  0
 35 49  1  0  0  0  0
 35 72  1  0  0  0  0
 35 77  2  0  0  0  0
 36 63  1  0  0  0  0
 36 68  1  0  0  0  0
 36 78  2  0  0  0  0
 37 64  1  0  0  0  0
 37 73  1  0  0  0  0
 37 79  2  0  0  0  0
 38 69  1  0  0  0  0
 38 74  1  0  0  0  0
 38 80  2  0  0  0  0
 39 42  1  0  0  0  0
 40 49  1  0  0  0  0
 41 68  1  0  0  0  0
 42 44  1  0  0  0  0
 43 45  1  0  0  0  0
 43 46  1  0  0  0  0
 44 48  1  0  0  0  0
 45 50  1  0  0  0  0
 46 69  1  0  0  0  0
 47 50  1  0  0  0  0
 47 69  1  0  0  0  0
 48 72  1  0  0  0  0
 49 68  1  0  0  0  0
 50 67  1  0  0  0  0
 52 59  1  0  0  0  0
 53 64  1  0  0  0  0
 54 65  1  0  0  0  0
 55 65  1  0  0  0  0
 56 65  1  0  0  0  0
 57 75  1  0  0  0  0
 58 61  1  0  0  0  0
 60 82  1  0  0  0  0
 61 62  1  0  0  0  0
 62 74  1  0  0  0  0
 63 65  1  0  0  0  0
 63 73  1  0  0  0  0
 64 75  1  0  0  0  0
 66 67  1  0  0  0  0
M  CHG  1  75   1
M  ISO  4  38 100  60 101  74 100  82 101
M  END
> <Batch ID>
0038

> <Smiles>
CCc1cc(CCC[100NH:0][100C:0](=O)N2CCCC(n3nc(-c4ccc(Oc5ccc(F)cc5F)cc4)c(C(N)=O)c3N)C2)cc(C)c1[101CH2:1][101O:1]c1ccc2c(c1)CN(C(=O)C(NC(=O)C(C)NC)C(C)(C)C)C(C(=O)NC1CCCc3ccccc31)C2

> <Shape>
0.355

> <Color>
0.149

> <Negative vol penalty>
0.000

$$$$

  -OEChem-04052317013D

 87 95  0     1  0  0  0  0  0999 V2000
  -26.0882  -18.0184   27.9186 C   0  0  0  0  0  0  0  0  0  0  0  0
  -25.9973  -19.3898   27.7034 C   0  0  0  0  0  0  0  0  0  0  0  0
  -26.1878  -14.1380   21.3964 C   0  0  0  0  0  0  0  0  0  0  0  0
  -24.3916  -13.8284   19.8105 C   0  0  0  0  0  0  0  0  0  0  0  0
  -27.0902  -17.2802   27.2901 C   0  0  0  0  0  0  0  0  0  0  0  0
  -26.9090  -20.0241   26.8603 C   0  0  0  0  0  0  0  0  0  0  0  0
  -25.8106  -24.7801   23.1617 C   0  0  0  0  0  0  0  0  0  0  0  0
  -26.3359  -12.7548   21.4986 C   0  0  0  0  0  0  0  0  0  0  0  0
  -24.5398  -12.4452   19.9126 C   0  0  0  0  0  0  0  0  0  0  0  0
  -26.0379  -26.1486   23.3008 C   0  0  0  0  0  0  0  0  0  0  0  0
  -24.2039   -8.8280   20.0277 C   0  0  0  0  0  0  0  0  0  0  0  0
  -23.0468   -8.0597   20.1557 C   0  0  0  0  0  0  0  0  0  0  0  0
  -28.1128  -25.9207   22.0916 C   0  0  0  0  0  0  0  0  0  0  0  0
  -25.2403  -30.2744   22.3199 C   0  0  0  0  0  0  0  0  0  0  0  0
  -22.4972   -9.2277   22.1980 C   0  0  0  0  0  0  0  0  0  0  0  0
  -25.7968  -30.1770   20.0201 C   0  0  0  0  0  0  0  0  0  0  0  0
  -25.2156  -14.6748   20.5523 C   0  0  0  0  0  0  0  0  0  0  0  0
  -25.7119  -16.9640   19.5420 C   0  0  0  0  0  0  0  0  0  0  0  0
  -28.0087  -17.9042   26.4312 C   0  0  0  0  0  0  0  0  0  0  0  0
  -26.7395  -23.9685   22.4949 C   0  0  0  0  0  0  0  0  0  0  0  0
  -27.9250  -19.2938   26.2207 C   0  0  0  0  0  0  0  0  0  0  0  0
  -27.8937  -24.5427   21.9432 C   0  0  0  0  0  0  0  0  0  0  0  0
  -26.2109  -30.1942   21.3368 C   0  0  0  0  0  0  0  0  0  0  0  0
  -25.5120  -11.9084   20.7567 C   0  0  0  0  0  0  0  0  0  0  0  0
  -27.1905  -26.7186   22.7683 C   0  0  0  0  0  0  0  0  0  0  0  0
  -24.5077   -9.7962   20.9849 C   0  0  0  0  0  0  0  0  0  0  0  0
  -22.1934   -8.2596   21.2408 C   0  0  0  0  0  0  0  0  0  0  0  0
  -23.6543   -9.9960   22.0700 C   0  0  0  0  0  0  0  0  0  0  0  0
  -25.0616  -16.1035   20.4467 C   0  0  0  0  0  0  0  0  0  0  0  0
  -23.9200  -30.3324   21.9212 C   0  0  0  0  0  0  0  0  0  0  0  0
  -25.2268  -18.2124   19.8465 C   0  0  0  0  0  0  0  0  0  0  0  0
  -26.6688  -16.6619   18.5179 C   0  0  0  0  0  0  0  0  0  0  0  0
  -28.5563  -21.4943   23.3203 C   0  0  0  0  0  0  0  0  0  0  0  0
  -29.2543  -21.4489   20.1528 C   0  0  0  0  0  0  0  0  0  0  0  0
  -29.4447  -23.1550   17.2033 C   0  0  0  0  0  0  0  0  0  0  0  0
  -20.3624  -20.7166   21.4211 C   0  0  0  0  0  0  0  0  0  0  0  0
  -29.1036  -17.0724   25.8114 C   0  0  0  0  0  0  0  0  0  0  0  0
  -26.4666  -22.4985   22.3300 C   0  0  0  0  0  0  0  0  0  0  0  0
  -28.9123  -23.7184   21.2006 C   0  0  0  0  0  0  0  0  0  0  0  0
  -29.7999  -17.7584   24.6389 C   0  0  0  0  0  0  0  0  0  0  0  0
  -23.0494  -20.2374   23.7977 C   0  0  0  0  0  0  0  0  0  0  0  0
  -30.1455  -19.2013   24.9932 C   0  0  0  0  0  0  0  0  0  0  0  0
  -23.9103  -19.1978   23.0779 C   0  0  0  0  0  0  0  0  0  0  0  0
  -21.5632  -19.9795   23.5676 C   0  0  0  0  0  0  0  0  0  0  0  0
  -22.0230  -18.8768   21.4121 C   0  0  0  0  0  0  0  0  0  0  0  0
  -28.8802  -20.0138   25.2937 C   0  0  1  0  0  0  0  0  0  0  0  0
  -27.7299  -21.6807   22.0794 C   0  0  1  0  0  0  0  0  0  0  0  0
  -23.5367  -19.0960   21.5871 C   0  0  2  0  0  0  0  0  0  0  0  0
  -29.7739  -23.5222   14.7428 C   0  0  0  0  0  0  0  0  0  0  0  0
  -32.2038  -21.5361   20.9292 C   0  0  0  0  0  0  0  0  0  0  0  0
  -32.7332  -22.1920   18.5717 C   0  0  0  0  0  0  0  0  0  0  0  0
  -31.6674  -19.9861   19.0413 C   0  0  0  0  0  0  0  0  0  0  0  0
  -26.6017  -22.5768   16.6187 C   0  0  0  0  0  0  0  0  0  0  0  0
  -27.6762  -30.1274   21.6928 C   0  0  0  0  0  0  0  0  0  0  0  0
  -22.8362  -30.4202   22.9402 C   0  0  0  0  0  0  0  0  0  0  0  0
  -22.2980  -29.0582   23.4174 C   0  0  0  0  0  0  0  0  0  0  0  0
  -21.7242  -28.2135   22.2745 C   0  0  0  0  0  0  0  0  0  0  0  0
  -21.2292  -26.8576   22.7842 C   0  0  0  0  0  0  0  0  0  0  0  0
  -20.5799  -25.9984   21.6952 C   0  0  0  0  0  0  0  0  0  0  0  0
  -20.0192  -24.6731   22.2183 C   0  0  0  0  0  0  0  0  0  0  0  0
  -19.3557  -23.8715   21.0932 C   0  0  0  0  0  0  0  0  0  0  0  0
  -18.7240  -22.5728   21.5856 C   0  0  0  0  0  0  0  0  0  0  0  0
  -28.1647  -28.6941   21.8713 C   0  0  0  0  0  0  0  0  0  1  0  0
  -30.2996  -22.0991   19.2790 C   0  0  1  0  0  0  0  0  0  0  0  0
  -28.9525  -22.8135   15.8085 C   0  0  2  0  0  0  0  0  0  0  0  0
  -31.7080  -21.4688   19.4709 C   0  0  0  0  0  0  0  0  0  0  0  0
  -24.4975  -30.2350   19.6588 N   0  0  0  0  0  0  0  0  0  0  0  0
  -24.2272  -16.7505   21.2648 N   0  0  0  0  0  0  0  0  0  0  0  0
  -23.5437  -30.3142   20.6251 N   0  0  0  0  0  0  0  0  0  0  0  0
  -24.3499  -18.0309   20.8752 N   0  0  0  0  0  0  0  0  0  0  0  0
  -28.6035  -22.2847   21.0713 N   0  0  0  0  0  0  0  0  0  0  0  0
  -21.2712  -19.9124   22.1287 N   0  0  0  0  0  0  0  0  0  0  0  0
  -25.4691  -19.4367   19.3320 N   0  0  0  0  0  0  0  0  0  0  0  0
  -27.0574  -15.3272   18.3394 N   0  0  0  0  0  0  0  0  0  0  0  0
  -28.2119  -20.3816   24.0638 N   0  0  0  0  0  0  0  0  0  0  0  0
  -29.7931  -22.0252   17.9128 N   0  0  0  0  0  0  0  0  0  0  0  0
  -19.6862  -21.6682   22.1746 N   0  0  0  0  0  0  0  0  0  0  0  0
  -27.5269  -23.2175   15.6489 N   0  3  0  0  0  0  0  0  0  0  0  0
  -27.1768  -17.5514   17.7938 O   0  0  0  0  0  0  0  0  0  0  0  0
  -29.4420  -22.2994   23.5830 O   0  0  0  0  0  0  0  0  0  0  0  0
  -29.0188  -20.2453   20.0202 O   0  0  0  0  0  0  0  0  0  0  0  0
  -29.5168  -24.3089   17.6203 O   0  0  0  0  0  0  0  0  0  0  0  0
  -20.1716  -20.5990   20.2058 O   0  0  0  0  0  0  0  0  0  0  0  0
  -25.6565  -10.5586   20.8560 O   0  0  0  0  0  0  0  0  0  0  0  0
  -27.4152  -28.0540   22.9032 O   0  0  0  0  0  0  0  0  0  1  0  0
  -21.0815   -7.5228   21.3628 F   0  0  0  0  0  0  0  0  0  0  0  0
  -23.9403  -10.9254   22.9921 F   0  0  0  0  0  0  0  0  0  0  0  0
  1  2  1  0  0  0  0
  1  5  2  0  0  0  0
  2  6  2  0  0  0  0
  3  8  2  0  0  0  0
  3 17  1  0  0  0  0
  4  9  1  0  0  0  0
  4 17  2  0  0  0  0
  5 19  1  0  0  0  0
  6 21  1  0  0  0  0
  7 10  2  0  0  0  0
  7 20  1  0  0  0  0
  8 24  1  0  0  0  0
  9 24  2  0  0  0  0
 10 25  1  0  0  0  0
 11 12  2  0  0  0  0
 11 26  1  0  0  0  0
 12 27  1  0  0  0  0
 13 22  1  0  0  0  0
 13 25  2  0  0  0  0
 14 23  2  0  0  0  0
 14 30  1  0  0  0  0
 15 27  2  0  0  0  0
 15 28  1  0  0  0  0
 16 23  1  0  0  0  0
 16 67  2  0  0  0  0
 17 29  1  0  0  0  0
 18 29  1  0  0  0  0
 18 31  2  0  0  0  0
 18 32  1  0  0  0  0
 19 21  2  0  0  0  0
 19 37  1  0  0  0  0
 20 22  2  0  0  0  0
 20 38  1  0  0  0  0
 21 46  1  0  0  0  0
 22 39  1  0  0  0  0
 23 54  1  0  0  0  0
 24 84  1  0  0  0  0
 25 85  1  0  0  0  0
 26 28  2  0  0  0  0
 26 84  1  0  0  0  0
 27 86  1  0  0  0  0
 28 87  1  0  0  0  0
 29 68  2  0  0  0  0
 30 55  1  0  0  0  0
 30 69  2  0  0  0  0
 31 70  1  0  0  0  0
 31 73  1  0  0  0  0
 32 74  1  0  0  0  0
 32 79  2  0  0  0  0
 33 47  1  0  0  0  0
 33 75  1  0  0  0  0
 33 80  2  0  0  0  0
 34 64  1  0  0  0  0
 34 71  1  0  0  0  0
 34 81  2  0  0  0  0
 35 65  1  0  0  0  0
 35 76  1  0  0  0  0
 35 82  2  0  0  0  0
 36 72  1  0  0  0  0
 36 77  1  0  0  0  0
 36 83  2  0  0  0  0
 37 40  1  0  0  0  0
 38 47  1  0  0  0  0
 39 71  1  0  0  0  0
 40 42  1  0  0  0  0
 41 43  1  0  0  0  0
 41 44  1  0  0  0  0
 42 46  1  0  0  0  0
 43 48  1  0  0  0  0
 44 72  1  0  0  0  0
 45 48  1  0  0  0  0
 45 72  1  0  0  0  0
 46 75  1  0  0  0  0
 47 71  1  0  0  0  0
 48 70  1  0  0  0  0
 49 65  1  0  0  0  0
 50 66  1  0  0  0  0
 51 66  1  0  0  0  0
 52 66  1  0  0  0  0
 53 78  1  0  0  0  0
 54 63  1  0  0  0  0
 55 56  1  0  0  0  0
 56 57  1  0  0  0  0
 57 58  1  0  0  0  0
 58 59  1  0  0  0  0
 59 60  1  0  0  0  0
 60 61  1  0  0  0  0
 61 62  1  0  0  0  0
 62 77  1  0  0  0  0
 63 85  1  0  0  0  0
 64 66  1  0  0  0  0
 64 76  1  0  0  0  0
 65 78  1  0  0  0  0
 67 69  1  0  0  0  0
 68 70  1  0  0  0  0
M  CHG  1  78   1
M  ISO  4  36 100  63 101  77 100  85 101
M  END
> <Batch ID>
0038

> <Smiles>
CNC(C)C(=O)NC(C(=O)N1Cc2cc([101O:1][101CH2:1]Cc3cnnc(CCCCCCCC[100NH:0][100C:0](=O)N4CCCC(n5nc(-c6ccc(Oc7ccc(F)cc7F)cc6)c(C(N)=O)c5N)C4)c3)ccc2CC1C(=O)NC1CCCc2ccccc21)C(C)(C)C

> <Shape>
0.188

> <Color>
0.070

> <Negative vol penalty>
0.000

$$$$

  -OEChem-04052317013D

 88 96  0     1  0  0  0  0  0999 V2000
  -29.1101  -33.2787   25.6520 C   0  0  0  0  0  0  0  0  0  0  0  0
  -29.3094  -32.0715   26.3140 C   0  0  0  0  0  0  0  0  0  0  0  0
  -23.5781   -9.5561   20.8416 C   0  0  0  0  0  0  0  0  0  0  0  0
  -24.2306  -10.2802   23.0522 C   0  0  0  0  0  0  0  0  0  0  0  0
  -28.3571  -33.3133   24.4791 C   0  0  0  0  0  0  0  0  0  0  0  0
  -28.7548  -30.8981   25.8040 C   0  0  0  0  0  0  0  0  0  0  0  0
  -31.1780  -25.2784   26.0323 C   0  0  0  0  0  0  0  0  0  0  0  0
  -23.0190   -8.3997   21.3854 C   0  0  0  0  0  0  0  0  0  0  0  0
  -23.6714   -9.1238   23.5961 C   0  0  0  0  0  0  0  0  0  0  0  0
  -30.9582  -24.1960   26.8832 C   0  0  0  0  0  0  0  0  0  0  0  0
  -21.1008   -5.4293   22.2292 C   0  0  0  0  0  0  0  0  0  0  0  0
  -19.8413   -5.0413   21.7725 C   0  0  0  0  0  0  0  0  0  0  0  0
  -29.4067  -23.2648   25.2879 C   0  0  0  0  0  0  0  0  0  0  0  0
  -30.9400  -19.6665   29.2789 C   0  0  0  0  0  0  0  0  0  0  0  0
  -31.9718  -17.8560   27.4241 C   0  0  0  0  0  0  0  0  0  0  0  0
  -18.9173   -7.1375   22.5401 C   0  0  0  0  0  0  0  0  0  0  0  0
  -24.1840  -10.4964   21.6750 C   0  0  0  0  0  0  0  0  0  0  0  0
  -24.1212  -12.9256   20.8988 C   0  0  0  0  0  0  0  0  0  0  0  0
  -27.8011  -32.1382   23.9492 C   0  0  0  0  0  0  0  0  0  0  0  0
  -30.5044  -25.3677   24.8057 C   0  0  0  0  0  0  0  0  0  0  0  0
  -27.9925  -30.9172   24.6236 C   0  0  0  0  0  0  0  0  0  0  0  0
  -29.6217  -24.3480   24.4222 C   0  0  0  0  0  0  0  0  0  0  0  0
  -32.1839  -19.0752   29.4992 C   0  0  0  0  0  0  0  0  0  0  0  0
  -30.2119  -19.3526   28.1312 C   0  0  0  0  0  0  0  0  0  0  0  0
  -32.6998  -18.1699   28.5718 C   0  0  0  0  0  0  0  0  0  0  0  0
  -30.7278  -18.4473   27.2039 C   0  0  0  0  0  0  0  0  0  0  0  0
  -23.0656   -8.1836   22.7626 C   0  0  0  0  0  0  0  0  0  0  0  0
  -30.0703  -23.1905   26.5123 C   0  0  0  0  0  0  0  0  0  0  0  0
  -21.2686   -6.6713   22.8415 C   0  0  0  0  0  0  0  0  0  0  0  0
  -18.7495   -5.8954   21.9279 C   0  0  0  0  0  0  0  0  0  0  0  0
  -20.1769   -7.5255   22.9968 C   0  0  0  0  0  0  0  0  0  0  0  0
  -24.7622  -11.6908   21.1138 C   0  0  0  0  0  0  0  0  0  0  0  0
  -25.0933  -13.7262   20.3505 C   0  0  0  0  0  0  0  0  0  0  0  0
  -22.7681  -13.3141   21.1704 C   0  0  0  0  0  0  0  0  0  0  0  0
  -28.4424  -27.4187   23.5231 C   0  0  0  0  0  0  0  0  0  0  0  0
  -28.8523  -25.5784   20.8835 C   0  0  0  0  0  0  0  0  0  0  0  0
  -29.7188  -22.5507   19.5685 C   0  0  0  0  0  0  0  0  0  0  0  0
  -30.3299  -15.6534   20.2572 C   0  0  0  0  0  0  0  0  0  0  0  0
  -26.9549  -32.2327   22.7043 C   0  0  0  0  0  0  0  0  0  0  0  0
  -30.7727  -26.5283   23.8873 C   0  0  0  0  0  0  0  0  0  0  0  0
  -28.8889  -24.3866   23.1069 C   0  0  0  0  0  0  0  0  0  0  0  0
  -26.7156  -30.8859   22.0268 C   0  0  0  0  0  0  0  0  0  0  0  0
  -29.6901  -12.5795   18.5783 C   0  0  0  0  0  0  0  0  0  0  0  0
  -26.3142  -29.8343   23.0563 C   0  0  0  0  0  0  0  0  0  0  0  0
  -28.3015  -12.1735   19.0752 C   0  0  0  0  0  0  0  0  0  0  0  0
  -30.5090  -13.2514   19.6783 C   0  0  0  0  0  0  0  0  0  0  0  0
  -28.4584  -13.9899   20.8287 C   0  0  0  0  0  0  0  0  0  0  0  0
  -27.4279  -29.6192   24.0882 C   0  0  1  0  0  0  0  0  0  0  0  0
  -29.6441  -26.7752   22.8910 C   0  0  1  0  0  0  0  0  0  0  0  0
  -27.5749  -13.3585   19.7392 C   0  0  2  0  0  0  0  0  0  0  0  0
  -32.9455  -19.4272   30.7347 C   0  0  0  0  0  0  0  0  0  0  0  0
  -36.5428  -17.8321   28.7225 C   0  0  0  0  0  0  0  0  0  0  0  0
  -29.9193  -21.3378   17.3808 C   0  0  0  0  0  0  0  0  0  0  0  0
  -25.8177  -25.2791   20.7741 C   0  0  0  0  0  0  0  0  0  0  0  0
  -26.1343  -23.3488   19.2113 C   0  0  0  0  0  0  0  0  0  0  0  0
  -26.9126  -25.6254   18.5524 C   0  0  0  0  0  0  0  0  0  0  0  0
  -32.6214  -22.1122   19.9450 C   0  0  0  0  0  0  0  0  0  0  0  0
  -34.0296  -17.5248   28.7861 C   0  0  0  0  0  0  0  0  0  0  0  0
  -29.9661  -18.0953   25.9684 C   0  0  0  0  0  0  0  0  0  0  0  0
  -28.8678  -20.0044   27.9148 C   0  0  0  0  0  0  0  0  0  0  0  0
  -35.1902  -18.4797   28.4715 C   0  0  0  0  0  0  0  0  0  0  0  0
  -30.7630  -18.3960   24.6909 C   0  0  0  0  0  0  0  0  0  0  0  0
  -29.9585  -18.0682   23.4313 C   0  0  0  0  0  0  0  0  0  0  0  0
  -30.7770  -18.3349   22.1646 C   0  0  0  0  0  0  0  0  0  0  0  0
  -29.9984  -18.0303   20.8890 C   0  0  0  0  0  0  0  0  0  0  0  0
  -28.9306  -21.1391   26.8981 C   0  0  0  0  0  0  0  0  0  1  0  0
  -28.1828  -24.3460   20.3249 C   0  0  1  0  0  0  0  0  0  0  0  0
  -30.6421  -22.1771   18.4229 C   0  0  2  0  0  0  0  0  0  0  0  0
  -26.7740  -24.6498   19.7414 C   0  0  0  0  0  0  0  0  0  0  0  0
  -26.0425  -11.7013   20.7331 N   0  0  0  0  0  0  0  0  0  0  0  0
  -26.2137  -12.9524   20.2732 N   0  0  0  0  0  0  0  0  0  0  0  0
  -29.1801  -25.5451   22.2463 N   0  0  0  0  0  0  0  0  0  0  0  0
  -29.7641  -14.3678   20.2656 N   0  0  0  0  0  0  0  0  0  0  0  0
  -25.0903  -15.0096   19.9318 N   0  0  0  0  0  0  0  0  0  0  0  0
  -21.9018  -12.3681   21.7351 N   0  0  0  0  0  0  0  0  0  0  0  0
  -28.4824  -28.7999   23.5304 N   0  0  0  0  0  0  0  0  0  0  0  0
  -29.1179  -23.7744   19.3619 N   0  0  0  0  0  0  0  0  0  0  0  0
  -29.5550  -16.6554   20.8282 N   0  0  0  0  0  0  0  0  0  0  0  0
  -31.8066  -21.3971   18.9293 N   0  3  0  0  0  0  0  0  0  0  0  0
  -22.3354  -14.4611   20.9045 O   0  0  0  0  0  0  0  0  0  0  0  0
  -27.5446  -26.7143   23.9696 O   0  0  0  0  0  0  0  0  0  0  0  0
  -29.0825  -26.5326   20.1364 O   0  0  0  0  0  0  0  0  0  0  0  0
  -29.5450  -21.8275   20.5469 O   0  0  0  0  0  0  0  0  0  0  0  0
  -31.4410  -15.8916   19.7716 O   0  0  0  0  0  0  0  0  0  0  0  0
  -22.5199   -7.0554   23.2936 O   0  0  0  0  0  0  0  0  0  0  0  0
  -29.8535  -22.1332   27.3412 O   0  0  0  0  0  0  0  0  0  1  0  0
  -17.5403   -5.5233   21.4879 F   0  0  0  0  0  0  0  0  0  0  0  0
  -20.3321   -8.7205   23.5831 F   0  0  0  0  0  0  0  0  0  0  0  0
  1  2  1  0  0  0  0
  1  5  2  0  0  0  0
  2  6  2  0  0  0  0
  3  8  2  0  0  0  0
  3 17  1  0  0  0  0
  4  9  1  0  0  0  0
  4 17  2  0  0  0  0
  5 19  1  0  0  0  0
  6 21  1  0  0  0  0
  7 10  2  0  0  0  0
  7 20  1  0  0  0  0
  8 27  1  0  0  0  0
  9 27  2  0  0  0  0
 10 28  1  0  0  0  0
 11 12  2  0  0  0  0
 11 29  1  0  0  0  0
 12 30  1  0  0  0  0
 13 22  1  0  0  0  0
 13 28  2  0  0  0  0
 14 23  1  0  0  0  0
 14 24  2  0  0  0  0
 15 25  1  0  0  0  0
 15 26  2  0  0  0  0
 16 30  2  0  0  0  0
 16 31  1  0  0  0  0
 17 32  1  0  0  0  0
 18 32  1  0  0  0  0
 18 33  2  0  0  0  0
 18 34  1  0  0  0  0
 19 21  2  0  0  0  0
 19 39  1  0  0  0  0
 20 22  2  0  0  0  0
 20 40  1  0  0  0  0
 21 48  1  0  0  0  0
 22 41  1  0  0  0  0
 23 25  2  0  0  0  0
 23 51  1  0  0  0  0
 24 26  1  0  0  0  0
 24 60  1  0  0  0  0
 25 58  1  0  0  0  0
 26 59  1  0  0  0  0
 27 85  1  0  0  0  0
 28 86  1  0  0  0  0
 29 31  2  0  0  0  0
 29 85  1  0  0  0  0
 30 87  1  0  0  0  0
 31 88  1  0  0  0  0
 32 70  2  0  0  0  0
 33 71  1  0  0  0  0
 33 74  1  0  0  0  0
 34 75  1  0  0  0  0
 34 80  2  0  0  0  0
 35 49  1  0  0  0  0
 35 76  1  0  0  0  0
 35 81  2  0  0  0  0
 36 67  1  0  0  0  0
 36 72  1  0  0  0  0
 36 82  2  0  0  0  0
 37 68  1  0  0  0  0
 37 77  1  0  0  0  0
 37 83  2  0  0  0  0
 38 73  1  0  0  0  0
 38 78  1  0  0  0  0
 38 84  2  0  0  0  0
 39 42  1  0  0  0  0
 40 49  1  0  0  0  0
 41 72  1  0  0  0  0
 42 44  1  0  0  0  0
 43 45  1  0  0  0  0
 43 46  1  0  0  0  0
 44 48  1  0  0  0  0
 45 50  1  0  0  0  0
 46 73  1  0  0  0  0
 47 50  1  0  0  0  0
 47 73  1  0  0  0  0
 48 76  1  0  0  0  0
 49 72  1  0  0  0  0
 50 71  1  0  0  0  0
 52 61  1  0  0  0  0
 53 68  1  0  0  0  0
 54 69  1  0  0  0  0
 55 69  1  0  0  0  0
 56 69  1  0  0  0  0
 57 79  1  0  0  0  0
 58 61  1  0  0  0  0
 59 62  1  0  0  0  0
 60 66  1  0  0  0  0
 62 63  1  0  0  0  0
 63 64  1  0  0  0  0
 64 65  1  0  0  0  0
 65 78  1  0  0  0  0
 66 86  1  0  0  0  0
 67 69  1  0  0  0  0
 67 77  1  0  0  0  0
 68 79  1  0  0  0  0
 70 71  1  0  0  0  0
M  CHG  1  79   1
M  ISO  4  38 100  66 101  78 100  86 101
M  END
> <Batch ID>
0038

> <Smiles>
CCCc1cc(CCCCC[100NH:0][100C:0](=O)N2CCCC(n3nc(-c4ccc(Oc5ccc(F)cc5F)cc4)c(C(N)=O)c3N)C2)c(C[101CH2:1][101O:1]c2ccc3c(c2)CN(C(=O)C(NC(=O)C(C)NC)C(C)(C)C)C(C(=O)NC2CCCc4ccccc42)C3)cc1C

> <Shape>
0.241

> <Color>
0.143

> <Negative vol penalty>
0.000

$$$$

  -OEChem-04052317013D

 87 95  0     1  0  0  0  0  0999 V2000
  -18.9732  -30.0748   26.9969 C   0  0  0  0  0  0  0  0  0  0  0  0
  -20.1328  -29.3227   26.8390 C   0  0  0  0  0  0  0  0  0  0  0  0
  -23.0963   -9.8498   20.7577 C   0  0  0  0  0  0  0  0  0  0  0  0
  -23.7580  -10.4760   22.9953 C   0  0  0  0  0  0  0  0  0  0  0  0
  -18.1215  -30.2767   25.9117 C   0  0  0  0  0  0  0  0  0  0  0  0
  -20.4409  -28.7711   25.5960 C   0  0  0  0  0  0  0  0  0  0  0  0
  -26.0192  -28.0147   23.1842 C   0  0  0  0  0  0  0  0  0  0  0  0
  -22.3482   -8.7922   21.2748 C   0  0  0  0  0  0  0  0  0  0  0  0
  -23.0099   -9.4184   23.5125 C   0  0  0  0  0  0  0  0  0  0  0  0
  -26.8689  -26.9116   23.1137 C   0  0  0  0  0  0  0  0  0  0  0  0
  -19.7630   -8.7569   24.1766 C   0  0  0  0  0  0  0  0  0  0  0  0
  -18.9573   -9.0163   25.2851 C   0  0  0  0  0  0  0  0  0  0  0  0
  -26.0445  -26.4259   20.8992 C   0  0  0  0  0  0  0  0  0  0  0  0
  -27.5301  -18.5131   21.6982 C   0  0  0  0  0  0  0  0  0  0  0  0
  -20.1758   -7.3632   26.5577 C   0  0  0  0  0  0  0  0  0  0  0  0
  -23.8013  -10.6917   21.6179 C   0  0  0  0  0  0  0  0  0  0  0  0
  -24.1354  -13.1001   20.8461 C   0  0  0  0  0  0  0  0  0  0  0  0
  -18.4241  -29.7354   24.6523 C   0  0  0  0  0  0  0  0  0  0  0  0
  -25.1664  -28.3258   22.1154 C   0  0  0  0  0  0  0  0  0  0  0  0
  -19.5917  -28.9648   24.4932 C   0  0  0  0  0  0  0  0  0  0  0  0
  -25.1868  -27.5349   20.9577 C   0  0  0  0  0  0  0  0  0  0  0  0
  -26.9995  -19.5890   22.4517 C   0  0  0  0  0  0  0  0  0  0  0  0
  -22.3050   -8.5765   22.6522 C   0  0  0  0  0  0  0  0  0  0  0  0
  -26.8796  -26.1153   21.9722 C   0  0  0  0  0  0  0  0  0  0  0  0
  -20.7752   -7.8006   24.2585 C   0  0  0  0  0  0  0  0  0  0  0  0
  -19.1636   -8.3195   26.4757 C   0  0  0  0  0  0  0  0  0  0  0  0
  -20.9816   -7.1038   25.4490 C   0  0  0  0  0  0  0  0  0  0  0  0
  -24.5747  -11.7840   21.0843 C   0  0  0  0  0  0  0  0  0  0  0  0
  -28.2231  -19.0554   20.6385 C   0  0  0  0  0  0  0  0  0  0  0  0
  -27.3842  -20.7561   21.8294 C   0  0  0  0  0  0  0  0  0  0  0  0
  -25.2383  -13.7440   20.3407 C   0  0  0  0  0  0  0  0  0  0  0  0
  -22.8457  -13.6879   21.0625 C   0  0  0  0  0  0  0  0  0  0  0  0
  -22.0155  -28.5136   21.7410 C   0  0  0  0  0  0  0  0  0  0  0  0
  -22.8227  -29.6351   18.8062 C   0  0  0  0  0  0  0  0  0  0  0  0
  -25.1325  -29.7908   16.2987 C   0  0  0  0  0  0  0  0  0  0  0  0
  -30.7039  -14.8643   20.4692 C   0  0  0  0  0  0  0  0  0  0  0  0
  -17.4489  -29.9410   23.5204 C   0  0  0  0  0  0  0  0  0  0  0  0
  -24.2751  -29.5347   22.1964 C   0  0  0  0  0  0  0  0  0  0  0  0
  -24.3054  -27.8381   19.7746 C   0  0  0  0  0  0  0  0  0  0  0  0
  -18.0384  -29.6363   22.1456 C   0  0  0  0  0  0  0  0  0  0  0  0
  -29.6806  -11.9151   18.7572 C   0  0  0  0  0  0  0  0  0  0  0  0
  -18.7973  -28.3134   22.1715 C   0  0  0  0  0  0  0  0  0  0  0  0
  -28.2275  -11.7234   19.1952 C   0  0  0  0  0  0  0  0  0  0  0  0
  -30.5448  -12.4606   19.8919 C   0  0  0  0  0  0  0  0  0  0  0  0
  -28.5822  -13.5022   20.9584 C   0  0  0  0  0  0  0  0  0  0  0  0
  -19.9729  -28.3708   23.1545 C   0  0  1  0  0  0  0  0  0  0  0  0
  -23.0777  -29.4584   21.2543 C   0  0  1  0  0  0  0  0  0  0  0  0
  -27.6598  -13.0064   19.8316 C   0  0  2  0  0  0  0  0  0  0  0  0
  -25.4921  -30.7516   14.0085 C   0  0  0  0  0  0  0  0  0  0  0  0
  -25.9554  -17.9772   24.0820 C   0  0  0  0  0  0  0  0  0  0  0  0
  -24.7714  -20.1210   23.5002 C   0  0  0  0  0  0  0  0  0  0  0  0
  -26.7806  -20.1503   24.9642 C   0  0  0  0  0  0  0  0  0  0  0  0
  -21.0000  -27.4927   17.6240 C   0  0  0  0  0  0  0  0  0  0  0  0
  -22.1124  -27.8656   15.4122 C   0  0  0  0  0  0  0  0  0  0  0  0
  -20.8530  -29.7229   16.5017 C   0  0  0  0  0  0  0  0  0  0  0  0
  -28.7208  -21.3604   19.8014 C   0  0  0  0  0  0  0  0  0  0  0  0
  -27.4579  -31.3818   17.2045 C   0  0  0  0  0  0  0  0  0  0  0  0
  -28.9666  -18.3855   19.5516 C   0  0  0  0  0  0  0  0  0  0  0  0
  -27.1022  -22.1912   22.1963 C   0  0  0  0  0  0  0  0  0  0  0  0
  -30.4614  -18.1205   19.8510 C   0  0  0  0  0  0  0  0  0  0  0  0
  -28.2919  -22.9080   22.8386 C   0  0  0  0  0  0  0  0  0  0  0  0
  -30.7065  -17.2664   21.0931 C   0  0  0  0  0  0  0  0  0  0  0  0
  -28.0254  -24.3807   23.1272 C   0  0  0  0  0  0  0  0  0  1  0  0
  -23.0825  -29.0097   17.4570 C   0  0  1  0  0  0  0  0  0  0  0  0
  -25.6780  -30.9629   15.5030 C   0  0  2  0  0  0  0  0  0  0  0  0
  -26.1853  -19.4723   23.6779 C   0  0  0  0  0  0  0  0  0  0  0  0
  -21.7773  -28.5156   16.7716 C   0  0  0  0  0  0  0  0  0  0  0  0
  -25.8566  -11.6011   20.7569 N   0  0  0  0  0  0  0  0  0  0  0  0
  -28.1274  -20.4196   20.7283 N   0  0  0  0  0  0  0  0  0  0  0  0
  -26.2323  -12.8108   20.3077 N   0  0  0  0  0  0  0  0  0  0  0  0
  -23.4470  -29.0271   19.9046 N   0  0  0  0  0  0  0  0  0  0  0  0
  -29.9520  -13.6781   20.4508 N   0  0  0  0  0  0  0  0  0  0  0  0
  -25.4450  -15.0118   19.9255 N   0  0  0  0  0  0  0  0  0  0  0  0
  -21.8249  -12.8844   21.5884 N   0  0  0  0  0  0  0  0  0  0  0  0
  -21.0815  -29.0984   22.5747 N   0  0  0  0  0  0  0  0  0  0  0  0
  -23.8253  -29.9995   16.6844 N   0  0  0  0  0  0  0  0  0  0  0  0
  -30.0650  -15.9732   21.0104 N   0  0  0  0  0  0  0  0  0  0  0  0
  -27.1323  -31.1417   15.7751 N   0  3  0  0  0  0  0  0  0  0  0  0
  -22.6012  -14.8859   20.7820 O   0  0  0  0  0  0  0  0  0  0  0  0
  -22.0407  -27.3412   21.3852 O   0  0  0  0  0  0  0  0  0  0  0  0
  -22.0986  -30.6308   18.8818 O   0  0  0  0  0  0  0  0  0  0  0  0
  -25.7983  -28.7886   16.5496 O   0  0  0  0  0  0  0  0  0  0  0  0
  -31.8573  -14.9316   20.0307 O   0  0  0  0  0  0  0  0  0  0  0  0
  -21.5749   -7.5448   23.1572 O   0  0  0  0  0  0  0  0  0  0  0  0
  -27.7075  -25.0377   21.9010 O   0  0  0  0  0  0  0  0  0  1  0  0
  -18.3908   -8.5698   27.5407 F   0  0  0  0  0  0  0  0  0  0  0  0
  -21.9532   -6.1847   25.5341 F   0  0  0  0  0  0  0  0  0  0  0  0
  1  2  1  0  0  0  0
  1  5  2  0  0  0  0
  2  6  2  0  0  0  0
  3  8  2  0  0  0  0
  3 16  1  0  0  0  0
  4  9  1  0  0  0  0
  4 16  2  0  0  0  0
  5 18  1  0  0  0  0
  6 20  1  0  0  0  0
  7 10  2  0  0  0  0
  7 19  1  0  0  0  0
  8 23  1  0  0  0  0
  9 23  2  0  0  0  0
 10 24  1  0  0  0  0
 11 12  2  0  0  0  0
 11 25  1  0  0  0  0
 12 26  1  0  0  0  0
 13 21  1  0  0  0  0
 13 24  2  0  0  0  0
 14 22  1  0  0  0  0
 14 29  2  0  0  0  0
 15 26  2  0  0  0  0
 15 27  1  0  0  0  0
 16 28  1  0  0  0  0
 17 28  1  0  0  0  0
 17 31  2  0  0  0  0
 17 32  1  0  0  0  0
 18 20  2  0  0  0  0
 18 37  1  0  0  0  0
 19 21  2  0  0  0  0
 19 38  1  0  0  0  0
 20 46  1  0  0  0  0
 21 39  1  0  0  0  0
 22 30  2  0  0  0  0
 22 66  1  0  0  0  0
 23 84  1  0  0  0  0
 24 85  1  0  0  0  0
 25 27  2  0  0  0  0
 25 84  1  0  0  0  0
 26 86  1  0  0  0  0
 27 87  1  0  0  0  0
 28 68  2  0  0  0  0
 29 58  1  0  0  0  0
 29 69  1  0  0  0  0
 30 59  1  0  0  0  0
 30 69  1  0  0  0  0
 31 70  1  0  0  0  0
 31 73  1  0  0  0  0
 32 74  1  0  0  0  0
 32 79  2  0  0  0  0
 33 47  1  0  0  0  0
 33 75  1  0  0  0  0
 33 80  2  0  0  0  0
 34 64  1  0  0  0  0
 34 71  1  0  0  0  0
 34 81  2  0  0  0  0
 35 65  1  0  0  0  0
 35 76  1  0  0  0  0
 35 82  2  0  0  0  0
 36 72  1  0  0  0  0
 36 77  1  0  0  0  0
 36 83  2  0  0  0  0
 37 40  1  0  0  0  0
 38 47  1  0  0  0  0
 39 71  1  0  0  0  0
 40 42  1  0  0  0  0
 41 43  1  0  0  0  0
 41 44  1  0  0  0  0
 42 46  1  0  0  0  0
 43 48  1  0  0  0  0
 44 72  1  0  0  0  0
 45 48  1  0  0  0  0
 45 72  1  0  0  0  0
 46 75  1  0  0  0  0
 47 71  1  0  0  0  0
 48 70  1  0  0  0  0
 49 65  1  0  0  0  0
 50 66  1  0  0  0  0
 51 66  1  0  0  0  0
 52 66  1  0  0  0  0
 53 67  1  0  0  0  0
 54 67  1  0  0  0  0
 55 67  1  0  0  0  0
 56 69  1  0  0  0  0
 57 78  1  0  0  0  0
 58 60  1  0  0  0  0
 59 61  1  0  0  0  0
 60 62  1  0  0  0  0
 61 63  1  0  0  0  0
 62 77  1  0  0  0  0
 63 85  1  0  0  0  0
 64 67  1  0  0  0  0
 64 76  1  0  0  0  0
 65 78  1  0  0  0  0
 68 70  1  0  0  0  0
M  CHG  1  78   1
M  ISO  4  36 100  63 101  77 100  85 101
M  END
> <Batch ID>
0038

> <Smiles>
CNC(C)C(=O)NC(C(=O)N1Cc2cc([101O:1][101CH2:1]CCc3c(C(C)(C)C)cc(CCC[100NH:0][100C:0](=O)N4CCCC(n5nc(-c6ccc(Oc7ccc(F)cc7F)cc6)c(C(N)=O)c5N)C4)n3C)ccc2CC1C(=O)NC1CCCc2ccccc21)C(C)(C)C

> <Shape>
0.271

> <Color>
0.189

> <Negative vol penalty>
0.000

$$$$

  -OEChem-04052317013D

 86 94  0     1  0  0  0  0  0999 V2000
  -16.6717  -29.8609   23.9287 C   0  0  0  0  0  0  0  0  0  0  0  0
  -17.7946  -30.4109   24.5387 C   0  0  0  0  0  0  0  0  0  0  0  0
  -28.7463  -22.6110   15.7134 C   0  0  0  0  0  0  0  0  0  0  0  0
  -29.8901  -24.6475   16.3311 C   0  0  0  0  0  0  0  0  0  0  0  0
  -16.8132  -28.7926   23.0441 C   0  0  0  0  0  0  0  0  0  0  0  0
  -19.0596  -29.8921   24.2652 C   0  0  0  0  0  0  0  0  0  0  0  0
  -24.3224  -33.0061   23.9315 C   0  0  0  0  0  0  0  0  0  0  0  0
  -30.8084  -34.5121   23.1879 C   0  0  0  0  0  0  0  0  0  0  0  0
  -29.9481  -34.6781   24.2732 C   0  0  0  0  0  0  0  0  0  0  0  0
  -28.4567  -23.1534   14.4614 C   0  0  0  0  0  0  0  0  0  0  0  0
  -29.6005  -25.1899   15.0790 C   0  0  0  0  0  0  0  0  0  0  0  0
  -25.3570  -33.2004   24.8457 C   0  0  0  0  0  0  0  0  0  0  0  0
  -26.2325  -25.3316   13.1450 C   0  0  0  0  0  0  0  0  0  0  0  0
  -24.9363  -25.1726   12.6548 C   0  0  0  0  0  0  0  0  0  0  0  0
  -26.5803  -31.3813   23.8388 C   0  0  0  0  0  0  0  0  0  0  0  0
  -31.9752  -32.7644   24.3800 C   0  0  0  0  0  0  0  0  0  0  0  0
  -25.8059  -23.9789   10.7427 C   0  0  0  0  0  0  0  0  0  0  0  0
  -29.4630  -23.3581   16.6483 C   0  0  0  0  0  0  0  0  0  0  0  0
  -30.8989  -22.0509   18.3027 C   0  0  0  0  0  0  0  0  0  0  0  0
  -18.0816  -28.2667   22.7522 C   0  0  0  0  0  0  0  0  0  0  0  0
  -24.4044  -31.9892   22.9694 C   0  0  0  0  0  0  0  0  0  0  0  0
  -19.2182  -28.8148   23.3769 C   0  0  0  0  0  0  0  0  0  0  0  0
  -25.5466  -31.1779   22.9119 C   0  0  0  0  0  0  0  0  0  0  0  0
  -31.8219  -33.5552   23.2413 C   0  0  0  0  0  0  0  0  0  0  0  0
  -30.1013  -33.8873   25.4120 C   0  0  0  0  0  0  0  0  0  0  0  0
  -31.1149  -32.9305   25.4654 C   0  0  0  0  0  0  0  0  0  0  0  0
  -28.8838  -24.4428   14.1442 C   0  0  0  0  0  0  0  0  0  0  0  0
  -26.4848  -32.3861   24.8013 C   0  0  0  0  0  0  0  0  0  0  0  0
  -27.3154  -24.8143   12.4341 C   0  0  0  0  0  0  0  0  0  0  0  0
  -24.7230  -24.4962   11.4537 C   0  0  0  0  0  0  0  0  0  0  0  0
  -27.1021  -24.1379   11.2330 C   0  0  0  0  0  0  0  0  0  0  0  0
  -29.7620  -22.7986   17.9420 C   0  0  0  0  0  0  0  0  0  0  0  0
  -30.7088  -21.7560   19.6306 C   0  0  0  0  0  0  0  0  0  0  0  0
  -32.0261  -21.6582   17.5084 C   0  0  0  0  0  0  0  0  0  0  0  0
  -22.7114  -29.3801   22.3135 C   0  0  0  0  0  0  0  0  0  0  0  0
  -27.4798  -24.4573   23.9187 C   0  0  0  0  0  0  0  0  0  0  0  0
  -24.6815  -29.2213   19.7414 C   0  0  0  0  0  0  0  0  0  0  0  0
  -27.6754  -30.0521   18.3295 C   0  0  0  0  0  0  0  0  0  0  0  0
  -18.1801  -27.0807   21.8257 C   0  0  0  0  0  0  0  0  0  0  0  0
  -23.2917  -31.8098   21.9733 C   0  0  0  0  0  0  0  0  0  0  0  0
  -25.6923  -30.0853   21.8855 C   0  0  0  0  0  0  0  0  0  0  0  0
  -19.5924  -26.8325   21.3020 C   0  0  0  0  0  0  0  0  0  0  0  0
  -27.2618  -21.0411   22.8594 C   0  0  0  0  0  0  0  0  0  0  0  0
  -20.6045  -26.9049   22.4409 C   0  0  0  0  0  0  0  0  0  0  0  0
  -27.9564  -21.0423   21.4982 C   0  0  0  0  0  0  0  0  0  0  0  0
  -26.4994  -22.3406   23.0983 C   0  0  0  0  0  0  0  0  0  0  0  0
  -28.0321  -23.5740   21.5979 C   0  0  0  0  0  0  0  0  0  0  0  0
  -20.6097  -28.2957   23.0868 C   0  0  1  0  0  0  0  0  0  0  0  0
  -23.2541  -30.4113   21.3649 C   0  0  1  0  0  0  0  0  0  0  0  0
  -28.8393  -22.2915   21.3293 C   0  0  2  0  0  0  0  0  0  0  0  0
  -32.7419  -33.3782   22.0809 C   0  0  0  0  0  0  0  0  0  0  0  0
  -29.0154  -29.7469   16.2298 C   0  0  0  0  0  0  0  0  0  0  0  0
  -25.3433  -26.3638   20.5819 C   0  0  0  0  0  0  0  0  0  0  0  0
  -27.3336  -26.4528   19.0656 C   0  0  0  0  0  0  0  0  0  0  0  0
  -25.0365  -26.6826   18.1205 C   0  0  0  0  0  0  0  0  0  0  0  0
  -27.7399  -32.9648   17.8092 C   0  0  0  0  0  0  0  0  0  0  0  0
  -29.1590  -34.0861   26.5742 C   0  0  0  0  0  0  0  0  0  0  0  0
  -31.2983  -32.0726   26.6742 C   0  0  0  0  0  0  0  0  0  0  0  0
  -28.3948  -25.6252   23.6492 C   0  0  0  0  0  0  0  0  0  0  0  0
  -30.2688  -30.9350   26.8010 C   0  0  0  0  0  0  0  0  0  0  0  0
  -28.4199  -26.5825   24.8375 C   0  0  0  0  0  0  0  0  0  0  0  0
  -30.2939  -29.9797   25.6032 C   0  0  0  0  0  0  0  0  0  0  0  0
  -29.3539  -27.7753   24.6072 C   0  0  0  0  0  0  0  0  0  0  0  0
  -29.3319  -28.7962   25.7501 C   0  0  0  0  0  0  0  0  0  0  0  0
  -27.6990  -33.9007   26.1752 C   0  0  0  0  0  0  0  0  0  1  0  0
  -26.0222  -28.5874   19.4592 C   0  0  1  0  0  0  0  0  0  0  0  0
  -28.0217  -30.6296   16.9690 C   0  0  2  0  0  0  0  0  0  0  0  0
  -25.9306  -27.0409   19.3275 C   0  0  0  0  0  0  0  0  0  0  0  0
  -28.9124  -22.9680   18.9586 N   0  0  0  0  0  0  0  0  0  0  0  0
  -29.5159  -22.3225   19.9712 N   0  0  0  0  0  0  0  0  0  0  0  0
  -24.5748  -29.9452   20.9374 N   0  0  0  0  0  0  0  0  0  0  0  0
  -27.3669  -23.5042   22.9064 N   0  0  0  0  0  0  0  0  0  0  0  0
  -31.4474  -21.0697   20.5284 N   0  0  0  0  0  0  0  0  0  0  0  0
  -32.0621  -22.0455   16.1619 N   0  0  0  0  0  0  0  0  0  0  0  0
  -21.3383  -29.2340   22.2602 N   0  0  0  0  0  0  0  0  0  0  0  0
  -26.5497  -29.2577   18.2756 N   0  0  0  0  0  0  0  0  0  0  0  0
  -28.6195  -31.9865   17.1191 N   0  3  0  0  0  0  0  0  0  0  0  0
  -32.9655  -20.9699   17.9745 O   0  0  0  0  0  0  0  0  0  0  0  0
  -23.4815  -28.7617   23.0389 O   0  0  0  0  0  0  0  0  0  0  0  0
  -26.8862  -24.3942   24.9984 O   0  0  0  0  0  0  0  0  0  0  0  0
  -23.7650  -29.0855   18.9271 O   0  0  0  0  0  0  0  0  0  0  0  0
  -28.3394  -30.2797   19.3384 O   0  0  0  0  0  0  0  0  0  0  0  0
  -28.6015  -24.9723   12.9225 O   0  0  0  0  0  0  0  0  0  0  0  0
  -27.4957  -32.5732   25.6929 O   0  0  0  0  0  0  0  0  0  1  0  0
  -23.4782  -24.3423   10.9839 F   0  0  0  0  0  0  0  0  0  0  0  0
  -28.1384  -23.6377   10.5461 F   0  0  0  0  0  0  0  0  0  0  0  0
  1  2  1  0  0  0  0
  1  5  2  0  0  0  0
  2  6  2  0  0  0  0
  3 10  2  0  0  0  0
  3 18  1  0  0  0  0
  4 11  1  0  0  0  0
  4 18  2  0  0  0  0
  5 20  1  0  0  0  0
  6 22  1  0  0  0  0
  7 12  2  0  0  0  0
  7 21  1  0  0  0  0
  8  9  2  0  0  0  0
  8 24  1  0  0  0  0
  9 25  1  0  0  0  0
 10 27  1  0  0  0  0
 11 27  2  0  0  0  0
 12 28  1  0  0  0  0
 13 14  2  0  0  0  0
 13 29  1  0  0  0  0
 14 30  1  0  0  0  0
 15 23  1  0  0  0  0
 15 28  2  0  0  0  0
 16 24  2  0  0  0  0
 16 26  1  0  0  0  0
 17 30  2  0  0  0  0
 17 31  1  0  0  0  0
 18 32  1  0  0  0  0
 19 32  1  0  0  0  0
 19 33  2  0  0  0  0
 19 34  1  0  0  0  0
 20 22  2  0  0  0  0
 20 39  1  0  0  0  0
 21 23  2  0  0  0  0
 21 40  1  0  0  0  0
 22 48  1  0  0  0  0
 23 41  1  0  0  0  0
 24 51  1  0  0  0  0
 25 26  2  0  0  0  0
 25 57  1  0  0  0  0
 26 58  1  0  0  0  0
 27 83  1  0  0  0  0
 28 84  1  0  0  0  0
 29 31  2  0  0  0  0
 29 83  1  0  0  0  0
 30 85  1  0  0  0  0
 31 86  1  0  0  0  0
 32 69  2  0  0  0  0
 33 70  1  0  0  0  0
 33 73  1  0  0  0  0
 34 74  1  0  0  0  0
 34 78  2  0  0  0  0
 35 49  1  0  0  0  0
 35 75  1  0  0  0  0
 35 79  2  0  0  0  0
 36 59  1  0  0  0  0
 36 72  1  0  0  0  0
 36 80  2  0  0  0  0
 37 66  1  0  0  0  0
 37 71  1  0  0  0  0
 37 81  2  0  0  0  0
 38 67  1  0  0  0  0
 38 76  1  0  0  0  0
 38 82  2  0  0  0  0
 39 42  1  0  0  0  0
 40 49  1  0  0  0  0
 41 71  1  0  0  0  0
 42 44  1  0  0  0  0
 43 45  1  0  0  0  0
 43 46  1  0  0  0  0
 44 48  1  0  0  0  0
 45 50  1  0  0  0  0
 46 72  1  0  0  0  0
 47 50  1  0  0  0  0
 47 72  1  0  0  0  0
 48 75  1  0  0  0  0
 49 71  1  0  0  0  0
 50 70  1  0  0  0  0
 52 67  1  0  0  0  0
 53 68  1  0  0  0  0
 54 68  1  0  0  0  0
 55 68  1  0  0  0  0
 56 77  1  0  0  0  0
 57 65  1  0  0  0  0
 58 60  1  0  0  0  0
 59 61  1  0  0  0  0
 60 62  1  0  0  0  0
 61 63  1  0  0  0  0
 62 64  1  0  0  0  0
 63 64  1  0  0  0  0
 65 84  1  0  0  0  0
 66 68  1  0  0  0  0
 66 76  1  0  0  0  0
 67 77  1  0  0  0  0
 69 70  1  0  0  0  0
M  CHG  1  77   1
M  ISO  4  36 100  59 100  65 101  84 101
M  END
> <Batch ID>
0038

> <Smiles>
CNC(C)C(=O)NC(C(=O)N1Cc2cc([101O:1][101CH2:1]Cc3ccc(C)cc3CCCCCC[100CH2:0][100C:0](=O)N3CCCC(n4nc(-c5ccc(Oc6ccc(F)cc6F)cc5)c(C(N)=O)c4N)C3)ccc2CC1C(=O)NC1CCCc2ccccc21)C(C)(C)C

> <Shape>
0.223

> <Color>
0.104

> <Negative vol penalty>
0.000

$$$$

  -OEChem-04052317013D

 84 92  0     1  0  0  0  0  0999 V2000
  -20.7723  -30.2245   24.4492 C   0  0  0  0  0  0  0  0  0  0  0  0
  -21.6119  -29.2508   24.9806 C   0  0  0  0  0  0  0  0  0  0  0  0
  -30.0575  -23.6870   19.7605 C   0  0  0  0  0  0  0  0  0  0  0  0
  -28.4915  -23.8508   21.5929 C   0  0  0  0  0  0  0  0  0  0  0  0
  -19.7921  -29.8686   23.5237 C   0  0  0  0  0  0  0  0  0  0  0  0
  -21.4711  -27.9203   24.5876 C   0  0  0  0  0  0  0  0  0  0  0  0
  -25.9403  -23.7877   23.9143 C   0  0  0  0  0  0  0  0  0  0  0  0
  -29.8344  -25.0284   19.4499 C   0  0  0  0  0  0  0  0  0  0  0  0
  -28.2685  -25.1923   21.2824 C   0  0  0  0  0  0  0  0  0  0  0  0
  -26.4118  -22.7723   24.7452 C   0  0  0  0  0  0  0  0  0  0  0  0
  -26.4911  -26.9625   19.0157 C   0  0  0  0  0  0  0  0  0  0  0  0
  -25.1710  -27.4127   18.9972 C   0  0  0  0  0  0  0  0  0  0  0  0
  -25.0159  -21.1831   23.5855 C   0  0  0  0  0  0  0  0  0  0  0  0
  -25.6924  -29.0129   20.7306 C   0  0  0  0  0  0  0  0  0  0  0  0
  -29.4712  -18.5596   25.6284 C   0  0  0  0  0  0  0  0  0  0  0  0
  -29.3860  -23.0982   20.8319 C   0  0  0  0  0  0  0  0  0  0  0  0
  -30.5866  -21.1923   22.0295 C   0  0  0  0  0  0  0  0  0  0  0  0
  -19.6455  -28.5346   23.1119 C   0  0  0  0  0  0  0  0  0  0  0  0
  -24.9932  -23.5099   22.9182 C   0  0  0  0  0  0  0  0  0  0  0  0
  -20.4871  -27.5460   23.6567 C   0  0  0  0  0  0  0  0  0  0  0  0
  -24.5358  -22.1963   22.7416 C   0  0  0  0  0  0  0  0  0  0  0  0
  -28.3137  -18.5070   26.4281 C   0  0  0  0  0  0  0  0  0  0  0  0
  -28.9400  -25.7810   20.2109 C   0  0  0  0  0  0  0  0  0  0  0  0
  -25.9475  -21.4703   24.5828 C   0  0  0  0  0  0  0  0  0  0  0  0
  -27.4119  -27.5375   19.8917 C   0  0  0  0  0  0  0  0  0  0  0  0
  -24.7717  -28.4378   19.8546 C   0  0  0  0  0  0  0  0  0  0  0  0
  -27.0125  -28.5627   20.7491 C   0  0  0  0  0  0  0  0  0  0  0  0
  -29.6155  -21.7124   21.1529 C   0  0  0  0  0  0  0  0  0  0  0  0
  -27.8670  -17.2145   26.3008 C   0  0  0  0  0  0  0  0  0  0  0  0
  -30.3941  -19.8330   21.9877 C   0  0  0  0  0  0  0  0  0  0  0  0
  -31.5742  -21.8768   22.8117 C   0  0  0  0  0  0  0  0  0  0  0  0
  -22.0176  -24.4576   22.3254 C   0  0  0  0  0  0  0  0  0  0  0  0
  -22.4343  -22.7560   19.5954 C   0  0  0  0  0  0  0  0  0  0  0  0
  -24.0812  -20.2499   17.9664 C   0  0  0  0  0  0  0  0  0  0  0  0
  -25.6488  -16.4252   20.6764 C   0  0  0  0  0  0  0  0  0  0  0  0
  -18.5406  -28.1907   22.1447 C   0  0  0  0  0  0  0  0  0  0  0  0
  -24.5145  -24.6114   22.0127 C   0  0  0  0  0  0  0  0  0  0  0  0
  -23.5344  -21.8421   21.6738 C   0  0  0  0  0  0  0  0  0  0  0  0
  -18.7024  -26.8172   21.4984 C   0  0  0  0  0  0  0  0  0  0  0  0
  -28.8357  -16.3593   19.0902 C   0  0  0  0  0  0  0  0  0  0  0  0
  -19.0493  -25.7693   22.5513 C   0  0  0  0  0  0  0  0  0  0  0  0
  -29.4846  -17.6768   19.5181 C   0  0  0  0  0  0  0  0  0  0  0  0
  -27.3339  -16.5174   18.8630 C   0  0  0  0  0  0  0  0  0  0  0  0
  -27.2435  -18.4226   20.4238 C   0  0  0  0  0  0  0  0  0  0  0  0
  -20.3817  -26.0960   23.2366 C   0  0  1  0  0  0  0  0  0  0  0  0
  -23.1654  -24.3103   21.3671 C   0  0  1  0  0  0  0  0  0  0  0  0
  -28.7483  -18.3004   20.7190 C   0  0  2  0  0  0  0  0  0  0  0  0
  -24.7805  -18.7802   16.0563 C   0  0  0  0  0  0  0  0  0  0  0  0
  -19.8727  -21.2509   20.2906 C   0  0  0  0  0  0  0  0  0  0  0  0
  -20.5265  -19.5064   18.6181 C   0  0  0  0  0  0  0  0  0  0  0  0
  -20.1074  -21.8501   17.8739 C   0  0  0  0  0  0  0  0  0  0  0  0
  -28.7087  -15.2210   25.0230 C   0  0  0  0  0  0  0  0  0  0  0  0
  -26.2469  -22.1068   17.1785 C   0  0  0  0  0  0  0  0  0  0  0  0
  -27.7052  -19.6239   27.2408 C   0  0  0  0  0  0  0  0  0  0  0  0
  -26.7018  -16.5249   26.8866 C   0  0  0  0  0  0  0  0  0  0  0  0
  -25.3779  -16.8838   26.1812 C   0  0  0  0  0  0  0  0  0  0  0  0
  -25.3746  -16.4743   24.7069 C   0  0  0  0  0  0  0  0  0  0  0  0
  -24.0656  -16.8772   24.0216 C   0  0  0  0  0  0  0  0  0  0  0  0
  -24.0244  -16.4712   22.5521 C   0  0  0  0  0  0  0  0  0  0  0  0
  -27.3615  -20.8406   26.3883 C   0  0  0  0  0  0  0  0  0  1  0  0
  -22.2043  -21.3218   19.1839 C   0  0  1  0  0  0  0  0  0  0  0  0
  -24.7410  -20.1998   16.6001 C   0  0  2  0  0  0  0  0  0  0  0  0
  -20.6951  -20.9890   19.0131 C   0  0  0  0  0  0  0  0  0  0  0  0
  -29.7428  -17.3932   25.0371 N   0  0  0  0  0  0  0  0  0  0  0  0
  -28.8622  -20.7610   20.5949 N   0  0  0  0  0  0  0  0  0  0  0  0
  -28.7497  -16.5955   25.4655 N   0  0  0  0  0  0  0  0  0  0  0  0
  -29.3600  -19.6294   21.1220 N   0  0  0  0  0  0  0  0  0  0  0  0
  -23.0917  -22.9550   20.8176 N   0  0  0  0  0  0  0  0  0  0  0  0
  -26.6952  -17.1125   20.0394 N   0  0  0  0  0  0  0  0  0  0  0  0
  -31.0104  -18.8041   22.6072 N   0  0  0  0  0  0  0  0  0  0  0  0
  -31.6342  -23.2751   22.7370 N   0  0  0  0  0  0  0  0  0  0  0  0
  -21.4919  -25.7343   22.3816 N   0  0  0  0  0  0  0  0  0  0  0  0
  -23.0029  -21.1090   17.9816 N   0  0  0  0  0  0  0  0  0  0  0  0
  -25.1032  -17.0563   21.7875 N   0  0  0  0  0  0  0  0  0  0  0  0
  -26.1384  -20.7113   16.6807 N   0  3  0  0  0  0  0  0  0  0  0  0
  -32.3903  -21.2654   23.5422 O   0  0  0  0  0  0  0  0  0  0  0  0
  -21.6361  -23.4846   22.9653 O   0  0  0  0  0  0  0  0  0  0  0  0
  -22.0512  -23.6661   18.8560 O   0  0  0  0  0  0  0  0  0  0  0  0
  -24.4801  -19.5897   18.9233 O   0  0  0  0  0  0  0  0  0  0  0  0
  -25.2354  -15.3277   20.2872 O   0  0  0  0  0  0  0  0  0  0  0  0
  -28.7223  -27.0901   19.9083 O   0  0  0  0  0  0  0  0  0  0  0  0
  -26.4057  -20.4775   25.3928 O   0  0  0  0  0  0  0  0  0  1  0  0
  -23.5043  -28.8710   19.8357 F   0  0  0  0  0  0  0  0  0  0  0  0
  -27.8928  -29.1198   21.5920 F   0  0  0  0  0  0  0  0  0  0  0  0
  1  2  1  0  0  0  0
  1  5  2  0  0  0  0
  2  6  2  0  0  0  0
  3  8  2  0  0  0  0
  3 16  1  0  0  0  0
  4  9  1  0  0  0  0
  4 16  2  0  0  0  0
  5 18  1  0  0  0  0
  6 20  1  0  0  0  0
  7 10  2  0  0  0  0
  7 19  1  0  0  0  0
  8 23  1  0  0  0  0
  9 23  2  0  0  0  0
 10 24  1  0  0  0  0
 11 12  2  0  0  0  0
 11 25  1  0  0  0  0
 12 26  1  0  0  0  0
 13 21  1  0  0  0  0
 13 24  2  0  0  0  0
 14 26  2  0  0  0  0
 14 27  1  0  0  0  0
 15 22  1  0  0  0  0
 15 64  2  0  0  0  0
 16 28  1  0  0  0  0
 17 28  1  0  0  0  0
 17 30  2  0  0  0  0
 17 31  1  0  0  0  0
 18 20  2  0  0  0  0
 18 36  1  0  0  0  0
 19 21  2  0  0  0  0
 19 37  1  0  0  0  0
 20 45  1  0  0  0  0
 21 38  1  0  0  0  0
 22 29  2  0  0  0  0
 22 54  1  0  0  0  0
 23 81  1  0  0  0  0
 24 82  1  0  0  0  0
 25 27  2  0  0  0  0
 25 81  1  0  0  0  0
 26 83  1  0  0  0  0
 27 84  1  0  0  0  0
 28 65  2  0  0  0  0
 29 55  1  0  0  0  0
 29 66  1  0  0  0  0
 30 67  1  0  0  0  0
 30 70  1  0  0  0  0
 31 71  1  0  0  0  0
 31 76  2  0  0  0  0
 32 46  1  0  0  0  0
 32 72  1  0  0  0  0
 32 77  2  0  0  0  0
 33 61  1  0  0  0  0
 33 68  1  0  0  0  0
 33 78  2  0  0  0  0
 34 62  1  0  0  0  0
 34 73  1  0  0  0  0
 34 79  2  0  0  0  0
 35 69  1  0  0  0  0
 35 74  1  0  0  0  0
 35 80  2  0  0  0  0
 36 39  1  0  0  0  0
 37 46  1  0  0  0  0
 38 68  1  0  0  0  0
 39 41  1  0  0  0  0
 40 42  1  0  0  0  0
 40 43  1  0  0  0  0
 41 45  1  0  0  0  0
 42 47  1  0  0  0  0
 43 69  1  0  0  0  0
 44 47  1  0  0  0  0
 44 69  1  0  0  0  0
 45 72  1  0  0  0  0
 46 68  1  0  0  0  0
 47 67  1  0  0  0  0
 48 62  1  0  0  0  0
 49 63  1  0  0  0  0
 50 63  1  0  0  0  0
 51 63  1  0  0  0  0
 52 66  1  0  0  0  0
 53 75  1  0  0  0  0
 54 60  1  0  0  0  0
 55 56  1  0  0  0  0
 56 57  1  0  0  0  0
 57 58  1  0  0  0  0
 58 59  1  0  0  0  0
 59 74  1  0  0  0  0
 60 82  1  0  0  0  0
 61 63  1  0  0  0  0
 61 73  1  0  0  0  0
 62 75  1  0  0  0  0
 64 66  1  0  0  0  0
 65 67  1  0  0  0  0
M  CHG  1  75   1
M  ISO  4  35 100  60 101  74 100  82 101
M  END
> <Batch ID>
0038

> <Smiles>
CNC(C)C(=O)NC(C(=O)N1Cc2cc([101O:1][101CH2:1]Cc3cnn(C)c3CCCCC[100NH:0][100C:0](=O)N3CCCC(n4nc(-c5ccc(Oc6ccc(F)cc6F)cc5)c(C(N)=O)c4N)C3)ccc2CC1C(=O)NC1CCCc2ccccc21)C(C)(C)C

> <Shape>
0.168

> <Color>
0.074

> <Negative vol penalty>
0.000

$$$$

  -OEChem-04052317013D

 86 94  0     1  0  0  0  0  0999 V2000
  -29.2875   -5.9658   18.2906 C   0  0  0  0  0  0  0  0  0  0  0  0
  -29.9657   -7.1803   18.2668 C   0  0  0  0  0  0  0  0  0  0  0  0
  -23.1973   -9.8531   19.9561 C   0  0  0  0  0  0  0  0  0  0  0  0
  -23.9045   -9.9362   22.2648 C   0  0  0  0  0  0  0  0  0  0  0  0
  -28.6300   -5.5584   19.4506 C   0  0  0  0  0  0  0  0  0  0  0  0
  -29.9858   -7.9886   19.4029 C   0  0  0  0  0  0  0  0  0  0  0  0
  -34.5941   -9.8444   20.3852 C   0  0  0  0  0  0  0  0  0  0  0  0
  -22.5040   -8.6699   20.2110 C   0  0  0  0  0  0  0  0  0  0  0  0
  -23.2111   -8.7530   22.5197 C   0  0  0  0  0  0  0  0  0  0  0  0
  -35.0220  -10.9261   19.6168 C   0  0  0  0  0  0  0  0  0  0  0  0
  -23.2275   -5.3884   20.5748 C   0  0  0  0  0  0  0  0  0  0  0  0
  -23.3645   -4.3472   19.6568 C   0  0  0  0  0  0  0  0  0  0  0  0
  -34.4398  -12.4257   21.4144 C   0  0  0  0  0  0  0  0  0  0  0  0
  -33.7114  -16.0118   17.0806 C   0  0  0  0  0  0  0  0  0  0  0  0
  -20.9833   -4.3918   19.2509 C   0  0  0  0  0  0  0  0  0  0  0  0
  -35.2537  -16.3911   18.8509 C   0  0  0  0  0  0  0  0  0  0  0  0
  -23.8976  -10.4862   20.9829 C   0  0  0  0  0  0  0  0  0  0  0  0
  -24.1210  -13.0224   20.8241 C   0  0  0  0  0  0  0  0  0  0  0  0
  -28.6503   -6.3577   20.6045 C   0  0  0  0  0  0  0  0  0  0  0  0
  -34.0748  -10.0465   21.6721 C   0  0  0  0  0  0  0  0  0  0  0  0
  -29.3269   -7.5922   20.5790 C   0  0  0  0  0  0  0  0  0  0  0  0
  -34.0084  -11.3446   22.1982 C   0  0  0  0  0  0  0  0  0  0  0  0
  -34.8705  -15.6391   17.7521 C   0  0  0  0  0  0  0  0  0  0  0  0
  -32.9812  -17.1096   17.5223 C   0  0  0  0  0  0  0  0  0  0  0  0
  -22.5108   -8.1199   21.4928 C   0  0  0  0  0  0  0  0  0  0  0  0
  -34.9422  -12.2173   20.1302 C   0  0  0  0  0  0  0  0  0  0  0  0
  -21.9684   -5.9313   20.8309 C   0  0  0  0  0  0  0  0  0  0  0  0
  -22.2424   -3.8489   18.9949 C   0  0  0  0  0  0  0  0  0  0  0  0
  -20.8463   -5.4330   20.1689 C   0  0  0  0  0  0  0  0  0  0  0  0
  -24.6145  -11.7081   20.7201 C   0  0  0  0  0  0  0  0  0  0  0  0
  -33.4489  -17.7956   18.6316 C   0  0  0  0  0  0  0  0  0  0  0  0
  -25.1839  -13.8173   20.4708 C   0  0  0  0  0  0  0  0  0  0  0  0
  -22.8183  -13.4836   21.2061 C   0  0  0  0  0  0  0  0  0  0  0  0
  -31.2717   -9.5065   23.0702 C   0  0  0  0  0  0  0  0  0  0  0  0
  -32.8589  -10.4541   25.7357 C   0  0  0  0  0  0  0  0  0  0  0  0
  -35.4484  -12.2138   27.0939 C   0  0  0  0  0  0  0  0  0  0  0  0
  -30.9470  -14.0537   20.9665 C   0  0  0  0  0  0  0  0  0  0  0  0
  -27.8852   -5.8973   21.8200 C   0  0  0  0  0  0  0  0  0  0  0  0
  -33.6423   -8.8666   22.4985 C   0  0  0  0  0  0  0  0  0  0  0  0
  -33.4777  -11.6132   23.5819 C   0  0  0  0  0  0  0  0  0  0  0  0
  -28.2697   -6.6379   23.0982 C   0  0  0  0  0  0  0  0  0  0  0  0
  -29.3605  -13.1184   17.9193 C   0  0  0  0  0  0  0  0  0  0  0  0
  -28.3274   -8.1414   22.8473 C   0  0  0  0  0  0  0  0  0  0  0  0
  -27.9291  -12.7816   18.3406 C   0  0  0  0  0  0  0  0  0  0  0  0
  -30.3754  -12.6919   18.9777 C   0  0  0  0  0  0  0  0  0  0  0  0
  -28.6777  -12.8696   20.7553 C   0  0  0  0  0  0  0  0  0  0  0  0
  -29.3924   -8.4852   21.7989 C   0  0  1  0  0  0  0  0  0  0  0  0
  -32.6525   -9.2381   23.5984 C   0  0  1  0  0  0  0  0  0  0  0  0
  -27.6137  -13.3313   19.7447 C   0  0  2  0  0  0  0  0  0  0  0  0
  -31.7393  -17.5154   16.8065 C   0  0  0  0  0  0  0  0  0  0  0  0
  -36.4649  -12.8332   29.3031 C   0  0  0  0  0  0  0  0  0  0  0  0
  -30.6296  -12.4876   26.1885 C   0  0  0  0  0  0  0  0  0  0  0  0
  -32.1345  -13.6746   27.7994 C   0  0  0  0  0  0  0  0  0  0  0  0
  -31.4209  -11.3288   28.2587 C   0  0  0  0  0  0  0  0  0  0  0  0
  -38.0017  -10.8745   26.4260 C   0  0  0  0  0  0  0  0  0  0  0  0
  -35.6854  -14.4522   17.2989 C   0  0  0  0  0  0  0  0  0  0  0  0
  -32.7049  -18.9822   19.1513 C   0  0  0  0  0  0  0  0  0  0  0  0
  -31.4327  -18.6350   19.9440 C   0  0  0  0  0  0  0  0  0  0  0  0
  -31.7250  -17.8297   21.2141 C   0  0  0  0  0  0  0  0  0  0  0  0
  -30.4388  -17.5272   21.9870 C   0  0  0  0  0  0  0  0  0  0  0  0
  -30.7352  -16.7562   23.2767 C   0  0  0  0  0  0  0  0  0  0  0  0
  -31.3672  -15.3936   23.0128 C   0  0  0  0  0  0  0  0  0  0  0  0
  -35.2401  -13.1549   17.9650 C   0  0  0  0  0  0  0  0  0  1  0  0
  -33.1005  -11.7764   26.4228 C   0  0  1  0  0  0  0  0  0  0  0  0
  -36.4747  -11.8427   28.1492 C   0  0  2  0  0  0  0  0  0  0  0  0
  -31.8297  -12.3123   27.1405 C   0  0  0  0  0  0  0  0  0  0  0  0
  -34.5703  -17.4636   19.3096 N   0  0  0  0  0  0  0  0  0  0  0  0
  -25.8915  -11.6661   20.3310 N   0  0  0  0  0  0  0  0  0  0  0  0
  -26.2094  -12.9640   20.1873 N   0  0  0  0  0  0  0  0  0  0  0  0
  -33.0613  -10.4273   24.3486 N   0  0  0  0  0  0  0  0  0  0  0  0
  -30.0198  -13.2477   20.2855 N   0  0  0  0  0  0  0  0  0  0  0  0
  -25.3321  -15.1559   20.3780 N   0  0  0  0  0  0  0  0  0  0  0  0
  -21.8436  -12.5327   21.5381 N   0  0  0  0  0  0  0  0  0  0  0  0
  -30.7137   -8.4423   22.3878 N   0  0  0  0  0  0  0  0  0  0  0  0
  -34.2449  -11.5750   27.3050 N   0  0  0  0  0  0  0  0  0  0  0  0
  -30.5277  -14.5451   22.1967 N   0  0  0  0  0  0  0  0  0  0  0  0
  -37.8424  -11.8236   27.5576 N   0  3  0  0  0  0  0  0  0  0  0  0
  -22.5222  -14.7022   21.2358 O   0  0  0  0  0  0  0  0  0  0  0  0
  -30.7506  -10.5977   23.2684 O   0  0  0  0  0  0  0  0  0  0  0  0
  -32.5106   -9.4790   26.4062 O   0  0  0  0  0  0  0  0  0  0  0  0
  -35.6892  -12.9953   26.1764 O   0  0  0  0  0  0  0  0  0  0  0  0
  -32.0636  -14.3203   20.5094 O   0  0  0  0  0  0  0  0  0  0  0  0
  -21.8342   -6.9655   21.7420 O   0  0  0  0  0  0  0  0  0  0  0  0
  -35.3586  -13.2750   19.3820 O   0  0  0  0  0  0  0  0  0  1  0  0
  -22.3743   -2.8501   18.1122 F   0  0  0  0  0  0  0  0  0  0  0  0
  -19.6342   -5.9514   20.4099 F   0  0  0  0  0  0  0  0  0  0  0  0
  1  2  1  0  0  0  0
  1  5  2  0  0  0  0
  2  6  2  0  0  0  0
  3  8  2  0  0  0  0
  3 17  1  0  0  0  0
  4  9  1  0  0  0  0
  4 17  2  0  0  0  0
  5 19  1  0  0  0  0
  6 21  1  0  0  0  0
  7 10  2  0  0  0  0
  7 20  1  0  0  0  0
  8 25  1  0  0  0  0
  9 25  2  0  0  0  0
 10 26  1  0  0  0  0
 11 12  2  0  0  0  0
 11 27  1  0  0  0  0
 12 28  1  0  0  0  0
 13 22  1  0  0  0  0
 13 26  2  0  0  0  0
 14 23  2  0  0  0  0
 14 24  1  0  0  0  0
 15 28  2  0  0  0  0
 15 29  1  0  0  0  0
 16 23  1  0  0  0  0
 16 67  2  0  0  0  0
 17 30  1  0  0  0  0
 18 30  1  0  0  0  0
 18 32  2  0  0  0  0
 18 33  1  0  0  0  0
 19 21  2  0  0  0  0
 19 38  1  0  0  0  0
 20 22  2  0  0  0  0
 20 39  1  0  0  0  0
 21 47  1  0  0  0  0
 22 40  1  0  0  0  0
 23 56  1  0  0  0  0
 24 31  2  0  0  0  0
 24 50  1  0  0  0  0
 25 83  1  0  0  0  0
 26 84  1  0  0  0  0
 27 29  2  0  0  0  0
 27 83  1  0  0  0  0
 28 85  1  0  0  0  0
 29 86  1  0  0  0  0
 30 68  2  0  0  0  0
 31 57  1  0  0  0  0
 31 67  1  0  0  0  0
 32 69  1  0  0  0  0
 32 72  1  0  0  0  0
 33 73  1  0  0  0  0
 33 78  2  0  0  0  0
 34 48  1  0  0  0  0
 34 74  1  0  0  0  0
 34 79  2  0  0  0  0
 35 64  1  0  0  0  0
 35 70  1  0  0  0  0
 35 80  2  0  0  0  0
 36 65  1  0  0  0  0
 36 75  1  0  0  0  0
 36 81  2  0  0  0  0
 37 71  1  0  0  0  0
 37 76  1  0  0  0  0
 37 82  2  0  0  0  0
 38 41  1  0  0  0  0
 39 48  1  0  0  0  0
 40 70  1  0  0  0  0
 41 43  1  0  0  0  0
 42 44  1  0  0  0  0
 42 45  1  0  0  0  0
 43 47  1  0  0  0  0
 44 49  1  0  0  0  0
 45 71  1  0  0  0  0
 46 49  1  0  0  0  0
 46 71  1  0  0  0  0
 47 74  1  0  0  0  0
 48 70  1  0  0  0  0
 49 69  1  0  0  0  0
 51 65  1  0  0  0  0
 52 66  1  0  0  0  0
 53 66  1  0  0  0  0
 54 66  1  0  0  0  0
 55 77  1  0  0  0  0
 56 63  1  0  0  0  0
 57 58  1  0  0  0  0
 58 59  1  0  0  0  0
 59 60  1  0  0  0  0
 60 61  1  0  0  0  0
 61 62  1  0  0  0  0
 62 76  1  0  0  0  0
 63 84  1  0  0  0  0
 64 66  1  0  0  0  0
 64 75  1  0  0  0  0
 65 77  1  0  0  0  0
 68 69  1  0  0  0  0
M  CHG  1  77   1
M  ISO  4  37 100  63 101  76 100  84 101
M  END
> <Batch ID>
0038

> <Smiles>
CNC(C)C(=O)NC(C(=O)N1Cc2cc([101O:1][101CH2:1]Cc3cnc(CCCCCC[100NH:0][100C:0](=O)N4CCCC(n5nc(-c6ccc(Oc7ccc(F)cc7F)cc6)c(C(N)=O)c5N)C4)c(C)c3)ccc2CC1C(=O)NC1CCCc2ccccc21)C(C)(C)C

> <Shape>
0.149

> <Color>
0.184

> <Negative vol penalty>
0.000

$$$$

  -OEChem-04052317013D

 89 97  0     1  0  0  0  0  0999 V2000
  -33.5200  -22.8803   20.5849 C   0  0  0  0  0  0  0  0  0  0  0  0
  -32.8210  -24.0290   20.9416 C   0  0  0  0  0  0  0  0  0  0  0  0
  -24.5513  -13.8740   21.5790 C   0  0  0  0  0  0  0  0  0  0  0  0
  -25.5463  -13.9893   19.3805 C   0  0  0  0  0  0  0  0  0  0  0  0
  -33.3777  -22.3486   19.3039 C   0  0  0  0  0  0  0  0  0  0  0  0
  -31.9801  -24.6474   20.0170 C   0  0  0  0  0  0  0  0  0  0  0  0
  -26.7071  -27.5326   21.1903 C   0  0  0  0  0  0  0  0  0  0  0  0
  -24.7088  -12.4881   21.5776 C   0  0  0  0  0  0  0  0  0  0  0  0
  -25.7039  -12.6034   19.3791 C   0  0  0  0  0  0  0  0  0  0  0  0
  -26.3901  -28.8814   21.3447 C   0  0  0  0  0  0  0  0  0  0  0  0
  -23.1475   -9.8055   20.2395 C   0  0  0  0  0  0  0  0  0  0  0  0
  -22.0705   -9.0311   20.6707 C   0  0  0  0  0  0  0  0  0  0  0  0
  -25.7200  -28.9828   19.0296 C   0  0  0  0  0  0  0  0  0  0  0  0
  -25.2596  -32.4328   22.2497 C   0  0  0  0  0  0  0  0  0  0  0  0
  -23.7790  -30.5656   21.9247 C   0  0  0  0  0  0  0  0  0  0  0  0
  -23.4407   -8.1066   22.4328 C   0  0  0  0  0  0  0  0  0  0  0  0
  -24.9700  -14.6246   20.4804 C   0  0  0  0  0  0  0  0  0  0  0  0
  -23.6010  -16.7745   20.5888 C   0  0  0  0  0  0  0  0  0  0  0  0
  -32.5272  -22.9553   18.3662 C   0  0  0  0  0  0  0  0  0  0  0  0
  -26.5429  -26.9004   19.9494 C   0  0  0  0  0  0  0  0  0  0  0  0
  -31.8274  -24.1242   18.7218 C   0  0  0  0  0  0  0  0  0  0  0  0
  -26.0332  -27.6252   18.8627 C   0  0  0  0  0  0  0  0  0  0  0  0
  -25.2852  -11.8528   20.4777 C   0  0  0  0  0  0  0  0  0  0  0  0
  -25.8992  -29.6075   20.2636 C   0  0  0  0  0  0  0  0  0  0  0  0
  -24.3712   -9.7304   20.9049 C   0  0  0  0  0  0  0  0  0  0  0  0
  -24.8798  -31.3122   21.5194 C   0  0  0  0  0  0  0  0  0  1  0  0
  -22.2171   -8.1817   21.7673 C   0  0  0  0  0  0  0  0  0  0  0  0
  -24.5178   -8.8810   22.0016 C   0  0  0  0  0  0  0  0  0  0  0  0
  -24.8069  -16.0562   20.4810 C   0  0  0  0  0  0  0  0  0  0  0  0
  -24.5115  -32.7619   23.3687 C   0  0  0  0  0  0  0  0  0  0  0  0
  -23.0971  -30.9782   23.0582 C   0  0  0  0  0  0  0  0  0  0  0  0
  -23.9812  -18.0933   20.5388 C   0  0  0  0  0  0  0  0  0  0  0  0
  -22.2572  -16.2925   20.7223 C   0  0  0  0  0  0  0  0  0  0  0  0
  -28.4928  -25.4764   17.8821 C   0  0  0  0  0  0  0  0  0  0  0  0
  -25.7192  -24.7428   16.3683 C   0  0  0  0  0  0  0  0  0  0  0  0
  -22.4379  -25.4947   15.8078 C   0  0  0  0  0  0  0  0  0  0  0  0
  -29.0879  -20.9183   21.8776 C   0  0  0  0  0  0  0  0  0  0  0  0
  -32.4422  -22.3710   16.9784 C   0  0  0  0  0  0  0  0  0  0  0  0
  -26.8643  -25.4380   19.8062 C   0  0  0  0  0  0  0  0  0  0  0  0
  -25.8195  -26.9880   17.5148 C   0  0  0  0  0  0  0  0  0  0  0  0
  -31.2428  -22.8731   16.1786 C   0  0  0  0  0  0  0  0  0  0  0  0
  -27.3826  -20.9446   18.7523 C   0  0  0  0  0  0  0  0  0  0  0  0
  -31.1179  -24.3886   16.2985 C   0  0  0  0  0  0  0  0  0  0  0  0
  -26.4203  -19.7595   18.8506 C   0  0  0  0  0  0  0  0  0  0  0  0
  -28.7121  -20.6509   19.4438 C   0  0  0  0  0  0  0  0  0  0  0  0
  -27.6338  -19.0187   20.9428 C   0  0  0  0  0  0  0  0  0  0  0  0
  -30.8866  -24.8096   17.7547 C   0  0  1  0  0  0  0  0  0  0  0  0
  -27.1429  -25.0259   18.3640 C   0  0  1  0  0  0  0  0  0  0  0  0
  -26.2586  -19.2880   20.3083 C   0  0  2  0  0  0  0  0  0  0  0  0
  -24.8908  -33.9576   24.1770 C   0  0  0  0  0  0  0  0  0  0  0  0
  -20.1039  -25.2212   14.9273 C   0  0  0  0  0  0  0  0  0  0  0  0
  -26.9143  -25.9779   13.8472 C   0  0  0  0  0  0  0  0  0  0  0  0
  -24.6076  -26.0584   12.8772 C   0  0  0  0  0  0  0  0  0  0  0  0
  -25.6347  -23.8631   13.4671 C   0  0  0  0  0  0  0  0  0  0  0  0
  -21.6114  -23.9048   18.1632 C   0  0  0  0  0  0  0  0  0  0  0  0
  -21.8984  -30.1925   23.5268 C   0  0  0  0  0  0  0  0  0  0  0  0
  -22.2407  -29.0698   24.5127 C   0  0  0  0  0  0  0  0  0  0  0  0
  -23.1896  -28.0222   23.9222 C   0  0  0  0  0  0  0  0  0  0  0  0
  -23.4787  -26.9065   24.9287 C   0  0  0  0  0  0  0  0  0  0  0  0
  -24.4518  -25.8765   24.3524 C   0  0  0  0  0  0  0  0  0  0  0  0
  -24.7675  -24.7785   25.3707 C   0  0  0  0  0  0  0  0  0  0  0  0
  -25.7116  -23.7299   24.7793 C   0  0  0  0  0  0  0  0  0  0  0  0
  -26.0686  -22.6083   25.7593 C   0  0  0  0  0  0  0  0  0  0  0  0
  -27.0600  -21.5607   25.2438 C   0  0  0  0  0  0  0  0  0  0  0  0
  -28.4237  -22.1434   24.8715 C   0  0  0  0  0  0  0  0  0  0  0  0
  -29.3590  -21.0636   24.3403 C   0  0  0  0  0  0  0  0  0  0  0  0
  -24.8677  -25.4090   15.3147 C   0  0  1  0  0  0  0  0  0  0  0  0
  -21.1914  -24.6283   15.8097 C   0  0  2  0  0  0  0  0  0  0  0  0
  -25.5118  -25.3399   13.9013 C   0  0  0  0  0  0  0  0  0  0  0  0
  -25.8734  -16.8528   20.3707 N   0  0  0  0  0  0  0  0  0  0  0  0
  -23.4363  -32.0610   23.7932 N   0  0  0  0  0  0  0  0  0  0  0  0
  -25.3388  -18.0852   20.4088 N   0  0  0  0  0  0  0  0  0  0  0  0
  -26.1544  -25.5573   17.4233 N   0  0  0  0  0  0  0  0  0  0  0  0
  -28.4888  -20.2101   20.8228 N   0  0  0  0  0  0  0  0  0  0  0  0
  -23.2832  -19.2476   20.5937 N   0  0  0  0  0  0  0  0  0  0  0  0
  -21.5138  -16.0552   19.5582 N   0  0  0  0  0  0  0  0  0  0  0  0
  -29.5100  -24.5762   18.1357 N   0  0  0  0  0  0  0  0  0  0  0  0
  -23.5504  -24.7882   15.4021 N   0  0  0  0  0  0  0  0  0  0  0  0
  -28.8197  -20.4378   23.1535 N   0  0  0  0  0  0  0  0  0  0  0  0
  -20.6541  -24.4967   17.1935 N   0  3  0  0  0  0  0  0  0  0  0  0
  -21.7258  -16.0944   21.8412 O   0  0  0  0  0  0  0  0  0  0  0  0
  -28.6031  -26.5599   17.3202 O   0  0  0  0  0  0  0  0  0  0  0  0
  -25.9824  -23.5423   16.2630 O   0  0  0  0  0  0  0  0  0  0  0  0
  -22.4252  -26.6806   16.1301 O   0  0  0  0  0  0  0  0  0  0  0  0
  -29.8041  -21.9087   21.6961 O   0  0  0  0  0  0  0  0  0  0  0  0
  -25.4393  -10.5004   20.4761 O   0  0  0  0  0  0  0  0  0  0  0  0
  -25.5841  -30.9479   20.4140 O   0  0  0  0  0  0  0  0  0  1  0  0
  -21.1823   -7.4392   22.1822 F   0  0  0  0  0  0  0  0  0  0  0  0
  -25.6905   -8.8055   22.6456 F   0  0  0  0  0  0  0  0  0  0  0  0
  1  2  1  0  0  0  0
  1  5  2  0  0  0  0
  2  6  2  0  0  0  0
  3  8  2  0  0  0  0
  3 17  1  0  0  0  0
  4  9  1  0  0  0  0
  4 17  2  0  0  0  0
  5 19  1  0  0  0  0
  6 21  1  0  0  0  0
  7 10  2  0  0  0  0
  7 20  1  0  0  0  0
  8 23  1  0  0  0  0
  9 23  2  0  0  0  0
 10 24  1  0  0  0  0
 11 12  2  0  0  0  0
 11 25  1  0  0  0  0
 12 27  1  0  0  0  0
 13 22  1  0  0  0  0
 13 24  2  0  0  0  0
 14 26  1  0  0  0  0
 14 30  2  0  0  0  0
 15 26  2  0  0  0  0
 15 31  1  0  0  0  0
 16 27  2  0  0  0  0
 16 28  1  0  0  0  0
 17 29  1  0  0  0  0
 18 29  1  0  0  0  0
 18 32  2  0  0  0  0
 18 33  1  0  0  0  0
 19 21  2  0  0  0  0
 19 38  1  0  0  0  0
 20 22  2  0  0  0  0
 20 39  1  0  0  0  0
 21 47  1  0  0  0  0
 22 40  1  0  0  0  0
 23 86  1  0  0  0  0
 24 87  1  0  0  0  0
 25 28  2  0  0  0  0
 25 86  1  0  0  0  0
 26 87  1  0  0  0  0
 27 88  1  0  0  0  0
 28 89  1  0  0  0  0
 29 70  2  0  0  0  0
 30 50  1  0  0  0  0
 30 71  1  0  0  0  0
 31 56  1  0  0  0  0
 31 71  2  0  0  0  0
 32 72  1  0  0  0  0
 32 75  1  0  0  0  0
 33 76  1  0  0  0  0
 33 81  2  0  0  0  0
 34 48  1  0  0  0  0
 34 77  1  0  0  0  0
 34 82  2  0  0  0  0
 35 67  1  0  0  0  0
 35 73  1  0  0  0  0
 35 83  2  0  0  0  0
 36 68  1  0  0  0  0
 36 78  1  0  0  0  0
 36 84  2  0  0  0  0
 37 74  1  0  0  0  0
 37 79  1  0  0  0  0
 37 85  2  0  0  0  0
 38 41  1  0  0  0  0
 39 48  1  0  0  0  0
 40 73  1  0  0  0  0
 41 43  1  0  0  0  0
 42 44  1  0  0  0  0
 42 45  1  0  0  0  0
 43 47  1  0  0  0  0
 44 49  1  0  0  0  0
 45 74  1  0  0  0  0
 46 49  1  0  0  0  0
 46 74  1  0  0  0  0
 47 77  1  0  0  0  0
 48 73  1  0  0  0  0
 49 72  1  0  0  0  0
 51 68  1  0  0  0  0
 52 69  1  0  0  0  0
 53 69  1  0  0  0  0
 54 69  1  0  0  0  0
 55 80  1  0  0  0  0
 56 57  1  0  0  0  0
 57 58  1  0  0  0  0
 58 59  1  0  0  0  0
 59 60  1  0  0  0  0
 60 61  1  0  0  0  0
 61 62  1  0  0  0  0
 62 63  1  0  0  0  0
 63 64  1  0  0  0  0
 64 65  1  0  0  0  0
 65 66  1  0  0  0  0
 66 79  1  0  0  0  0
 67 69  1  0  0  0  0
 67 78  1  0  0  0  0
 68 80  1  0  0  0  0
 70 72  1  0  0  0  0
M  CHG  1  80   1
M  ISO  4  26 101  37 100  79 100  87 101
M  END
> <Batch ID>
0038

> <Smiles>
CNC(C)C(=O)NC(C(=O)N1Cc2cc([101O:1][101c:1]3cc(C)nc(CCCCCCCCCCC[100NH:0][100C:0](=O)N4CCCC(n5nc(-c6ccc(Oc7ccc(F)cc7F)cc6)c(C(N)=O)c5N)C4)c3)ccc2CC1C(=O)NC1CCCc2ccccc21)C(C)(C)C

> <Shape>
0.210

> <Color>
0.074

> <Negative vol penalty>
0.000

$$$$

  -OEChem-04052317013D

 84 92  0     1  0  0  0  0  0999 V2000
  -17.3393  -24.5917   24.8893 C   0  0  0  0  0  0  0  0  0  0  0  0
  -18.0986  -23.7211   24.1142 C   0  0  0  0  0  0  0  0  0  0  0  0
  -26.1933  -12.8875   22.3407 C   0  0  0  0  0  0  0  0  0  0  0  0
  -26.0396  -14.1585   20.2918 C   0  0  0  0  0  0  0  0  0  0  0  0
  -17.4458  -25.9684   24.6965 C   0  0  0  0  0  0  0  0  0  0  0  0
  -18.9642  -24.2267   23.1449 C   0  0  0  0  0  0  0  0  0  0  0  0
  -24.3858  -21.9136   21.4834 C   0  0  0  0  0  0  0  0  0  0  0  0
  -24.9712  -12.2790   22.0549 C   0  0  0  0  0  0  0  0  0  0  0  0
  -24.8176  -13.5499   20.0059 C   0  0  0  0  0  0  0  0  0  0  0  0
  -24.7727  -21.1025   20.4174 C   0  0  0  0  0  0  0  0  0  0  0  0
  -23.8316   -9.7910   20.0688 C   0  0  0  0  0  0  0  0  0  0  0  0
  -23.7372   -8.4110   20.2478 C   0  0  0  0  0  0  0  0  0  0  0  0
  -25.4321  -23.0617   19.1740 C   0  0  0  0  0  0  0  0  0  0  0  0
  -29.1981  -20.1585   18.5905 C   0  0  0  0  0  0  0  0  0  0  0  0
  -21.9722   -8.7415   21.8643 C   0  0  0  0  0  0  0  0  0  0  0  0
  -30.5333  -21.7166   17.3880 C   0  0  0  0  0  0  0  0  0  0  0  0
  -28.6988  -20.7973   16.3547 C   0  0  0  0  0  0  0  0  0  0  0  0
  -26.7275  -13.8274   21.4592 C   0  0  0  0  0  0  0  0  0  0  0  0
  -29.2708  -14.0091   21.3801 C   0  0  0  0  0  0  0  0  0  0  0  0
  -18.3203  -26.4916   23.7310 C   0  0  0  0  0  0  0  0  0  0  0  0
  -24.5093  -23.3078   21.3983 C   0  0  0  0  0  0  0  0  0  0  0  0
  -19.0815  -25.6117   22.9380 C   0  0  0  0  0  0  0  0  0  0  0  0
  -25.0485  -23.8880   20.2413 C   0  0  0  0  0  0  0  0  0  0  0  0
  -30.2983  -21.0079   18.5552 C   0  0  0  0  0  0  0  0  0  0  0  0
  -28.3780  -20.0454   17.4734 C   0  0  0  0  0  0  0  0  0  0  0  0
  -24.2834  -12.6101   20.8875 C   0  0  0  0  0  0  0  0  0  0  0  0
  -25.2932  -21.6767   19.2614 C   0  0  0  0  0  0  0  0  0  0  0  0
  -22.9965  -10.6464   20.7876 C   0  0  0  0  0  0  0  0  0  0  0  0
  -22.8074   -7.8862   21.1455 C   0  0  0  0  0  0  0  0  0  0  0  0
  -22.0667  -10.1216   21.6853 C   0  0  0  0  0  0  0  0  0  0  0  0
  -27.9896  -14.4568   21.7542 C   0  0  0  0  0  0  0  0  0  0  0  0
  -30.1278  -14.9492   21.8980 C   0  0  0  0  0  0  0  0  0  0  0  0
  -29.6522  -12.8474   20.6314 C   0  0  0  0  0  0  0  0  0  0  0  0
  -22.4756  -25.7492   21.4840 C   0  0  0  0  0  0  0  0  0  0  0  0
  -25.1980  -27.5126   21.4530 C   0  0  0  0  0  0  0  0  0  0  0  0
  -28.5099  -27.7149   20.6549 C   0  0  0  0  0  0  0  0  0  0  0  0
  -29.4566  -20.7201   23.3464 C   0  0  0  0  0  0  0  0  0  0  0  0
  -18.3663  -27.9851   23.5265 C   0  0  0  0  0  0  0  0  0  0  0  0
  -24.1124  -24.1671   22.5673 C   0  0  0  0  0  0  0  0  0  0  0  0
  -25.2205  -25.3783   20.1077 C   0  0  0  0  0  0  0  0  0  0  0  0
  -19.5846  -28.4544   22.7354 C   0  0  0  0  0  0  0  0  0  0  0  0
  -30.5186  -18.0841   25.4912 C   0  0  0  0  0  0  0  0  0  0  0  0
  -19.7879  -27.5818   21.5009 C   0  0  0  0  0  0  0  0  0  0  0  0
  -30.1065  -16.8151   24.7429 C   0  0  0  0  0  0  0  0  0  0  0  0
  -29.4983  -19.2051   25.3059 C   0  0  0  0  0  0  0  0  0  0  0  0
  -28.7640  -18.2544   23.1540 C   0  0  0  0  0  0  0  0  0  0  0  0
  -20.0500  -26.1228   21.8935 C   0  0  1  0  0  0  0  0  0  0  0  0
  -23.8037  -25.6079   22.1723 C   0  0  1  0  0  0  0  0  0  0  0  0
  -29.7898  -17.1135   23.2651 C   0  0  2  0  0  0  0  0  0  0  0  0
  -28.4954  -17.1039   16.6462 C   0  0  0  0  0  0  0  0  0  0  0  0
  -30.4575  -29.2963   20.7144 C   0  0  0  0  0  0  0  0  0  0  0  0
  -24.0517  -29.0109   19.0548 C   0  0  0  0  0  0  0  0  0  0  0  0
  -26.3532  -29.8767   18.5839 C   0  0  0  0  0  0  0  0  0  0  0  0
  -25.2185  -30.4576   20.7282 C   0  0  0  0  0  0  0  0  0  0  0  0
  -30.0582  -25.9247   22.4315 C   0  0  0  0  0  0  0  0  0  0  0  0
  -31.1941  -21.1520   19.7339 C   0  0  0  0  0  0  0  0  0  0  0  0
  -27.5431  -17.6469   17.7050 C   0  0  0  0  0  0  0  0  0  0  0  0
  -30.7832  -22.2652   20.7203 C   0  0  0  0  0  0  0  0  0  0  0  0
  -29.3754  -22.1089   21.2912 C   0  0  0  0  0  0  0  0  0  0  0  0
  -26.1379  -19.5761   18.5334 C   0  0  0  0  0  0  0  0  0  1  0  0
  -27.1646  -19.1259   17.4805 C   0  0  1  0  0  0  0  0  0  0  0  0
  -26.0758  -28.1051   20.3771 C   0  0  1  0  0  0  0  0  0  0  0  0
  -29.7103  -28.1952   21.4505 C   0  0  2  0  0  0  0  0  0  0  0  0
  -25.4199  -29.3346   19.6874 C   0  0  0  0  0  0  0  0  0  0  0  0
  -29.7591  -21.6329   16.2829 N   0  0  0  0  0  0  0  0  0  0  0  0
  -28.0248  -15.5929   22.4557 N   0  0  0  0  0  0  0  0  0  0  0  0
  -29.3386  -15.8670   22.5266 N   0  0  0  0  0  0  0  0  0  0  0  0
  -24.8120  -26.1765   21.2755 N   0  0  0  0  0  0  0  0  0  0  0  0
  -29.2438  -19.4393   23.8824 N   0  0  0  0  0  0  0  0  0  0  0  0
  -31.4719  -15.0721   21.8726 N   0  0  0  0  0  0  0  0  0  0  0  0
  -28.6448  -11.9869   20.1741 N   0  0  0  0  0  0  0  0  0  0  0  0
  -21.4151  -25.9583   22.3449 N   0  0  0  0  0  0  0  0  0  0  0  0
  -27.3601  -28.3888   21.0084 N   0  0  0  0  0  0  0  0  0  0  0  0
  -29.1974  -20.8544   21.9879 N   0  0  0  0  0  0  0  0  0  0  0  0
  -30.6546  -27.0683   21.6943 N   0  3  0  0  0  0  0  0  0  0  0  0
  -30.8517  -12.5715   20.3896 O   0  0  0  0  0  0  0  0  0  0  0  0
  -22.4174  -25.6755   20.2621 O   0  0  0  0  0  0  0  0  0  0  0  0
  -24.8728  -28.2075   22.4189 O   0  0  0  0  0  0  0  0  0  0  0  0
  -28.5855  -26.8331   19.8022 O   0  0  0  0  0  0  0  0  0  0  0  0
  -29.8537  -21.6720   24.0270 O   0  0  0  0  0  0  0  0  0  0  0  0
  -23.0909  -12.0163   20.6082 O   0  0  0  0  0  0  0  0  0  0  0  0
  -25.6709  -20.8874   18.2192 O   0  0  0  0  0  0  0  0  0  1  0  0
  -22.7158   -6.5608   21.3162 F   0  0  0  0  0  0  0  0  0  0  0  0
  -21.2609  -10.9382   22.3777 F   0  0  0  0  0  0  0  0  0  0  0  0
  1  2  1  0  0  0  0
  1  5  2  0  0  0  0
  2  6  2  0  0  0  0
  3  8  2  0  0  0  0
  3 18  1  0  0  0  0
  4  9  1  0  0  0  0
  4 18  2  0  0  0  0
  5 20  1  0  0  0  0
  6 22  1  0  0  0  0
  7 10  2  0  0  0  0
  7 21  1  0  0  0  0
  8 26  1  0  0  0  0
  9 26  2  0  0  0  0
 10 27  1  0  0  0  0
 11 12  2  0  0  0  0
 11 28  1  0  0  0  0
 12 29  1  0  0  0  0
 13 23  1  0  0  0  0
 13 27  2  0  0  0  0
 14 24  1  0  0  0  0
 14 25  2  0  0  0  0
 15 29  2  0  0  0  0
 15 30  1  0  0  0  0
 16 24  2  0  0  0  0
 16 65  1  0  0  0  0
 17 25  1  0  0  0  0
 17 65  2  0  0  0  0
 18 31  1  0  0  0  0
 19 31  1  0  0  0  0
 19 32  2  0  0  0  0
 19 33  1  0  0  0  0
 20 22  2  0  0  0  0
 20 38  1  0  0  0  0
 21 23  2  0  0  0  0
 21 39  1  0  0  0  0
 22 47  1  0  0  0  0
 23 40  1  0  0  0  0
 24 56  1  0  0  0  0
 25 61  1  0  0  0  0
 26 81  1  0  0  0  0
 27 82  1  0  0  0  0
 28 30  2  0  0  0  0
 28 81  1  0  0  0  0
 29 83  1  0  0  0  0
 30 84  1  0  0  0  0
 31 66  2  0  0  0  0
 32 67  1  0  0  0  0
 32 70  1  0  0  0  0
 33 71  1  0  0  0  0
 33 76  2  0  0  0  0
 34 48  1  0  0  0  0
 34 72  1  0  0  0  0
 34 77  2  0  0  0  0
 35 62  1  0  0  0  0
 35 68  1  0  0  0  0
 35 78  2  0  0  0  0
 36 63  1  0  0  0  0
 36 73  1  0  0  0  0
 36 79  2  0  0  0  0
 37 69  1  0  0  0  0
 37 74  1  0  0  0  0
 37 80  2  0  0  0  0
 38 41  1  0  0  0  0
 39 48  1  0  0  0  0
 40 68  1  0  0  0  0
 41 43  1  0  0  0  0
 42 44  1  0  0  0  0
 42 45  1  0  0  0  0
 43 47  1  0  0  0  0
 44 49  1  0  0  0  0
 45 69  1  0  0  0  0
 46 49  1  0  0  0  0
 46 69  1  0  0  0  0
 47 72  1  0  0  0  0
 48 68  1  0  0  0  0
 49 67  1  0  0  0  0
 50 57  1  0  0  0  0
 51 63  1  0  0  0  0
 52 64  1  0  0  0  0
 53 64  1  0  0  0  0
 54 64  1  0  0  0  0
 55 75  1  0  0  0  0
 56 58  1  0  0  0  0
 57 61  1  0  0  0  0
 58 59  1  0  0  0  0
 59 74  1  0  0  0  0
 60 61  1  0  0  0  0
 60 82  1  0  0  0  0
 62 64  1  0  0  0  0
 62 73  1  0  0  0  0
 63 75  1  0  0  0  0
 66 67  1  0  0  0  0
M  CHG  1  75   1
M  ISO  4  37 100  60 101  74 100  82 101
M  END
> <Batch ID>
0038

> <Smiles>
CCC(c1cncc(CCC[100NH:0][100C:0](=O)N2CCCC(n3nc(-c4ccc(Oc5ccc(F)cc5F)cc4)c(C(N)=O)c3N)C2)c1)[101CH2:1][101O:1]c1ccc2c(c1)CN(C(=O)C(NC(=O)C(C)NC)C(C)(C)C)C(C(=O)NC1CCCc3ccccc31)C2

> <Shape>
0.229

> <Color>
0.058

> <Negative vol penalty>
0.000

$$$$

  -OEChem-04052317013D

 85 93  0     1  0  0  0  0  0999 V2000
  -25.1816  -28.9278   20.6792 C   0  0  0  0  0  0  0  0  0  0  0  0
  -24.7954  -27.8286   19.9190 C   0  0  0  0  0  0  0  0  0  0  0  0
  -23.7226  -16.2648   23.1028 C   0  0  0  0  0  0  0  0  0  0  0  0
  -23.3331  -16.8475   20.7907 C   0  0  0  0  0  0  0  0  0  0  0  0
  -26.5268  -29.1203   20.9911 C   0  0  0  0  0  0  0  0  0  0  0  0
  -25.7545  -26.9217   19.4693 C   0  0  0  0  0  0  0  0  0  0  0  0
  -25.0746  -20.8718   18.8043 C   0  0  0  0  0  0  0  0  0  0  0  0
  -23.0314  -17.4069   23.5071 C   0  0  0  0  0  0  0  0  0  0  0  0
  -22.6419  -17.9896   21.1950 C   0  0  0  0  0  0  0  0  0  0  0  0
  -24.7995  -20.0753   17.6936 C   0  0  0  0  0  0  0  0  0  0  0  0
  -23.6382  -20.7213   23.7736 C   0  0  0  0  0  0  0  0  0  0  0  0
  -24.2044  -21.4963   24.7857 C   0  0  0  0  0  0  0  0  0  0  0  0
  -27.1590  -19.6572   17.4164 C   0  0  0  0  0  0  0  0  0  0  0  0
  -22.2479  -21.1357   26.1564 C   0  0  0  0  0  0  0  0  0  0  0  0
  -24.9453  -16.2515   11.2015 C   0  0  0  0  0  0  0  0  0  0  0  0
  -23.8735  -15.9851   21.7446 C   0  0  0  0  0  0  0  0  0  0  0  0
  -24.2709  -13.4679   21.6286 C   0  0  0  0  0  0  0  0  0  0  0  0
  -27.5017  -28.2101   20.5531 C   0  0  0  0  0  0  0  0  0  0  0  0
  -26.3970  -21.0762   19.2236 C   0  0  0  0  0  0  0  0  0  0  0  0
  -27.1142  -27.1029   19.7745 C   0  0  0  0  0  0  0  0  0  0  0  0
  -27.4481  -20.4547   18.5343 C   0  0  0  0  0  0  0  0  0  0  0  0
  -22.4911  -18.2693   22.5533 C   0  0  0  0  0  0  0  0  0  0  0  0
  -25.8419  -19.4702   16.9977 C   0  0  0  0  0  0  0  0  0  0  0  0
  -22.3768  -20.1536   23.9529 C   0  0  0  0  0  0  0  0  0  0  0  0
  -23.5093  -21.7035   25.9771 C   0  0  0  0  0  0  0  0  0  0  0  0
  -21.6816  -20.3607   25.1443 C   0  0  0  0  0  0  0  0  0  0  0  0
  -24.5879  -14.8058   21.3264 C   0  0  0  0  0  0  0  0  0  0  0  0
  -23.7628  -17.0151   11.1862 C   0  0  0  0  0  0  0  0  0  0  0  0
  -24.5225  -14.9599   11.0024 C   0  0  0  0  0  0  0  0  0  0  0  0
  -25.2476  -12.7335   21.0016 C   0  0  0  0  0  0  0  0  0  0  0  0
  -23.1901  -12.9366   22.4066 C   0  0  0  0  0  0  0  0  0  0  0  0
  -28.2933  -23.6112   19.5092 C   0  0  0  0  0  0  0  0  0  0  0  0
  -28.7536  -13.9316   16.2704 C   0  0  0  0  0  0  0  0  0  0  0  0
  -30.3125  -21.4618   20.8601 C   0  0  0  0  0  0  0  0  0  0  0  0
  -31.2876  -18.2071   21.1808 C   0  0  0  0  0  0  0  0  0  0  0  0
  -28.9491  -28.4857   20.8752 C   0  0  0  0  0  0  0  0  0  0  0  0
  -26.6752  -21.9165   20.4397 C   0  0  0  0  0  0  0  0  0  0  0  0
  -28.8838  -20.6259   18.9560 C   0  0  0  0  0  0  0  0  0  0  0  0
  -29.8583  -27.2757   20.6769 C   0  0  0  0  0  0  0  0  0  0  0  0
  -29.7966  -12.9908   19.5669 C   0  0  0  0  0  0  0  0  0  0  0  0
  -29.5648  -26.6007   19.3408 C   0  0  0  0  0  0  0  0  0  0  0  0
  -28.5593  -13.2550   20.4240 C   0  0  0  0  0  0  0  0  0  0  0  0
  -29.9279  -14.0159   18.4449 C   0  0  0  0  0  0  0  0  0  0  0  0
  -27.4811  -14.3829   18.4264 C   0  0  0  0  0  0  0  0  0  0  0  0
  -28.1220  -26.0837   19.2892 C   0  0  1  0  0  0  0  0  0  0  0  0
  -28.0955  -22.4726   20.4695 C   0  0  1  0  0  0  0  0  0  0  0  0
  -27.2941  -13.3515   19.5532 C   0  0  2  0  0  0  0  0  0  0  0  0
  -32.9925  -16.7652   22.3261 C   0  0  0  0  0  0  0  0  0  0  0  0
  -32.4291  -22.3847   18.8657 C   0  0  0  0  0  0  0  0  0  0  0  0
  -33.7362  -20.3180   19.4026 C   0  0  0  0  0  0  0  0  0  0  0  0
  -33.2791  -22.0011   21.1862 C   0  0  0  0  0  0  0  0  0  0  0  0
  -22.2587  -13.9235   10.6626 C   0  0  0  0  0  0  0  0  0  0  0  0
  -29.2013  -16.6971   22.6391 C   0  0  0  0  0  0  0  0  0  0  0  0
  -23.6301  -18.5070   11.3612 C   0  0  0  0  0  0  0  0  0  0  0  0
  -25.2772  -13.6963   10.9164 C   0  0  0  0  0  0  0  0  0  0  0  0
  -27.4455  -14.0210   15.5255 C   0  0  0  0  0  0  0  0  0  0  0  0
  -23.4482  -18.9457   12.8184 C   0  0  0  0  0  0  0  0  0  0  0  0
  -26.5841  -13.6582   11.7428 C   0  0  0  0  0  0  0  0  0  0  0  0
  -27.6545  -13.8259   14.0271 C   0  0  0  0  0  0  0  0  0  0  0  0
  -26.3428  -13.8934   13.2377 C   0  0  0  0  0  0  0  0  0  0  0  0
  -24.6507  -18.6064   13.7003 C   0  0  0  0  0  0  0  0  0  0  0  0
  -24.4177  -19.0207   15.1469 C   0  0  0  0  0  0  0  0  0  1  0  0
  -31.3933  -20.5411   20.3470 C   0  0  1  0  0  0  0  0  0  0  0  0
  -31.5969  -17.3642   22.4049 C   0  0  2  0  0  0  0  0  0  0  0  0
  -32.6826  -21.3094   19.9410 C   0  0  0  0  0  0  0  0  0  0  0  0
  -25.6807  -14.9178   20.5665 N   0  0  0  0  0  0  0  0  0  0  0  0
  -22.6708  -16.2708   10.9924 N   0  0  0  0  0  0  0  0  0  0  0  0
  -23.1654  -15.0260   10.8841 N   0  0  0  0  0  0  0  0  0  0  0  0
  -26.0589  -13.6408   20.3861 N   0  0  0  0  0  0  0  0  0  0  0  0
  -29.1051  -21.4621   20.1474 N   0  0  0  0  0  0  0  0  0  0  0  0
  -28.6978  -14.0937   17.6548 N   0  0  0  0  0  0  0  0  0  0  0  0
  -25.4830  -11.4066   20.9222 N   0  0  0  0  0  0  0  0  0  0  0  0
  -21.9884  -12.6254   21.7559 N   0  0  0  0  0  0  0  0  0  0  0  0
  -27.9991  -24.8526   20.0401 N   0  0  0  0  0  0  0  0  0  0  0  0
  -31.5985  -19.5351   21.3834 N   0  0  0  0  0  0  0  0  0  0  0  0
  -30.6140  -16.2509   22.5290 N   0  3  0  0  0  0  0  0  0  0  0  0
  -23.2816  -12.7587   23.6449 O   0  0  0  0  0  0  0  0  0  0  0  0
  -28.6852  -23.3806   18.3712 O   0  0  0  0  0  0  0  0  0  0  0  0
  -29.7926  -13.7209   15.6392 O   0  0  0  0  0  0  0  0  0  0  0  0
  -30.5289  -22.1498   21.8608 O   0  0  0  0  0  0  0  0  0  0  0  0
  -30.8206  -17.7341   20.1470 O   0  0  0  0  0  0  0  0  0  0  0  0
  -21.8163  -19.3837   22.9474 O   0  0  0  0  0  0  0  0  0  0  0  0
  -25.5762  -18.6928   15.9129 O   0  0  0  0  0  0  0  0  0  1  0  0
  -24.0538  -22.4465   26.9495 F   0  0  0  0  0  0  0  0  0  0  0  0
  -20.4699  -19.8169   25.3228 F   0  0  0  0  0  0  0  0  0  0  0  0
  1  2  1  0  0  0  0
  1  5  2  0  0  0  0
  2  6  2  0  0  0  0
  3  8  2  0  0  0  0
  3 16  1  0  0  0  0
  4  9  1  0  0  0  0
  4 16  2  0  0  0  0
  5 18  1  0  0  0  0
  6 20  1  0  0  0  0
  7 10  2  0  0  0  0
  7 19  1  0  0  0  0
  8 22  1  0  0  0  0
  9 22  2  0  0  0  0
 10 23  1  0  0  0  0
 11 12  2  0  0  0  0
 11 24  1  0  0  0  0
 12 25  1  0  0  0  0
 13 21  1  0  0  0  0
 13 23  2  0  0  0  0
 14 25  2  0  0  0  0
 14 26  1  0  0  0  0
 15 28  1  0  0  0  0
 15 29  2  0  0  0  0
 16 27  1  0  0  0  0
 17 27  1  0  0  0  0
 17 30  2  0  0  0  0
 17 31  1  0  0  0  0
 18 20  2  0  0  0  0
 18 36  1  0  0  0  0
 19 21  2  0  0  0  0
 19 37  1  0  0  0  0
 20 45  1  0  0  0  0
 21 38  1  0  0  0  0
 22 82  1  0  0  0  0
 23 83  1  0  0  0  0
 24 26  2  0  0  0  0
 24 82  1  0  0  0  0
 25 84  1  0  0  0  0
 26 85  1  0  0  0  0
 27 66  2  0  0  0  0
 28 54  1  0  0  0  0
 28 67  2  0  0  0  0
 29 55  1  0  0  0  0
 29 68  1  0  0  0  0
 30 69  1  0  0  0  0
 30 72  1  0  0  0  0
 31 73  1  0  0  0  0
 31 77  2  0  0  0  0
 32 46  1  0  0  0  0
 32 74  1  0  0  0  0
 32 78  2  0  0  0  0
 33 56  1  0  0  0  0
 33 71  1  0  0  0  0
 33 79  2  0  0  0  0
 34 63  1  0  0  0  0
 34 70  1  0  0  0  0
 34 80  2  0  0  0  0
 35 64  1  0  0  0  0
 35 75  1  0  0  0  0
 35 81  2  0  0  0  0
 36 39  1  0  0  0  0
 37 46  1  0  0  0  0
 38 70  1  0  0  0  0
 39 41  1  0  0  0  0
 40 42  1  0  0  0  0
 40 43  1  0  0  0  0
 41 45  1  0  0  0  0
 42 47  1  0  0  0  0
 43 71  1  0  0  0  0
 44 47  1  0  0  0  0
 44 71  1  0  0  0  0
 45 74  1  0  0  0  0
 46 70  1  0  0  0  0
 47 69  1  0  0  0  0
 48 64  1  0  0  0  0
 49 65  1  0  0  0  0
 50 65  1  0  0  0  0
 51 65  1  0  0  0  0
 52 68  1  0  0  0  0
 53 76  1  0  0  0  0
 54 57  1  0  0  0  0
 55 58  1  0  0  0  0
 56 59  1  0  0  0  0
 57 61  1  0  0  0  0
 58 60  1  0  0  0  0
 59 60  1  0  0  0  0
 61 62  1  0  0  0  0
 62 83  1  0  0  0  0
 63 65  1  0  0  0  0
 63 75  1  0  0  0  0
 64 76  1  0  0  0  0
 66 69  1  0  0  0  0
 67 68  1  0  0  0  0
M  CHG  1  76   1
M  ISO  4  33 100  56 100  62 101  83 101
M  END
> <Batch ID>
0038

> <Smiles>
CNC(C)C(=O)NC(C(=O)N1Cc2cc([101O:1][101CH2:1]CCCc3cc(CCCC[100CH2:0][100C:0](=O)N4CCCC(n5nc(-c6ccc(Oc7ccc(F)cc7F)cc6)c(C(N)=O)c5N)C4)n(C)n3)ccc2CC1C(=O)NC1CCCc2ccccc21)C(C)(C)C

> <Shape>
0.188

> <Color>
0.104

> <Negative vol penalty>
0.000

$$$$

  -OEChem-04052317013D

 84 92  0     1  0  0  0  0  0999 V2000
  -27.0031  -37.8268   21.2926 C   0  0  0  0  0  0  0  0  0  0  0  0
  -27.6359  -36.6757   20.8345 C   0  0  0  0  0  0  0  0  0  0  0  0
  -22.7758  -10.6769   19.9746 C   0  0  0  0  0  0  0  0  0  0  0  0
  -23.8779   -9.7402   21.9099 C   0  0  0  0  0  0  0  0  0  0  0  0
  -25.9951  -37.7323   22.2513 C   0  0  0  0  0  0  0  0  0  0  0  0
  -27.2620  -35.4293   21.3358 C   0  0  0  0  0  0  0  0  0  0  0  0
  -26.6552  -28.5705   19.3598 C   0  0  0  0  0  0  0  0  0  0  0  0
  -21.8818   -9.6062   19.9655 C   0  0  0  0  0  0  0  0  0  0  0  0
  -22.9839   -8.6696   21.9008 C   0  0  0  0  0  0  0  0  0  0  0  0
  -27.0490  -27.2949   19.7619 C   0  0  0  0  0  0  0  0  0  0  0  0
  -19.8012   -8.0759   22.8695 C   0  0  0  0  0  0  0  0  0  0  0  0
  -19.2452   -7.6875   24.0883 C   0  0  0  0  0  0  0  0  0  0  0  0
  -25.2404  -27.2462   21.3574 C   0  0  0  0  0  0  0  0  0  0  0  0
  -28.8714  -21.9890   22.7693 C   0  0  0  0  0  0  0  0  0  0  0  0
  -20.2101   -5.4879   23.8274 C   0  0  0  0  0  0  0  0  0  0  0  0
  -27.9518  -21.1750   20.7326 C   0  0  0  0  0  0  0  0  0  0  0  0
  -23.7739  -10.7439   20.9468 C   0  0  0  0  0  0  0  0  0  0  0  0
  -24.5506  -13.0747   21.6336 C   0  0  0  0  0  0  0  0  0  0  0  0
  -25.6020  -36.4833   22.7575 C   0  0  0  0  0  0  0  0  0  0  0  0
  -25.5559  -29.1990   19.9621 C   0  0  0  0  0  0  0  0  0  0  0  0
  -26.2488  -35.3181   22.3031 C   0  0  0  0  0  0  0  0  0  0  0  0
  -24.8332  -28.5287   20.9594 C   0  0  0  0  0  0  0  0  0  0  0  0
  -28.5097  -20.9085   21.9726 C   0  0  0  0  0  0  0  0  0  0  0  0
  -28.6671  -23.2848   22.3083 C   0  0  0  0  0  0  0  0  0  0  0  0
  -21.9858   -8.6026   20.9285 C   0  0  0  0  0  0  0  0  0  0  0  0
  -26.3433  -26.6337   20.7628 C   0  0  0  0  0  0  0  0  0  0  0  0
  -20.5616   -7.1704   22.1296 C   0  0  0  0  0  0  0  0  0  0  0  0
  -19.4496   -6.3935   24.5673 C   0  0  0  0  0  0  0  0  0  0  0  0
  -20.7660   -5.8764   22.6086 C   0  0  0  0  0  0  0  0  0  0  0  0
  -24.6980  -11.8493   20.9564 C   0  0  0  0  0  0  0  0  0  0  0  0
  -28.1024  -23.4450   21.0532 C   0  0  0  0  0  0  0  0  0  0  0  0
  -25.6903  -13.7766   21.3254 C   0  0  0  0  0  0  0  0  0  0  0  0
  -23.4794  -13.5370   22.4669 C   0  0  0  0  0  0  0  0  0  0  0  0
  -25.1443  -31.8499   21.6670 C   0  0  0  0  0  0  0  0  0  0  0  0
  -22.0073  -31.0678   21.4019 C   0  0  0  0  0  0  0  0  0  0  0  0
  -19.6580  -28.6430   20.9040 C   0  0  0  0  0  0  0  0  0  0  0  0
  -31.2272  -14.0226   20.6715 C   0  0  0  0  0  0  0  0  0  0  0  0
  -24.5401  -36.4353   23.8274 C   0  0  0  0  0  0  0  0  0  0  0  0
  -25.1277  -30.5643   19.4985 C   0  0  0  0  0  0  0  0  0  0  0  0
  -23.6333  -29.1515   21.6235 C   0  0  0  0  0  0  0  0  0  0  0  0
  -23.9446  -35.0448   24.0326 C   0  0  0  0  0  0  0  0  0  0  0  0
  -29.3068  -12.8482   17.9129 C   0  0  0  0  0  0  0  0  0  0  0  0
  -25.0502  -33.9966   24.1094 C   0  0  0  0  0  0  0  0  0  0  0  0
  -27.9270  -12.5790   18.5159 C   0  0  0  0  0  0  0  0  0  0  0  0
  -30.4275  -12.4988   18.8896 C   0  0  0  0  0  0  0  0  0  0  0  0
  -28.9369  -12.8693   20.8169 C   0  0  0  0  0  0  0  0  0  0  0  0
  -25.8540  -33.9459   22.8045 C   0  0  1  0  0  0  0  0  0  0  0  0
  -24.3057  -31.3182   20.5393 C   0  0  1  0  0  0  0  0  0  0  0  0
  -27.7731  -13.2591   19.8896 C   0  0  2  0  0  0  0  0  0  0  0  0
  -29.0507  -24.4470   23.1576 C   0  0  0  0  0  0  0  0  0  0  0  0
  -17.1750  -28.3019   20.7792 C   0  0  0  0  0  0  0  0  0  0  0  0
  -21.8296  -31.2672   24.4414 C   0  0  0  0  0  0  0  0  0  0  0  0
  -19.6613  -30.0208   24.3268 C   0  0  0  0  0  0  0  0  0  0  0  0
  -19.8804  -32.2437   23.2162 C   0  0  0  0  0  0  0  0  0  0  0  0
  -19.8132  -27.6864   18.1076 C   0  0  0  0  0  0  0  0  0  0  0  0
  -28.7158  -19.5104   22.4361 C   0  0  0  0  0  0  0  0  0  0  0  0
  -27.8593  -24.8198   20.5036 C   0  0  0  0  0  0  0  0  0  1  0  0
  -30.0935  -18.9575   22.0348 C   0  0  0  0  0  0  0  0  0  0  0  0
  -30.2789  -17.5057   22.4813 C   0  0  0  0  0  0  0  0  0  0  0  0
  -31.6696  -16.9835   22.1089 C   0  0  0  0  0  0  0  0  0  0  0  0
  -31.8825  -15.5328   22.5286 C   0  0  0  0  0  0  0  0  0  0  0  0
  -21.0410  -30.2357   22.2099 C   0  0  1  0  0  0  0  0  0  0  0  0
  -18.4450  -28.5877   19.9930 C   0  0  2  0  0  0  0  0  0  0  0  0
  -20.6268  -30.9306   23.5376 C   0  0  0  0  0  0  0  0  0  0  0  0
  -27.7381  -22.4198   20.2506 N   0  0  0  0  0  0  0  0  0  0  0  0
  -25.8411  -11.7740   20.2696 N   0  0  0  0  0  0  0  0  0  0  0  0
  -26.4223  -12.9609   20.5136 N   0  0  0  0  0  0  0  0  0  0  0  0
  -23.2578  -30.4904   21.1399 N   0  0  0  0  0  0  0  0  0  0  0  0
  -30.2230  -13.1770   20.1718 N   0  0  0  0  0  0  0  0  0  0  0  0
  -26.1276  -15.0057   21.6722 N   0  0  0  0  0  0  0  0  0  0  0  0
  -22.3841  -12.6887   22.6791 N   0  0  0  0  0  0  0  0  0  0  0  0
  -25.1196  -33.2264   21.7860 N   0  0  0  0  0  0  0  0  0  0  0  0
  -19.9245  -29.9297   21.3220 N   0  0  0  0  0  0  0  0  0  0  0  0
  -30.9502  -14.6310   21.8896 N   0  0  0  0  0  0  0  0  0  0  0  0
  -18.6146  -27.5182   18.9691 N   0  3  0  0  0  0  0  0  0  0  0  0
  -23.4855  -14.6753   22.9940 O   0  0  0  0  0  0  0  0  0  0  0  0
  -25.7664  -31.0691   22.3776 O   0  0  0  0  0  0  0  0  0  0  0  0
  -21.6627  -32.1860   21.0115 O   0  0  0  0  0  0  0  0  0  0  0  0
  -20.3023  -27.6442   21.2167 O   0  0  0  0  0  0  0  0  0  0  0  0
  -32.2895  -14.2249   20.0735 O   0  0  0  0  0  0  0  0  0  0  0  0
  -21.1135   -7.5578   20.9201 O   0  0  0  0  0  0  0  0  0  0  0  0
  -26.7258  -25.3889   21.1576 O   0  0  0  0  0  0  0  0  0  1  0  0
  -18.9169   -6.0211   25.7385 F   0  0  0  0  0  0  0  0  0  0  0  0
  -21.4966   -5.0024   21.9028 F   0  0  0  0  0  0  0  0  0  0  0  0
  1  2  1  0  0  0  0
  1  5  2  0  0  0  0
  2  6  2  0  0  0  0
  3  8  2  0  0  0  0
  3 17  1  0  0  0  0
  4  9  1  0  0  0  0
  4 17  2  0  0  0  0
  5 19  1  0  0  0  0
  6 21  1  0  0  0  0
  7 10  2  0  0  0  0
  7 20  1  0  0  0  0
  8 25  1  0  0  0  0
  9 25  2  0  0  0  0
 10 26  1  0  0  0  0
 11 12  2  0  0  0  0
 11 27  1  0  0  0  0
 12 28  1  0  0  0  0
 13 22  1  0  0  0  0
 13 26  2  0  0  0  0
 14 23  2  0  0  0  0
 14 24  1  0  0  0  0
 15 28  2  0  0  0  0
 15 29  1  0  0  0  0
 16 23  1  0  0  0  0
 16 65  2  0  0  0  0
 17 30  1  0  0  0  0
 18 30  1  0  0  0  0
 18 32  2  0  0  0  0
 18 33  1  0  0  0  0
 19 21  2  0  0  0  0
 19 38  1  0  0  0  0
 20 22  2  0  0  0  0
 20 39  1  0  0  0  0
 21 47  1  0  0  0  0
 22 40  1  0  0  0  0
 23 56  1  0  0  0  0
 24 31  2  0  0  0  0
 24 50  1  0  0  0  0
 25 81  1  0  0  0  0
 26 82  1  0  0  0  0
 27 29  2  0  0  0  0
 27 81  1  0  0  0  0
 28 83  1  0  0  0  0
 29 84  1  0  0  0  0
 30 66  2  0  0  0  0
 31 57  1  0  0  0  0
 31 65  1  0  0  0  0
 32 67  1  0  0  0  0
 32 70  1  0  0  0  0
 33 71  1  0  0  0  0
 33 76  2  0  0  0  0
 34 48  1  0  0  0  0
 34 72  1  0  0  0  0
 34 77  2  0  0  0  0
 35 62  1  0  0  0  0
 35 68  1  0  0  0  0
 35 78  2  0  0  0  0
 36 63  1  0  0  0  0
 36 73  1  0  0  0  0
 36 79  2  0  0  0  0
 37 69  1  0  0  0  0
 37 74  1  0  0  0  0
 37 80  2  0  0  0  0
 38 41  1  0  0  0  0
 39 48  1  0  0  0  0
 40 68  1  0  0  0  0
 41 43  1  0  0  0  0
 42 44  1  0  0  0  0
 42 45  1  0  0  0  0
 43 47  1  0  0  0  0
 44 49  1  0  0  0  0
 45 69  1  0  0  0  0
 46 49  1  0  0  0  0
 46 69  1  0  0  0  0
 47 72  1  0  0  0  0
 48 68  1  0  0  0  0
 49 67  1  0  0  0  0
 51 63  1  0  0  0  0
 52 64  1  0  0  0  0
 53 64  1  0  0  0  0
 54 64  1  0  0  0  0
 55 75  1  0  0  0  0
 56 58  1  0  0  0  0
 57 82  1  0  0  0  0
 58 59  1  0  0  0  0
 59 60  1  0  0  0  0
 60 61  1  0  0  0  0
 61 74  1  0  0  0  0
 62 64  1  0  0  0  0
 62 73  1  0  0  0  0
 63 75  1  0  0  0  0
 66 67  1  0  0  0  0
M  CHG  1  75   1
M  ISO  4  37 100  57 101  74 100  82 101
M  END
> <Batch ID>
0038

> <Smiles>
CNC(C)C(=O)NC(C(=O)N1Cc2cc([101O:1][101CH2:1]c3ncc(CCCCC[100NH:0][100C:0](=O)N4CCCC(n5nc(-c6ccc(Oc7ccc(F)cc7F)cc6)c(C(N)=O)c5N)C4)cc3C)ccc2CC1C(=O)NC1CCCc2ccccc21)C(C)(C)C

> <Shape>
0.338

> <Color>
0.140

> <Negative vol penalty>
0.000

$$$$

  -OEChem-04052317012D

  0  0  0     0  0  0  0  0  0999 V2000
M  END
$$$$

  -OEChem-04052317013D

 83 91  0     1  0  0  0  0  0999 V2000
  -21.8375  -12.2675   22.5659 C   0  0  0  0  0  0  0  0  0  0  0  0
  -22.5226  -13.2821   23.2267 C   0  0  0  0  0  0  0  0  0  0  0  0
  -24.5895  -28.4615   20.3200 C   0  0  0  0  0  0  0  0  0  0  0  0
  -24.2334  -28.8236   22.6821 C   0  0  0  0  0  0  0  0  0  0  0  0
  -22.4186  -11.6367   21.4667 C   0  0  0  0  0  0  0  0  0  0  0  0
  -23.7899  -13.6657   22.7893 C   0  0  0  0  0  0  0  0  0  0  0  0
  -24.3394  -18.6964   22.6004 C   0  0  0  0  0  0  0  0  0  0  0  0
  -23.2343  -28.6889   20.0808 C   0  0  0  0  0  0  0  0  0  0  0  0
  -22.8781  -29.0510   22.4428 C   0  0  0  0  0  0  0  0  0  0  0  0
  -24.5634  -19.3581   23.8069 C   0  0  0  0  0  0  0  0  0  0  0  0
  -19.2583  -29.3726   22.5000 C   0  0  0  0  0  0  0  0  0  0  0  0
  -18.3380  -28.7592   23.3499 C   0  0  0  0  0  0  0  0  0  0  0  0
  -26.9221  -19.4527   23.3100 C   0  0  0  0  0  0  0  0  0  0  0  0
  -26.0080  -22.6073   27.2574 C   0  0  0  0  0  0  0  0  0  0  0  0
  -19.1864  -26.5912   22.7038 C   0  0  0  0  0  0  0  0  0  0  0  0
  -25.0891  -28.5288   21.6207 C   0  0  0  0  0  0  0  0  0  0  0  0
  -27.5228  -29.2487   21.8782 C   0  0  0  0  0  0  0  0  0  0  0  0
  -23.6896  -12.0194   21.0096 C   0  0  0  0  0  0  0  0  0  0  0  0
  -25.4083  -18.3976   21.7433 C   0  0  0  0  0  0  0  0  0  0  0  0
  -24.3891  -13.0386   21.6837 C   0  0  0  0  0  0  0  0  0  0  0  0
  -26.7086  -18.7894   22.0921 C   0  0  0  0  0  0  0  0  0  0  0  0
  -26.4070  -23.2642   28.4161 C   0  0  0  0  0  0  0  0  0  0  0  0
  -26.1718  -22.6800   29.6558 C   0  0  0  0  0  0  0  0  0  0  0  0
  -22.3786  -28.9837   21.1422 C   0  0  0  0  0  0  0  0  0  0  0  0
  -25.8553  -19.7339   24.1632 C   0  0  0  0  0  0  0  0  0  0  0  0
  -20.1426  -28.5953   21.7519 C   0  0  0  0  0  0  0  0  0  0  0  0
  -18.3021  -27.3685   23.4518 C   0  0  0  0  0  0  0  0  0  0  0  0
  -20.1067  -27.2047   21.8538 C   0  0  0  0  0  0  0  0  0  0  0  0
  -26.4888  -28.2934   21.8685 C   0  0  0  0  0  0  0  0  0  0  0  0
  -25.3828  -21.3781   27.3913 C   0  0  0  0  0  0  0  0  0  0  0  0
  -25.5391  -21.4477   29.6823 C   0  0  0  0  0  0  0  0  0  0  0  0
  -28.6558  -28.5255   22.1608 C   0  0  0  0  0  0  0  0  0  0  0  0
  -27.4644  -30.6633   21.6521 C   0  0  0  0  0  0  0  0  0  0  0  0
  -26.6899  -15.7209   20.6046 C   0  0  0  0  0  0  0  0  0  0  0  0
  -28.4809  -17.7836   18.8554 C   0  0  0  0  0  0  0  0  0  0  0  0
  -29.8004  -20.9135   18.5246 C   0  0  0  0  0  0  0  0  0  0  0  0
  -29.5763  -23.3287   24.9886 C   0  0  0  0  0  0  0  0  0  0  0  0
  -24.2968  -11.2762   19.8462 C   0  0  0  0  0  0  0  0  0  0  0  0
  -25.1464  -17.7069   20.4330 C   0  0  0  0  0  0  0  0  0  0  0  0
  -27.8878  -18.5101   21.1976 C   0  0  0  0  0  0  0  0  0  0  0  0
  -25.4853  -11.9977   19.2160 C   0  0  0  0  0  0  0  0  0  0  0  0
  -30.5285  -24.1516   21.6581 C   0  0  0  0  0  0  0  0  0  0  0  0
  -26.4432  -12.4921   20.2952 C   0  0  0  0  0  0  0  0  0  0  0  0
  -29.6945  -25.3926   21.3352 C   0  0  0  0  0  0  0  0  0  0  0  0
  -29.7537  -23.1604   22.5235 C   0  0  0  0  0  0  0  0  0  0  0  0
  -28.3530  -24.9703   23.4378 C   0  0  0  0  0  0  0  0  0  0  0  0
  -25.7552  -13.4998   21.2240 C   0  0  1  0  0  0  0  0  0  0  0  0
  -26.3762  -16.9968   19.8756 C   0  0  1  0  0  0  0  0  0  0  0  0
  -29.1116  -26.0246   22.6135 C   0  0  2  0  0  0  0  0  0  0  0  0
  -26.5909  -23.3603   30.9155 C   0  0  0  0  0  0  0  0  0  0  0  0
  -25.2606  -20.7696   30.9840 C   0  0  0  0  0  0  0  0  0  0  0  0
  -31.2526  -22.2890   17.0092 C   0  0  0  0  0  0  0  0  0  0  0  0
  -30.9523  -16.3503   19.9268 C   0  0  0  0  0  0  0  0  0  0  0  0
  -32.3259  -18.3029   19.1727 C   0  0  0  0  0  0  0  0  0  0  0  0
  -31.0630  -16.9488   17.5011 C   0  0  0  0  0  0  0  0  0  0  0  0
  -27.6214  -22.8462   17.9992 C   0  0  0  0  0  0  0  0  0  0  0  0
  -27.0807  -24.5917   28.3025 C   0  0  0  0  0  0  0  0  0  0  0  0
  -24.9397  -20.6398   26.1625 C   0  0  0  0  0  0  0  0  0  1  0  0
  -28.6138  -24.5418   28.4479 C   0  0  0  0  0  0  0  0  0  0  0  0
  -29.3123  -23.6345   27.4373 C   0  0  0  0  0  0  0  0  0  0  0  0
  -29.7996  -18.4904   19.0565 C   0  0  1  0  0  0  0  0  0  0  0  0
  -29.8296  -21.8755   17.3506 C   0  0  2  0  0  0  0  0  0  0  0  0
  -31.0134  -17.5268   18.9323 C   0  0  0  0  0  0  0  0  0  0  0  0
  -26.9261  -27.0576   22.1244 N   0  0  0  0  0  0  0  0  0  0  0  0
  -25.1371  -20.7792   28.5781 N   0  0  0  0  0  0  0  0  0  0  0  0
  -28.2475  -27.2314   22.2975 N   0  0  0  0  0  0  0  0  0  0  0  0
  -27.5813  -17.8269   19.9300 N   0  0  0  0  0  0  0  0  0  0  0  0
  -29.2289  -23.8224   23.7203 N   0  0  0  0  0  0  0  0  0  0  0  0
  -29.9515  -28.8767   22.3030 N   0  0  0  0  0  0  0  0  0  0  0  0
  -26.2197  -31.2447   21.3745 N   0  0  0  0  0  0  0  0  0  0  0  0
  -25.6641  -14.7953   20.5854 N   0  0  0  0  0  0  0  0  0  0  0  0
  -29.8173  -19.5991   18.1084 N   0  0  0  0  0  0  0  0  0  0  0  0
  -29.0412  -24.0183   26.0698 N   0  0  0  0  0  0  0  0  0  0  0  0
  -29.0465  -23.1032   17.6674 N   0  3  0  0  0  0  0  0  0  0  0  0
  -28.4881  -31.3877   21.6787 O   0  0  0  0  0  0  0  0  0  0  0  0
  -27.7822  -15.5857   21.1433 O   0  0  0  0  0  0  0  0  0  0  0  0
  -28.2544  -17.2202   17.7817 O   0  0  0  0  0  0  0  0  0  0  0  0
  -29.7697  -21.2905   19.6940 O   0  0  0  0  0  0  0  0  0  0  0  0
  -30.3133  -22.3494   25.1459 O   0  0  0  0  0  0  0  0  0  0  0  0
  -21.0562  -29.2059   20.9091 O   0  0  0  0  0  0  0  0  0  0  0  0
  -26.0768  -20.3794   25.3406 O   0  0  0  0  0  0  0  0  0  1  0  0
  -17.4193  -26.7796   24.2692 F   0  0  0  0  0  0  0  0  0  0  0  0
  -20.9545  -26.4528   21.1385 F   0  0  0  0  0  0  0  0  0  0  0  0
  1  2  1  0  0  0  0
  1  5  2  0  0  0  0
  2  6  2  0  0  0  0
  3  8  2  0  0  0  0
  3 16  1  0  0  0  0
  4  9  1  0  0  0  0
  4 16  2  0  0  0  0
  5 18  1  0  0  0  0
  6 20  1  0  0  0  0
  7 10  2  0  0  0  0
  7 19  1  0  0  0  0
  8 24  1  0  0  0  0
  9 24  2  0  0  0  0
 10 25  1  0  0  0  0
 11 12  2  0  0  0  0
 11 26  1  0  0  0  0
 12 27  1  0  0  0  0
 13 21  1  0  0  0  0
 13 25  2  0  0  0  0
 14 22  2  0  0  0  0
 14 30  1  0  0  0  0
 15 27  2  0  0  0  0
 15 28  1  0  0  0  0
 16 29  1  0  0  0  0
 17 29  1  0  0  0  0
 17 32  2  0  0  0  0
 17 33  1  0  0  0  0
 18 20  2  0  0  0  0
 18 38  1  0  0  0  0
 19 21  2  0  0  0  0
 19 39  1  0  0  0  0
 20 47  1  0  0  0  0
 21 40  1  0  0  0  0
 22 23  1  0  0  0  0
 22 57  1  0  0  0  0
 23 31  2  0  0  0  0
 23 50  1  0  0  0  0
 24 80  1  0  0  0  0
 25 81  1  0  0  0  0
 26 28  2  0  0  0  0
 26 80  1  0  0  0  0
 27 82  1  0  0  0  0
 28 83  1  0  0  0  0
 29 64  2  0  0  0  0
 30 58  1  0  0  0  0
 30 65  2  0  0  0  0
 31 51  1  0  0  0  0
 31 65  1  0  0  0  0
 32 66  1  0  0  0  0
 32 69  1  0  0  0  0
 33 70  1  0  0  0  0
 33 75  2  0  0  0  0
 34 48  1  0  0  0  0
 34 71  1  0  0  0  0
 34 76  2  0  0  0  0
 35 61  1  0  0  0  0
 35 67  1  0  0  0  0
 35 77  2  0  0  0  0
 36 62  1  0  0  0  0
 36 72  1  0  0  0  0
 36 78  2  0  0  0  0
 37 68  1  0  0  0  0
 37 73  1  0  0  0  0
 37 79  2  0  0  0  0
 38 41  1  0  0  0  0
 39 48  1  0  0  0  0
 40 67  1  0  0  0  0
 41 43  1  0  0  0  0
 42 44  1  0  0  0  0
 42 45  1  0  0  0  0
 43 47  1  0  0  0  0
 44 49  1  0  0  0  0
 45 68  1  0  0  0  0
 46 49  1  0  0  0  0
 46 68  1  0  0  0  0
 47 71  1  0  0  0  0
 48 67  1  0  0  0  0
 49 66  1  0  0  0  0
 52 62  1  0  0  0  0
 53 63  1  0  0  0  0
 54 63  1  0  0  0  0
 55 63  1  0  0  0  0
 56 74  1  0  0  0  0
 57 59  1  0  0  0  0
 58 81  1  0  0  0  0
 59 60  1  0  0  0  0
 60 73  1  0  0  0  0
 61 63  1  0  0  0  0
 61 72  1  0  0  0  0
 62 74  1  0  0  0  0
 64 66  1  0  0  0  0
M  CHG  1  74   1
M  ISO  4  37 100  58 101  73 100  81 101
M  END
> <Batch ID>
0038

> <Smiles>
CNC(C)C(=O)NC(C(=O)N1Cc2cc([101O:1][101CH2:1]c3cc(CCC[100NH:0][100C:0](=O)N4CCCC(n5nc(-c6ccc(Oc7ccc(F)cc7F)cc6)c(C(N)=O)c5N)C4)c(C)c(C)n3)ccc2CC1C(=O)NC1CCCc2ccccc21)C(C)(C)C

> <Shape>
0.202

> <Color>
0.057

> <Negative vol penalty>
0.000

$$$$

  -OEChem-04052317013D

 82 90  0     1  0  0  0  0  0999 V2000
  -18.1596  -25.2948   21.7883 C   0  0  0  0  0  0  0  0  0  0  0  0
  -19.4391  -25.3445   21.2444 C   0  0  0  0  0  0  0  0  0  0  0  0
  -23.6877  -14.9941   20.2527 C   0  0  0  0  0  0  0  0  0  0  0  0
  -25.5075  -16.5557   19.9590 C   0  0  0  0  0  0  0  0  0  0  0  0
  -17.5261  -26.4716   22.1857 C   0  0  0  0  0  0  0  0  0  0  0  0
  -20.0855  -26.5712   21.0966 C   0  0  0  0  0  0  0  0  0  0  0  0
  -24.9177  -26.4146   22.6033 C   0  0  0  0  0  0  0  0  0  0  0  0
  -24.4732  -13.9767   19.7109 C   0  0  0  0  0  0  0  0  0  0  0  0
  -26.2931  -15.5384   19.4172 C   0  0  0  0  0  0  0  0  0  0  0  0
  -25.8378  -25.8329   21.7321 C   0  0  0  0  0  0  0  0  0  0  0  0
  -28.9018  -13.2710   18.2895 C   0  0  0  0  0  0  0  0  0  0  0  0
  -30.2219  -13.1668   18.7277 C   0  0  0  0  0  0  0  0  0  0  0  0
  -26.5231  -28.0271   21.0006 C   0  0  0  0  0  0  0  0  0  0  0  0
  -29.4442  -12.8272   20.9898 C   0  0  0  0  0  0  0  0  0  0  0  0
  -26.0707  -25.0514   16.7016 C   0  0  0  0  0  0  0  0  0  0  0  0
  -24.2048  -16.2836   20.3767 C   0  0  0  0  0  0  0  0  0  0  0  0
  -23.2959  -17.7041   22.2907 C   0  0  0  0  0  0  0  0  0  0  0  0
  -18.1690  -27.7123   22.0517 C   0  0  0  0  0  0  0  0  0  0  0  0
  -24.7855  -27.8089   22.6719 C   0  0  0  0  0  0  0  0  0  0  0  0
  -19.4595  -27.7657   21.4914 C   0  0  0  0  0  0  0  0  0  0  0  0
  -25.6024  -28.6240   21.8753 C   0  0  0  0  0  0  0  0  0  0  0  0
  -25.3838  -23.8626   16.6649 C   0  0  0  0  0  0  0  0  0  0  0  0
  -25.7759  -14.2488   19.2932 C   0  0  0  0  0  0  0  0  0  0  0  0
  -26.6386  -26.6391   20.9285 C   0  0  0  0  0  0  0  0  0  0  0  0
  -27.8529  -13.1534   19.2015 C   0  0  0  0  0  0  0  0  0  0  0  0
  -30.4932  -12.9449   20.0778 C   0  0  0  0  0  0  0  0  0  0  0  0
  -28.1241  -12.9315   20.5516 C   0  0  0  0  0  0  0  0  0  0  0  0
  -23.3937  -17.3351   20.9357 C   0  0  0  0  0  0  0  0  0  0  0  0
  -26.1711  -22.9776   17.4256 C   0  0  0  0  0  0  0  0  0  0  0  0
  -22.4029  -18.7477   22.2988 C   0  0  0  0  0  0  0  0  0  0  0  0
  -23.9536  -17.1531   23.4394 C   0  0  0  0  0  0  0  0  0  0  0  0
  -22.4359  -29.8705   22.0948 C   0  0  0  0  0  0  0  0  0  0  0  0
  -24.5522  -32.0185   23.2906 C   0  0  0  0  0  0  0  0  0  0  0  0
  -27.8045  -32.8401   23.9181 C   0  0  0  0  0  0  0  0  0  0  0  0
  -20.7619  -22.7422   18.1512 C   0  0  0  0  0  0  0  0  0  0  0  0
  -17.4255  -28.9621   22.4517 C   0  0  0  0  0  0  0  0  0  0  0  0
  -23.8071  -28.4215   23.6362 C   0  0  0  0  0  0  0  0  0  0  0  0
  -25.5136  -30.1267   21.9260 C   0  0  0  0  0  0  0  0  0  0  0  0
  -18.3274  -30.1838   22.6077 C   0  0  0  0  0  0  0  0  0  0  0  0
  -18.6426  -20.4767   19.8984 C   0  0  0  0  0  0  0  0  0  0  0  0
  -19.2818  -30.2974   21.4232 C   0  0  0  0  0  0  0  0  0  0  0  0
  -19.6111  -19.4479   20.4847 C   0  0  0  0  0  0  0  0  0  0  0  0
  -19.0906  -20.9508   18.5177 C   0  0  0  0  0  0  0  0  0  0  0  0
  -21.4419  -20.4314   19.0425 C   0  0  0  0  0  0  0  0  0  0  0  0
  -20.2033  -29.0747   21.3379 C   0  0  1  0  0  0  0  0  0  0  0  0
  -23.3957  -29.8389   23.2504 C   0  0  1  0  0  0  0  0  0  0  0  0
  -21.0620  -19.9651   20.4584 C   0  0  2  0  0  0  0  0  0  0  0  0
  -25.9068  -21.5581   17.7190 C   0  0  0  0  0  0  0  0  0  0  0  0
  -29.2236  -34.6778   24.8701 C   0  0  0  0  0  0  0  0  0  0  0  0
  -24.1462  -33.6483   20.7433 C   0  0  0  0  0  0  0  0  0  0  0  0
  -26.2304  -34.9164   21.3056 C   0  0  0  0  0  0  0  0  0  0  0  0
  -24.2665  -35.0043   22.8412 C   0  0  0  0  0  0  0  0  0  0  0  0
  -28.8700  -31.0752   26.0414 C   0  0  0  0  0  0  0  0  0  0  0  0
  -24.1099  -23.5882   15.9791 C   0  0  0  0  0  0  0  0  0  0  0  0
  -22.9367  -24.5196   16.3751 C   0  0  0  0  0  0  0  0  0  0  0  0
  -28.2656  -25.8133   17.7892 C   0  0  0  0  0  0  0  0  0  0  0  0
  -22.5486  -24.4380   17.8499 C   0  0  0  0  0  0  0  0  0  0  0  0
  -27.8350  -26.7895   18.8786 C   0  0  0  0  0  0  0  0  0  1  0  0
  -25.6404  -32.8862   22.7061 C   0  0  1  0  0  0  0  0  0  0  0  0
  -28.4846  -33.3813   25.1627 C   0  0  2  0  0  0  0  0  0  0  0  0
  -25.0715  -34.0855   21.8964 C   0  0  0  0  0  0  0  0  0  0  0  0
  -22.6240  -18.0832   20.1407 N   0  0  0  0  0  0  0  0  0  0  0  0
  -27.2738  -23.5549   17.9101 N   0  0  0  0  0  0  0  0  0  0  0  0
  -27.1844  -24.8154   17.4526 N   0  0  0  0  0  0  0  0  0  0  0  0
  -22.0341  -18.9327   20.9988 N   0  0  0  0  0  0  0  0  0  0  0  0
  -24.5374  -30.6779   22.8803 N   0  0  0  0  0  0  0  0  0  0  0  0
  -20.4742  -21.4300   18.5618 N   0  0  0  0  0  0  0  0  0  0  0  0
  -21.9049  -19.5157   23.2910 N   0  0  0  0  0  0  0  0  0  0  0  0
  -24.8401  -16.0837   23.2527 N   0  0  0  0  0  0  0  0  0  0  0  0
  -21.2644  -29.1723   22.3172 N   0  0  0  0  0  0  0  0  0  0  0  0
  -26.4985  -33.2715   23.8213 N   0  0  0  0  0  0  0  0  0  0  0  0
  -22.0972  -23.1182   18.2307 N   0  0  0  0  0  0  0  0  0  0  0  0
  -29.4650  -32.3902   25.6897 N   0  3  0  0  0  0  0  0  0  0  0  0
  -23.7483  -17.5851   24.5990 O   0  0  0  0  0  0  0  0  0  0  0  0
  -22.7354  -30.4842   21.0772 O   0  0  0  0  0  0  0  0  0  0  0  0
  -23.7492  -32.5103   24.0875 O   0  0  0  0  0  0  0  0  0  0  0  0
  -28.3759  -32.1109   23.1104 O   0  0  0  0  0  0  0  0  0  0  0  0
  -19.8924  -23.5226   17.7490 O   0  0  0  0  0  0  0  0  0  0  0  0
  -26.5428  -13.2563   18.7647 O   0  0  0  0  0  0  0  0  0  0  0  0
  -27.5370  -26.0740   20.0768 O   0  0  0  0  0  0  0  0  0  1  0  0
  -31.7609  -12.8433   20.4982 F   0  0  0  0  0  0  0  0  0  0  0  0
  -27.1206  -12.8165   21.4322 F   0  0  0  0  0  0  0  0  0  0  0  0
  1  2  1  0  0  0  0
  1  5  2  0  0  0  0
  2  6  2  0  0  0  0
  3  8  2  0  0  0  0
  3 16  1  0  0  0  0
  4  9  1  0  0  0  0
  4 16  2  0  0  0  0
  5 18  1  0  0  0  0
  6 20  1  0  0  0  0
  7 10  2  0  0  0  0
  7 19  1  0  0  0  0
  8 23  1  0  0  0  0
  9 23  2  0  0  0  0
 10 24  1  0  0  0  0
 11 12  2  0  0  0  0
 11 25  1  0  0  0  0
 12 26  1  0  0  0  0
 13 21  1  0  0  0  0
 13 24  2  0  0  0  0
 14 26  2  0  0  0  0
 14 27  1  0  0  0  0
 15 22  2  0  0  0  0
 15 64  1  0  0  0  0
 16 28  1  0  0  0  0
 17 28  1  0  0  0  0
 17 30  2  0  0  0  0
 17 31  1  0  0  0  0
 18 20  2  0  0  0  0
 18 36  1  0  0  0  0
 19 21  2  0  0  0  0
 19 37  1  0  0  0  0
 20 45  1  0  0  0  0
 21 38  1  0  0  0  0
 22 29  1  0  0  0  0
 22 54  1  0  0  0  0
 23 79  1  0  0  0  0
 24 80  1  0  0  0  0
 25 27  2  0  0  0  0
 25 79  1  0  0  0  0
 26 81  1  0  0  0  0
 27 82  1  0  0  0  0
 28 62  2  0  0  0  0
 29 48  1  0  0  0  0
 29 63  2  0  0  0  0
 30 65  1  0  0  0  0
 30 68  1  0  0  0  0
 31 69  1  0  0  0  0
 31 74  2  0  0  0  0
 32 46  1  0  0  0  0
 32 70  1  0  0  0  0
 32 75  2  0  0  0  0
 33 59  1  0  0  0  0
 33 66  1  0  0  0  0
 33 76  2  0  0  0  0
 34 60  1  0  0  0  0
 34 71  1  0  0  0  0
 34 77  2  0  0  0  0
 35 67  1  0  0  0  0
 35 72  1  0  0  0  0
 35 78  2  0  0  0  0
 36 39  1  0  0  0  0
 37 46  1  0  0  0  0
 38 66  1  0  0  0  0
 39 41  1  0  0  0  0
 40 42  1  0  0  0  0
 40 43  1  0  0  0  0
 41 45  1  0  0  0  0
 42 47  1  0  0  0  0
 43 67  1  0  0  0  0
 44 47  1  0  0  0  0
 44 67  1  0  0  0  0
 45 70  1  0  0  0  0
 46 66  1  0  0  0  0
 47 65  1  0  0  0  0
 49 60  1  0  0  0  0
 50 61  1  0  0  0  0
 51 61  1  0  0  0  0
 52 61  1  0  0  0  0
 53 73  1  0  0  0  0
 54 55  1  0  0  0  0
 55 57  1  0  0  0  0
 56 58  1  0  0  0  0
 56 64  1  0  0  0  0
 57 72  1  0  0  0  0
 58 80  1  0  0  0  0
 59 61  1  0  0  0  0
 59 71  1  0  0  0  0
 60 73  1  0  0  0  0
 62 65  1  0  0  0  0
 63 64  1  0  0  0  0
M  CHG  1  73   1
M  ISO  4  35 100  58 101  72 100  80 101
M  END
> <Batch ID>
0038

> <Smiles>
CNC(C)C(=O)NC(C(=O)N1Cc2cc([101O:1][101CH2:1]Cn3cc(CCC[100NH:0][100C:0](=O)N4CCCC(n5nc(-c6ccc(Oc7ccc(F)cc7F)cc6)c(C(N)=O)c5N)C4)c(C)n3)ccc2CC1C(=O)NC1CCCc2ccccc21)C(C)(C)C

> <Shape>
0.216

> <Color>
0.066

> <Negative vol penalty>
0.000

$$$$

  -OEChem-04052317013D

 87 95  0     1  0  0  0  0  0999 V2000
  -24.3612  -33.9355   24.4779 C   0  0  0  0  0  0  0  0  0  0  0  0
  -23.8498  -32.6518   24.6390 C   0  0  0  0  0  0  0  0  0  0  0  0
  -25.5607  -13.5820   22.2635 C   0  0  0  0  0  0  0  0  0  0  0  0
  -25.9907  -14.2106   19.9707 C   0  0  0  0  0  0  0  0  0  0  0  0
  -25.0652  -34.2640   23.3201 C   0  0  0  0  0  0  0  0  0  0  0  0
  -24.0412  -31.6960   23.6418 C   0  0  0  0  0  0  0  0  0  0  0  0
  -25.4419  -27.1997   25.5036 C   0  0  0  0  0  0  0  0  0  0  0  0
  -25.3199  -12.2692   21.8585 C   0  0  0  0  0  0  0  0  0  0  0  0
  -25.7499  -12.8977   19.5656 C   0  0  0  0  0  0  0  0  0  0  0  0
  -24.4440  -26.4040   26.0646 C   0  0  0  0  0  0  0  0  0  0  0  0
  -22.7982  -10.5244   20.4367 C   0  0  0  0  0  0  0  0  0  0  0  0
  -21.6841   -9.8765   20.9700 C   0  0  0  0  0  0  0  0  0  0  0  0
  -24.3374  -25.1132   24.0295 C   0  0  0  0  0  0  0  0  0  0  0  0
  -23.1226   -8.1820   21.9168 C   0  0  0  0  0  0  0  0  0  0  0  0
  -25.8960  -14.5528   21.3196 C   0  0  0  0  0  0  0  0  0  0  0  0
  -27.3779  -16.4680   22.1217 C   0  0  0  0  0  0  0  0  0  0  0  0
  -25.2736  -33.3090   22.3125 C   0  0  0  0  0  0  0  0  0  0  0  0
  -25.8881  -26.9646   24.1951 C   0  0  0  0  0  0  0  0  0  0  0  0
  -24.7475  -32.0124   22.4689 C   0  0  0  0  0  0  0  0  0  0  0  0
  -25.3429  -25.9057   23.4551 C   0  0  0  0  0  0  0  0  0  0  0  0
  -19.7969  -27.9361   23.5686 C   0  0  0  0  0  0  0  0  0  0  0  0
  -25.4145  -11.9270   20.5096 C   0  0  0  0  0  0  0  0  0  0  0  0
  -23.8895  -25.3624   25.3266 C   0  0  0  0  0  0  0  0  0  0  0  0
  -24.0746  -10.0011   20.6434 C   0  0  0  0  0  0  0  0  0  0  0  0
  -21.8462   -8.7053   21.7100 C   0  0  0  0  0  0  0  0  0  0  0  0
  -24.2368   -8.8300   21.3835 C   0  0  0  0  0  0  0  0  0  0  0  0
  -26.1443  -15.9092   21.7373 C   0  0  0  0  0  0  0  0  0  0  0  0
  -19.5370  -28.3617   22.2819 C   0  0  0  0  0  0  0  0  0  0  0  0
  -19.5721  -26.5964   23.8112 C   0  0  0  0  0  0  0  0  0  0  0  0
  -27.0835  -17.7751   22.4239 C   0  0  0  0  0  0  0  0  0  0  0  0
  -18.9118  -26.2662   21.6613 C   0  0  0  0  0  0  0  0  0  0  0  0
  -28.6741  -15.8600   22.1986 C   0  0  0  0  0  0  0  0  0  0  0  0
  -25.8979  -28.6393   21.4935 C   0  0  0  0  0  0  0  0  0  0  0  0
  -22.6995  -21.3132   20.5429 C   0  0  0  0  0  0  0  0  0  0  0  0
  -27.6312  -26.1256   20.3983 C   0  0  0  0  0  0  0  0  0  0  0  0
  -28.4547  -22.8268   20.6920 C   0  0  0  0  0  0  0  0  0  0  0  0
  -26.0001  -33.7243   21.0578 C   0  0  0  0  0  0  0  0  0  0  0  0
  -26.9842  -27.8151   23.6140 C   0  0  0  0  0  0  0  0  0  0  0  0
  -25.8014  -25.5990   22.0536 C   0  0  0  0  0  0  0  0  0  0  0  0
  -26.4821  -32.5464   20.2148 C   0  0  0  0  0  0  0  0  0  0  0  0
  -23.5312  -20.5533   24.0009 C   0  0  0  0  0  0  0  0  0  0  0  0
  -25.3722  -31.5115   20.0596 C   0  0  0  0  0  0  0  0  0  0  0  0
  -24.3913  -19.3005   23.8402 C   0  0  0  0  0  0  0  0  0  0  0  0
  -22.4103  -20.6011   22.9660 C   0  0  0  0  0  0  0  0  0  0  0  0
  -23.7486  -19.2394   21.3915 C   0  0  0  0  0  0  0  0  0  0  0  0
  -24.9557  -30.9410   21.4207 C   0  0  1  0  0  0  0  0  0  0  0  0
  -26.9999  -27.8092   22.0885 C   0  0  1  0  0  0  0  0  0  0  0  0
  -24.9096  -19.1683   22.3975 C   0  0  2  0  0  0  0  0  0  0  0  0
  -20.2876  -28.8696   24.6195 C   0  0  0  0  0  0  0  0  0  0  0  0
  -19.7432  -29.7909   21.9008 C   0  0  0  0  0  0  0  0  0  0  0  0
  -29.8698  -21.0475   19.6294 C   0  0  0  0  0  0  0  0  0  0  0  0
  -25.6251  -25.8999   18.1104 C   0  0  0  0  0  0  0  0  0  0  0  0
  -26.5091  -23.6024   17.6544 C   0  0  0  0  0  0  0  0  0  0  0  0
  -28.0130  -25.5809   17.4393 C   0  0  0  0  0  0  0  0  0  0  0  0
  -30.0152  -22.4225   23.1740 C   0  0  0  0  0  0  0  0  0  0  0  0
  -18.4204  -25.3389   20.6021 C   0  0  0  0  0  0  0  0  0  0  0  0
  -21.8215  -22.5051   20.8300 C   0  0  0  0  0  0  0  0  0  0  0  0
  -19.3521  -24.1466   20.3175 C   0  0  0  0  0  0  0  0  0  0  0  0
  -21.6417  -23.3654   19.5831 C   0  0  0  0  0  0  0  0  0  0  0  0
  -20.7399  -24.5790   19.8322 C   0  0  0  0  0  0  0  0  0  0  0  0
  -20.6819  -24.5468   26.7499 C   0  0  0  0  0  0  0  0  0  0  0  0
  -20.0282  -24.7134   25.3835 C   0  0  0  0  0  0  0  0  0  0  0  0
  -22.0579  -25.1969   26.8344 C   0  0  0  0  0  0  0  0  0  1  0  0
  -27.3039  -24.8074   19.7395 C   0  0  1  0  0  0  0  0  0  0  0  0
  -29.7988  -22.1213   20.7040 C   0  0  2  0  0  0  0  0  0  0  0  0
  -26.8526  -24.9794   18.2616 C   0  0  0  0  0  0  0  0  0  0  0  0
  -25.1409  -16.7892   21.7899 N   0  0  0  0  0  0  0  0  0  0  0  0
  -19.0919  -27.5509   21.2997 N   0  0  0  0  0  0  0  0  0  0  0  0
  -19.1280  -25.7297   22.8774 N   0  0  0  0  0  0  0  0  0  0  0  0
  -25.7436  -17.9142   22.2109 N   0  0  0  0  0  0  0  0  0  0  0  0
  -26.8710  -26.4629   21.5271 N   0  0  0  0  0  0  0  0  0  0  0  0
  -22.9422  -20.4442   21.6070 N   0  0  0  0  0  0  0  0  0  0  0  0
  -27.8426  -18.8075   22.8485 N   0  0  0  0  0  0  0  0  0  0  0  0
  -28.7994  -14.5078   21.8521 N   0  0  0  0  0  0  0  0  0  0  0  0
  -19.8153  -26.1093   25.0859 N   0  0  0  0  0  0  0  0  0  0  0  0
  -25.9231  -29.9664   21.8776 N   0  0  0  0  0  0  0  0  0  0  0  0
  -28.4808  -23.9623   19.9103 N   0  0  0  0  0  0  0  0  0  0  0  0
  -30.0344  -21.4780   22.0275 N   0  3  0  0  0  0  0  0  0  0  0  0
  -29.6881  -16.4927   22.5794 O   0  0  0  0  0  0  0  0  0  0  0  0
  -25.0857  -28.1149   20.7403 O   0  0  0  0  0  0  0  0  0  0  0  0
  -23.1573  -21.1623   19.4072 O   0  0  0  0  0  0  0  0  0  0  0  0
  -28.5330  -26.8268   19.9329 O   0  0  0  0  0  0  0  0  0  0  0  0
  -27.4781  -22.4100   21.3110 O   0  0  0  0  0  0  0  0  0  0  0  0
  -25.1799  -10.6460   20.1140 O   0  0  0  0  0  0  0  0  0  0  0  0
  -22.9149  -24.5847   25.8716 O   0  0  0  0  0  0  0  0  0  1  0  0
  -20.7763   -8.0841   22.2233 F   0  0  0  0  0  0  0  0  0  0  0  0
  -25.4606   -8.3231   21.5864 F   0  0  0  0  0  0  0  0  0  0  0  0
  1  2  1  0  0  0  0
  1  5  2  0  0  0  0
  2  6  2  0  0  0  0
  3  8  2  0  0  0  0
  3 15  1  0  0  0  0
  4  9  1  0  0  0  0
  4 15  2  0  0  0  0
  5 17  1  0  0  0  0
  6 19  1  0  0  0  0
  7 10  2  0  0  0  0
  7 18  1  0  0  0  0
  8 22  1  0  0  0  0
  9 22  2  0  0  0  0
 10 23  1  0  0  0  0
 11 12  2  0  0  0  0
 11 24  1  0  0  0  0
 12 25  1  0  0  0  0
 13 20  1  0  0  0  0
 13 23  2  0  0  0  0
 14 25  2  0  0  0  0
 14 26  1  0  0  0  0
 15 27  1  0  0  0  0
 16 27  1  0  0  0  0
 16 30  2  0  0  0  0
 16 32  1  0  0  0  0
 17 19  2  0  0  0  0
 17 37  1  0  0  0  0
 18 20  2  0  0  0  0
 18 38  1  0  0  0  0
 19 46  1  0  0  0  0
 20 39  1  0  0  0  0
 21 28  1  0  0  0  0
 21 29  2  0  0  0  0
 21 49  1  0  0  0  0
 22 84  1  0  0  0  0
 23 85  1  0  0  0  0
 24 26  2  0  0  0  0
 24 84  1  0  0  0  0
 25 86  1  0  0  0  0
 26 87  1  0  0  0  0
 27 67  2  0  0  0  0
 28 50  1  0  0  0  0
 28 68  2  0  0  0  0
 29 69  1  0  0  0  0
 29 75  1  0  0  0  0
 30 70  1  0  0  0  0
 30 73  1  0  0  0  0
 31 56  1  0  0  0  0
 31 68  1  0  0  0  0
 31 69  2  0  0  0  0
 32 74  1  0  0  0  0
 32 79  2  0  0  0  0
 33 47  1  0  0  0  0
 33 76  1  0  0  0  0
 33 80  2  0  0  0  0
 34 57  1  0  0  0  0
 34 72  1  0  0  0  0
 34 81  2  0  0  0  0
 35 64  1  0  0  0  0
 35 71  1  0  0  0  0
 35 82  2  0  0  0  0
 36 65  1  0  0  0  0
 36 77  1  0  0  0  0
 36 83  2  0  0  0  0
 37 40  1  0  0  0  0
 38 47  1  0  0  0  0
 39 71  1  0  0  0  0
 40 42  1  0  0  0  0
 41 43  1  0  0  0  0
 41 44  1  0  0  0  0
 42 46  1  0  0  0  0
 43 48  1  0  0  0  0
 44 72  1  0  0  0  0
 45 48  1  0  0  0  0
 45 72  1  0  0  0  0
 46 76  1  0  0  0  0
 47 71  1  0  0  0  0
 48 70  1  0  0  0  0
 51 65  1  0  0  0  0
 52 66  1  0  0  0  0
 53 66  1  0  0  0  0
 54 66  1  0  0  0  0
 55 78  1  0  0  0  0
 56 58  1  0  0  0  0
 57 59  1  0  0  0  0
 58 60  1  0  0  0  0
 59 60  1  0  0  0  0
 61 62  1  0  0  0  0
 61 63  1  0  0  0  0
 62 75  1  0  0  0  0
 63 85  1  0  0  0  0
 64 66  1  0  0  0  0
 64 77  1  0  0  0  0
 65 78  1  0  0  0  0
 67 70  1  0  0  0  0
M  CHG  1  78   1
M  ISO  4  34 100  57 100  63 101  85 101
M  END
> <Batch ID>
0038

> <Smiles>
CNC(C)C(=O)NC(C(=O)N1Cc2cc([101O:1][101CH2:1]CCNc3nc(CCCC[100CH2:0][100C:0](=O)N4CCCC(n5nc(-c6ccc(Oc7ccc(F)cc7F)cc6)c(C(N)=O)c5N)C4)nc(C)c3C)ccc2CC1C(=O)NC1CCCc2ccccc21)C(C)(C)C

> <Shape>
0.218

> <Color>
0.063

> <Negative vol penalty>
0.000

$$$$

  -OEChem-04052317013D

 88 96  0     1  0  0  0  0  0999 V2000
  -20.6914  -21.8674   14.6491 C   0  0  0  0  0  0  0  0  0  0  0  0
  -21.7363  -20.9520   14.7256 C   0  0  0  0  0  0  0  0  0  0  0  0
  -23.0743   -9.8696   19.9408 C   0  0  0  0  0  0  0  0  0  0  0  0
  -23.8387   -9.8736   22.2327 C   0  0  0  0  0  0  0  0  0  0  0  0
  -19.4004  -21.4813   15.0070 C   0  0  0  0  0  0  0  0  0  0  0  0
  -21.4908  -19.6503   15.1611 C   0  0  0  0  0  0  0  0  0  0  0  0
  -23.7812  -16.1730   12.2790 C   0  0  0  0  0  0  0  0  0  0  0  0
  -22.3316   -8.7157   20.1905 C   0  0  0  0  0  0  0  0  0  0  0  0
  -23.0959   -8.7196   22.4824 C   0  0  0  0  0  0  0  0  0  0  0  0
  -25.1463  -15.9760   12.4827 C   0  0  0  0  0  0  0  0  0  0  0  0
  -21.1152   -5.9794   23.8187 C   0  0  0  0  0  0  0  0  0  0  0  0
  -20.3613   -5.9336   24.9914 C   0  0  0  0  0  0  0  0  0  0  0  0
  -24.6602  -14.0203   13.8086 C   0  0  0  0  0  0  0  0  0  0  0  0
  -19.1141   -7.8712   24.2652 C   0  0  0  0  0  0  0  0  0  0  0  0
  -25.9227  -17.3060   17.3072 C   0  0  0  0  0  0  0  0  0  0  0  0
  -23.8279  -10.4486   20.9619 C   0  0  0  0  0  0  0  0  0  0  0  0
  -24.1681  -12.9741   20.8450 C   0  0  0  0  0  0  0  0  0  0  0  0
  -19.1372  -20.1715   15.4379 C   0  0  0  0  0  0  0  0  0  0  0  0
  -22.8433  -15.2998   12.8485 C   0  0  0  0  0  0  0  0  0  0  0  0
  -20.1952  -19.2468   15.5264 C   0  0  0  0  0  0  0  0  0  0  0  0
  -23.2838  -14.2069   13.6084 C   0  0  0  0  0  0  0  0  0  0  0  0
  -26.6014  -18.4061   17.7906 C   0  0  0  0  0  0  0  0  0  0  0  0
  -22.3424   -8.1407   21.4613 C   0  0  0  0  0  0  0  0  0  0  0  0
  -25.5859  -14.9012   13.2500 C   0  0  0  0  0  0  0  0  0  0  0  0
  -20.8687   -6.9712   22.8693 C   0  0  0  0  0  0  0  0  0  0  0  0
  -19.3607   -6.8795   25.2146 C   0  0  0  0  0  0  0  0  0  0  0  0
  -19.8682   -7.9170   23.0925 C   0  0  0  0  0  0  0  0  0  0  0  0
  -24.5958  -11.6403   20.7045 C   0  0  0  0  0  0  0  0  0  0  0  0
  -27.9651  -18.4065   17.5793 C   0  0  0  0  0  0  0  0  0  0  0  0
  -25.2591  -13.7248   20.4808 C   0  0  0  0  0  0  0  0  0  0  0  0
  -27.8526  -16.3977   16.5215 C   0  0  0  0  0  0  0  0  0  0  0  0
  -22.8981  -13.4885   21.2672 C   0  0  0  0  0  0  0  0  0  0  0  0
  -20.4802  -15.6078   14.9520 C   0  0  0  0  0  0  0  0  0  0  0  0
  -19.8993  -12.5149   14.1655 C   0  0  0  0  0  0  0  0  0  0  0  0
  -21.0971   -9.5621   12.9437 C   0  0  0  0  0  0  0  0  0  0  0  0
  -30.7426  -14.7467   20.6599 C   0  0  0  0  0  0  0  0  0  0  0  0
  -17.7339  -19.8140   15.8593 C   0  0  0  0  0  0  0  0  0  0  0  0
  -21.3754  -15.5107   12.5972 C   0  0  0  0  0  0  0  0  0  0  0  0
  -22.3184  -13.2290   14.2249 C   0  0  0  0  0  0  0  0  0  0  0  0
  -17.4906  -18.3100   15.9533 C   0  0  0  0  0  0  0  0  0  0  0  0
  -29.6017  -12.3651   18.2718 C   0  0  0  0  0  0  0  0  0  0  0  0
  -18.6313  -17.6307   16.7046 C   0  0  0  0  0  0  0  0  0  0  0  0
  -28.1653  -12.0699   18.7071 C   0  0  0  0  0  0  0  0  0  0  0  0
  -30.5211  -12.5847   19.4712 C   0  0  0  0  0  0  0  0  0  0  0  0
  -28.6216  -13.3126   20.8626 C   0  0  0  0  0  0  0  0  0  0  0  0
  -19.9644  -17.8186   15.9705 C   0  0  1  0  0  0  0  0  0  0  0  0
  -20.4885  -14.8554   13.6514 C   0  0  1  0  0  0  0  0  0  0  0  0
  -27.6452  -13.1392   19.6866 C   0  0  2  0  0  0  0  0  0  0  0  0
  -24.3777  -21.5308   18.2336 C   0  0  0  0  0  0  0  0  0  0  0  0
  -20.3954   -7.2027   12.4557 C   0  0  0  0  0  0  0  0  0  0  0  0
  -20.0188  -11.8657   17.1445 C   0  0  0  0  0  0  0  0  0  0  0  0
  -20.2664   -9.4495   16.5369 C   0  0  0  0  0  0  0  0  0  0  0  0
  -18.2004  -10.6904   15.8928 C   0  0  0  0  0  0  0  0  0  0  0  0
  -21.6858   -9.8608   10.0587 C   0  0  0  0  0  0  0  0  0  0  0  0
  -25.8868  -19.5043   18.4897 C   0  0  0  0  0  0  0  0  0  0  0  0
  -28.8025  -19.5459   18.0588 C   0  0  0  0  0  0  0  0  0  0  0  0
  -28.5553  -15.2703   15.8082 C   0  0  0  0  0  0  0  0  0  0  0  0
  -25.1379  -20.4283   17.5136 C   0  0  0  0  0  0  0  0  0  0  0  0
  -29.0587  -19.4809   19.5714 C   0  0  0  0  0  0  0  0  0  0  0  0
  -28.9465  -15.6025   14.3666 C   0  0  0  0  0  0  0  0  0  0  0  0
  -29.8230  -18.2144   19.9627 C   0  0  0  0  0  0  0  0  0  0  0  0
  -30.0381  -18.1412   21.4772 C   0  0  0  0  0  0  0  0  0  0  0  0
  -30.8096  -16.8954   21.9000 C   0  0  0  0  0  0  0  0  0  0  0  0
  -27.7488  -15.8670   13.4616 C   0  0  0  0  0  0  0  0  0  1  0  0
  -20.3658  -11.1749   14.6811 C   0  0  1  0  0  0  0  0  0  0  0  0
  -20.5493   -8.6087   11.8971 C   0  0  2  0  0  0  0  0  0  0  0  0
  -19.7312  -10.8145   16.0539 C   0  0  0  0  0  0  0  0  0  0  0  0
  -26.5189  -16.2799   16.6655 N   0  0  0  0  0  0  0  0  0  0  0  0
  -25.8599  -11.5458   20.2836 N   0  0  0  0  0  0  0  0  0  0  0  0
  -28.6259  -17.4151   16.9464 N   0  0  0  0  0  0  0  0  0  0  0  0
  -26.2358  -12.8298   20.1564 N   0  0  0  0  0  0  0  0  0  0  0  0
  -20.8931  -13.4814   13.9557 N   0  0  0  0  0  0  0  0  0  0  0  0
  -29.9716  -13.6115   20.3598 N   0  0  0  0  0  0  0  0  0  0  0  0
  -25.4686  -15.0565   20.4093 N   0  0  0  0  0  0  0  0  0  0  0  0
  -21.8874  -12.5783   21.6051 N   0  0  0  0  0  0  0  0  0  0  0  0
  -20.0514  -16.9168   14.8419 N   0  0  0  0  0  0  0  0  0  0  0  0
  -20.0871  -10.2106   13.6223 N   0  0  0  0  0  0  0  0  0  0  0  0
  -30.1446  -15.6739   21.5046 N   0  0  0  0  0  0  0  0  0  0  0  0
  -21.4630   -8.5499   10.7212 N   0  3  0  0  0  0  0  0  0  0  0  0
  -22.6613  -14.7189   21.3269 O   0  0  0  0  0  0  0  0  0  0  0  0
  -20.8350  -15.0422   15.9795 O   0  0  0  0  0  0  0  0  0  0  0  0
  -18.6981  -12.6950   13.9499 O   0  0  0  0  0  0  0  0  0  0  0  0
  -22.3006   -9.7133   13.1422 O   0  0  0  0  0  0  0  0  0  0  0  0
  -31.8776  -14.9235   20.2044 O   0  0  0  0  0  0  0  0  0  0  0  0
  -21.6176   -7.0148   21.7053 O   0  0  0  0  0  0  0  0  0  0  0  0
  -26.9177  -14.7070   13.4509 O   0  0  0  0  0  0  0  0  0  1  0  0
  -18.6357   -6.8345   26.3400 F   0  0  0  0  0  0  0  0  0  0  0  0
  -19.6259   -8.8715   22.1836 F   0  0  0  0  0  0  0  0  0  0  0  0
  1  2  1  0  0  0  0
  1  5  2  0  0  0  0
  2  6  2  0  0  0  0
  3  8  2  0  0  0  0
  3 16  1  0  0  0  0
  4  9  1  0  0  0  0
  4 16  2  0  0  0  0
  5 18  1  0  0  0  0
  6 20  1  0  0  0  0
  7 10  2  0  0  0  0
  7 19  1  0  0  0  0
  8 23  1  0  0  0  0
  9 23  2  0  0  0  0
 10 24  1  0  0  0  0
 11 12  2  0  0  0  0
 11 25  1  0  0  0  0
 12 26  1  0  0  0  0
 13 21  1  0  0  0  0
 13 24  2  0  0  0  0
 14 26  2  0  0  0  0
 14 27  1  0  0  0  0
 15 22  1  0  0  0  0
 15 68  2  0  0  0  0
 16 28  1  0  0  0  0
 17 28  1  0  0  0  0
 17 30  2  0  0  0  0
 17 32  1  0  0  0  0
 18 20  2  0  0  0  0
 18 37  1  0  0  0  0
 19 21  2  0  0  0  0
 19 38  1  0  0  0  0
 20 46  1  0  0  0  0
 21 39  1  0  0  0  0
 22 29  2  0  0  0  0
 22 55  1  0  0  0  0
 23 85  1  0  0  0  0
 24 86  1  0  0  0  0
 25 27  2  0  0  0  0
 25 85  1  0  0  0  0
 26 87  1  0  0  0  0
 27 88  1  0  0  0  0
 28 69  2  0  0  0  0
 29 56  1  0  0  0  0
 29 70  1  0  0  0  0
 30 71  1  0  0  0  0
 30 74  1  0  0  0  0
 31 57  1  0  0  0  0
 31 68  1  0  0  0  0
 31 70  2  0  0  0  0
 32 75  1  0  0  0  0
 32 80  2  0  0  0  0
 33 47  1  0  0  0  0
 33 76  1  0  0  0  0
 33 81  2  0  0  0  0
 34 65  1  0  0  0  0
 34 72  1  0  0  0  0
 34 82  2  0  0  0  0
 35 66  1  0  0  0  0
 35 77  1  0  0  0  0
 35 83  2  0  0  0  0
 36 73  1  0  0  0  0
 36 78  1  0  0  0  0
 36 84  2  0  0  0  0
 37 40  1  0  0  0  0
 38 47  1  0  0  0  0
 39 72  1  0  0  0  0
 40 42  1  0  0  0  0
 41 43  1  0  0  0  0
 41 44  1  0  0  0  0
 42 46  1  0  0  0  0
 43 48  1  0  0  0  0
 44 73  1  0  0  0  0
 45 48  1  0  0  0  0
 45 73  1  0  0  0  0
 46 76  1  0  0  0  0
 47 72  1  0  0  0  0
 48 71  1  0  0  0  0
 49 58  1  0  0  0  0
 50 66  1  0  0  0  0
 51 67  1  0  0  0  0
 52 67  1  0  0  0  0
 53 67  1  0  0  0  0
 54 79  1  0  0  0  0
 55 58  1  0  0  0  0
 56 59  1  0  0  0  0
 57 60  1  0  0  0  0
 59 61  1  0  0  0  0
 60 64  1  0  0  0  0
 61 62  1  0  0  0  0
 62 63  1  0  0  0  0
 63 78  1  0  0  0  0
 64 86  1  0  0  0  0
 65 67  1  0  0  0  0
 65 77  1  0  0  0  0
 66 79  1  0  0  0  0
 69 71  1  0  0  0  0
M  CHG  1  79   1
M  ISO  4  36 100  64 101  78 100  86 101
M  END
> <Batch ID>
0038

> <Smiles>
CCCc1cnc(CC[101CH2:1][101O:1]c2ccc3c(c2)CN(C(=O)C(NC(=O)C(C)NC)C(C)(C)C)C(C(=O)NC2CCCc4ccccc42)C3)nc1CCCCC[100NH:0][100C:0](=O)N1CCCC(n2nc(-c3ccc(Oc4ccc(F)cc4F)cc3)c(C(N)=O)c2N)C1

> <Shape>
0.180

> <Color>
0.184

> <Negative vol penalty>
0.000

$$$$

  -OEChem-04052317013D

 88 96  0     1  0  0  0  0  0999 V2000
  -20.2364  -17.0824   20.2248 C   0  0  0  0  0  0  0  0  0  0  0  0
  -21.4353  -17.7484   20.4585 C   0  0  0  0  0  0  0  0  0  0  0  0
  -23.4752  -26.8982   22.8095 C   0  0  0  0  0  0  0  0  0  0  0  0
  -22.6336  -28.2388   20.9843 C   0  0  0  0  0  0  0  0  0  0  0  0
  -20.1338  -15.7184   20.4951 C   0  0  0  0  0  0  0  0  0  0  0  0
  -22.5320  -17.0510   20.9637 C   0  0  0  0  0  0  0  0  0  0  0  0
  -26.8369  -18.1894   18.5518 C   0  0  0  0  0  0  0  0  0  0  0  0
  -22.1721  -26.7028   23.2669 C   0  0  0  0  0  0  0  0  0  0  0  0
  -21.3304  -28.0434   21.4417 C   0  0  0  0  0  0  0  0  0  0  0  0
  -27.4561  -19.3924   18.8880 C   0  0  0  0  0  0  0  0  0  0  0  0
  -19.3293  -29.2843   23.8679 C   0  0  0  0  0  0  0  0  0  0  0  0
  -18.4865  -30.3947   23.9176 C   0  0  0  0  0  0  0  0  0  0  0  0
  -28.9993  -18.1953   20.3039 C   0  0  0  0  0  0  0  0  0  0  0  0
  -29.2732  -23.4252   21.2625 C   0  0  0  0  0  0  0  0  0  0  0  0
  -30.3487  -23.5289   19.1017 C   0  0  0  0  0  0  0  0  0  0  0  0
  -16.9664  -29.3096   22.3850 C   0  0  0  0  0  0  0  0  0  0  0  0
  -23.7060  -27.6663   21.6682 C   0  0  0  0  0  0  0  0  0  0  0  0
  -25.7611  -27.0683   20.2802 C   0  0  0  0  0  0  0  0  0  0  0  0
  -21.2327  -15.0019   20.9948 C   0  0  0  0  0  0  0  0  0  0  0  0
  -27.2881  -16.9794   19.0985 C   0  0  0  0  0  0  0  0  0  0  0  0
  -22.4436  -15.6764   21.2422 C   0  0  0  0  0  0  0  0  0  0  0  0
  -28.3857  -16.9780   19.9710 C   0  0  0  0  0  0  0  0  0  0  0  0
  -29.4330  -22.9315   19.9678 C   0  0  0  0  0  0  0  0  0  0  0  0
  -30.0291  -24.5163   21.6912 C   0  0  0  0  0  0  0  0  0  0  0  0
  -31.1047  -24.6200   19.5303 C   0  0  0  0  0  0  0  0  0  0  0  0
  -30.9449  -25.1137   20.8251 C   0  0  0  0  0  0  0  0  0  0  0  0
  -21.0997  -27.2753   22.5830 C   0  0  0  0  0  0  0  0  0  0  0  0
  -28.5357  -19.3958   19.7664 C   0  0  0  0  0  0  0  0  0  0  0  0
  -18.9906  -28.1866   23.0767 C   0  0  0  0  0  0  0  0  0  0  0  0
  -17.3051  -30.4073   23.1762 C   0  0  0  0  0  0  0  0  0  0  0  0
  -17.8092  -28.1992   22.3353 C   0  0  0  0  0  0  0  0  0  0  0  0
  -25.0519  -27.8690   21.1955 C   0  0  0  0  0  0  0  0  0  0  0  0
  -26.9850  -27.6808   20.1646 C   0  0  0  0  0  0  0  0  0  0  0  0
  -25.3502  -25.8774   19.5956 C   0  0  0  0  0  0  0  0  0  0  0  0
  -26.0075  -14.7429   20.9591 C   0  0  0  0  0  0  0  0  0  0  0  0
  -28.7917  -13.1939   20.3500 C   0  0  0  0  0  0  0  0  0  0  0  0
  -32.0791  -13.3878   19.4543 C   0  0  0  0  0  0  0  0  0  0  0  0
  -30.0890  -32.2830   19.5898 C   0  0  0  0  0  0  0  0  0  0  0  0
  -21.0598  -13.5386   21.3163 C   0  0  0  0  0  0  0  0  0  0  0  0
  -26.6262  -15.6874   18.7049 C   0  0  0  0  0  0  0  0  0  0  0  0
  -28.9214  -15.7039   20.5695 C   0  0  0  0  0  0  0  0  0  0  0  0
  -22.3804  -12.7945   21.4970 C   0  0  0  0  0  0  0  0  0  0  0  0
  -29.0776  -31.3957   22.8862 C   0  0  0  0  0  0  0  0  0  0  0  0
  -23.3239  -13.5913   22.3923 C   0  0  0  0  0  0  0  0  0  0  0  0
  -27.9948  -30.3382   22.6644 C   0  0  0  0  0  0  0  0  0  0  0  0
  -29.0279  -32.4868   21.8189 C   0  0  0  0  0  0  0  0  0  0  0  0
  -27.9897  -30.9383   20.2070 C   0  0  0  0  0  0  0  0  0  0  0  0
  -23.6630  -14.9494   21.7662 C   0  0  1  0  0  0  0  0  0  0  0  0
  -26.8428  -14.5710   19.7220 C   0  0  1  0  0  0  0  0  0  0  0  0
  -28.0354  -29.7871   21.2263 C   0  0  2  0  0  0  0  0  0  0  0  0
  -31.7556  -26.2833   21.2851 C   0  0  0  0  0  0  0  0  0  0  0  0
  -30.9668  -24.5914   24.0153 C   0  0  0  0  0  0  0  0  0  0  0  0
  -34.1061  -11.9569   19.0782 C   0  0  0  0  0  0  0  0  0  0  0  0
  -29.1500  -12.9126   23.3671 C   0  0  0  0  0  0  0  0  0  0  0  0
  -31.5578  -12.3607   22.9595 C   0  0  0  0  0  0  0  0  0  0  0  0
  -29.7691  -10.8794   22.0490 C   0  0  0  0  0  0  0  0  0  0  0  0
  -32.2761  -14.2096   16.6179 C   0  0  0  0  0  0  0  0  0  0  0  0
  -29.8398  -25.0250   23.0830 C   0  0  0  0  0  0  0  0  0  0  0  0
  -32.0787  -25.2418   18.5835 C   0  0  0  0  0  0  0  0  0  0  0  0
  -28.6193  -21.7583   19.5065 C   0  0  0  0  0  0  0  0  0  1  0  0
  -31.5807  -26.5428   17.9284 C   0  0  0  0  0  0  0  0  0  0  0  0
  -32.5759  -27.1115   16.9110 C   0  0  0  0  0  0  0  0  0  0  0  0
  -32.0667  -28.3719   16.2044 C   0  0  0  0  0  0  0  0  0  0  0  0
  -31.8345  -29.5491   17.1551 C   0  0  0  0  0  0  0  0  0  0  0  0
  -31.2998  -30.7713   16.4011 C   0  0  0  0  0  0  0  0  0  0  0  0
  -31.0449  -31.9604   17.3223 C   0  0  0  0  0  0  0  0  0  0  0  0
  -30.1536  -13.1474   20.9999 C   0  0  1  0  0  0  0  0  0  0  0  0
  -32.8930  -12.6109   18.4352 C   0  0  2  0  0  0  0  0  0  0  0  0
  -30.1465  -12.3494   22.3343 C   0  0  0  0  0  0  0  0  0  0  0  0
  -25.7659  -28.9105   21.6306 N   0  0  0  0  0  0  0  0  0  0  0  0
  -26.9365  -28.7686   20.9859 N   0  0  0  0  0  0  0  0  0  0  0  0
  -28.2365  -14.4671   20.1589 N   0  0  0  0  0  0  0  0  0  0  0  0
  -29.0716  -31.8979   20.4783 N   0  0  0  0  0  0  0  0  0  0  0  0
  -28.0872  -27.3897   19.4415 N   0  0  0  0  0  0  0  0  0  0  0  0
  -24.0594  -25.3840   19.8294 N   0  0  0  0  0  0  0  0  0  0  0  0
  -24.6478  -14.7908   20.7176 N   0  0  0  0  0  0  0  0  0  0  0  0
  -31.0684  -12.6201   19.9932 N   0  0  0  0  0  0  0  0  0  0  0  0
  -30.0610  -31.6723   18.3420 N   0  0  0  0  0  0  0  0  0  0  0  0
  -33.3669  -13.5172   17.3512 N   0  3  0  0  0  0  0  0  0  0  0  0
  -26.1111  -25.2598   18.8126 O   0  0  0  0  0  0  0  0  0  0  0  0
  -26.5559  -14.8244   22.0519 O   0  0  0  0  0  0  0  0  0  0  0  0
  -28.2440  -12.1398   20.0176 O   0  0  0  0  0  0  0  0  0  0  0  0
  -32.3185  -14.5575   19.7460 O   0  0  0  0  0  0  0  0  0  0  0  0
  -30.9612  -33.1059   19.8883 O   0  0  0  0  0  0  0  0  0  0  0  0
  -19.8279  -27.0846   23.0290 O   0  0  0  0  0  0  0  0  0  0  0  0
  -29.1415  -20.5687   20.0968 O   0  0  0  0  0  0  0  0  0  1  0  0
  -16.4951  -31.4730   23.2253 F   0  0  0  0  0  0  0  0  0  0  0  0
  -17.4779  -27.1471   21.5743 F   0  0  0  0  0  0  0  0  0  0  0  0
  1  2  1  0  0  0  0
  1  5  2  0  0  0  0
  2  6  2  0  0  0  0
  3  8  2  0  0  0  0
  3 17  1  0  0  0  0
  4  9  1  0  0  0  0
  4 17  2  0  0  0  0
  5 19  1  0  0  0  0
  6 21  1  0  0  0  0
  7 10  2  0  0  0  0
  7 20  1  0  0  0  0
  8 27  1  0  0  0  0
  9 27  2  0  0  0  0
 10 28  1  0  0  0  0
 11 12  2  0  0  0  0
 11 29  1  0  0  0  0
 12 30  1  0  0  0  0
 13 22  1  0  0  0  0
 13 28  2  0  0  0  0
 14 23  2  0  0  0  0
 14 24  1  0  0  0  0
 15 23  1  0  0  0  0
 15 25  2  0  0  0  0
 16 30  2  0  0  0  0
 16 31  1  0  0  0  0
 17 32  1  0  0  0  0
 18 32  1  0  0  0  0
 18 33  2  0  0  0  0
 18 34  1  0  0  0  0
 19 21  2  0  0  0  0
 19 39  1  0  0  0  0
 20 22  2  0  0  0  0
 20 40  1  0  0  0  0
 21 48  1  0  0  0  0
 22 41  1  0  0  0  0
 23 60  1  0  0  0  0
 24 26  2  0  0  0  0
 24 58  1  0  0  0  0
 25 26  1  0  0  0  0
 25 59  1  0  0  0  0
 26 51  1  0  0  0  0
 27 85  1  0  0  0  0
 28 86  1  0  0  0  0
 29 31  2  0  0  0  0
 29 85  1  0  0  0  0
 30 87  1  0  0  0  0
 31 88  1  0  0  0  0
 32 70  2  0  0  0  0
 33 71  1  0  0  0  0
 33 74  1  0  0  0  0
 34 75  1  0  0  0  0
 34 80  2  0  0  0  0
 35 49  1  0  0  0  0
 35 76  1  0  0  0  0
 35 81  2  0  0  0  0
 36 67  1  0  0  0  0
 36 72  1  0  0  0  0
 36 82  2  0  0  0  0
 37 68  1  0  0  0  0
 37 77  1  0  0  0  0
 37 83  2  0  0  0  0
 38 73  1  0  0  0  0
 38 78  1  0  0  0  0
 38 84  2  0  0  0  0
 39 42  1  0  0  0  0
 40 49  1  0  0  0  0
 41 72  1  0  0  0  0
 42 44  1  0  0  0  0
 43 45  1  0  0  0  0
 43 46  1  0  0  0  0
 44 48  1  0  0  0  0
 45 50  1  0  0  0  0
 46 73  1  0  0  0  0
 47 50  1  0  0  0  0
 47 73  1  0  0  0  0
 48 76  1  0  0  0  0
 49 72  1  0  0  0  0
 50 71  1  0  0  0  0
 52 58  1  0  0  0  0
 53 68  1  0  0  0  0
 54 69  1  0  0  0  0
 55 69  1  0  0  0  0
 56 69  1  0  0  0  0
 57 79  1  0  0  0  0
 59 61  1  0  0  0  0
 60 86  1  0  0  0  0
 61 62  1  0  0  0  0
 62 63  1  0  0  0  0
 63 64  1  0  0  0  0
 64 65  1  0  0  0  0
 65 66  1  0  0  0  0
 66 78  1  0  0  0  0
 67 69  1  0  0  0  0
 67 77  1  0  0  0  0
 68 79  1  0  0  0  0
 70 71  1  0  0  0  0
M  CHG  1  79   1
M  ISO  4  38 100  60 101  78 100  86 101
M  END
> <Batch ID>
0038

> <Smiles>
CCc1cc([101CH2:1][101O:1]c2ccc3c(c2)CN(C(=O)C(NC(=O)C(C)NC)C(C)(C)C)C(C(=O)NC2CCCc4ccccc42)C3)cc(CCCCCCC[100NH:0][100C:0](=O)N2CCCC(n3nc(-c4ccc(Oc5ccc(F)cc5F)cc4)c(C(N)=O)c3N)C2)c1C

> <Shape>
0.264

> <Color>
0.073

> <Negative vol penalty>
0.000

$$$$

  -OEChem-04052317013D

 85 93  0     1  0  0  0  0  0999 V2000
  -17.2018  -29.7875   24.7073 C   0  0  0  0  0  0  0  0  0  0  0  0
  -18.4707  -30.1784   25.1228 C   0  0  0  0  0  0  0  0  0  0  0  0
  -27.6228  -20.6982   21.2835 C   0  0  0  0  0  0  0  0  0  0  0  0
  -26.3813  -21.2121   19.2756 C   0  0  0  0  0  0  0  0  0  0  0  0
  -17.0624  -28.8480   23.6866 C   0  0  0  0  0  0  0  0  0  0  0  0
  -19.6010  -29.6291   24.5185 C   0  0  0  0  0  0  0  0  0  0  0  0
  -24.9338  -32.4411   23.4421 C   0  0  0  0  0  0  0  0  0  0  0  0
  -31.0195  -30.7657   24.0318 C   0  0  0  0  0  0  0  0  0  0  0  0
  -26.9130  -19.5050   21.4171 C   0  0  0  0  0  0  0  0  0  0  0  0
  -25.6714  -20.0188   19.4092 C   0  0  0  0  0  0  0  0  0  0  0  0
  -26.1483  -32.4429   24.1268 C   0  0  0  0  0  0  0  0  0  0  0  0
  -23.8683  -18.5278   22.5123 C   0  0  0  0  0  0  0  0  0  0  0  0
  -23.3836  -18.2012   23.7787 C   0  0  0  0  0  0  0  0  0  0  0  0
  -32.2224  -30.3027   23.5102 C   0  0  0  0  0  0  0  0  0  0  0  0
  -26.9714  -30.7145   22.6589 C   0  0  0  0  0  0  0  0  0  0  0  0
  -24.6898  -16.1688   23.7545 C   0  0  0  0  0  0  0  0  0  0  0  0
  -27.3569  -21.5518   20.2128 C   0  0  0  0  0  0  0  0  0  0  0  0
  -28.1387  -23.8518   20.9916 C   0  0  0  0  0  0  0  0  0  0  0  0
  -18.1915  -28.2941   23.0629 C   0  0  0  0  0  0  0  0  0  0  0  0
  -24.7248  -31.5669   22.3657 C   0  0  0  0  0  0  0  0  0  0  0  0
  -19.4765  -28.6803   23.4894 C   0  0  0  0  0  0  0  0  0  0  0  0
  -25.7543  -30.7054   21.9606 C   0  0  0  0  0  0  0  0  0  0  0  0
  -30.0576  -29.8569   24.4586 C   0  0  0  0  0  0  0  0  0  0  0  0
  -25.9373  -19.1653   20.4799 C   0  0  0  0  0  0  0  0  0  0  0  0
  -27.1663  -31.5774   23.7371 C   0  0  0  0  0  0  0  0  0  0  0  0
  -24.7637  -17.6748   21.8668 C   0  0  0  0  0  0  0  0  0  0  0  0
  -23.7943  -17.0217   24.3999 C   0  0  0  0  0  0  0  0  0  0  0  0
  -25.1744  -16.4954   22.4880 C   0  0  0  0  0  0  0  0  0  0  0  0
  -28.0895  -22.7849   20.0746 C   0  0  0  0  0  0  0  0  0  0  0  0
  -32.4129  -28.9322   23.4373 C   0  0  0  0  0  0  0  0  0  0  0  0
  -30.3450  -28.5064   24.3431 C   0  0  0  0  0  0  0  0  0  0  0  0
  -28.9638  -24.7762   20.3990 C   0  0  0  0  0  0  0  0  0  0  0  0
  -27.4960  -23.9946   22.2653 C   0  0  0  0  0  0  0  0  0  0  0  0
  -22.7096  -29.1815   21.7721 C   0  0  0  0  0  0  0  0  0  0  0  0
  -24.0824  -29.2702   18.8344 C   0  0  0  0  0  0  0  0  0  0  0  0
  -26.7801  -30.1125   16.9214 C   0  0  0  0  0  0  0  0  0  0  0  0
  -33.6255  -26.0595   17.6121 C   0  0  0  0  0  0  0  0  0  0  0  0
  -17.9911  -27.2468   21.9963 C   0  0  0  0  0  0  0  0  0  0  0  0
  -23.4186  -31.5961   21.6206 C   0  0  0  0  0  0  0  0  0  0  0  0
  -25.5875  -29.7617   20.7987 C   0  0  0  0  0  0  0  0  0  0  0  0
  -19.2367  -26.9916   21.1516 C   0  0  0  0  0  0  0  0  0  0  0  0
  -30.8168  -24.9999   15.6977 C   0  0  0  0  0  0  0  0  0  0  0  0
  -20.4652  -26.8425   22.0435 C   0  0  0  0  0  0  0  0  0  0  0  0
  -29.8643  -24.4119   16.7402 C   0  0  0  0  0  0  0  0  0  0  0  0
  -32.2763  -24.7051   16.0367 C   0  0  0  0  0  0  0  0  0  0  0  0
  -31.7389  -24.5233   18.4350 C   0  0  0  0  0  0  0  0  0  0  0  0
  -20.7266  -28.1256   22.8415 C   0  0  1  0  0  0  0  0  0  0  0  0
  -23.1327  -30.3021   20.8649 C   0  0  1  0  0  0  0  0  0  0  0  0
  -30.2584  -24.8426   18.1659 C   0  0  2  0  0  0  0  0  0  0  0  0
  -29.9577  -26.0881   24.8800 C   0  0  0  0  0  0  0  0  0  0  0  0
  -28.8202  -30.5776   26.5305 C   0  0  0  0  0  0  0  0  0  0  0  0
  -27.6238  -30.0273   14.5595 C   0  0  0  0  0  0  0  0  0  0  0  0
  -24.6496  -26.2885   19.1471 C   0  0  0  0  0  0  0  0  0  0  0  0
  -26.2825  -26.4721   17.2582 C   0  0  0  0  0  0  0  0  0  0  0  0
  -23.8688  -26.9688   16.8707 C   0  0  0  0  0  0  0  0  0  0  0  0
  -26.9917  -33.0605   16.7678 C   0  0  0  0  0  0  0  0  0  0  0  0
  -33.6931  -28.4005   22.8845 C   0  0  0  0  0  0  0  0  0  0  0  0
  -29.3506  -27.4848   24.7883 C   0  0  0  0  0  0  0  0  0  0  0  0
  -33.6233  -28.1825   21.3652 C   0  0  0  0  0  0  0  0  0  0  0  0
  -34.9299  -27.6020   20.8162 C   0  0  0  0  0  0  0  0  0  0  0  0
  -34.8791  -27.3646   19.3104 C   0  0  0  0  0  0  0  0  0  0  0  0
  -28.7474  -30.3541   25.0253 C   0  0  1  0  0  0  0  0  0  1  0  0
  -25.2744  -28.6039   18.1908 C   0  0  1  0  0  0  0  0  0  0  0  0
  -26.8865  -30.8544   15.6013 C   0  0  2  0  0  0  0  0  0  0  0  0
  -25.0216  -27.0996   17.8899 C   0  0  0  0  0  0  0  0  0  0  0  0
  -28.8247  -23.0094   18.9824 N   0  0  0  0  0  0  0  0  0  0  0  0
  -31.5020  -28.0189   23.8418 N   0  0  0  0  0  0  0  0  0  0  0  0
  -29.3437  -24.2282   19.2092 N   0  0  0  0  0  0  0  0  0  0  0  0
  -24.2898  -29.8233   20.1060 N   0  0  0  0  0  0  0  0  0  0  0  0
  -32.5856  -25.1391   17.4012 N   0  0  0  0  0  0  0  0  0  0  0  0
  -29.3942  -25.9962   20.7848 N   0  0  0  0  0  0  0  0  0  0  0  0
  -26.2225  -24.5782   22.3095 N   0  0  0  0  0  0  0  0  0  0  0  0
  -21.3478  -29.1261   22.0004 N   0  0  0  0  0  0  0  0  0  0  0  0
  -25.6021  -29.4018   17.0143 N   0  0  0  0  0  0  0  0  0  0  0  0
  -33.8485  -26.4226   18.9346 N   0  0  0  0  0  0  0  0  0  0  0  0
  -27.6195  -32.1386   15.7865 N   0  3  0  0  0  0  0  0  0  0  0  0
  -28.0420  -23.6308   23.3345 O   0  0  0  0  0  0  0  0  0  0  0  0
  -23.5557  -28.4224   22.2298 O   0  0  0  0  0  0  0  0  0  0  0  0
  -23.0087  -29.3051   18.2281 O   0  0  0  0  0  0  0  0  0  0  0  0
  -27.6560  -30.1558   17.7823 O   0  0  0  0  0  0  0  0  0  0  0  0
  -34.3015  -26.5273   16.6895 O   0  0  0  0  0  0  0  0  0  0  0  0
  -25.2446  -18.0009   20.6098 O   0  0  0  0  0  0  0  0  0  0  0  0
  -28.3524  -31.5766   24.4041 O   0  0  0  0  0  0  0  0  0  1  0  0
  -23.3300  -16.7090   25.6168 F   0  0  0  0  0  0  0  0  0  0  0  0
  -26.0353  -15.6726   21.8734 F   0  0  0  0  0  0  0  0  0  0  0  0
  1  2  1  0  0  0  0
  1  5  2  0  0  0  0
  2  6  2  0  0  0  0
  3  9  2  0  0  0  0
  3 17  1  0  0  0  0
  4 10  1  0  0  0  0
  4 17  2  0  0  0  0
  5 19  1  0  0  0  0
  6 21  1  0  0  0  0
  7 11  2  0  0  0  0
  7 20  1  0  0  0  0
  8 14  2  0  0  0  0
  8 23  1  0  0  0  0
  9 24  1  0  0  0  0
 10 24  2  0  0  0  0
 11 25  1  0  0  0  0
 12 13  2  0  0  0  0
 12 26  1  0  0  0  0
 13 27  1  0  0  0  0
 14 30  1  0  0  0  0
 15 22  1  0  0  0  0
 15 25  2  0  0  0  0
 16 27  2  0  0  0  0
 16 28  1  0  0  0  0
 17 29  1  0  0  0  0
 18 29  1  0  0  0  0
 18 32  2  0  0  0  0
 18 33  1  0  0  0  0
 19 21  2  0  0  0  0
 19 38  1  0  0  0  0
 20 22  2  0  0  0  0
 20 39  1  0  0  0  0
 21 47  1  0  0  0  0
 22 40  1  0  0  0  0
 23 31  2  0  0  0  0
 23 62  1  0  0  0  0
 24 82  1  0  0  0  0
 25 83  1  0  0  0  0
 26 28  2  0  0  0  0
 26 82  1  0  0  0  0
 27 84  1  0  0  0  0
 28 85  1  0  0  0  0
 29 66  2  0  0  0  0
 30 57  1  0  0  0  0
 30 67  2  0  0  0  0
 31 58  1  0  0  0  0
 31 67  1  0  0  0  0
 32 68  1  0  0  0  0
 32 71  1  0  0  0  0
 33 72  1  0  0  0  0
 33 77  2  0  0  0  0
 34 48  1  0  0  0  0
 34 73  1  0  0  0  0
 34 78  2  0  0  0  0
 35 63  1  0  0  0  0
 35 69  1  0  0  0  0
 35 79  2  0  0  0  0
 36 64  1  0  0  0  0
 36 74  1  0  0  0  0
 36 80  2  0  0  0  0
 37 70  1  0  0  0  0
 37 75  1  0  0  0  0
 37 81  2  0  0  0  0
 38 41  1  0  0  0  0
 39 48  1  0  0  0  0
 40 69  1  0  0  0  0
 41 43  1  0  0  0  0
 42 44  1  0  0  0  0
 42 45  1  0  0  0  0
 43 47  1  0  0  0  0
 44 49  1  0  0  0  0
 45 70  1  0  0  0  0
 46 49  1  0  0  0  0
 46 70  1  0  0  0  0
 47 73  1  0  0  0  0
 48 69  1  0  0  0  0
 49 68  1  0  0  0  0
 50 58  1  0  0  0  0
 51 62  1  0  0  0  0
 52 64  1  0  0  0  0
 53 65  1  0  0  0  0
 54 65  1  0  0  0  0
 55 65  1  0  0  0  0
 56 76  1  0  0  0  0
 57 59  1  0  0  0  0
 59 60  1  0  0  0  0
 60 61  1  0  0  0  0
 61 75  1  0  0  0  0
 62 83  1  0  0  0  0
 63 65  1  0  0  0  0
 63 74  1  0  0  0  0
 64 76  1  0  0  0  0
 66 68  1  0  0  0  0
M  CHG  1  76   1
M  ISO  4  37 100  62 101  75 100  83 101
M  END
> <Batch ID>
0038

> <Smiles>
CCc1nc(CCCC[100NH:0][100C:0](=O)N2CCCC(n3nc(-c4ccc(Oc5ccc(F)cc5F)cc4)c(C(N)=O)c3N)C2)ccc1[101CH:1](C)[101O:1]c1ccc2c(c1)CN(C(=O)C(NC(=O)C(C)NC)C(C)(C)C)C(C(=O)NC1CCCc3ccccc31)C2

> <Shape>
0.210

> <Color>
0.084

> <Negative vol penalty>
0.000

$$$$

  -OEChem-04052317013D

 86 94  0     1  0  0  0  0  0999 V2000
  -27.5901  -32.6250   27.3729 C   0  0  0  0  0  0  0  0  0  0  0  0
  -27.8514  -31.6173   26.4500 C   0  0  0  0  0  0  0  0  0  0  0  0
  -25.7366  -12.4497   22.3068 C   0  0  0  0  0  0  0  0  0  0  0  0
  -25.4882  -13.8628   20.3630 C   0  0  0  0  0  0  0  0  0  0  0  0
  -26.2745  -32.9181   27.7295 C   0  0  0  0  0  0  0  0  0  0  0  0
  -26.7971  -30.9013   25.8840 C   0  0  0  0  0  0  0  0  0  0  0  0
  -27.3194  -30.3025   20.8826 C   0  0  0  0  0  0  0  0  0  0  0  0
  -24.6584  -11.6741   21.8808 C   0  0  0  0  0  0  0  0  0  0  0  0
  -24.4100  -13.0871   19.9369 C   0  0  0  0  0  0  0  0  0  0  0  0
  -28.2095  -29.3212   20.4483 C   0  0  0  0  0  0  0  0  0  0  0  0
  -24.0904   -9.2270   19.6177 C   0  0  0  0  0  0  0  0  0  0  0  0
  -24.2266   -7.8400   19.6756 C   0  0  0  0  0  0  0  0  0  0  0  0
  -26.3591  -27.8226   20.0615 C   0  0  0  0  0  0  0  0  0  0  0  0
  -29.7950  -25.1220   17.5902 C   0  0  0  0  0  0  0  0  0  0  0  0
  -29.5256  -23.9040   19.6592 C   0  0  0  0  0  0  0  0  0  0  0  0
  -22.3369   -7.7171   21.1759 C   0  0  0  0  0  0  0  0  0  0  0  0
  -26.1515  -13.5441   21.5479 C   0  0  0  0  0  0  0  0  0  0  0  0
  -28.6246  -14.1566   21.6760 C   0  0  0  0  0  0  0  0  0  0  0  0
  -25.2031  -32.2119   27.1603 C   0  0  0  0  0  0  0  0  0  0  0  0
  -25.9411  -30.0471   20.9199 C   0  0  0  0  0  0  0  0  0  0  0  0
  -25.4660  -31.1843   26.2343 C   0  0  0  0  0  0  0  0  0  0  0  0
  -25.4534  -28.8032   20.4942 C   0  0  0  0  0  0  0  0  0  0  0  0
  -29.1449  -24.9442   18.8114 C   0  0  0  0  0  0  0  0  0  0  0  0
  -30.8258  -24.2596   17.2167 C   0  0  0  0  0  0  0  0  0  0  0  0
  -30.5563  -23.0416   19.2857 C   0  0  0  0  0  0  0  0  0  0  0  0
  -23.9951  -11.9928   20.6959 C   0  0  0  0  0  0  0  0  0  0  0  0
  -27.7296  -28.0801   20.0404 C   0  0  0  0  0  0  0  0  0  0  0  0
  -23.0775   -9.8591   20.3389 C   0  0  0  0  0  0  0  0  0  0  0  0
  -31.2064  -23.2194   18.0644 C   0  0  0  0  0  0  0  0  0  0  0  0
  -23.3499   -7.0851   20.4547 C   0  0  0  0  0  0  0  0  0  0  0  0
  -22.2007   -9.1041   21.1180 C   0  0  0  0  0  0  0  0  0  0  0  0
  -27.2649  -14.3460   21.9877 C   0  0  0  0  0  0  0  0  0  0  0  0
  -29.2723  -15.1746   22.3322 C   0  0  0  0  0  0  0  0  0  0  0  0
  -29.2465  -13.1505   20.8657 C   0  0  0  0  0  0  0  0  0  0  0  0
  -23.7392  -29.9488   23.2103 C   0  0  0  0  0  0  0  0  0  0  0  0
  -21.7122  -29.5689   20.7065 C   0  0  0  0  0  0  0  0  0  0  0  0
  -21.2568  -28.5822   17.4714 C   0  0  0  0  0  0  0  0  0  0  0  0
  -29.6557  -20.5412   23.8148 C   0  0  0  0  0  0  0  0  0  0  0  0
  -23.8004  -32.5325   27.6124 C   0  0  0  0  0  0  0  0  0  0  0  0
  -24.9918  -31.1253   21.3657 C   0  0  0  0  0  0  0  0  0  0  0  0
  -23.9811  -28.4859   20.4960 C   0  0  0  0  0  0  0  0  0  0  0  0
  -22.7205  -31.9801   26.6857 C   0  0  0  0  0  0  0  0  0  0  0  0
  -27.5972  -18.4361   25.8169 C   0  0  0  0  0  0  0  0  0  0  0  0
  -23.0156  -30.5267   26.3288 C   0  0  0  0  0  0  0  0  0  0  0  0
  -27.4345  -17.1721   24.9709 C   0  0  0  0  0  0  0  0  0  0  0  0
  -27.6243  -19.6944   24.9519 C   0  0  0  0  0  0  0  0  0  0  0  0
  -28.4581  -18.4131   23.0188 C   0  0  0  0  0  0  0  0  0  0  0  0
  -24.3480  -30.4021   25.5799 C   0  0  1  0  0  0  0  0  0  0  0  0
  -23.6519  -30.5794   21.8493 C   0  0  1  0  0  0  0  0  0  0  0  0
  -28.4815  -17.1140   23.8423 C   0  0  2  0  0  0  0  0  0  0  0  0
  -31.5098  -24.4662   15.9054 C   0  0  0  0  0  0  0  0  0  0  0  0
  -19.4811  -28.3537   15.7130 C   0  0  0  0  0  0  0  0  0  0  0  0
  -34.1064  -21.6686   19.0009 C   0  0  0  0  0  0  0  0  0  0  0  0
  -34.3880  -22.9398   16.8430 C   0  0  0  0  0  0  0  0  0  0  0  0
  -20.6517  -27.0731   22.1052 C   0  0  0  0  0  0  0  0  0  0  0  0
  -19.6095  -26.3848   19.9354 C   0  0  0  0  0  0  0  0  0  0  0  0
  -18.8937  -28.5012   21.0449 C   0  0  0  0  0  0  0  0  0  0  0  0
  -22.6390  -30.4754   15.6646 C   0  0  0  0  0  0  0  0  0  0  0  0
  -30.9499  -21.9341   20.2069 C   0  0  0  0  0  0  0  0  0  0  0  0
  -28.0358  -25.8715   19.2131 C   0  0  0  0  0  0  0  0  0  1  0  0
  -31.3354  -22.3936   21.6260 C   0  0  0  0  0  0  0  0  0  0  0  0
  -31.6875  -21.2557   22.5818 C   0  0  0  0  0  0  0  0  0  0  0  0
  -21.1662  -28.3867   19.9428 C   0  0  1  0  0  0  0  0  0  0  0  0
  -20.5568  -29.2524   16.3029 C   0  0  2  0  0  0  0  0  0  0  0  0
  -33.5364  -22.7435   18.0879 C   0  0  0  0  0  0  0  0  0  0  0  0
  -20.1082  -27.5914   20.7588 C   0  0  0  0  0  0  0  0  0  0  0  0
  -27.0597  -15.4012   22.7804 N   0  0  0  0  0  0  0  0  0  0  0  0
  -28.2992  -15.8840   22.9724 N   0  0  0  0  0  0  0  0  0  0  0  0
  -23.0936  -29.5707   20.9464 N   0  0  0  0  0  0  0  0  0  0  0  0
  -28.6392  -19.5757   23.9022 N   0  0  0  0  0  0  0  0  0  0  0  0
  -30.5737  -15.5231   22.4183 N   0  0  0  0  0  0  0  0  0  0  0  0
  -28.4335  -12.1797   20.2648 N   0  0  0  0  0  0  0  0  0  0  0  0
  -24.1906  -30.8031   24.1982 N   0  0  0  0  0  0  0  0  0  0  0  0
  -20.6714  -28.9127   18.6753 N   0  0  0  0  0  0  0  0  0  0  0  0
  -30.5804  -20.3504   22.7954 N   0  0  0  0  0  0  0  0  0  0  0  0
  -21.5376  -29.5784   15.2294 N   0  3  0  0  0  0  0  0  0  0  0  0
  -30.4881  -13.1037   20.6932 O   0  0  0  0  0  0  0  0  0  0  0  0
  -23.4193  -28.7746   23.3539 O   0  0  0  0  0  0  0  0  0  0  0  0
  -20.9424  -30.4615   21.0703 O   0  0  0  0  0  0  0  0  0  0  0  0
  -22.2238  -27.8369   17.3300 O   0  0  0  0  0  0  0  0  0  0  0  0
  -29.7364  -21.4991   24.5913 O   0  0  0  0  0  0  0  0  0  0  0  0
  -22.9431  -11.2360   20.2798 O   0  0  0  0  0  0  0  0  0  0  0  0
  -28.5963  -27.1202   19.6167 O   0  0  0  0  0  0  0  0  0  1  0  0
  -32.2148  -22.3766   17.6995 O   0  0  0  0  0  0  0  0  0  0  0  0
  -23.4798   -5.7530   20.5089 F   0  0  0  0  0  0  0  0  0  0  0  0
  -21.2249   -9.7056   21.8122 F   0  0  0  0  0  0  0  0  0  0  0  0
  1  2  1  0  0  0  0
  1  5  2  0  0  0  0
  2  6  2  0  0  0  0
  3  8  2  0  0  0  0
  3 17  1  0  0  0  0
  4  9  1  0  0  0  0
  4 17  2  0  0  0  0
  5 19  1  0  0  0  0
  6 21  1  0  0  0  0
  7 10  2  0  0  0  0
  7 20  1  0  0  0  0
  8 26  1  0  0  0  0
  9 26  2  0  0  0  0
 10 27  1  0  0  0  0
 11 12  2  0  0  0  0
 11 28  1  0  0  0  0
 12 30  1  0  0  0  0
 13 22  1  0  0  0  0
 13 27  2  0  0  0  0
 14 23  1  0  0  0  0
 14 24  2  0  0  0  0
 15 23  2  0  0  0  0
 15 25  1  0  0  0  0
 16 30  2  0  0  0  0
 16 31  1  0  0  0  0
 17 32  1  0  0  0  0
 18 32  1  0  0  0  0
 18 33  2  0  0  0  0
 18 34  1  0  0  0  0
 19 21  2  0  0  0  0
 19 39  1  0  0  0  0
 20 22  2  0  0  0  0
 20 40  1  0  0  0  0
 21 48  1  0  0  0  0
 22 41  1  0  0  0  0
 23 60  1  0  0  0  0
 24 29  1  0  0  0  0
 24 51  1  0  0  0  0
 25 29  2  0  0  0  0
 25 59  1  0  0  0  0
 26 82  1  0  0  0  0
 27 83  1  0  0  0  0
 28 31  2  0  0  0  0
 28 82  1  0  0  0  0
 29 84  1  0  0  0  0
 30 85  1  0  0  0  0
 31 86  1  0  0  0  0
 32 67  2  0  0  0  0
 33 68  1  0  0  0  0
 33 71  1  0  0  0  0
 34 72  1  0  0  0  0
 34 77  2  0  0  0  0
 35 49  1  0  0  0  0
 35 73  1  0  0  0  0
 35 78  2  0  0  0  0
 36 63  1  0  0  0  0
 36 69  1  0  0  0  0
 36 79  2  0  0  0  0
 37 64  1  0  0  0  0
 37 74  1  0  0  0  0
 37 80  2  0  0  0  0
 38 70  1  0  0  0  0
 38 75  1  0  0  0  0
 38 81  2  0  0  0  0
 39 42  1  0  0  0  0
 40 49  1  0  0  0  0
 41 69  1  0  0  0  0
 42 44  1  0  0  0  0
 43 45  1  0  0  0  0
 43 46  1  0  0  0  0
 44 48  1  0  0  0  0
 45 50  1  0  0  0  0
 46 70  1  0  0  0  0
 47 50  1  0  0  0  0
 47 70  1  0  0  0  0
 48 73  1  0  0  0  0
 49 69  1  0  0  0  0
 50 68  1  0  0  0  0
 52 64  1  0  0  0  0
 53 65  1  0  0  0  0
 54 65  1  0  0  0  0
 55 66  1  0  0  0  0
 56 66  1  0  0  0  0
 57 66  1  0  0  0  0
 58 76  1  0  0  0  0
 59 61  1  0  0  0  0
 60 83  1  0  0  0  0
 61 62  1  0  0  0  0
 62 75  1  0  0  0  0
 63 66  1  0  0  0  0
 63 74  1  0  0  0  0
 64 76  1  0  0  0  0
 65 84  1  0  0  0  0
 67 68  1  0  0  0  0
M  CHG  1  76   1
M  ISO  4  38 100  60 101  75 100  83 101
M  END
> <Batch ID>
0038

> <Smiles>
CNC(C)C(=O)NC(C(=O)N1Cc2cc([101O:1][101CH2:1]c3cc(C)c(OC(C)C)c(CCC[100NH:0][100C:0](=O)N4CCCC(n5nc(-c6ccc(Oc7ccc(F)cc7F)cc6)c(C(N)=O)c5N)C4)c3)ccc2CC1C(=O)NC1CCCc2ccccc21)C(C)(C)C

> <Shape>
0.272

> <Color>
0.074

> <Negative vol penalty>
0.000

$$$$

  -OEChem-04052317013D

 79 87  0     1  0  0  0  0  0999 V2000
  -28.0026  -18.1481   27.2034 C   0  0  0  0  0  0  0  0  0  0  0  0
  -28.5870  -19.1043   26.3790 C   0  0  0  0  0  0  0  0  0  0  0  0
  -24.2439  -14.2615   20.8849 C   0  0  0  0  0  0  0  0  0  0  0  0
  -26.0795  -12.6944   20.7757 C   0  0  0  0  0  0  0  0  0  0  0  0
  -26.6990  -17.7196   26.9566 C   0  0  0  0  0  0  0  0  0  0  0  0
  -27.8685  -19.6317   25.3067 C   0  0  0  0  0  0  0  0  0  0  0  0
  -28.1504  -25.3550   23.1457 C   0  0  0  0  0  0  0  0  0  0  0  0
  -23.3532  -13.2415   20.5503 C   0  0  0  0  0  0  0  0  0  0  0  0
  -25.1888  -11.6744   20.4413 C   0  0  0  0  0  0  0  0  0  0  0  0
  -28.8358  -25.9190   22.0706 C   0  0  0  0  0  0  0  0  0  0  0  0
  -23.3540   -8.5806   19.9118 C   0  0  0  0  0  0  0  0  0  0  0  0
  -23.4964   -7.3550   20.5624 C   0  0  0  0  0  0  0  0  0  0  0  0
  -26.8623  -25.6933   20.7018 C   0  0  0  0  0  0  0  0  0  0  0  0
  -23.1281   -8.4411   22.6889 C   0  0  0  0  0  0  0  0  0  0  0  0
  -31.1236  -21.9735   18.6327 C   0  0  0  0  0  0  0  0  0  0  0  0
  -25.6071  -13.9879   20.9975 C   0  0  0  0  0  0  0  0  0  0  0  0
  -26.9336  -15.4263   22.6343 C   0  0  0  0  0  0  0  0  0  0  0  0
  -25.9607  -18.2491   25.8865 C   0  0  0  0  0  0  0  0  0  0  0  0
  -26.8169  -24.9452   23.0036 C   0  0  0  0  0  0  0  0  0  0  0  0
  -26.5543  -19.2089   25.0445 C   0  0  0  0  0  0  0  0  0  0  0  0
  -26.1614  -25.1267   21.7774 C   0  0  0  0  0  0  0  0  0  0  0  0
  -23.8257  -11.9479   20.3286 C   0  0  0  0  0  0  0  0  0  0  0  0
  -28.1927  -26.0856   20.8476 C   0  0  0  0  0  0  0  0  0  0  0  0
  -23.0987   -9.7365   20.6498 C   0  0  0  0  0  0  0  0  0  0  0  0
  -23.3834   -7.2852   21.9509 C   0  0  0  0  0  0  0  0  0  0  0  0
  -22.9857   -9.6667   22.0383 C   0  0  0  0  0  0  0  0  0  0  0  0
  -26.5278  -15.0412   21.3425 C   0  0  0  0  0  0  0  0  0  0  0  0
  -29.8122  -22.1431   19.1155 C   0  0  0  0  0  0  0  0  0  0  0  0
  -31.3895  -23.1332   17.9464 C   0  0  0  0  0  0  0  0  0  0  0  0
  -27.8083  -16.4642   22.4243 C   0  0  0  0  0  0  0  0  0  0  0  0
  -26.5539  -14.8934   23.9100 C   0  0  0  0  0  0  0  0  0  0  0  0
  -29.0277  -21.1983   19.9199 C   0  0  0  0  0  0  0  0  0  0  0  0
  -25.2875  -22.1679   23.2300 C   0  0  0  0  0  0  0  0  0  0  0  0
  -22.6581  -24.0293   22.8503 C   0  0  0  0  0  0  0  0  0  0  0  0
  -21.3158  -26.9462   21.6944 C   0  0  0  0  0  0  0  0  0  0  0  0
  -24.5716  -17.7203   25.6309 C   0  0  0  0  0  0  0  0  0  0  0  0
  -26.0833  -24.3631   24.1806 C   0  0  0  0  0  0  0  0  0  0  0  0
  -24.7243  -24.7219   21.5789 C   0  0  0  0  0  0  0  0  0  0  0  0
  -23.7457  -18.6032   24.6988 C   0  0  0  0  0  0  0  0  0  0  0  0
  -29.9620  -18.1566   18.1757 C   0  0  0  0  0  0  0  0  0  0  0  0
  -24.5669  -19.0054   23.4779 C   0  0  0  0  0  0  0  0  0  0  0  0
  -29.1626  -17.1061   18.9476 C   0  0  0  0  0  0  0  0  0  0  0  0
  -29.1895  -19.4669   18.0579 C   0  0  0  0  0  0  0  0  0  0  0  0
  -27.9488  -18.9850   20.1416 C   0  0  0  0  0  0  0  0  0  0  0  0
  -25.7984  -19.8229   23.8862 C   0  0  1  0  0  0  0  0  0  0  0  0
  -24.8859  -23.5091   23.7756 C   0  0  1  0  0  0  0  0  0  0  0  0
  -28.6967  -17.6510   20.3103 C   0  0  1  0  0  0  0  0  0  0  0  0
  -32.5909  -23.5705   17.2121 C   0  0  0  0  0  0  0  0  0  0  0  0
  -19.1322  -28.1666   21.4937 C   0  0  0  0  0  0  0  0  0  0  0  0
  -21.8520  -22.2025   20.5430 C   0  0  0  0  0  0  0  0  0  0  0  0
  -20.2402  -23.9683   19.7999 C   0  0  0  0  0  0  0  0  0  0  0  0
  -19.9670  -22.8933   22.0343 C   0  0  0  0  0  0  0  0  0  0  0  0
  -22.2892  -29.1979   23.3500 C   0  0  0  0  0  0  0  0  0  0  0  0
  -30.7020  -26.3935   18.2786 C   0  0  0  0  0  0  0  0  0  0  0  0
  -30.0425  -25.2707   17.4748 C   0  0  0  0  0  0  0  0  0  0  0  0
  -30.2698  -26.4244   19.7400 C   0  0  0  0  0  0  0  0  0  1  0  0
  -21.8619  -24.5264   21.6679 C   0  0  1  0  0  0  0  0  0  0  0  0
  -20.3765  -27.9485   22.3405 C   0  0  2  0  0  0  0  0  0  0  0  0
  -21.0080  -23.4036   21.0142 C   0  0  0  0  0  0  0  0  0  0  0  0
  -27.0977  -15.7749   20.3828 N   0  0  0  0  0  0  0  0  0  0  0  0
  -29.2817  -23.3179   18.7657 N   0  0  0  0  0  0  0  0  0  0  0  0
  -30.2649  -23.8972   18.0556 N   0  0  0  0  0  0  0  0  0  0  0  0
  -27.8705  -16.6314   21.0721 N   0  0  0  0  0  0  0  0  0  0  0  0
  -28.7608  -19.9372   19.3813 N   0  0  0  0  0  0  0  0  0  0  0  0
  -24.0518  -24.1516   22.7578 N   0  0  0  0  0  0  0  0  0  0  0  0
  -28.5225  -17.2411   23.2662 N   0  0  0  0  0  0  0  0  0  0  0  0
  -25.6448  -13.8273   23.9450 N   0  0  0  0  0  0  0  0  0  0  0  0
  -25.4212  -21.1860   24.1930 N   0  0  0  0  0  0  0  0  0  0  0  0
  -21.0858  -25.6646   22.1480 N   0  0  0  0  0  0  0  0  0  0  0  0
  -21.0607  -29.2606   22.5170 N   0  3  0  0  0  0  0  0  0  0  0  0
  -26.9947  -15.3599   24.9878 O   0  0  0  0  0  0  0  0  0  0  0  0
  -28.6702  -21.5956   21.0279 O   0  0  0  0  0  0  0  0  0  0  0  0
  -25.4617  -22.0336   22.0245 O   0  0  0  0  0  0  0  0  0  0  0  0
  -22.0650  -23.5565   23.8230 O   0  0  0  0  0  0  0  0  0  0  0  0
  -22.1659  -27.2675   20.8669 O   0  0  0  0  0  0  0  0  0  0  0  0
  -22.9568  -10.9523   20.0024 O   0  0  0  0  0  0  0  0  0  0  0  0
  -28.8596  -26.6352   19.7963 O   0  0  0  0  0  0  0  0  0  1  0  0
  -23.5187   -6.1080   22.5754 F   0  0  0  0  0  0  0  0  0  0  0  0
  -22.7394  -10.7735   22.7525 F   0  0  0  0  0  0  0  0  0  0  0  0
  1  2  1  0  0  0  0
  1  5  2  0  0  0  0
  2  6  2  0  0  0  0
  3  8  2  0  0  0  0
  3 16  1  0  0  0  0
  4  9  1  0  0  0  0
  4 16  2  0  0  0  0
  5 18  1  0  0  0  0
  6 20  1  0  0  0  0
  7 10  2  0  0  0  0
  7 19  1  0  0  0  0
  8 22  1  0  0  0  0
  9 22  2  0  0  0  0
 10 23  1  0  0  0  0
 11 12  2  0  0  0  0
 11 24  1  0  0  0  0
 12 25  1  0  0  0  0
 13 21  1  0  0  0  0
 13 23  2  0  0  0  0
 14 25  2  0  0  0  0
 14 26  1  0  0  0  0
 15 28  1  0  0  0  0
 15 29  2  0  0  0  0
 16 27  1  0  0  0  0
 17 27  1  0  0  0  0
 17 30  2  0  0  0  0
 17 31  1  0  0  0  0
 18 20  2  0  0  0  0
 18 36  1  0  0  0  0
 19 21  2  0  0  0  0
 19 37  1  0  0  0  0
 20 45  1  0  0  0  0
 21 38  1  0  0  0  0
 22 76  1  0  0  0  0
 23 77  1  0  0  0  0
 24 26  2  0  0  0  0
 24 76  1  0  0  0  0
 25 78  1  0  0  0  0
 26 79  1  0  0  0  0
 27 60  2  0  0  0  0
 28 32  1  0  0  0  0
 28 61  2  0  0  0  0
 29 48  1  0  0  0  0
 29 62  1  0  0  0  0
 30 63  1  0  0  0  0
 30 66  1  0  0  0  0
 31 67  1  0  0  0  0
 31 71  2  0  0  0  0
 32 64  1  0  0  0  0
 32 72  2  0  0  0  0
 33 46  1  0  0  0  0
 33 68  1  0  0  0  0
 33 73  2  0  0  0  0
 34 57  1  0  0  0  0
 34 65  1  0  0  0  0
 34 74  2  0  0  0  0
 35 58  1  0  0  0  0
 35 69  1  0  0  0  0
 35 75  2  0  0  0  0
 36 39  1  0  0  0  0
 37 46  1  0  0  0  0
 38 65  1  0  0  0  0
 39 41  1  0  0  0  0
 40 42  1  0  0  0  0
 40 43  1  0  0  0  0
 41 45  1  0  0  0  0
 42 47  1  0  0  0  0
 43 64  1  0  0  0  0
 44 47  1  0  0  0  0
 44 64  1  0  0  0  0
 45 68  1  0  0  0  0
 46 65  1  0  0  0  0
 47 63  1  0  0  0  0
 49 58  1  0  0  0  0
 50 59  1  0  0  0  0
 51 59  1  0  0  0  0
 52 59  1  0  0  0  0
 53 70  1  0  0  0  0
 54 55  1  0  0  0  0
 54 56  1  0  0  0  0
 55 62  1  0  0  0  0
 56 77  1  0  0  0  0
 57 59  1  0  0  0  0
 57 69  1  0  0  0  0
 58 70  1  0  0  0  0
 60 63  1  0  0  0  0
 61 62  1  0  0  0  0
M  CHG  1  70   1
M  ISO  4  28 100  32 100  56 101  77 101
M  END
> <Batch ID>
0038

> <Smiles>
CNC(C)C(=O)NC(C(=O)N1Cc2cc([101O:1][101CH2:1]CCn3n[100c:0]([100C:0](=O)N4CCCC(n5nc(-c6ccc(Oc7ccc(F)cc7F)cc6)c(C(N)=O)c5N)C4)cc3C)ccc2CC1C(=O)NC1CCCc2ccccc21)C(C)(C)C

> <Shape>
0.211

> <Color>
0.076

> <Negative vol penalty>
0.000

$$$$

  -OEChem-04052317013D

 82 90  0     1  0  0  0  0  0999 V2000
  -19.4774  -25.0670   24.5802 C   0  0  0  0  0  0  0  0  0  0  0  0
  -20.8232  -25.1363   24.2348 C   0  0  0  0  0  0  0  0  0  0  0  0
  -24.5117  -14.8816   20.9445 C   0  0  0  0  0  0  0  0  0  0  0  0
  -26.6945  -15.8101   21.4032 C   0  0  0  0  0  0  0  0  0  0  0  0
  -18.5816  -26.0125   24.0827 C   0  0  0  0  0  0  0  0  0  0  0  0
  -21.2739  -26.1505   23.3906 C   0  0  0  0  0  0  0  0  0  0  0  0
  -26.6972  -28.9869   23.6125 C   0  0  0  0  0  0  0  0  0  0  0  0
  -25.0942  -13.9195   20.1197 C   0  0  0  0  0  0  0  0  0  0  0  0
  -27.2771  -14.8479   20.5783 C   0  0  0  0  0  0  0  0  0  0  0  0
  -27.8789  -28.8087   22.8945 C   0  0  0  0  0  0  0  0  0  0  0  0
  -26.7553  -10.9976   20.4889 C   0  0  0  0  0  0  0  0  0  0  0  0
  -26.3227   -9.6786   20.6257 C   0  0  0  0  0  0  0  0  0  0  0  0
  -27.2221  -30.5736   21.3870 C   0  0  0  0  0  0  0  0  0  0  0  0
  -25.6094   -9.6732   18.3174 C   0  0  0  0  0  0  0  0  0  0  0  0
  -25.3118  -15.8270   21.5863 C   0  0  0  0  0  0  0  0  0  0  0  0
  -24.4635  -16.7200   23.8202 C   0  0  0  0  0  0  0  0  0  0  0  0
  -19.0232  -27.0445   23.2397 C   0  0  0  0  0  0  0  0  0  0  0  0
  -25.7624  -29.9540   23.2159 C   0  0  0  0  0  0  0  0  0  0  0  0
  -20.3830  -27.1099   22.8802 C   0  0  0  0  0  0  0  0  0  0  0  0
  -26.0304  -30.7638   22.1031 C   0  0  0  0  0  0  0  0  0  0  0  0
  -26.4769  -13.9025   19.9366 C   0  0  0  0  0  0  0  0  0  0  0  0
  -28.1402  -29.6001   21.7799 C   0  0  0  0  0  0  0  0  0  0  0  0
  -26.6150  -11.6544   19.2664 C   0  0  0  0  0  0  0  0  0  0  0  0
  -25.7497   -9.0164   19.5400 C   0  0  0  0  0  0  0  0  0  0  0  0
  -26.0420  -10.9922   18.1806 C   0  0  0  0  0  0  0  0  0  0  0  0
  -24.7106  -16.8215   22.4380 C   0  0  0  0  0  0  0  0  0  0  0  0
  -23.8840  -17.9196   24.1545 C   0  0  0  0  0  0  0  0  0  0  0  0
  -29.4032  -25.4496   19.1515 C   0  0  0  0  0  0  0  0  0  0  0  0
  -30.0642  -27.4091   19.0960 C   0  0  0  0  0  0  0  0  0  0  0  0
  -24.7339  -15.6382   24.7215 C   0  0  0  0  0  0  0  0  0  0  0  0
  -22.7389  -29.8829   22.2376 C   0  0  0  0  0  0  0  0  0  0  0  0
  -23.0237  -33.1109   22.3845 C   0  0  0  0  0  0  0  0  0  0  0  0
  -25.0654  -35.8449   22.3258 C   0  0  0  0  0  0  0  0  0  0  0  0
  -24.1208  -23.3824   21.7147 C   0  0  0  0  0  0  0  0  0  0  0  0
  -18.0094  -28.0157   22.6887 C   0  0  0  0  0  0  0  0  0  0  0  0
  -24.5047  -30.1519   24.0168 C   0  0  0  0  0  0  0  0  0  0  0  0
  -25.0687  -31.8299   21.6481 C   0  0  0  0  0  0  0  0  0  0  0  0
  -18.6330  -29.2790   22.1007 C   0  0  0  0  0  0  0  0  0  0  0  0
  -21.2050  -21.4272   22.3078 C   0  0  0  0  0  0  0  0  0  0  0  0
  -19.8098  -28.9229   21.1979 C   0  0  0  0  0  0  0  0  0  0  0  0
  -21.7505  -20.0160   22.5332 C   0  0  0  0  0  0  0  0  0  0  0  0
  -22.0063  -22.1794   21.2476 C   0  0  0  0  0  0  0  0  0  0  0  0
  -24.0060  -20.8166   21.7144 C   0  0  0  0  0  0  0  0  0  0  0  0
  -20.9145  -28.2097   21.9869 C   0  0  1  0  0  0  0  0  0  0  0  0
  -23.3871  -30.8174   23.2195 C   0  0  1  0  0  0  0  0  0  0  0  0
  -23.2648  -20.0386   22.8151 C   0  0  2  0  0  0  0  0  0  0  0  0
  -25.0045  -38.3515   22.4290 C   0  0  0  0  0  0  0  0  0  0  0  0
  -22.0430  -33.2036   19.4967 C   0  0  0  0  0  0  0  0  0  0  0  0
  -22.8956  -35.5533   19.3558 C   0  0  0  0  0  0  0  0  0  0  0  0
  -21.0909  -34.9784   20.9792 C   0  0  0  0  0  0  0  0  0  0  0  0
  -26.7035  -35.8989   24.7901 C   0  0  0  0  0  0  0  0  0  0  0  0
  -28.5369  -24.2766   18.9902 C   0  0  0  0  0  0  0  0  0  0  0  0
  -30.3010  -28.8925   18.9489 C   0  0  0  0  0  0  0  0  0  0  0  0
  -27.8798  -23.8220   20.3138 C   0  0  0  0  0  0  0  0  0  0  0  0
  -26.9674  -24.8950   20.9155 C   0  0  0  0  0  0  0  0  0  0  0  0
  -26.3082  -24.4430   22.2145 C   0  0  0  0  0  0  0  0  0  0  0  0
  -29.2524  -29.7225   19.6813 C   0  0  0  0  0  0  0  0  0  1  0  0
  -23.4525  -34.1912   21.4212 C   0  0  1  0  0  0  0  0  0  0  0  0
  -25.1423  -37.0641   23.2269 C   0  0  2  0  0  0  0  0  0  0  0  0
  -22.3879  -34.4603   20.3204 C   0  0  0  0  0  0  0  0  0  0  0  0
  -24.3198  -17.9930   21.9291 N   0  0  0  0  0  0  0  0  0  0  0  0
  -29.0096  -26.7017   18.7782 N   0  0  0  0  0  0  0  0  0  0  0  0
  -30.6292  -25.3580   19.6750 N   0  0  0  0  0  0  0  0  0  0  0  0
  -23.8213  -18.6385   22.9972 N   0  0  0  0  0  0  0  0  0  0  0  0
  -23.8500  -31.9807   22.4602 N   0  0  0  0  0  0  0  0  0  0  0  0
  -23.4341  -22.1651   21.5751 N   0  0  0  0  0  0  0  0  0  0  0  0
  -23.4270  -18.4189   25.3225 N   0  0  0  0  0  0  0  0  0  0  0  0
  -25.3334  -14.4782   24.2122 N   0  0  0  0  0  0  0  0  0  0  0  0
  -21.6804  -29.1642   22.7595 N   0  0  0  0  0  0  0  0  0  0  0  0
  -23.7787  -35.3575   22.2347 N   0  0  0  0  0  0  0  0  0  0  0  0
  -25.4696  -23.2792   22.0321 N   0  0  0  0  0  0  0  0  0  0  0  0
  -26.4468  -37.0947   23.9468 N   0  3  0  0  0  0  0  0  0  0  0  0
  -24.4371  -15.6920   25.9391 O   0  0  0  0  0  0  0  0  0  0  0  0
  -23.1664  -29.8198   21.0909 O   0  0  0  0  0  0  0  0  0  0  0  0
  -21.9973  -33.2672   23.0506 O   0  0  0  0  0  0  0  0  0  0  0  0
  -26.0477  -35.3743   21.7566 O   0  0  0  0  0  0  0  0  0  0  0  0
  -23.5713  -24.4800   21.5727 O   0  0  0  0  0  0  0  0  0  0  0  0
  -31.0779  -26.6842   19.6378 O   0  0  0  0  0  0  0  0  0  0  0  0
  -27.0457  -12.9636   19.1319 O   0  0  0  0  0  0  0  0  0  0  0  0
  -29.2927  -29.4279   21.0770 O   0  0  0  0  0  0  0  0  0  1  0  0
  -25.3357   -7.7493   19.6711 F   0  0  0  0  0  0  0  0  0  0  0  0
  -25.9056  -11.6176   17.0033 F   0  0  0  0  0  0  0  0  0  0  0  0
  1  2  1  0  0  0  0
  1  5  2  0  0  0  0
  2  6  2  0  0  0  0
  3  8  2  0  0  0  0
  3 15  1  0  0  0  0
  4  9  1  0  0  0  0
  4 15  2  0  0  0  0
  5 17  1  0  0  0  0
  6 19  1  0  0  0  0
  7 10  2  0  0  0  0
  7 18  1  0  0  0  0
  8 21  1  0  0  0  0
  9 21  2  0  0  0  0
 10 22  1  0  0  0  0
 11 12  2  0  0  0  0
 11 23  1  0  0  0  0
 12 24  1  0  0  0  0
 13 20  1  0  0  0  0
 13 22  2  0  0  0  0
 14 24  2  0  0  0  0
 14 25  1  0  0  0  0
 15 26  1  0  0  0  0
 16 26  1  0  0  0  0
 16 27  2  0  0  0  0
 16 30  1  0  0  0  0
 17 19  2  0  0  0  0
 17 35  1  0  0  0  0
 18 20  2  0  0  0  0
 18 36  1  0  0  0  0
 19 44  1  0  0  0  0
 20 37  1  0  0  0  0
 21 79  1  0  0  0  0
 22 80  1  0  0  0  0
 23 25  2  0  0  0  0
 23 79  1  0  0  0  0
 24 81  1  0  0  0  0
 25 82  1  0  0  0  0
 26 61  2  0  0  0  0
 27 64  1  0  0  0  0
 27 67  1  0  0  0  0
 28 52  1  0  0  0  0
 28 62  1  0  0  0  0
 28 63  2  0  0  0  0
 29 53  1  0  0  0  0
 29 62  2  0  0  0  0
 29 78  1  0  0  0  0
 30 68  1  0  0  0  0
 30 73  2  0  0  0  0
 31 45  1  0  0  0  0
 31 69  1  0  0  0  0
 31 74  2  0  0  0  0
 32 58  1  0  0  0  0
 32 65  1  0  0  0  0
 32 75  2  0  0  0  0
 33 59  1  0  0  0  0
 33 70  1  0  0  0  0
 33 76  2  0  0  0  0
 34 66  1  0  0  0  0
 34 71  1  0  0  0  0
 34 77  2  0  0  0  0
 35 38  1  0  0  0  0
 36 45  1  0  0  0  0
 37 65  1  0  0  0  0
 38 40  1  0  0  0  0
 39 41  1  0  0  0  0
 39 42  1  0  0  0  0
 40 44  1  0  0  0  0
 41 46  1  0  0  0  0
 42 66  1  0  0  0  0
 43 46  1  0  0  0  0
 43 66  1  0  0  0  0
 44 69  1  0  0  0  0
 45 65  1  0  0  0  0
 46 64  1  0  0  0  0
 47 59  1  0  0  0  0
 48 60  1  0  0  0  0
 49 60  1  0  0  0  0
 50 60  1  0  0  0  0
 51 72  1  0  0  0  0
 52 54  1  0  0  0  0
 53 57  1  0  0  0  0
 54 55  1  0  0  0  0
 55 56  1  0  0  0  0
 56 71  1  0  0  0  0
 57 80  1  0  0  0  0
 58 60  1  0  0  0  0
 58 70  1  0  0  0  0
 59 72  1  0  0  0  0
 61 64  1  0  0  0  0
 63 78  1  0  0  0  0
M  CHG  1  72   1
M  ISO  4  34 100  57 101  71 100  80 101
M  END
> <Batch ID>
0038

> <Smiles>
CNC(C)C(=O)NC(C(=O)N1Cc2cc([101O:1][101CH2:1]Cc3nc(CCCC[100NH:0][100C:0](=O)N4CCCC(n5nc(-c6ccc(Oc7ccc(F)cc7F)cc6)c(C(N)=O)c5N)C4)no3)ccc2CC1C(=O)NC1CCCc2ccccc21)C(C)(C)C

> <Shape>
0.211

> <Color>
0.096

> <Negative vol penalty>
0.000

$$$$

  -OEChem-04052317013D

 85 93  0     1  0  0  0  0  0999 V2000
  -32.0459  -15.1356   20.4873 C   0  0  0  0  0  0  0  0  0  0  0  0
  -31.0172  -16.0160   20.8065 C   0  0  0  0  0  0  0  0  0  0  0  0
  -21.4075  -27.2951   19.6728 C   0  0  0  0  0  0  0  0  0  0  0  0
  -21.9667  -26.0847   21.6876 C   0  0  0  0  0  0  0  0  0  0  0  0
  -31.7491  -13.8848   19.9475 C   0  0  0  0  0  0  0  0  0  0  0  0
  -29.6909  -15.6465   20.5852 C   0  0  0  0  0  0  0  0  0  0  0  0
  -26.6774  -16.7921   24.4904 C   0  0  0  0  0  0  0  0  0  0  0  0
  -20.1919  -26.6147   19.6015 C   0  0  0  0  0  0  0  0  0  0  0  0
  -20.7511  -25.4043   21.6163 C   0  0  0  0  0  0  0  0  0  0  0  0
  -26.2781  -18.1218   24.6179 C   0  0  0  0  0  0  0  0  0  0  0  0
  -17.6377  -23.6089   22.1652 C   0  0  0  0  0  0  0  0  0  0  0  0
  -16.8971  -23.4780   23.3399 C   0  0  0  0  0  0  0  0  0  0  0  0
  -24.1530  -17.5733   23.6167 C   0  0  0  0  0  0  0  0  0  0  0  0
  -16.7665  -25.8833   23.5257 C   0  0  0  0  0  0  0  0  0  0  0  0
  -25.0670  -21.4941   20.0997 C   0  0  0  0  0  0  0  0  0  0  0  0
  -22.2949  -27.0300   20.7159 C   0  0  0  0  0  0  0  0  0  0  0  0
  -23.8072  -28.9489   21.4499 C   0  0  0  0  0  0  0  0  0  0  0  0
  -30.4182  -13.4960   19.7285 C   0  0  0  0  0  0  0  0  0  0  0  0
  -25.8202  -15.8436   23.9142 C   0  0  0  0  0  0  0  0  0  0  0  0
  -29.3761  -14.3899   20.0407 C   0  0  0  0  0  0  0  0  0  0  0  0
  -24.5428  -16.2317   23.4854 C   0  0  0  0  0  0  0  0  0  0  0  0
  -25.7304  -21.4035   21.3380 C   0  0  0  0  0  0  0  0  0  0  0  0
  -19.8637  -25.6693   20.5732 C   0  0  0  0  0  0  0  0  0  0  0  0
  -25.0168  -18.5132   24.1783 C   0  0  0  0  0  0  0  0  0  0  0  0
  -17.9428  -24.8771   21.6708 C   0  0  0  0  0  0  0  0  0  0  0  0
  -16.4614  -24.6151   24.0202 C   0  0  0  0  0  0  0  0  0  0  0  0
  -17.5072  -26.0142   22.3511 C   0  0  0  0  0  0  0  0  0  0  0  0
  -23.5510  -27.7321   20.7898 C   0  0  0  0  0  0  0  0  0  0  0  0
  -26.7681  -20.5334   21.1088 C   0  0  0  0  0  0  0  0  0  0  0  0
  -25.1408  -29.1877   21.2242 C   0  0  0  0  0  0  0  0  0  0  0  0
  -22.9191  -29.7881   22.2000 C   0  0  0  0  0  0  0  0  0  0  0  0
  -25.9432  -13.9776   21.3439 C   0  0  0  0  0  0  0  0  0  0  0  0
  -23.1894  -12.7747   22.5655 C   0  0  0  0  0  0  0  0  0  0  0  0
  -20.4526  -13.2426   24.5498 C   0  0  0  0  0  0  0  0  0  0  0  0
  -29.7758  -25.6000   20.0009 C   0  0  0  0  0  0  0  0  0  0  0  0
  -30.1487  -12.1522   19.0990 C   0  0  0  0  0  0  0  0  0  0  0  0
  -26.2557  -14.4078   23.8083 C   0  0  0  0  0  0  0  0  0  0  0  0
  -23.5772  -15.2480   22.8783 C   0  0  0  0  0  0  0  0  0  0  0  0
  -28.7008  -11.6910   19.2441 C   0  0  0  0  0  0  0  0  0  0  0  0
  -28.6114  -28.3362   18.0429 C   0  0  0  0  0  0  0  0  0  0  0  0
  -27.7418  -12.8235   18.8913 C   0  0  0  0  0  0  0  0  0  0  0  0
  -27.2056  -28.6015   18.5844 C   0  0  0  0  0  0  0  0  0  0  0  0
  -28.9389  -26.8447   18.0294 C   0  0  0  0  0  0  0  0  0  0  0  0
  -27.3469  -26.4234   19.8629 C   0  0  0  0  0  0  0  0  0  0  0  0
  -27.9238  -14.0157   19.8384 C   0  0  1  0  0  0  0  0  0  0  0  0
  -25.4975  -13.6310   22.7364 C   0  0  1  0  0  0  0  0  0  0  0  0
  -26.9918  -27.9177   19.9482 C   0  0  2  0  0  0  0  0  0  0  0  0
  -18.3586  -12.0942   25.3204 C   0  0  0  0  0  0  0  0  0  0  0  0
  -21.8959  -13.3212   19.8566 C   0  0  0  0  0  0  0  0  0  0  0  0
  -19.6589  -13.0635   20.9510 C   0  0  0  0  0  0  0  0  0  0  0  0
  -21.2496  -11.1426   20.9008 C   0  0  0  0  0  0  0  0  0  0  0  0
  -27.5337  -19.2653   19.0788 C   0  0  0  0  0  0  0  0  0  0  0  0
  -21.3011  -13.3439   27.3833 C   0  0  0  0  0  0  0  0  0  0  0  0
  -25.3765  -22.1067   22.6241 C   0  0  0  0  0  0  0  0  0  0  0  0
  -27.8264  -20.0235   22.0011 C   0  0  0  0  0  0  0  0  0  0  0  0
  -23.9651  -21.7965   23.1274 C   0  0  0  0  0  0  0  0  0  0  0  0
  -29.1871  -20.7116   21.7686 C   0  0  0  0  0  0  0  0  0  0  0  0
  -29.1332  -22.2156   22.0449 C   0  0  0  0  0  0  0  0  0  0  0  0
  -30.4853  -22.8797   21.7687 C   0  0  0  0  0  0  0  0  0  0  0  0
  -30.4694  -24.3791   22.0473 C   0  0  0  0  0  0  0  0  0  0  0  0
  -23.7086  -20.3071   23.3261 C   0  0  0  0  0  0  0  0  0  1  0  0
  -21.7231  -13.1045   22.4236 C   0  0  1  0  0  0  0  0  0  0  0  0
  -19.8238  -12.3695   25.6207 C   0  0  2  0  0  0  0  0  0  0  0  0
  -21.1506  -12.6771   21.0426 C   0  0  0  0  0  0  0  0  0  0  0  0
  -25.6356  -20.7416   19.1539 N   0  0  0  0  0  0  0  0  0  0  0  0
  -24.6348  -27.2329   20.1897 N   0  0  0  0  0  0  0  0  0  0  0  0
  -26.6673  -20.1700   19.7981 N   0  0  0  0  0  0  0  0  0  0  0  0
  -25.5849  -28.1405   20.4717 N   0  0  0  0  0  0  0  0  0  0  0  0
  -24.0518  -13.8571   22.7906 N   0  0  0  0  0  0  0  0  0  0  0  0
  -28.7169  -26.2570   19.3528 N   0  0  0  0  0  0  0  0  0  0  0  0
  -25.9651  -30.1893   21.5979 N   0  0  0  0  0  0  0  0  0  0  0  0
  -21.5808  -29.3939   22.3337 N   0  0  0  0  0  0  0  0  0  0  0  0
  -27.2865  -13.7523   21.1107 N   0  0  0  0  0  0  0  0  0  0  0  0
  -21.0540  -12.4886   23.5643 N   0  0  0  0  0  0  0  0  0  0  0  0
  -29.4821  -25.0772   21.2544 N   0  0  0  0  0  0  0  0  0  0  0  0
  -19.9137  -13.0356   26.9509 N   0  3  0  0  0  0  0  0  0  0  0  0
  -23.2972  -30.8643   22.7220 O   0  0  0  0  0  0  0  0  0  0  0  0
  -25.1284  -14.4154   20.5401 O   0  0  0  0  0  0  0  0  0  0  0  0
  -23.5553  -11.5993   22.4869 O   0  0  0  0  0  0  0  0  0  0  0  0
  -20.4110  -14.4705   24.5823 O   0  0  0  0  0  0  0  0  0  0  0  0
  -30.9011  -25.4924   19.5020 O   0  0  0  0  0  0  0  0  0  0  0  0
  -18.6776  -25.0054   20.5041 O   0  0  0  0  0  0  0  0  0  0  0  0
  -24.6248  -19.8106   24.3010 O   0  0  0  0  0  0  0  0  0  1  0  0
  -15.7489  -24.4892   25.1474 F   0  0  0  0  0  0  0  0  0  0  0  0
  -17.7962  -27.2352   21.8803 F   0  0  0  0  0  0  0  0  0  0  0  0
  1  2  1  0  0  0  0
  1  5  2  0  0  0  0
  2  6  2  0  0  0  0
  3  8  2  0  0  0  0
  3 16  1  0  0  0  0
  4  9  1  0  0  0  0
  4 16  2  0  0  0  0
  5 18  1  0  0  0  0
  6 20  1  0  0  0  0
  7 10  2  0  0  0  0
  7 19  1  0  0  0  0
  8 23  1  0  0  0  0
  9 23  2  0  0  0  0
 10 24  1  0  0  0  0
 11 12  2  0  0  0  0
 11 25  1  0  0  0  0
 12 26  1  0  0  0  0
 13 21  1  0  0  0  0
 13 24  2  0  0  0  0
 14 26  2  0  0  0  0
 14 27  1  0  0  0  0
 15 22  1  0  0  0  0
 15 65  2  0  0  0  0
 16 28  1  0  0  0  0
 17 28  1  0  0  0  0
 17 30  2  0  0  0  0
 17 31  1  0  0  0  0
 18 20  2  0  0  0  0
 18 36  1  0  0  0  0
 19 21  2  0  0  0  0
 19 37  1  0  0  0  0
 20 45  1  0  0  0  0
 21 38  1  0  0  0  0
 22 29  2  0  0  0  0
 22 54  1  0  0  0  0
 23 82  1  0  0  0  0
 24 83  1  0  0  0  0
 25 27  2  0  0  0  0
 25 82  1  0  0  0  0
 26 84  1  0  0  0  0
 27 85  1  0  0  0  0
 28 66  2  0  0  0  0
 29 55  1  0  0  0  0
 29 67  1  0  0  0  0
 30 68  1  0  0  0  0
 30 71  1  0  0  0  0
 31 72  1  0  0  0  0
 31 77  2  0  0  0  0
 32 46  1  0  0  0  0
 32 73  1  0  0  0  0
 32 78  2  0  0  0  0
 33 62  1  0  0  0  0
 33 69  1  0  0  0  0
 33 79  2  0  0  0  0
 34 63  1  0  0  0  0
 34 74  1  0  0  0  0
 34 80  2  0  0  0  0
 35 70  1  0  0  0  0
 35 75  1  0  0  0  0
 35 81  2  0  0  0  0
 36 39  1  0  0  0  0
 37 46  1  0  0  0  0
 38 69  1  0  0  0  0
 39 41  1  0  0  0  0
 40 42  1  0  0  0  0
 40 43  1  0  0  0  0
 41 45  1  0  0  0  0
 42 47  1  0  0  0  0
 43 70  1  0  0  0  0
 44 47  1  0  0  0  0
 44 70  1  0  0  0  0
 45 73  1  0  0  0  0
 46 69  1  0  0  0  0
 47 68  1  0  0  0  0
 48 63  1  0  0  0  0
 49 64  1  0  0  0  0
 50 64  1  0  0  0  0
 51 64  1  0  0  0  0
 52 67  1  0  0  0  0
 53 76  1  0  0  0  0
 54 56  1  0  0  0  0
 55 57  1  0  0  0  0
 56 61  1  0  0  0  0
 57 58  1  0  0  0  0
 58 59  1  0  0  0  0
 59 60  1  0  0  0  0
 60 75  1  0  0  0  0
 61 83  1  0  0  0  0
 62 64  1  0  0  0  0
 62 74  1  0  0  0  0
 63 76  1  0  0  0  0
 65 67  1  0  0  0  0
 66 68  1  0  0  0  0
M  CHG  1  76   1
M  ISO  4  35 100  61 101  75 100  83 101
M  END
> <Batch ID>
0038

> <Smiles>
CNC(C)C(=O)NC(C(=O)N1Cc2cc([101O:1][101CH2:1]CCc3cnn(C)c3CCCCC[100NH:0][100C:0](=O)N3CCCC(n4nc(-c5ccc(Oc6ccc(F)cc6F)cc5)c(C(N)=O)c4N)C3)ccc2CC1C(=O)NC1CCCc2ccccc21)C(C)(C)C

> <Shape>
0.223

> <Color>
0.067

> <Negative vol penalty>
0.000

$$$$

  -OEChem-04052317013D

 83 91  0     1  0  0  0  0  0999 V2000
  -30.1308  -24.9078   13.8943 C   0  0  0  0  0  0  0  0  0  0  0  0
  -29.6220  -24.3924   15.0820 C   0  0  0  0  0  0  0  0  0  0  0  0
  -23.1937   -9.6893   21.0054 C   0  0  0  0  0  0  0  0  0  0  0  0
  -23.8236  -10.4916   23.1955 C   0  0  0  0  0  0  0  0  0  0  0  0
  -30.5489  -26.2366   13.8348 C   0  0  0  0  0  0  0  0  0  0  0  0
  -29.5318  -25.2052   16.2115 C   0  0  0  0  0  0  0  0  0  0  0  0
  -25.0978  -24.7159   18.6083 C   0  0  0  0  0  0  0  0  0  0  0  0
  -22.4706   -8.6517   21.5935 C   0  0  0  0  0  0  0  0  0  0  0  0
  -23.1004   -9.4540   23.7837 C   0  0  0  0  0  0  0  0  0  0  0  0
  -24.9303  -23.5904   19.4139 C   0  0  0  0  0  0  0  0  0  0  0  0
  -19.4699   -8.2476   23.0988 C   0  0  0  0  0  0  0  0  0  0  0  0
  -18.1941   -7.9832   22.6008 C   0  0  0  0  0  0  0  0  0  0  0  0
  -25.4175  -24.9220   21.3654 C   0  0  0  0  0  0  0  0  0  0  0  0
  -18.8826   -5.7393   22.0282 C   0  0  0  0  0  0  0  0  0  0  0  0
  -27.9759  -20.3743   20.2255 C   0  0  0  0  0  0  0  0  0  0  0  0
  -23.8703  -10.6093   21.8064 C   0  0  0  0  0  0  0  0  0  0  0  0
  -24.1455  -12.9644   20.8655 C   0  0  0  0  0  0  0  0  0  0  0  0
  -30.4548  -27.0688   14.9614 C   0  0  0  0  0  0  0  0  0  0  0  0
  -25.4377  -25.9527   19.1752 C   0  0  0  0  0  0  0  0  0  0  0  0
  -29.9502  -26.5460   16.1674 C   0  0  0  0  0  0  0  0  0  0  0  0
  -25.5862  -26.0623   20.5652 C   0  0  0  0  0  0  0  0  0  0  0  0
  -22.4239   -8.5340   22.9826 C   0  0  0  0  0  0  0  0  0  0  0  0
  -25.0929  -23.6927   20.7924 C   0  0  0  0  0  0  0  0  0  0  0  0
  -20.4521   -7.2579   23.0614 C   0  0  0  0  0  0  0  0  0  0  0  0
  -17.9004   -6.7291   22.0656 C   0  0  0  0  0  0  0  0  0  0  0  0
  -20.1585   -6.0037   22.5262 C   0  0  0  0  0  0  0  0  0  0  0  0
  -24.6180  -11.6811   21.1995 C   0  0  0  0  0  0  0  0  0  0  0  0
  -28.0799  -19.0012   20.2623 C   0  0  0  0  0  0  0  0  0  0  0  0
  -26.8116  -18.9562   22.1648 C   0  0  0  0  0  0  0  0  0  0  0  0
  -26.7083  -20.3294   22.1283 C   0  0  0  0  0  0  0  0  0  0  0  0
  -25.2342  -13.6001   20.3204 C   0  0  0  0  0  0  0  0  0  0  0  0
  -22.8392  -13.5313   21.0330 C   0  0  0  0  0  0  0  0  0  0  0  0
  -27.9068  -27.9373   18.9136 C   0  0  0  0  0  0  0  0  0  0  0  0
  -26.0664  -29.8508   20.7773 C   0  0  0  0  0  0  0  0  0  0  0  0
  -23.5428  -30.1118   23.0600 C   0  0  0  0  0  0  0  0  0  0  0  0
  -30.6672  -14.8738   20.3944 C   0  0  0  0  0  0  0  0  0  0  0  0
  -30.9633  -28.4852   14.8620 C   0  0  0  0  0  0  0  0  0  0  0  0
  -25.5886  -27.1631   18.2952 C   0  0  0  0  0  0  0  0  0  0  0  0
  -25.9310  -27.3716   21.2250 C   0  0  0  0  0  0  0  0  0  0  0  0
  -30.4859  -29.3849   15.9991 C   0  0  0  0  0  0  0  0  0  0  0  0
  -29.7340  -11.7830   18.8935 C   0  0  0  0  0  0  0  0  0  0  0  0
  -30.6560  -28.6829   17.3427 C   0  0  0  0  0  0  0  0  0  0  0  0
  -28.2837  -11.5841   19.3371 C   0  0  0  0  0  0  0  0  0  0  0  0
  -30.5758  -12.4315   19.9902 C   0  0  0  0  0  0  0  0  0  0  0  0
  -28.5792  -13.4934   20.9699 C   0  0  0  0  0  0  0  0  0  0  0  0
  -29.8136  -27.4032   17.4070 C   0  0  1  0  0  0  0  0  0  0  0  0
  -26.4394  -28.2598   18.9283 C   0  0  1  0  0  0  0  0  0  0  0  0
  -27.6779  -12.8935   19.8772 C   0  0  2  0  0  0  0  0  0  0  0  0
  -26.1642  -18.1566   23.2433 C   0  0  0  0  0  0  0  0  0  0  0  0
  -22.2898  -31.8029   24.4265 C   0  0  0  0  0  0  0  0  0  0  0  0
  -28.4390  -30.0645   22.6839 C   0  0  0  0  0  0  0  0  0  0  0  0
  -26.8688  -30.9343   24.4293 C   0  0  0  0  0  0  0  0  0  0  0  0
  -27.2045  -32.2072   22.3104 C   0  0  0  0  0  0  0  0  0  0  0  0
  -20.9723  -29.4267   21.7631 C   0  0  0  0  0  0  0  0  0  0  0  0
  -28.8487  -18.2736   19.2157 C   0  0  0  0  0  0  0  0  0  0  0  0
  -25.9348  -21.0887   23.1788 C   0  0  0  0  0  0  0  0  0  0  0  0
  -30.3423  -18.0697   19.5431 C   0  0  0  0  0  0  0  0  0  0  0  0
  -30.6018  -17.3136   20.8444 C   0  0  0  0  0  0  0  0  0  0  0  0
  -25.6950  -22.5421   22.7847 C   0  0  0  0  0  0  0  0  0  1  0  0
  -25.8915  -30.0471   22.2639 C   0  0  1  0  0  0  0  0  0  0  0  0
  -22.3304  -31.0232   23.1214 C   0  0  2  0  0  0  0  0  0  0  0  0
  -27.0963  -30.7881   22.9096 C   0  0  0  0  0  0  0  0  0  0  0  0
  -27.2883  -21.0630   21.1579 N   0  0  0  0  0  0  0  0  0  0  0  0
  -25.9065  -11.5099   20.8922 N   0  0  0  0  0  0  0  0  0  0  0  0
  -27.4995  -18.2675   21.2326 N   0  0  0  0  0  0  0  0  0  0  0  0
  -26.2529  -12.6940   20.3593 N   0  0  0  0  0  0  0  0  0  0  0  0
  -26.0744  -28.5250   20.3214 N   0  0  0  0  0  0  0  0  0  0  0  0
  -29.9472  -13.6694   20.4575 N   0  0  0  0  0  0  0  0  0  0  0  0
  -25.4099  -14.8400   19.8164 N   0  0  0  0  0  0  0  0  0  0  0  0
  -21.8366  -12.7402   21.6104 N   0  0  0  0  0  0  0  0  0  0  0  0
  -28.4236  -27.7248   17.6498 N   0  0  0  0  0  0  0  0  0  0  0  0
  -24.6108  -30.7236   22.4385 N   0  0  0  0  0  0  0  0  0  0  0  0
  -29.9954  -16.0009   20.8516 N   0  0  0  0  0  0  0  0  0  0  0  0
  -21.0765  -30.2255   23.0113 N   0  3  0  0  0  0  0  0  0  0  0  0
  -22.5648  -14.6990   20.6662 O   0  0  0  0  0  0  0  0  0  0  0  0
  -28.5248  -27.8864   19.9706 O   0  0  0  0  0  0  0  0  0  0  0  0
  -26.1841  -30.8377   20.0468 O   0  0  0  0  0  0  0  0  0  0  0  0
  -23.5436  -28.9724   23.5208 O   0  0  0  0  0  0  0  0  0  0  0  0
  -31.8212  -14.9406   19.9577 O   0  0  0  0  0  0  0  0  0  0  0  0
  -21.7181   -7.5217   23.5568 O   0  0  0  0  0  0  0  0  0  0  0  0
  -24.9306  -22.5955   21.5809 O   0  0  0  0  0  0  0  0  0  1  0  0
  -16.6748   -6.4748   21.5889 F   0  0  0  0  0  0  0  0  0  0  0  0
  -21.0976   -5.0485   22.4886 F   0  0  0  0  0  0  0  0  0  0  0  0
  1  2  1  0  0  0  0
  1  5  2  0  0  0  0
  2  6  2  0  0  0  0
  3  8  2  0  0  0  0
  3 16  1  0  0  0  0
  4  9  1  0  0  0  0
  4 16  2  0  0  0  0
  5 18  1  0  0  0  0
  6 20  1  0  0  0  0
  7 10  2  0  0  0  0
  7 19  1  0  0  0  0
  8 22  1  0  0  0  0
  9 22  2  0  0  0  0
 10 23  1  0  0  0  0
 11 12  2  0  0  0  0
 11 24  1  0  0  0  0
 12 25  1  0  0  0  0
 13 21  1  0  0  0  0
 13 23  2  0  0  0  0
 14 25  2  0  0  0  0
 14 26  1  0  0  0  0
 15 28  1  0  0  0  0
 15 63  2  0  0  0  0
 16 27  1  0  0  0  0
 17 27  1  0  0  0  0
 17 31  2  0  0  0  0
 17 32  1  0  0  0  0
 18 20  2  0  0  0  0
 18 37  1  0  0  0  0
 19 21  2  0  0  0  0
 19 38  1  0  0  0  0
 20 46  1  0  0  0  0
 21 39  1  0  0  0  0
 22 80  1  0  0  0  0
 23 81  1  0  0  0  0
 24 26  2  0  0  0  0
 24 80  1  0  0  0  0
 25 82  1  0  0  0  0
 26 83  1  0  0  0  0
 27 64  2  0  0  0  0
 28 55  1  0  0  0  0
 28 65  2  0  0  0  0
 29 30  2  0  0  0  0
 29 49  1  0  0  0  0
 29 65  1  0  0  0  0
 30 56  1  0  0  0  0
 30 63  1  0  0  0  0
 31 66  1  0  0  0  0
 31 69  1  0  0  0  0
 32 70  1  0  0  0  0
 32 75  2  0  0  0  0
 33 47  1  0  0  0  0
 33 71  1  0  0  0  0
 33 76  2  0  0  0  0
 34 60  1  0  0  0  0
 34 67  1  0  0  0  0
 34 77  2  0  0  0  0
 35 61  1  0  0  0  0
 35 72  1  0  0  0  0
 35 78  2  0  0  0  0
 36 68  1  0  0  0  0
 36 73  1  0  0  0  0
 36 79  2  0  0  0  0
 37 40  1  0  0  0  0
 38 47  1  0  0  0  0
 39 67  1  0  0  0  0
 40 42  1  0  0  0  0
 41 43  1  0  0  0  0
 41 44  1  0  0  0  0
 42 46  1  0  0  0  0
 43 48  1  0  0  0  0
 44 68  1  0  0  0  0
 45 48  1  0  0  0  0
 45 68  1  0  0  0  0
 46 71  1  0  0  0  0
 47 67  1  0  0  0  0
 48 66  1  0  0  0  0
 50 61  1  0  0  0  0
 51 62  1  0  0  0  0
 52 62  1  0  0  0  0
 53 62  1  0  0  0  0
 54 74  1  0  0  0  0
 55 57  1  0  0  0  0
 56 59  1  0  0  0  0
 57 58  1  0  0  0  0
 58 73  1  0  0  0  0
 59 81  1  0  0  0  0
 60 62  1  0  0  0  0
 60 72  1  0  0  0  0
 61 74  1  0  0  0  0
 64 66  1  0  0  0  0
M  CHG  1  74   1
M  ISO  4  36 100  59 101  73 100  81 101
M  END
> <Batch ID>
0038

> <Smiles>
CNC(C)C(=O)NC(C(=O)N1Cc2cc([101O:1][101CH2:1]Cc3ncc(CCC[100NH:0][100C:0](=O)N4CCCC(n5nc(-c6ccc(Oc7ccc(F)cc7F)cc6)c(C(N)=O)c5N)C4)nc3C)ccc2CC1C(=O)NC1CCCc2ccccc21)C(C)(C)C

> <Shape>
0.283

> <Color>
0.183

> <Negative vol penalty>
0.000

$$$$

  -OEChem-04052317013D

 84 92  0     1  0  0  0  0  0999 V2000
  -27.0031  -37.8268   21.2926 C   0  0  0  0  0  0  0  0  0  0  0  0
  -27.6359  -36.6757   20.8345 C   0  0  0  0  0  0  0  0  0  0  0  0
  -22.7758  -10.6769   19.9746 C   0  0  0  0  0  0  0  0  0  0  0  0
  -23.8779   -9.7402   21.9099 C   0  0  0  0  0  0  0  0  0  0  0  0
  -25.9951  -37.7323   22.2513 C   0  0  0  0  0  0  0  0  0  0  0  0
  -27.2620  -35.4293   21.3358 C   0  0  0  0  0  0  0  0  0  0  0  0
  -26.6552  -28.5705   19.3598 C   0  0  0  0  0  0  0  0  0  0  0  0
  -21.8818   -9.6062   19.9655 C   0  0  0  0  0  0  0  0  0  0  0  0
  -22.9839   -8.6696   21.9008 C   0  0  0  0  0  0  0  0  0  0  0  0
  -27.0490  -27.2949   19.7619 C   0  0  0  0  0  0  0  0  0  0  0  0
  -19.8012   -8.0759   22.8695 C   0  0  0  0  0  0  0  0  0  0  0  0
  -19.2452   -7.6875   24.0883 C   0  0  0  0  0  0  0  0  0  0  0  0
  -25.2404  -27.2462   21.3574 C   0  0  0  0  0  0  0  0  0  0  0  0
  -28.8714  -21.9890   22.7693 C   0  0  0  0  0  0  0  0  0  0  0  0
  -20.2101   -5.4879   23.8274 C   0  0  0  0  0  0  0  0  0  0  0  0
  -27.9518  -21.1750   20.7326 C   0  0  0  0  0  0  0  0  0  0  0  0
  -23.7739  -10.7439   20.9468 C   0  0  0  0  0  0  0  0  0  0  0  0
  -24.5506  -13.0747   21.6336 C   0  0  0  0  0  0  0  0  0  0  0  0
  -25.6020  -36.4833   22.7575 C   0  0  0  0  0  0  0  0  0  0  0  0
  -25.5559  -29.1990   19.9621 C   0  0  0  0  0  0  0  0  0  0  0  0
  -26.2488  -35.3181   22.3031 C   0  0  0  0  0  0  0  0  0  0  0  0
  -24.8332  -28.5287   20.9594 C   0  0  0  0  0  0  0  0  0  0  0  0
  -28.5097  -20.9085   21.9726 C   0  0  0  0  0  0  0  0  0  0  0  0
  -28.6671  -23.2848   22.3083 C   0  0  0  0  0  0  0  0  0  0  0  0
  -21.9858   -8.6026   20.9285 C   0  0  0  0  0  0  0  0  0  0  0  0
  -26.3433  -26.6337   20.7628 C   0  0  0  0  0  0  0  0  0  0  0  0
  -20.5616   -7.1704   22.1296 C   0  0  0  0  0  0  0  0  0  0  0  0
  -19.4496   -6.3935   24.5673 C   0  0  0  0  0  0  0  0  0  0  0  0
  -20.7660   -5.8764   22.6086 C   0  0  0  0  0  0  0  0  0  0  0  0
  -24.6980  -11.8493   20.9564 C   0  0  0  0  0  0  0  0  0  0  0  0
  -28.1024  -23.4450   21.0532 C   0  0  0  0  0  0  0  0  0  0  0  0
  -25.6903  -13.7766   21.3254 C   0  0  0  0  0  0  0  0  0  0  0  0
  -23.4794  -13.5370   22.4669 C   0  0  0  0  0  0  0  0  0  0  0  0
  -25.1443  -31.8499   21.6670 C   0  0  0  0  0  0  0  0  0  0  0  0
  -22.0073  -31.0678   21.4019 C   0  0  0  0  0  0  0  0  0  0  0  0
  -19.6580  -28.6430   20.9040 C   0  0  0  0  0  0  0  0  0  0  0  0
  -31.2272  -14.0226   20.6715 C   0  0  0  0  0  0  0  0  0  0  0  0
  -24.5401  -36.4353   23.8274 C   0  0  0  0  0  0  0  0  0  0  0  0
  -25.1277  -30.5643   19.4985 C   0  0  0  0  0  0  0  0  0  0  0  0
  -23.6333  -29.1515   21.6235 C   0  0  0  0  0  0  0  0  0  0  0  0
  -23.9446  -35.0448   24.0326 C   0  0  0  0  0  0  0  0  0  0  0  0
  -29.3068  -12.8482   17.9129 C   0  0  0  0  0  0  0  0  0  0  0  0
  -25.0502  -33.9966   24.1094 C   0  0  0  0  0  0  0  0  0  0  0  0
  -27.9270  -12.5790   18.5159 C   0  0  0  0  0  0  0  0  0  0  0  0
  -30.4275  -12.4988   18.8896 C   0  0  0  0  0  0  0  0  0  0  0  0
  -28.9369  -12.8693   20.8169 C   0  0  0  0  0  0  0  0  0  0  0  0
  -25.8540  -33.9459   22.8045 C   0  0  1  0  0  0  0  0  0  0  0  0
  -24.3057  -31.3182   20.5393 C   0  0  1  0  0  0  0  0  0  0  0  0
  -27.7731  -13.2591   19.8896 C   0  0  2  0  0  0  0  0  0  0  0  0
  -29.0507  -24.4470   23.1576 C   0  0  0  0  0  0  0  0  0  0  0  0
  -17.1750  -28.3019   20.7792 C   0  0  0  0  0  0  0  0  0  0  0  0
  -21.8296  -31.2672   24.4414 C   0  0  0  0  0  0  0  0  0  0  0  0
  -19.6613  -30.0208   24.3268 C   0  0  0  0  0  0  0  0  0  0  0  0
  -19.8804  -32.2437   23.2162 C   0  0  0  0  0  0  0  0  0  0  0  0
  -19.8132  -27.6864   18.1076 C   0  0  0  0  0  0  0  0  0  0  0  0
  -28.7158  -19.5104   22.4361 C   0  0  0  0  0  0  0  0  0  0  0  0
  -27.8593  -24.8198   20.5036 C   0  0  0  0  0  0  0  0  0  1  0  0
  -30.0935  -18.9575   22.0348 C   0  0  0  0  0  0  0  0  0  0  0  0
  -30.2789  -17.5057   22.4813 C   0  0  0  0  0  0  0  0  0  0  0  0
  -31.6696  -16.9835   22.1089 C   0  0  0  0  0  0  0  0  0  0  0  0
  -31.8825  -15.5328   22.5286 C   0  0  0  0  0  0  0  0  0  0  0  0
  -21.0410  -30.2357   22.2099 C   0  0  1  0  0  0  0  0  0  0  0  0
  -18.4450  -28.5877   19.9930 C   0  0  2  0  0  0  0  0  0  0  0  0
  -20.6268  -30.9306   23.5376 C   0  0  0  0  0  0  0  0  0  0  0  0
  -27.7381  -22.4198   20.2506 N   0  0  0  0  0  0  0  0  0  0  0  0
  -25.8411  -11.7740   20.2696 N   0  0  0  0  0  0  0  0  0  0  0  0
  -26.4223  -12.9609   20.5136 N   0  0  0  0  0  0  0  0  0  0  0  0
  -23.2578  -30.4904   21.1399 N   0  0  0  0  0  0  0  0  0  0  0  0
  -30.2230  -13.1770   20.1718 N   0  0  0  0  0  0  0  0  0  0  0  0
  -26.1276  -15.0057   21.6722 N   0  0  0  0  0  0  0  0  0  0  0  0
  -22.3841  -12.6887   22.6791 N   0  0  0  0  0  0  0  0  0  0  0  0
  -25.1196  -33.2264   21.7860 N   0  0  0  0  0  0  0  0  0  0  0  0
  -19.9245  -29.9297   21.3220 N   0  0  0  0  0  0  0  0  0  0  0  0
  -30.9502  -14.6310   21.8896 N   0  0  0  0  0  0  0  0  0  0  0  0
  -18.6146  -27.5182   18.9691 N   0  3  0  0  0  0  0  0  0  0  0  0
  -23.4855  -14.6753   22.9940 O   0  0  0  0  0  0  0  0  0  0  0  0
  -25.7664  -31.0691   22.3776 O   0  0  0  0  0  0  0  0  0  0  0  0
  -21.6627  -32.1860   21.0115 O   0  0  0  0  0  0  0  0  0  0  0  0
  -20.3023  -27.6442   21.2167 O   0  0  0  0  0  0  0  0  0  0  0  0
  -32.2895  -14.2249   20.0735 O   0  0  0  0  0  0  0  0  0  0  0  0
  -21.1135   -7.5578   20.9201 O   0  0  0  0  0  0  0  0  0  0  0  0
  -26.7258  -25.3889   21.1576 O   0  0  0  0  0  0  0  0  0  1  0  0
  -18.9169   -6.0211   25.7385 F   0  0  0  0  0  0  0  0  0  0  0  0
  -21.4966   -5.0024   21.9028 F   0  0  0  0  0  0  0  0  0  0  0  0
  1  2  1  0  0  0  0
  1  5  2  0  0  0  0
  2  6  2  0  0  0  0
  3  8  2  0  0  0  0
  3 17  1  0  0  0  0
  4  9  1  0  0  0  0
  4 17  2  0  0  0  0
  5 19  1  0  0  0  0
  6 21  1  0  0  0  0
  7 10  2  0  0  0  0
  7 20  1  0  0  0  0
  8 25  1  0  0  0  0
  9 25  2  0  0  0  0
 10 26  1  0  0  0  0
 11 12  2  0  0  0  0
 11 27  1  0  0  0  0
 12 28  1  0  0  0  0
 13 22  1  0  0  0  0
 13 26  2  0  0  0  0
 14 23  2  0  0  0  0
 14 24  1  0  0  0  0
 15 28  2  0  0  0  0
 15 29  1  0  0  0  0
 16 23  1  0  0  0  0
 16 65  2  0  0  0  0
 17 30  1  0  0  0  0
 18 30  1  0  0  0  0
 18 32  2  0  0  0  0
 18 33  1  0  0  0  0
 19 21  2  0  0  0  0
 19 38  1  0  0  0  0
 20 22  2  0  0  0  0
 20 39  1  0  0  0  0
 21 47  1  0  0  0  0
 22 40  1  0  0  0  0
 23 56  1  0  0  0  0
 24 31  2  0  0  0  0
 24 50  1  0  0  0  0
 25 81  1  0  0  0  0
 26 82  1  0  0  0  0
 27 29  2  0  0  0  0
 27 81  1  0  0  0  0
 28 83  1  0  0  0  0
 29 84  1  0  0  0  0
 30 66  2  0  0  0  0
 31 57  1  0  0  0  0
 31 65  1  0  0  0  0
 32 67  1  0  0  0  0
 32 70  1  0  0  0  0
 33 71  1  0  0  0  0
 33 76  2  0  0  0  0
 34 48  1  0  0  0  0
 34 72  1  0  0  0  0
 34 77  2  0  0  0  0
 35 62  1  0  0  0  0
 35 68  1  0  0  0  0
 35 78  2  0  0  0  0
 36 63  1  0  0  0  0
 36 73  1  0  0  0  0
 36 79  2  0  0  0  0
 37 69  1  0  0  0  0
 37 74  1  0  0  0  0
 37 80  2  0  0  0  0
 38 41  1  0  0  0  0
 39 48  1  0  0  0  0
 40 68  1  0  0  0  0
 41 43  1  0  0  0  0
 42 44  1  0  0  0  0
 42 45  1  0  0  0  0
 43 47  1  0  0  0  0
 44 49  1  0  0  0  0
 45 69  1  0  0  0  0
 46 49  1  0  0  0  0
 46 69  1  0  0  0  0
 47 72  1  0  0  0  0
 48 68  1  0  0  0  0
 49 67  1  0  0  0  0
 51 63  1  0  0  0  0
 52 64  1  0  0  0  0
 53 64  1  0  0  0  0
 54 64  1  0  0  0  0
 55 75  1  0  0  0  0
 56 58  1  0  0  0  0
 57 82  1  0  0  0  0
 58 59  1  0  0  0  0
 59 60  1  0  0  0  0
 60 61  1  0  0  0  0
 61 74  1  0  0  0  0
 62 64  1  0  0  0  0
 62 73  1  0  0  0  0
 63 75  1  0  0  0  0
 66 67  1  0  0  0  0
M  CHG  1  75   1
M  ISO  4  37 100  57 101  74 100  82 101
M  END
> <Batch ID>
0038

> <Smiles>
CNC(C)C(=O)NC(C(=O)N1Cc2cc([101O:1][101CH2:1]c3ncc(CCCCC[100NH:0][100C:0](=O)N4CCCC(n5nc(-c6ccc(Oc7ccc(F)cc7F)cc6)c(C(N)=O)c5N)C4)cc3C)ccc2CC1C(=O)NC1CCCc2ccccc21)C(C)(C)C

> <Shape>
0.338

> <Color>
0.140

> <Negative vol penalty>
0.000

$$$$

  -OEChem-04052317013D

 82 90  0     1  0  0  0  0  0999 V2000
  -30.3163  -24.3339   15.9172 C   0  0  0  0  0  0  0  0  0  0  0  0
  -28.9904  -24.6976   16.1294 C   0  0  0  0  0  0  0  0  0  0  0  0
  -27.2940  -14.9749   21.8127 C   0  0  0  0  0  0  0  0  0  0  0  0
  -26.2263  -15.3009   19.6701 C   0  0  0  0  0  0  0  0  0  0  0  0
  -31.1887  -24.2208   16.9989 C   0  0  0  0  0  0  0  0  0  0  0  0
  -28.5358  -24.9475   17.4237 C   0  0  0  0  0  0  0  0  0  0  0  0
  -25.6888  -29.1257   17.7100 C   0  0  0  0  0  0  0  0  0  0  0  0
  -26.8936  -13.6387   21.8090 C   0  0  0  0  0  0  0  0  0  0  0  0
  -25.8259  -13.9647   19.6664 C   0  0  0  0  0  0  0  0  0  0  0  0
  -24.3685  -29.0278   17.2729 C   0  0  0  0  0  0  0  0  0  0  0  0
  -23.4034  -12.0859   21.0919 C   0  0  0  0  0  0  0  0  0  0  0  0
  -22.0886  -11.8043   20.7209 C   0  0  0  0  0  0  0  0  0  0  0  0
  -23.6331  -28.8165   19.5606 C   0  0  0  0  0  0  0  0  0  0  0  0
  -22.8953  -10.4511   18.8892 C   0  0  0  0  0  0  0  0  0  0  0  0
  -20.8664  -24.1870   16.5635 C   0  0  0  0  0  0  0  0  0  0  0  0
  -26.9603  -15.8060   20.7433 C   0  0  0  0  0  0  0  0  0  0  0  0
  -28.5705  -17.7170   20.2306 C   0  0  0  0  0  0  0  0  0  0  0  0
  -30.7469  -24.4788   18.3062 C   0  0  0  0  0  0  0  0  0  0  0  0
  -25.9927  -29.0588   19.0773 C   0  0  0  0  0  0  0  0  0  0  0  0
  -29.4027  -24.8365   18.5241 C   0  0  0  0  0  0  0  0  0  0  0  0
  -24.9578  -28.9164   20.0127 C   0  0  0  0  0  0  0  0  0  0  0  0
  -26.1596  -13.1336   20.7358 C   0  0  0  0  0  0  0  0  0  0  0  0
  -23.3407  -28.8702   18.1981 C   0  0  0  0  0  0  0  0  0  0  0  0
  -24.4642  -11.5500   20.3616 C   0  0  0  0  0  0  0  0  0  0  0  0
  -21.8346  -10.9869   19.6195 C   0  0  0  0  0  0  0  0  0  0  0  0
  -24.2101  -10.7326   19.2602 C   0  0  0  0  0  0  0  0  0  0  0  0
  -27.3731  -17.1864   20.7469 C   0  0  0  0  0  0  0  0  0  0  0  0
  -21.7888  -23.1698   16.4262 C   0  0  0  0  0  0  0  0  0  0  0  0
  -21.2695  -25.2586   17.3339 C   0  0  0  0  0  0  0  0  0  0  0  0
  -28.4836  -19.0652   20.4782 C   0  0  0  0  0  0  0  0  0  0  0  0
  -23.2878  -24.2866   17.7196 C   0  0  0  0  0  0  0  0  0  0  0  0
  -29.6637  -17.0507   19.5850 C   0  0  0  0  0  0  0  0  0  0  0  0
  -27.6991  -27.0937   20.9023 C   0  0  0  0  0  0  0  0  0  0  0  0
  -27.0356  -29.2822   23.2028 C   0  0  0  0  0  0  0  0  0  0  0  0
  -24.9861  -31.7651   24.3350 C   0  0  0  0  0  0  0  0  0  0  0  0
  -24.5818  -23.3393   20.6276 C   0  0  0  0  0  0  0  0  0  0  0  0
  -31.7148  -24.2976   19.4485 C   0  0  0  0  0  0  0  0  0  0  0  0
  -27.4194  -29.1929   19.5343 C   0  0  0  0  0  0  0  0  0  0  0  0
  -25.2292  -28.8593   21.4930 C   0  0  0  0  0  0  0  0  0  0  0  0
  -31.2485  -24.9442   20.7504 C   0  0  0  0  0  0  0  0  0  0  0  0
  -25.8765  -21.8729   23.6025 C   0  0  0  0  0  0  0  0  0  0  0  0
  -29.7871  -24.6022   21.0227 C   0  0  0  0  0  0  0  0  0  0  0  0
  -26.5057  -20.5643   23.1214 C   0  0  0  0  0  0  0  0  0  0  0  0
  -24.6019  -22.2041   22.8293 C   0  0  0  0  0  0  0  0  0  0  0  0
  -25.3836  -20.9125   20.8813 C   0  0  0  0  0  0  0  0  0  0  0  0
  -28.8782  -25.1398   19.9108 C   0  0  1  0  0  0  0  0  0  0  0  0
  -27.6626  -28.5957   20.9170 C   0  0  1  0  0  0  0  0  0  0  0  0
  -26.7020  -20.5650   21.5935 C   0  0  2  0  0  0  0  0  0  0  0  0
  -21.4433  -21.9692   15.6106 C   0  0  0  0  0  0  0  0  0  0  0  0
  -24.6792  -33.3394   26.2650 C   0  0  0  0  0  0  0  0  0  0  0  0
  -25.9634  -26.9860   24.9022 C   0  0  0  0  0  0  0  0  0  0  0  0
  -24.8335  -28.6821   26.3564 C   0  0  0  0  0  0  0  0  0  0  0  0
  -27.3202  -28.6692   26.1595 C   0  0  0  0  0  0  0  0  0  0  0  0
  -25.2678  -34.1405   22.5924 C   0  0  0  0  0  0  0  0  0  0  0  0
  -20.3304  -26.4200   17.5403 C   0  0  0  0  0  0  0  0  0  0  0  0
  -24.6338  -24.3441   18.3590 C   0  0  0  0  0  0  0  0  0  0  0  0
  -20.4665  -27.5176   16.4828 C   0  0  0  0  0  0  0  0  0  0  0  0
  -21.8319  -28.1952   16.4882 C   0  0  0  0  0  0  0  0  0  1  0  0
  -25.9265  -29.4728   24.2091 C   0  0  1  0  0  0  0  0  0  0  0  0
  -25.2874  -33.1478   24.8843 C   0  0  2  0  0  0  0  0  0  0  0  0
  -26.0056  -28.4517   25.3788 C   0  0  0  0  0  0  0  0  0  0  0  0
  -26.5834  -18.1213   21.2821 N   0  0  0  0  0  0  0  0  0  0  0  0
  -23.0132  -23.1868   16.9925 N   0  0  0  0  0  0  0  0  0  0  0  0
  -22.4775  -25.3416   17.9291 N   0  0  0  0  0  0  0  0  0  0  0  0
  -27.2862  -19.2529   21.1036 N   0  0  0  0  0  0  0  0  0  0  0  0
  -26.6411  -28.9885   21.8899 N   0  0  0  0  0  0  0  0  0  0  0  0
  -24.8566  -22.1898   21.3867 N   0  0  0  0  0  0  0  0  0  0  0  0
  -29.3154  -20.0965   20.2198 N   0  0  0  0  0  0  0  0  0  0  0  0
  -29.5907  -15.6619   19.4109 N   0  0  0  0  0  0  0  0  0  0  0  0
  -28.6686  -26.5626   20.0731 N   0  0  0  0  0  0  0  0  0  0  0  0
  -25.9917  -30.8685   24.6289 N   0  0  0  0  0  0  0  0  0  0  0  0
  -24.8578  -23.2432   19.2692 N   0  0  0  0  0  0  0  0  0  0  0  0
  -24.7373  -34.1960   23.9789 N   0  3  0  0  0  0  0  0  0  0  0  0
  -30.6825  -17.6663   19.1894 O   0  0  0  0  0  0  0  0  0  0  0  0
  -26.9073  -26.4633   21.5932 O   0  0  0  0  0  0  0  0  0  0  0  0
  -28.2087  -29.3969   23.5668 O   0  0  0  0  0  0  0  0  0  0  0  0
  -23.9596  -31.5053   23.7111 O   0  0  0  0  0  0  0  0  0  0  0  0
  -24.1293  -24.3762   21.1245 O   0  0  0  0  0  0  0  0  0  0  0  0
  -25.7689  -11.8298   20.7317 O   0  0  0  0  0  0  0  0  0  0  0  0
  -22.0512  -28.7737   17.7741 O   0  0  0  0  0  0  0  0  0  1  0  0
  -20.5719  -10.7154   19.2642 F   0  0  0  0  0  0  0  0  0  0  0  0
  -25.2251  -10.2140   18.5555 F   0  0  0  0  0  0  0  0  0  0  0  0
  1  2  1  0  0  0  0
  1  5  2  0  0  0  0
  2  6  2  0  0  0  0
  3  8  2  0  0  0  0
  3 16  1  0  0  0  0
  4  9  1  0  0  0  0
  4 16  2  0  0  0  0
  5 18  1  0  0  0  0
  6 20  1  0  0  0  0
  7 10  2  0  0  0  0
  7 19  1  0  0  0  0
  8 22  1  0  0  0  0
  9 22  2  0  0  0  0
 10 23  1  0  0  0  0
 11 12  2  0  0  0  0
 11 24  1  0  0  0  0
 12 25  1  0  0  0  0
 13 21  1  0  0  0  0
 13 23  2  0  0  0  0
 14 25  2  0  0  0  0
 14 26  1  0  0  0  0
 15 28  2  0  0  0  0
 15 29  1  0  0  0  0
 16 27  1  0  0  0  0
 17 27  1  0  0  0  0
 17 30  2  0  0  0  0
 17 32  1  0  0  0  0
 18 20  2  0  0  0  0
 18 37  1  0  0  0  0
 19 21  2  0  0  0  0
 19 38  1  0  0  0  0
 20 46  1  0  0  0  0
 21 39  1  0  0  0  0
 22 79  1  0  0  0  0
 23 80  1  0  0  0  0
 24 26  2  0  0  0  0
 24 79  1  0  0  0  0
 25 81  1  0  0  0  0
 26 82  1  0  0  0  0
 27 62  2  0  0  0  0
 28 49  1  0  0  0  0
 28 63  1  0  0  0  0
 29 55  1  0  0  0  0
 29 64  2  0  0  0  0
 30 65  1  0  0  0  0
 30 68  1  0  0  0  0
 31 56  1  0  0  0  0
 31 63  2  0  0  0  0
 31 64  1  0  0  0  0
 32 69  1  0  0  0  0
 32 74  2  0  0  0  0
 33 47  1  0  0  0  0
 33 70  1  0  0  0  0
 33 75  2  0  0  0  0
 34 59  1  0  0  0  0
 34 66  1  0  0  0  0
 34 76  2  0  0  0  0
 35 60  1  0  0  0  0
 35 71  1  0  0  0  0
 35 77  2  0  0  0  0
 36 67  1  0  0  0  0
 36 72  1  0  0  0  0
 36 78  2  0  0  0  0
 37 40  1  0  0  0  0
 38 47  1  0  0  0  0
 39 66  1  0  0  0  0
 40 42  1  0  0  0  0
 41 43  1  0  0  0  0
 41 44  1  0  0  0  0
 42 46  1  0  0  0  0
 43 48  1  0  0  0  0
 44 67  1  0  0  0  0
 45 48  1  0  0  0  0
 45 67  1  0  0  0  0
 46 70  1  0  0  0  0
 47 66  1  0  0  0  0
 48 65  1  0  0  0  0
 50 60  1  0  0  0  0
 51 61  1  0  0  0  0
 52 61  1  0  0  0  0
 53 61  1  0  0  0  0
 54 73  1  0  0  0  0
 55 57  1  0  0  0  0
 56 72  1  0  0  0  0
 57 58  1  0  0  0  0
 58 80  1  0  0  0  0
 59 61  1  0  0  0  0
 59 71  1  0  0  0  0
 60 73  1  0  0  0  0
 62 65  1  0  0  0  0
M  CHG  1  73   1
M  ISO  4  36 100  58 101  72 100  80 101
M  END
> <Batch ID>
0038

> <Smiles>
CNC(C)C(=O)NC(C(=O)N1Cc2cc([101O:1][101CH2:1]CCc3cc(C)nc(C[100NH:0][100C:0](=O)N4CCCC(n5nc(-c6ccc(Oc7ccc(F)cc7F)cc6)c(C(N)=O)c5N)C4)n3)ccc2CC1C(=O)NC1CCCc2ccccc21)C(C)(C)C

> <Shape>
0.214

> <Color>
0.073

> <Negative vol penalty>
0.000

$$$$

  -OEChem-04052317013D

 90 98  0     1  0  0  0  0  0999 V2000
  -14.9617   -7.4486   15.9706 C   0  0  0  0  0  0  0  0  0  0  0  0
  -15.3236   -8.7684   16.2205 C   0  0  0  0  0  0  0  0  0  0  0  0
  -23.0741   -9.8688   19.9413 C   0  0  0  0  0  0  0  0  0  0  0  0
  -23.8384   -9.8735   22.2332 C   0  0  0  0  0  0  0  0  0  0  0  0
  -15.9203   -6.4386   16.0418 C   0  0  0  0  0  0  0  0  0  0  0  0
  -16.6442   -9.0789   16.5429 C   0  0  0  0  0  0  0  0  0  0  0  0
  -19.7149  -14.1492   15.0038 C   0  0  0  0  0  0  0  0  0  0  0  0
  -22.3315   -8.7149   20.1912 C   0  0  0  0  0  0  0  0  0  0  0  0
  -23.0958   -8.7195   22.4832 C   0  0  0  0  0  0  0  0  0  0  0  0
  -19.9940  -15.3245   15.6999 C   0  0  0  0  0  0  0  0  0  0  0  0
  -19.8693   -7.9187   23.0909 C   0  0  0  0  0  0  0  0  0  0  0  0
  -19.1147   -7.8768   24.2632 C   0  0  0  0  0  0  0  0  0  0  0  0
  -22.1445  -14.4326   16.3315 C   0  0  0  0  0  0  0  0  0  0  0  0
  -20.3588   -5.9393   24.9949 C   0  0  0  0  0  0  0  0  0  0  0  0
  -25.1748  -16.9446   16.7633 C   0  0  0  0  0  0  0  0  0  0  0  0
  -23.8276  -10.4481   20.9623 C   0  0  0  0  0  0  0  0  0  0  0  0
  -24.1674  -12.9737   20.8447 C   0  0  0  0  0  0  0  0  0  0  0  0
  -17.2553   -6.7382   16.3558 C   0  0  0  0  0  0  0  0  0  0  0  0
  -20.6456  -13.1007   14.9753 C   0  0  0  0  0  0  0  0  0  0  0  0
  -17.6213   -8.0719   16.6197 C   0  0  0  0  0  0  0  0  0  0  0  0
  -21.8759  -13.2461   15.6321 C   0  0  0  0  0  0  0  0  0  0  0  0
  -22.3423   -8.1402   21.4622 C   0  0  0  0  0  0  0  0  0  0  0  0
  -21.2077  -15.4652   16.3664 C   0  0  0  0  0  0  0  0  0  0  0  0
  -20.8687   -6.9709   22.8705 C   0  0  0  0  0  0  0  0  0  0  0  0
  -19.3594   -6.8871   25.2152 C   0  0  0  0  0  0  0  0  0  0  0  0
  -21.1135   -5.9812   23.8225 C   0  0  0  0  0  0  0  0  0  0  0  0
  -24.5954  -11.6399   20.7046 C   0  0  0  0  0  0  0  0  0  0  0  0
  -23.8026  -17.2578   16.7899 C   0  0  0  0  0  0  0  0  0  0  0  0
  -25.6860  -17.7262   15.7563 C   0  0  0  0  0  0  0  0  0  0  0  0
  -25.2584  -13.7244   20.4803 C   0  0  0  0  0  0  0  0  0  0  0  0
  -22.8974  -13.4881   21.2668 C   0  0  0  0  0  0  0  0  0  0  0  0
  -20.6530  -10.0804   15.9659 C   0  0  0  0  0  0  0  0  0  0  0  0
  -23.5228  -10.0007   14.4557 C   0  0  0  0  0  0  0  0  0  0  0  0
  -26.2359  -11.7168   13.2976 C   0  0  0  0  0  0  0  0  0  0  0  0
  -30.7418  -14.7470   20.6594 C   0  0  0  0  0  0  0  0  0  0  0  0
  -18.2463   -5.6067   16.4673 C   0  0  0  0  0  0  0  0  0  0  0  0
  -20.3405  -11.8500   14.1976 C   0  0  0  0  0  0  0  0  0  0  0  0
  -22.9173  -12.1581   15.6153 C   0  0  0  0  0  0  0  0  0  0  0  0
  -19.7015   -6.0674   16.4478 C   0  0  0  0  0  0  0  0  0  0  0  0
  -29.6012  -12.3647   18.2719 C   0  0  0  0  0  0  0  0  0  0  0  0
  -19.8987   -7.2531   17.3870 C   0  0  0  0  0  0  0  0  0  0  0  0
  -28.1648  -12.0694   18.7072 C   0  0  0  0  0  0  0  0  0  0  0  0
  -30.5205  -12.5846   19.4713 C   0  0  0  0  0  0  0  0  0  0  0  0
  -28.6209  -13.3127   20.8624 C   0  0  0  0  0  0  0  0  0  0  0  0
  -19.0489   -8.4517   16.9482 C   0  0  1  0  0  0  0  0  0  0  0  0
  -21.1495  -10.6437   14.6644 C   0  0  1  0  0  0  0  0  0  0  0  0
  -27.6446  -13.1389   19.6864 C   0  0  2  0  0  0  0  0  0  0  0  0
  -23.6695  -19.2642   10.4403 C   0  0  0  0  0  0  0  0  0  0  0  0
  -22.5788  -17.5139   18.9761 C   0  0  0  0  0  0  0  0  0  0  0  0
  -28.4368  -11.3746   12.1417 C   0  0  0  0  0  0  0  0  0  0  0  0
  -24.7201   -8.9410   17.0544 C   0  0  0  0  0  0  0  0  0  0  0  0
  -26.9876   -9.5176   16.1633 C   0  0  0  0  0  0  0  0  0  0  0  0
  -25.5769   -7.8326   14.9828 C   0  0  0  0  0  0  0  0  0  0  0  0
  -25.4249  -13.4017   11.0037 C   0  0  0  0  0  0  0  0  0  0  0  0
  -27.0587  -17.8584   15.2348 C   0  0  0  0  0  0  0  0  0  0  0  0
  -24.1687  -19.8470   11.7528 C   0  0  0  0  0  0  0  0  0  0  0  0
  -27.9190  -18.9416   15.9272 C   0  0  0  0  0  0  0  0  0  0  0  0
  -28.1136  -18.6710   17.4231 C   0  0  0  0  0  0  0  0  0  0  0  0
  -28.9940  -19.7439   18.0688 C   0  0  0  0  0  0  0  0  0  0  0  0
  -29.1644  -19.5627   19.5801 C   0  0  0  0  0  0  0  0  0  0  0  0
  -29.8747  -18.2610   19.9613 C   0  0  0  0  0  0  0  0  0  0  0  0
  -24.1183  -18.8153   12.8786 C   0  0  0  0  0  0  0  0  0  0  0  0
  -30.0445  -18.1488   21.4803 C   0  0  0  0  0  0  0  0  0  0  0  0
  -24.6589  -19.3961   14.1843 C   0  0  0  0  0  0  0  0  0  0  0  0
  -30.8085  -16.8961   21.8989 C   0  0  0  0  0  0  0  0  0  0  0  0
  -22.7452  -16.6875   17.7072 C   0  0  1  0  0  0  0  0  0  1  0  0
  -24.9508  -10.2789   14.8583 C   0  0  1  0  0  0  0  0  0  0  0  0
  -26.9575  -11.6782   11.9626 C   0  0  2  0  0  0  0  0  0  0  0  0
  -25.5387   -9.1624   15.7668 C   0  0  0  0  0  0  0  0  0  0  0  0
  -25.8595  -11.5454   20.2837 N   0  0  0  0  0  0  0  0  0  0  0  0
  -23.4635  -18.1676   15.8726 N   0  0  0  0  0  0  0  0  0  0  0  0
  -24.6301  -18.4328   15.2604 N   0  0  0  0  0  0  0  0  0  0  0  0
  -26.2352  -12.8294   20.1563 N   0  0  0  0  0  0  0  0  0  0  0  0
  -22.5694  -10.9517   14.8464 N   0  0  0  0  0  0  0  0  0  0  0  0
  -29.9710  -13.6117   20.3596 N   0  0  0  0  0  0  0  0  0  0  0  0
  -25.4677  -15.0561   20.4086 N   0  0  0  0  0  0  0  0  0  0  0  0
  -21.8868  -12.5778   21.6048 N   0  0  0  0  0  0  0  0  0  0  0  0
  -19.6654   -9.1242   15.8248 N   0  0  0  0  0  0  0  0  0  0  0  0
  -25.6903  -10.4918   13.6189 N   0  0  0  0  0  0  0  0  0  0  0  0
  -30.1436  -15.6743   21.5038 N   0  0  0  0  0  0  0  0  0  0  0  0
  -26.8278  -12.9891   11.2657 N   0  3  0  0  0  0  0  0  0  0  0  0
  -22.6604  -14.7185   21.3261 O   0  0  0  0  0  0  0  0  0  0  0  0
  -21.1317  -10.4823   17.0199 O   0  0  0  0  0  0  0  0  0  0  0  0
  -23.2637   -8.9809   13.8118 O   0  0  0  0  0  0  0  0  0  0  0  0
  -26.1665  -12.7310   13.9883 O   0  0  0  0  0  0  0  0  0  0  0  0
  -31.8767  -14.9238   20.2038 O   0  0  0  0  0  0  0  0  0  0  0  0
  -21.6176   -7.0143   21.7065 O   0  0  0  0  0  0  0  0  0  0  0  0
  -21.4824  -16.6110   17.0471 O   0  0  0  0  0  0  0  0  0  1  0  0
  -18.6357   -6.8479   26.3416 F   0  0  0  0  0  0  0  0  0  0  0  0
  -22.0730   -5.0686   23.6169 F   0  0  0  0  0  0  0  0  0  0  0  0
  1  2  1  0  0  0  0
  1  5  2  0  0  0  0
  2  6  2  0  0  0  0
  3  8  2  0  0  0  0
  3 16  1  0  0  0  0
  4  9  1  0  0  0  0
  4 16  2  0  0  0  0
  5 18  1  0  0  0  0
  6 20  1  0  0  0  0
  7 10  2  0  0  0  0
  7 19  1  0  0  0  0
  8 22  1  0  0  0  0
  9 22  2  0  0  0  0
 10 23  1  0  0  0  0
 11 12  2  0  0  0  0
 11 24  1  0  0  0  0
 12 25  1  0  0  0  0
 13 21  1  0  0  0  0
 13 23  2  0  0  0  0
 14 25  2  0  0  0  0
 14 26  1  0  0  0  0
 15 28  1  0  0  0  0
 15 29  2  0  0  0  0
 16 27  1  0  0  0  0
 17 27  1  0  0  0  0
 17 30  2  0  0  0  0
 17 31  1  0  0  0  0
 18 20  2  0  0  0  0
 18 36  1  0  0  0  0
 19 21  2  0  0  0  0
 19 37  1  0  0  0  0
 20 45  1  0  0  0  0
 21 38  1  0  0  0  0
 22 87  1  0  0  0  0
 23 88  1  0  0  0  0
 24 26  2  0  0  0  0
 24 87  1  0  0  0  0
 25 89  1  0  0  0  0
 26 90  1  0  0  0  0
 27 70  2  0  0  0  0
 28 66  1  0  0  0  0
 28 71  2  0  0  0  0
 29 55  1  0  0  0  0
 29 72  1  0  0  0  0
 30 73  1  0  0  0  0
 30 76  1  0  0  0  0
 31 77  1  0  0  0  0
 31 82  2  0  0  0  0
 32 46  1  0  0  0  0
 32 78  1  0  0  0  0
 32 83  2  0  0  0  0
 33 67  1  0  0  0  0
 33 74  1  0  0  0  0
 33 84  2  0  0  0  0
 34 68  1  0  0  0  0
 34 79  1  0  0  0  0
 34 85  2  0  0  0  0
 35 75  1  0  0  0  0
 35 80  1  0  0  0  0
 35 86  2  0  0  0  0
 36 39  1  0  0  0  0
 37 46  1  0  0  0  0
 38 74  1  0  0  0  0
 39 41  1  0  0  0  0
 40 42  1  0  0  0  0
 40 43  1  0  0  0  0
 41 45  1  0  0  0  0
 42 47  1  0  0  0  0
 43 75  1  0  0  0  0
 44 47  1  0  0  0  0
 44 75  1  0  0  0  0
 45 78  1  0  0  0  0
 46 74  1  0  0  0  0
 47 73  1  0  0  0  0
 48 56  1  0  0  0  0
 49 66  1  0  0  0  0
 50 68  1  0  0  0  0
 51 69  1  0  0  0  0
 52 69  1  0  0  0  0
 53 69  1  0  0  0  0
 54 81  1  0  0  0  0
 55 57  1  0  0  0  0
 56 62  1  0  0  0  0
 57 58  1  0  0  0  0
 58 59  1  0  0  0  0
 59 60  1  0  0  0  0
 60 61  1  0  0  0  0
 61 63  1  0  0  0  0
 62 64  1  0  0  0  0
 63 65  1  0  0  0  0
 64 72  1  0  0  0  0
 65 80  1  0  0  0  0
 66 88  1  0  0  0  0
 67 69  1  0  0  0  0
 67 79  1  0  0  0  0
 68 81  1  0  0  0  0
 70 73  1  0  0  0  0
 71 72  1  0  0  0  0
M  CHG  1  81   1
M  ISO  4  35 100  66 101  80 100  88 101
M  END
> <Batch ID>
0038

> <Smiles>
CCCCn1nc([101CH:1](C)[101O:1]c2ccc3c(c2)CN(C(=O)C(NC(=O)C(C)NC)C(C)(C)C)C(C(=O)NC2CCCc4ccccc42)C3)cc1CCCCCCCC[100NH:0][100C:0](=O)N1CCCC(n2nc(-c3ccc(Oc4ccc(F)cc4F)cc3)c(C(N)=O)c2N)C1

> <Shape>
0.180

> <Color>
0.191

> <Negative vol penalty>
0.000

$$$$

  -OEChem-04052317013D

 85 93  0     1  0  0  0  0  0999 V2000
  -16.8636  -29.8117   23.3958 C   0  0  0  0  0  0  0  0  0  0  0  0
  -18.1076  -30.3960   23.1802 C   0  0  0  0  0  0  0  0  0  0  0  0
  -25.1509  -13.8378   21.6059 C   0  0  0  0  0  0  0  0  0  0  0  0
  -26.6314  -13.4098   19.7452 C   0  0  0  0  0  0  0  0  0  0  0  0
  -16.7548  -28.4259   23.5032 C   0  0  0  0  0  0  0  0  0  0  0  0
  -19.2438  -29.5947   23.0731 C   0  0  0  0  0  0  0  0  0  0  0  0
  -25.5691  -29.2964   19.7238 C   0  0  0  0  0  0  0  0  0  0  0  0
  -24.2869  -12.8436   21.1471 C   0  0  0  0  0  0  0  0  0  0  0  0
  -25.7673  -12.4156   19.2865 C   0  0  0  0  0  0  0  0  0  0  0  0
  -26.9263  -29.1323   19.9977 C   0  0  0  0  0  0  0  0  0  0  0  0
  -24.1185   -9.4671   21.2081 C   0  0  0  0  0  0  0  0  0  0  0  0
  -23.6120   -8.5658   22.1444 C   0  0  0  0  0  0  0  0  0  0  0  0
  -26.6066  -26.7445   20.1205 C   0  0  0  0  0  0  0  0  0  0  0  0
  -33.6385  -27.7657   21.3150 C   0  0  0  0  0  0  0  0  0  0  0  0
  -31.6352  -28.9593   21.9467 C   0  0  0  0  0  0  0  0  0  0  0  0
  -31.6726  -27.6522   19.9151 C   0  0  0  0  0  0  0  0  0  0  0  0
  -21.3642   -9.2667   21.6031 C   0  0  0  0  0  0  0  0  0  0  0  0
  -26.3232  -14.1210   20.9049 C   0  0  0  0  0  0  0  0  0  0  0  0
  -28.2933  -14.9932   22.2708 C   0  0  0  0  0  0  0  0  0  0  0  0
  -17.8889  -27.6066   23.3877 C   0  0  0  0  0  0  0  0  0  0  0  0
  -24.7170  -28.1847   19.6568 C   0  0  0  0  0  0  0  0  0  0  0  0
  -19.1503  -28.1967   23.1804 C   0  0  0  0  0  0  0  0  0  0  0  0
  -25.2395  -26.8969   19.8430 C   0  0  0  0  0  0  0  0  0  0  0  0
  -32.9583  -28.5992   22.2027 C   0  0  0  0  0  0  0  0  0  0  0  0
  -32.9957  -27.2922   20.1712 C   0  0  0  0  0  0  0  0  0  0  0  0
  -30.9924  -28.4858   20.8029 C   0  0  0  0  0  0  0  0  0  0  0  0
  -24.5951  -12.1325   19.9874 C   0  0  0  0  0  0  0  0  0  0  0  0
  -27.4446  -27.8565   20.1990 C   0  0  0  0  0  0  0  0  0  0  0  0
  -23.2479  -10.2683   20.4693 C   0  0  0  0  0  0  0  0  0  0  0  0
  -22.2348   -8.4656   22.3419 C   0  0  0  0  0  0  0  0  0  0  0  0
  -21.8707  -10.1681   20.6668 C   0  0  0  0  0  0  0  0  0  0  0  0
  -27.2159  -15.1483   21.3781 C   0  0  0  0  0  0  0  0  0  0  0  0
  -28.8188  -16.2559   22.3973 C   0  0  0  0  0  0  0  0  0  0  0  0
  -28.7760  -13.8133   22.9268 C   0  0  0  0  0  0  0  0  0  0  0  0
  -22.1651  -27.2132   21.2839 C   0  0  0  0  0  0  0  0  0  0  0  0
  -30.5701  -20.9097   20.0408 C   0  0  0  0  0  0  0  0  0  0  0  0
  -22.0882  -24.8923   19.0191 C   0  0  0  0  0  0  0  0  0  0  0  0
  -23.7836  -23.0499   16.7000 C   0  0  0  0  0  0  0  0  0  0  0  0
  -17.7285  -26.1166   23.5579 C   0  0  0  0  0  0  0  0  0  0  0  0
  -23.2606  -28.3765   19.3339 C   0  0  0  0  0  0  0  0  0  0  0  0
  -24.3708  -25.6693   19.7616 C   0  0  0  0  0  0  0  0  0  0  0  0
  -18.9271  -25.3140   23.0588 C   0  0  0  0  0  0  0  0  0  0  0  0
  -27.0400  -20.7387   20.8986 C   0  0  0  0  0  0  0  0  0  0  0  0
  -20.2289  -25.9302   23.5614 C   0  0  0  0  0  0  0  0  0  0  0  0
  -26.8574  -19.2416   21.1444 C   0  0  0  0  0  0  0  0  0  0  0  0
  -28.0434  -21.0055   19.7797 C   0  0  0  0  0  0  0  0  0  0  0  0
  -29.1936  -18.8638   20.2432 C   0  0  0  0  0  0  0  0  0  0  0  0
  -20.4024  -27.3595   23.0339 C   0  0  1  0  0  0  0  0  0  0  0  0
  -22.3876  -27.2146   19.7980 C   0  0  1  0  0  0  0  0  0  0  0  0
  -28.2119  -18.5526   21.3853 C   0  0  2  0  0  0  0  0  0  0  0  0
  -34.1923  -28.6610   25.8604 C   0  0  0  0  0  0  0  0  0  0  0  0
  -23.4603  -21.2031   15.0320 C   0  0  0  0  0  0  0  0  0  0  0  0
  -22.0451  -22.8533   21.2886 C   0  0  0  0  0  0  0  0  0  0  0  0
  -22.6765  -21.0921   19.6249 C   0  0  0  0  0  0  0  0  0  0  0  0
  -20.5199  -22.3215   19.3793 C   0  0  0  0  0  0  0  0  0  0  0  0
  -24.5662  -24.7954   14.4418 C   0  0  0  0  0  0  0  0  0  0  0  0
  -33.6460  -29.1049   23.4258 C   0  0  0  0  0  0  0  0  0  0  0  0
  -33.7224  -26.4005   19.2218 C   0  0  0  0  0  0  0  0  0  0  0  0
  -29.5692  -28.8734   20.5278 C   0  0  0  0  0  0  0  0  0  1  0  0
  -30.6145  -22.3923   19.7690 C   0  0  0  0  0  0  0  0  0  0  0  0
  -33.4621  -28.1612   24.6239 C   0  0  0  0  0  0  0  0  0  0  0  0
  -33.5889  -24.8982   19.5311 C   0  0  0  0  0  0  0  0  0  0  0  0
  -32.0478  -22.9132   19.8082 C   0  0  0  0  0  0  0  0  0  0  0  0
  -32.1345  -24.4156   19.5192 C   0  0  0  0  0  0  0  0  0  0  0  0
  -22.6913  -23.5156   18.8782 C   0  0  1  0  0  0  0  0  0  0  0  0
  -23.4639  -22.7073   15.2561 C   0  0  2  0  0  0  0  0  0  0  0  0
  -21.9994  -22.4687   19.7963 C   0  0  0  0  0  0  0  0  0  0  0  0
  -27.0645  -16.4100   20.9668 N   0  0  0  0  0  0  0  0  0  0  0  0
  -28.0537  -17.0593   21.6039 N   0  0  0  0  0  0  0  0  0  0  0  0
  -22.9522  -25.9092   19.4495 N   0  0  0  0  0  0  0  0  0  0  0  0
  -29.3107  -20.3096   20.0329 N   0  0  0  0  0  0  0  0  0  0  0  0
  -29.8559  -16.7463   23.1088 N   0  0  0  0  0  0  0  0  0  0  0  0
  -28.1199  -12.5986   22.6852 N   0  0  0  0  0  0  0  0  0  0  0  0
  -20.8399  -27.3396   21.6545 N   0  0  0  0  0  0  0  0  0  0  0  0
  -22.6396  -23.1907   17.4569 N   0  0  0  0  0  0  0  0  0  0  0  0
  -24.4727  -23.3160   14.3437 N   0  3  0  0  0  0  0  0  0  0  0  0
  -29.7499  -13.8384   23.7171 O   0  0  0  0  0  0  0  0  0  0  0  0
  -23.1246  -27.1041   22.0384 O   0  0  0  0  0  0  0  0  0  0  0  0
  -31.6239  -20.3054   20.2562 O   0  0  0  0  0  0  0  0  0  0  0  0
  -20.8962  -25.0607   18.7500 O   0  0  0  0  0  0  0  0  0  0  0  0
  -24.9333  -23.1760   17.1158 O   0  0  0  0  0  0  0  0  0  0  0  0
  -23.7523  -11.1621   19.5396 O   0  0  0  0  0  0  0  0  0  0  0  0
  -28.7688  -27.6935   20.4672 O   0  0  0  0  0  0  0  0  0  1  0  0
  -21.7485   -7.5989   23.2400 F   0  0  0  0  0  0  0  0  0  0  0  0
  -21.0293  -10.9343   19.9592 F   0  0  0  0  0  0  0  0  0  0  0  0
  1  2  1  0  0  0  0
  1  5  2  0  0  0  0
  2  6  2  0  0  0  0
  3  8  2  0  0  0  0
  3 18  1  0  0  0  0
  4  9  1  0  0  0  0
  4 18  2  0  0  0  0
  5 20  1  0  0  0  0
  6 22  1  0  0  0  0
  7 10  2  0  0  0  0
  7 21  1  0  0  0  0
  8 27  1  0  0  0  0
  9 27  2  0  0  0  0
 10 28  1  0  0  0  0
 11 12  2  0  0  0  0
 11 29  1  0  0  0  0
 12 30  1  0  0  0  0
 13 23  1  0  0  0  0
 13 28  2  0  0  0  0
 14 24  1  0  0  0  0
 14 25  2  0  0  0  0
 15 24  2  0  0  0  0
 15 26  1  0  0  0  0
 16 25  1  0  0  0  0
 16 26  2  0  0  0  0
 17 30  2  0  0  0  0
 17 31  1  0  0  0  0
 18 32  1  0  0  0  0
 19 32  1  0  0  0  0
 19 33  2  0  0  0  0
 19 34  1  0  0  0  0
 20 22  2  0  0  0  0
 20 39  1  0  0  0  0
 21 23  2  0  0  0  0
 21 40  1  0  0  0  0
 22 48  1  0  0  0  0
 23 41  1  0  0  0  0
 24 57  1  0  0  0  0
 25 58  1  0  0  0  0
 26 59  1  0  0  0  0
 27 82  1  0  0  0  0
 28 83  1  0  0  0  0
 29 31  2  0  0  0  0
 29 82  1  0  0  0  0
 30 84  1  0  0  0  0
 31 85  1  0  0  0  0
 32 68  2  0  0  0  0
 33 69  1  0  0  0  0
 33 72  1  0  0  0  0
 34 73  1  0  0  0  0
 34 77  2  0  0  0  0
 35 49  1  0  0  0  0
 35 74  1  0  0  0  0
 35 78  2  0  0  0  0
 36 60  1  0  0  0  0
 36 71  1  0  0  0  0
 36 79  2  0  0  0  0
 37 65  1  0  0  0  0
 37 70  1  0  0  0  0
 37 80  2  0  0  0  0
 38 66  1  0  0  0  0
 38 75  1  0  0  0  0
 38 81  2  0  0  0  0
 39 42  1  0  0  0  0
 40 49  1  0  0  0  0
 41 70  1  0  0  0  0
 42 44  1  0  0  0  0
 43 45  1  0  0  0  0
 43 46  1  0  0  0  0
 44 48  1  0  0  0  0
 45 50  1  0  0  0  0
 46 71  1  0  0  0  0
 47 50  1  0  0  0  0
 47 71  1  0  0  0  0
 48 74  1  0  0  0  0
 49 70  1  0  0  0  0
 50 69  1  0  0  0  0
 51 61  1  0  0  0  0
 52 66  1  0  0  0  0
 53 67  1  0  0  0  0
 54 67  1  0  0  0  0
 55 67  1  0  0  0  0
 56 76  1  0  0  0  0
 57 61  1  0  0  0  0
 58 62  1  0  0  0  0
 59 83  1  0  0  0  0
 60 63  1  0  0  0  0
 62 64  1  0  0  0  0
 63 64  1  0  0  0  0
 65 67  1  0  0  0  0
 65 75  1  0  0  0  0
 66 76  1  0  0  0  0
 68 69  1  0  0  0  0
M  CHG  1  76   1
M  ISO  4  36 100  59 101  60 100  83 101
M  END
> <Batch ID>
0038

> <Smiles>
CCCc1cc(CCCC[100CH2:0][100C:0](=O)N2CCCC(n3nc(-c4ccc(Oc5ccc(F)cc5F)cc4)c(C(N)=O)c3N)C2)cc([101CH2:1][101O:1]c2ccc3c(c2)CN(C(=O)C(NC(=O)C(C)NC)C(C)(C)C)C(C(=O)NC2CCCc4ccccc42)C3)c1

> <Shape>
0.242

> <Color>
0.074

> <Negative vol penalty>
0.000

$$$$

  -OEChem-04052317013D

 89 97  0     1  0  0  0  0  0999 V2000
  -22.9271  -17.7557   25.9030 C   0  0  0  0  0  0  0  0  0  0  0  0
  -23.9237  -17.3900   26.8022 C   0  0  0  0  0  0  0  0  0  0  0  0
  -23.1901   -9.8192   19.9312 C   0  0  0  0  0  0  0  0  0  0  0  0
  -23.5668   -9.9997   22.3108 C   0  0  0  0  0  0  0  0  0  0  0  0
  -21.9952  -16.8111   25.4750 C   0  0  0  0  0  0  0  0  0  0  0  0
  -23.9883  -16.0796   27.2746 C   0  0  0  0  0  0  0  0  0  0  0  0
  -28.7053  -14.2371   27.2532 C   0  0  0  0  0  0  0  0  0  0  0  0
  -22.4236   -8.6727   20.1394 C   0  0  0  0  0  0  0  0  0  0  0  0
  -22.8002   -8.8531   22.5191 C   0  0  0  0  0  0  0  0  0  0  0  0
  -29.5520  -14.6428   28.2839 C   0  0  0  0  0  0  0  0  0  0  0  0
  -21.2417   -5.7695   23.6470 C   0  0  0  0  0  0  0  0  0  0  0  0
  -21.7374   -4.8096   24.5294 C   0  0  0  0  0  0  0  0  0  0  0  0
  -29.1400  -12.5622   29.4331 C   0  0  0  0  0  0  0  0  0  0  0  0
  -33.3151  -15.0604   34.4292 C   0  0  0  0  0  0  0  0  0  0  0  0
  -31.1173  -14.3994   33.6746 C   0  0  0  0  0  0  0  0  0  0  0  0
  -23.6970   -4.5454   23.1411 C   0  0  0  0  0  0  0  0  0  0  0  0
  -23.7618  -10.4827   21.0169 C   0  0  0  0  0  0  0  0  0  0  0  0
  -24.1008  -12.9993   20.7733 C   0  0  0  0  0  0  0  0  0  0  0  0
  -22.0542  -15.4861   25.9349 C   0  0  0  0  0  0  0  0  0  0  0  0
  -28.0599  -12.9934   27.3101 C   0  0  0  0  0  0  0  0  0  0  0  0
  -23.0555  -15.1168   26.8533 C   0  0  0  0  0  0  0  0  0  0  0  0
  -28.2876  -12.1420   28.4007 C   0  0  0  0  0  0  0  0  0  0  0  0
  -31.9394  -14.9756   34.6430 C   0  0  0  0  0  0  0  0  0  0  0  0
  -33.8688  -14.5691   33.2469 C   0  0  0  0  0  0  0  0  0  0  0  0
  -31.6709  -13.9081   32.4923 C   0  0  0  0  0  0  0  0  0  0  0  0
  -33.0467  -13.9929   32.2785 C   0  0  0  0  0  0  0  0  0  0  0  0
  -22.2286   -8.1896   21.4334 C   0  0  0  0  0  0  0  0  0  0  0  0
  -29.7672  -13.8066   29.3754 C   0  0  0  0  0  0  0  0  0  0  0  0
  -21.9736   -6.1172   22.5116 C   0  0  0  0  0  0  0  0  0  0  0  0
  -22.9650   -4.1976   24.2765 C   0  0  0  0  0  0  0  0  0  0  0  0
  -23.2012   -5.5052   22.2587 C   0  0  0  0  0  0  0  0  0  0  0  0
  -24.5541  -11.6669   20.8024 C   0  0  0  0  0  0  0  0  0  0  0  0
  -25.2323  -13.7419   20.5387 C   0  0  0  0  0  0  0  0  0  0  0  0
  -22.7755  -13.5194   20.9432 C   0  0  0  0  0  0  0  0  0  0  0  0
  -25.0287  -12.0413   27.4021 C   0  0  0  0  0  0  0  0  0  0  0  0
  -26.3541   -9.0923   27.1402 C   0  0  0  0  0  0  0  0  0  0  0  0
  -29.0788   -7.0893   27.5995 C   0  0  0  0  0  0  0  0  0  0  0  0
  -31.0462  -12.7515   21.5720 C   0  0  0  0  0  0  0  0  0  0  0  0
  -20.9963  -14.5121   25.4804 C   0  0  0  0  0  0  0  0  0  0  0  0
  -27.1706  -12.5592   26.1774 C   0  0  0  0  0  0  0  0  0  0  0  0
  -27.6347  -10.7884   28.4998 C   0  0  0  0  0  0  0  0  0  0  0  0
  -21.3605  -13.0525   25.7395 C   0  0  0  0  0  0  0  0  0  0  0  0
  -29.5211  -13.4689   18.4358 C   0  0  0  0  0  0  0  0  0  0  0  0
  -21.8949  -12.8793   27.1577 C   0  0  0  0  0  0  0  0  0  0  0  0
  -28.0343  -13.2086   18.6841 C   0  0  0  0  0  0  0  0  0  0  0  0
  -30.4018  -12.4794   19.1957 C   0  0  0  0  0  0  0  0  0  0  0  0
  -28.6470  -12.1369   20.8919 C   0  0  0  0  0  0  0  0  0  0  0  0
  -23.1735  -13.6991   27.3694 C   0  0  1  0  0  0  0  0  0  0  0  0
  -26.1627  -11.4892   26.5855 C   0  0  1  0  0  0  0  0  0  0  0  0
  -27.7202  -13.1447   20.1909 C   0  0  2  0  0  0  0  0  0  0  0  0
  -31.3474  -15.5015   35.9067 C   0  0  0  0  0  0  0  0  0  0  0  0
  -35.3452  -14.6710   33.0429 C   0  0  0  0  0  0  0  0  0  0  0  0
  -30.4967   -5.0225   27.4762 C   0  0  0  0  0  0  0  0  0  0  0  0
  -24.7712   -8.2972   29.6246 C   0  0  0  0  0  0  0  0  0  0  0  0
  -26.2652   -6.3012   29.8525 C   0  0  0  0  0  0  0  0  0  0  0  0
  -24.8328   -6.5600   27.8267 C   0  0  0  0  0  0  0  0  0  0  0  0
  -30.1526   -7.8437   24.9467 C   0  0  0  0  0  0  0  0  0  0  0  0
  -33.6458  -13.4612   31.0002 C   0  0  0  0  0  0  0  0  0  0  0  0
  -30.7689  -13.2956   31.4710 C   0  0  0  0  0  0  0  0  0  1  0  0
  -34.3664  -12.1147   31.1442 C   0  0  0  0  0  0  0  0  0  0  0  0
  -35.0339  -11.5860   29.8687 C   0  0  0  0  0  0  0  0  0  0  0  0
  -34.0687  -11.4446   28.6894 C   0  0  0  0  0  0  0  0  0  0  0  0
  -34.7371  -10.9066   27.4189 C   0  0  0  0  0  0  0  0  0  0  0  0
  -33.8069  -10.6817   26.2218 C   0  0  0  0  0  0  0  0  0  0  0  0
  -33.1678  -11.9708   25.7009 C   0  0  0  0  0  0  0  0  0  0  0  0
  -32.2270  -11.7456   24.5112 C   0  0  0  0  0  0  0  0  0  0  0  0
  -31.5347  -13.0027   23.9922 C   0  0  0  0  0  0  0  0  0  0  0  0
  -26.8521   -8.0535   28.1158 C   0  0  1  0  0  0  0  0  0  0  0  0
  -29.7608   -6.0904   26.6821 C   0  0  2  0  0  0  0  0  0  0  0  0
  -25.6913   -7.3292   28.8543 C   0  0  0  0  0  0  0  0  0  0  0  0
  -25.8708  -11.5657   20.6021 N   0  0  0  0  0  0  0  0  0  0  0  0
  -26.2546  -12.8440   20.4449 N   0  0  0  0  0  0  0  0  0  0  0  0
  -26.7689  -10.4117   27.3703 N   0  0  0  0  0  0  0  0  0  0  0  0
  -30.0543  -12.4684   20.6187 N   0  0  0  0  0  0  0  0  0  0  0  0
  -25.4424  -15.0687   20.4056 N   0  0  0  0  0  0  0  0  0  0  0  0
  -21.7286  -12.6172   21.1765 N   0  0  0  0  0  0  0  0  0  0  0  0
  -24.3070  -13.0326   26.7649 N   0  0  0  0  0  0  0  0  0  0  0  0
  -27.7238   -7.1642   27.3557 N   0  0  0  0  0  0  0  0  0  0  0  0
  -30.6311  -12.7262   22.8978 N   0  0  0  0  0  0  0  0  0  0  0  0
  -30.7442   -6.7829   25.8021 N   0  3  0  0  0  0  0  0  0  0  0  0
  -22.5245  -14.7464   20.8733 O   0  0  0  0  0  0  0  0  0  0  0  0
  -24.8226  -11.5995   28.5264 O   0  0  0  0  0  0  0  0  0  0  0  0
  -25.6298   -8.7447   26.2041 O   0  0  0  0  0  0  0  0  0  0  0  0
  -29.6867   -7.7356   28.4499 O   0  0  0  0  0  0  0  0  0  0  0  0
  -32.2141  -13.0130   21.2642 O   0  0  0  0  0  0  0  0  0  0  0  0
  -21.4805   -7.0709   21.6370 O   0  0  0  0  0  0  0  0  0  0  0  0
  -30.5986  -14.2032   30.3903 O   0  0  0  0  0  0  0  0  0  1  0  0
  -23.4416   -3.2770   25.1247 F   0  0  0  0  0  0  0  0  0  0  0  0
  -23.9095   -5.8361   21.1702 F   0  0  0  0  0  0  0  0  0  0  0  0
  1  2  1  0  0  0  0
  1  5  2  0  0  0  0
  2  6  2  0  0  0  0
  3  8  2  0  0  0  0
  3 17  1  0  0  0  0
  4  9  1  0  0  0  0
  4 17  2  0  0  0  0
  5 19  1  0  0  0  0
  6 21  1  0  0  0  0
  7 10  2  0  0  0  0
  7 20  1  0  0  0  0
  8 27  1  0  0  0  0
  9 27  2  0  0  0  0
 10 28  1  0  0  0  0
 11 12  2  0  0  0  0
 11 29  1  0  0  0  0
 12 30  1  0  0  0  0
 13 22  1  0  0  0  0
 13 28  2  0  0  0  0
 14 23  1  0  0  0  0
 14 24  2  0  0  0  0
 15 23  2  0  0  0  0
 15 25  1  0  0  0  0
 16 30  2  0  0  0  0
 16 31  1  0  0  0  0
 17 32  1  0  0  0  0
 18 32  1  0  0  0  0
 18 33  2  0  0  0  0
 18 34  1  0  0  0  0
 19 21  2  0  0  0  0
 19 39  1  0  0  0  0
 20 22  2  0  0  0  0
 20 40  1  0  0  0  0
 21 48  1  0  0  0  0
 22 41  1  0  0  0  0
 23 51  1  0  0  0  0
 24 26  1  0  0  0  0
 24 52  1  0  0  0  0
 25 26  2  0  0  0  0
 25 59  1  0  0  0  0
 26 58  1  0  0  0  0
 27 86  1  0  0  0  0
 28 87  1  0  0  0  0
 29 31  2  0  0  0  0
 29 86  1  0  0  0  0
 30 88  1  0  0  0  0
 31 89  1  0  0  0  0
 32 71  2  0  0  0  0
 33 72  1  0  0  0  0
 33 75  1  0  0  0  0
 34 76  1  0  0  0  0
 34 81  2  0  0  0  0
 35 49  1  0  0  0  0
 35 77  1  0  0  0  0
 35 82  2  0  0  0  0
 36 68  1  0  0  0  0
 36 73  1  0  0  0  0
 36 83  2  0  0  0  0
 37 69  1  0  0  0  0
 37 78  1  0  0  0  0
 37 84  2  0  0  0  0
 38 74  1  0  0  0  0
 38 79  1  0  0  0  0
 38 85  2  0  0  0  0
 39 42  1  0  0  0  0
 40 49  1  0  0  0  0
 41 73  1  0  0  0  0
 42 44  1  0  0  0  0
 43 45  1  0  0  0  0
 43 46  1  0  0  0  0
 44 48  1  0  0  0  0
 45 50  1  0  0  0  0
 46 74  1  0  0  0  0
 47 50  1  0  0  0  0
 47 74  1  0  0  0  0
 48 77  1  0  0  0  0
 49 73  1  0  0  0  0
 50 72  1  0  0  0  0
 53 69  1  0  0  0  0
 54 70  1  0  0  0  0
 55 70  1  0  0  0  0
 56 70  1  0  0  0  0
 57 80  1  0  0  0  0
 58 60  1  0  0  0  0
 59 87  1  0  0  0  0
 60 61  1  0  0  0  0
 61 62  1  0  0  0  0
 62 63  1  0  0  0  0
 63 64  1  0  0  0  0
 64 65  1  0  0  0  0
 65 66  1  0  0  0  0
 66 67  1  0  0  0  0
 67 79  1  0  0  0  0
 68 70  1  0  0  0  0
 68 78  1  0  0  0  0
 69 80  1  0  0  0  0
 71 72  1  0  0  0  0
M  CHG  1  80   1
M  ISO  4  38 100  59 101  79 100  87 101
M  END
> <Batch ID>
0038

> <Smiles>
CNC(C)C(=O)NC(C(=O)N1Cc2cc([101O:1][101CH2:1]c3cc(C)cc(C)c3CCCCCCCCC[100NH:0][100C:0](=O)N3CCCC(n4nc(-c5ccc(Oc6ccc(F)cc6F)cc5)c(C(N)=O)c4N)C3)ccc2CC1C(=O)NC1CCCc2ccccc21)C(C)(C)C

> <Shape>
0.136

> <Color>
0.190

> <Negative vol penalty>
0.000

$$$$

  -OEChem-04052317013D

 82 90  0     1  0  0  0  0  0999 V2000
  -17.6103  -26.7963   22.2459 C   0  0  0  0  0  0  0  0  0  0  0  0
  -18.6692  -26.5166   21.3880 C   0  0  0  0  0  0  0  0  0  0  0  0
  -27.0605  -12.7263   21.5894 C   0  0  0  0  0  0  0  0  0  0  0  0
  -26.3597  -14.0489   19.6929 C   0  0  0  0  0  0  0  0  0  0  0  0
  -17.7434  -27.7898   23.2150 C   0  0  0  0  0  0  0  0  0  0  0  0
  -19.8615  -27.2313   21.4979 C   0  0  0  0  0  0  0  0  0  0  0  0
  -25.5258  -25.1125   20.5324 C   0  0  0  0  0  0  0  0  0  0  0  0
  -26.2898  -11.6585   21.1296 C   0  0  0  0  0  0  0  0  0  0  0  0
  -25.5890  -12.9811   19.2330 C   0  0  0  0  0  0  0  0  0  0  0  0
  -26.3827  -25.1920   19.4356 C   0  0  0  0  0  0  0  0  0  0  0  0
  -23.0331  -10.7542   21.1335 C   0  0  0  0  0  0  0  0  0  0  0  0
  -22.2454  -10.0764   22.0639 C   0  0  0  0  0  0  0  0  0  0  0  0
  -27.4639  -27.1073   20.4266 C   0  0  0  0  0  0  0  0  0  0  0  0
  -31.9633  -23.2394   21.3713 C   0  0  0  0  0  0  0  0  0  0  0  0
  -32.4190  -23.9473   19.1184 C   0  0  0  0  0  0  0  0  0  0  0  0
  -23.4327   -8.0292   21.5776 C   0  0  0  0  0  0  0  0  0  0  0  0
  -27.0954  -13.9216   20.8711 C   0  0  0  0  0  0  0  0  0  0  0  0
  -29.2372  -15.2972   21.0379 C   0  0  0  0  0  0  0  0  0  0  0  0
  -18.9414  -28.5104   23.3431 C   0  0  0  0  0  0  0  0  0  0  0  0
  -25.6246  -26.0380   21.5813 C   0  0  0  0  0  0  0  0  0  0  0  0
  -20.0103  -28.2363   22.4687 C   0  0  0  0  0  0  0  0  0  0  0  0
  -26.6087  -27.0358   21.5369 C   0  0  0  0  0  0  0  0  0  0  0  0
  -32.8726  -23.4828   20.3480 C   0  0  0  0  0  0  0  0  0  0  0  0
  -25.5541  -11.7859   19.9514 C   0  0  0  0  0  0  0  0  0  0  0  0
  -27.3501  -26.1912   19.3811 C   0  0  0  0  0  0  0  0  0  0  0  0
  -24.0205  -10.0695   20.4250 C   0  0  0  0  0  0  0  0  0  0  0  0
  -22.4452   -8.7139   22.2860 C   0  0  0  0  0  0  0  0  0  0  0  0
  -24.2203   -8.7070   20.6471 C   0  0  0  0  0  0  0  0  0  0  0  0
  -27.8908  -15.0252   21.3460 C   0  0  0  0  0  0  0  0  0  0  0  0
  -30.6218  -23.4744   21.1165 C   0  0  0  0  0  0  0  0  0  0  0  0
  -31.0571  -24.1505   18.9643 C   0  0  0  0  0  0  0  0  0  0  0  0
  -29.5230  -16.4468   21.7329 C   0  0  0  0  0  0  0  0  0  0  0  0
  -30.1481  -14.5752   20.1984 C   0  0  0  0  0  0  0  0  0  0  0  0
  -23.6874  -28.2258   22.8321 C   0  0  0  0  0  0  0  0  0  0  0  0
  -28.0689  -21.6106   23.3173 C   0  0  0  0  0  0  0  0  0  0  0  0
  -26.0628  -28.5129   25.0224 C   0  0  0  0  0  0  0  0  0  0  0  0
  -29.3669  -28.1205   25.7811 C   0  0  0  0  0  0  0  0  0  0  0  0
  -19.0217  -29.6076   24.3748 C   0  0  0  0  0  0  0  0  0  0  0  0
  -24.7102  -25.9224   22.7700 C   0  0  0  0  0  0  0  0  0  0  0  0
  -26.7693  -28.0413   22.6467 C   0  0  0  0  0  0  0  0  0  0  0  0
  -20.4487  -30.0619   24.6710 C   0  0  0  0  0  0  0  0  0  0  0  0
  -26.9195  -18.8697   25.3189 C   0  0  0  0  0  0  0  0  0  0  0  0
  -21.2208  -30.2766   23.3731 C   0  0  0  0  0  0  0  0  0  0  0  0
  -27.1523  -17.6512   24.4267 C   0  0  0  0  0  0  0  0  0  0  0  0
  -26.5167  -20.0924   24.5004 C   0  0  0  0  0  0  0  0  0  0  0  0
  -27.7141  -19.2217   22.5180 C   0  0  0  0  0  0  0  0  0  0  0  0
  -21.3282  -28.9728   22.5730 C   0  0  1  0  0  0  0  0  0  0  0  0
  -24.5630  -27.2310   23.5402 C   0  0  1  0  0  0  0  0  0  0  0  0
  -28.1529  -17.9724   23.3023 C   0  0  2  0  0  0  0  0  0  0  0  0
  -34.3285  -23.2476   20.5686 C   0  0  0  0  0  0  0  0  0  0  0  0
  -31.0178  -28.4777   27.6370 C   0  0  0  0  0  0  0  0  0  0  0  0
  -26.0761  -31.5062   24.4311 C   0  0  0  0  0  0  0  0  0  0  0  0
  -28.3083  -31.6478   25.5561 C   0  0  0  0  0  0  0  0  0  0  0  0
  -26.3046  -30.9199   26.8516 C   0  0  0  0  0  0  0  0  0  0  0  0
  -30.0040  -25.2339   25.9264 C   0  0  0  0  0  0  0  0  0  0  0  0
  -29.6177  -23.2258   22.1919 C   0  0  0  0  0  0  0  0  0  0  0  0
  -30.5296  -24.6518   17.6437 C   0  0  0  0  0  0  0  0  0  0  0  0
  -29.0540  -21.7996   22.1913 C   0  0  0  0  0  0  0  0  0  0  0  0
  -30.4598  -26.1774   17.5475 C   0  0  0  0  0  0  0  0  0  0  0  0
  -29.4914  -26.8016   18.5455 C   0  0  0  0  0  0  0  0  0  1  0  0
  -27.3113  -29.3532   25.1416 C   0  0  1  0  0  0  0  0  0  0  0  0
  -30.0579  -27.4976   26.9808 C   0  0  2  0  0  0  0  0  0  0  0  0
  -26.9960  -30.8392   25.4731 C   0  0  0  0  0  0  0  0  0  0  0  0
  -27.3582  -15.9291   22.1725 N   0  0  0  0  0  0  0  0  0  0  0  0
  -30.1436  -23.9253   19.9352 N   0  0  0  0  0  0  0  0  0  0  0  0
  -28.3752  -16.7804   22.3898 N   0  0  0  0  0  0  0  0  0  0  0  0
  -25.8473  -27.8906   23.7846 N   0  0  0  0  0  0  0  0  0  0  0  0
  -27.4802  -20.3508   23.4290 N   0  0  0  0  0  0  0  0  0  0  0  0
  -30.6417  -17.1948   21.8402 N   0  0  0  0  0  0  0  0  0  0  0  0
  -29.6909  -13.4148   19.5590 N   0  0  0  0  0  0  0  0  0  0  0  0
  -22.3451  -28.1137   23.1407 N   0  0  0  0  0  0  0  0  0  0  0  0
  -28.1585  -28.6882   26.1256 N   0  0  0  0  0  0  0  0  0  0  0  0
  -30.8285  -26.2913   26.5661 N   0  3  0  0  0  0  0  0  0  0  0  0
  -31.3372  -14.9390   20.0334 O   0  0  0  0  0  0  0  0  0  0  0  0
  -24.1924  -29.0361   22.0640 O   0  0  0  0  0  0  0  0  0  0  0  0
  -27.8331  -22.5548   24.0757 O   0  0  0  0  0  0  0  0  0  0  0  0
  -25.3104  -28.4066   25.9940 O   0  0  0  0  0  0  0  0  0  0  0  0
  -29.8525  -28.1081   24.6521 O   0  0  0  0  0  0  0  0  0  0  0  0
  -24.8022  -10.7440   19.5022 O   0  0  0  0  0  0  0  0  0  0  0  0
  -28.1873  -26.2715   18.3114 O   0  0  0  0  0  0  0  0  0  1  0  0
  -21.6898   -8.0634   23.1807 F   0  0  0  0  0  0  0  0  0  0  0  0
  -25.1682   -8.0441   19.9704 F   0  0  0  0  0  0  0  0  0  0  0  0
  1  2  1  0  0  0  0
  1  5  2  0  0  0  0
  2  6  2  0  0  0  0
  3  8  2  0  0  0  0
  3 17  1  0  0  0  0
  4  9  1  0  0  0  0
  4 17  2  0  0  0  0
  5 19  1  0  0  0  0
  6 21  1  0  0  0  0
  7 10  2  0  0  0  0
  7 20  1  0  0  0  0
  8 24  1  0  0  0  0
  9 24  2  0  0  0  0
 10 25  1  0  0  0  0
 11 12  2  0  0  0  0
 11 26  1  0  0  0  0
 12 27  1  0  0  0  0
 13 22  1  0  0  0  0
 13 25  2  0  0  0  0
 14 23  1  0  0  0  0
 14 30  2  0  0  0  0
 15 23  2  0  0  0  0
 15 31  1  0  0  0  0
 16 27  2  0  0  0  0
 16 28  1  0  0  0  0
 17 29  1  0  0  0  0
 18 29  1  0  0  0  0
 18 32  2  0  0  0  0
 18 33  1  0  0  0  0
 19 21  2  0  0  0  0
 19 38  1  0  0  0  0
 20 22  2  0  0  0  0
 20 39  1  0  0  0  0
 21 47  1  0  0  0  0
 22 40  1  0  0  0  0
 23 50  1  0  0  0  0
 24 79  1  0  0  0  0
 25 80  1  0  0  0  0
 26 28  2  0  0  0  0
 26 79  1  0  0  0  0
 27 81  1  0  0  0  0
 28 82  1  0  0  0  0
 29 64  2  0  0  0  0
 30 56  1  0  0  0  0
 30 65  1  0  0  0  0
 31 57  1  0  0  0  0
 31 65  2  0  0  0  0
 32 66  1  0  0  0  0
 32 69  1  0  0  0  0
 33 70  1  0  0  0  0
 33 74  2  0  0  0  0
 34 48  1  0  0  0  0
 34 71  1  0  0  0  0
 34 75  2  0  0  0  0
 35 58  1  0  0  0  0
 35 68  1  0  0  0  0
 35 76  2  0  0  0  0
 36 61  1  0  0  0  0
 36 67  1  0  0  0  0
 36 77  2  0  0  0  0
 37 62  1  0  0  0  0
 37 72  1  0  0  0  0
 37 78  2  0  0  0  0
 38 41  1  0  0  0  0
 39 48  1  0  0  0  0
 40 67  1  0  0  0  0
 41 43  1  0  0  0  0
 42 44  1  0  0  0  0
 42 45  1  0  0  0  0
 43 47  1  0  0  0  0
 44 49  1  0  0  0  0
 45 68  1  0  0  0  0
 46 49  1  0  0  0  0
 46 68  1  0  0  0  0
 47 71  1  0  0  0  0
 48 67  1  0  0  0  0
 49 66  1  0  0  0  0
 51 62  1  0  0  0  0
 52 63  1  0  0  0  0
 53 63  1  0  0  0  0
 54 63  1  0  0  0  0
 55 73  1  0  0  0  0
 56 58  1  0  0  0  0
 57 59  1  0  0  0  0
 59 60  1  0  0  0  0
 60 80  1  0  0  0  0
 61 63  1  0  0  0  0
 61 72  1  0  0  0  0
 62 73  1  0  0  0  0
 64 66  1  0  0  0  0
M  CHG  1  73   1
M  ISO  4  35 100  58 100  60 101  80 101
M  END
> <Batch ID>
0038

> <Smiles>
CNC(C)C(=O)NC(C(=O)N1Cc2cc([101O:1][101CH2:1]CCc3cc(C)cc(C[100CH2:0][100C:0](=O)N4CCCC(n5nc(-c6ccc(Oc7ccc(F)cc7F)cc6)c(C(N)=O)c5N)C4)n3)ccc2CC1C(=O)NC1CCCc2ccccc21)C(C)(C)C

> <Shape>
0.258

> <Color>
0.079

> <Negative vol penalty>
0.000

$$$$

  -OEChem-04052317012D

  0  0  0     0  0  0  0  0  0999 V2000
M  END
$$$$

  -OEChem-04052317013D

 85 93  0     1  0  0  0  0  0999 V2000
  -26.0795  -25.2889   17.2814 C   0  0  0  0  0  0  0  0  0  0  0  0
  -26.2131  -24.5089   18.4255 C   0  0  0  0  0  0  0  0  0  0  0  0
  -22.9899  -10.0472   19.8972 C   0  0  0  0  0  0  0  0  0  0  0  0
  -23.8582   -9.8377   22.1421 C   0  0  0  0  0  0  0  0  0  0  0  0
  -25.9221  -26.6696   17.3948 C   0  0  0  0  0  0  0  0  0  0  0  0
  -26.1905  -25.1093   19.6839 C   0  0  0  0  0  0  0  0  0  0  0  0
  -23.2926  -22.5911   22.9862 C   0  0  0  0  0  0  0  0  0  0  0  0
  -22.2216   -8.8986   20.0872 C   0  0  0  0  0  0  0  0  0  0  0  0
  -23.0899   -8.6891   22.3321 C   0  0  0  0  0  0  0  0  0  0  0  0
  -23.8303  -21.4371   23.5545 C   0  0  0  0  0  0  0  0  0  0  0  0
  -19.3216   -8.0659   21.6135 C   0  0  0  0  0  0  0  0  0  0  0  0
  -17.9922   -8.0983   21.1925 C   0  0  0  0  0  0  0  0  0  0  0  0
  -24.3773  -22.6807   25.5478 C   0  0  0  0  0  0  0  0  0  0  0  0
  -28.2667  -20.0047   24.3851 C   0  0  0  0  0  0  0  0  0  0  0  0
  -27.8551  -17.5761   23.0755 C   0  0  0  0  0  0  0  0  0  0  0  0
  -18.4245   -6.2595   19.6862 C   0  0  0  0  0  0  0  0  0  0  0  0
  -23.8083  -10.5167   20.9247 C   0  0  0  0  0  0  0  0  0  0  0  0
  -24.2262  -13.0322   20.9987 C   0  0  0  0  0  0  0  0  0  0  0  0
  -25.8879  -27.2861   18.6556 C   0  0  0  0  0  0  0  0  0  0  0  0
  -23.3031  -23.8031   23.6915 C   0  0  0  0  0  0  0  0  0  0  0  0
  -26.0339  -26.4997   19.8143 C   0  0  0  0  0  0  0  0  0  0  0  0
  -23.8368  -23.8481   24.9873 C   0  0  0  0  0  0  0  0  0  0  0  0
  -28.8512  -19.7763   23.1394 C   0  0  0  0  0  0  0  0  0  0  0  0
  -27.4765  -19.0189   24.9761 C   0  0  0  0  0  0  0  0  0  0  0  0
  -28.6453  -18.5620   22.4846 C   0  0  0  0  0  0  0  0  0  0  0  0
  -27.2706  -17.8046   24.3213 C   0  0  0  0  0  0  0  0  0  0  0  0
  -22.2716   -8.2196   21.3046 C   0  0  0  0  0  0  0  0  0  0  0  0
  -24.3754  -21.4824   24.8343 C   0  0  0  0  0  0  0  0  0  0  0  0
  -20.2025   -7.1304   21.0708 C   0  0  0  0  0  0  0  0  0  0  0  0
  -17.5436   -7.1951   20.2288 C   0  0  0  0  0  0  0  0  0  0  0  0
  -19.7539   -6.2271   20.1072 C   0  0  0  0  0  0  0  0  0  0  0  0
  -24.6026  -11.7028   20.7288 C   0  0  0  0  0  0  0  0  0  0  0  0
  -25.3236  -13.7784   20.6447 C   0  0  0  0  0  0  0  0  0  0  0  0
  -22.9947  -13.5465   21.5226 C   0  0  0  0  0  0  0  0  0  0  0  0
  -24.6152  -26.6600   23.2223 C   0  0  0  0  0  0  0  0  0  0  0  0
  -22.8924  -27.4515   25.8544 C   0  0  0  0  0  0  0  0  0  0  0  0
  -21.3344  -26.4279   28.7129 C   0  0  0  0  0  0  0  0  0  0  0  0
  -30.8404  -14.6211   20.6413 C   0  0  0  0  0  0  0  0  0  0  0  0
  -25.7632  -28.7875   18.7263 C   0  0  0  0  0  0  0  0  0  0  0  0
  -22.6950  -25.0330   23.0750 C   0  0  0  0  0  0  0  0  0  0  0  0
  -23.8540  -25.1197   25.7941 C   0  0  0  0  0  0  0  0  0  0  0  0
  -25.3740  -29.3018   20.1099 C   0  0  0  0  0  0  0  0  0  0  0  0
  -29.5130  -12.4814   18.1242 C   0  0  0  0  0  0  0  0  0  0  0  0
  -26.2178  -28.6275   21.1869 C   0  0  0  0  0  0  0  0  0  0  0  0
  -28.0890  -12.1930   18.6028 C   0  0  0  0  0  0  0  0  0  0  0  0
  -30.4931  -12.5732   19.2916 C   0  0  0  0  0  0  0  0  0  0  0  0
  -28.6846  -13.2377   20.8283 C   0  0  0  0  0  0  0  0  0  0  0  0
  -25.9896  -27.1112   21.1978 C   0  0  1  0  0  0  0  0  0  0  0  0
  -23.2234  -26.3291   23.6818 C   0  0  1  0  0  0  0  0  0  0  0  0
  -27.6502  -13.1916   19.6907 C   0  0  2  0  0  0  0  0  0  0  0  0
  -29.6927  -20.8468   22.5259 C   0  0  0  0  0  0  0  0  0  0  0  0
  -27.1635  -15.9845   26.0425 C   0  0  0  0  0  0  0  0  0  0  0  0
  -20.0463  -27.3089   30.6781 C   0  0  0  0  0  0  0  0  0  0  0  0
  -25.4847  -28.4877   27.0858 C   0  0  0  0  0  0  0  0  0  0  0  0
  -24.3526  -28.4617   29.3188 C   0  0  0  0  0  0  0  0  0  0  0  0
  -23.4840  -29.9302   27.4989 C   0  0  0  0  0  0  0  0  0  0  0  0
  -18.9437  -24.8315   28.0093 C   0  0  0  0  0  0  0  0  0  0  0  0
  -26.4292  -16.7340   24.9348 C   0  0  0  0  0  0  0  0  0  0  0  0
  -29.2603  -18.2951   21.1500 C   0  0  0  0  0  0  0  0  0  0  0  0
  -26.8552  -19.2886   26.3250 C   0  0  0  0  0  0  0  0  0  0  0  0
  -30.7472  -17.8951   21.2034 C   0  0  0  0  0  0  0  0  0  0  0  0
  -31.0354  -16.6561   22.0484 C   0  0  0  0  0  0  0  0  0  0  0  0
  -25.9720  -20.5315   26.3185 C   0  0  0  0  0  0  0  0  0  1  0  0
  -23.1436  -27.4298   27.3428 C   0  0  1  0  0  0  0  0  0  0  0  0
  -19.9569  -26.7323   29.2737 C   0  0  2  0  0  0  0  0  0  0  0  0
  -24.1178  -28.5537   27.7959 C   0  0  0  0  0  0  0  0  0  0  0  0
  -25.8423  -11.6068   20.2409 N   0  0  0  0  0  0  0  0  0  0  0  0
  -26.2543  -12.8854   20.2013 N   0  0  0  0  0  0  0  0  0  0  0  0
  -23.2533  -26.2970   25.1454 N   0  0  0  0  0  0  0  0  0  0  0  0
  -30.0193  -13.5380   20.2869 N   0  0  0  0  0  0  0  0  0  0  0  0
  -25.5736  -15.1047   20.6726 N   0  0  0  0  0  0  0  0  0  0  0  0
  -21.9709  -12.6412   21.8333 N   0  0  0  0  0  0  0  0  0  0  0  0
  -24.7387  -26.7931   21.8524 N   0  0  0  0  0  0  0  0  0  0  0  0
  -21.8318  -27.4838   27.9789 N   0  0  0  0  0  0  0  0  0  0  0  0
  -30.3128  -15.4917   21.5870 N   0  0  0  0  0  0  0  0  0  0  0  0
  -19.1334  -25.4914   29.3267 N   0  3  0  0  0  0  0  0  0  0  0  0
  -22.8017  -14.7740   21.6943 O   0  0  0  0  0  0  0  0  0  0  0  0
  -25.5104  -26.7867   24.0494 O   0  0  0  0  0  0  0  0  0  0  0  0
  -22.3879  -28.4531   25.3408 O   0  0  0  0  0  0  0  0  0  0  0  0
  -21.9129  -25.3615   28.9096 O   0  0  0  0  0  0  0  0  0  0  0  0
  -31.9586  -14.8021   20.1473 O   0  0  0  0  0  0  0  0  0  0  0  0
  -21.5218   -7.0990   21.4904 O   0  0  0  0  0  0  0  0  0  0  0  0
  -24.9015  -20.3576   25.3910 O   0  0  0  0  0  0  0  0  0  1  0  0
  -16.2666   -7.2253   19.8257 F   0  0  0  0  0  0  0  0  0  0  0  0
  -20.5952   -5.3252   19.5831 F   0  0  0  0  0  0  0  0  0  0  0  0
  1  2  1  0  0  0  0
  1  5  2  0  0  0  0
  2  6  2  0  0  0  0
  3  8  2  0  0  0  0
  3 17  1  0  0  0  0
  4  9  1  0  0  0  0
  4 17  2  0  0  0  0
  5 19  1  0  0  0  0
  6 21  1  0  0  0  0
  7 10  2  0  0  0  0
  7 20  1  0  0  0  0
  8 27  1  0  0  0  0
  9 27  2  0  0  0  0
 10 28  1  0  0  0  0
 11 12  2  0  0  0  0
 11 29  1  0  0  0  0
 12 30  1  0  0  0  0
 13 22  1  0  0  0  0
 13 28  2  0  0  0  0
 14 23  2  0  0  0  0
 14 24  1  0  0  0  0
 15 25  2  0  0  0  0
 15 26  1  0  0  0  0
 16 30  2  0  0  0  0
 16 31  1  0  0  0  0
 17 32  1  0  0  0  0
 18 32  1  0  0  0  0
 18 33  2  0  0  0  0
 18 34  1  0  0  0  0
 19 21  2  0  0  0  0
 19 39  1  0  0  0  0
 20 22  2  0  0  0  0
 20 40  1  0  0  0  0
 21 48  1  0  0  0  0
 22 41  1  0  0  0  0
 23 25  1  0  0  0  0
 23 51  1  0  0  0  0
 24 26  2  0  0  0  0
 24 60  1  0  0  0  0
 25 59  1  0  0  0  0
 26 58  1  0  0  0  0
 27 82  1  0  0  0  0
 28 83  1  0  0  0  0
 29 31  2  0  0  0  0
 29 82  1  0  0  0  0
 30 84  1  0  0  0  0
 31 85  1  0  0  0  0
 32 67  2  0  0  0  0
 33 68  1  0  0  0  0
 33 71  1  0  0  0  0
 34 72  1  0  0  0  0
 34 77  2  0  0  0  0
 35 49  1  0  0  0  0
 35 73  1  0  0  0  0
 35 78  2  0  0  0  0
 36 64  1  0  0  0  0
 36 69  1  0  0  0  0
 36 79  2  0  0  0  0
 37 65  1  0  0  0  0
 37 74  1  0  0  0  0
 37 80  2  0  0  0  0
 38 70  1  0  0  0  0
 38 75  1  0  0  0  0
 38 81  2  0  0  0  0
 39 42  1  0  0  0  0
 40 49  1  0  0  0  0
 41 69  1  0  0  0  0
 42 44  1  0  0  0  0
 43 45  1  0  0  0  0
 43 46  1  0  0  0  0
 44 48  1  0  0  0  0
 45 50  1  0  0  0  0
 46 70  1  0  0  0  0
 47 50  1  0  0  0  0
 47 70  1  0  0  0  0
 48 73  1  0  0  0  0
 49 69  1  0  0  0  0
 50 68  1  0  0  0  0
 52 58  1  0  0  0  0
 53 65  1  0  0  0  0
 54 66  1  0  0  0  0
 55 66  1  0  0  0  0
 56 66  1  0  0  0  0
 57 76  1  0  0  0  0
 59 61  1  0  0  0  0
 60 63  1  0  0  0  0
 61 62  1  0  0  0  0
 62 75  1  0  0  0  0
 63 83  1  0  0  0  0
 64 66  1  0  0  0  0
 64 74  1  0  0  0  0
 65 76  1  0  0  0  0
 67 68  1  0  0  0  0
M  CHG  1  76   1
M  ISO  4  38 100  63 101  75 100  83 101
M  END
> <Batch ID>
0038

> <Smiles>
CCc1cc(CCC[100NH:0][100C:0](=O)N2CCCC(n3nc(-c4ccc(Oc5ccc(F)cc5F)cc4)c(C(N)=O)c3N)C2)c(C)cc1C[101CH2:1][101O:1]c1ccc2c(c1)CN(C(=O)C(NC(=O)C(C)NC)C(C)(C)C)C(C(=O)NC1CCCc3ccccc31)C2

> <Shape>
0.192

> <Color>
0.211

> <Negative vol penalty>
0.000

$$$$

  -OEChem-04052317013D

 84 92  0     1  0  0  0  0  0999 V2000
  -18.5460  -24.8004   24.3068 C   0  0  0  0  0  0  0  0  0  0  0  0
  -19.9033  -24.5415   24.1456 C   0  0  0  0  0  0  0  0  0  0  0  0
  -26.4237  -13.0325   20.1285 C   0  0  0  0  0  0  0  0  0  0  0  0
  -24.4482  -13.2841   21.4965 C   0  0  0  0  0  0  0  0  0  0  0  0
  -18.0032  -25.9924   23.8286 C   0  0  0  0  0  0  0  0  0  0  0  0
  -20.7186  -25.4741   23.5051 C   0  0  0  0  0  0  0  0  0  0  0  0
  -26.5753  -26.7330   24.7778 C   0  0  0  0  0  0  0  0  0  0  0  0
  -26.3305  -11.6460   20.2490 C   0  0  0  0  0  0  0  0  0  0  0  0
  -24.3550  -11.8976   21.6169 C   0  0  0  0  0  0  0  0  0  0  0  0
  -27.7721  -26.3153   24.1973 C   0  0  0  0  0  0  0  0  0  0  0  0
  -23.2711   -9.3035   19.7418 C   0  0  0  0  0  0  0  0  0  0  0  0
  -22.0138   -8.7231   19.5751 C   0  0  0  0  0  0  0  0  0  0  0  0
  -27.8194  -28.3247   22.8634 C   0  0  0  0  0  0  0  0  0  0  0  0
  -22.1278   -7.8321   21.8180 C   0  0  0  0  0  0  0  0  0  0  0  0
  -27.4539  -25.2530   19.9898 C   0  0  0  0  0  0  0  0  0  0  0  0
  -25.4826  -13.8516   20.7523 C   0  0  0  0  0  0  0  0  0  0  0  0
  -24.9938  -16.0927   19.6359 C   0  0  0  0  0  0  0  0  0  0  0  0
  -18.8141  -26.9442   23.1905 C   0  0  0  0  0  0  0  0  0  0  0  0
  -25.9849  -27.9466   24.3969 C   0  0  0  0  0  0  0  0  0  0  0  0
  -20.1859  -26.6793   23.0168 C   0  0  0  0  0  0  0  0  0  0  0  0
  -26.6164  -28.7568   23.4425 C   0  0  0  0  0  0  0  0  0  0  0  0
  -25.2962  -11.0786   20.9931 C   0  0  0  0  0  0  0  0  0  0  0  0
  -28.3928  -27.1098   23.2378 C   0  0  0  0  0  0  0  0  0  0  0  0
  -23.9569   -9.1481   20.9465 C   0  0  0  0  0  0  0  0  0  0  0  0
  -21.4421   -7.9874   20.6132 C   0  0  0  0  0  0  0  0  0  0  0  0
  -23.3852   -8.4125   21.9846 C   0  0  0  0  0  0  0  0  0  0  0  0
  -25.5786  -15.2839   20.6288 C   0  0  0  0  0  0  0  0  0  0  0  0
  -28.7631  -24.8688   19.6432 C   0  0  0  0  0  0  0  0  0  0  0  0
  -26.6506  -24.3120   19.3935 C   0  0  0  0  0  0  0  0  0  0  0  0
  -25.3808  -17.3697   19.9613 C   0  0  0  0  0  0  0  0  0  0  0  0
  -24.1740  -15.7226   18.5193 C   0  0  0  0  0  0  0  0  0  0  0  0
  -23.2297  -28.7739   23.0449 C   0  0  0  0  0  0  0  0  0  0  0  0
  -24.2846  -31.7815   23.6483 C   0  0  0  0  0  0  0  0  0  0  0  0
  -26.9275  -33.8674   24.2059 C   0  0  0  0  0  0  0  0  0  0  0  0
  -26.1782  -21.3999   23.7385 C   0  0  0  0  0  0  0  0  0  0  0  0
  -18.1732  -28.1972   22.6483 C   0  0  0  0  0  0  0  0  0  0  0  0
  -24.7076  -28.3957   25.0521 C   0  0  0  0  0  0  0  0  0  0  0  0
  -26.0341  -30.0780   23.0137 C   0  0  0  0  0  0  0  0  0  0  0  0
  -19.1760  -29.2987   22.3142 C   0  0  0  0  0  0  0  0  0  0  0  0
  -28.7943  -19.0234   23.3079 C   0  0  0  0  0  0  0  0  0  0  0  0
  -20.3524  -28.7290   21.5279 C   0  0  0  0  0  0  0  0  0  0  0  0
  -28.1410  -17.9033   22.4965 C   0  0  0  0  0  0  0  0  0  0  0  0
  -27.8196  -19.6354   24.3118 C   0  0  0  0  0  0  0  0  0  0  0  0
  -25.8926  -18.9818   22.9213 C   0  0  0  0  0  0  0  0  0  0  0  0
  -21.1074  -27.6770   22.3494 C   0  0  1  0  0  0  0  0  0  0  0  0
  -23.9297  -29.4060   24.2146 C   0  0  1  0  0  0  0  0  0  0  0  0
  -26.8201  -18.3715   21.8566 C   0  0  2  0  0  0  0  0  0  0  0  0
  -27.4788  -36.2788   24.6282 C   0  0  0  0  0  0  0  0  0  0  0  0
  -23.8199  -32.4021   20.6972 C   0  0  0  0  0  0  0  0  0  0  0  0
  -25.2431  -34.4431   20.9740 C   0  0  0  0  0  0  0  0  0  0  0  0
  -23.1221  -34.2189   22.2677 C   0  0  0  0  0  0  0  0  0  0  0  0
  -27.1267  -22.2923   17.9763 C   0  0  0  0  0  0  0  0  0  0  0  0
  -28.1230  -33.2526   26.8425 C   0  0  0  0  0  0  0  0  0  0  0  0
  -30.0525  -25.5497   20.0269 C   0  0  0  0  0  0  0  0  0  0  0  0
  -25.1843  -24.1587   19.3801 C   0  0  0  0  0  0  0  0  0  0  0  0
  -30.6545  -25.0357   21.3365 C   0  0  0  0  0  0  0  0  0  0  0  0
  -24.6623  -23.2919   20.5454 C   0  0  0  0  0  0  0  0  0  0  0  0
  -24.9818  -23.9030   21.9129 C   0  0  0  0  0  0  0  0  0  0  0  0
  -24.4574  -23.0584   23.0696 C   0  0  0  0  0  0  0  0  0  0  0  0
  -29.7714  -25.2978   22.5509 C   0  0  0  0  0  0  0  0  0  1  0  0
  -25.1140  -32.7944   22.8966 C   0  0  1  0  0  0  0  0  0  0  0  0
  -27.1650  -34.9322   25.2614 C   0  0  2  0  0  0  0  0  0  0  0  0
  -24.3350  -33.4389   21.7153 C   0  0  0  0  0  0  0  0  0  0  0  0
  -26.2836  -15.9881   21.5182 N   0  0  0  0  0  0  0  0  0  0  0  0
  -28.7942  -23.7692   18.8855 N   0  0  0  0  0  0  0  0  0  0  0  0
  -27.4946  -23.4545   18.7512 N   0  0  0  0  0  0  0  0  0  0  0  0
  -26.1444  -17.2528   21.0853 N   0  0  0  0  0  0  0  0  0  0  0  0
  -24.7806  -30.4704   23.6786 N   0  0  0  0  0  0  0  0  0  0  0  0
  -26.5886  -20.0601   23.6408 N   0  0  0  0  0  0  0  0  0  0  0  0
  -25.1391  -18.5700   19.3927 N   0  0  0  0  0  0  0  0  0  0  0  0
  -23.8726  -14.3667   18.3321 N   0  0  0  0  0  0  0  0  0  0  0  0
  -21.9574  -28.3167   23.3307 N   0  0  0  0  0  0  0  0  0  0  0  0
  -25.5903  -33.7503   23.8904 N   0  0  0  0  0  0  0  0  0  0  0  0
  -25.0041  -21.7198   23.0677 N   0  0  0  0  0  0  0  0  0  0  0  0
  -28.3074  -34.5473   26.1377 N   0  3  0  0  0  0  0  0  0  0  0  0
  -23.7358  -16.5675   17.7022 O   0  0  0  0  0  0  0  0  0  0  0  0
  -23.8010  -28.7073   21.9628 O   0  0  0  0  0  0  0  0  0  0  0  0
  -23.2390  -32.1418   24.1946 O   0  0  0  0  0  0  0  0  0  0  0  0
  -27.8375  -33.2082   23.7081 O   0  0  0  0  0  0  0  0  0  0  0  0
  -26.8140  -22.2493   24.3718 O   0  0  0  0  0  0  0  0  0  0  0  0
  -25.2048   -9.7256   21.1107 O   0  0  0  0  0  0  0  0  0  0  0  0
  -29.5606  -26.7042   22.6691 O   0  0  0  0  0  0  0  0  0  1  0  0
  -20.2340   -7.4314   20.4536 F   0  0  0  0  0  0  0  0  0  0  0  0
  -24.0387   -8.2608   23.1447 F   0  0  0  0  0  0  0  0  0  0  0  0
  1  2  1  0  0  0  0
  1  5  2  0  0  0  0
  2  6  2  0  0  0  0
  3  8  2  0  0  0  0
  3 16  1  0  0  0  0
  4  9  1  0  0  0  0
  4 16  2  0  0  0  0
  5 18  1  0  0  0  0
  6 20  1  0  0  0  0
  7 10  2  0  0  0  0
  7 19  1  0  0  0  0
  8 22  1  0  0  0  0
  9 22  2  0  0  0  0
 10 23  1  0  0  0  0
 11 12  2  0  0  0  0
 11 24  1  0  0  0  0
 12 25  1  0  0  0  0
 13 21  1  0  0  0  0
 13 23  2  0  0  0  0
 14 25  2  0  0  0  0
 14 26  1  0  0  0  0
 15 28  1  0  0  0  0
 15 29  2  0  0  0  0
 16 27  1  0  0  0  0
 17 27  1  0  0  0  0
 17 30  2  0  0  0  0
 17 31  1  0  0  0  0
 18 20  2  0  0  0  0
 18 36  1  0  0  0  0
 19 21  2  0  0  0  0
 19 37  1  0  0  0  0
 20 45  1  0  0  0  0
 21 38  1  0  0  0  0
 22 81  1  0  0  0  0
 23 82  1  0  0  0  0
 24 26  2  0  0  0  0
 24 81  1  0  0  0  0
 25 83  1  0  0  0  0
 26 84  1  0  0  0  0
 27 64  2  0  0  0  0
 28 54  1  0  0  0  0
 28 65  2  0  0  0  0
 29 55  1  0  0  0  0
 29 66  1  0  0  0  0
 30 67  1  0  0  0  0
 30 70  1  0  0  0  0
 31 71  1  0  0  0  0
 31 76  2  0  0  0  0
 32 46  1  0  0  0  0
 32 72  1  0  0  0  0
 32 77  2  0  0  0  0
 33 61  1  0  0  0  0
 33 68  1  0  0  0  0
 33 78  2  0  0  0  0
 34 62  1  0  0  0  0
 34 73  1  0  0  0  0
 34 79  2  0  0  0  0
 35 69  1  0  0  0  0
 35 74  1  0  0  0  0
 35 80  2  0  0  0  0
 36 39  1  0  0  0  0
 37 46  1  0  0  0  0
 38 68  1  0  0  0  0
 39 41  1  0  0  0  0
 40 42  1  0  0  0  0
 40 43  1  0  0  0  0
 41 45  1  0  0  0  0
 42 47  1  0  0  0  0
 43 69  1  0  0  0  0
 44 47  1  0  0  0  0
 44 69  1  0  0  0  0
 45 72  1  0  0  0  0
 46 68  1  0  0  0  0
 47 67  1  0  0  0  0
 48 62  1  0  0  0  0
 49 63  1  0  0  0  0
 50 63  1  0  0  0  0
 51 63  1  0  0  0  0
 52 66  1  0  0  0  0
 53 75  1  0  0  0  0
 54 56  1  0  0  0  0
 55 57  1  0  0  0  0
 56 60  1  0  0  0  0
 57 58  1  0  0  0  0
 58 59  1  0  0  0  0
 59 74  1  0  0  0  0
 60 82  1  0  0  0  0
 61 63  1  0  0  0  0
 61 73  1  0  0  0  0
 62 75  1  0  0  0  0
 64 67  1  0  0  0  0
 65 66  1  0  0  0  0
M  CHG  1  75   1
M  ISO  4  35 100  60 101  74 100  82 101
M  END
> <Batch ID>
0038

> <Smiles>
CNC(C)C(=O)NC(C(=O)N1Cc2cc([101O:1][101CH2:1]CCc3cc(CCCC[100NH:0][100C:0](=O)N4CCCC(n5nc(-c6ccc(Oc7ccc(F)cc7F)cc6)c(C(N)=O)c5N)C4)n(C)n3)ccc2CC1C(=O)NC1CCCc2ccccc21)C(C)(C)C

> <Shape>
0.226

> <Color>
0.094

> <Negative vol penalty>
0.000

$$$$

  -OEChem-04052317013D

 89 97  0     1  0  0  0  0  0999 V2000
  -17.3171  -12.9273   23.7942 C   0  0  0  0  0  0  0  0  0  0  0  0
  -18.0276  -14.0637   23.4212 C   0  0  0  0  0  0  0  0  0  0  0  0
  -28.5531  -26.0939   19.4353 C   0  0  0  0  0  0  0  0  0  0  0  0
  -26.5432  -24.8244   19.8662 C   0  0  0  0  0  0  0  0  0  0  0  0
  -17.9998  -11.7609   24.1368 C   0  0  0  0  0  0  0  0  0  0  0  0
  -19.4215  -14.0347   23.3916 C   0  0  0  0  0  0  0  0  0  0  0  0
  -21.3215  -16.1907   19.2220 C   0  0  0  0  0  0  0  0  0  0  0  0
  -29.2845  -24.9089   19.3554 C   0  0  0  0  0  0  0  0  0  0  0  0
  -27.2746  -23.6393   19.7863 C   0  0  0  0  0  0  0  0  0  0  0  0
  -21.3570  -17.5840   19.1853 C   0  0  0  0  0  0  0  0  0  0  0  0
  -29.3599  -21.8605   21.7657 C   0  0  0  0  0  0  0  0  0  0  0  0
  -29.1330  -20.8918   22.7432 C   0  0  0  0  0  0  0  0  0  0  0  0
  -23.6949  -17.5341   19.7774 C   0  0  0  0  0  0  0  0  0  0  0  0
  -21.9646  -23.8436   20.1751 C   0  0  0  0  0  0  0  0  0  0  0  0
  -28.4505  -19.3267   21.0338 C   0  0  0  0  0  0  0  0  0  0  0  0
  -27.1824  -26.0517   19.6907 C   0  0  0  0  0  0  0  0  0  0  0  0
  -25.7766  -27.9465   18.7208 C   0  0  0  0  0  0  0  0  0  0  0  0
  -19.4024  -11.7147   24.1021 C   0  0  0  0  0  0  0  0  0  0  0  0
  -22.4718  -15.4578   19.5479 C   0  0  0  0  0  0  0  0  0  0  0  0
  -20.1236  -12.8670   23.7354 C   0  0  0  0  0  0  0  0  0  0  0  0
  -23.6721  -16.1316   19.8150 C   0  0  0  0  0  0  0  0  0  0  0  0
  -21.7428  -22.4734   20.2576 C   0  0  0  0  0  0  0  0  0  0  0  0
  -22.0431  -24.4557   18.9291 C   0  0  0  0  0  0  0  0  0  0  0  0
  -28.6452  -23.6816   19.5309 C   0  0  0  0  0  0  0  0  0  0  0  0
  -22.5430  -18.2560   19.4658 C   0  0  0  0  0  0  0  0  0  0  0  0
  -29.1321  -21.5624   20.4222 C   0  0  0  0  0  0  0  0  0  0  0  0
  -28.6783  -19.6249   22.3773 C   0  0  0  0  0  0  0  0  0  0  0  0
  -28.6774  -20.2955   20.0563 C   0  0  0  0  0  0  0  0  0  0  0  0
  -26.4265  -27.2755   19.7740 C   0  0  0  0  0  0  0  0  0  0  0  0
  -21.6074  -21.7659   19.0741 C   0  0  0  0  0  0  0  0  0  0  0  0
  -21.8945  -23.6594   17.8050 C   0  0  0  0  0  0  0  0  0  0  0  0
  -25.2078  -29.0469   19.3140 C   0  0  0  0  0  0  0  0  0  0  0  0
  -25.6945  -27.6056   17.3306 C   0  0  0  0  0  0  0  0  0  0  0  0
  -23.2651  -13.4477   21.8789 C   0  0  0  0  0  0  0  0  0  0  0  0
  -25.9654  -13.0857   20.1183 C   0  0  0  0  0  0  0  0  0  0  0  0
  -28.1083  -14.3825   17.8003 C   0  0  0  0  0  0  0  0  0  0  0  0
  -23.4530  -30.2069   24.9199 C   0  0  0  0  0  0  0  0  0  0  0  0
  -20.0976  -10.4453   24.5266 C   0  0  0  0  0  0  0  0  0  0  0  0
  -22.4237  -13.9545   19.5571 C   0  0  0  0  0  0  0  0  0  0  0  0
  -24.9397  -15.3905   20.1505 C   0  0  0  0  0  0  0  0  0  0  0  0
  -21.5644  -10.3850   24.1081 C   0  0  0  0  0  0  0  0  0  0  0  0
  -25.8095  -32.0501   22.9896 C   0  0  0  0  0  0  0  0  0  0  0  0
  -22.2670  -11.6992   24.4340 C   0  0  0  0  0  0  0  0  0  0  0  0
  -26.1762  -31.0960   21.8515 C   0  0  0  0  0  0  0  0  0  0  0  0
  -25.5870  -31.3031   24.3028 C   0  0  0  0  0  0  0  0  0  0  0  0
  -24.9787  -29.2448   23.0916 C   0  0  0  0  0  0  0  0  0  0  0  0
  -21.6354  -12.8674   23.6672 C   0  0  1  0  0  0  0  0  0  0  0  0
  -23.5262  -13.3266   20.4042 C   0  0  1  0  0  0  0  0  0  0  0  0
  -25.1581  -29.9458   21.7341 C   0  0  2  0  0  0  0  0  0  0  0  0
  -21.6576  -21.8117   21.5895 C   0  0  0  0  0  0  0  0  0  0  0  0
  -21.9683  -24.2636   16.4409 C   0  0  0  0  0  0  0  0  0  0  0  0
  -30.2465  -13.8709   16.5905 C   0  0  0  0  0  0  0  0  0  0  0  0
  -27.5490  -13.7562   22.6387 C   0  0  0  0  0  0  0  0  0  0  0  0
  -29.5497  -14.1625   21.1896 C   0  0  0  0  0  0  0  0  0  0  0  0
  -28.5079  -11.8973   21.2679 C   0  0  0  0  0  0  0  0  0  0  0  0
  -26.7697  -14.4597   15.1619 C   0  0  0  0  0  0  0  0  0  0  0  0
  -22.2839  -25.9417   18.8325 C   0  0  0  0  0  0  0  0  0  0  0  0
  -21.3688  -20.2917   19.1007 C   0  0  0  0  0  0  0  0  0  1  0  0
  -21.0401  -26.7689   18.4831 C   0  0  0  0  0  0  0  0  0  0  0  0
  -19.9002  -26.7077   19.5073 C   0  0  0  0  0  0  0  0  0  0  0  0
  -20.2760  -27.2881   20.8727 C   0  0  0  0  0  0  0  0  0  0  0  0
  -19.1376  -27.2164   21.8970 C   0  0  0  0  0  0  0  0  0  0  0  0
  -19.4749  -27.7235   23.3034 C   0  0  0  0  0  0  0  0  0  0  0  0
  -19.8200  -29.2137   23.3432 C   0  0  0  0  0  0  0  0  0  0  0  0
  -20.1701  -29.7197   24.7478 C   0  0  0  0  0  0  0  0  0  0  0  0
  -21.3401  -29.0032   25.4160 C   0  0  0  0  0  0  0  0  0  0  0  0
  -27.3090  -13.7721   20.0681 C   0  0  1  0  0  0  0  0  0  0  0  0
  -28.7290  -13.7788   16.5534 C   0  0  2  0  0  0  0  0  0  0  0  0
  -28.2047  -13.4113   21.2867 C   0  0  0  0  0  0  0  0  0  0  0  0
  -26.2845  -27.8977   20.9473 N   0  0  0  0  0  0  0  0  0  0  0  0
  -21.6778  -22.3255   17.8455 N   0  0  0  0  0  0  0  0  0  0  0  0
  -25.5389  -28.9713   20.6349 N   0  0  0  0  0  0  0  0  0  0  0  0
  -24.8403  -13.9217   20.1529 N   0  0  0  0  0  0  0  0  0  0  0  0
  -24.6098  -30.2266   24.1235 N   0  0  0  0  0  0  0  0  0  0  0  0
  -24.4617  -30.0623   18.8294 N   0  0  0  0  0  0  0  0  0  0  0  0
  -26.3366  -26.4406   16.8893 N   0  0  0  0  0  0  0  0  0  0  0  0
  -22.0804  -12.8674   22.2901 N   0  0  0  0  0  0  0  0  0  0  0  0
  -27.8933  -13.4316   18.7754 N   0  0  0  0  0  0  0  0  0  0  0  0
  -22.5761  -29.1558   24.6812 N   0  0  0  0  0  0  0  0  0  0  0  0
  -28.2446  -14.4907   15.3370 N   0  3  0  0  0  0  0  0  0  0  0  0
  -25.0839  -28.3218   16.5012 O   0  0  0  0  0  0  0  0  0  0  0  0
  -24.0791  -14.0237   22.5913 O   0  0  0  0  0  0  0  0  0  0  0  0
  -25.9157  -11.8531   20.1193 O   0  0  0  0  0  0  0  0  0  0  0  0
  -27.8442  -15.5786   17.9007 O   0  0  0  0  0  0  0  0  0  0  0  0
  -23.2164  -31.0657   25.7764 O   0  0  0  0  0  0  0  0  0  0  0  0
  -29.3585  -22.5250   19.4528 O   0  0  0  0  0  0  0  0  0  0  0  0
  -22.5805  -19.6256   19.4311 O   0  0  0  0  0  0  0  0  0  1  0  0
  -28.4620  -18.6942   23.3160 F   0  0  0  0  0  0  0  0  0  0  0  0
  -28.4578  -20.0029   18.7671 F   0  0  0  0  0  0  0  0  0  0  0  0
  1  2  1  0  0  0  0
  1  5  2  0  0  0  0
  2  6  2  0  0  0  0
  3  8  2  0  0  0  0
  3 16  1  0  0  0  0
  4  9  1  0  0  0  0
  4 16  2  0  0  0  0
  5 18  1  0  0  0  0
  6 20  1  0  0  0  0
  7 10  2  0  0  0  0
  7 19  1  0  0  0  0
  8 24  1  0  0  0  0
  9 24  2  0  0  0  0
 10 25  1  0  0  0  0
 11 12  2  0  0  0  0
 11 26  1  0  0  0  0
 12 27  1  0  0  0  0
 13 21  1  0  0  0  0
 13 25  2  0  0  0  0
 14 22  1  0  0  0  0
 14 23  2  0  0  0  0
 15 27  2  0  0  0  0
 15 28  1  0  0  0  0
 16 29  1  0  0  0  0
 17 29  1  0  0  0  0
 17 32  2  0  0  0  0
 17 33  1  0  0  0  0
 18 20  2  0  0  0  0
 18 38  1  0  0  0  0
 19 21  2  0  0  0  0
 19 39  1  0  0  0  0
 20 47  1  0  0  0  0
 21 40  1  0  0  0  0
 22 30  2  0  0  0  0
 22 50  1  0  0  0  0
 23 31  1  0  0  0  0
 23 57  1  0  0  0  0
 24 86  1  0  0  0  0
 25 87  1  0  0  0  0
 26 28  2  0  0  0  0
 26 86  1  0  0  0  0
 27 88  1  0  0  0  0
 28 89  1  0  0  0  0
 29 70  2  0  0  0  0
 30 58  1  0  0  0  0
 30 71  1  0  0  0  0
 31 51  1  0  0  0  0
 31 71  2  0  0  0  0
 32 72  1  0  0  0  0
 32 75  1  0  0  0  0
 33 76  1  0  0  0  0
 33 81  2  0  0  0  0
 34 48  1  0  0  0  0
 34 77  1  0  0  0  0
 34 82  2  0  0  0  0
 35 67  1  0  0  0  0
 35 73  1  0  0  0  0
 35 83  2  0  0  0  0
 36 68  1  0  0  0  0
 36 78  1  0  0  0  0
 36 84  2  0  0  0  0
 37 74  1  0  0  0  0
 37 79  1  0  0  0  0
 37 85  2  0  0  0  0
 38 41  1  0  0  0  0
 39 48  1  0  0  0  0
 40 73  1  0  0  0  0
 41 43  1  0  0  0  0
 42 44  1  0  0  0  0
 42 45  1  0  0  0  0
 43 47  1  0  0  0  0
 44 49  1  0  0  0  0
 45 74  1  0  0  0  0
 46 49  1  0  0  0  0
 46 74  1  0  0  0  0
 47 77  1  0  0  0  0
 48 73  1  0  0  0  0
 49 72  1  0  0  0  0
 52 68  1  0  0  0  0
 53 69  1  0  0  0  0
 54 69  1  0  0  0  0
 55 69  1  0  0  0  0
 56 80  1  0  0  0  0
 57 59  1  0  0  0  0
 58 87  1  0  0  0  0
 59 60  1  0  0  0  0
 60 61  1  0  0  0  0
 61 62  1  0  0  0  0
 62 63  1  0  0  0  0
 63 64  1  0  0  0  0
 64 65  1  0  0  0  0
 65 66  1  0  0  0  0
 66 79  1  0  0  0  0
 67 69  1  0  0  0  0
 67 78  1  0  0  0  0
 68 80  1  0  0  0  0
 70 72  1  0  0  0  0
M  CHG  1  80   1
M  ISO  4  37 100  58 101  79 100  87 101
M  END
> <Batch ID>
0038

> <Smiles>
CNC(C)C(=O)NC(C(=O)N1Cc2cc([101O:1][101CH2:1]c3nc(C)c(CCCCCCCCC[100NH:0][100C:0](=O)N4CCCC(n5nc(-c6ccc(Oc7ccc(F)cc7F)cc6)c(C(N)=O)c5N)C4)cc3C)ccc2CC1C(=O)NC1CCCc2ccccc21)C(C)(C)C

> <Shape>
0.235

> <Color>
0.060

> <Negative vol penalty>
0.000

$$$$

  -OEChem-04052317013D

 83 91  0     1  0  0  0  0  0999 V2000
  -29.4152  -36.1936   23.4948 C   0  0  0  0  0  0  0  0  0  0  0  0
  -29.4008  -35.3269   22.4067 C   0  0  0  0  0  0  0  0  0  0  0  0
  -22.6448  -10.5244   20.7594 C   0  0  0  0  0  0  0  0  0  0  0  0
  -24.4695   -8.9526   20.9517 C   0  0  0  0  0  0  0  0  0  0  0  0
  -28.9172  -35.7721   24.7269 C   0  0  0  0  0  0  0  0  0  0  0  0
  -28.8893  -34.0377   22.5504 C   0  0  0  0  0  0  0  0  0  0  0  0
  -25.8239  -30.8037   18.3491 C   0  0  0  0  0  0  0  0  0  0  0  0
  -21.7345   -9.4990   21.0150 C   0  0  0  0  0  0  0  0  0  0  0  0
  -23.5592   -7.9271   21.2073 C   0  0  0  0  0  0  0  0  0  0  0  0
  -26.2206  -29.8043   17.4617 C   0  0  0  0  0  0  0  0  0  0  0  0
  -21.7343   -6.8139   23.8247 C   0  0  0  0  0  0  0  0  0  0  0  0
  -22.0249   -5.9369   24.8697 C   0  0  0  0  0  0  0  0  0  0  0  0
  -25.4802  -28.1268   19.0291 C   0  0  0  0  0  0  0  0  0  0  0  0
  -22.0303   -4.0870   23.3156 C   0  0  0  0  0  0  0  0  0  0  0  0
  -24.0124  -10.2512   20.7277 C   0  0  0  0  0  0  0  0  0  0  0  0
  -25.0256  -12.1145   19.3101 C   0  0  0  0  0  0  0  0  0  0  0  0
  -28.3904  -34.4803   24.8834 C   0  0  0  0  0  0  0  0  0  0  0  0
  -25.2614  -30.4715   19.5900 C   0  0  0  0  0  0  0  0  0  0  0  0
  -28.3850  -33.5980   23.7861 C   0  0  0  0  0  0  0  0  0  0  0  0
  -25.0748  -29.1239   19.9295 C   0  0  0  0  0  0  0  0  0  0  0  0
  -22.1917   -8.2004   21.2390 C   0  0  0  0  0  0  0  0  0  0  0  0
  -26.0514  -28.4656   17.8028 C   0  0  0  0  0  0  0  0  0  0  0  0
  -21.5915   -6.3274   22.5252 C   0  0  0  0  0  0  0  0  0  0  0  0
  -22.1730   -4.5734   24.6151 C   0  0  0  0  0  0  0  0  0  0  0  0
  -21.7396   -4.9640   22.2707 C   0  0  0  0  0  0  0  0  0  0  0  0
  -24.9532  -11.3100   20.4631 C   0  0  0  0  0  0  0  0  0  0  0  0
  -26.0807  -12.9610   19.5478 C   0  0  0  0  0  0  0  0  0  0  0  0
  -24.2117  -12.0981   18.1299 C   0  0  0  0  0  0  0  0  0  0  0  0
  -26.0739  -30.9596   22.6240 C   0  0  0  0  0  0  0  0  0  0  0  0
  -28.8285  -16.3859   23.0132 C   0  0  0  0  0  0  0  0  0  0  0  0
  -23.1717  -29.6334   23.2078 C   0  0  0  0  0  0  0  0  0  0  0  0
  -20.6391  -27.6153   22.1309 C   0  0  0  0  0  0  0  0  0  0  0  0
  -27.9067  -34.0538   26.2467 C   0  0  0  0  0  0  0  0  0  0  0  0
  -24.8141  -31.5616   20.5249 C   0  0  0  0  0  0  0  0  0  0  0  0
  -24.4572  -28.7147   21.2408 C   0  0  0  0  0  0  0  0  0  0  0  0
  -27.0385  -32.7985   26.2198 C   0  0  0  0  0  0  0  0  0  0  0  0
  -29.6201  -12.8938   23.1501 C   0  0  0  0  0  0  0  0  0  0  0  0
  -27.6802  -31.7242   25.3475 C   0  0  0  0  0  0  0  0  0  0  0  0
  -27.8753  -23.4751   20.7280 C   0  0  0  0  0  0  0  0  0  0  0  0
  -28.0715  -21.7818   18.8648 C   0  0  0  0  0  0  0  0  0  0  0  0
  -27.1751  -24.4423   19.7751 C   0  0  0  0  0  0  0  0  0  0  0  0
  -27.3709  -22.7489   17.9122 C   0  0  0  0  0  0  0  0  0  0  0  0
  -28.4669  -12.2345   22.3948 C   0  0  0  0  0  0  0  0  0  0  0  0
  -29.1483  -14.1138   23.9350 C   0  0  0  0  0  0  0  0  0  0  0  0
  -27.2849  -14.4763   22.3482 C   0  0  0  0  0  0  0  0  0  0  0  0
  -27.8156  -32.2002   23.8961 C   0  0  1  0  0  0  0  0  0  0  0  0
  -24.7253  -31.1038   21.9774 C   0  0  1  0  0  0  0  0  0  0  0  0
  -27.6481  -22.0137   20.3208 C   0  0  0  0  0  0  0  0  0  0  0  0
  -27.5987  -24.2102   18.3193 C   0  0  0  0  0  0  0  0  0  0  0  0
  -27.7241  -13.2576   21.5174 C   0  0  2  0  0  0  0  0  0  0  0  0
  -18.4164  -26.6935   22.8431 C   0  0  0  0  0  0  0  0  0  0  0  0
  -28.6523  -26.6746   16.4965 C   0  0  0  0  0  0  0  0  0  0  0  0
  -24.5854  -27.6572   25.0534 C   0  0  0  0  0  0  0  0  0  0  0  0
  -22.5346  -26.2232   24.9739 C   0  0  0  0  0  0  0  0  0  0  0  0
  -22.4084  -28.5255   25.9259 C   0  0  0  0  0  0  0  0  0  0  0  0
  -19.2443  -28.9148   19.8671 C   0  0  0  0  0  0  0  0  0  0  0  0
  -28.0406  -17.2894   22.0983 C   0  0  0  0  0  0  0  0  0  0  0  0
  -28.3995  -21.0697   21.2575 C   0  0  0  0  0  0  0  0  0  0  0  0
  -26.8486  -25.1546   17.3819 C   0  0  0  0  0  0  0  0  0  0  0  0
  -28.5855  -18.7138   22.1340 C   0  0  0  0  0  0  0  0  0  0  0  0
  -27.8473  -19.6492   21.1714 C   0  0  0  0  0  0  0  0  0  0  0  0
  -22.6627  -28.2293   23.4280 C   0  0  1  0  0  0  0  0  0  0  0  0
  -19.1342  -27.8135   22.1063 C   0  0  2  0  0  0  0  0  0  0  0  0
  -27.4296  -26.5701   17.3981 C   0  0  2  0  0  0  0  0  0  1  0  0
  -23.0612  -27.6662   24.8213 C   0  0  0  0  0  0  0  0  0  0  0  0
  -25.8880  -11.6177   21.3661 N   0  0  0  0  0  0  0  0  0  0  0  0
  -26.5579  -12.6249   20.7805 N   0  0  0  0  0  0  0  0  0  0  0  0
  -24.0418  -29.8171   22.1238 N   0  0  0  0  0  0  0  0  0  0  0  0
  -28.4281  -15.0509   23.0710 N   0  0  0  0  0  0  0  0  0  0  0  0
  -26.6377  -13.9525   18.8204 N   0  0  0  0  0  0  0  0  0  0  0  0
  -24.6005  -11.2784   17.0615 N   0  0  0  0  0  0  0  0  0  0  0  0
  -26.5408  -32.1176   23.2161 N   0  0  0  0  0  0  0  0  0  0  0  0
  -21.2239  -28.2749   23.1912 N   0  0  0  0  0  0  0  0  0  0  0  0
  -18.6388  -27.8448   20.7011 N   0  3  0  0  0  0  0  0  0  0  0  0
  -23.1795  -12.8022   18.0194 O   0  0  0  0  0  0  0  0  0  0  0  0
  -26.6478  -29.8773   22.5896 O   0  0  0  0  0  0  0  0  0  0  0  0
  -29.7730  -16.8539   23.6543 O   0  0  0  0  0  0  0  0  0  0  0  0
  -22.8051  -30.5353   23.9652 O   0  0  0  0  0  0  0  0  0  0  0  0
  -21.2357  -26.9395   21.2955 O   0  0  0  0  0  0  0  0  0  0  0  0
  -21.3037   -7.1995   21.4887 O   0  0  0  0  0  0  0  0  0  0  0  0
  -26.4384  -27.4882   16.9387 O   0  0  0  0  0  0  0  0  0  1  0  0
  -22.4537   -3.7316   25.6185 F   0  0  0  0  0  0  0  0  0  0  0  0
  -21.6048   -4.4910   21.0241 F   0  0  0  0  0  0  0  0  0  0  0  0
  1  2  1  0  0  0  0
  1  5  2  0  0  0  0
  2  6  2  0  0  0  0
  3  8  2  0  0  0  0
  3 15  1  0  0  0  0
  4  9  1  0  0  0  0
  4 15  2  0  0  0  0
  5 17  1  0  0  0  0
  6 19  1  0  0  0  0
  7 10  2  0  0  0  0
  7 18  1  0  0  0  0
  8 21  1  0  0  0  0
  9 21  2  0  0  0  0
 10 22  1  0  0  0  0
 11 12  2  0  0  0  0
 11 23  1  0  0  0  0
 12 24  1  0  0  0  0
 13 20  1  0  0  0  0
 13 22  2  0  0  0  0
 14 24  2  0  0  0  0
 14 25  1  0  0  0  0
 15 26  1  0  0  0  0
 16 26  1  0  0  0  0
 16 27  2  0  0  0  0
 16 28  1  0  0  0  0
 17 19  2  0  0  0  0
 17 33  1  0  0  0  0
 18 20  2  0  0  0  0
 18 34  1  0  0  0  0
 19 46  1  0  0  0  0
 20 35  1  0  0  0  0
 21 80  1  0  0  0  0
 22 81  1  0  0  0  0
 23 25  2  0  0  0  0
 23 80  1  0  0  0  0
 24 82  1  0  0  0  0
 25 83  1  0  0  0  0
 26 66  2  0  0  0  0
 27 67  1  0  0  0  0
 27 70  1  0  0  0  0
 28 71  1  0  0  0  0
 28 75  2  0  0  0  0
 29 47  1  0  0  0  0
 29 72  1  0  0  0  0
 29 76  2  0  0  0  0
 30 57  1  0  0  0  0
 30 69  1  0  0  0  0
 30 77  2  0  0  0  0
 31 62  1  0  0  0  0
 31 68  1  0  0  0  0
 31 78  2  0  0  0  0
 32 63  1  0  0  0  0
 32 73  1  0  0  0  0
 32 79  2  0  0  0  0
 33 36  1  0  0  0  0
 34 47  1  0  0  0  0
 35 68  1  0  0  0  0
 36 38  1  0  0  0  0
 37 43  1  0  0  0  0
 37 44  1  0  0  0  0
 38 46  1  0  0  0  0
 39 41  1  0  0  0  0
 39 48  1  0  0  0  0
 40 42  1  0  0  0  0
 40 48  1  0  0  0  0
 41 49  1  0  0  0  0
 42 49  1  0  0  0  0
 43 50  1  0  0  0  0
 44 69  1  0  0  0  0
 45 50  1  0  0  0  0
 45 69  1  0  0  0  0
 46 72  1  0  0  0  0
 47 68  1  0  0  0  0
 48 58  1  0  0  0  0
 49 59  1  0  0  0  0
 50 67  1  0  0  0  0
 51 63  1  0  0  0  0
 52 64  1  0  0  0  0
 53 65  1  0  0  0  0
 54 65  1  0  0  0  0
 55 65  1  0  0  0  0
 56 74  1  0  0  0  0
 57 60  1  0  0  0  0
 58 61  1  0  0  0  0
 59 64  1  0  0  0  0
 60 61  1  0  0  0  0
 62 65  1  0  0  0  0
 62 73  1  0  0  0  0
 63 74  1  0  0  0  0
 64 81  1  0  0  0  0
 66 67  1  0  0  0  0
M  CHG  1  74   1
M  ISO  4  30 100  57 100  64 101  81 101
M  END
> <Batch ID>
0038

> <Smiles>
CNC(C)C(=O)NC(C(=O)N1Cc2cc([101O:1][101CH:1](C)CC3CCC(CCC[100CH2:0][100C:0](=O)N4CCCC(n5nc(-c6ccc(Oc7ccc(F)cc7F)cc6)c(C(N)=O)c5N)C4)CC3)ccc2CC1C(=O)NC1CCCc2ccccc21)C(C)(C)C

> <Shape>
0.284

> <Color>
0.102

> <Negative vol penalty>
0.000

$$$$

  -OEChem-04052317013D

 83 91  0     1  0  0  0  0  0999 V2000
  -17.3514  -32.2112   23.0006 C   0  0  0  0  0  0  0  0  0  0  0  0
  -18.6450  -32.5741   23.3616 C   0  0  0  0  0  0  0  0  0  0  0  0
  -28.4300  -17.3697   20.0838 C   0  0  0  0  0  0  0  0  0  0  0  0
  -26.7133  -19.0589   19.8917 C   0  0  0  0  0  0  0  0  0  0  0  0
  -17.0480  -30.8736   22.7503 C   0  0  0  0  0  0  0  0  0  0  0  0
  -19.6358  -31.5993   23.4736 C   0  0  0  0  0  0  0  0  0  0  0  0
  -25.5762  -32.2151   22.1179 C   0  0  0  0  0  0  0  0  0  0  0  0
  -27.5084  -16.4993   20.6657 C   0  0  0  0  0  0  0  0  0  0  0  0
  -25.7917  -18.1884   20.4736 C   0  0  0  0  0  0  0  0  0  0  0  0
  -26.6978  -32.4631   22.9080 C   0  0  0  0  0  0  0  0  0  0  0  0
  -25.0015  -14.4757   19.6395 C   0  0  0  0  0  0  0  0  0  0  0  0
  -24.9809  -13.1563   19.1873 C   0  0  0  0  0  0  0  0  0  0  0  0
  -27.1505  -30.0954   22.9980 C   0  0  0  0  0  0  0  0  0  0  0  0
  -25.4978  -12.3838   21.4173 C   0  0  0  0  0  0  0  0  0  0  0  0
  -31.7637  -30.4385   23.8721 C   0  0  0  0  0  0  0  0  0  0  0  0
  -28.0325  -18.6495   19.6968 C   0  0  0  0  0  0  0  0  0  0  0  0
  -29.2744  -19.6887   17.7257 C   0  0  0  0  0  0  0  0  0  0  0  0
  -18.0378  -29.8832   22.8499 C   0  0  0  0  0  0  0  0  0  0  0  0
  -25.2265  -30.9023   21.7704 C   0  0  0  0  0  0  0  0  0  0  0  0
  -19.3450  -30.2470   23.2257 C   0  0  0  0  0  0  0  0  0  0  0  0
  -26.0255  -29.8336   22.2013 C   0  0  0  0  0  0  0  0  0  0  0  0
  -26.1893  -16.9086   20.8606 C   0  0  0  0  0  0  0  0  0  0  0  0
  -27.4835  -31.4030   23.3506 C   0  0  0  0  0  0  0  0  0  0  0  0
  -25.2704  -14.7491   20.9807 C   0  0  0  0  0  0  0  0  0  0  0  0
  -25.2290  -12.1104   20.0761 C   0  0  0  0  0  0  0  0  0  0  0  0
  -25.5185  -13.7032   21.8695 C   0  0  0  0  0  0  0  0  0  0  0  0
  -28.9841  -19.5493   19.0961 C   0  0  0  0  0  0  0  0  0  0  0  0
  -32.3906  -29.8330   22.8199 C   0  0  0  0  0  0  0  0  0  0  0  0
  -30.2393  -20.6650   17.6766 C   0  0  0  0  0  0  0  0  0  0  0  0
  -31.8385  -31.8845   22.1976 C   0  0  0  0  0  0  0  0  0  0  0  0
  -28.7212  -18.9977   16.5978 C   0  0  0  0  0  0  0  0  0  0  0  0
  -22.7124  -29.0333   22.3088 C   0  0  0  0  0  0  0  0  0  0  0  0
  -31.4791  -25.1047   21.4219 C   0  0  0  0  0  0  0  0  0  0  0  0
  -24.2685  -27.0207   20.2962 C   0  0  0  0  0  0  0  0  0  0  0  0
  -27.2220  -26.0238   18.9071 C   0  0  0  0  0  0  0  0  0  0  0  0
  -17.6512  -28.4443   22.6157 C   0  0  0  0  0  0  0  0  0  0  0  0
  -24.0288  -30.6535   20.8952 C   0  0  0  0  0  0  0  0  0  0  0  0
  -25.7047  -28.4073   21.8390 C   0  0  0  0  0  0  0  0  0  0  0  0
  -18.8461  -27.5212   22.3913 C   0  0  0  0  0  0  0  0  0  0  0  0
  -33.7946  -22.5592   20.2447 C   0  0  0  0  0  0  0  0  0  0  0  0
  -19.9275  -27.7846   23.4344 C   0  0  0  0  0  0  0  0  0  0  0  0
  -32.8350  -21.4945   19.7149 C   0  0  0  0  0  0  0  0  0  0  0  0
  -33.2291  -23.2617   21.4762 C   0  0  0  0  0  0  0  0  0  0  0  0
  -30.9154  -22.7968   20.7310 C   0  0  0  0  0  0  0  0  0  0  0  0
  -20.4529  -29.2217   23.3335 C   0  0  1  0  0  0  0  0  0  0  0  0
  -23.4739  -29.2388   21.0299 C   0  0  1  0  0  0  0  0  0  0  0  0
  -31.4354  -22.0855   19.4706 C   0  0  2  0  0  0  0  0  0  0  0  0
  -30.7031  -34.1046   19.2502 C   0  0  0  0  0  0  0  0  0  0  0  0
  -28.1822  -24.3277   17.3264 C   0  0  0  0  0  0  0  0  0  0  0  0
  -24.0240  -24.8761   22.4528 C   0  0  0  0  0  0  0  0  0  0  0  0
  -25.7801  -23.5613   21.2461 C   0  0  0  0  0  0  0  0  0  0  0  0
  -23.6102  -24.0652   20.1235 C   0  0  0  0  0  0  0  0  0  0  0  0
  -28.1968  -28.1233   17.0630 C   0  0  0  0  0  0  0  0  0  0  0  0
  -32.9596  -28.4907   22.6742 C   0  0  0  0  0  0  0  0  0  0  0  0
  -31.6791  -33.1087   21.3737 C   0  0  0  0  0  0  0  0  0  0  0  0
  -32.5191  -26.0534   21.9625 C   0  0  0  0  0  0  0  0  0  0  0  0
  -30.8966  -32.8424   20.0755 C   0  0  0  0  0  0  0  0  0  0  0  0
  -31.9401  -27.4532   22.1428 C   0  0  0  0  0  0  0  0  0  0  0  0
  -30.7233  -32.7370   24.3036 C   0  0  0  0  0  0  0  0  0  0  0  0
  -29.2536  -32.8838   23.9250 C   0  0  0  0  0  0  0  0  0  1  0  0
  -25.2914  -25.9229   20.4618 C   0  0  1  0  0  0  0  0  0  0  0  0
  -27.6104  -25.7296   17.4694 C   0  0  2  0  0  0  0  0  0  0  0  0
  -24.6816  -24.6330   21.0797 C   0  0  0  0  0  0  0  0  0  0  0  0
  -29.7063  -20.3711   19.8623 N   0  0  0  0  0  0  0  0  0  0  0  0
  -31.4334  -31.7068   23.4593 N   0  0  0  0  0  0  0  0  0  0  0  0
  -30.4600  -21.0362   18.9703 N   0  0  0  0  0  0  0  0  0  0  0  0
  -32.4227  -30.7505   21.7975 N   0  3  0  0  0  0  0  0  0  0  0  0
  -24.5198  -28.2149   20.9865 N   0  0  0  0  0  0  0  0  0  0  0  0
  -31.8842  -23.7865   21.2110 N   0  0  0  0  0  0  0  0  0  0  0  0
  -30.9120  -21.2334   16.6535 N   0  0  0  0  0  0  0  0  0  0  0  0
  -27.7389  -18.0244   16.8266 N   0  0  0  0  0  0  0  0  0  0  0  0
  -21.3697  -29.3477   22.2208 N   0  0  0  0  0  0  0  0  0  0  0  0
  -25.8971  -25.7280   19.1490 N   0  0  0  0  0  0  0  0  0  0  0  0
  -28.6344  -26.7050   16.9995 N   0  3  0  0  0  0  0  0  0  0  0  0
  -29.0988  -19.2245   15.4233 O   0  0  0  0  0  0  0  0  0  0  0  0
  -23.2993  -28.6188   23.3015 O   0  0  0  0  0  0  0  0  0  0  0  0
  -30.3423  -25.5251   21.1919 O   0  0  0  0  0  0  0  0  0  0  0  0
  -23.2863  -26.8284   19.5751 O   0  0  0  0  0  0  0  0  0  0  0  0
  -28.0155  -26.4678   19.7339 O   0  0  0  0  0  0  0  0  0  0  0  0
  -25.2897  -16.0594   21.4283 O   0  0  0  0  0  0  0  0  0  0  0  0
  -28.5784  -31.6422   24.1225 O   0  0  0  0  0  0  0  0  0  1  0  0
  -25.2076  -10.8434   19.6420 F   0  0  0  0  0  0  0  0  0  0  0  0
  -25.7762  -13.9596   23.1594 F   0  0  0  0  0  0  0  0  0  0  0  0
  1  2  1  0  0  0  0
  1  5  2  0  0  0  0
  2  6  2  0  0  0  0
  3  8  2  0  0  0  0
  3 16  1  0  0  0  0
  4  9  1  0  0  0  0
  4 16  2  0  0  0  0
  5 18  1  0  0  0  0
  6 20  1  0  0  0  0
  7 10  2  0  0  0  0
  7 19  1  0  0  0  0
  8 22  1  0  0  0  0
  9 22  2  0  0  0  0
 10 23  1  0  0  0  0
 11 12  2  0  0  0  0
 11 24  1  0  0  0  0
 12 25  1  0  0  0  0
 13 21  1  0  0  0  0
 13 23  2  0  0  0  0
 14 25  2  0  0  0  0
 14 26  1  0  0  0  0
 15 28  2  0  0  0  0
 15 65  1  0  0  0  0
 16 27  1  0  0  0  0
 17 27  1  0  0  0  0
 17 29  2  0  0  0  0
 17 31  1  0  0  0  0
 18 20  2  0  0  0  0
 18 36  1  0  0  0  0
 19 21  2  0  0  0  0
 19 37  1  0  0  0  0
 20 45  1  0  0  0  0
 21 38  1  0  0  0  0
 22 80  1  0  0  0  0
 23 81  1  0  0  0  0
 24 26  2  0  0  0  0
 24 80  1  0  0  0  0
 25 82  1  0  0  0  0
 26 83  1  0  0  0  0
 27 64  2  0  0  0  0
 28 54  1  0  0  0  0
 28 67  1  0  0  0  0
 29 66  1  0  0  0  0
 29 70  1  0  0  0  0
 30 55  1  0  0  0  0
 30 65  1  0  0  0  0
 30 67  2  0  0  0  0
 31 71  1  0  0  0  0
 31 75  2  0  0  0  0
 32 46  1  0  0  0  0
 32 72  1  0  0  0  0
 32 76  2  0  0  0  0
 33 56  1  0  0  0  0
 33 69  1  0  0  0  0
 33 77  2  0  0  0  0
 34 61  1  0  0  0  0
 34 68  1  0  0  0  0
 34 78  2  0  0  0  0
 35 62  1  0  0  0  0
 35 73  1  0  0  0  0
 35 79  2  0  0  0  0
 36 39  1  0  0  0  0
 37 46  1  0  0  0  0
 38 68  1  0  0  0  0
 39 41  1  0  0  0  0
 40 42  1  0  0  0  0
 40 43  1  0  0  0  0
 41 45  1  0  0  0  0
 42 47  1  0  0  0  0
 43 69  1  0  0  0  0
 44 47  1  0  0  0  0
 44 69  1  0  0  0  0
 45 72  1  0  0  0  0
 46 68  1  0  0  0  0
 47 66  1  0  0  0  0
 48 57  1  0  0  0  0
 49 62  1  0  0  0  0
 50 63  1  0  0  0  0
 51 63  1  0  0  0  0
 52 63  1  0  0  0  0
 53 74  1  0  0  0  0
 54 58  1  0  0  0  0
 55 57  1  0  0  0  0
 56 58  1  0  0  0  0
 59 60  1  0  0  0  0
 59 65  1  0  0  0  0
 60 81  1  0  0  0  0
 61 63  1  0  0  0  0
 61 73  1  0  0  0  0
 62 74  1  0  0  0  0
 64 66  1  0  0  0  0
M  CHG  2  67   1  74   1
M  ISO  4  33 100  56 100  60 101  81 101
M  END
> <Batch ID>
0038

> <Smiles>
CCCc1nc(CC[100CH2:0][100C:0](=O)N2CCCC(n3nc(-c4ccc(Oc5ccc(F)cc5F)cc4)c(C(N)=O)c3N)C2)cn1C[101CH2:1][101O:1]c1ccc2c(c1)CN(C(=O)C(NC(=O)C(C)NC)C(C)(C)C)C(C(=O)NC1CCCc3ccccc31)C2

> <Shape>
0.211

> <Color>
0.102

> <Negative vol penalty>
0.000

$$$$

  -OEChem-04052317013D

 86 94  0     1  0  0  0  0  0999 V2000
  -18.0978  -24.9588   20.9660 C   0  0  0  0  0  0  0  0  0  0  0  0
  -19.4257  -24.9609   20.5510 C   0  0  0  0  0  0  0  0  0  0  0  0
  -24.6060  -14.0496   22.1689 C   0  0  0  0  0  0  0  0  0  0  0  0
  -25.6884  -14.5138   20.0594 C   0  0  0  0  0  0  0  0  0  0  0  0
  -17.6453  -25.9321   21.8559 C   0  0  0  0  0  0  0  0  0  0  0  0
  -20.3016  -25.9369   21.0249 C   0  0  0  0  0  0  0  0  0  0  0  0
  -24.7749  -24.0189   22.4235 C   0  0  0  0  0  0  0  0  0  0  0  0
  -24.7748  -12.6817   21.9545 C   0  0  0  0  0  0  0  0  0  0  0  0
  -25.8573  -13.1459   19.8450 C   0  0  0  0  0  0  0  0  0  0  0  0
  -25.6800  -23.7093   21.4093 C   0  0  0  0  0  0  0  0  0  0  0  0
  -24.5998   -9.0531   21.7936 C   0  0  0  0  0  0  0  0  0  0  0  0
  -23.5149   -8.2157   22.0530 C   0  0  0  0  0  0  0  0  0  0  0  0
  -26.8510  -25.7756   21.8319 C   0  0  0  0  0  0  0  0  0  0  0  0
  -30.8425  -24.5106   18.9272 C   0  0  0  0  0  0  0  0  0  0  0  0
  -22.2052   -9.4021   20.4055 C   0  0  0  0  0  0  0  0  0  0  0  0
  -25.0627  -14.9657   21.2213 C   0  0  0  0  0  0  0  0  0  0  0  0
  -25.7789  -17.2543   22.0914 C   0  0  0  0  0  0  0  0  0  0  0  0
  -18.5185  -26.9147   22.3485 C   0  0  0  0  0  0  0  0  0  0  0  0
  -24.8947  -25.2163   23.1434 C   0  0  0  0  0  0  0  0  0  0  0  0
  -19.8600  -26.9250   21.9212 C   0  0  0  0  0  0  0  0  0  0  0  0
  -25.9476  -26.0968   22.8565 C   0  0  0  0  0  0  0  0  0  0  0  0
  -31.6220  -24.0542   17.8702 C   0  0  0  0  0  0  0  0  0  0  0  0
  -29.4855  -24.7434   18.7331 C   0  0  0  0  0  0  0  0  0  0  0  0
  -25.4005  -12.2299   20.7926 C   0  0  0  0  0  0  0  0  0  0  0  0
  -26.7166  -24.5891   21.1114 C   0  0  0  0  0  0  0  0  0  0  0  0
  -24.4874  -10.0651   20.8402 C   0  0  0  0  0  0  0  0  0  0  0  0
  -22.3176   -8.3901   21.3589 C   0  0  0  0  0  0  0  0  0  0  0  0
  -23.2901  -10.2396   20.1461 C   0  0  0  0  0  0  0  0  0  0  0  0
  -24.8881  -16.3788   21.4419 C   0  0  0  0  0  0  0  0  0  0  0  0
  -31.0015  -23.8477   16.6486 C   0  0  0  0  0  0  0  0  0  0  0  0
  -28.9607  -24.5062   17.4729 C   0  0  0  0  0  0  0  0  0  0  0  0
  -25.1565  -18.4776   22.0403 C   0  0  0  0  0  0  0  0  0  0  0  0
  -27.0549  -16.9858   22.6875 C   0  0  0  0  0  0  0  0  0  0  0  0
  -23.0658  -27.7848   23.5451 C   0  0  0  0  0  0  0  0  0  0  0  0
  -25.3625  -28.6054   25.6837 C   0  0  0  0  0  0  0  0  0  0  0  0
  -28.5966  -28.2885   26.7265 C   0  0  0  0  0  0  0  0  0  0  0  0
  -21.0731  -20.8235   18.3424 C   0  0  0  0  0  0  0  0  0  0  0  0
  -17.9719  -27.9745   23.2720 C   0  0  0  0  0  0  0  0  0  0  0  0
  -23.9260  -25.5230   24.2524 C   0  0  0  0  0  0  0  0  0  0  0  0
  -26.1321  -27.3857   23.6135 C   0  0  0  0  0  0  0  0  0  0  0  0
  -19.0548  -28.7493   24.0184 C   0  0  0  0  0  0  0  0  0  0  0  0
  -20.8058  -20.4612   21.8743 C   0  0  0  0  0  0  0  0  0  0  0  0
  -20.1640  -29.1732   23.0609 C   0  0  0  0  0  0  0  0  0  0  0  0
  -21.9021  -19.4528   22.2226 C   0  0  0  0  0  0  0  0  0  0  0  0
  -20.1466  -20.1381   20.5352 C   0  0  0  0  0  0  0  0  0  0  0  0
  -22.1779  -18.9829   19.7524 C   0  0  0  0  0  0  0  0  0  0  0  0
  -20.8466  -27.9524   22.4323 C   0  0  1  0  0  0  0  0  0  0  0  0
  -23.8392  -27.0115   24.5753 C   0  0  1  0  0  0  0  0  0  0  0  0
  -22.9101  -19.2993   21.0677 C   0  0  2  0  0  0  0  0  0  0  0  0
  -33.0764  -23.8028   18.0716 C   0  0  0  0  0  0  0  0  0  0  0  0
  -31.7886  -23.3592   15.4769 C   0  0  0  0  0  0  0  0  0  0  0  0
  -30.1900  -29.1117   28.4817 C   0  0  0  0  0  0  0  0  0  0  0  0
  -25.6105  -31.2645   24.2081 C   0  0  0  0  0  0  0  0  0  0  0  0
  -27.7985  -31.6257   25.3701 C   0  0  0  0  0  0  0  0  0  0  0  0
  -25.6966  -31.4429   26.7011 C   0  0  0  0  0  0  0  0  0  0  0  0
  -29.0227  -25.5580   27.7855 C   0  0  0  0  0  0  0  0  0  0  0  0
  -28.6387  -25.2362   19.8695 C   0  0  0  0  0  0  0  0  0  1  0  0
  -27.5090  -24.7379   17.2076 C   0  0  0  0  0  0  0  0  0  0  0  0
  -26.6652  -23.4532   17.1358 C   0  0  0  0  0  0  0  0  0  0  0  0
  -25.1965  -23.7251   16.7950 C   0  0  0  0  0  0  0  0  0  0  0  0
  -24.3975  -22.4224   16.7072 C   0  0  0  0  0  0  0  0  0  0  0  0
  -22.9383  -22.6915   16.3278 C   0  0  0  0  0  0  0  0  0  0  0  0
  -22.1270  -21.4094   16.1733 C   0  0  0  0  0  0  0  0  0  0  0  0
  -26.6609  -29.3727   25.6165 C   0  0  1  0  0  0  0  0  0  0  0  0
  -29.1917  -28.0302   28.0989 C   0  0  2  0  0  0  0  0  0  0  0  0
  -26.4373  -30.9032   25.4582 C   0  0  0  0  0  0  0  0  0  0  0  0
  -23.7838  -16.9937   21.0100 N   0  0  0  0  0  0  0  0  0  0  0  0
  -29.6862  -24.0627   16.4219 N   0  0  0  0  0  0  0  0  0  0  0  0
  -23.9765  -18.2686   21.3890 N   0  0  0  0  0  0  0  0  0  0  0  0
  -25.1554  -27.6439   24.6845 N   0  0  0  0  0  0  0  0  0  0  0  0
  -21.1567  -20.0072   19.4824 N   0  0  0  0  0  0  0  0  0  0  0  0
  -25.5088  -19.7009   22.4894 N   0  0  0  0  0  0  0  0  0  0  0  0
  -27.5462  -15.6737   22.6517 N   0  0  0  0  0  0  0  0  0  0  0  0
  -21.7663  -27.3479   23.3721 N   0  0  0  0  0  0  0  0  0  0  0  0
  -27.4178  -28.9993   26.8065 N   0  0  0  0  0  0  0  0  0  0  0  0
  -22.0739  -20.6397   17.3962 N   0  0  0  0  0  0  0  0  0  0  0  0
  -29.8922  -26.7150   28.1206 N   0  3  0  0  0  0  0  0  0  0  0  0
  -27.7317  -17.8796   23.2501 O   0  0  0  0  0  0  0  0  0  0  0  0
  -23.6073  -28.7104   22.9521 O   0  0  0  0  0  0  0  0  0  0  0  0
  -24.5648  -28.8452   26.5935 O   0  0  0  0  0  0  0  0  0  0  0  0
  -29.1265  -27.9019   25.6872 O   0  0  0  0  0  0  0  0  0  0  0  0
  -20.1762  -21.6584   18.1824 O   0  0  0  0  0  0  0  0  0  0  0  0
  -25.5656  -10.8951   20.5832 O   0  0  0  0  0  0  0  0  0  0  0  0
  -27.6011  -24.2896   20.1216 O   0  0  0  0  0  0  0  0  0  1  0  0
  -21.2764   -7.5849   21.6070 F   0  0  0  0  0  0  0  0  0  0  0  0
  -23.1765  -11.2093   19.2282 F   0  0  0  0  0  0  0  0  0  0  0  0
  1  2  1  0  0  0  0
  1  5  2  0  0  0  0
  2  6  2  0  0  0  0
  3  8  2  0  0  0  0
  3 16  1  0  0  0  0
  4  9  1  0  0  0  0
  4 16  2  0  0  0  0
  5 18  1  0  0  0  0
  6 20  1  0  0  0  0
  7 10  2  0  0  0  0
  7 19  1  0  0  0  0
  8 24  1  0  0  0  0
  9 24  2  0  0  0  0
 10 25  1  0  0  0  0
 11 12  2  0  0  0  0
 11 26  1  0  0  0  0
 12 27  1  0  0  0  0
 13 21  1  0  0  0  0
 13 25  2  0  0  0  0
 14 22  2  0  0  0  0
 14 23  1  0  0  0  0
 15 27  2  0  0  0  0
 15 28  1  0  0  0  0
 16 29  1  0  0  0  0
 17 29  1  0  0  0  0
 17 32  2  0  0  0  0
 17 33  1  0  0  0  0
 18 20  2  0  0  0  0
 18 38  1  0  0  0  0
 19 21  2  0  0  0  0
 19 39  1  0  0  0  0
 20 47  1  0  0  0  0
 21 40  1  0  0  0  0
 22 30  1  0  0  0  0
 22 50  1  0  0  0  0
 23 31  2  0  0  0  0
 23 57  1  0  0  0  0
 24 83  1  0  0  0  0
 25 84  1  0  0  0  0
 26 28  2  0  0  0  0
 26 83  1  0  0  0  0
 27 85  1  0  0  0  0
 28 86  1  0  0  0  0
 29 67  2  0  0  0  0
 30 51  1  0  0  0  0
 30 68  2  0  0  0  0
 31 58  1  0  0  0  0
 31 68  1  0  0  0  0
 32 69  1  0  0  0  0
 32 72  1  0  0  0  0
 33 73  1  0  0  0  0
 33 78  2  0  0  0  0
 34 48  1  0  0  0  0
 34 74  1  0  0  0  0
 34 79  2  0  0  0  0
 35 64  1  0  0  0  0
 35 70  1  0  0  0  0
 35 80  2  0  0  0  0
 36 65  1  0  0  0  0
 36 75  1  0  0  0  0
 36 81  2  0  0  0  0
 37 71  1  0  0  0  0
 37 76  1  0  0  0  0
 37 82  2  0  0  0  0
 38 41  1  0  0  0  0
 39 48  1  0  0  0  0
 40 70  1  0  0  0  0
 41 43  1  0  0  0  0
 42 44  1  0  0  0  0
 42 45  1  0  0  0  0
 43 47  1  0  0  0  0
 44 49  1  0  0  0  0
 45 71  1  0  0  0  0
 46 49  1  0  0  0  0
 46 71  1  0  0  0  0
 47 74  1  0  0  0  0
 48 70  1  0  0  0  0
 49 69  1  0  0  0  0
 52 65  1  0  0  0  0
 53 66  1  0  0  0  0
 54 66  1  0  0  0  0
 55 66  1  0  0  0  0
 56 77  1  0  0  0  0
 57 84  1  0  0  0  0
 58 59  1  0  0  0  0
 59 60  1  0  0  0  0
 60 61  1  0  0  0  0
 61 62  1  0  0  0  0
 62 63  1  0  0  0  0
 63 76  1  0  0  0  0
 64 66  1  0  0  0  0
 64 75  1  0  0  0  0
 65 77  1  0  0  0  0
 67 69  1  0  0  0  0
M  CHG  1  77   1
M  ISO  4  37 100  57 101  76 100  84 101
M  END
> <Batch ID>
0038

> <Smiles>
CNC(C)C(=O)NC(C(=O)N1Cc2cc([101O:1][101CH2:1]c3cc(C)c(C)nc3CCCCCC[100NH:0][100C:0](=O)N3CCCC(n4nc(-c5ccc(Oc6ccc(F)cc6F)cc5)c(C(N)=O)c4N)C3)ccc2CC1C(=O)NC1CCCc2ccccc21)C(C)(C)C

> <Shape>
0.198

> <Color>
0.086

> <Negative vol penalty>
0.000

$$$$

  -OEChem-04052317013D

 84 92  0     1  0  0  0  0  0999 V2000
  -27.0496  -33.3809   26.3263 C   0  0  0  0  0  0  0  0  0  0  0  0
  -27.9226  -32.6241   25.5513 C   0  0  0  0  0  0  0  0  0  0  0  0
  -26.8541  -12.8860   21.0055 C   0  0  0  0  0  0  0  0  0  0  0  0
  -26.9595  -13.0689   18.5987 C   0  0  0  0  0  0  0  0  0  0  0  0
  -25.7796  -32.8893   26.6250 C   0  0  0  0  0  0  0  0  0  0  0  0
  -27.5263  -31.3747   25.0755 C   0  0  0  0  0  0  0  0  0  0  0  0
  -29.0581  -28.8173   19.7258 C   0  0  0  0  0  0  0  0  0  0  0  0
  -26.2951  -11.6139   20.8844 C   0  0  0  0  0  0  0  0  0  0  0  0
  -26.4005  -11.7967   18.4776 C   0  0  0  0  0  0  0  0  0  0  0  0
  -30.0260  -27.8755   19.3794 C   0  0  0  0  0  0  0  0  0  0  0  0
  -23.2654  -10.2797   20.2020 C   0  0  0  0  0  0  0  0  0  0  0  0
  -22.1678   -9.9756   21.0071 C   0  0  0  0  0  0  0  0  0  0  0  0
  -28.3714  -26.1270   19.5341 C   0  0  0  0  0  0  0  0  0  0  0  0
  -23.4068   -8.1606   22.0110 C   0  0  0  0  0  0  0  0  0  0  0  0
  -29.2968  -24.1679   15.9910 C   0  0  0  0  0  0  0  0  0  0  0  0
  -27.1863  -13.6136   19.8627 C   0  0  0  0  0  0  0  0  0  0  0  0
  -29.1308  -15.2516   20.0714 C   0  0  0  0  0  0  0  0  0  0  0  0
  -25.3640  -31.6375   26.1446 C   0  0  0  0  0  0  0  0  0  0  0  0
  -27.7398  -28.4189   19.9901 C   0  0  0  0  0  0  0  0  0  0  0  0
  -26.2500  -30.8653   25.3693 C   0  0  0  0  0  0  0  0  0  0  0  0
  -27.3880  -27.0659   19.8812 C   0  0  0  0  0  0  0  0  0  0  0  0
  -29.5797  -22.8172   16.1147 C   0  0  0  0  0  0  0  0  0  0  0  0
  -30.6130  -23.3228   18.2269 C   0  0  0  0  0  0  0  0  0  0  0  0
  -26.0683  -11.0692   19.6204 C   0  0  0  0  0  0  0  0  0  0  0  0
  -29.6834  -26.5298   19.2863 C   0  0  0  0  0  0  0  0  0  0  0  0
  -24.4338   -9.5241   20.3013 C   0  0  0  0  0  0  0  0  0  0  0  0
  -22.2384   -8.9161   21.9116 C   0  0  0  0  0  0  0  0  0  0  0  0
  -24.5045   -8.4646   21.2058 C   0  0  0  0  0  0  0  0  0  0  0  0
  -30.2507  -22.3947   17.2570 C   0  0  0  0  0  0  0  0  0  0  0  0
  -27.7633  -14.9280   19.9871 C   0  0  0  0  0  0  0  0  0  0  0  0
  -30.2838  -24.6510   18.0087 C   0  0  0  0  0  0  0  0  0  1  0  0
  -29.1538  -16.6209   20.1756 C   0  0  0  0  0  0  0  0  0  0  0  0
  -30.2777  -14.3913   20.0567 C   0  0  0  0  0  0  0  0  0  0  0  0
  -25.8213  -28.5509   22.5210 C   0  0  0  0  0  0  0  0  0  0  0  0
  -23.6189  -27.4246   20.4226 C   0  0  0  0  0  0  0  0  0  0  0  0
  -22.9731  -25.7363   17.5279 C   0  0  0  0  0  0  0  0  0  0  0  0
  -25.3305  -20.9042   18.4764 C   0  0  0  0  0  0  0  0  0  0  0  0
  -23.9989  -31.1274   26.5333 C   0  0  0  0  0  0  0  0  0  0  0  0
  -26.7014  -29.4505   20.3365 C   0  0  0  0  0  0  0  0  0  0  0  0
  -25.9821  -26.5892   20.1352 C   0  0  0  0  0  0  0  0  0  0  0  0
  -23.5195  -29.9577   25.6777 C   0  0  0  0  0  0  0  0  0  0  0  0
  -26.5421  -20.2993   21.7693 C   0  0  0  0  0  0  0  0  0  0  0  0
  -24.6265  -28.9195   25.5241 C   0  0  0  0  0  0  0  0  0  0  0  0
  -27.1158  -18.8833   21.6935 C   0  0  0  0  0  0  0  0  0  0  0  0
  -25.2879  -20.4467   20.9106 C   0  0  0  0  0  0  0  0  0  0  0  0
  -26.0231  -18.6211   19.4273 C   0  0  0  0  0  0  0  0  0  0  0  0
  -25.8477  -29.5162   24.8141 C   0  0  1  0  0  0  0  0  0  0  0  0
  -25.5073  -28.8679   21.0862 C   0  0  1  0  0  0  0  0  0  0  0  0
  -27.3209  -18.4387   20.2329 C   0  0  2  0  0  0  0  0  0  0  0  0
  -30.4090  -22.2723   20.4943 C   0  0  0  0  0  0  0  0  0  0  0  0
  -21.0742  -24.9421   16.0923 C   0  0  0  0  0  0  0  0  0  0  0  0
  -23.0649  -25.1726   22.4054 C   0  0  0  0  0  0  0  0  0  0  0  0
  -21.9097  -23.9299   20.5643 C   0  0  0  0  0  0  0  0  0  0  0  0
  -21.0258  -26.1354   21.3239 C   0  0  0  0  0  0  0  0  0  0  0  0
  -23.8853  -27.3546   15.2240 C   0  0  0  0  0  0  0  0  0  0  0  0
  -29.1612  -21.8819   15.0319 C   0  0  0  0  0  0  0  0  0  0  0  0
  -31.3349  -22.9244   19.4717 C   0  0  0  0  0  0  0  0  0  0  0  0
  -27.9058  -21.0792   15.4088 C   0  0  0  0  0  0  0  0  0  0  0  0
  -26.7009  -21.9925   15.6538 C   0  0  0  0  0  0  0  0  0  0  0  0
  -25.4399  -21.2149   16.0166 C   0  0  0  0  0  0  0  0  0  0  0  0
  -23.1662  -26.0539   19.9807 C   0  0  1  0  0  0  0  0  0  0  0  0
  -22.0700  -26.0618   16.3519 C   0  0  2  0  0  0  0  0  0  0  0  0
  -22.3187  -25.3314   21.0656 C   0  0  0  0  0  0  0  0  0  0  0  0
  -29.6328  -25.0991   16.9118 N   0  0  0  0  0  0  0  0  0  0  0  0
  -26.9747  -16.0050   20.0339 N   0  0  0  0  0  0  0  0  0  0  0  0
  -27.8495  -17.0188   20.1488 N   0  0  0  0  0  0  0  0  0  0  0  0
  -25.0040  -27.6352   20.4769 N   0  0  0  0  0  0  0  0  0  0  0  0
  -25.5501  -20.0099   19.5372 N   0  0  0  0  0  0  0  0  0  0  0  0
  -30.1622  -17.5115   20.2867 N   0  0  0  0  0  0  0  0  0  0  0  0
  -30.0748  -13.0092   19.9436 N   0  0  0  0  0  0  0  0  0  0  0  0
  -25.6105  -29.6050   23.3892 N   0  0  0  0  0  0  0  0  0  0  0  0
  -22.4749  -26.2423   18.7099 N   0  0  0  0  0  0  0  0  0  0  0  0
  -25.6099  -20.4123   17.2073 N   0  0  0  0  0  0  0  0  0  0  0  0
  -22.8800  -26.2660   15.1178 N   0  3  0  0  0  0  0  0  0  0  0  0
  -31.4471  -14.8339   20.1579 O   0  0  0  0  0  0  0  0  0  0  0  0
  -26.2235  -27.4322   22.8186 O   0  0  0  0  0  0  0  0  0  0  0  0
  -22.7745  -28.2793   20.7022 O   0  0  0  0  0  0  0  0  0  0  0  0
  -24.0142  -25.0939   17.4104 O   0  0  0  0  0  0  0  0  0  0  0  0
  -24.9213  -22.0575   18.6482 O   0  0  0  0  0  0  0  0  0  0  0  0
  -25.5230   -9.8277   19.5019 O   0  0  0  0  0  0  0  0  0  0  0  0
  -30.6263  -25.6084   18.9490 O   0  0  0  0  0  0  0  0  0  1  0  0
  -21.1848   -8.6252   22.6858 F   0  0  0  0  0  0  0  0  0  0  0  0
  -25.6246   -7.7360   21.3065 F   0  0  0  0  0  0  0  0  0  0  0  0
  -30.6326  -20.7200   17.4677 Cl  0  0  0  0  0  0  0  0  0  0  0  0
  1  2  1  0  0  0  0
  1  5  2  0  0  0  0
  2  6  2  0  0  0  0
  3  8  2  0  0  0  0
  3 16  1  0  0  0  0
  4  9  1  0  0  0  0
  4 16  2  0  0  0  0
  5 18  1  0  0  0  0
  6 20  1  0  0  0  0
  7 10  2  0  0  0  0
  7 19  1  0  0  0  0
  8 24  1  0  0  0  0
  9 24  2  0  0  0  0
 10 25  1  0  0  0  0
 11 12  2  0  0  0  0
 11 26  1  0  0  0  0
 12 27  1  0  0  0  0
 13 21  1  0  0  0  0
 13 25  2  0  0  0  0
 14 27  2  0  0  0  0
 14 28  1  0  0  0  0
 15 22  1  0  0  0  0
 15 64  2  0  0  0  0
 16 30  1  0  0  0  0
 17 30  1  0  0  0  0
 17 32  2  0  0  0  0
 17 33  1  0  0  0  0
 18 20  2  0  0  0  0
 18 38  1  0  0  0  0
 19 21  2  0  0  0  0
 19 39  1  0  0  0  0
 20 47  1  0  0  0  0
 21 40  1  0  0  0  0
 22 29  2  0  0  0  0
 22 56  1  0  0  0  0
 23 29  1  0  0  0  0
 23 31  2  0  0  0  0
 23 57  1  0  0  0  0
 24 80  1  0  0  0  0
 25 81  1  0  0  0  0
 26 28  2  0  0  0  0
 26 80  1  0  0  0  0
 27 82  1  0  0  0  0
 28 83  1  0  0  0  0
 29 84  1  0  0  0  0
 30 65  2  0  0  0  0
 31 64  1  0  0  0  0
 31 81  1  0  0  0  0
 32 66  1  0  0  0  0
 32 69  1  0  0  0  0
 33 70  1  0  0  0  0
 33 75  2  0  0  0  0
 34 48  1  0  0  0  0
 34 71  1  0  0  0  0
 34 76  2  0  0  0  0
 35 61  1  0  0  0  0
 35 67  1  0  0  0  0
 35 77  2  0  0  0  0
 36 62  1  0  0  0  0
 36 72  1  0  0  0  0
 36 78  2  0  0  0  0
 37 68  1  0  0  0  0
 37 73  1  0  0  0  0
 37 79  2  0  0  0  0
 38 41  1  0  0  0  0
 39 48  1  0  0  0  0
 40 67  1  0  0  0  0
 41 43  1  0  0  0  0
 42 44  1  0  0  0  0
 42 45  1  0  0  0  0
 43 47  1  0  0  0  0
 44 49  1  0  0  0  0
 45 68  1  0  0  0  0
 46 49  1  0  0  0  0
 46 68  1  0  0  0  0
 47 71  1  0  0  0  0
 48 67  1  0  0  0  0
 49 66  1  0  0  0  0
 50 57  1  0  0  0  0
 51 62  1  0  0  0  0
 52 63  1  0  0  0  0
 53 63  1  0  0  0  0
 54 63  1  0  0  0  0
 55 74  1  0  0  0  0
 56 58  1  0  0  0  0
 58 59  1  0  0  0  0
 59 60  1  0  0  0  0
 60 73  1  0  0  0  0
 61 63  1  0  0  0  0
 61 72  1  0  0  0  0
 62 74  1  0  0  0  0
 65 66  1  0  0  0  0
M  CHG  1  74   1
M  ISO  4  31 101  37 100  73 100  81 101
M  END
> <Batch ID>
0038

> <Smiles>
CCc1c(Cl)c(CCCC[100NH:0][100C:0](=O)N2CCCC(n3nc(-c4ccc(Oc5ccc(F)cc5F)cc4)c(C(N)=O)c3N)C2)cn[101c:1]1[101O:1]c1ccc2c(c1)CN(C(=O)C(NC(=O)C(C)NC)C(C)(C)C)C(C(=O)NC1CCCc3ccccc31)C2

> <Shape>
0.260

> <Color>
0.083

> <Negative vol penalty>
0.000

$$$$

  -OEChem-04052317013D

 84 92  0     1  0  0  0  0  0999 V2000
  -32.3174  -15.0849   19.7972 C   0  0  0  0  0  0  0  0  0  0  0  0
  -31.4059  -16.1310   19.6961 C   0  0  0  0  0  0  0  0  0  0  0  0
  -29.6904  -27.6099   21.5438 C   0  0  0  0  0  0  0  0  0  0  0  0
  -28.2045  -27.4632   19.6444 C   0  0  0  0  0  0  0  0  0  0  0  0
  -31.8615  -13.7696   19.8746 C   0  0  0  0  0  0  0  0  0  0  0  0
  -30.0378  -15.8623   19.6711 C   0  0  0  0  0  0  0  0  0  0  0  0
  -25.5679  -19.2913   22.0728 C   0  0  0  0  0  0  0  0  0  0  0  0
  -30.4395  -26.5466   21.0400 C   0  0  0  0  0  0  0  0  0  0  0  0
  -28.9536  -26.3999   19.1405 C   0  0  0  0  0  0  0  0  0  0  0  0
  -24.6951  -20.2221   21.5111 C   0  0  0  0  0  0  0  0  0  0  0  0
  -30.2633  -23.4134   17.5356 C   0  0  0  0  0  0  0  0  0  0  0  0
  -29.5701  -22.3043   17.0509 C   0  0  0  0  0  0  0  0  0  0  0  0
  -23.0138  -18.5058   21.2944 C   0  0  0  0  0  0  0  0  0  0  0  0
  -21.2651  -23.8044   20.6539 C   0  0  0  0  0  0  0  0  0  0  0  0
  -28.5777  -21.9729   19.2286 C   0  0  0  0  0  0  0  0  0  0  0  0
  -28.5729  -28.0682   20.8461 C   0  0  0  0  0  0  0  0  0  0  0  0
  -27.9892  -30.5373   21.1109 C   0  0  0  0  0  0  0  0  0  0  0  0
  -30.4868  -13.4853   19.8603 C   0  0  0  0  0  0  0  0  0  0  0  0
  -25.1734  -17.9560   22.2397 C   0  0  0  0  0  0  0  0  0  0  0  0
  -29.5631  -14.5418   19.7470 C   0  0  0  0  0  0  0  0  0  0  0  0
  -23.8826  -17.5606   21.8608 C   0  0  0  0  0  0  0  0  0  0  0  0
  -21.9545  -22.9189   19.8330 C   0  0  0  0  0  0  0  0  0  0  0  0
  -21.6258  -22.8298   18.4849 C   0  0  0  0  0  0  0  0  0  0  0  0
  -30.0711  -25.9416   19.8384 C   0  0  0  0  0  0  0  0  0  0  0  0
  -23.4189  -19.8288   21.1192 C   0  0  0  0  0  0  0  0  0  0  0  0
  -30.1137  -23.8023   18.8668 C   0  0  0  0  0  0  0  0  0  0  0  0
  -28.7273  -21.5840   17.8974 C   0  0  0  0  0  0  0  0  0  0  0  0
  -29.2709  -23.0820   19.7133 C   0  0  0  0  0  0  0  0  0  0  0  0
  -27.7984  -29.1662   21.3663 C   0  0  0  0  0  0  0  0  0  0  0  0
  -20.2634  -24.5725   20.0826 C   0  0  0  0  0  0  0  0  0  0  0  0
  -20.6079  -23.6414   18.0107 C   0  0  0  0  0  0  0  0  0  0  0  0
  -27.0022  -31.1618   21.8337 C   0  0  0  0  0  0  0  0  0  0  0  0
  -28.9708  -31.1883   20.2933 C   0  0  0  0  0  0  0  0  0  0  0  0
  -26.1881  -15.1603   21.1181 C   0  0  0  0  0  0  0  0  0  0  0  0
  -23.9872  -13.9739   23.1847 C   0  0  0  0  0  0  0  0  0  0  0  0
  -21.1205  -14.4753   24.9672 C   0  0  0  0  0  0  0  0  0  0  0  0
  -21.6424  -29.3697   23.8115 C   0  0  0  0  0  0  0  0  0  0  0  0
  -30.0431  -12.0443   19.8986 C   0  0  0  0  0  0  0  0  0  0  0  0
  -26.1174  -16.9702   22.8718 C   0  0  0  0  0  0  0  0  0  0  0  0
  -23.4035  -16.1437   22.0373 C   0  0  0  0  0  0  0  0  0  0  0  0
  -28.5662  -11.8708   20.2433 C   0  0  0  0  0  0  0  0  0  0  0  0
  -24.3363  -30.6276   25.7704 C   0  0  0  0  0  0  0  0  0  0  0  0
  -27.7108  -12.8351   19.4278 C   0  0  0  0  0  0  0  0  0  0  0  0
  -25.5462  -30.5194   24.8408 C   0  0  0  0  0  0  0  0  0  0  0  0
  -23.3731  -29.4577   25.5816 C   0  0  0  0  0  0  0  0  0  0  0  0
  -24.1399  -29.1302   23.2624 C   0  0  0  0  0  0  0  0  0  0  0  0
  -28.0705  -14.2924   19.7418 C   0  0  1  0  0  0  0  0  0  0  0  0
  -25.7911  -15.5216   22.5215 C   0  0  1  0  0  0  0  0  0  0  0  0
  -25.1121  -30.3169   23.3766 C   0  0  2  0  0  0  0  0  0  0  0  0
  -22.3499  -21.8907   17.5799 C   0  0  0  0  0  0  0  0  0  0  0  0
  -20.2107  -23.5916   16.5715 C   0  0  0  0  0  0  0  0  0  0  0  0
  -19.5465  -13.3089   26.5354 C   0  0  0  0  0  0  0  0  0  0  0  0
  -22.8081  -12.4178   20.8399 C   0  0  0  0  0  0  0  0  0  0  0  0
  -20.7451  -12.0518   22.2105 C   0  0  0  0  0  0  0  0  0  0  0  0
  -22.9331  -11.1371   22.9844 C   0  0  0  0  0  0  0  0  0  0  0  0
  -21.6377  -16.4320   27.1266 C   0  0  0  0  0  0  0  0  0  0  0  0
  -23.0426  -22.0721   20.4249 C   0  0  0  0  0  0  0  0  0  1  0  0
  -19.5033  -25.5347   20.9331 C   0  0  0  0  0  0  0  0  0  0  0  0
  -20.1579  -26.9243   20.9651 C   0  0  0  0  0  0  0  0  0  0  0  0
  -19.3893  -27.8914   21.8704 C   0  0  0  0  0  0  0  0  0  0  0  0
  -20.0291  -29.2747   21.9280 C   0  0  0  0  0  0  0  0  0  0  0  0
  -22.5200  -13.6286   23.1020 C   0  0  1  0  0  0  0  0  0  0  0  0
  -20.7755  -14.1971   26.4191 C   0  0  2  0  0  0  0  0  0  0  0  0
  -22.2610  -12.3352   22.2789 C   0  0  0  0  0  0  0  0  0  0  0  0
  -26.7710  -28.9327   22.1873 N   0  0  0  0  0  0  0  0  0  0  0  0
  -19.9158  -24.5136   18.7775 N   0  0  0  0  0  0  0  0  0  0  0  0
  -26.3075  -30.1656   22.4542 N   0  0  0  0  0  0  0  0  0  0  0  0
  -24.3654  -15.2154   22.6542 N   0  0  0  0  0  0  0  0  0  0  0  0
  -22.9992  -29.3211   24.1718 N   0  0  0  0  0  0  0  0  0  0  0  0
  -26.6696  -32.4605   21.9927 N   0  0  0  0  0  0  0  0  0  0  0  0
  -29.9110  -30.3965   19.6200 N   0  0  0  0  0  0  0  0  0  0  0  0
  -27.4849  -14.6972   21.0018 N   0  0  0  0  0  0  0  0  0  0  0  0
  -22.0365  -13.5687   24.4771 N   0  0  0  0  0  0  0  0  0  0  0  0
  -21.3755  -29.2386   22.4542 N   0  0  0  0  0  0  0  0  0  0  0  0
  -20.5036  -15.4725   27.1405 N   0  3  0  0  0  0  0  0  0  0  0  0
  -29.0231  -32.4362   20.1768 O   0  0  0  0  0  0  0  0  0  0  0  0
  -25.3775  -15.2905   20.2084 O   0  0  0  0  0  0  0  0  0  0  0  0
  -24.7680  -13.1746   23.7074 O   0  0  0  0  0  0  0  0  0  0  0  0
  -20.6241  -15.4019   24.3303 O   0  0  0  0  0  0  0  0  0  0  0  0
  -20.7365  -29.5243   24.6375 O   0  0  0  0  0  0  0  0  0  0  0  0
  -30.8020  -24.9041   19.3463 O   0  0  0  0  0  0  0  0  0  0  0  0
  -22.5651  -20.7352   20.5701 O   0  0  0  0  0  0  0  0  0  1  0  0
  -28.0605  -20.5199   17.4314 F   0  0  0  0  0  0  0  0  0  0  0  0
  -29.1223  -23.4515   20.9929 F   0  0  0  0  0  0  0  0  0  0  0  0
  1  2  1  0  0  0  0
  1  5  2  0  0  0  0
  2  6  2  0  0  0  0
  3  8  2  0  0  0  0
  3 16  1  0  0  0  0
  4  9  1  0  0  0  0
  4 16  2  0  0  0  0
  5 18  1  0  0  0  0
  6 20  1  0  0  0  0
  7 10  2  0  0  0  0
  7 19  1  0  0  0  0
  8 24  1  0  0  0  0
  9 24  2  0  0  0  0
 10 25  1  0  0  0  0
 11 12  2  0  0  0  0
 11 26  1  0  0  0  0
 12 27  1  0  0  0  0
 13 21  1  0  0  0  0
 13 25  2  0  0  0  0
 14 22  1  0  0  0  0
 14 30  2  0  0  0  0
 15 27  2  0  0  0  0
 15 28  1  0  0  0  0
 16 29  1  0  0  0  0
 17 29  1  0  0  0  0
 17 32  2  0  0  0  0
 17 33  1  0  0  0  0
 18 20  2  0  0  0  0
 18 38  1  0  0  0  0
 19 21  2  0  0  0  0
 19 39  1  0  0  0  0
 20 47  1  0  0  0  0
 21 40  1  0  0  0  0
 22 23  2  0  0  0  0
 22 57  1  0  0  0  0
 23 31  1  0  0  0  0
 23 50  1  0  0  0  0
 24 81  1  0  0  0  0
 25 82  1  0  0  0  0
 26 28  2  0  0  0  0
 26 81  1  0  0  0  0
 27 83  1  0  0  0  0
 28 84  1  0  0  0  0
 29 65  2  0  0  0  0
 30 58  1  0  0  0  0
 30 66  1  0  0  0  0
 31 51  1  0  0  0  0
 31 66  2  0  0  0  0
 32 67  1  0  0  0  0
 32 70  1  0  0  0  0
 33 71  1  0  0  0  0
 33 76  2  0  0  0  0
 34 48  1  0  0  0  0
 34 72  1  0  0  0  0
 34 77  2  0  0  0  0
 35 62  1  0  0  0  0
 35 68  1  0  0  0  0
 35 78  2  0  0  0  0
 36 63  1  0  0  0  0
 36 73  1  0  0  0  0
 36 79  2  0  0  0  0
 37 69  1  0  0  0  0
 37 74  1  0  0  0  0
 37 80  2  0  0  0  0
 38 41  1  0  0  0  0
 39 48  1  0  0  0  0
 40 68  1  0  0  0  0
 41 43  1  0  0  0  0
 42 44  1  0  0  0  0
 42 45  1  0  0  0  0
 43 47  1  0  0  0  0
 44 49  1  0  0  0  0
 45 69  1  0  0  0  0
 46 49  1  0  0  0  0
 46 69  1  0  0  0  0
 47 72  1  0  0  0  0
 48 68  1  0  0  0  0
 49 67  1  0  0  0  0
 52 63  1  0  0  0  0
 53 64  1  0  0  0  0
 54 64  1  0  0  0  0
 55 64  1  0  0  0  0
 56 75  1  0  0  0  0
 57 82  1  0  0  0  0
 58 59  1  0  0  0  0
 59 60  1  0  0  0  0
 60 61  1  0  0  0  0
 61 74  1  0  0  0  0
 62 64  1  0  0  0  0
 62 73  1  0  0  0  0
 63 75  1  0  0  0  0
 65 67  1  0  0  0  0
M  CHG  1  75   1
M  ISO  4  37 100  57 101  74 100  82 101
M  END
> <Batch ID>
0038

> <Smiles>
CNC(C)C(=O)NC(C(=O)N1Cc2cc([101O:1][101CH2:1]c3cc(CCCC[100NH:0][100C:0](=O)N4CCCC(n5nc(-c6ccc(Oc7ccc(F)cc7F)cc6)c(C(N)=O)c5N)C4)nc(C)c3C)ccc2CC1C(=O)NC1CCCc2ccccc21)C(C)(C)C

> <Shape>
0.234

> <Color>
0.070

> <Negative vol penalty>
0.000

$$$$

  -OEChem-04052317013D

 88 96  0     1  0  0  0  0  0999 V2000
  -31.4541  -26.7388   13.4648 C   0  0  0  0  0  0  0  0  0  0  0  0
  -30.8574  -25.7357   14.2219 C   0  0  0  0  0  0  0  0  0  0  0  0
  -30.9132  -18.7363   20.1937 C   0  0  0  0  0  0  0  0  0  0  0  0
  -28.5265  -18.4127   20.3831 C   0  0  0  0  0  0  0  0  0  0  0  0
  -31.7344  -27.9752   14.0451 C   0  0  0  0  0  0  0  0  0  0  0  0
  -30.5415  -25.9682   15.5600 C   0  0  0  0  0  0  0  0  0  0  0  0
  -25.7334  -23.7609   18.6447 C   0  0  0  0  0  0  0  0  0  0  0  0
  -31.0321  -17.4947   19.5693 C   0  0  0  0  0  0  0  0  0  0  0  0
  -28.6453  -17.1711   19.7587 C   0  0  0  0  0  0  0  0  0  0  0  0
  -25.5928  -22.6808   19.5150 C   0  0  0  0  0  0  0  0  0  0  0  0
  -28.3657  -13.7588   18.5388 C   0  0  0  0  0  0  0  0  0  0  0  0
  -27.6700  -12.6848   19.0938 C   0  0  0  0  0  0  0  0  0  0  0  0
  -25.8866  -24.1646   21.3942 C   0  0  0  0  0  0  0  0  0  0  0  0
  -28.8914  -12.9612   21.1599 C   0  0  0  0  0  0  0  0  0  0  0  0
  -26.0827  -18.2169   23.8403 C   0  0  0  0  0  0  0  0  0  0  0  0
  -29.6605  -19.1953   20.6007 C   0  0  0  0  0  0  0  0  0  0  0  0
  -29.3190  -21.7232   20.6278 C   0  0  0  0  0  0  0  0  0  0  0  0
  -31.4129  -28.2262   15.3883 C   0  0  0  0  0  0  0  0  0  0  0  0
  -25.9628  -25.0514   19.1431 C   0  0  0  0  0  0  0  0  0  0  0  0
  -30.8189  -27.2086   16.1592 C   0  0  0  0  0  0  0  0  0  0  0  0
  -26.0271  -25.2597   20.5283 C   0  0  0  0  0  0  0  0  0  0  0  0
  -24.8507  -17.6903   24.1706 C   0  0  0  0  0  0  0  0  0  0  0  0
  -29.8981  -16.7121   19.3517 C   0  0  0  0  0  0  0  0  0  0  0  0
  -25.6723  -22.8821   20.8899 C   0  0  0  0  0  0  0  0  0  0  0  0
  -29.3243  -14.4340   19.2944 C   0  0  0  0  0  0  0  0  0  0  0  0
  -27.9328  -12.2860   20.4044 C   0  0  0  0  0  0  0  0  0  0  0  0
  -29.5871  -14.0352   20.6049 C   0  0  0  0  0  0  0  0  0  0  0  0
  -29.5372  -20.4775   21.2463 C   0  0  0  0  0  0  0  0  0  0  0  0
  -23.7817  -18.1693   23.4412 C   0  0  0  0  0  0  0  0  0  0  0  0
  -29.2790  -22.6202   21.6672 C   0  0  0  0  0  0  0  0  0  0  0  0
  -25.1485  -19.5269   22.2347 C   0  0  0  0  0  0  0  0  0  0  0  0
  -29.1660  -22.0410   19.2381 C   0  0  0  0  0  0  0  0  0  0  0  0
  -28.3127  -27.1749   18.8740 C   0  0  0  0  0  0  0  0  0  0  0  0
  -26.2552  -29.0776   20.5077 C   0  0  0  0  0  0  0  0  0  0  0  0
  -23.5980  -29.3162   22.6359 C   0  0  0  0  0  0  0  0  0  0  0  0
  -27.4632  -23.0314   27.1488 C   0  0  0  0  0  0  0  0  0  0  0  0
  -31.7782  -29.5624   15.9847 C   0  0  0  0  0  0  0  0  0  0  0  0
  -26.0856  -26.2102   18.1920 C   0  0  0  0  0  0  0  0  0  0  0  0
  -26.2517  -26.6287   21.1147 C   0  0  0  0  0  0  0  0  0  0  0  0
  -31.0702  -29.8540   17.3054 C   0  0  0  0  0  0  0  0  0  0  0  0
  -30.9049  -22.6180   26.3361 C   0  0  0  0  0  0  0  0  0  0  0  0
  -31.1434  -28.6423   18.2292 C   0  0  0  0  0  0  0  0  0  0  0  0
  -30.8828  -22.1397   24.8832 C   0  0  0  0  0  0  0  0  0  0  0  0
  -29.7362  -22.0468   27.1361 C   0  0  0  0  0  0  0  0  0  0  0  0
  -28.3843  -21.8027   25.0901 C   0  0  0  0  0  0  0  0  0  0  0  0
  -30.4387  -27.4308   17.6070 C   0  0  1  0  0  0  0  0  0  0  0  0
  -26.8293  -27.3994   18.7920 C   0  0  1  0  0  0  0  0  0  0  0  0
  -29.5120  -22.3970   24.2290 C   0  0  2  0  0  0  0  0  0  0  0  0
  -22.4003  -17.6710   23.7111 C   0  0  0  0  0  0  0  0  0  0  0  0
  -22.1673  -31.0045   23.8191 C   0  0  0  0  0  0  0  0  0  0  0  0
  -28.5006  -29.5707   22.5139 C   0  0  0  0  0  0  0  0  0  0  0  0
  -26.7848  -30.4444   24.1141 C   0  0  0  0  0  0  0  0  0  0  0  0
  -27.1562  -31.5981   21.9337 C   0  0  0  0  0  0  0  0  0  0  0  0
  -21.1513  -28.3798   21.2590 C   0  0  0  0  0  0  0  0  0  0  0  0
  -24.7093  -16.6594   25.2629 C   0  0  0  0  0  0  0  0  0  0  0  0
  -25.3138  -20.5465   21.1589 C   0  0  0  0  0  0  0  0  0  1  0  0
  -24.7989  -17.2217   26.6873 C   0  0  0  0  0  0  0  0  0  0  0  0
  -23.7040  -18.2258   27.0683 C   0  0  0  0  0  0  0  0  0  0  0  0
  -23.8846  -18.8236   28.4655 C   0  0  0  0  0  0  0  0  0  0  0  0
  -22.7831  -19.8193   28.8470 C   0  0  0  0  0  0  0  0  0  0  0  0
  -22.6902  -21.0755   27.9739 C   0  0  0  0  0  0  0  0  0  0  0  0
  -23.9970  -21.8694   27.9142 C   0  0  0  0  0  0  0  0  0  0  0  0
  -23.9019  -23.1334   27.0512 C   0  0  0  0  0  0  0  0  0  0  0  0
  -25.1730  -23.9765   27.0039 C   0  0  0  0  0  0  0  0  0  0  0  0
  -25.9865  -29.3569   21.9667 C   0  0  1  0  0  0  0  0  0  0  0  0
  -22.3290  -30.1471   22.5736 C   0  0  2  0  0  0  0  0  0  0  0  0
  -27.1047  -30.2163   22.6213 C   0  0  0  0  0  0  0  0  0  0  0  0
  -26.2687  -19.1402   22.8742 N   0  0  0  0  0  0  0  0  0  0  0  0
  -29.6295  -20.5709   22.5755 N   0  0  0  0  0  0  0  0  0  0  0  0
  -23.8948  -19.0912   22.4626 N   0  0  0  0  0  0  0  0  0  0  0  0
  -29.4686  -21.8860   22.8008 N   0  0  0  0  0  0  0  0  0  0  0  0
  -26.3719  -27.7287   20.1435 N   0  0  0  0  0  0  0  0  0  0  0  0
  -28.4658  -22.3264   26.4626 N   0  0  0  0  0  0  0  0  0  0  0  0
  -29.1006  -23.9576   21.7128 N   0  0  0  0  0  0  0  0  0  0  0  0
  -29.2338  -20.9992   18.3031 N   0  0  0  0  0  0  0  0  0  0  0  0
  -29.0032  -27.5578   17.7400 N   0  0  0  0  0  0  0  0  0  0  0  0
  -24.6580  -29.9566   22.0296 N   0  0  0  0  0  0  0  0  0  0  0  0
  -26.2927  -23.2596   26.4355 N   0  0  0  0  0  0  0  0  0  0  0  0
  -21.1359  -29.2623   22.4539 N   0  3  0  0  0  0  0  0  0  0  0  0
  -28.9913  -23.2163   18.8361 O   0  0  0  0  0  0  0  0  0  0  0  0
  -28.7953  -26.6916   19.8915 O   0  0  0  0  0  0  0  0  0  0  0  0
  -26.3507  -30.0212   19.7189 O   0  0  0  0  0  0  0  0  0  0  0  0
  -23.6451  -28.2114   23.1722 O   0  0  0  0  0  0  0  0  0  0  0  0
  -27.6029  -23.4327   28.3091 O   0  0  0  0  0  0  0  0  0  0  0  0
  -30.0136  -15.5006   18.7422 O   0  0  0  0  0  0  0  0  0  0  0  0
  -25.5352  -21.8222   21.7474 O   0  0  0  0  0  0  0  0  0  1  0  0
  -27.2635  -11.2555   20.9377 F   0  0  0  0  0  0  0  0  0  0  0  0
  -30.5061  -14.6808   21.3361 F   0  0  0  0  0  0  0  0  0  0  0  0
  1  2  1  0  0  0  0
  1  5  2  0  0  0  0
  2  6  2  0  0  0  0
  3  8  2  0  0  0  0
  3 16  1  0  0  0  0
  4  9  1  0  0  0  0
  4 16  2  0  0  0  0
  5 18  1  0  0  0  0
  6 20  1  0  0  0  0
  7 10  2  0  0  0  0
  7 19  1  0  0  0  0
  8 23  1  0  0  0  0
  9 23  2  0  0  0  0
 10 24  1  0  0  0  0
 11 12  2  0  0  0  0
 11 25  1  0  0  0  0
 12 26  1  0  0  0  0
 13 21  1  0  0  0  0
 13 24  2  0  0  0  0
 14 26  2  0  0  0  0
 14 27  1  0  0  0  0
 15 22  1  0  0  0  0
 15 68  2  0  0  0  0
 16 28  1  0  0  0  0
 17 28  1  0  0  0  0
 17 30  2  0  0  0  0
 17 32  1  0  0  0  0
 18 20  2  0  0  0  0
 18 37  1  0  0  0  0
 19 21  2  0  0  0  0
 19 38  1  0  0  0  0
 20 46  1  0  0  0  0
 21 39  1  0  0  0  0
 22 29  2  0  0  0  0
 22 55  1  0  0  0  0
 23 85  1  0  0  0  0
 24 86  1  0  0  0  0
 25 27  2  0  0  0  0
 25 85  1  0  0  0  0
 26 87  1  0  0  0  0
 27 88  1  0  0  0  0
 28 69  2  0  0  0  0
 29 49  1  0  0  0  0
 29 70  1  0  0  0  0
 30 71  1  0  0  0  0
 30 74  1  0  0  0  0
 31 56  1  0  0  0  0
 31 68  1  0  0  0  0
 31 70  2  0  0  0  0
 32 75  1  0  0  0  0
 32 80  2  0  0  0  0
 33 47  1  0  0  0  0
 33 76  1  0  0  0  0
 33 81  2  0  0  0  0
 34 65  1  0  0  0  0
 34 72  1  0  0  0  0
 34 82  2  0  0  0  0
 35 66  1  0  0  0  0
 35 77  1  0  0  0  0
 35 83  2  0  0  0  0
 36 73  1  0  0  0  0
 36 78  1  0  0  0  0
 36 84  2  0  0  0  0
 37 40  1  0  0  0  0
 38 47  1  0  0  0  0
 39 72  1  0  0  0  0
 40 42  1  0  0  0  0
 41 43  1  0  0  0  0
 41 44  1  0  0  0  0
 42 46  1  0  0  0  0
 43 48  1  0  0  0  0
 44 73  1  0  0  0  0
 45 48  1  0  0  0  0
 45 73  1  0  0  0  0
 46 76  1  0  0  0  0
 47 72  1  0  0  0  0
 48 71  1  0  0  0  0
 50 66  1  0  0  0  0
 51 67  1  0  0  0  0
 52 67  1  0  0  0  0
 53 67  1  0  0  0  0
 54 79  1  0  0  0  0
 55 57  1  0  0  0  0
 56 86  1  0  0  0  0
 57 58  1  0  0  0  0
 58 59  1  0  0  0  0
 59 60  1  0  0  0  0
 60 61  1  0  0  0  0
 61 62  1  0  0  0  0
 62 63  1  0  0  0  0
 63 64  1  0  0  0  0
 64 78  1  0  0  0  0
 65 67  1  0  0  0  0
 65 77  1  0  0  0  0
 66 79  1  0  0  0  0
 69 71  1  0  0  0  0
M  CHG  1  79   1
M  ISO  4  36 100  56 101  78 100  86 101
M  END
> <Batch ID>
0038

> <Smiles>
CNC(C)C(=O)NC(C(=O)N1Cc2cc([101O:1][101CH2:1]c3ncc(CCCCCCCCC[100NH:0][100C:0](=O)N4CCCC(n5nc(-c6ccc(Oc7ccc(F)cc7F)cc6)c(C(N)=O)c5N)C4)c(C)n3)ccc2CC1C(=O)NC1CCCc2ccccc21)C(C)(C)C

> <Shape>
0.190

> <Color>
0.076

> <Negative vol penalty>
0.000

$$$$

  -OEChem-04052317013D

 88 96  0     1  0  0  0  0  0999 V2000
  -33.1643  -34.6840   17.4528 C   0  0  0  0  0  0  0  0  0  0  0  0
  -32.8535  -33.3296   17.3876 C   0  0  0  0  0  0  0  0  0  0  0  0
  -20.2597  -17.1457   20.6884 C   0  0  0  0  0  0  0  0  0  0  0  0
  -22.4004  -17.2941   19.5782 C   0  0  0  0  0  0  0  0  0  0  0  0
  -32.8687  -35.4112   18.6051 C   0  0  0  0  0  0  0  0  0  0  0  0
  -32.2478  -32.7013   18.4752 C   0  0  0  0  0  0  0  0  0  0  0  0
  -28.1209  -28.1804   18.2852 C   0  0  0  0  0  0  0  0  0  0  0  0
  -20.2103  -18.5367   20.7792 C   0  0  0  0  0  0  0  0  0  0  0  0
  -22.3510  -18.6851   19.6689 C   0  0  0  0  0  0  0  0  0  0  0  0
  -28.2358  -26.7987   18.4318 C   0  0  0  0  0  0  0  0  0  0  0  0
  -22.9580  -22.2591   19.9294 C   0  0  0  0  0  0  0  0  0  0  0  0
  -24.1130  -22.9234   20.3419 C   0  0  0  0  0  0  0  0  0  0  0  0
  -27.6372  -27.0020   20.7598 C   0  0  0  0  0  0  0  0  0  0  0  0
  -29.5467  -20.7753   20.0229 C   0  0  0  0  0  0  0  0  0  0  0  0
  -24.0608  -21.7152   22.4335 C   0  0  0  0  0  0  0  0  0  0  0  0
  -21.3548  -16.5243   20.0880 C   0  0  0  0  0  0  0  0  0  0  0  0
  -20.4908  -14.2448   19.3365 C   0  0  0  0  0  0  0  0  0  0  0  0
  -32.2503  -34.7937   19.7037 C   0  0  0  0  0  0  0  0  0  0  0  0
  -27.7733  -28.9857   19.3793 C   0  0  0  0  0  0  0  0  0  0  0  0
  -31.9448  -33.4206   19.6437 C   0  0  0  0  0  0  0  0  0  0  0  0
  -27.5160  -28.3933   20.6239 C   0  0  0  0  0  0  0  0  0  0  0  0
  -29.5629  -22.1356   19.7358 C   0  0  0  0  0  0  0  0  0  0  0  0
  -28.4944  -19.9873   19.5699 C   0  0  0  0  0  0  0  0  0  0  0  0
  -21.2559  -19.3064   20.2694 C   0  0  0  0  0  0  0  0  0  0  0  0
  -27.9968  -26.2096   19.6699 C   0  0  0  0  0  0  0  0  0  0  0  0
  -22.3542  -21.3230   20.7689 C   0  0  0  0  0  0  0  0  0  0  0  0
  -24.6645  -22.6514   21.5939 C   0  0  0  0  0  0  0  0  0  0  0  0
  -22.9057  -21.0510   22.0210 C   0  0  0  0  0  0  0  0  0  0  0  0
  -21.4066  -15.0875   19.9945 C   0  0  0  0  0  0  0  0  0  0  0  0
  -28.5115  -22.6554   18.9982 C   0  0  0  0  0  0  0  0  0  0  0  0
  -27.4907  -20.6033   18.8398 C   0  0  0  0  0  0  0  0  0  0  0  0
  -20.9830  -12.9785   19.5384 C   0  0  0  0  0  0  0  0  0  0  0  0
  -19.3016  -14.5769   18.6077 C   0  0  0  0  0  0  0  0  0  0  0  0
  -29.1941  -31.3414   20.9717 C   0  0  0  0  0  0  0  0  0  0  0  0
  -26.3344  -31.5140   22.4930 C   0  0  0  0  0  0  0  0  0  0  0  0
  -23.4479  -29.9483   23.4221 C   0  0  0  0  0  0  0  0  0  0  0  0
  -26.4740  -10.8683   20.6550 C   0  0  0  0  0  0  0  0  0  0  0  0
  -31.9932  -35.6102   20.9454 C   0  0  0  0  0  0  0  0  0  0  0  0
  -27.6274  -30.4718   19.1983 C   0  0  0  0  0  0  0  0  0  0  0  0
  -27.1200  -29.2115   21.8249 C   0  0  0  0  0  0  0  0  0  0  0  0
  -31.0103  -34.9551   21.9124 C   0  0  0  0  0  0  0  0  0  0  0  0
  -23.5598  -10.4149   22.6495 C   0  0  0  0  0  0  0  0  0  0  0  0
  -31.3595  -33.4838   22.1134 C   0  0  0  0  0  0  0  0  0  0  0  0
  -22.5949  -11.4850   22.1359 C   0  0  0  0  0  0  0  0  0  0  0  0
  -25.0043  -10.9103   22.6486 C   0  0  0  0  0  0  0  0  0  0  0  0
  -24.5105  -12.5132   20.8429 C   0  0  0  0  0  0  0  0  0  0  0  0
  -31.2650  -32.7091   20.7934 C   0  0  1  0  0  0  0  0  0  0  0  0
  -27.7695  -31.2495   20.5030 C   0  0  1  0  0  0  0  0  0  0  0  0
  -23.0482  -12.0409   20.7726 C   0  0  2  0  0  0  0  0  0  0  0  0
  -30.6875  -22.9852   20.2182 C   0  0  0  0  0  0  0  0  0  0  0  0
  -26.3367  -19.8054   18.3270 C   0  0  0  0  0  0  0  0  0  0  0  0
  -21.3178  -30.3347   24.6913 C   0  0  0  0  0  0  0  0  0  0  0  0
  -27.8606  -31.2703   25.1238 C   0  0  0  0  0  0  0  0  0  0  0  0
  -25.6948  -30.7100   26.2479 C   0  0  0  0  0  0  0  0  0  0  0  0
  -25.9912  -32.9313   25.1523 C   0  0  0  0  0  0  0  0  0  0  0  0
  -21.7904  -29.4422   21.0230 C   0  0  0  0  0  0  0  0  0  0  0  0
  -28.4707  -18.5113   19.8780 C   0  0  0  0  0  0  0  0  0  0  0  0
  -28.4747  -24.1099   18.6605 C   0  0  0  0  0  0  0  0  0  1  0  0
  -29.4311  -17.6831   19.0168 C   0  0  0  0  0  0  0  0  0  0  0  0
  -29.3814  -16.1848   19.3359 C   0  0  0  0  0  0  0  0  0  0  0  0
  -30.3320  -15.3956   18.4321 C   0  0  0  0  0  0  0  0  0  0  0  0
  -30.3761  -13.8990   18.7548 C   0  0  0  0  0  0  0  0  0  0  0  0
  -29.0351  -13.1906   18.5440 C   0  0  0  0  0  0  0  0  0  0  0  0
  -29.1470  -11.6935   18.8516 C   0  0  0  0  0  0  0  0  0  0  0  0
  -27.8479  -10.9373   18.5893 C   0  0  0  0  0  0  0  0  0  0  0  0
  -25.7338  -30.8659   23.7170 C   0  0  1  0  0  0  0  0  0  0  0  0
  -21.9946  -30.3773   23.3301 C   0  0  2  0  0  0  0  0  0  0  0  0
  -26.3294  -31.4289   25.0383 C   0  0  0  0  0  0  0  0  0  0  0  0
  -22.4050  -14.4133   20.5715 N   0  0  0  0  0  0  0  0  0  0  0  0
  -27.4721  -21.9217   18.5411 N   0  0  0  0  0  0  0  0  0  0  0  0
  -22.1193  -13.1336   20.2767 N   0  0  0  0  0  0  0  0  0  0  0  0
  -26.9967  -30.6610   21.5988 N   0  0  0  0  0  0  0  0  0  0  0  0
  -25.3719  -11.4228   21.3264 N   0  0  0  0  0  0  0  0  0  0  0  0
  -20.5503  -11.7587   19.1549 N   0  0  0  0  0  0  0  0  0  0  0  0
  -19.4078  -14.8231   17.2320 N   0  0  0  0  0  0  0  0  0  0  0  0
  -29.8825  -32.4292   20.4695 N   0  0  0  0  0  0  0  0  0  0  0  0
  -24.2888  -31.0270   23.5967 N   0  0  0  0  0  0  0  0  0  0  0  0
  -26.7500  -11.4074   19.4044 N   0  0  0  0  0  0  0  0  0  0  0  0
  -21.2470  -29.4793   22.4052 N   0  3  0  0  0  0  0  0  0  0  0  0
  -18.1807  -14.6693   19.1631 O   0  0  0  0  0  0  0  0  0  0  0  0
  -29.6357  -30.4894   21.7338 O   0  0  0  0  0  0  0  0  0  0  0  0
  -26.2140  -32.7311   22.3325 O   0  0  0  0  0  0  0  0  0  0  0  0
  -23.8013  -28.7734   23.3503 O   0  0  0  0  0  0  0  0  0  0  0  0
  -27.1580   -9.9564   21.1321 O   0  0  0  0  0  0  0  0  0  0  0  0
  -21.2080  -20.6638   20.3576 O   0  0  0  0  0  0  0  0  0  0  0  0
  -28.1097  -24.8516   19.8170 O   0  0  0  0  0  0  0  0  0  1  0  0
  -25.7746  -23.2882   21.9893 F   0  0  0  0  0  0  0  0  0  0  0  0
  -22.3308  -20.1517   22.8314 F   0  0  0  0  0  0  0  0  0  0  0  0
  1  2  1  0  0  0  0
  1  5  2  0  0  0  0
  2  6  2  0  0  0  0
  3  8  2  0  0  0  0
  3 16  1  0  0  0  0
  4  9  1  0  0  0  0
  4 16  2  0  0  0  0
  5 18  1  0  0  0  0
  6 20  1  0  0  0  0
  7 10  2  0  0  0  0
  7 19  1  0  0  0  0
  8 24  1  0  0  0  0
  9 24  2  0  0  0  0
 10 25  1  0  0  0  0
 11 12  2  0  0  0  0
 11 26  1  0  0  0  0
 12 27  1  0  0  0  0
 13 21  1  0  0  0  0
 13 25  2  0  0  0  0
 14 22  1  0  0  0  0
 14 23  2  0  0  0  0
 15 27  2  0  0  0  0
 15 28  1  0  0  0  0
 16 29  1  0  0  0  0
 17 29  1  0  0  0  0
 17 32  2  0  0  0  0
 17 33  1  0  0  0  0
 18 20  2  0  0  0  0
 18 38  1  0  0  0  0
 19 21  2  0  0  0  0
 19 39  1  0  0  0  0
 20 47  1  0  0  0  0
 21 40  1  0  0  0  0
 22 30  2  0  0  0  0
 22 50  1  0  0  0  0
 23 31  1  0  0  0  0
 23 57  1  0  0  0  0
 24 85  1  0  0  0  0
 25 86  1  0  0  0  0
 26 28  2  0  0  0  0
 26 85  1  0  0  0  0
 27 87  1  0  0  0  0
 28 88  1  0  0  0  0
 29 69  2  0  0  0  0
 30 58  1  0  0  0  0
 30 70  1  0  0  0  0
 31 51  1  0  0  0  0
 31 70  2  0  0  0  0
 32 71  1  0  0  0  0
 32 74  1  0  0  0  0
 33 75  1  0  0  0  0
 33 80  2  0  0  0  0
 34 48  1  0  0  0  0
 34 76  1  0  0  0  0
 34 81  2  0  0  0  0
 35 66  1  0  0  0  0
 35 72  1  0  0  0  0
 35 82  2  0  0  0  0
 36 67  1  0  0  0  0
 36 77  1  0  0  0  0
 36 83  2  0  0  0  0
 37 73  1  0  0  0  0
 37 78  1  0  0  0  0
 37 84  2  0  0  0  0
 38 41  1  0  0  0  0
 39 48  1  0  0  0  0
 40 72  1  0  0  0  0
 41 43  1  0  0  0  0
 42 44  1  0  0  0  0
 42 45  1  0  0  0  0
 43 47  1  0  0  0  0
 44 49  1  0  0  0  0
 45 73  1  0  0  0  0
 46 49  1  0  0  0  0
 46 73  1  0  0  0  0
 47 76  1  0  0  0  0
 48 72  1  0  0  0  0
 49 71  1  0  0  0  0
 52 67  1  0  0  0  0
 53 68  1  0  0  0  0
 54 68  1  0  0  0  0
 55 68  1  0  0  0  0
 56 79  1  0  0  0  0
 57 59  1  0  0  0  0
 58 86  1  0  0  0  0
 59 60  1  0  0  0  0
 60 61  1  0  0  0  0
 61 62  1  0  0  0  0
 62 63  1  0  0  0  0
 63 64  1  0  0  0  0
 64 65  1  0  0  0  0
 65 78  1  0  0  0  0
 66 68  1  0  0  0  0
 66 77  1  0  0  0  0
 67 79  1  0  0  0  0
 69 71  1  0  0  0  0
M  CHG  1  79   1
M  ISO  4  37 100  58 101  78 100  86 101
M  END
> <Batch ID>
0038

> <Smiles>
CNC(C)C(=O)NC(C(=O)N1Cc2cc([101O:1][101CH2:1]c3nc(C)c(CCCCCCCC[100NH:0][100C:0](=O)N4CCCC(n5nc(-c6ccc(Oc7ccc(F)cc7F)cc6)c(C(N)=O)c5N)C4)cc3C)ccc2CC1C(=O)NC1CCCc2ccccc21)C(C)(C)C

> <Shape>
0.218

> <Color>
0.076

> <Negative vol penalty>
0.000

$$$$

  -OEChem-04052317013D

 82 90  0     1  0  0  0  0  0999 V2000
  -17.2349  -30.1361   24.4155 C   0  0  0  0  0  0  0  0  0  0  0  0
  -17.5666  -28.7884   24.3200 C   0  0  0  0  0  0  0  0  0  0  0  0
  -28.7777  -19.4678   19.5625 C   0  0  0  0  0  0  0  0  0  0  0  0
  -29.4120  -20.5861   21.6081 C   0  0  0  0  0  0  0  0  0  0  0  0
  -17.8099  -31.0579   23.5417 C   0  0  0  0  0  0  0  0  0  0  0  0
  -18.4728  -28.3616   23.3499 C   0  0  0  0  0  0  0  0  0  0  0  0
  -22.5541  -23.8249   23.8666 C   0  0  0  0  0  0  0  0  0  0  0  0
  -28.4642  -20.6989   18.9867 C   0  0  0  0  0  0  0  0  0  0  0  0
  -29.0986  -21.8173   21.0322 C   0  0  0  0  0  0  0  0  0  0  0  0
  -22.5366  -22.4952   23.4477 C   0  0  0  0  0  0  0  0  0  0  0  0
  -30.1261  -23.2885   17.5848 C   0  0  0  0  0  0  0  0  0  0  0  0
  -30.5725  -23.5288   16.2854 C   0  0  0  0  0  0  0  0  0  0  0  0
  -26.6851  -12.7390   20.9044 C   0  0  0  0  0  0  0  0  0  0  0  0
  -23.7477  -23.1133   21.4551 C   0  0  0  0  0  0  0  0  0  0  0  0
  -28.2881  -23.8185   15.5542 C   0  0  0  0  0  0  0  0  0  0  0  0
  -26.0790  -12.6277   19.6387 C   0  0  0  0  0  0  0  0  0  0  0  0
  -29.2515  -19.4114   20.8733 C   0  0  0  0  0  0  0  0  0  0  0  0
  -30.8188  -17.4811   21.4436 C   0  0  0  0  0  0  0  0  0  0  0  0
  -18.7310  -30.6436   22.5667 C   0  0  0  0  0  0  0  0  0  0  0  0
  -23.1601  -24.8122   23.0763 C   0  0  0  0  0  0  0  0  0  0  0  0
  -19.0597  -29.2786   22.4614 C   0  0  0  0  0  0  0  0  0  0  0  0
  -23.7738  -24.4544   21.8674 C   0  0  0  0  0  0  0  0  0  0  0  0
  -28.6247  -21.8737   19.7215 C   0  0  0  0  0  0  0  0  0  0  0  0
  -23.1309  -22.1397   22.2405 C   0  0  0  0  0  0  0  0  0  0  0  0
  -28.7607  -23.3132   17.8690 C   0  0  0  0  0  0  0  0  0  0  0  0
  -29.6535  -23.7938   15.2700 C   0  0  0  0  0  0  0  0  0  0  0  0
  -27.8417  -23.5782   16.8537 C   0  0  0  0  0  0  0  0  0  0  0  0
  -29.5749  -18.1399   21.4689 C   0  0  0  0  0  0  0  0  0  0  0  0
  -25.6369  -12.9293   21.7715 C   0  0  0  0  0  0  0  0  0  0  0  0
  -30.6065  -16.3196   22.1453 C   0  0  0  0  0  0  0  0  0  0  0  0
  -32.0555  -17.8831   20.8398 C   0  0  0  0  0  0  0  0  0  0  0  0
  -25.6731  -13.1119   23.2282 C   0  0  0  0  0  0  0  0  0  0  0  0
  -22.1470  -27.4395   21.6017 C   0  0  0  0  0  0  0  0  0  0  0  0
  -25.3073  -27.8478   20.9950 C   0  0  0  0  0  0  0  0  0  0  0  0
  -28.3954  -26.4385   20.6417 C   0  0  0  0  0  0  0  0  0  0  0  0
  -19.2905  -31.6701   21.6139 C   0  0  0  0  0  0  0  0  0  0  0  0
  -23.1939  -26.2377   23.5551 C   0  0  0  0  0  0  0  0  0  0  0  0
  -24.4552  -25.4731   20.9920 C   0  0  0  0  0  0  0  0  0  0  0  0
  -20.5266  -31.1896   20.8579 C   0  0  0  0  0  0  0  0  0  0  0  0
  -27.9063  -14.4900   25.6480 C   0  0  0  0  0  0  0  0  0  0  0  0
  -20.3025  -29.7851   20.3063 C   0  0  0  0  0  0  0  0  0  0  0  0
  -28.6922  -15.5352   24.8544 C   0  0  0  0  0  0  0  0  0  0  0  0
  -26.4542  -14.4051   25.1846 C   0  0  0  0  0  0  0  0  0  0  0  0
  -27.0725  -15.2222   22.9363 C   0  0  0  0  0  0  0  0  0  0  0  0
  -20.0574  -28.7804   21.4385 C   0  0  1  0  0  0  0  0  0  0  0  0
  -23.3889  -27.2432   22.4245 C   0  0  1  0  0  0  0  0  0  0  0  0
  -28.5545  -15.3036   23.3378 C   0  0  1  0  0  0  0  0  0  0  0  0
  -30.7772  -27.0210   20.1078 C   0  0  0  0  0  0  0  0  0  0  0  0
  -24.5787  -28.1119   18.0438 C   0  0  0  0  0  0  0  0  0  0  0  0
  -26.9906  -27.7367   17.4865 C   0  0  0  0  0  0  0  0  0  0  0  0
  -26.3188  -29.7235   18.8370 C   0  0  0  0  0  0  0  0  0  0  0  0
  -29.3425  -25.4781   23.2760 C   0  0  0  0  0  0  0  0  0  0  0  0
  -22.4114  -16.7804   20.4524 C   0  0  0  0  0  0  0  0  0  0  0  0
  -23.1183  -15.5919   21.1059 C   0  0  0  0  0  0  0  0  0  0  0  0
  -23.1056  -18.0994   20.7976 C   0  0  0  0  0  0  0  0  0  0  0  0
  -22.4049  -14.2767   20.7878 C   0  0  0  0  0  0  0  0  0  0  0  0
  -22.4138  -19.2853   20.1184 C   0  0  0  0  0  0  0  0  0  0  0  0
  -23.0901  -13.0938   21.4754 C   0  0  0  0  0  0  0  0  0  0  0  0
  -23.1073  -20.6079   20.4214 C   0  0  0  0  0  0  0  0  0  1  0  0
  -26.2472  -27.4267   19.8912 C   0  0  1  0  0  0  0  0  0  0  0  0
  -29.7491  -26.8229   21.2109 C   0  0  2  0  0  0  0  0  0  0  0  0
  -26.0194  -28.2306   18.5800 C   0  0  0  0  0  0  0  0  0  0  0  0
  -24.7491  -12.7381   19.6922 N   0  0  0  0  0  0  0  0  0  0  0  0
  -28.6416  -17.4539   22.1339 N   0  0  0  0  0  0  0  0  0  0  0  0
  -24.5107  -12.9207   21.0022 N   0  0  0  0  0  0  0  0  0  0  0  0
  -29.2993  -16.3519   22.5329 N   0  0  0  0  0  0  0  0  0  0  0  0
  -26.3838  -14.2010   23.7382 N   0  0  0  0  0  0  0  0  0  0  0  0
  -24.4563  -26.8548   21.5004 N   0  0  0  0  0  0  0  0  0  0  0  0
  -31.4124  -15.2840   22.4624 N   0  0  0  0  0  0  0  0  0  0  0  0
  -32.0991  -19.1061   20.1568 N   0  0  0  0  0  0  0  0  0  0  0  0
  -21.3059  -28.4264   22.0792 N   0  0  0  0  0  0  0  0  0  0  0  0
  -27.5953  -27.5426   20.4366 N   0  0  0  0  0  0  0  0  0  0  0  0
  -30.2452  -25.7602   22.1303 N   0  3  0  0  0  0  0  0  0  0  0  0
  -33.0869  -17.1709   20.8900 O   0  0  0  0  0  0  0  0  0  0  0  0
  -25.0745  -12.2702   23.8964 O   0  0  0  0  0  0  0  0  0  0  0  0
  -21.9661  -26.7479   20.6064 O   0  0  0  0  0  0  0  0  0  0  0  0
  -25.3325  -29.0131   21.3989 O   0  0  0  0  0  0  0  0  0  0  0  0
  -28.0805  -25.2754   20.3995 O   0  0  0  0  0  0  0  0  0  0  0  0
  -28.3192  -23.0752   19.1598 O   0  0  0  0  0  0  0  0  0  0  0  0
  -23.1147  -20.8427   21.8289 O   0  0  0  0  0  0  0  0  0  1  0  0
  -30.0824  -24.0260   14.0225 F   0  0  0  0  0  0  0  0  0  0  0  0
  -26.5288  -23.6044   17.1208 F   0  0  0  0  0  0  0  0  0  0  0  0
  1  2  1  0  0  0  0
  1  5  2  0  0  0  0
  2  6  2  0  0  0  0
  3  8  2  0  0  0  0
  3 17  1  0  0  0  0
  4  9  1  0  0  0  0
  4 17  2  0  0  0  0
  5 19  1  0  0  0  0
  6 21  1  0  0  0  0
  7 10  2  0  0  0  0
  7 20  1  0  0  0  0
  8 23  1  0  0  0  0
  9 23  2  0  0  0  0
 10 24  1  0  0  0  0
 11 12  2  0  0  0  0
 11 25  1  0  0  0  0
 12 26  1  0  0  0  0
 13 16  1  0  0  0  0
 13 29  2  0  0  0  0
 14 22  1  0  0  0  0
 14 24  2  0  0  0  0
 15 26  2  0  0  0  0
 15 27  1  0  0  0  0
 16 63  2  0  0  0  0
 17 28  1  0  0  0  0
 18 28  1  0  0  0  0
 18 30  2  0  0  0  0
 18 31  1  0  0  0  0
 19 21  2  0  0  0  0
 19 36  1  0  0  0  0
 20 22  2  0  0  0  0
 20 37  1  0  0  0  0
 21 45  1  0  0  0  0
 22 38  1  0  0  0  0
 23 79  1  0  0  0  0
 24 80  1  0  0  0  0
 25 27  2  0  0  0  0
 25 79  1  0  0  0  0
 26 81  1  0  0  0  0
 27 82  1  0  0  0  0
 28 64  2  0  0  0  0
 29 32  1  0  0  0  0
 29 65  1  0  0  0  0
 30 66  1  0  0  0  0
 30 69  1  0  0  0  0
 31 70  1  0  0  0  0
 31 74  2  0  0  0  0
 32 67  1  0  0  0  0
 32 75  2  0  0  0  0
 33 46  1  0  0  0  0
 33 71  1  0  0  0  0
 33 76  2  0  0  0  0
 34 60  1  0  0  0  0
 34 68  1  0  0  0  0
 34 77  2  0  0  0  0
 35 61  1  0  0  0  0
 35 72  1  0  0  0  0
 35 78  2  0  0  0  0
 36 39  1  0  0  0  0
 37 46  1  0  0  0  0
 38 68  1  0  0  0  0
 39 41  1  0  0  0  0
 40 42  1  0  0  0  0
 40 43  1  0  0  0  0
 41 45  1  0  0  0  0
 42 47  1  0  0  0  0
 43 67  1  0  0  0  0
 44 47  1  0  0  0  0
 44 67  1  0  0  0  0
 45 71  1  0  0  0  0
 46 68  1  0  0  0  0
 47 66  1  0  0  0  0
 48 61  1  0  0  0  0
 49 62  1  0  0  0  0
 50 62  1  0  0  0  0
 51 62  1  0  0  0  0
 52 73  1  0  0  0  0
 53 54  1  0  0  0  0
 53 55  1  0  0  0  0
 54 56  1  0  0  0  0
 55 57  1  0  0  0  0
 56 58  1  0  0  0  0
 57 59  1  0  0  0  0
 58 65  1  0  0  0  0
 59 80  1  0  0  0  0
 60 62  1  0  0  0  0
 60 72  1  0  0  0  0
 61 73  1  0  0  0  0
 63 65  1  0  0  0  0
 64 66  1  0  0  0  0
M  CHG  1  73   1
M  ISO  4  29 100  32 100  59 101  80 101
M  END
> <Batch ID>
0038

> <Smiles>
CNC(C)C(=O)NC(C(=O)N1Cc2cc([101O:1][101CH2:1]CCCCCCn3ncc[100c:0]3[100C:0](=O)N3CCCC(n4nc(-c5ccc(Oc6ccc(F)cc6F)cc5)c(C(N)=O)c4N)C3)ccc2CC1C(=O)NC1CCCc2ccccc21)C(C)(C)C

> <Shape>
0.219

> <Color>
0.054

> <Negative vol penalty>
0.000

$$$$

  -OEChem-04052317013D

 87 95  0     1  0  0  0  0  0999 V2000
  -17.0011  -31.0975   23.2511 C   0  0  0  0  0  0  0  0  0  0  0  0
  -18.2247  -31.5364   23.7467 C   0  0  0  0  0  0  0  0  0  0  0  0
  -24.0638  -17.8057   20.8742 C   0  0  0  0  0  0  0  0  0  0  0  0
  -25.7840  -16.1105   20.8112 C   0  0  0  0  0  0  0  0  0  0  0  0
  -16.8794  -29.8050   22.7427 C   0  0  0  0  0  0  0  0  0  0  0  0
  -19.3271  -30.6826   23.7350 C   0  0  0  0  0  0  0  0  0  0  0  0
  -25.1840  -32.2441   22.8604 C   0  0  0  0  0  0  0  0  0  0  0  0
  -23.0844  -16.8136   20.8295 C   0  0  0  0  0  0  0  0  0  0  0  0
  -24.8046  -15.1183   20.7665 C   0  0  0  0  0  0  0  0  0  0  0  0
  -26.2369  -32.4696   23.7460 C   0  0  0  0  0  0  0  0  0  0  0  0
  -22.7458  -13.7522   18.4588 C   0  0  0  0  0  0  0  0  0  0  0  0
  -22.9152  -12.7152   17.5414 C   0  0  0  0  0  0  0  0  0  0  0  0
  -26.9841  -30.1983   23.4263 C   0  0  0  0  0  0  0  0  0  0  0  0
  -22.9295  -11.1157   19.3521 C   0  0  0  0  0  0  0  0  0  0  0  0
  -29.6932  -30.2094   26.2355 C   0  0  0  0  0  0  0  0  0  0  0  0
  -25.4136  -17.4542   20.8650 C   0  0  0  0  0  0  0  0  0  0  0  0
  -27.0187  -19.0374   22.0586 C   0  0  0  0  0  0  0  0  0  0  0  0
  -17.9833  -28.9381   22.7159 C   0  0  0  0  0  0  0  0  0  0  0  0
  -25.0166  -30.9887   22.2585 C   0  0  0  0  0  0  0  0  0  0  0  0
  -19.2197  -29.3768   23.2269 C   0  0  0  0  0  0  0  0  0  0  0  0
  -25.9297  -29.9603   22.5314 C   0  0  0  0  0  0  0  0  0  0  0  0
  -23.4548  -15.4699   20.7757 C   0  0  0  0  0  0  0  0  0  0  0  0
  -27.1355  -31.4457   24.0313 C   0  0  0  0  0  0  0  0  0  0  0  0
  -22.6683  -13.4709   19.8228 C   0  0  0  0  0  0  0  0  0  0  0  0
  -23.0070  -11.3970   17.9880 C   0  0  0  0  0  0  0  0  0  0  0  0
  -22.7601  -12.1527   20.2694 C   0  0  0  0  0  0  0  0  0  0  0  0
  -26.4258  -18.4786   20.9106 C   0  0  0  0  0  0  0  0  0  0  0  0
  -29.3885  -29.3006   27.2192 C   0  0  0  0  0  0  0  0  0  0  0  0
  -28.4479  -30.7396   25.8483 C   0  0  0  0  0  0  0  0  0  1  0  0
  -27.9111  -19.9599   21.5698 C   0  0  0  0  0  0  0  0  0  0  0  0
  -26.7839  -18.7482   23.4432 C   0  0  0  0  0  0  0  0  0  0  0  0
  -22.7439  -28.7668   22.2989 C   0  0  0  0  0  0  0  0  0  0  0  0
  -24.6121  -27.3703   20.0446 C   0  0  0  0  0  0  0  0  0  0  0  0
  -27.7147  -27.0117   18.6691 C   0  0  0  0  0  0  0  0  0  0  0  0
  -31.9043  -21.4292   17.9586 C   0  0  0  0  0  0  0  0  0  0  0  0
  -17.7913  -27.5340   22.2000 C   0  0  0  0  0  0  0  0  0  0  0  0
  -23.8912  -30.7696   21.2849 C   0  0  0  0  0  0  0  0  0  0  0  0
  -25.8059  -28.6005   21.8958 C   0  0  0  0  0  0  0  0  0  0  0  0
  -19.1011  -26.8185   21.8794 C   0  0  0  0  0  0  0  0  0  0  0  0
  -28.5259  -21.7892   16.8941 C   0  0  0  0  0  0  0  0  0  0  0  0
  -20.1035  -27.0063   23.0138 C   0  0  0  0  0  0  0  0  0  0  0  0
  -27.7285  -21.0012   17.9349 C   0  0  0  0  0  0  0  0  0  0  0  0
  -29.8650  -21.1229   16.5861 C   0  0  0  0  0  0  0  0  0  0  0  0
  -29.9067  -20.0562   18.8074 C   0  0  0  0  0  0  0  0  0  0  0  0
  -20.4448  -28.4885   23.2086 C   0  0  1  0  0  0  0  0  0  0  0  0
  -23.5167  -29.2993   21.1255 C   0  0  1  0  0  0  0  0  0  0  0  0
  -28.5728  -20.7189   19.1921 C   0  0  2  0  0  0  0  0  0  0  0  0
  -29.4675  -26.2430   17.0461 C   0  0  0  0  0  0  0  0  0  0  0  0
  -24.5685  -24.8429   21.7536 C   0  0  0  0  0  0  0  0  0  0  0  0
  -26.5183  -23.9979   20.4297 C   0  0  0  0  0  0  0  0  0  0  0  0
  -24.3419  -24.4439   19.2951 C   0  0  0  0  0  0  0  0  0  0  0  0
  -27.2288  -28.5629   28.2711 C   0  0  0  0  0  0  0  0  0  0  0  0
  -27.2624  -29.3401   16.8991 C   0  0  0  0  0  0  0  0  0  0  0  0
  -30.2729  -28.3977   28.0421 C   0  0  0  0  0  0  0  0  0  0  0  0
  -30.5104  -27.0191   27.4137 C   0  0  0  0  0  0  0  0  0  0  0  0
  -31.2317  -27.0295   26.0606 C   0  0  0  0  0  0  0  0  0  0  0  0
  -31.3669  -25.6409   25.4319 C   0  0  0  0  0  0  0  0  0  0  0  0
  -32.1198  -25.7080   24.1002 C   0  0  0  0  0  0  0  0  0  0  0  0
  -32.2285  -24.3247   23.4549 C   0  0  0  0  0  0  0  0  0  0  0  0
  -32.9641  -24.3361   22.1117 C   0  0  0  0  0  0  0  0  0  0  0  0
  -33.0516  -22.9570   21.4544 C   0  0  0  0  0  0  0  0  0  0  0  0
  -33.8147  -23.0222   20.1303 C   0  0  0  0  0  0  0  0  0  0  0  0
  -33.8710  -21.6577   19.4549 C   0  0  0  0  0  0  0  0  0  0  0  0
  -25.7602  -26.3902   20.0649 C   0  0  1  0  0  0  0  0  0  0  0  0
  -28.1868  -27.0429   17.2267 C   0  0  2  0  0  0  0  0  0  0  0  0
  -25.2987  -24.9437   20.3995 C   0  0  0  0  0  0  0  0  0  0  0  0
  -26.9013  -19.0026   19.7777 N   0  0  0  0  0  0  0  0  0  0  0  0
  -27.4281  -30.2118   26.5304 N   0  0  0  0  0  0  0  0  0  0  0  0
  -28.0321  -29.3403   27.3562 N   0  0  0  0  0  0  0  0  0  0  0  0
  -27.8025  -19.9003   20.2116 N   0  0  0  0  0  0  0  0  0  0  0  0
  -24.6854  -28.4336   20.9556 N   0  0  0  0  0  0  0  0  0  0  0  0
  -30.6171  -20.8842   17.8203 N   0  0  0  0  0  0  0  0  0  0  0  0
  -28.7703  -20.8083   22.1736 N   0  0  0  0  0  0  0  0  0  0  0  0
  -25.8328  -17.7720   23.7699 N   0  0  0  0  0  0  0  0  0  0  0  0
  -21.3759  -28.9306   22.1927 N   0  0  0  0  0  0  0  0  0  0  0  0
  -26.4307  -26.5204   18.7757 N   0  0  0  0  0  0  0  0  0  0  0  0
  -32.5453  -21.1605   19.1618 N   0  0  0  0  0  0  0  0  0  0  0  0
  -28.4445  -28.4462   16.7963 N   0  3  0  0  0  0  0  0  0  0  0  0
  -27.3874  -19.3497   24.3638 O   0  0  0  0  0  0  0  0  0  0  0  0
  -23.3441  -28.2446   23.2310 O   0  0  0  0  0  0  0  0  0  0  0  0
  -23.6879  -27.2027   19.2450 O   0  0  0  0  0  0  0  0  0  0  0  0
  -28.4162  -27.3822   19.6078 O   0  0  0  0  0  0  0  0  0  0  0  0
  -32.4404  -22.1097   17.0774 O   0  0  0  0  0  0  0  0  0  0  0  0
  -22.4993  -14.5014   20.7323 O   0  0  0  0  0  0  0  0  0  0  0  0
  -28.1893  -31.6683   24.9173 O   0  0  0  0  0  0  0  0  0  1  0  0
  -23.1681  -10.4011   17.1068 F   0  0  0  0  0  0  0  0  0  0  0  0
  -22.6852  -11.8762   21.5785 F   0  0  0  0  0  0  0  0  0  0  0  0
  1  2  1  0  0  0  0
  1  5  2  0  0  0  0
  2  6  2  0  0  0  0
  3  8  2  0  0  0  0
  3 16  1  0  0  0  0
  4  9  1  0  0  0  0
  4 16  2  0  0  0  0
  5 18  1  0  0  0  0
  6 20  1  0  0  0  0
  7 10  2  0  0  0  0
  7 19  1  0  0  0  0
  8 22  1  0  0  0  0
  9 22  2  0  0  0  0
 10 23  1  0  0  0  0
 11 12  2  0  0  0  0
 11 24  1  0  0  0  0
 12 25  1  0  0  0  0
 13 21  1  0  0  0  0
 13 23  2  0  0  0  0
 14 25  2  0  0  0  0
 14 26  1  0  0  0  0
 15 28  2  0  0  0  0
 15 29  1  0  0  0  0
 16 27  1  0  0  0  0
 17 27  1  0  0  0  0
 17 30  2  0  0  0  0
 17 31  1  0  0  0  0
 18 20  2  0  0  0  0
 18 36  1  0  0  0  0
 19 21  2  0  0  0  0
 19 37  1  0  0  0  0
 20 45  1  0  0  0  0
 21 38  1  0  0  0  0
 22 84  1  0  0  0  0
 23 85  1  0  0  0  0
 24 26  2  0  0  0  0
 24 84  1  0  0  0  0
 25 86  1  0  0  0  0
 26 87  1  0  0  0  0
 27 67  2  0  0  0  0
 28 54  1  0  0  0  0
 28 69  1  0  0  0  0
 29 68  2  0  0  0  0
 29 85  1  0  0  0  0
 30 70  1  0  0  0  0
 30 73  1  0  0  0  0
 31 74  1  0  0  0  0
 31 79  2  0  0  0  0
 32 46  1  0  0  0  0
 32 75  1  0  0  0  0
 32 80  2  0  0  0  0
 33 64  1  0  0  0  0
 33 71  1  0  0  0  0
 33 81  2  0  0  0  0
 34 65  1  0  0  0  0
 34 76  1  0  0  0  0
 34 82  2  0  0  0  0
 35 72  1  0  0  0  0
 35 77  1  0  0  0  0
 35 83  2  0  0  0  0
 36 39  1  0  0  0  0
 37 46  1  0  0  0  0
 38 71  1  0  0  0  0
 39 41  1  0  0  0  0
 40 42  1  0  0  0  0
 40 43  1  0  0  0  0
 41 45  1  0  0  0  0
 42 47  1  0  0  0  0
 43 72  1  0  0  0  0
 44 47  1  0  0  0  0
 44 72  1  0  0  0  0
 45 75  1  0  0  0  0
 46 71  1  0  0  0  0
 47 70  1  0  0  0  0
 48 65  1  0  0  0  0
 49 66  1  0  0  0  0
 50 66  1  0  0  0  0
 51 66  1  0  0  0  0
 52 69  1  0  0  0  0
 53 78  1  0  0  0  0
 54 55  1  0  0  0  0
 55 56  1  0  0  0  0
 56 57  1  0  0  0  0
 57 58  1  0  0  0  0
 58 59  1  0  0  0  0
 59 60  1  0  0  0  0
 60 61  1  0  0  0  0
 61 62  1  0  0  0  0
 62 63  1  0  0  0  0
 63 77  1  0  0  0  0
 64 66  1  0  0  0  0
 64 76  1  0  0  0  0
 65 78  1  0  0  0  0
 67 70  1  0  0  0  0
 68 69  1  0  0  0  0
M  CHG  1  78   1
M  ISO  4  29 101  35 100  77 100  85 101
M  END
> <Batch ID>
0038

> <Smiles>
CNC(C)C(=O)NC(C(=O)N1Cc2cc([101O:1][101c:1]3cc(CCCCCCCCCC[100NH:0][100C:0](=O)N4CCCC(n5nc(-c6ccc(Oc7ccc(F)cc7F)cc6)c(C(N)=O)c5N)C4)n(C)n3)ccc2CC1C(=O)NC1CCCc2ccccc21)C(C)(C)C

> <Shape>
0.229

> <Color>
0.096

> <Negative vol penalty>
0.000

$$$$

  -OEChem-04052317013D

 90 98  0     1  0  0  0  0  0999 V2000
  -26.7616  -24.4246   14.6459 C   0  0  0  0  0  0  0  0  0  0  0  0
  -25.6056  -24.6237   15.3938 C   0  0  0  0  0  0  0  0  0  0  0  0
  -24.2399   -9.5488   21.3772 C   0  0  0  0  0  0  0  0  0  0  0  0
  -24.7481  -10.6031   23.4908 C   0  0  0  0  0  0  0  0  0  0  0  0
  -28.0106  -24.5082   15.2597 C   0  0  0  0  0  0  0  0  0  0  0  0
  -25.6980  -24.9055   16.7563 C   0  0  0  0  0  0  0  0  0  0  0  0
  -22.0200  -28.5577   20.0181 C   0  0  0  0  0  0  0  0  0  0  0  0
  -23.8456   -8.3918   22.0492 C   0  0  0  0  0  0  0  0  0  0  0  0
  -24.3538   -9.4462   24.1628 C   0  0  0  0  0  0  0  0  0  0  0  0
  -20.9327  -28.2930   20.8497 C   0  0  0  0  0  0  0  0  0  0  0  0
  -21.1374   -7.3028   23.7559 C   0  0  0  0  0  0  0  0  0  0  0  0
  -19.9521   -6.6897   23.3502 C   0  0  0  0  0  0  0  0  0  0  0  0
  -22.3932  -28.3537   22.7686 C   0  0  0  0  0  0  0  0  0  0  0  0
  -21.1754   -4.6745   22.8214 C   0  0  0  0  0  0  0  0  0  0  0  0
  -19.2917  -24.4029   23.0280 C   0  0  0  0  0  0  0  0  0  0  0  0
  -24.6912  -10.6545   22.0980 C   0  0  0  0  0  0  0  0  0  0  0  0
  -24.2898  -12.9464   21.0522 C   0  0  0  0  0  0  0  0  0  0  0  0
  -28.1187  -24.8007   16.6284 C   0  0  0  0  0  0  0  0  0  0  0  0
  -23.3060  -28.7119   20.5554 C   0  0  0  0  0  0  0  0  0  0  0  0
  -26.9496  -24.9917   17.3893 C   0  0  0  0  0  0  0  0  0  0  0  0
  -23.4947  -28.6229   21.9420 C   0  0  0  0  0  0  0  0  0  0  0  0
  -23.9026   -8.3405   23.4419 C   0  0  0  0  0  0  0  0  0  0  0  0
  -21.1197  -28.1880   22.2249 C   0  0  0  0  0  0  0  0  0  0  0  0
  -22.3418   -6.6019   23.6942 C   0  0  0  0  0  0  0  0  0  0  0  0
  -19.9710   -5.3755   22.8830 C   0  0  0  0  0  0  0  0  0  0  0  0
  -22.3608   -5.2877   23.2270 C   0  0  0  0  0  0  0  0  0  0  0  0
  -25.0991  -11.8497   21.4044 C   0  0  0  0  0  0  0  0  0  0  0  0
  -18.8419  -23.3607   22.2570 C   0  0  0  0  0  0  0  0  0  0  0  0
  -25.1440  -13.8131   20.4154 C   0  0  0  0  0  0  0  0  0  0  0  0
  -22.8908  -13.1623   21.2804 C   0  0  0  0  0  0  0  0  0  0  0  0
  -26.0684  -27.1714   20.2399 C   0  0  0  0  0  0  0  0  0  0  0  0
  -30.0786  -16.4394   20.2104 C   0  0  0  0  0  0  0  0  0  0  0  0
  -27.1886  -29.6070   22.0662 C   0  0  0  0  0  0  0  0  0  0  0  0
  -26.5304  -32.0547   24.3514 C   0  0  0  0  0  0  0  0  0  0  0  0
  -29.4890  -24.8341   17.2575 C   0  0  0  0  0  0  0  0  0  0  0  0
  -24.4640  -29.0237   19.6475 C   0  0  0  0  0  0  0  0  0  0  0  0
  -24.8518  -28.8004   22.5707 C   0  0  0  0  0  0  0  0  0  0  0  0
  -29.5140  -25.5069   18.6276 C   0  0  0  0  0  0  0  0  0  0  0  0
  -29.8724  -13.1686   18.7615 C   0  0  0  0  0  0  0  0  0  0  0  0
  -28.3683  -24.9948   19.4948 C   0  0  0  0  0  0  0  0  0  0  0  0
  -28.5610  -12.6128   19.3150 C   0  0  0  0  0  0  0  0  0  0  0  0
  -30.5779  -14.0558   19.7824 C   0  0  0  0  0  0  0  0  0  0  0  0
  -28.4216  -14.6204   20.8562 C   0  0  0  0  0  0  0  0  0  0  0  0
  -27.0096  -25.3239   18.8645 C   0  0  1  0  0  0  0  0  0  0  0  0
  -25.8144  -28.6522   20.2525 C   0  0  1  0  0  0  0  0  0  0  0  0
  -27.6616  -13.7433   19.8454 C   0  0  2  0  0  0  0  0  0  0  0  0
  -27.6548  -33.8597   25.6837 C   0  0  0  0  0  0  0  0  0  0  0  0
  -28.3234  -27.4998   23.9588 C   0  0  0  0  0  0  0  0  0  0  0  0
  -28.5763  -29.2911   25.6896 C   0  0  0  0  0  0  0  0  0  0  0  0
  -29.8339  -29.4487   23.5411 C   0  0  0  0  0  0  0  0  0  0  0  0
  -24.8982  -34.1707   23.0798 C   0  0  0  0  0  0  0  0  0  0  0  0
  -19.6368  -22.3041   21.5314 C   0  0  0  0  0  0  0  0  0  0  0  0
  -29.1026  -17.4611   20.7374 C   0  0  0  0  0  0  0  0  0  0  0  0
  -19.9812  -22.7396   20.1047 C   0  0  0  0  0  0  0  0  0  0  0  0
  -29.6590  -18.8754   20.6025 C   0  0  0  0  0  0  0  0  0  0  0  0
  -20.8775  -23.9802   20.0481 C   0  0  0  0  0  0  0  0  0  0  0  0
  -28.7620  -19.9832   21.1676 C   0  0  0  0  0  0  0  0  0  0  0  0
  -22.1944  -23.8137   20.8112 C   0  0  0  0  0  0  0  0  0  0  0  0
  -27.4185  -20.1085   20.4458 C   0  0  0  0  0  0  0  0  0  0  0  0
  -23.0303  -22.6717   20.2266 C   0  0  0  0  0  0  0  0  0  0  0  0
  -26.5760  -21.2414   21.0369 C   0  0  0  0  0  0  0  0  0  0  0  0
  -24.3928  -22.5047   20.9058 C   0  0  0  0  0  0  0  0  0  0  0  0
  -25.2181  -21.3476   20.3388 C   0  0  0  0  0  0  0  0  0  0  0  0
  -17.7427  -27.4769   23.4887 C   0  0  0  0  0  0  0  0  0  0  0  0
  -18.0225  -26.1878   24.2644 C   0  0  0  0  0  0  0  0  0  0  0  0
  -18.7854  -27.7761   22.4179 C   0  0  0  0  0  0  0  0  0  1  0  0
  -27.3378  -29.8506   23.5485 C   0  0  1  0  0  0  0  0  0  0  0  0
  -26.9189  -33.5215   24.3965 C   0  0  2  0  0  0  0  0  0  0  0  0
  -28.4925  -29.0173   24.1728 C   0  0  0  0  0  0  0  0  0  0  0  0
  -26.3699  -12.0031   21.0228 N   0  0  0  0  0  0  0  0  0  0  0  0
  -17.4754  -23.3780   22.2130 N   0  0  0  0  0  0  0  0  0  0  0  0
  -17.0567  -24.4091   22.9388 N   0  0  0  0  0  0  0  0  0  0  0  0
  -18.1473  -25.0223   23.4265 N   0  0  0  0  0  0  0  0  0  0  0  0
  -26.3655  -13.2063   20.4242 N   0  0  0  0  0  0  0  0  0  0  0  0
  -25.9536  -29.0975   21.6405 N   0  0  0  0  0  0  0  0  0  0  0  0
  -29.6836  -15.1032   20.2785 N   0  0  0  0  0  0  0  0  0  0  0  0
  -24.9620  -15.0273   19.8542 N   0  0  0  0  0  0  0  0  0  0  0  0
  -22.1620  -12.1699   21.9499 N   0  0  0  0  0  0  0  0  0  0  0  0
  -26.6737  -26.7142   19.0848 N   0  0  0  0  0  0  0  0  0  0  0  0
  -27.4856  -31.2928   23.7123 N   0  0  0  0  0  0  0  0  0  0  0  0
  -25.7052  -34.3817   24.3091 N   0  3  0  0  0  0  0  0  0  0  0  0
  -22.3010  -14.1973   20.8873 O   0  0  0  0  0  0  0  0  0  0  0  0
  -25.7409  -26.4939   21.2071 O   0  0  0  0  0  0  0  0  0  0  0  0
  -31.1580  -16.8197   19.7495 O   0  0  0  0  0  0  0  0  0  0  0  0
  -28.1304  -29.8660   21.3129 O   0  0  0  0  0  0  0  0  0  0  0  0
  -25.4860  -31.6270   24.8380 O   0  0  0  0  0  0  0  0  0  0  0  0
  -23.5177   -7.2117   24.0980 O   0  0  0  0  0  0  0  0  0  0  0  0
  -20.0528  -27.9272   23.0445 O   0  0  0  0  0  0  0  0  0  1  0  0
  -18.8324   -4.7863   22.4950 F   0  0  0  0  0  0  0  0  0  0  0  0
  -23.5146   -4.6089   23.1665 F   0  0  0  0  0  0  0  0  0  0  0  0
  1  2  1  0  0  0  0
  1  5  2  0  0  0  0
  2  6  2  0  0  0  0
  3  8  2  0  0  0  0
  3 16  1  0  0  0  0
  4  9  1  0  0  0  0
  4 16  2  0  0  0  0
  5 18  1  0  0  0  0
  6 20  1  0  0  0  0
  7 10  2  0  0  0  0
  7 19  1  0  0  0  0
  8 22  1  0  0  0  0
  9 22  2  0  0  0  0
 10 23  1  0  0  0  0
 11 12  2  0  0  0  0
 11 24  1  0  0  0  0
 12 25  1  0  0  0  0
 13 21  1  0  0  0  0
 13 23  2  0  0  0  0
 14 25  2  0  0  0  0
 14 26  1  0  0  0  0
 15 28  2  0  0  0  0
 15 73  1  0  0  0  0
 16 27  1  0  0  0  0
 17 27  1  0  0  0  0
 17 29  2  0  0  0  0
 17 30  1  0  0  0  0
 18 20  2  0  0  0  0
 18 35  1  0  0  0  0
 19 21  2  0  0  0  0
 19 36  1  0  0  0  0
 20 44  1  0  0  0  0
 21 37  1  0  0  0  0
 22 87  1  0  0  0  0
 23 88  1  0  0  0  0
 24 26  2  0  0  0  0
 24 87  1  0  0  0  0
 25 89  1  0  0  0  0
 26 90  1  0  0  0  0
 27 70  2  0  0  0  0
 28 52  1  0  0  0  0
 28 71  1  0  0  0  0
 29 74  1  0  0  0  0
 29 77  1  0  0  0  0
 30 78  1  0  0  0  0
 30 82  2  0  0  0  0
 31 45  1  0  0  0  0
 31 79  1  0  0  0  0
 31 83  2  0  0  0  0
 32 53  1  0  0  0  0
 32 76  1  0  0  0  0
 32 84  2  0  0  0  0
 33 67  1  0  0  0  0
 33 75  1  0  0  0  0
 33 85  2  0  0  0  0
 34 68  1  0  0  0  0
 34 80  1  0  0  0  0
 34 86  2  0  0  0  0
 35 38  1  0  0  0  0
 36 45  1  0  0  0  0
 37 75  1  0  0  0  0
 38 40  1  0  0  0  0
 39 41  1  0  0  0  0
 39 42  1  0  0  0  0
 40 44  1  0  0  0  0
 41 46  1  0  0  0  0
 42 76  1  0  0  0  0
 43 46  1  0  0  0  0
 43 76  1  0  0  0  0
 44 79  1  0  0  0  0
 45 75  1  0  0  0  0
 46 74  1  0  0  0  0
 47 68  1  0  0  0  0
 48 69  1  0  0  0  0
 49 69  1  0  0  0  0
 50 69  1  0  0  0  0
 51 81  1  0  0  0  0
 52 54  1  0  0  0  0
 53 55  1  0  0  0  0
 54 56  1  0  0  0  0
 55 57  1  0  0  0  0
 56 58  1  0  0  0  0
 57 59  1  0  0  0  0
 58 60  1  0  0  0  0
 59 61  1  0  0  0  0
 60 62  1  0  0  0  0
 61 63  1  0  0  0  0
 62 63  1  0  0  0  0
 64 65  1  0  0  0  0
 64 66  1  0  0  0  0
 65 73  1  0  0  0  0
 66 88  1  0  0  0  0
 67 69  1  0  0  0  0
 67 80  1  0  0  0  0
 68 81  1  0  0  0  0
 70 74  1  0  0  0  0
 71 72  2  0  0  0  0
 72 73  1  0  0  0  0
M  CHG  1  81   1
M  ISO  4  32 100  53 100  66 101  88 101
M  END
> <Batch ID>
0038

> <Smiles>
CNC(C)C(=O)NC(C(=O)N1Cc2cc([101O:1][101CH2:1]CCn3cc(CCCCCCCCCCC[100CH2:0][100C:0](=O)N4CCCC(n5nc(-c6ccc(Oc7ccc(F)cc7F)cc6)c(C(N)=O)c5N)C4)nn3)ccc2CC1C(=O)NC1CCCc2ccccc21)C(C)(C)C

> <Shape>
0.328

> <Color>
0.123

> <Negative vol penalty>
0.000

$$$$

  -OEChem-04052317013D

 87 95  0     1  0  0  0  0  0999 V2000
  -30.5213  -24.2924   17.2146 C   0  0  0  0  0  0  0  0  0  0  0  0
  -29.2719  -24.2584   17.8256 C   0  0  0  0  0  0  0  0  0  0  0  0
  -28.4836  -17.3705   22.3681 C   0  0  0  0  0  0  0  0  0  0  0  0
  -26.0905  -17.2148   22.6611 C   0  0  0  0  0  0  0  0  0  0  0  0
  -31.5369  -25.0830   17.7508 C   0  0  0  0  0  0  0  0  0  0  0  0
  -29.0377  -25.0141   18.9738 C   0  0  0  0  0  0  0  0  0  0  0  0
  -24.6081  -27.4635   18.8176 C   0  0  0  0  0  0  0  0  0  0  0  0
  -28.5375  -16.0060   22.0839 C   0  0  0  0  0  0  0  0  0  0  0  0
  -26.1444  -15.8503   22.3768 C   0  0  0  0  0  0  0  0  0  0  0  0
  -23.4593  -26.7191   19.0820 C   0  0  0  0  0  0  0  0  0  0  0  0
  -27.8947  -13.9825   19.4523 C   0  0  0  0  0  0  0  0  0  0  0  0
  -28.6681  -13.5770   18.3646 C   0  0  0  0  0  0  0  0  0  0  0  0
  -23.4314  -27.5743   21.3374 C   0  0  0  0  0  0  0  0  0  0  0  0
  -20.1115  -23.4321   24.8394 C   0  0  0  0  0  0  0  0  0  0  0  0
  -20.9718  -25.6488   25.2005 C   0  0  0  0  0  0  0  0  0  0  0  0
  -30.0308  -12.2296   19.8359 C   0  0  0  0  0  0  0  0  0  0  0  0
  -27.2600  -17.9749   22.6568 C   0  0  0  0  0  0  0  0  0  0  0  0
  -27.0229  -20.4375   22.0347 C   0  0  0  0  0  0  0  0  0  0  0  0
  -31.3121  -25.8563   18.9006 C   0  0  0  0  0  0  0  0  0  0  0  0
  -25.1844  -28.2617   19.8161 C   0  0  0  0  0  0  0  0  0  0  0  0
  -30.0517  -25.8147   19.5266 C   0  0  0  0  0  0  0  0  0  0  0  0
  -24.5861  -28.3299   21.0824 C   0  0  0  0  0  0  0  0  0  0  0  0
  -20.1441  -24.7797   24.4985 C   0  0  0  0  0  0  0  0  0  0  0  0
  -27.3680  -15.2459   22.0882 C   0  0  0  0  0  0  0  0  0  0  0  0
  -22.8724  -26.7722   20.3429 C   0  0  0  0  0  0  0  0  0  0  0  0
  -28.1894  -13.5116   20.7318 C   0  0  0  0  0  0  0  0  0  0  0  0
  -29.7361  -12.7006   18.5564 C   0  0  0  0  0  0  0  0  0  0  0  0
  -29.2575  -12.6351   20.9236 C   0  0  0  0  0  0  0  0  0  0  0  0
  -27.2037  -19.3843   22.9511 C   0  0  0  0  0  0  0  0  0  0  0  0
  -20.9193  -23.0071   25.8819 C   0  0  0  0  0  0  0  0  0  0  0  0
  -21.7409  -25.1247   26.2269 C   0  0  0  0  0  0  0  0  0  0  0  0
  -27.0428  -21.5726   22.8078 C   0  0  0  0  0  0  0  0  0  0  0  0
  -26.8520  -20.3937   20.6118 C   0  0  0  0  0  0  0  0  0  0  0  0
  -27.9882  -28.3056   21.3129 C   0  0  0  0  0  0  0  0  0  0  0  0
  -26.8145  -31.0388   22.6069 C   0  0  0  0  0  0  0  0  0  0  0  0
  -24.0852  -32.9066   23.4490 C   0  0  0  0  0  0  0  0  0  0  0  0
  -25.4954  -24.3753   27.3790 C   0  0  0  0  0  0  0  0  0  0  0  0
  -32.4549  -26.6587   19.4706 C   0  0  0  0  0  0  0  0  0  0  0  0
  -26.4084  -29.0794   19.5070 C   0  0  0  0  0  0  0  0  0  0  0  0
  -25.1541  -29.1872   22.1828 C   0  0  0  0  0  0  0  0  0  0  0  0
  -32.0127  -27.7201   20.4746 C   0  0  0  0  0  0  0  0  0  0  0  0
  -28.3243  -22.2312   27.6566 C   0  0  0  0  0  0  0  0  0  0  0  0
  -31.0180  -27.1318   21.4702 C   0  0  0  0  0  0  0  0  0  0  0  0
  -28.2662  -21.3826   26.3852 C   0  0  0  0  0  0  0  0  0  0  0  0
  -26.9287  -22.5293   28.2003 C   0  0  0  0  0  0  0  0  0  0  0  0
  -25.9427  -22.2852   25.9549 C   0  0  0  0  0  0  0  0  0  0  0  0
  -29.7515  -26.6397   20.7593 C   0  0  1  0  0  0  0  0  0  0  0  0
  -27.2041  -29.4582   20.7523 C   0  0  1  0  0  0  0  0  0  0  0  0
  -27.3237  -22.0055   25.3378 C   0  0  2  0  0  0  0  0  0  0  0  0
  -22.8249  -16.9418   25.4124 C   0  0  0  0  0  0  0  0  0  0  0  0
  -23.4416  -35.0791   24.5275 C   0  0  0  0  0  0  0  0  0  0  0  0
  -27.4308  -29.8563   25.3513 C   0  0  0  0  0  0  0  0  0  0  0  0
  -25.9360  -31.5939   26.3585 C   0  0  0  0  0  0  0  0  0  0  0  0
  -27.9844  -32.2834   25.1130 C   0  0  0  0  0  0  0  0  0  0  0  0
  -22.7577  -33.8697   20.9855 C   0  0  0  0  0  0  0  0  0  0  0  0
  -19.2862  -25.2962   23.3712 C   0  0  0  0  0  0  0  0  0  0  0  0
  -20.9114  -21.5675   26.2744 C   0  0  0  0  0  0  0  0  0  0  0  0
  -22.6392  -26.0291   27.0027 C   0  0  0  0  0  0  0  0  0  0  0  0
  -22.9130  -18.4257   25.0927 C   0  0  0  0  0  0  0  0  0  0  0  0
  -19.9728  -25.2518   22.0044 C   0  0  0  0  0  0  0  0  0  0  0  0
  -21.9476  -20.7195   25.5255 C   0  0  0  0  0  0  0  0  0  0  0  0
  -21.8795  -19.2309   25.8812 C   0  0  0  0  0  0  0  0  0  0  0  0
  -24.0495  -26.1461   26.4132 C   0  0  0  0  0  0  0  0  0  0  0  0
  -21.2028  -26.1477   21.9172 C   0  0  0  0  0  0  0  0  0  1  0  0
  -26.0012  -31.3781   23.8326 C   0  0  1  0  0  0  0  0  0  0  0  0
  -23.7568  -34.3707   23.2192 C   0  0  2  0  0  0  0  0  0  0  0  0
  -26.8283  -31.2602   25.1439 C   0  0  0  0  0  0  0  0  0  0  0  0
  -27.3295  -19.8121   24.2101 N   0  0  0  0  0  0  0  0  0  0  0  0
  -21.7360  -23.8216   26.5870 N   0  0  0  0  0  0  0  0  0  0  0  0
  -27.2276  -21.1468   24.0903 N   0  0  0  0  0  0  0  0  0  0  0  0
  -26.3554  -29.9633   21.8334 N   0  0  0  0  0  0  0  0  0  0  0  0
  -26.0855  -23.1199   27.1581 N   0  0  0  0  0  0  0  0  0  0  0  0
  -26.9203  -22.8833   22.5089 N   0  0  0  0  0  0  0  0  0  0  0  0
  -26.8562  -19.1445   19.9765 N   0  0  0  0  0  0  0  0  0  0  0  0
  -28.8934  -27.7561   20.4251 N   0  0  0  0  0  0  0  0  0  0  0  0
  -25.4412  -32.7044   23.5966 N   0  0  0  0  0  0  0  0  0  0  0  0
  -24.7167  -24.8655   26.3378 N   0  0  0  0  0  0  0  0  0  0  0  0
  -22.5773  -34.5017   22.3178 N   0  3  0  0  0  0  0  0  0  0  0  0
  -26.7165  -21.4328   19.9222 O   0  0  0  0  0  0  0  0  0  0  0  0
  -27.7879  -27.9426   22.4661 O   0  0  0  0  0  0  0  0  0  0  0  0
  -27.8162  -31.7081   22.3414 O   0  0  0  0  0  0  0  0  0  0  0  0
  -23.2247  -32.0304   23.4968 O   0  0  0  0  0  0  0  0  0  0  0  0
  -25.6553  -25.0145   28.4244 O   0  0  0  0  0  0  0  0  0  0  0  0
  -27.4202  -13.9144   21.8106 O   0  0  0  0  0  0  0  0  0  0  0  0
  -21.7514  -26.0461   20.6038 O   0  0  0  0  0  0  0  0  0  1  0  0
  -30.4777  -12.3101   17.5116 F   0  0  0  0  0  0  0  0  0  0  0  0
  -29.5447  -12.1785   22.1503 F   0  0  0  0  0  0  0  0  0  0  0  0
  1  2  1  0  0  0  0
  1  5  2  0  0  0  0
  2  6  2  0  0  0  0
  3  8  2  0  0  0  0
  3 17  1  0  0  0  0
  4  9  1  0  0  0  0
  4 17  2  0  0  0  0
  5 19  1  0  0  0  0
  6 21  1  0  0  0  0
  7 10  2  0  0  0  0
  7 20  1  0  0  0  0
  8 24  1  0  0  0  0
  9 24  2  0  0  0  0
 10 25  1  0  0  0  0
 11 12  2  0  0  0  0
 11 26  1  0  0  0  0
 12 27  1  0  0  0  0
 13 22  1  0  0  0  0
 13 25  2  0  0  0  0
 14 23  2  0  0  0  0
 14 30  1  0  0  0  0
 15 23  1  0  0  0  0
 15 31  2  0  0  0  0
 16 27  2  0  0  0  0
 16 28  1  0  0  0  0
 17 29  1  0  0  0  0
 18 29  1  0  0  0  0
 18 32  2  0  0  0  0
 18 33  1  0  0  0  0
 19 21  2  0  0  0  0
 19 38  1  0  0  0  0
 20 22  2  0  0  0  0
 20 39  1  0  0  0  0
 21 47  1  0  0  0  0
 22 40  1  0  0  0  0
 23 56  1  0  0  0  0
 24 84  1  0  0  0  0
 25 85  1  0  0  0  0
 26 28  2  0  0  0  0
 26 84  1  0  0  0  0
 27 86  1  0  0  0  0
 28 87  1  0  0  0  0
 29 68  2  0  0  0  0
 30 57  1  0  0  0  0
 30 69  2  0  0  0  0
 31 58  1  0  0  0  0
 31 69  1  0  0  0  0
 32 70  1  0  0  0  0
 32 73  1  0  0  0  0
 33 74  1  0  0  0  0
 33 79  2  0  0  0  0
 34 48  1  0  0  0  0
 34 75  1  0  0  0  0
 34 80  2  0  0  0  0
 35 65  1  0  0  0  0
 35 71  1  0  0  0  0
 35 81  2  0  0  0  0
 36 66  1  0  0  0  0
 36 76  1  0  0  0  0
 36 82  2  0  0  0  0
 37 72  1  0  0  0  0
 37 77  1  0  0  0  0
 37 83  2  0  0  0  0
 38 41  1  0  0  0  0
 39 48  1  0  0  0  0
 40 71  1  0  0  0  0
 41 43  1  0  0  0  0
 42 44  1  0  0  0  0
 42 45  1  0  0  0  0
 43 47  1  0  0  0  0
 44 49  1  0  0  0  0
 45 72  1  0  0  0  0
 46 49  1  0  0  0  0
 46 72  1  0  0  0  0
 47 75  1  0  0  0  0
 48 71  1  0  0  0  0
 49 70  1  0  0  0  0
 50 59  1  0  0  0  0
 51 66  1  0  0  0  0
 52 67  1  0  0  0  0
 53 67  1  0  0  0  0
 54 67  1  0  0  0  0
 55 78  1  0  0  0  0
 56 60  1  0  0  0  0
 57 61  1  0  0  0  0
 58 63  1  0  0  0  0
 59 62  1  0  0  0  0
 60 64  1  0  0  0  0
 61 62  1  0  0  0  0
 63 77  1  0  0  0  0
 64 85  1  0  0  0  0
 65 67  1  0  0  0  0
 65 76  1  0  0  0  0
 66 78  1  0  0  0  0
 68 70  1  0  0  0  0
M  CHG  1  78   1
M  ISO  4  37 100  64 101  77 100  85 101
M  END
> <Batch ID>
0038

> <Smiles>
CCCCCc1cc(CC[101CH2:1][101O:1]c2ccc3c(c2)CN(C(=O)C(NC(=O)C(C)NC)C(C)(C)C)C(C(=O)NC2CCCc4ccccc42)C3)cc(CC[100NH:0][100C:0](=O)N2CCCC(n3nc(-c4ccc(Oc5ccc(F)cc5F)cc4)c(C(N)=O)c3N)C2)n1

> <Shape>
0.235

> <Color>
0.057

> <Negative vol penalty>
0.000

$$$$

  -OEChem-04052317013D

 87 95  0     1  0  0  0  0  0999 V2000
  -17.2563  -30.4434   23.9890 C   0  0  0  0  0  0  0  0  0  0  0  0
  -18.6202  -30.7178   23.9830 C   0  0  0  0  0  0  0  0  0  0  0  0
  -21.2723  -18.4968   21.1836 C   0  0  0  0  0  0  0  0  0  0  0  0
  -23.1575  -19.5089   20.0616 C   0  0  0  0  0  0  0  0  0  0  0  0
  -16.7939  -29.2037   23.5493 C   0  0  0  0  0  0  0  0  0  0  0  0
  -19.5226  -29.7522   23.5384 C   0  0  0  0  0  0  0  0  0  0  0  0
  -25.8063  -29.1192   20.1574 C   0  0  0  0  0  0  0  0  0  0  0  0
  -20.9897  -19.7129   21.8057 C   0  0  0  0  0  0  0  0  0  0  0  0
  -22.8748  -20.7250   20.6836 C   0  0  0  0  0  0  0  0  0  0  0  0
  -27.0531  -28.5133   20.3061 C   0  0  0  0  0  0  0  0  0  0  0  0
  -22.1597  -21.5021   24.4237 C   0  0  0  0  0  0  0  0  0  0  0  0
  -21.8647  -21.4788   25.7868 C   0  0  0  0  0  0  0  0  0  0  0  0
  -26.1336  -26.4358   19.4951 C   0  0  0  0  0  0  0  0  0  0  0  0
  -30.7021  -22.9429   18.3131 C   0  0  0  0  0  0  0  0  0  0  0  0
  -19.6929  -22.4352   25.3332 C   0  0  0  0  0  0  0  0  0  0  0  0
  -22.3562  -18.3948   20.3116 C   0  0  0  0  0  0  0  0  0  0  0  0
  -22.1578  -16.6821   18.4315 C   0  0  0  0  0  0  0  0  0  0  0  0
  -17.6903  -28.2259   23.0900 C   0  0  0  0  0  0  0  0  0  0  0  0
  -24.7093  -28.3838   19.6860 C   0  0  0  0  0  0  0  0  0  0  0  0
  -19.0718  -28.4978   23.0934 C   0  0  0  0  0  0  0  0  0  0  0  0
  -24.8745  -27.0354   19.3389 C   0  0  0  0  0  0  0  0  0  0  0  0
  -30.8584  -21.6060   17.9645 C   0  0  0  0  0  0  0  0  0  0  0  0
  -30.1408  -23.2743   19.5413 C   0  0  0  0  0  0  0  0  0  0  0  0
  -21.7909  -20.8269   21.5557 C   0  0  0  0  0  0  0  0  0  0  0  0
  -27.2162  -27.1707   19.9776 C   0  0  0  0  0  0  0  0  0  0  0  0
  -21.2213  -21.9920   23.5153 C   0  0  0  0  0  0  0  0  0  0  0  0
  -20.6314  -21.9453   26.2416 C   0  0  0  0  0  0  0  0  0  0  0  0
  -19.9879  -22.4586   23.9701 C   0  0  0  0  0  0  0  0  0  0  0  0
  -22.6490  -17.1388   19.6692 C   0  0  0  0  0  0  0  0  0  0  0  0
  -30.4406  -20.6460   18.8721 C   0  0  0  0  0  0  0  0  0  0  0  0
  -29.7550  -22.2396   20.3782 C   0  0  0  0  0  0  0  0  0  0  0  0
  -22.7287  -15.4432   18.2715 C   0  0  0  0  0  0  0  0  0  0  0  0
  -21.2652  -17.3207   17.5089 C   0  0  0  0  0  0  0  0  0  0  0  0
  -21.8778  -27.5666   20.8771 C   0  0  0  0  0  0  0  0  0  0  0  0
  -21.3925  -26.4024   17.8886 C   0  0  0  0  0  0  0  0  0  0  0  0
  -22.7417  -25.2187   14.9859 C   0  0  0  0  0  0  0  0  0  0  0  0
  -27.7246  -12.9464   20.4296 C   0  0  0  0  0  0  0  0  0  0  0  0
  -17.1471  -26.8835   22.6690 C   0  0  0  0  0  0  0  0  0  0  0  0
  -23.3773  -29.0590   19.5060 C   0  0  0  0  0  0  0  0  0  0  0  0
  -23.7333  -26.2073   18.8093 C   0  0  0  0  0  0  0  0  0  0  0  0
  -18.1394  -26.0508   21.8614 C   0  0  0  0  0  0  0  0  0  0  0  0
  -24.3964  -11.7349   20.7929 C   0  0  0  0  0  0  0  0  0  0  0  0
  -19.5119  -26.0624   22.5269 C   0  0  0  0  0  0  0  0  0  0  0  0
  -23.5269  -12.9412   20.4345 C   0  0  0  0  0  0  0  0  0  0  0  0
  -25.6592  -12.1524   21.5433 C   0  0  0  0  0  0  0  0  0  0  0  0
  -25.6005  -14.3881   20.5077 C   0  0  0  0  0  0  0  0  0  0  0  0
  -20.0800  -27.4851   22.5953 C   0  0  1  0  0  0  0  0  0  0  0  0
  -22.2068  -28.0806   19.5041 C   0  0  1  0  0  0  0  0  0  0  0  0
  -24.3429  -14.0225   19.7008 C   0  0  2  0  0  0  0  0  0  0  0  0
  -31.4592  -21.2444   16.6503 C   0  0  0  0  0  0  0  0  0  0  0  0
  -29.1476  -22.5371   21.7101 C   0  0  0  0  0  0  0  0  0  0  0  0
  -22.0924  -24.3094   12.7389 C   0  0  0  0  0  0  0  0  0  0  0  0
  -20.6630  -23.7364   19.1809 C   0  0  0  0  0  0  0  0  0  0  0  0
  -20.9559  -22.6512   16.9437 C   0  0  0  0  0  0  0  0  0  0  0  0
  -19.2041  -24.3987   17.2606 C   0  0  0  0  0  0  0  0  0  0  0  0
  -24.1097  -27.4270   13.5679 C   0  0  0  0  0  0  0  0  0  0  0  0
  -29.9681  -24.7237   19.9258 C   0  0  0  0  0  0  0  0  0  0  0  0
  -30.5824  -19.1940   18.5517 C   0  0  0  0  0  0  0  0  0  0  0  0
  -30.3922  -18.2574   19.7576 C   0  0  0  0  0  0  0  0  0  0  0  0
  -30.6121  -16.7828   19.4053 C   0  0  0  0  0  0  0  0  0  0  0  0
  -30.4399  -15.8875   20.6350 C   0  0  0  0  0  0  0  0  0  0  0  0
  -30.6984  -14.4176   20.2912 C   0  0  0  0  0  0  0  0  0  0  0  0
  -29.7103  -13.8734   19.2648 C   0  0  0  0  0  0  0  0  0  0  0  0
  -28.5277  -25.1980   19.7669 C   0  0  0  0  0  0  0  0  0  1  0  0
  -21.6382  -25.0798   17.2035 C   0  0  1  0  0  0  0  0  0  0  0  0
  -22.4576  -25.5540   13.5329 C   0  0  2  0  0  0  0  0  0  0  0  0
  -20.6365  -23.9813   17.6589 C   0  0  0  0  0  0  0  0  0  0  0  0
  -23.4688  -16.2613   20.2541 N   0  0  0  0  0  0  0  0  0  0  0  0
  -29.8910  -20.9294   20.0743 N   0  0  0  0  0  0  0  0  0  0  0  0
  -23.4970  -15.2408   19.3800 N   0  0  0  0  0  0  0  0  0  0  0  0
  -22.4492  -26.9110   18.6570 N   0  0  0  0  0  0  0  0  0  0  0  0
  -26.3880  -13.1785   20.7935 N   0  0  0  0  0  0  0  0  0  0  0  0
  -22.6434  -14.5180   17.2921 N   0  0  0  0  0  0  0  0  0  0  0  0
  -20.7717  -18.5929   17.8287 N   0  0  0  0  0  0  0  0  0  0  0  0
  -20.6028  -27.8830   21.3058 N   0  0  0  0  0  0  0  0  0  0  0  0
  -21.6155  -25.3520   15.7704 N   0  0  0  0  0  0  0  0  0  0  0  0
  -28.3396  -13.9673   19.7152 N   0  0  0  0  0  0  0  0  0  0  0  0
  -23.6543  -26.1795   12.9022 N   0  3  0  0  0  0  0  0  0  0  0  0
  -20.9028  -16.7724   16.4405 O   0  0  0  0  0  0  0  0  0  0  0  0
  -22.7180  -26.9288   21.5008 O   0  0  0  0  0  0  0  0  0  0  0  0
  -20.3057  -26.9670   17.7413 O   0  0  0  0  0  0  0  0  0  0  0  0
  -23.8506  -24.8695   15.3845 O   0  0  0  0  0  0  0  0  0  0  0  0
  -28.3239  -11.9041   20.7152 O   0  0  0  0  0  0  0  0  0  0  0  0
  -21.5153  -22.0138   22.1623 O   0  0  0  0  0  0  0  0  0  0  0  0
  -28.4320  -26.5767   20.1224 O   0  0  0  0  0  0  0  0  0  1  0  0
  -20.3477  -21.9215   27.5505 F   0  0  0  0  0  0  0  0  0  0  0  0
  -19.0819  -22.9293   23.1021 F   0  0  0  0  0  0  0  0  0  0  0  0
  1  2  1  0  0  0  0
  1  5  2  0  0  0  0
  2  6  2  0  0  0  0
  3  8  2  0  0  0  0
  3 16  1  0  0  0  0
  4  9  1  0  0  0  0
  4 16  2  0  0  0  0
  5 18  1  0  0  0  0
  6 20  1  0  0  0  0
  7 10  2  0  0  0  0
  7 19  1  0  0  0  0
  8 24  1  0  0  0  0
  9 24  2  0  0  0  0
 10 25  1  0  0  0  0
 11 12  2  0  0  0  0
 11 26  1  0  0  0  0
 12 27  1  0  0  0  0
 13 21  1  0  0  0  0
 13 25  2  0  0  0  0
 14 22  2  0  0  0  0
 14 23  1  0  0  0  0
 15 27  2  0  0  0  0
 15 28  1  0  0  0  0
 16 29  1  0  0  0  0
 17 29  1  0  0  0  0
 17 32  2  0  0  0  0
 17 33  1  0  0  0  0
 18 20  2  0  0  0  0
 18 38  1  0  0  0  0
 19 21  2  0  0  0  0
 19 39  1  0  0  0  0
 20 47  1  0  0  0  0
 21 40  1  0  0  0  0
 22 30  1  0  0  0  0
 22 50  1  0  0  0  0
 23 31  2  0  0  0  0
 23 57  1  0  0  0  0
 24 84  1  0  0  0  0
 25 85  1  0  0  0  0
 26 28  2  0  0  0  0
 26 84  1  0  0  0  0
 27 86  1  0  0  0  0
 28 87  1  0  0  0  0
 29 68  2  0  0  0  0
 30 58  1  0  0  0  0
 30 69  2  0  0  0  0
 31 51  1  0  0  0  0
 31 69  1  0  0  0  0
 32 70  1  0  0  0  0
 32 73  1  0  0  0  0
 33 74  1  0  0  0  0
 33 79  2  0  0  0  0
 34 48  1  0  0  0  0
 34 75  1  0  0  0  0
 34 80  2  0  0  0  0
 35 65  1  0  0  0  0
 35 71  1  0  0  0  0
 35 81  2  0  0  0  0
 36 66  1  0  0  0  0
 36 76  1  0  0  0  0
 36 82  2  0  0  0  0
 37 72  1  0  0  0  0
 37 77  1  0  0  0  0
 37 83  2  0  0  0  0
 38 41  1  0  0  0  0
 39 48  1  0  0  0  0
 40 71  1  0  0  0  0
 41 43  1  0  0  0  0
 42 44  1  0  0  0  0
 42 45  1  0  0  0  0
 43 47  1  0  0  0  0
 44 49  1  0  0  0  0
 45 72  1  0  0  0  0
 46 49  1  0  0  0  0
 46 72  1  0  0  0  0
 47 75  1  0  0  0  0
 48 71  1  0  0  0  0
 49 70  1  0  0  0  0
 52 66  1  0  0  0  0
 53 67  1  0  0  0  0
 54 67  1  0  0  0  0
 55 67  1  0  0  0  0
 56 78  1  0  0  0  0
 57 64  1  0  0  0  0
 58 59  1  0  0  0  0
 59 60  1  0  0  0  0
 60 61  1  0  0  0  0
 61 62  1  0  0  0  0
 62 63  1  0  0  0  0
 63 77  1  0  0  0  0
 64 85  1  0  0  0  0
 65 67  1  0  0  0  0
 65 76  1  0  0  0  0
 66 78  1  0  0  0  0
 68 70  1  0  0  0  0
M  CHG  1  78   1
M  ISO  4  37 100  64 101  77 100  85 101
M  END
> <Batch ID>
0038

> <Smiles>
CNC(C)C(=O)NC(C(=O)N1Cc2cc([101O:1][101CH2:1]Cc3cc(C)c(CCCCCC[100NH:0][100C:0](=O)N4CCCC(n5nc(-c6ccc(Oc7ccc(F)cc7F)cc6)c(C(N)=O)c5N)C4)nc3C)ccc2CC1C(=O)NC1CCCc2ccccc21)C(C)(C)C

> <Shape>
0.228

> <Color>
0.086

> <Negative vol penalty>
0.000

$$$$

  -OEChem-04052317013D

 90 98  0     1  0  0  0  0  0999 V2000
  -17.1425  -29.5257   24.5692 C   0  0  0  0  0  0  0  0  0  0  0  0
  -17.7607  -28.2799   24.5324 C   0  0  0  0  0  0  0  0  0  0  0  0
  -22.5073  -12.1187   20.9242 C   0  0  0  0  0  0  0  0  0  0  0  0
  -23.2371  -12.9689   23.0647 C   0  0  0  0  0  0  0  0  0  0  0  0
  -17.4384  -30.4784   23.5951 C   0  0  0  0  0  0  0  0  0  0  0  0
  -18.6743  -27.9857   23.5209 C   0  0  0  0  0  0  0  0  0  0  0  0
  -23.6927  -24.5070   23.9901 C   0  0  0  0  0  0  0  0  0  0  0  0
  -21.4208  -11.4986   21.5410 C   0  0  0  0  0  0  0  0  0  0  0  0
  -22.1505  -12.3488   23.6815 C   0  0  0  0  0  0  0  0  0  0  0  0
  -23.9461  -23.1767   23.6588 C   0  0  0  0  0  0  0  0  0  0  0  0
  -20.8472   -8.7024   23.3512 C   0  0  0  0  0  0  0  0  0  0  0  0
  -20.5597   -7.3872   22.9863 C   0  0  0  0  0  0  0  0  0  0  0  0
  -24.8556  -23.8839   21.5394 C   0  0  0  0  0  0  0  0  0  0  0  0
  -28.3640  -20.1238   22.9701 C   0  0  0  0  0  0  0  0  0  0  0  0
  -18.3675   -8.0739   22.2381 C   0  0  0  0  0  0  0  0  0  0  0  0
  -27.4041  -20.3436   20.8052 C   0  0  0  0  0  0  0  0  0  0  0  0
  -23.4156  -12.8538   21.6861 C   0  0  0  0  0  0  0  0  0  0  0  0
  -24.5847  -14.7964   20.5169 C   0  0  0  0  0  0  0  0  0  0  0  0
  -18.3633  -30.1992   22.5767 C   0  0  0  0  0  0  0  0  0  0  0  0
  -24.0093  -25.5368   23.0924 C   0  0  0  0  0  0  0  0  0  0  0  0
  -18.9818  -28.9351   22.5315 C   0  0  0  0  0  0  0  0  0  0  0  0
  -24.6075  -25.2267   21.8627 C   0  0  0  0  0  0  0  0  0  0  0  0
  -27.2543  -20.0061   22.1406 C   0  0  0  0  0  0  0  0  0  0  0  0
  -29.5725  -20.5692   22.4461 C   0  0  0  0  0  0  0  0  0  0  0  0
  -21.2423  -11.6136   22.9196 C   0  0  0  0  0  0  0  0  0  0  0  0
  -24.5250  -22.8647   22.4322 C   0  0  0  0  0  0  0  0  0  0  0  0
  -19.8948   -9.7034   23.1596 C   0  0  0  0  0  0  0  0  0  0  0  0
  -19.3199   -7.0729   22.4297 C   0  0  0  0  0  0  0  0  0  0  0  0
  -18.6550   -9.3892   22.6030 C   0  0  0  0  0  0  0  0  0  0  0  0
  -24.5385  -13.4942   21.0497 C   0  0  0  0  0  0  0  0  0  0  0  0
  -29.6185  -20.8813   21.0970 C   0  0  0  0  0  0  0  0  0  0  0  0
  -25.8633  -14.9236   20.0315 C   0  0  0  0  0  0  0  0  0  0  0  0
  -23.5633  -15.8013   20.4655 C   0  0  0  0  0  0  0  0  0  0  0  0
  -22.3398  -27.7531   21.5418 C   0  0  0  0  0  0  0  0  0  0  0  0
  -25.2820  -28.7928   20.6560 C   0  0  0  0  0  0  0  0  0  0  0  0
  -28.5774  -28.0692   20.1429 C   0  0  0  0  0  0  0  0  0  0  0  0
  -31.0366  -12.2473   21.4191 C   0  0  0  0  0  0  0  0  0  0  0  0
  -18.6154  -31.2439   21.5186 C   0  0  0  0  0  0  0  0  0  0  0  0
  -23.7541  -26.9686   23.4758 C   0  0  0  0  0  0  0  0  0  0  0  0
  -24.9850  -26.2967   20.8723 C   0  0  0  0  0  0  0  0  0  0  0  0
  -19.8758  -30.9867   20.6967 C   0  0  0  0  0  0  0  0  0  0  0  0
  -29.4589  -12.3329   18.2284 C   0  0  0  0  0  0  0  0  0  0  0  0
  -19.9365  -29.5279   20.2549 C   0  0  0  0  0  0  0  0  0  0  0  0
  -28.0231  -12.7578   18.5416 C   0  0  0  0  0  0  0  0  0  0  0  0
  -30.0269  -11.4207   19.3134 C   0  0  0  0  0  0  0  0  0  0  0  0
  -28.5070  -12.3857   20.9964 C   0  0  0  0  0  0  0  0  0  0  0  0
  -19.9969  -28.5872   21.4645 C   0  0  1  0  0  0  0  0  0  0  0  0
  -23.6449  -27.8992   22.2718 C   0  0  1  0  0  0  0  0  0  0  0  0
  -27.9106  -13.3518   19.9586 C   0  0  2  0  0  0  0  0  0  0  0  0
  -30.7283  -29.1140   19.3818 C   0  0  0  0  0  0  0  0  0  0  0  0
  -30.4115  -23.8358   20.8783 C   0  0  0  0  0  0  0  0  0  0  0  0
  -32.1302  -23.1501   19.1932 C   0  0  0  0  0  0  0  0  0  0  0  0
  -24.3221  -28.6554   17.7630 C   0  0  0  0  0  0  0  0  0  0  0  0
  -26.7151  -28.7734   17.0365 C   0  0  0  0  0  0  0  0  0  0  0  0
  -25.7049  -30.6664   18.3088 C   0  0  0  0  0  0  0  0  0  0  0  0
  -29.8851  -27.5520   22.7470 C   0  0  0  0  0  0  0  0  0  0  0  0
  -25.9283  -19.5248   22.6777 C   0  0  0  0  0  0  0  0  0  0  0  0
  -30.7649  -20.6993   23.3297 C   0  0  0  0  0  0  0  0  0  0  0  0
  -30.8902  -21.3639   20.4792 C   0  0  0  0  0  0  0  0  0  0  0  0
  -31.7772  -19.5439   23.2064 C   0  0  0  0  0  0  0  0  0  0  0  0
  -31.1481  -18.1753   23.4894 C   0  0  0  0  0  0  0  0  0  0  0  0
  -32.1261  -17.0099   23.3092 C   0  0  0  0  0  0  0  0  0  0  0  0
  -31.4807  -15.6377   23.5196 C   0  0  0  0  0  0  0  0  0  0  0  0
  -32.5083  -14.5127   23.3556 C   0  0  0  0  0  0  0  0  0  0  0  0
  -31.9003  -13.1303   23.5716 C   0  0  0  0  0  0  0  0  0  0  0  0
  -25.0558  -20.6702   23.1795 C   0  0  0  0  0  0  0  0  0  1  0  0
  -26.2183  -28.5009   19.5084 C   0  0  1  0  0  0  0  0  0  0  0  0
  -29.8449  -28.7844   20.5749 C   0  0  2  0  0  0  0  0  0  0  0  0
  -30.7982  -22.7732   19.8465 C   0  0  0  0  0  0  0  0  0  0  0  0
  -25.7313  -29.1285   18.1718 C   0  0  0  0  0  0  0  0  0  0  0  0
  -28.5617  -20.7798   20.2600 N   0  0  0  0  0  0  0  0  0  0  0  0
  -25.6956  -12.8407   20.9153 N   0  0  0  0  0  0  0  0  0  0  0  0
  -26.4810  -13.7359   20.2925 N   0  0  0  0  0  0  0  0  0  0  0  0
  -24.7097  -27.6812   21.2906 N   0  0  0  0  0  0  0  0  0  0  0  0
  -29.8909  -12.0431   20.6325 N   0  0  0  0  0  0  0  0  0  0  0  0
  -26.5081  -15.9343   19.4110 N   0  0  0  0  0  0  0  0  0  0  0  0
  -22.3066  -15.5051   21.0107 N   0  0  0  0  0  0  0  0  0  0  0  0
  -21.3320  -28.5670   22.0227 N   0  0  0  0  0  0  0  0  0  0  0  0
  -27.5388  -28.9518   19.9341 N   0  0  0  0  0  0  0  0  0  0  0  0
  -30.8199  -12.8488   22.6528 N   0  0  0  0  0  0  0  0  0  0  0  0
  -30.6251  -27.9325   21.5164 N   0  3  0  0  0  0  0  0  0  0  0  0
  -23.7543  -16.9226   19.9366 O   0  0  0  0  0  0  0  0  0  0  0  0
  -22.2539  -26.9616   20.6102 O   0  0  0  0  0  0  0  0  0  0  0  0
  -25.0718  -29.9638   20.9821 O   0  0  0  0  0  0  0  0  0  0  0  0
  -28.5160  -26.8500   20.0011 O   0  0  0  0  0  0  0  0  0  0  0  0
  -32.1694  -11.9228   21.0470 O   0  0  0  0  0  0  0  0  0  0  0  0
  -20.1820  -11.0088   23.5217 O   0  0  0  0  0  0  0  0  0  0  0  0
  -24.7729  -21.5670   22.1061 O   0  0  0  0  0  0  0  0  0  1  0  0
  -19.0446   -5.8102   22.0779 F   0  0  0  0  0  0  0  0  0  0  0  0
  -17.7365  -10.3467   22.4155 F   0  0  0  0  0  0  0  0  0  0  0  0
  1  2  1  0  0  0  0
  1  5  2  0  0  0  0
  2  6  2  0  0  0  0
  3  8  2  0  0  0  0
  3 17  1  0  0  0  0
  4  9  1  0  0  0  0
  4 17  2  0  0  0  0
  5 19  1  0  0  0  0
  6 21  1  0  0  0  0
  7 10  2  0  0  0  0
  7 20  1  0  0  0  0
  8 25  1  0  0  0  0
  9 25  2  0  0  0  0
 10 26  1  0  0  0  0
 11 12  2  0  0  0  0
 11 27  1  0  0  0  0
 12 28  1  0  0  0  0
 13 22  1  0  0  0  0
 13 26  2  0  0  0  0
 14 23  2  0  0  0  0
 14 24  1  0  0  0  0
 15 28  2  0  0  0  0
 15 29  1  0  0  0  0
 16 23  1  0  0  0  0
 16 71  2  0  0  0  0
 17 30  1  0  0  0  0
 18 30  1  0  0  0  0
 18 32  2  0  0  0  0
 18 33  1  0  0  0  0
 19 21  2  0  0  0  0
 19 38  1  0  0  0  0
 20 22  2  0  0  0  0
 20 39  1  0  0  0  0
 21 47  1  0  0  0  0
 22 40  1  0  0  0  0
 23 57  1  0  0  0  0
 24 31  2  0  0  0  0
 24 58  1  0  0  0  0
 25 87  1  0  0  0  0
 26 88  1  0  0  0  0
 27 29  2  0  0  0  0
 27 87  1  0  0  0  0
 28 89  1  0  0  0  0
 29 90  1  0  0  0  0
 30 72  2  0  0  0  0
 31 59  1  0  0  0  0
 31 71  1  0  0  0  0
 32 73  1  0  0  0  0
 32 76  1  0  0  0  0
 33 77  1  0  0  0  0
 33 82  2  0  0  0  0
 34 48  1  0  0  0  0
 34 78  1  0  0  0  0
 34 83  2  0  0  0  0
 35 67  1  0  0  0  0
 35 74  1  0  0  0  0
 35 84  2  0  0  0  0
 36 68  1  0  0  0  0
 36 79  1  0  0  0  0
 36 85  2  0  0  0  0
 37 75  1  0  0  0  0
 37 80  1  0  0  0  0
 37 86  2  0  0  0  0
 38 41  1  0  0  0  0
 39 48  1  0  0  0  0
 40 74  1  0  0  0  0
 41 43  1  0  0  0  0
 42 44  1  0  0  0  0
 42 45  1  0  0  0  0
 43 47  1  0  0  0  0
 44 49  1  0  0  0  0
 45 75  1  0  0  0  0
 46 49  1  0  0  0  0
 46 75  1  0  0  0  0
 47 78  1  0  0  0  0
 48 74  1  0  0  0  0
 49 73  1  0  0  0  0
 50 68  1  0  0  0  0
 51 69  1  0  0  0  0
 52 69  1  0  0  0  0
 53 70  1  0  0  0  0
 54 70  1  0  0  0  0
 55 70  1  0  0  0  0
 56 81  1  0  0  0  0
 57 66  1  0  0  0  0
 58 60  1  0  0  0  0
 59 69  1  0  0  0  0
 60 61  1  0  0  0  0
 61 62  1  0  0  0  0
 62 63  1  0  0  0  0
 63 64  1  0  0  0  0
 64 65  1  0  0  0  0
 65 80  1  0  0  0  0
 66 88  1  0  0  0  0
 67 70  1  0  0  0  0
 67 79  1  0  0  0  0
 68 81  1  0  0  0  0
 72 73  1  0  0  0  0
M  CHG  1  81   1
M  ISO  4  37 100  66 101  80 100  88 101
M  END
> <Batch ID>
0038

> <Smiles>
CNC(C)C(=O)NC(C(=O)N1Cc2cc([101O:1][101CH2:1]Cc3cnc(CC(C)C)c(CCCCCCC[100NH:0][100C:0](=O)N4CCCC(n5nc(-c6ccc(Oc7ccc(F)cc7F)cc6)c(C(N)=O)c5N)C4)c3)ccc2CC1C(=O)NC1CCCc2ccccc21)C(C)(C)C

> <Shape>
0.230

> <Color>
0.078

> <Negative vol penalty>
0.000

$$$$

  -OEChem-04052317013D

 85 93  0     1  0  0  0  0  0999 V2000
  -27.2064  -32.9223   26.9768 C   0  0  0  0  0  0  0  0  0  0  0  0
  -27.5274  -31.8541   26.1454 C   0  0  0  0  0  0  0  0  0  0  0  0
  -25.6907  -13.6803   21.6870 C   0  0  0  0  0  0  0  0  0  0  0  0
  -25.4961  -14.2434   19.3456 C   0  0  0  0  0  0  0  0  0  0  0  0
  -25.8760  -33.1647   27.3163 C   0  0  0  0  0  0  0  0  0  0  0  0
  -26.5182  -31.0269   25.6538 C   0  0  0  0  0  0  0  0  0  0  0  0
  -27.0646  -30.0163   20.7218 C   0  0  0  0  0  0  0  0  0  0  0  0
  -25.4288  -12.3435   21.3873 C   0  0  0  0  0  0  0  0  0  0  0  0
  -25.2341  -12.9065   19.0458 C   0  0  0  0  0  0  0  0  0  0  0  0
  -28.0128  -29.0567   20.3697 C   0  0  0  0  0  0  0  0  0  0  0  0
  -24.4553   -8.8414   21.2813 C   0  0  0  0  0  0  0  0  0  0  0  0
  -23.5502   -8.1584   22.0936 C   0  0  0  0  0  0  0  0  0  0  0  0
  -26.2579  -27.4185   20.1326 C   0  0  0  0  0  0  0  0  0  0  0  0
  -29.2979  -26.3365   15.8782 C   0  0  0  0  0  0  0  0  0  0  0  0
  -28.3913  -24.6968   17.3861 C   0  0  0  0  0  0  0  0  0  0  0  0
  -21.8250   -9.7438   21.5042 C   0  0  0  0  0  0  0  0  0  0  0  0
  -25.7243  -14.6303   20.6661 C   0  0  0  0  0  0  0  0  0  0  0  0
  -27.2522  -16.6420   21.0220 C   0  0  0  0  0  0  0  0  0  0  0  0
  -24.8491  -32.3458   26.8208 C   0  0  0  0  0  0  0  0  0  0  0  0
  -25.7049  -29.6809   20.7926 C   0  0  0  0  0  0  0  0  0  0  0  0
  -25.1730  -31.2577   25.9881 C   0  0  0  0  0  0  0  0  0  0  0  0
  -25.2943  -28.3764   20.4834 C   0  0  0  0  0  0  0  0  0  0  0  0
  -29.2949  -25.7208   17.1248 C   0  0  0  0  0  0  0  0  0  0  0  0
  -25.2005  -11.9566   20.0667 C   0  0  0  0  0  0  0  0  0  0  0  0
  -27.6098  -27.7569   20.0778 C   0  0  0  0  0  0  0  0  0  0  0  0
  -24.0454   -9.9756   20.5805 C   0  0  0  0  0  0  0  0  0  0  0  0
  -22.2350   -8.6096   22.2050 C   0  0  0  0  0  0  0  0  0  0  0  0
  -22.7303  -10.4268   20.6919 C   0  0  0  0  0  0  0  0  0  0  0  0
  -25.9944  -16.0115   20.9751 C   0  0  0  0  0  0  0  0  0  0  0  0
  -28.3843  -25.8951   14.9346 C   0  0  0  0  0  0  0  0  0  0  0  0
  -27.5181  -24.3289   16.3751 C   0  0  0  0  0  0  0  0  0  0  0  0
  -26.9714  -17.9439   21.3576 C   0  0  0  0  0  0  0  0  0  0  0  0
  -28.5577  -16.0993   20.7834 C   0  0  0  0  0  0  0  0  0  0  0  0
  -23.5188  -29.6527   23.1000 C   0  0  0  0  0  0  0  0  0  0  0  0
  -21.5133  -28.9264   20.6562 C   0  0  0  0  0  0  0  0  0  0  0  0
  -21.1122  -27.6281   17.5256 C   0  0  0  0  0  0  0  0  0  0  0  0
  -22.1100  -21.3724   20.6772 C   0  0  0  0  0  0  0  0  0  0  0  0
  -23.4303  -32.6187   27.2537 C   0  0  0  0  0  0  0  0  0  0  0  0
  -24.6917  -30.7343   21.1480 C   0  0  0  0  0  0  0  0  0  0  0  0
  -23.8444  -27.9705   20.5251 C   0  0  0  0  0  0  0  0  0  0  0  0
  -22.3845  -31.9202   26.3884 C   0  0  0  0  0  0  0  0  0  0  0  0
  -23.7694  -20.5923   23.7291 C   0  0  0  0  0  0  0  0  0  0  0  0
  -22.7683  -30.4617   26.1602 C   0  0  0  0  0  0  0  0  0  0  0  0
  -24.6413  -19.3867   23.3736 C   0  0  0  0  0  0  0  0  0  0  0  0
  -22.4312  -20.5573   22.9943 C   0  0  0  0  0  0  0  0  0  0  0  0
  -23.4044  -19.2104   21.1742 C   0  0  0  0  0  0  0  0  0  0  0  0
  -24.1040  -30.3528   25.4148 C   0  0  1  0  0  0  0  0  0  0  0  0
  -23.3894  -30.1524   21.6889 C   0  0  1  0  0  0  0  0  0  0  0  0
  -24.7871  -19.2305   21.8480 C   0  0  2  0  0  0  0  0  0  0  0  0
  -28.3598  -26.5317   13.5853 C   0  0  0  0  0  0  0  0  0  0  0  0
  -19.3499  -27.1344   15.8087 C   0  0  0  0  0  0  0  0  0  0  0  0
  -20.6128  -26.5053   22.2801 C   0  0  0  0  0  0  0  0  0  0  0  0
  -19.6101  -25.5628   20.1886 C   0  0  0  0  0  0  0  0  0  0  0  0
  -18.7672  -27.7220   21.1107 C   0  0  0  0  0  0  0  0  0  0  0  0
  -22.3701  -29.4335   15.5464 C   0  0  0  0  0  0  0  0  0  0  0  0
  -30.2695  -26.1614   18.1898 C   0  0  0  0  0  0  0  0  0  0  0  0
  -26.5336  -23.2350   16.6215 C   0  0  0  0  0  0  0  0  0  0  0  0
  -25.2070  -23.7640   17.1865 C   0  0  0  0  0  0  0  0  0  0  0  0
  -24.2197  -22.6305   17.4721 C   0  0  0  0  0  0  0  0  0  0  0  0
  -22.8877  -23.1735   17.9977 C   0  0  0  0  0  0  0  0  0  0  0  0
  -21.8843  -22.0669   18.3053 C   0  0  0  0  0  0  0  0  0  0  0  0
  -29.7072  -27.2763   19.0650 C   0  0  0  0  0  0  0  0  0  1  0  0
  -21.0398  -27.6492   20.0053 C   0  0  1  0  0  0  0  0  0  0  0  0
  -20.3692  -28.1467   16.3076 C   0  0  2  0  0  0  0  0  0  0  0  0
  -20.0351  -26.8666   20.8972 C   0  0  0  0  0  0  0  0  0  0  0  0
  -24.9893  -16.8443   21.2585 N   0  0  0  0  0  0  0  0  0  0  0  0
  -27.4913  -24.9036   15.1517 N   0  0  0  0  0  0  0  0  0  0  0  0
  -25.6153  -18.0114   21.4867 N   0  0  0  0  0  0  0  0  0  0  0  0
  -22.8925  -29.0346   20.8840 N   0  0  0  0  0  0  0  0  0  0  0  0
  -22.6397  -20.4094   21.5519 N   0  0  0  0  0  0  0  0  0  0  0  0
  -27.7547  -19.0261   21.5520 N   0  0  0  0  0  0  0  0  0  0  0  0
  -28.6663  -14.7426   20.4489 N   0  0  0  0  0  0  0  0  0  0  0  0
  -23.9187  -30.6181   24.0042 N   0  0  0  0  0  0  0  0  0  0  0  0
  -20.5103  -28.0284   18.6998 N   0  0  0  0  0  0  0  0  0  0  0  0
  -22.3588  -21.1601   19.3267 N   0  0  0  0  0  0  0  0  0  0  0  0
  -21.3254  -28.4352   15.2015 N   0  3  0  0  0  0  0  0  0  0  0  0
  -29.5983  -16.7929   20.8805 O   0  0  0  0  0  0  0  0  0  0  0  0
  -23.2726  -28.4786   23.3502 O   0  0  0  0  0  0  0  0  0  0  0  0
  -20.6906  -29.7990   20.9451 O   0  0  0  0  0  0  0  0  0  0  0  0
  -22.1232  -26.9340   17.4436 O   0  0  0  0  0  0  0  0  0  0  0  0
  -21.4677  -22.3518   21.0710 O   0  0  0  0  0  0  0  0  0  0  0  0
  -24.9451  -10.6521   19.7739 O   0  0  0  0  0  0  0  0  0  0  0  0
  -28.5333  -26.8181   19.7345 O   0  0  0  0  0  0  0  0  0  1  0  0
  -21.3655   -7.9527   22.9838 F   0  0  0  0  0  0  0  0  0  0  0  0
  -22.3303  -11.5152   20.0202 F   0  0  0  0  0  0  0  0  0  0  0  0
  1  2  1  0  0  0  0
  1  5  2  0  0  0  0
  2  6  2  0  0  0  0
  3  8  2  0  0  0  0
  3 17  1  0  0  0  0
  4  9  1  0  0  0  0
  4 17  2  0  0  0  0
  5 19  1  0  0  0  0
  6 21  1  0  0  0  0
  7 10  2  0  0  0  0
  7 20  1  0  0  0  0
  8 24  1  0  0  0  0
  9 24  2  0  0  0  0
 10 25  1  0  0  0  0
 11 12  2  0  0  0  0
 11 26  1  0  0  0  0
 12 27  1  0  0  0  0
 13 22  1  0  0  0  0
 13 25  2  0  0  0  0
 14 23  1  0  0  0  0
 14 30  2  0  0  0  0
 15 23  2  0  0  0  0
 15 31  1  0  0  0  0
 16 27  2  0  0  0  0
 16 28  1  0  0  0  0
 17 29  1  0  0  0  0
 18 29  1  0  0  0  0
 18 32  2  0  0  0  0
 18 33  1  0  0  0  0
 19 21  2  0  0  0  0
 19 38  1  0  0  0  0
 20 22  2  0  0  0  0
 20 39  1  0  0  0  0
 21 47  1  0  0  0  0
 22 40  1  0  0  0  0
 23 56  1  0  0  0  0
 24 82  1  0  0  0  0
 25 83  1  0  0  0  0
 26 28  2  0  0  0  0
 26 82  1  0  0  0  0
 27 84  1  0  0  0  0
 28 85  1  0  0  0  0
 29 66  2  0  0  0  0
 30 50  1  0  0  0  0
 30 67  1  0  0  0  0
 31 57  1  0  0  0  0
 31 67  2  0  0  0  0
 32 68  1  0  0  0  0
 32 71  1  0  0  0  0
 33 72  1  0  0  0  0
 33 77  2  0  0  0  0
 34 48  1  0  0  0  0
 34 73  1  0  0  0  0
 34 78  2  0  0  0  0
 35 63  1  0  0  0  0
 35 69  1  0  0  0  0
 35 79  2  0  0  0  0
 36 64  1  0  0  0  0
 36 74  1  0  0  0  0
 36 80  2  0  0  0  0
 37 70  1  0  0  0  0
 37 75  1  0  0  0  0
 37 81  2  0  0  0  0
 38 41  1  0  0  0  0
 39 48  1  0  0  0  0
 40 69  1  0  0  0  0
 41 43  1  0  0  0  0
 42 44  1  0  0  0  0
 42 45  1  0  0  0  0
 43 47  1  0  0  0  0
 44 49  1  0  0  0  0
 45 70  1  0  0  0  0
 46 49  1  0  0  0  0
 46 70  1  0  0  0  0
 47 73  1  0  0  0  0
 48 69  1  0  0  0  0
 49 68  1  0  0  0  0
 51 64  1  0  0  0  0
 52 65  1  0  0  0  0
 53 65  1  0  0  0  0
 54 65  1  0  0  0  0
 55 76  1  0  0  0  0
 56 62  1  0  0  0  0
 57 58  1  0  0  0  0
 58 59  1  0  0  0  0
 59 60  1  0  0  0  0
 60 61  1  0  0  0  0
 61 75  1  0  0  0  0
 62 83  1  0  0  0  0
 63 65  1  0  0  0  0
 63 74  1  0  0  0  0
 64 76  1  0  0  0  0
 66 68  1  0  0  0  0
M  CHG  1  76   1
M  ISO  4  37 100  62 101  75 100  83 101
M  END
> <Batch ID>
0038

> <Smiles>
CNC(C)C(=O)NC(C(=O)N1Cc2cc([101O:1][101CH2:1]Cc3cc(C)nc(CCCCC[100NH:0][100C:0](=O)N4CCCC(n5nc(-c6ccc(Oc7ccc(F)cc7F)cc6)c(C(N)=O)c5N)C4)c3)ccc2CC1C(=O)NC1CCCc2ccccc21)C(C)(C)C

> <Shape>
0.241

> <Color>
0.086

> <Negative vol penalty>
0.000

$$$$

  -OEChem-04052317013D

 89 97  0     1  0  0  0  0  0999 V2000
  -23.9892  -17.6472   17.8823 C   0  0  0  0  0  0  0  0  0  0  0  0
  -23.5506  -18.8352   18.4584 C   0  0  0  0  0  0  0  0  0  0  0  0
  -24.2185  -11.9417   20.0917 C   0  0  0  0  0  0  0  0  0  0  0  0
  -25.3374  -13.5666   21.4864 C   0  0  0  0  0  0  0  0  0  0  0  0
  -25.3029  -17.2229   18.0769 C   0  0  0  0  0  0  0  0  0  0  0  0
  -24.4254  -19.5990   19.2303 C   0  0  0  0  0  0  0  0  0  0  0  0
  -24.1675  -24.5385   18.1446 C   0  0  0  0  0  0  0  0  0  0  0  0
  -25.4531  -11.4996   19.6164 C   0  0  0  0  0  0  0  0  0  0  0  0
  -26.5720  -13.1244   21.0111 C   0  0  0  0  0  0  0  0  0  0  0  0
  -23.0914  -25.2511   18.6720 C   0  0  0  0  0  0  0  0  0  0  0  0
  -28.4665  -13.5329   18.2408 C   0  0  0  0  0  0  0  0  0  0  0  0
  -29.4037  -14.4989   17.8745 C   0  0  0  0  0  0  0  0  0  0  0  0
  -24.5156  -26.0894   20.4292 C   0  0  0  0  0  0  0  0  0  0  0  0
  -30.9396  -13.6359   19.5278 C   0  0  0  0  0  0  0  0  0  0  0  0
  -24.1607  -12.9753   21.0266 C   0  0  0  0  0  0  0  0  0  0  0  0
  -22.1847  -12.9524   22.6399 C   0  0  0  0  0  0  0  0  0  0  0  0
  -26.1970  -17.9867   18.8436 C   0  0  0  0  0  0  0  0  0  0  0  0
  -25.4251  -24.5875   18.7628 C   0  0  0  0  0  0  0  0  0  0  0  0
  -25.7520  -19.1837   19.4364 C   0  0  0  0  0  0  0  0  0  0  0  0
  -25.6067  -25.3786   19.9062 C   0  0  0  0  0  0  0  0  0  0  0  0
  -26.6298  -12.0908   20.0761 C   0  0  0  0  0  0  0  0  0  0  0  0
  -23.2647  -26.0243   19.8161 C   0  0  0  0  0  0  0  0  0  0  0  0
  -28.7659  -12.6184   19.2507 C   0  0  0  0  0  0  0  0  0  0  0  0
  -30.6402  -14.5504   18.5179 C   0  0  0  0  0  0  0  0  0  0  0  0
  -30.0024  -12.6699   19.8941 C   0  0  0  0  0  0  0  0  0  0  0  0
  -22.8856  -13.4329   21.5175 C   0  0  0  0  0  0  0  0  0  0  0  0
  -19.9537  -28.4100   23.5794 C   0  0  0  0  0  0  0  0  0  0  0  0
  -18.6808  -27.5222   21.4071 C   0  0  0  0  0  0  0  0  0  0  0  0
  -18.7458  -27.7557   23.6810 C   0  0  0  0  0  0  0  0  0  0  0  0
  -19.8883  -28.1772   21.3053 C   0  0  0  0  0  0  0  0  0  0  0  0
  -21.0390  -13.7090   22.6789 C   0  0  0  0  0  0  0  0  0  0  0  0
  -22.5376  -11.9150   23.5645 C   0  0  0  0  0  0  0  0  0  0  0  0
  -27.3362  -22.4485   20.1325 C   0  0  0  0  0  0  0  0  0  0  0  0
  -29.3892  -24.9555   20.2821 C   0  0  0  0  0  0  0  0  0  0  0  0
  -29.8308  -28.3390   20.3432 C   0  0  0  0  0  0  0  0  0  0  0  0
  -19.6831  -19.1641   20.6164 C   0  0  0  0  0  0  0  0  0  0  0  0
  -27.5941  -17.4634   19.0649 C   0  0  0  0  0  0  0  0  0  0  0  0
  -26.5823  -23.8344   18.1661 C   0  0  0  0  0  0  0  0  0  0  0  0
  -26.9417  -25.4810   20.5960 C   0  0  0  0  0  0  0  0  0  0  0  0
  -28.5647  -18.5199   19.5865 C   0  0  0  0  0  0  0  0  0  0  0  0
  -18.0366  -16.1072   19.8285 C   0  0  0  0  0  0  0  0  0  0  0  0
  -27.9330  -19.3070   20.7302 C   0  0  0  0  0  0  0  0  0  0  0  0
  -19.0294  -15.0318   20.2733 C   0  0  0  0  0  0  0  0  0  0  0  0
  -18.7483  -17.3255   19.2445 C   0  0  0  0  0  0  0  0  0  0  0  0
  -20.7748  -16.8400   20.5603 C   0  0  0  0  0  0  0  0  0  0  0  0
  -26.6781  -20.0523   20.2598 C   0  0  1  0  0  0  0  0  0  0  0  0
  -27.6922  -23.5486   19.1730 C   0  0  1  0  0  0  0  0  0  0  0  0
  -20.1065  -15.6150   21.2076 C   0  0  2  0  0  0  0  0  0  0  0  0
  -20.6718  -28.9085   24.7866 C   0  0  0  0  0  0  0  0  0  0  0  0
  -17.9626  -27.0234   20.2001 C   0  0  0  0  0  0  0  0  0  0  0  0
  -31.6215  -30.0892   20.5085 C   0  0  0  0  0  0  0  0  0  0  0  0
  -29.6523  -24.4004   23.2709 C   0  0  0  0  0  0  0  0  0  0  0  0
  -30.6509  -26.6810   23.5357 C   0  0  0  0  0  0  0  0  0  0  0  0
  -31.7990  -24.9749   22.1236 C   0  0  0  0  0  0  0  0  0  0  0  0
  -29.1348  -29.4669   17.6970 C   0  0  0  0  0  0  0  0  0  0  0  0
  -18.1005  -27.5161   25.0031 C   0  0  0  0  0  0  0  0  0  0  0  0
  -20.5410  -28.4209   19.9662 C   0  0  0  0  0  0  0  0  0  0  0  0
  -18.7313  -26.3746   25.8223 C   0  0  0  0  0  0  0  0  0  0  0  0
  -18.6912  -25.0277   25.0921 C   0  0  0  0  0  0  0  0  0  0  0  0
  -19.3545  -23.9278   25.9250 C   0  0  0  0  0  0  0  0  0  0  0  0
  -19.2805  -22.5434   25.2739 C   0  0  0  0  0  0  0  0  0  0  0  0
  -20.0241  -22.4579   23.9382 C   0  0  0  0  0  0  0  0  0  0  0  0
  -19.9423  -21.0451   23.3500 C   0  0  0  0  0  0  0  0  0  0  0  0
  -20.7282  -20.8995   22.0501 C   0  0  0  0  0  0  0  0  0  0  0  0
  -21.2201  -27.1714   19.4162 C   0  0  0  0  0  0  0  0  0  1  0  0
  -29.6698  -26.0492   21.2841 C   0  0  1  0  0  0  0  0  0  0  0  0
  -30.7715  -29.2461   19.5708 C   0  0  2  0  0  0  0  0  0  0  0  0
  -30.4172  -25.5231   22.5419 C   0  0  0  0  0  0  0  0  0  0  0  0
  -22.2392  -14.4183   20.8889 N   0  0  0  0  0  0  0  0  0  0  0  0
  -18.0878  -27.2998   22.5967 N   0  0  0  0  0  0  0  0  0  0  0  0
  -20.5465  -28.6328   22.3896 N   0  0  0  0  0  0  0  0  0  0  0  0
  -21.1201  -14.5631   21.6187 N   0  0  0  0  0  0  0  0  0  0  0  0
  -28.0408  -24.7211   19.9779 N   0  0  0  0  0  0  0  0  0  0  0  0
  -19.7557  -17.8309   20.1803 N   0  0  0  0  0  0  0  0  0  0  0  0
  -19.9802  -13.7203   23.5164 N   0  0  0  0  0  0  0  0  0  0  0  0
  -23.7508  -11.2384   23.3783 N   0  0  0  0  0  0  0  0  0  0  0  0
  -27.0438  -21.2432   19.5232 N   0  0  0  0  0  0  0  0  0  0  0  0
  -30.3837  -27.0943   20.5584 N   0  0  0  0  0  0  0  0  0  0  0  0
  -20.6729  -19.5603   21.5075 N   0  0  0  0  0  0  0  0  0  0  0  0
  -29.9976  -30.1625   18.6863 N   0  3  0  0  0  0  0  0  0  0  0  0
  -21.7914  -11.5864   24.5178 O   0  0  0  0  0  0  0  0  0  0  0  0
  -27.3288  -22.6760   21.3367 O   0  0  0  0  0  0  0  0  0  0  0  0
  -30.3321  -24.3368   19.7822 O   0  0  0  0  0  0  0  0  0  0  0  0
  -28.7184  -28.6997   20.7212 O   0  0  0  0  0  0  0  0  0  0  0  0
  -18.7983  -19.9422   20.2437 O   0  0  0  0  0  0  0  0  0  0  0  0
  -27.8347  -11.6595   19.6127 O   0  0  0  0  0  0  0  0  0  0  0  0
  -22.2159  -26.7203   20.3334 O   0  0  0  0  0  0  0  0  0  1  0  0
  -31.5406  -15.4771   18.1649 F   0  0  0  0  0  0  0  0  0  0  0  0
  -30.2961  -11.7933   20.8642 F   0  0  0  0  0  0  0  0  0  0  0  0
  1  2  1  0  0  0  0
  1  5  2  0  0  0  0
  2  6  2  0  0  0  0
  3  8  2  0  0  0  0
  3 15  1  0  0  0  0
  4  9  1  0  0  0  0
  4 15  2  0  0  0  0
  5 17  1  0  0  0  0
  6 19  1  0  0  0  0
  7 10  2  0  0  0  0
  7 18  1  0  0  0  0
  8 21  1  0  0  0  0
  9 21  2  0  0  0  0
 10 22  1  0  0  0  0
 11 12  2  0  0  0  0
 11 23  1  0  0  0  0
 12 24  1  0  0  0  0
 13 20  1  0  0  0  0
 13 22  2  0  0  0  0
 14 24  2  0  0  0  0
 14 25  1  0  0  0  0
 15 26  1  0  0  0  0
 16 26  1  0  0  0  0
 16 31  2  0  0  0  0
 16 32  1  0  0  0  0
 17 19  2  0  0  0  0
 17 37  1  0  0  0  0
 18 20  2  0  0  0  0
 18 38  1  0  0  0  0
 19 46  1  0  0  0  0
 20 39  1  0  0  0  0
 21 86  1  0  0  0  0
 22 87  1  0  0  0  0
 23 25  2  0  0  0  0
 23 86  1  0  0  0  0
 24 88  1  0  0  0  0
 25 89  1  0  0  0  0
 26 69  2  0  0  0  0
 27 29  1  0  0  0  0
 27 49  1  0  0  0  0
 27 71  2  0  0  0  0
 28 30  2  0  0  0  0
 28 50  1  0  0  0  0
 28 70  1  0  0  0  0
 29 56  1  0  0  0  0
 29 70  2  0  0  0  0
 30 57  1  0  0  0  0
 30 71  1  0  0  0  0
 31 72  1  0  0  0  0
 31 75  1  0  0  0  0
 32 76  1  0  0  0  0
 32 81  2  0  0  0  0
 33 47  1  0  0  0  0
 33 77  1  0  0  0  0
 33 82  2  0  0  0  0
 34 66  1  0  0  0  0
 34 73  1  0  0  0  0
 34 83  2  0  0  0  0
 35 67  1  0  0  0  0
 35 78  1  0  0  0  0
 35 84  2  0  0  0  0
 36 74  1  0  0  0  0
 36 79  1  0  0  0  0
 36 85  2  0  0  0  0
 37 40  1  0  0  0  0
 38 47  1  0  0  0  0
 39 73  1  0  0  0  0
 40 42  1  0  0  0  0
 41 43  1  0  0  0  0
 41 44  1  0  0  0  0
 42 46  1  0  0  0  0
 43 48  1  0  0  0  0
 44 74  1  0  0  0  0
 45 48  1  0  0  0  0
 45 74  1  0  0  0  0
 46 77  1  0  0  0  0
 47 73  1  0  0  0  0
 48 72  1  0  0  0  0
 51 67  1  0  0  0  0
 52 68  1  0  0  0  0
 53 68  1  0  0  0  0
 54 68  1  0  0  0  0
 55 80  1  0  0  0  0
 56 58  1  0  0  0  0
 57 65  1  0  0  0  0
 58 59  1  0  0  0  0
 59 60  1  0  0  0  0
 60 61  1  0  0  0  0
 61 62  1  0  0  0  0
 62 63  1  0  0  0  0
 63 64  1  0  0  0  0
 64 79  1  0  0  0  0
 65 87  1  0  0  0  0
 66 68  1  0  0  0  0
 66 78  1  0  0  0  0
 67 80  1  0  0  0  0
 69 72  1  0  0  0  0
M  CHG  1  80   1
M  ISO  4  36 100  65 101  79 100  87 101
M  END
> <Batch ID>
0038

> <Smiles>
CNC(C)C(=O)NC(C(=O)N1Cc2cc([101O:1][101CH2:1]Cc3nc(C)c(CCCCCCCC[100NH:0][100C:0](=O)N4CCCC(n5nc(-c6ccc(Oc7ccc(F)cc7F)cc6)c(C(N)=O)c5N)C4)nc3C)ccc2CC1C(=O)NC1CCCc2ccccc21)C(C)(C)C

> <Shape>
0.197

> <Color>
0.062

> <Negative vol penalty>
0.000

$$$$

  -OEChem-04052317013D

 80 88  0     1  0  0  0  0  0999 V2000
  -26.7190  -34.8898   24.2081 C   0  0  0  0  0  0  0  0  0  0  0  0
  -27.1401  -33.6160   23.8401 C   0  0  0  0  0  0  0  0  0  0  0  0
  -23.8014  -14.2238   21.6808 C   0  0  0  0  0  0  0  0  0  0  0  0
  -25.9420  -14.3969   20.5740 C   0  0  0  0  0  0  0  0  0  0  0  0
  -25.4072  -35.0931   24.6345 C   0  0  0  0  0  0  0  0  0  0  0  0
  -26.2498  -32.5444   23.8992 C   0  0  0  0  0  0  0  0  0  0  0  0
  -26.4733  -29.6034   19.7827 C   0  0  0  0  0  0  0  0  0  0  0  0
  -23.5834  -12.9907   21.0664 C   0  0  0  0  0  0  0  0  0  0  0  0
  -25.7240  -13.1637   19.9596 C   0  0  0  0  0  0  0  0  0  0  0  0
  -27.5368  -28.7059   19.6984 C   0  0  0  0  0  0  0  0  0  0  0  0
  -22.6224   -9.6291   20.0709 C   0  0  0  0  0  0  0  0  0  0  0  0
  -22.1271   -8.5903   20.8591 C   0  0  0  0  0  0  0  0  0  0  0  0
  -26.0856  -26.9264   20.4377 C   0  0  0  0  0  0  0  0  0  0  0  0
  -27.2979  -22.7592   16.7546 C   0  0  0  0  0  0  0  0  0  0  0  0
  -28.3962  -23.5794   18.7308 C   0  0  0  0  0  0  0  0  0  0  0  0
  -24.0718   -8.7447   22.2844 C   0  0  0  0  0  0  0  0  0  0  0  0
  -24.9807  -14.9269   21.4346 C   0  0  0  0  0  0  0  0  0  0  0  0
  -25.8290  -16.4349   23.3092 C   0  0  0  0  0  0  0  0  0  0  0  0
  -24.4977  -34.0253   24.6897 C   0  0  0  0  0  0  0  0  0  0  0  0
  -25.2085  -29.1707   20.2063 C   0  0  0  0  0  0  0  0  0  0  0  0
  -24.9249  -32.7334   24.3280 C   0  0  0  0  0  0  0  0  0  0  0  0
  -25.0070  -27.8199   20.5241 C   0  0  0  0  0  0  0  0  0  0  0  0
  -27.4996  -22.7034   18.1292 C   0  0  0  0  0  0  0  0  0  0  0  0
  -24.5447  -12.4606   20.2058 C   0  0  0  0  0  0  0  0  0  0  0  0
  -27.3437  -27.3677   20.0287 C   0  0  0  0  0  0  0  0  0  0  0  0
  -23.8424  -10.2256   20.3894 C   0  0  0  0  0  0  0  0  0  0  0  0
  -22.8517   -8.1481   21.9659 C   0  0  0  0  0  0  0  0  0  0  0  0
  -24.5670   -9.7834   21.4961 C   0  0  0  0  0  0  0  0  0  0  0  0
  -25.2062  -16.2010   22.0685 C   0  0  0  0  0  0  0  0  0  0  0  0
  -28.0116  -23.7017   16.0321 C   0  0  0  0  0  0  0  0  0  0  0  0
  -29.0610  -24.4851   17.9198 C   0  0  0  0  0  0  0  0  0  0  0  0
  -25.7965  -17.7999   23.4578 C   0  0  0  0  0  0  0  0  0  0  0  0
  -26.3871  -15.5016   24.2436 C   0  0  0  0  0  0  0  0  0  0  0  0
  -23.3027  -29.8671   22.6530 C   0  0  0  0  0  0  0  0  0  0  0  0
  -25.4459  -22.2653   19.4517 C   0  0  0  0  0  0  0  0  0  0  0  0
  -21.2247  -27.9361   21.0797 C   0  0  0  0  0  0  0  0  0  0  0  0
  -20.7508  -25.3910   18.8559 C   0  0  0  0  0  0  0  0  0  0  0  0
  -23.1032  -34.2852   25.2022 C   0  0  0  0  0  0  0  0  0  0  0  0
  -24.0650  -30.1460   20.2662 C   0  0  0  0  0  0  0  0  0  0  0  0
  -23.6637  -27.3008   20.9648 C   0  0  0  0  0  0  0  0  0  0  0  0
  -22.1171  -33.1656   24.8791 C   0  0  0  0  0  0  0  0  0  0  0  0
  -23.2543  -21.6497   22.2190 C   0  0  0  0  0  0  0  0  0  0  0  0
  -22.7288  -31.8059   25.2013 C   0  0  0  0  0  0  0  0  0  0  0  0
  -23.5426  -20.1952   22.5885 C   0  0  0  0  0  0  0  0  0  0  0  0
  -23.3557  -21.8739   20.7135 C   0  0  0  0  0  0  0  0  0  0  0  0
  -24.9519  -19.9966   20.4911 C   0  0  0  0  0  0  0  0  0  0  0  0
  -23.9818  -31.5502   24.3550 C   0  0  1  0  0  0  0  0  0  0  0  0
  -22.9469  -29.6991   21.2029 C   0  0  1  0  0  0  0  0  0  0  0  0
  -24.8902  -19.7336   22.0061 C   0  0  2  0  0  0  0  0  0  0  0  0
  -27.8194  -23.7914   14.5550 C   0  0  0  0  0  0  0  0  0  0  0  0
  -18.9420  -24.0071   17.8021 C   0  0  0  0  0  0  0  0  0  0  0  0
  -20.9341  -26.3484   23.6690 C   0  0  0  0  0  0  0  0  0  0  0  0
  -19.9113  -24.4931   22.3348 C   0  0  0  0  0  0  0  0  0  0  0  0
  -18.7948  -26.7218   22.4286 C   0  0  0  0  0  0  0  0  0  0  0  0
  -21.4652  -26.3178   16.1376 C   0  0  0  0  0  0  0  0  0  0  0  0
  -26.7565  -21.7087   18.9550 C   0  0  0  0  0  0  0  0  0  0  0  0
  -30.0430  -25.4499   18.5386 C   0  0  0  0  0  0  0  0  0  0  0  0
  -29.3818  -26.7554   18.9669 C   0  0  0  0  0  0  0  0  0  1  0  0
  -20.9229  -26.4569   21.0895 C   0  0  1  0  0  0  0  0  0  0  0  0
  -19.8102  -25.2491   17.6729 C   0  0  2  0  0  0  0  0  0  0  0  0
  -20.1667  -26.0149   22.3741 C   0  0  0  0  0  0  0  0  0  0  0  0
  -24.8070  -17.3273   21.4716 N   0  0  0  0  0  0  0  0  0  0  0  0
  -28.8911  -24.5692   16.5812 N   0  0  0  0  0  0  0  0  0  0  0  0
  -25.1798  -18.2819   22.3409 N   0  0  0  0  0  0  0  0  0  0  0  0
  -22.5786  -28.2946   21.0136 N   0  0  0  0  0  0  0  0  0  0  0  0
  -24.6410  -21.4020   20.1952 N   0  0  0  0  0  0  0  0  0  0  0  0
  -26.2353  -18.6229   24.4338 N   0  0  0  0  0  0  0  0  0  0  0  0
  -26.3369  -14.1355   23.9344 N   0  0  0  0  0  0  0  0  0  0  0  0
  -23.6130  -31.1656   23.0094 N   0  0  0  0  0  0  0  0  0  0  0  0
  -20.2073  -26.1781   19.8491 N   0  0  0  0  0  0  0  0  0  0  0  0
  -20.5852  -25.1509   16.4038 N   0  3  0  0  0  0  0  0  0  0  0  0
  -26.9001  -15.8671   25.3284 O   0  0  0  0  0  0  0  0  0  0  0  0
  -23.2947  -28.8911   23.3941 O   0  0  0  0  0  0  0  0  0  0  0  0
  -25.1495  -23.4336   19.1882 O   0  0  0  0  0  0  0  0  0  0  0  0
  -20.2932  -28.7436   21.1217 O   0  0  0  0  0  0  0  0  0  0  0  0
  -21.8556  -24.8540   18.8967 O   0  0  0  0  0  0  0  0  0  0  0  0
  -24.3324  -11.2573   19.6063 O   0  0  0  0  0  0  0  0  0  0  0  0
  -28.3802  -26.4896   19.9480 O   0  0  0  0  0  0  0  0  0  1  0  0
  -22.3753   -7.1517   22.7236 F   0  0  0  0  0  0  0  0  0  0  0  0
  -25.7391  -10.3534   21.8078 F   0  0  0  0  0  0  0  0  0  0  0  0
  1  2  1  0  0  0  0
  1  5  2  0  0  0  0
  2  6  2  0  0  0  0
  3  8  2  0  0  0  0
  3 17  1  0  0  0  0
  4  9  1  0  0  0  0
  4 17  2  0  0  0  0
  5 19  1  0  0  0  0
  6 21  1  0  0  0  0
  7 10  2  0  0  0  0
  7 20  1  0  0  0  0
  8 24  1  0  0  0  0
  9 24  2  0  0  0  0
 10 25  1  0  0  0  0
 11 12  2  0  0  0  0
 11 26  1  0  0  0  0
 12 27  1  0  0  0  0
 13 22  1  0  0  0  0
 13 25  2  0  0  0  0
 14 23  1  0  0  0  0
 14 30  2  0  0  0  0
 15 23  2  0  0  0  0
 15 31  1  0  0  0  0
 16 27  2  0  0  0  0
 16 28  1  0  0  0  0
 17 29  1  0  0  0  0
 18 29  1  0  0  0  0
 18 32  2  0  0  0  0
 18 33  1  0  0  0  0
 19 21  2  0  0  0  0
 19 38  1  0  0  0  0
 20 22  2  0  0  0  0
 20 39  1  0  0  0  0
 21 47  1  0  0  0  0
 22 40  1  0  0  0  0
 23 56  1  0  0  0  0
 24 77  1  0  0  0  0
 25 78  1  0  0  0  0
 26 28  2  0  0  0  0
 26 77  1  0  0  0  0
 27 79  1  0  0  0  0
 28 80  1  0  0  0  0
 29 62  2  0  0  0  0
 30 50  1  0  0  0  0
 30 63  1  0  0  0  0
 31 57  1  0  0  0  0
 31 63  2  0  0  0  0
 32 64  1  0  0  0  0
 32 67  1  0  0  0  0
 33 68  1  0  0  0  0
 33 72  2  0  0  0  0
 34 48  1  0  0  0  0
 34 69  1  0  0  0  0
 34 73  2  0  0  0  0
 35 56  1  0  0  0  0
 35 66  1  0  0  0  0
 35 74  2  0  0  0  0
 36 59  1  0  0  0  0
 36 65  1  0  0  0  0
 36 75  2  0  0  0  0
 37 60  1  0  0  0  0
 37 70  1  0  0  0  0
 37 76  2  0  0  0  0
 38 41  1  0  0  0  0
 39 48  1  0  0  0  0
 40 65  1  0  0  0  0
 41 43  1  0  0  0  0
 42 44  1  0  0  0  0
 42 45  1  0  0  0  0
 43 47  1  0  0  0  0
 44 49  1  0  0  0  0
 45 66  1  0  0  0  0
 46 49  1  0  0  0  0
 46 66  1  0  0  0  0
 47 69  1  0  0  0  0
 48 65  1  0  0  0  0
 49 64  1  0  0  0  0
 51 60  1  0  0  0  0
 52 61  1  0  0  0  0
 53 61  1  0  0  0  0
 54 61  1  0  0  0  0
 55 71  1  0  0  0  0
 57 58  1  0  0  0  0
 58 78  1  0  0  0  0
 59 61  1  0  0  0  0
 59 70  1  0  0  0  0
 60 71  1  0  0  0  0
 62 64  1  0  0  0  0
M  CHG  1  71   1
M  ISO  4  35 100  56 100  58 101  78 101
M  END
> <Batch ID>
0038

> <Smiles>
CNC(C)C(=O)NC(C(=O)N1Cc2cc([101O:1][101CH2:1]Cc3cc([100CH2:0][100C:0](=O)N4CCCC(n5nc(-c6ccc(Oc7ccc(F)cc7F)cc6)c(C(N)=O)c5N)C4)cc(C)n3)ccc2CC1C(=O)NC1CCCc2ccccc21)C(C)(C)C

> <Shape>
0.245

> <Color>
0.084

> <Negative vol penalty>
0.000

$$$$

  -OEChem-04052317013D

 84 92  0     1  0  0  0  0  0999 V2000
  -32.3526  -12.7959   21.4273 C   0  0  0  0  0  0  0  0  0  0  0  0
  -31.9528  -14.1110   21.6417 C   0  0  0  0  0  0  0  0  0  0  0  0
  -29.2962  -26.0455   20.6311 C   0  0  0  0  0  0  0  0  0  0  0  0
  -27.7402  -26.4835   18.8355 C   0  0  0  0  0  0  0  0  0  0  0  0
  -31.5432  -11.9341   20.6883 C   0  0  0  0  0  0  0  0  0  0  0  0
  -30.7438  -14.5655   21.1163 C   0  0  0  0  0  0  0  0  0  0  0  0
  -25.3894  -19.1043   22.5466 C   0  0  0  0  0  0  0  0  0  0  0  0
  -29.8465  -24.9943   19.8979 C   0  0  0  0  0  0  0  0  0  0  0  0
  -28.2906  -25.4323   18.1022 C   0  0  0  0  0  0  0  0  0  0  0  0
  -24.6776  -20.1496   21.9596 C   0  0  0  0  0  0  0  0  0  0  0  0
  -31.4226  -21.9650   18.6477 C   0  0  0  0  0  0  0  0  0  0  0  0
  -31.6701  -20.7660   19.3160 C   0  0  0  0  0  0  0  0  0  0  0  0
  -23.3236  -18.5492   20.7660 C   0  0  0  0  0  0  0  0  0  0  0  0
  -29.3218  -20.5805   19.8529 C   0  0  0  0  0  0  0  0  0  0  0  0
  -28.2430  -26.7901   20.0999 C   0  0  0  0  0  0  0  0  0  0  0  0
  -28.0734  -29.2256   20.8398 C   0  0  0  0  0  0  0  0  0  0  0  0
  -30.3191  -12.3755   20.1617 C   0  0  0  0  0  0  0  0  0  0  0  0
  -25.0802  -17.7716   22.2389 C   0  0  0  0  0  0  0  0  0  0  0  0
  -29.9179  -13.7092   20.3684 C   0  0  0  0  0  0  0  0  0  0  0  0
  -24.0312  -17.4888   21.3525 C   0  0  0  0  0  0  0  0  0  0  0  0
  -22.4339  -23.1912   20.1393 C   0  0  0  0  0  0  0  0  0  0  0  0
  -29.3437  -24.6876   18.6334 C   0  0  0  0  0  0  0  0  0  0  0  0
  -23.6465  -19.8722   21.0669 C   0  0  0  0  0  0  0  0  0  0  0  0
  -30.1247  -22.4719   18.5821 C   0  0  0  0  0  0  0  0  0  0  0  0
  -30.6197  -20.0737   19.9186 C   0  0  0  0  0  0  0  0  0  0  0  0
  -29.0743  -21.7796   19.1846 C   0  0  0  0  0  0  0  0  0  0  0  0
  -27.6738  -27.8759   20.8571 C   0  0  0  0  0  0  0  0  0  0  0  0
  -22.8014  -24.1998   19.2284 C   0  0  0  0  0  0  0  0  0  0  0  0
  -21.0678  -23.2961   20.2349 C   0  0  0  0  0  0  0  0  0  0  0  0
  -27.2256  -29.8460   21.7246 C   0  0  0  0  0  0  0  0  0  0  0  0
  -29.1175  -29.8617   20.0909 C   0  0  0  0  0  0  0  0  0  0  0  0
  -26.6530  -15.3559   20.8993 C   0  0  0  0  0  0  0  0  0  0  0  0
  -23.9992  -13.6822   21.7231 C   0  0  0  0  0  0  0  0  0  0  0  0
  -20.6684  -13.7139   22.4659 C   0  0  0  0  0  0  0  0  0  0  0  0
  -21.7204  -28.5485   23.6892 C   0  0  0  0  0  0  0  0  0  0  0  0
  -29.5004  -11.4208   19.3293 C   0  0  0  0  0  0  0  0  0  0  0  0
  -25.8399  -16.6550   22.9011 C   0  0  0  0  0  0  0  0  0  0  0  0
  -23.6466  -16.0748   21.0044 C   0  0  0  0  0  0  0  0  0  0  0  0
  -28.0573  -11.8746   19.1245 C   0  0  0  0  0  0  0  0  0  0  0  0
  -24.6485  -28.9949   25.6648 C   0  0  0  0  0  0  0  0  0  0  0  0
  -28.0118  -13.3476   18.7308 C   0  0  0  0  0  0  0  0  0  0  0  0
  -25.7920  -28.8805   24.6551 C   0  0  0  0  0  0  0  0  0  0  0  0
  -23.5039  -28.0406   25.3316 C   0  0  0  0  0  0  0  0  0  0  0  0
  -24.1261  -28.0404   22.9469 C   0  0  0  0  0  0  0  0  0  0  0  0
  -28.6016  -14.2324   19.8356 C   0  0  1  0  0  0  0  0  0  0  0  0
  -25.7782  -15.3455   22.1209 C   0  0  1  0  0  0  0  0  0  0  0  0
  -25.2797  -29.0236   23.2093 C   0  0  2  0  0  0  0  0  0  0  0  0
  -24.1545  -24.5401   18.7545 C   0  0  0  0  0  0  0  0  0  0  0  0
  -20.0849  -22.5297   21.0239 C   0  0  0  0  0  0  0  0  0  0  0  0
  -18.7680  -12.1866   23.0600 C   0  0  0  0  0  0  0  0  0  0  0  0
  -23.8159  -12.7822   18.8134 C   0  0  0  0  0  0  0  0  0  0  0  0
  -21.4532  -12.0800   19.2522 C   0  0  0  0  0  0  0  0  0  0  0  0
  -23.3259  -10.9937   20.4914 C   0  0  0  0  0  0  0  0  0  0  0  0
  -20.2578  -15.0498   25.0747 C   0  0  0  0  0  0  0  0  0  0  0  0
  -23.3301  -22.2191   20.8486 C   0  0  0  0  0  0  0  0  0  1  0  0
  -19.7641  -26.9321   20.5516 C   0  0  0  0  0  0  0  0  0  0  0  0
  -18.8493  -25.7347   20.2732 C   0  0  0  0  0  0  0  0  0  0  0  0
  -19.1923  -27.8178   21.6634 C   0  0  0  0  0  0  0  0  0  0  0  0
  -19.3800  -24.8194   19.1641 C   0  0  0  0  0  0  0  0  0  0  0  0
  -20.0476  -29.0529   21.9266 C   0  0  0  0  0  0  0  0  0  0  0  0
  -22.6809  -13.3722   21.0560 C   0  0  1  0  0  0  0  0  0  0  0  0
  -19.8820  -13.0729   23.5951 C   0  0  2  0  0  0  0  0  0  0  0  0
  -22.8273  -12.3338   19.9081 C   0  0  0  0  0  0  0  0  0  0  0  0
  -26.6518  -27.6513   21.6872 N   0  0  0  0  0  0  0  0  0  0  0  0
  -21.7533  -24.8941   18.7774 N   0  0  0  0  0  0  0  0  0  0  0  0
  -20.7138  -24.3209   19.4074 N   0  0  0  0  0  0  0  0  0  0  0  0
  -26.4021  -28.8682   22.1998 N   0  0  0  0  0  0  0  0  0  0  0  0
  -24.4231  -15.0177   21.6730 N   0  0  0  0  0  0  0  0  0  0  0  0
  -23.0635  -28.2284   23.9471 N   0  0  0  0  0  0  0  0  0  0  0  0
  -27.1118  -31.1271   22.1348 N   0  0  0  0  0  0  0  0  0  0  0  0
  -29.8939  -29.0767   19.2276 N   0  0  0  0  0  0  0  0  0  0  0  0
  -27.6493  -14.3984   20.9126 N   0  0  0  0  0  0  0  0  0  0  0  0
  -21.7713  -12.9620   22.1204 N   0  0  0  0  0  0  0  0  0  0  0  0
  -21.3883  -28.7155   22.3503 N   0  0  0  0  0  0  0  0  0  0  0  0
  -19.2734  -14.1207   24.4625 N   0  3  0  0  0  0  0  0  0  0  0  0
  -29.3655  -31.0868   20.1967 O   0  0  0  0  0  0  0  0  0  0  0  0
  -26.4389  -16.1712   20.0099 O   0  0  0  0  0  0  0  0  0  0  0  0
  -24.6261  -12.7743   22.2747 O   0  0  0  0  0  0  0  0  0  0  0  0
  -20.3353  -14.7738   21.9401 O   0  0  0  0  0  0  0  0  0  0  0  0
  -20.8806  -28.6812   24.5859 O   0  0  0  0  0  0  0  0  0  0  0  0
  -29.8806  -23.6620   17.9176 O   0  0  0  0  0  0  0  0  0  0  0  0
  -22.9506  -20.8905   20.4920 O   0  0  0  0  0  0  0  0  0  1  0  0
  -30.8573  -18.9214   20.5589 F   0  0  0  0  0  0  0  0  0  0  0  0
  -27.8252  -22.2610   19.1239 F   0  0  0  0  0  0  0  0  0  0  0  0
  1  2  1  0  0  0  0
  1  5  2  0  0  0  0
  2  6  2  0  0  0  0
  3  8  2  0  0  0  0
  3 15  1  0  0  0  0
  4  9  1  0  0  0  0
  4 15  2  0  0  0  0
  5 17  1  0  0  0  0
  6 19  1  0  0  0  0
  7 10  2  0  0  0  0
  7 18  1  0  0  0  0
  8 22  1  0  0  0  0
  9 22  2  0  0  0  0
 10 23  1  0  0  0  0
 11 12  2  0  0  0  0
 11 24  1  0  0  0  0
 12 25  1  0  0  0  0
 13 20  1  0  0  0  0
 13 23  2  0  0  0  0
 14 25  2  0  0  0  0
 14 26  1  0  0  0  0
 15 27  1  0  0  0  0
 16 27  1  0  0  0  0
 16 30  2  0  0  0  0
 16 31  1  0  0  0  0
 17 19  2  0  0  0  0
 17 36  1  0  0  0  0
 18 20  2  0  0  0  0
 18 37  1  0  0  0  0
 19 45  1  0  0  0  0
 20 38  1  0  0  0  0
 21 28  1  0  0  0  0
 21 29  2  0  0  0  0
 21 55  1  0  0  0  0
 22 81  1  0  0  0  0
 23 82  1  0  0  0  0
 24 26  2  0  0  0  0
 24 81  1  0  0  0  0
 25 83  1  0  0  0  0
 26 84  1  0  0  0  0
 27 64  2  0  0  0  0
 28 48  1  0  0  0  0
 28 65  2  0  0  0  0
 29 49  1  0  0  0  0
 29 66  1  0  0  0  0
 30 67  1  0  0  0  0
 30 70  1  0  0  0  0
 31 71  1  0  0  0  0
 31 76  2  0  0  0  0
 32 46  1  0  0  0  0
 32 72  1  0  0  0  0
 32 77  2  0  0  0  0
 33 61  1  0  0  0  0
 33 68  1  0  0  0  0
 33 78  2  0  0  0  0
 34 62  1  0  0  0  0
 34 73  1  0  0  0  0
 34 79  2  0  0  0  0
 35 69  1  0  0  0  0
 35 74  1  0  0  0  0
 35 80  2  0  0  0  0
 36 39  1  0  0  0  0
 37 46  1  0  0  0  0
 38 68  1  0  0  0  0
 39 41  1  0  0  0  0
 40 42  1  0  0  0  0
 40 43  1  0  0  0  0
 41 45  1  0  0  0  0
 42 47  1  0  0  0  0
 43 69  1  0  0  0  0
 44 47  1  0  0  0  0
 44 69  1  0  0  0  0
 45 72  1  0  0  0  0
 46 68  1  0  0  0  0
 47 67  1  0  0  0  0
 50 62  1  0  0  0  0
 51 63  1  0  0  0  0
 52 63  1  0  0  0  0
 53 63  1  0  0  0  0
 54 75  1  0  0  0  0
 55 82  1  0  0  0  0
 56 57  1  0  0  0  0
 56 58  1  0  0  0  0
 57 59  1  0  0  0  0
 58 60  1  0  0  0  0
 59 66  1  0  0  0  0
 60 74  1  0  0  0  0
 61 63  1  0  0  0  0
 61 73  1  0  0  0  0
 62 75  1  0  0  0  0
 64 67  1  0  0  0  0
 65 66  1  0  0  0  0
M  CHG  1  75   1
M  ISO  4  35 100  55 101  74 100  82 101
M  END
> <Batch ID>
0038

> <Smiles>
CNC(C)C(=O)NC(C(=O)N1Cc2cc([101O:1][101CH2:1]c3c(C)nn(CCCCC[100NH:0][100C:0](=O)N4CCCC(n5nc(-c6ccc(Oc7ccc(F)cc7F)cc6)c(C(N)=O)c5N)C4)c3C)ccc2CC1C(=O)NC1CCCc2ccccc21)C(C)(C)C

> <Shape>
0.231

> <Color>
0.054

> <Negative vol penalty>
0.000

$$$$
