
  -OEChem-04052317043D

 87 95  0     1  0  0  0  0  0999 V2000
  -31.8012  -32.4722   16.8004 C   0  0  0  0  0  0  0  0  0  0  0  0
  -32.1609  -31.5934   17.8170 C   0  0  0  0  0  0  0  0  0  0  0  0
  -23.0507   -9.9141   19.8647 C   0  0  0  0  0  0  0  0  0  0  0  0
  -23.8564   -9.7346   22.1353 C   0  0  0  0  0  0  0  0  0  0  0  0
  -30.5198  -32.4172   16.2539 C   0  0  0  0  0  0  0  0  0  0  0  0
  -31.2389  -30.6596   18.2886 C   0  0  0  0  0  0  0  0  0  0  0  0
  -33.2592  -26.0509   18.8575 C   0  0  0  0  0  0  0  0  0  0  0  0
  -36.2262  -21.5363   22.4348 C   0  0  0  0  0  0  0  0  0  0  0  0
  -35.6652  -20.2601   22.4777 C   0  0  0  0  0  0  0  0  0  0  0  0
  -22.2981   -8.7529   20.0400 C   0  0  0  0  0  0  0  0  0  0  0  0
  -23.1038   -8.5733   22.3106 C   0  0  0  0  0  0  0  0  0  0  0  0
  -34.0450  -25.8354   19.9888 C   0  0  0  0  0  0  0  0  0  0  0  0
  -19.8789   -7.7651   22.9168 C   0  0  0  0  0  0  0  0  0  0  0  0
  -19.1452   -7.6421   24.0967 C   0  0  0  0  0  0  0  0  0  0  0  0
  -32.1822  -24.7473   21.0681 C   0  0  0  0  0  0  0  0  0  0  0  0
  -34.5157  -22.3390   23.9403 C   0  0  0  0  0  0  0  0  0  0  0  0
  -20.3775   -5.6402   24.6544 C   0  0  0  0  0  0  0  0  0  0  0  0
  -23.8299  -10.4049   20.9124 C   0  0  0  0  0  0  0  0  0  0  0  0
  -24.1999  -12.9280   20.9816 C   0  0  0  0  0  0  0  0  0  0  0  0
  -29.5847  -31.4759   16.7123 C   0  0  0  0  0  0  0  0  0  0  0  0
  -31.9234  -25.6252   18.8271 C   0  0  0  0  0  0  0  0  0  0  0  0
  -29.9433  -30.5928   17.7486 C   0  0  0  0  0  0  0  0  0  0  0  0
  -31.3823  -24.9563   19.9343 C   0  0  0  0  0  0  0  0  0  0  0  0
  -35.6515  -22.5758   23.1662 C   0  0  0  0  0  0  0  0  0  0  0  0
  -34.5293  -20.0232   23.2519 C   0  0  0  0  0  0  0  0  0  0  0  0
  -33.9546  -21.0627   23.9833 C   0  0  0  0  0  0  0  0  0  0  0  0
  -22.3246   -8.0825   21.2629 C   0  0  0  0  0  0  0  0  0  0  0  0
  -33.5058  -25.1861   21.0954 C   0  0  0  0  0  0  0  0  0  0  0  0
  -20.8619   -6.8256   22.6057 C   0  0  0  0  0  0  0  0  0  0  0  0
  -19.3945   -6.5797   24.9655 C   0  0  0  0  0  0  0  0  0  0  0  0
  -21.1112   -5.7632   23.4745 C   0  0  0  0  0  0  0  0  0  0  0  0
  -24.6081  -11.6041   20.7318 C   0  0  0  0  0  0  0  0  0  0  0  0
  -25.2935  -13.6920   20.6548 C   0  0  0  0  0  0  0  0  0  0  0  0
  -22.9444  -13.4230   21.4658 C   0  0  0  0  0  0  0  0  0  0  0  0
  -29.1121  -27.0784   18.5305 C   0  0  0  0  0  0  0  0  0  0  0  0
  -27.9897  -24.0368   18.4267 C   0  0  0  0  0  0  0  0  0  0  0  0
  -28.4513  -20.7496   19.2194 C   0  0  0  0  0  0  0  0  0  0  0  0
  -30.5639  -14.7750   20.7606 C   0  0  0  0  0  0  0  0  0  0  0  0
  -28.1962  -31.4858   16.1234 C   0  0  0  0  0  0  0  0  0  0  0  0
  -31.0969  -25.8414   17.5892 C   0  0  0  0  0  0  0  0  0  0  0  0
  -29.9598  -24.4615   19.9445 C   0  0  0  0  0  0  0  0  0  0  0  0
  -27.3994  -30.2181   16.4207 C   0  0  0  0  0  0  0  0  0  0  0  0
  -29.5725  -12.4839   18.2627 C   0  0  0  0  0  0  0  0  0  0  0  0
  -27.5217  -29.8440   17.8944 C   0  0  0  0  0  0  0  0  0  0  0  0
  -28.1503  -12.1469   18.7084 C   0  0  0  0  0  0  0  0  0  0  0  0
  -30.5329  -12.6033   19.4474 C   0  0  0  0  0  0  0  0  0  0  0  0
  -28.6545  -13.2084   20.9401 C   0  0  0  0  0  0  0  0  0  0  0  0
  -28.9791  -29.5493   18.2697 C   0  0  1  0  0  0  0  0  0  0  0  0
  -29.5960  -25.8229   17.8620 C   0  0  1  0  0  0  0  0  0  0  0  0
  -27.6572  -13.1419   19.7732 C   0  0  2  0  0  0  0  0  0  0  0  0
  -30.2297  -20.4836   24.8172 C   0  0  0  0  0  0  0  0  0  0  0  0
  -27.3440  -18.5050   19.0372 C   0  0  0  0  0  0  0  0  0  0  0  0
  -26.0858  -24.7951   20.6873 C   0  0  0  0  0  0  0  0  0  0  0  0
  -25.7083  -22.3538   21.0946 C   0  0  0  0  0  0  0  0  0  0  0  0
  -25.0712  -23.3643   18.9047 C   0  0  0  0  0  0  0  0  0  0  0  0
  -32.9065  -13.8174   20.7459 C   0  0  0  0  0  0  0  0  0  0  0  0
  -30.6760  -19.6541   17.6040 C   0  0  0  0  0  0  0  0  0  0  0  0
  -36.2586  -23.9570   23.1191 C   0  0  0  0  0  0  0  0  0  0  0  0
  -33.9457  -18.6488   23.2813 C   0  0  0  0  0  0  0  0  0  0  0  0
  -32.7382  -20.8329   24.8189 C   0  0  0  0  0  0  0  0  0  0  0  0
  -31.4624  -20.7511   23.9683 C   0  0  0  0  0  0  0  0  0  0  0  0
  -33.5623  -18.1519   21.8795 C   0  0  0  0  0  0  0  0  0  0  0  0
  -32.9315  -16.7571   21.9274 C   0  0  0  0  0  0  0  0  0  0  0  0
  -32.5299  -16.2473   20.5471 C   0  0  0  0  0  0  0  0  0  0  0  0
  -35.6733  -24.8098   21.9987 C   0  0  0  0  0  0  0  0  0  1  0  0
  -27.5172  -23.0359   19.4534 C   0  0  1  0  0  0  0  0  0  0  0  0
  -28.3118  -19.4847   18.3918 C   0  0  2  0  0  0  0  0  0  0  0  0
  -26.1219  -23.3982   20.0359 C   0  0  0  0  0  0  0  0  0  0  0  0
  -25.8630  -11.5278   20.2810 N   0  0  0  0  0  0  0  0  0  0  0  0
  -26.2528  -12.8134   20.2448 N   0  0  0  0  0  0  0  0  0  0  0  0
  -29.1901  -24.7024   18.7128 N   0  0  0  0  0  0  0  0  0  0  0  0
  -30.0021  -13.5252   20.4609 N   0  0  0  0  0  0  0  0  0  0  0  0
  -25.5185  -15.0228   20.6809 N   0  0  0  0  0  0  0  0  0  0  0  0
  -21.9285  -12.5010   21.7526 N   0  0  0  0  0  0  0  0  0  0  0  0
  -29.3625  -28.2313   17.8110 N   0  0  0  0  0  0  0  0  0  0  0  0
  -27.5737  -21.7297   18.8062 N   0  0  0  0  0  0  0  0  0  0  0  0
  -31.9502  -14.9124   20.5946 N   0  0  0  0  0  0  0  0  0  0  0  0
  -29.6338  -18.8124   18.2463 N   0  3  0  0  0  0  0  0  0  0  0  0
  -22.7243  -14.6478   21.6234 O   0  0  0  0  0  0  0  0  0  0  0  0
  -28.5516  -27.0065   19.6179 O   0  0  0  0  0  0  0  0  0  0  0  0
  -27.3220  -24.2160   17.4050 O   0  0  0  0  0  0  0  0  0  0  0  0
  -29.2555  -20.8563   20.1427 O   0  0  0  0  0  0  0  0  0  0  0  0
  -29.8670  -15.7158   21.1625 O   0  0  0  0  0  0  0  0  0  0  0  0
  -21.5901   -6.9495   21.4343 O   0  0  0  0  0  0  0  0  0  0  0  0
  -34.2704  -24.9751   22.2011 O   0  0  0  0  0  0  0  0  0  1  0  0
  -18.6908   -6.4626   26.0992 F   0  0  0  0  0  0  0  0  0  0  0  0
  -22.0552   -4.8582   23.1816 F   0  0  0  0  0  0  0  0  0  0  0  0
  1  2  1  0  0  0  0
  1  5  2  0  0  0  0
  2  6  2  0  0  0  0
  3 10  2  0  0  0  0
  3 18  1  0  0  0  0
  4 11  1  0  0  0  0
  4 18  2  0  0  0  0
  5 20  1  0  0  0  0
  6 22  1  0  0  0  0
  7 12  2  0  0  0  0
  7 21  1  0  0  0  0
  8  9  2  0  0  0  0
  8 24  1  0  0  0  0
  9 25  1  0  0  0  0
 10 27  1  0  0  0  0
 11 27  2  0  0  0  0
 12 28  1  0  0  0  0
 13 14  2  0  0  0  0
 13 29  1  0  0  0  0
 14 30  1  0  0  0  0
 15 23  1  0  0  0  0
 15 28  2  0  0  0  0
 16 24  2  0  0  0  0
 16 26  1  0  0  0  0
 17 30  2  0  0  0  0
 17 31  1  0  0  0  0
 18 32  1  0  0  0  0
 19 32  1  0  0  0  0
 19 33  2  0  0  0  0
 19 34  1  0  0  0  0
 20 22  2  0  0  0  0
 20 39  1  0  0  0  0
 21 23  2  0  0  0  0
 21 40  1  0  0  0  0
 22 48  1  0  0  0  0
 23 41  1  0  0  0  0
 24 58  1  0  0  0  0
 25 26  2  0  0  0  0
 25 59  1  0  0  0  0
 26 60  1  0  0  0  0
 27 84  1  0  0  0  0
 28 85  1  0  0  0  0
 29 31  2  0  0  0  0
 29 84  1  0  0  0  0
 30 86  1  0  0  0  0
 31 87  1  0  0  0  0
 32 69  2  0  0  0  0
 33 70  1  0  0  0  0
 33 73  1  0  0  0  0
 34 74  1  0  0  0  0
 34 79  2  0  0  0  0
 35 49  1  0  0  0  0
 35 75  1  0  0  0  0
 35 80  2  0  0  0  0
 36 66  1  0  0  0  0
 36 71  1  0  0  0  0
 36 81  2  0  0  0  0
 37 67  1  0  0  0  0
 37 76  1  0  0  0  0
 37 82  2  0  0  0  0
 38 72  1  0  0  0  0
 38 77  1  0  0  0  0
 38 83  2  0  0  0  0
 39 42  1  0  0  0  0
 40 49  1  0  0  0  0
 41 71  1  0  0  0  0
 42 44  1  0  0  0  0
 43 45  1  0  0  0  0
 43 46  1  0  0  0  0
 44 48  1  0  0  0  0
 45 50  1  0  0  0  0
 46 72  1  0  0  0  0
 47 50  1  0  0  0  0
 47 72  1  0  0  0  0
 48 75  1  0  0  0  0
 49 71  1  0  0  0  0
 50 70  1  0  0  0  0
 51 61  1  0  0  0  0
 52 67  1  0  0  0  0
 53 68  1  0  0  0  0
 54 68  1  0  0  0  0
 55 68  1  0  0  0  0
 56 77  1  0  0  0  0
 57 78  1  0  0  0  0
 58 65  1  0  0  0  0
 59 62  1  0  0  0  0
 60 61  1  0  0  0  0
 62 63  1  0  0  0  0
 63 64  1  0  0  0  0
 64 77  1  0  0  0  0
 65 85  1  0  0  0  0
 66 68  1  0  0  0  0
 66 76  1  0  0  0  0
 67 78  1  0  0  0  0
 69 70  1  0  0  0  0
M  CHG  1  78   1
M  ISO  4  38 100  65 101  77 100  85 101
M  END
> <Batch ID>
0039

> <Smiles>
CCCc1cc(C[101CH2:1][101O:1]c2ccc3c(c2)CN(C(=O)C(NC(=O)C(C)NC)C(C)(C)C)C(C(=O)NC2CCCc4ccccc42)C3)ccc1CCCC[100N:0](C)[100C:0](=O)N1CCCC(n2nc(-c3ccc(Oc4ccc(F)cc4F)cc3)c(C(N)=O)c2N)C1

> <Shape>
0.235

> <Color>
0.211

> <Negative vol penalty>
0.000

$$$$

  -OEChem-04052317043D

 84 92  0     1  0  0  0  0  0999 V2000
  -24.0329  -19.3168   22.7477 C   0  0  0  0  0  0  0  0  0  0  0  0
  -24.4574  -20.5939   23.1005 C   0  0  0  0  0  0  0  0  0  0  0  0
  -25.5965  -15.8314   21.7292 C   0  0  0  0  0  0  0  0  0  0  0  0
  -25.2892  -16.4138   19.4047 C   0  0  0  0  0  0  0  0  0  0  0  0
  -23.1703  -19.1442   21.6660 C   0  0  0  0  0  0  0  0  0  0  0  0
  -24.0203  -21.6990   22.3710 C   0  0  0  0  0  0  0  0  0  0  0  0
  -22.8356  -27.3042   24.5350 C   0  0  0  0  0  0  0  0  0  0  0  0
  -24.3408  -15.2243   21.7432 C   0  0  0  0  0  0  0  0  0  0  0  0
  -24.0334  -15.8067   19.4186 C   0  0  0  0  0  0  0  0  0  0  0  0
  -23.5846  -28.4800   24.5542 C   0  0  0  0  0  0  0  0  0  0  0  0
  -21.3680  -13.2052   22.2916 C   0  0  0  0  0  0  0  0  0  0  0  0
  -21.2585  -11.9557   22.9018 C   0  0  0  0  0  0  0  0  0  0  0  0
  -22.4681  -29.2169   22.5468 C   0  0  0  0  0  0  0  0  0  0  0  0
  -29.0894  -29.5289   23.4426 C   0  0  0  0  0  0  0  0  0  0  0  0
  -27.2356  -30.9256   24.1128 C   0  0  0  0  0  0  0  0  0  0  0  0
  -27.6607  -30.5253   21.7684 C   0  0  0  0  0  0  0  0  0  0  0  0
  -22.8646  -11.0520   21.3394 C   0  0  0  0  0  0  0  0  0  0  0  0
  -26.0707  -16.4262   20.5600 C   0  0  0  0  0  0  0  0  0  0  0  0
  -28.6002  -16.4511   20.2309 C   0  0  0  0  0  0  0  0  0  0  0  0
  -22.7148  -20.2486   20.9289 C   0  0  0  0  0  0  0  0  0  0  0  0
  -21.9034  -27.0708   23.5138 C   0  0  0  0  0  0  0  0  0  0  0  0
  -23.1519  -21.5408   21.2776 C   0  0  0  0  0  0  0  0  0  0  0  0
  -21.7066  -28.0385   22.5184 C   0  0  0  0  0  0  0  0  0  0  0  0
  -28.3298  -30.1279   24.4474 C   0  0  0  0  0  0  0  0  0  0  0  0
  -28.7549  -29.7276   22.1031 C   0  0  0  0  0  0  0  0  0  0  0  0
  -26.9010  -31.1243   22.7732 C   0  0  0  0  0  0  0  0  0  0  0  0
  -23.5592  -15.2119   20.5879 C   0  0  0  0  0  0  0  0  0  0  0  0
  -23.4030  -29.4352   23.5584 C   0  0  0  0  0  0  0  0  0  0  0  0
  -22.2258  -13.3781   21.2053 C   0  0  0  0  0  0  0  0  0  0  0  0
  -22.0068  -10.8791   22.4257 C   0  0  0  0  0  0  0  0  0  0  0  0
  -22.9741  -12.3015   20.7292 C   0  0  0  0  0  0  0  0  0  0  0  0
  -27.3675  -17.0539   20.5451 C   0  0  0  0  0  0  0  0  0  0  0  0
  -29.5203  -17.4624   20.3617 C   0  0  0  0  0  0  0  0  0  0  0  0
  -28.8879  -15.0979   19.8543 C   0  0  0  0  0  0  0  0  0  0  0  0
  -21.5788  -24.8839   21.2299 C   0  0  0  0  0  0  0  0  0  0  0  0
  -28.9186  -23.3544   19.9163 C   0  0  0  0  0  0  0  0  0  0  0  0
  -18.7556  -26.3982   20.7215 C   0  0  0  0  0  0  0  0  0  0  0  0
  -16.9018  -29.2480   21.0190 C   0  0  0  0  0  0  0  0  0  0  0  0
  -21.8206  -20.0080   19.7384 C   0  0  0  0  0  0  0  0  0  0  0  0
  -21.0842  -25.8093   23.5223 C   0  0  0  0  0  0  0  0  0  0  0  0
  -20.7040  -27.8450   21.4113 C   0  0  0  0  0  0  0  0  0  0  0  0
  -21.1065  -21.2653   19.2490 C   0  0  0  0  0  0  0  0  0  0  0  0
  -30.3119  -21.5308   22.7377 C   0  0  0  0  0  0  0  0  0  0  0  0
  -22.0847  -22.4317   19.1531 C   0  0  0  0  0  0  0  0  0  0  0  0
  -29.7957  -20.1172   22.4729 C   0  0  0  0  0  0  0  0  0  0  0  0
  -29.2972  -22.5881   22.3103 C   0  0  0  0  0  0  0  0  0  0  0  0
  -28.3461  -21.0522   20.6189 C   0  0  0  0  0  0  0  0  0  0  0  0
  -22.6801  -22.7667   20.5260 C   0  0  1  0  0  0  0  0  0  0  0  0
  -20.5307  -25.4470   22.1476 C   0  0  1  0  0  0  0  0  0  0  0  0
  -29.3528  -19.9567   21.0081 C   0  0  2  0  0  0  0  0  0  0  0  0
  -28.6878  -29.9148   25.8795 C   0  0  0  0  0  0  0  0  0  0  0  0
  -14.6411  -30.1930   20.4770 C   0  0  0  0  0  0  0  0  0  0  0  0
  -19.5791  -26.6848   17.7976 C   0  0  0  0  0  0  0  0  0  0  0  0
  -17.7896  -28.4161   17.5357 C   0  0  0  0  0  0  0  0  0  0  0  0
  -17.1790  -26.0769   18.1506 C   0  0  0  0  0  0  0  0  0  0  0  0
  -16.2885  -29.7257   23.8746 C   0  0  0  0  0  0  0  0  0  0  0  0
  -29.5666  -29.0869   21.0282 C   0  0  0  0  0  0  0  0  0  0  0  0
  -25.7169  -31.9876   22.4115 C   0  0  0  0  0  0  0  0  0  0  0  0
  -29.4357  -24.7145   20.3120 C   0  0  0  0  0  0  0  0  0  0  0  0
  -29.0791  -27.6874   20.6113 C   0  0  0  0  0  0  0  0  0  0  0  0
  -29.4224  -25.6718   19.1243 C   0  0  0  0  0  0  0  0  0  0  0  0
  -29.9262  -27.0713   19.4927 C   0  0  0  0  0  0  0  0  0  0  0  0
  -24.4233  -31.1862   22.3139 C   0  0  0  0  0  0  0  0  0  1  0  0
  -18.3025  -27.5563   19.8656 C   0  0  1  0  0  0  0  0  0  0  0  0
  -15.4885  -29.4825   21.5210 C   0  0  2  0  0  0  0  0  0  0  0  0
  -18.2329  -27.1866   18.3570 C   0  0  0  0  0  0  0  0  0  0  0  0
  -27.4899  -18.3480   20.8526 N   0  0  0  0  0  0  0  0  0  0  0  0
  -28.8104  -18.5665   20.7323 N   0  0  0  0  0  0  0  0  0  0  0  0
  -19.9317  -26.5925   21.4596 N   0  0  0  0  0  0  0  0  0  0  0  0
  -28.8800  -22.3841   20.9179 N   0  0  0  0  0  0  0  0  0  0  0  0
  -30.8592  -17.5061   20.1949 N   0  0  0  0  0  0  0  0  0  0  0  0
  -27.8253  -14.1882   19.7676 N   0  0  0  0  0  0  0  0  0  0  0  0
  -21.7287  -23.5132   21.3210 N   0  0  0  0  0  0  0  0  0  0  0  0
  -17.0352  -28.0089   20.4290 N   0  0  0  0  0  0  0  0  0  0  0  0
  -15.5091  -30.3161   22.7562 N   0  3  0  0  0  0  0  0  0  0  0  0
  -30.0549  -14.7031   19.6180 O   0  0  0  0  0  0  0  0  0  0  0  0
  -22.2042  -25.6370   20.4927 O   0  0  0  0  0  0  0  0  0  0  0  0
  -28.5626  -23.1613   18.7509 O   0  0  0  0  0  0  0  0  0  0  0  0
  -18.0866  -25.3620   20.7402 O   0  0  0  0  0  0  0  0  0  0  0  0
  -17.7969  -30.0822   21.1351 O   0  0  0  0  0  0  0  0  0  0  0  0
  -22.3339  -14.6194   20.6011 O   0  0  0  0  0  0  0  0  0  0  0  0
  -24.1333  -30.5834   23.5744 O   0  0  0  0  0  0  0  0  0  1  0  0
  -21.9027   -9.6796   23.0128 F   0  0  0  0  0  0  0  0  0  0  0  0
  -23.8007  -12.4618   19.6867 F   0  0  0  0  0  0  0  0  0  0  0  0
  1  2  1  0  0  0  0
  1  5  2  0  0  0  0
  2  6  2  0  0  0  0
  3  8  2  0  0  0  0
  3 18  1  0  0  0  0
  4  9  1  0  0  0  0
  4 18  2  0  0  0  0
  5 20  1  0  0  0  0
  6 22  1  0  0  0  0
  7 10  2  0  0  0  0
  7 21  1  0  0  0  0
  8 27  1  0  0  0  0
  9 27  2  0  0  0  0
 10 28  1  0  0  0  0
 11 12  2  0  0  0  0
 11 29  1  0  0  0  0
 12 30  1  0  0  0  0
 13 23  1  0  0  0  0
 13 28  2  0  0  0  0
 14 24  1  0  0  0  0
 14 25  2  0  0  0  0
 15 24  2  0  0  0  0
 15 26  1  0  0  0  0
 16 25  1  0  0  0  0
 16 26  2  0  0  0  0
 17 30  2  0  0  0  0
 17 31  1  0  0  0  0
 18 32  1  0  0  0  0
 19 32  1  0  0  0  0
 19 33  2  0  0  0  0
 19 34  1  0  0  0  0
 20 22  2  0  0  0  0
 20 39  1  0  0  0  0
 21 23  2  0  0  0  0
 21 40  1  0  0  0  0
 22 48  1  0  0  0  0
 23 41  1  0  0  0  0
 24 51  1  0  0  0  0
 25 57  1  0  0  0  0
 26 58  1  0  0  0  0
 27 81  1  0  0  0  0
 28 82  1  0  0  0  0
 29 31  2  0  0  0  0
 29 81  1  0  0  0  0
 30 83  1  0  0  0  0
 31 84  1  0  0  0  0
 32 67  2  0  0  0  0
 33 68  1  0  0  0  0
 33 71  1  0  0  0  0
 34 72  1  0  0  0  0
 34 76  2  0  0  0  0
 35 49  1  0  0  0  0
 35 73  1  0  0  0  0
 35 77  2  0  0  0  0
 36 59  1  0  0  0  0
 36 70  1  0  0  0  0
 36 78  2  0  0  0  0
 37 64  1  0  0  0  0
 37 69  1  0  0  0  0
 37 79  2  0  0  0  0
 38 65  1  0  0  0  0
 38 74  1  0  0  0  0
 38 80  2  0  0  0  0
 39 42  1  0  0  0  0
 40 49  1  0  0  0  0
 41 69  1  0  0  0  0
 42 44  1  0  0  0  0
 43 45  1  0  0  0  0
 43 46  1  0  0  0  0
 44 48  1  0  0  0  0
 45 50  1  0  0  0  0
 46 70  1  0  0  0  0
 47 50  1  0  0  0  0
 47 70  1  0  0  0  0
 48 73  1  0  0  0  0
 49 69  1  0  0  0  0
 50 68  1  0  0  0  0
 52 65  1  0  0  0  0
 53 66  1  0  0  0  0
 54 66  1  0  0  0  0
 55 66  1  0  0  0  0
 56 75  1  0  0  0  0
 57 60  1  0  0  0  0
 58 63  1  0  0  0  0
 59 61  1  0  0  0  0
 60 62  1  0  0  0  0
 61 62  1  0  0  0  0
 63 82  1  0  0  0  0
 64 66  1  0  0  0  0
 64 74  1  0  0  0  0
 65 75  1  0  0  0  0
 67 68  1  0  0  0  0
M  CHG  1  75   1
M  ISO  4  36 100  59 100  63 101  82 101
M  END
> <Batch ID>
0039

> <Smiles>
CNC(C)C(=O)NC(C(=O)N1Cc2cc([101O:1][101CH2:1]Cc3cc(C)cc(CCCC[100CH2:0][100C:0](=O)N4CCCC(n5nc(-c6ccc(Oc7ccc(F)cc7F)cc6)c(C(N)=O)c5N)C4)c3)ccc2CC1C(=O)NC1CCCc2ccccc21)C(C)(C)C

> <Shape>
0.251

> <Color>
0.052

> <Negative vol penalty>
0.000

$$$$

  -OEChem-04052317043D

 82 90  0     1  0  0  0  0  0999 V2000
  -37.4800  -27.7468   24.1177 C   0  0  0  0  0  0  0  0  0  0  0  0
  -36.6344  -26.6684   24.3573 C   0  0  0  0  0  0  0  0  0  0  0  0
  -23.2331   -9.7554   19.9224 C   0  0  0  0  0  0  0  0  0  0  0  0
  -23.5987   -9.9475   22.3028 C   0  0  0  0  0  0  0  0  0  0  0  0
  -36.9464  -28.9812   23.7496 C   0  0  0  0  0  0  0  0  0  0  0  0
  -35.2545  -26.8241   24.2301 C   0  0  0  0  0  0  0  0  0  0  0  0
  -33.0910  -22.9961   21.7180 C   0  0  0  0  0  0  0  0  0  0  0  0
  -22.4935   -8.5911   20.1299 C   0  0  0  0  0  0  0  0  0  0  0  0
  -22.8591   -8.7832   22.5104 C   0  0  0  0  0  0  0  0  0  0  0  0
  -32.8851  -21.8094   22.4202 C   0  0  0  0  0  0  0  0  0  0  0  0
  -23.3404   -5.4467   22.2520 C   0  0  0  0  0  0  0  0  0  0  0  0
  -23.8583   -4.4985   23.1341 C   0  0  0  0  0  0  0  0  0  0  0  0
  -30.5728  -22.4126   22.7497 C   0  0  0  0  0  0  0  0  0  0  0  0
  -21.8913   -4.7137   24.5204 C   0  0  0  0  0  0  0  0  0  0  0  0
  -30.0656  -18.5850   26.2299 C   0  0  0  0  0  0  0  0  0  0  0  0
  -23.7858  -10.4336   21.0089 C   0  0  0  0  0  0  0  0  0  0  0  0
  -24.0655  -12.9572   20.7631 C   0  0  0  0  0  0  0  0  0  0  0  0
  -35.5599  -29.1496   23.6085 C   0  0  0  0  0  0  0  0  0  0  0  0
  -32.0402  -23.9067   21.5355 C   0  0  0  0  0  0  0  0  0  0  0  0
  -34.7018  -28.0623   23.8612 C   0  0  0  0  0  0  0  0  0  0  0  0
  -30.7673  -23.6090   22.0427 C   0  0  0  0  0  0  0  0  0  0  0  0
  -22.3065   -8.1050   21.4239 C   0  0  0  0  0  0  0  0  0  0  0  0
  -31.6266  -21.5188   22.9387 C   0  0  0  0  0  0  0  0  0  0  0  0
  -22.0979   -6.0285   22.5040 C   0  0  0  0  0  0  0  0  0  0  0  0
  -23.1338   -4.1320   24.2683 C   0  0  0  0  0  0  0  0  0  0  0  0
  -21.3733   -5.6619   23.6382 C   0  0  0  0  0  0  0  0  0  0  0  0
  -30.0635  -17.1798   26.4104 C   0  0  0  0  0  0  0  0  0  0  0  0
  -24.5503  -11.6360   20.7951 C   0  0  0  0  0  0  0  0  0  0  0  0
  -30.0943  -18.8255   24.8739 C   0  0  0  0  0  0  0  0  0  0  0  0
  -30.0912  -16.6044   25.1592 C   0  0  0  0  0  0  0  0  0  0  0  0
  -25.1796  -13.7262   20.5308 C   0  0  0  0  0  0  0  0  0  0  0  0
  -22.7277  -13.4458   20.9286 C   0  0  0  0  0  0  0  0  0  0  0  0
  -31.5067  -26.9187   22.3995 C   0  0  0  0  0  0  0  0  0  0  0  0
  -28.8653  -26.5719   20.5488 C   0  0  0  0  0  0  0  0  0  0  0  0
  -26.5721  -24.4759   19.1364 C   0  0  0  0  0  0  0  0  0  0  0  0
  -31.0126  -12.8758   21.5814 C   0  0  0  0  0  0  0  0  0  0  0  0
  -35.0267  -30.5153   23.2546 C   0  0  0  0  0  0  0  0  0  0  0  0
  -32.2720  -25.1699   20.7527 C   0  0  0  0  0  0  0  0  0  0  0  0
  -29.6011  -24.5438   21.8567 C   0  0  0  0  0  0  0  0  0  0  0  0
  -33.5770  -30.4983   22.7770 C   0  0  0  0  0  0  0  0  0  0  0  0
  -29.4796  -13.5530   18.4401 C   0  0  0  0  0  0  0  0  0  0  0  0
  -32.7199  -29.6411   23.7029 C   0  0  0  0  0  0  0  0  0  0  0  0
  -27.9987  -13.2577   18.6845 C   0  0  0  0  0  0  0  0  0  0  0  0
  -30.3814  -12.5857   19.2036 C   0  0  0  0  0  0  0  0  0  0  0  0
  -28.6306  -12.2034   20.8954 C   0  0  0  0  0  0  0  0  0  0  0  0
  -33.2011  -28.1851   23.7094 C   0  0  1  0  0  0  0  0  0  0  0  0
  -31.2576  -26.2642   21.0701 C   0  0  1  0  0  0  0  0  0  0  0  0
  -27.6820  -13.1881   20.1905 C   0  0  2  0  0  0  0  0  0  0  0  0
  -24.5086  -24.4884   17.7084 C   0  0  0  0  0  0  0  0  0  0  0  0
  -27.2198  -27.5151   22.9390 C   0  0  0  0  0  0  0  0  0  0  0  0
  -25.1796  -26.6144   21.8013 C   0  0  0  0  0  0  0  0  0  0  0  0
  -26.4912  -28.4500   20.7368 C   0  0  0  0  0  0  0  0  0  0  0  0
  -30.1413  -17.4304   22.7972 C   0  0  0  0  0  0  0  0  0  0  0  0
  -27.8824  -22.8675   17.0257 C   0  0  0  0  0  0  0  0  0  0  0  0
  -30.1015  -15.1796   24.7628 C   0  0  0  0  0  0  0  0  0  0  0  0
  -30.1085  -20.1277   24.1287 C   0  0  0  0  0  0  0  0  0  1  0  0
  -31.4898  -14.6246   24.3667 C   0  0  0  0  0  0  0  0  0  0  0  0
  -31.4882  -13.1414   24.0026 C   0  0  0  0  0  0  0  0  0  0  0  0
  -27.4476  -26.1101   20.7849 C   0  0  1  0  0  0  0  0  0  0  0  0
  -26.0258  -24.3860   17.7229 C   0  0  2  0  0  0  0  0  0  0  0  0
  -26.6068  -27.1555   21.5709 C   0  0  0  0  0  0  0  0  0  0  0  0
  -25.8696  -11.5659   20.5986 N   0  0  0  0  0  0  0  0  0  0  0  0
  -30.1100  -17.6142   24.2329 N   0  0  0  0  0  0  0  0  0  0  0  0
  -26.2233  -12.8528   20.4409 N   0  0  0  0  0  0  0  0  0  0  0  0
  -29.8796  -25.7691   21.0895 N   0  0  0  0  0  0  0  0  0  0  0  0
  -30.0303  -12.5681   20.6257 N   0  0  0  0  0  0  0  0  0  0  0  0
  -25.3584  -15.0576   20.3965 N   0  0  0  0  0  0  0  0  0  0  0  0
  -21.7020  -12.5192   21.1602 N   0  0  0  0  0  0  0  0  0  0  0  0
  -32.7549  -27.5000   22.5153 N   0  0  0  0  0  0  0  0  0  0  0  0
  -26.9051  -25.7707   19.4738 N   0  0  0  0  0  0  0  0  0  0  0  0
  -30.5944  -12.8422   22.9061 N   0  0  0  0  0  0  0  0  0  0  0  0
  -26.4154  -23.0901   17.0985 N   0  3  0  0  0  0  0  0  0  0  0  0
  -22.4477  -14.6664   20.8565 O   0  0  0  0  0  0  0  0  0  0  0  0
  -30.6307  -26.8992   23.2562 O   0  0  0  0  0  0  0  0  0  0  0  0
  -29.0656  -27.6031   19.9021 O   0  0  0  0  0  0  0  0  0  0  0  0
  -26.6880  -23.4962   19.8693 O   0  0  0  0  0  0  0  0  0  0  0  0
  -32.1747  -13.1647   21.2764 O   0  0  0  0  0  0  0  0  0  0  0  0
  -21.5846   -6.9691   21.6268 O   0  0  0  0  0  0  0  0  0  0  0  0
  -31.4230  -20.3615   23.6250 O   0  0  0  0  0  0  0  0  0  1  0  0
  -23.6306   -3.2203   25.1146 F   0  0  0  0  0  0  0  0  0  0  0  0
  -20.1786   -6.2165   23.8850 F   0  0  0  0  0  0  0  0  0  0  0  0
  -30.0320  -16.3943   27.9157 Cl  0  0  0  0  0  0  0  0  0  0  0  0
  1  2  1  0  0  0  0
  1  5  2  0  0  0  0
  2  6  2  0  0  0  0
  3  8  2  0  0  0  0
  3 16  1  0  0  0  0
  4  9  1  0  0  0  0
  4 16  2  0  0  0  0
  5 18  1  0  0  0  0
  6 20  1  0  0  0  0
  7 10  2  0  0  0  0
  7 19  1  0  0  0  0
  8 22  1  0  0  0  0
  9 22  2  0  0  0  0
 10 23  1  0  0  0  0
 11 12  2  0  0  0  0
 11 24  1  0  0  0  0
 12 25  1  0  0  0  0
 13 21  1  0  0  0  0
 13 23  2  0  0  0  0
 14 25  2  0  0  0  0
 14 26  1  0  0  0  0
 15 27  1  0  0  0  0
 15 29  2  0  0  0  0
 16 28  1  0  0  0  0
 17 28  1  0  0  0  0
 17 31  2  0  0  0  0
 17 32  1  0  0  0  0
 18 20  2  0  0  0  0
 18 37  1  0  0  0  0
 19 21  2  0  0  0  0
 19 38  1  0  0  0  0
 20 46  1  0  0  0  0
 21 39  1  0  0  0  0
 22 78  1  0  0  0  0
 23 79  1  0  0  0  0
 24 26  2  0  0  0  0
 24 78  1  0  0  0  0
 25 80  1  0  0  0  0
 26 81  1  0  0  0  0
 27 30  2  0  0  0  0
 27 82  1  0  0  0  0
 28 62  2  0  0  0  0
 29 56  1  0  0  0  0
 29 63  1  0  0  0  0
 30 55  1  0  0  0  0
 30 63  1  0  0  0  0
 31 64  1  0  0  0  0
 31 67  1  0  0  0  0
 32 68  1  0  0  0  0
 32 73  2  0  0  0  0
 33 47  1  0  0  0  0
 33 69  1  0  0  0  0
 33 74  2  0  0  0  0
 34 59  1  0  0  0  0
 34 65  1  0  0  0  0
 34 75  2  0  0  0  0
 35 60  1  0  0  0  0
 35 70  1  0  0  0  0
 35 76  2  0  0  0  0
 36 66  1  0  0  0  0
 36 71  1  0  0  0  0
 36 77  2  0  0  0  0
 37 40  1  0  0  0  0
 38 47  1  0  0  0  0
 39 65  1  0  0  0  0
 40 42  1  0  0  0  0
 41 43  1  0  0  0  0
 41 44  1  0  0  0  0
 42 46  1  0  0  0  0
 43 48  1  0  0  0  0
 44 66  1  0  0  0  0
 45 48  1  0  0  0  0
 45 66  1  0  0  0  0
 46 69  1  0  0  0  0
 47 65  1  0  0  0  0
 48 64  1  0  0  0  0
 49 60  1  0  0  0  0
 50 61  1  0  0  0  0
 51 61  1  0  0  0  0
 52 61  1  0  0  0  0
 53 63  1  0  0  0  0
 54 72  1  0  0  0  0
 55 57  1  0  0  0  0
 56 79  1  0  0  0  0
 57 58  1  0  0  0  0
 58 71  1  0  0  0  0
 59 61  1  0  0  0  0
 59 70  1  0  0  0  0
 60 72  1  0  0  0  0
 62 64  1  0  0  0  0
M  CHG  1  72   1
M  ISO  4  36 100  56 101  71 100  79 101
M  END
> <Batch ID>
0039

> <Smiles>
CNC(C)C(=O)NC(C(=O)N1Cc2cc([101O:1][101CH2:1]c3cc(Cl)c(CCC[100NH:0][100C:0](=O)N4CCCC(n5nc(-c6ccc(Oc7ccc(F)cc7F)cc6)c(C(N)=O)c5N)C4)n3C)ccc2CC1C(=O)NC1CCCc2ccccc21)C(C)(C)C

> <Shape>
0.197

> <Color>
0.197

> <Negative vol penalty>
0.000

$$$$

  -OEChem-04052317043D

 85 93  0     1  0  0  0  0  0999 V2000
  -30.3174  -12.5845   19.7849 C   0  0  0  0  0  0  0  0  0  0  0  0
  -30.0335  -13.6881   20.5830 C   0  0  0  0  0  0  0  0  0  0  0  0
  -26.5112  -28.3571   18.9405 C   0  0  0  0  0  0  0  0  0  0  0  0
  -26.1400  -27.3138   21.0878 C   0  0  0  0  0  0  0  0  0  0  0  0
  -29.4230  -12.1986   18.7873 C   0  0  0  0  0  0  0  0  0  0  0  0
  -28.8555  -14.4071   20.3832 C   0  0  0  0  0  0  0  0  0  0  0  0
  -26.4948  -15.5130   24.7247 C   0  0  0  0  0  0  0  0  0  0  0  0
  -25.4887  -29.2679   19.2063 C   0  0  0  0  0  0  0  0  0  0  0  0
  -25.1176  -28.2246   21.3537 C   0  0  0  0  0  0  0  0  0  0  0  0
  -27.0050  -16.5714   25.4752 C   0  0  0  0  0  0  0  0  0  0  0  0
  -21.8748  -28.6499   20.4967 C   0  0  0  0  0  0  0  0  0  0  0  0
  -20.6862  -28.1523   21.0308 C   0  0  0  0  0  0  0  0  0  0  0  0
  -25.2816  -18.0148   24.6002 C   0  0  0  0  0  0  0  0  0  0  0  0
  -30.5499  -21.1529   23.8059 C   0  0  0  0  0  0  0  0  0  0  0  0
  -28.6916  -19.7244   23.2202 C   0  0  0  0  0  0  0  0  0  0  0  0
  -20.9779  -29.5486   22.9807 C   0  0  0  0  0  0  0  0  0  0  0  0
  -26.8368  -27.3800   19.8812 C   0  0  0  0  0  0  0  0  0  0  0  0
  -29.2592  -26.5809   19.9127 C   0  0  0  0  0  0  0  0  0  0  0  0
  -28.2289  -12.9074   18.5817 C   0  0  0  0  0  0  0  0  0  0  0  0
  -25.3788  -15.7007   23.8965 C   0  0  0  0  0  0  0  0  0  0  0  0
  -27.9450  -14.0310   19.3811 C   0  0  0  0  0  0  0  0  0  0  0  0
  -24.7576  -16.9566   23.8421 C   0  0  0  0  0  0  0  0  0  0  0  0
  -29.2736  -20.6592   24.0763 C   0  0  0  0  0  0  0  0  0  0  0  0
  -31.2441  -20.7117   22.6793 C   0  0  0  0  0  0  0  0  0  0  0  0
  -29.3858  -19.2832   22.0936 C   0  0  0  0  0  0  0  0  0  0  0  0
  -30.6620  -19.7769   21.8232 C   0  0  0  0  0  0  0  0  0  0  0  0
  -24.7920  -29.2017   20.4129 C   0  0  0  0  0  0  0  0  0  0  0  0
  -26.4001  -17.8233   25.4108 C   0  0  0  0  0  0  0  0  0  0  0  0
  -22.6150  -29.5969   21.2047 C   0  0  0  0  0  0  0  0  0  0  0  0
  -20.2377  -28.6017   22.2727 C   0  0  0  0  0  0  0  0  0  0  0  0
  -22.1665  -30.0462   22.4466 C   0  0  0  0  0  0  0  0  0  0  0  0
  -27.8924  -26.4384   19.6070 C   0  0  0  0  0  0  0  0  0  0  0  0
  -29.8368  -25.4234   19.4510 C   0  0  0  0  0  0  0  0  0  0  0  0
  -29.9454  -27.6628   20.5565 C   0  0  0  0  0  0  0  0  0  0  0  0
  -24.8412  -15.4752   20.7718 C   0  0  0  0  0  0  0  0  0  0  0  0
  -21.7659  -16.0044   21.6577 C   0  0  0  0  0  0  0  0  0  0  0  0
  -19.5923  -17.2796   23.9590 C   0  0  0  0  0  0  0  0  0  0  0  0
  -27.7115  -19.9095   18.4862 C   0  0  0  0  0  0  0  0  0  0  0  0
  -27.3155  -12.4808   17.4599 C   0  0  0  0  0  0  0  0  0  0  0  0
  -24.8244  -14.5421   23.1138 C   0  0  0  0  0  0  0  0  0  0  0  0
  -23.5449  -17.2049   22.9841 C   0  0  0  0  0  0  0  0  0  0  0  0
  -25.9113  -13.0711   17.5598 C   0  0  0  0  0  0  0  0  0  0  0  0
  -29.2924  -22.0403   16.1120 C   0  0  0  0  0  0  0  0  0  0  0  0
  -25.9803  -14.5642   17.8641 C   0  0  0  0  0  0  0  0  0  0  0  0
  -29.2362  -23.4220   16.7661 C   0  0  0  0  0  0  0  0  0  0  0  0
  -28.0378  -21.2228   16.4113 C   0  0  0  0  0  0  0  0  0  0  0  0
  -27.6524  -22.4771   18.4974 C   0  0  0  0  0  0  0  0  0  0  0  0
  -26.6658  -14.8215   19.2115 C   0  0  1  0  0  0  0  0  0  0  0  0
  -23.9953  -14.9768   21.9092 C   0  0  1  0  0  0  0  0  0  0  0  0
  -28.9204  -23.3179   18.2703 C   0  0  2  0  0  0  0  0  0  0  0  0
  -32.6099  -21.2551   22.4129 C   0  0  0  0  0  0  0  0  0  0  0  0
  -32.0003  -17.9129   20.8126 C   0  0  0  0  0  0  0  0  0  0  0  0
  -17.1404  -17.5972   24.3884 C   0  0  0  0  0  0  0  0  0  0  0  0
  -21.7143  -18.3014   19.6498 C   0  0  0  0  0  0  0  0  0  0  0  0
  -19.6469  -19.1495   20.7787 C   0  0  0  0  0  0  0  0  0  0  0  0
  -19.6402  -16.9048   19.6907 C   0  0  0  0  0  0  0  0  0  0  0  0
  -19.6918  -15.6361   26.4183 C   0  0  0  0  0  0  0  0  0  0  0  0
  -28.5229  -21.1366   25.2938 C   0  0  0  0  0  0  0  0  0  0  0  0
  -28.7404  -18.2814   21.1927 C   0  0  0  0  0  0  0  0  0  0  0  0
  -31.4068  -19.3037   20.6156 C   0  0  0  0  0  0  0  0  0  0  0  0
  -28.7773  -20.2924   26.5445 C   0  0  0  0  0  0  0  0  0  0  0  0
  -27.3819  -18.7348   20.6474 C   0  0  0  0  0  0  0  0  0  0  0  0
  -28.2984  -18.8518   26.4081 C   0  0  0  0  0  0  0  0  0  1  0  0
  -20.9059  -17.2293   21.8551 C   0  0  1  0  0  0  0  0  0  0  0  0
  -18.3464  -16.6952   24.5998 C   0  0  2  0  0  0  0  0  0  0  0  0
  -20.5008  -17.8924   20.5084 C   0  0  0  0  0  0  0  0  0  0  0  0
  -27.6181  -25.2817   18.9981 N   0  0  0  0  0  0  0  0  0  0  0  0
  -28.8205  -24.6869   18.9174 N   0  0  0  0  0  0  0  0  0  0  0  0
  -23.0441  -16.0421   22.2326 N   0  0  0  0  0  0  0  0  0  0  0  0
  -27.7955  -21.1614   17.8547 N   0  0  0  0  0  0  0  0  0  0  0  0
  -31.1097  -24.9740   19.4535 N   0  0  0  0  0  0  0  0  0  0  0  0
  -29.2000  -28.7762   20.9678 N   0  0  0  0  0  0  0  0  0  0  0  0
  -25.7542  -14.5503   20.3023 N   0  0  0  0  0  0  0  0  0  0  0  0
  -19.7768  -16.8072   22.6768 N   0  0  0  0  0  0  0  0  0  0  0  0
  -27.4864  -19.9411   19.8570 N   0  0  0  0  0  0  0  0  0  0  0  0
  -18.5512  -16.5202   26.0655 N   0  3  0  0  0  0  0  0  0  0  0  0
  -31.1853  -27.6499   20.7461 O   0  0  0  0  0  0  0  0  0  0  0  0
  -24.6768  -16.6141   20.3503 O   0  0  0  0  0  0  0  0  0  0  0  0
  -21.3174  -15.0465   21.0229 O   0  0  0  0  0  0  0  0  0  0  0  0
  -20.3264  -18.0784   24.5367 O   0  0  0  0  0  0  0  0  0  0  0  0
  -27.8337  -18.8427   17.8746 O   0  0  0  0  0  0  0  0  0  0  0  0
  -23.7944  -30.0905   20.6727 O   0  0  0  0  0  0  0  0  0  0  0  0
  -26.8965  -18.8582   26.1418 O   0  0  0  0  0  0  0  0  0  1  0  0
  -19.0955  -28.1249   22.7848 F   0  0  0  0  0  0  0  0  0  0  0  0
  -22.8726  -30.9567   23.1309 F   0  0  0  0  0  0  0  0  0  0  0  0
  1  2  1  0  0  0  0
  1  5  2  0  0  0  0
  2  6  2  0  0  0  0
  3  8  2  0  0  0  0
  3 17  1  0  0  0  0
  4  9  1  0  0  0  0
  4 17  2  0  0  0  0
  5 19  1  0  0  0  0
  6 21  1  0  0  0  0
  7 10  2  0  0  0  0
  7 20  1  0  0  0  0
  8 27  1  0  0  0  0
  9 27  2  0  0  0  0
 10 28  1  0  0  0  0
 11 12  2  0  0  0  0
 11 29  1  0  0  0  0
 12 30  1  0  0  0  0
 13 22  1  0  0  0  0
 13 28  2  0  0  0  0
 14 23  1  0  0  0  0
 14 24  2  0  0  0  0
 15 23  2  0  0  0  0
 15 25  1  0  0  0  0
 16 30  2  0  0  0  0
 16 31  1  0  0  0  0
 17 32  1  0  0  0  0
 18 32  1  0  0  0  0
 18 33  2  0  0  0  0
 18 34  1  0  0  0  0
 19 21  2  0  0  0  0
 19 39  1  0  0  0  0
 20 22  2  0  0  0  0
 20 40  1  0  0  0  0
 21 48  1  0  0  0  0
 22 41  1  0  0  0  0
 23 58  1  0  0  0  0
 24 26  1  0  0  0  0
 24 51  1  0  0  0  0
 25 26  2  0  0  0  0
 25 59  1  0  0  0  0
 26 60  1  0  0  0  0
 27 82  1  0  0  0  0
 28 83  1  0  0  0  0
 29 31  2  0  0  0  0
 29 82  1  0  0  0  0
 30 84  1  0  0  0  0
 31 85  1  0  0  0  0
 32 67  2  0  0  0  0
 33 68  1  0  0  0  0
 33 71  1  0  0  0  0
 34 72  1  0  0  0  0
 34 77  2  0  0  0  0
 35 49  1  0  0  0  0
 35 73  1  0  0  0  0
 35 78  2  0  0  0  0
 36 64  1  0  0  0  0
 36 69  1  0  0  0  0
 36 79  2  0  0  0  0
 37 65  1  0  0  0  0
 37 74  1  0  0  0  0
 37 80  2  0  0  0  0
 38 70  1  0  0  0  0
 38 75  1  0  0  0  0
 38 81  2  0  0  0  0
 39 42  1  0  0  0  0
 40 49  1  0  0  0  0
 41 69  1  0  0  0  0
 42 44  1  0  0  0  0
 43 45  1  0  0  0  0
 43 46  1  0  0  0  0
 44 48  1  0  0  0  0
 45 50  1  0  0  0  0
 46 70  1  0  0  0  0
 47 50  1  0  0  0  0
 47 70  1  0  0  0  0
 48 73  1  0  0  0  0
 49 69  1  0  0  0  0
 50 68  1  0  0  0  0
 52 60  1  0  0  0  0
 53 65  1  0  0  0  0
 54 66  1  0  0  0  0
 55 66  1  0  0  0  0
 56 66  1  0  0  0  0
 57 76  1  0  0  0  0
 58 61  1  0  0  0  0
 59 62  1  0  0  0  0
 61 63  1  0  0  0  0
 62 75  1  0  0  0  0
 63 83  1  0  0  0  0
 64 66  1  0  0  0  0
 64 74  1  0  0  0  0
 65 76  1  0  0  0  0
 67 68  1  0  0  0  0
M  CHG  1  76   1
M  ISO  4  38 100  63 101  75 100  83 101
M  END
> <Batch ID>
0039

> <Smiles>
CCc1c(C)cc(CC[101CH2:1][101O:1]c2ccc3c(c2)CN(C(=O)C(NC(=O)C(C)NC)C(C)(C)C)C(C(=O)NC2CCCc4ccccc42)C3)cc1CC[100NH:0][100C:0](=O)N1CCCC(n2nc(-c3ccc(Oc4ccc(F)cc4F)cc3)c(C(N)=O)c2N)C1

> <Shape>
0.217

> <Color>
0.066

> <Negative vol penalty>
0.000

$$$$

  -OEChem-04052317043D

 84 92  0     1  0  0  0  0  0999 V2000
  -30.4500  -33.4255   25.5828 C   0  0  0  0  0  0  0  0  0  0  0  0
  -30.4053  -32.3166   24.7439 C   0  0  0  0  0  0  0  0  0  0  0  0
  -22.9508  -10.0184   20.0191 C   0  0  0  0  0  0  0  0  0  0  0  0
  -23.6916  -10.0695   22.3182 C   0  0  0  0  0  0  0  0  0  0  0  0
  -29.3383  -33.7591   26.3553 C   0  0  0  0  0  0  0  0  0  0  0  0
  -29.2490  -31.5400   24.6777 C   0  0  0  0  0  0  0  0  0  0  0  0
  -27.0198  -28.6687   19.7491 C   0  0  0  0  0  0  0  0  0  0  0  0
  -22.1665   -8.8989   20.2967 C   0  0  0  0  0  0  0  0  0  0  0  0
  -22.9072   -8.9500   22.5958 C   0  0  0  0  0  0  0  0  0  0  0  0
  -27.1043  -27.3462   19.3158 C   0  0  0  0  0  0  0  0  0  0  0  0
  -23.0907   -5.6048   22.1412 C   0  0  0  0  0  0  0  0  0  0  0  0
  -23.6654   -4.5817   22.8953 C   0  0  0  0  0  0  0  0  0  0  0  0
  -24.9640  -26.8841   20.3280 C   0  0  0  0  0  0  0  0  0  0  0  0
  -27.0029  -20.6645   17.3155 C   0  0  0  0  0  0  0  0  0  0  0  0
  -26.9067  -23.0077   16.7351 C   0  0  0  0  0  0  0  0  0  0  0  0
  -27.4109  -22.3447   19.0030 C   0  0  0  0  0  0  0  0  0  0  0  0
  -21.9568   -4.8637   24.5800 C   0  0  0  0  0  0  0  0  0  0  0  0
  -23.7134  -10.6037   21.0299 C   0  0  0  0  0  0  0  0  0  0  0  0
  -24.1411  -13.1113   20.8373 C   0  0  0  0  0  0  0  0  0  0  0  0
  -28.1645  -32.9918   26.2913 C   0  0  0  0  0  0  0  0  0  0  0  0
  -25.9099  -29.1067   20.4857 C   0  0  0  0  0  0  0  0  0  0  0  0
  -28.1210  -31.8629   25.4510 C   0  0  0  0  0  0  0  0  0  0  0  0
  -24.8666  -28.2132   20.7673 C   0  0  0  0  0  0  0  0  0  0  0  0
  -26.8028  -21.6666   16.3662 C   0  0  0  0  0  0  0  0  0  0  0  0
  -27.3069  -21.0036   18.6340 C   0  0  0  0  0  0  0  0  0  0  0  0
  -27.2107  -23.3468   18.0536 C   0  0  0  0  0  0  0  0  0  0  0  0
  -22.1447   -8.3647   21.5850 C   0  0  0  0  0  0  0  0  0  0  0  0
  -26.0777  -26.4530   19.6077 C   0  0  0  0  0  0  0  0  0  0  0  0
  -21.9491   -6.2574   22.6065 C   0  0  0  0  0  0  0  0  0  0  0  0
  -23.0984   -4.2112   24.1147 C   0  0  0  0  0  0  0  0  0  0  0  0
  -21.3821   -5.8868   23.8259 C   0  0  0  0  0  0  0  0  0  0  0  0
  -24.5243  -11.7599   20.7436 C   0  0  0  0  0  0  0  0  0  0  0  0
  -25.2608  -13.8125   20.4618 C   0  0  0  0  0  0  0  0  0  0  0  0
  -22.8853  -13.6817   21.2287 C   0  0  0  0  0  0  0  0  0  0  0  0
  -25.4791  -30.2832   23.4070 C   0  0  0  0  0  0  0  0  0  0  0  0
  -22.4315  -30.6876   22.3723 C   0  0  0  0  0  0  0  0  0  0  0  0
  -19.9511  -29.7442   20.2264 C   0  0  0  0  0  0  0  0  0  0  0  0
  -30.7740  -14.6530   20.6703 C   0  0  0  0  0  0  0  0  0  0  0  0
  -27.0046  -33.3640   27.1806 C   0  0  0  0  0  0  0  0  0  0  0  0
  -25.8214  -30.5432   20.9228 C   0  0  0  0  0  0  0  0  0  0  0  0
  -23.6442  -28.6388   21.5374 C   0  0  0  0  0  0  0  0  0  0  0  0
  -25.6884  -32.7076   26.7716 C   0  0  0  0  0  0  0  0  0  0  0  0
  -29.5765  -12.2366   18.3458 C   0  0  0  0  0  0  0  0  0  0  0  0
  -25.8964  -31.2223   26.4935 C   0  0  0  0  0  0  0  0  0  0  0  0
  -28.1265  -12.0043   18.7740 C   0  0  0  0  0  0  0  0  0  0  0  0
  -30.4906  -12.4629   19.5479 C   0  0  0  0  0  0  0  0  0  0  0  0
  -28.6032  -13.2988   20.8943 C   0  0  0  0  0  0  0  0  0  0  0  0
  -26.8763  -31.0102   25.3332 C   0  0  1  0  0  0  0  0  0  0  0  0
  -24.8843  -30.7503   22.1087 C   0  0  1  0  0  0  0  0  0  0  0  0
  -27.6334  -13.1213   19.7134 C   0  0  2  0  0  0  0  0  0  0  0  0
  -26.4781  -21.3034   14.9565 C   0  0  0  0  0  0  0  0  0  0  0  0
  -17.5586  -30.2297   19.6455 C   0  0  0  0  0  0  0  0  0  0  0  0
  -21.5210  -29.1418   24.8404 C   0  0  0  0  0  0  0  0  0  0  0  0
  -19.2920  -28.8375   23.7417 C   0  0  0  0  0  0  0  0  0  0  0  0
  -20.1137  -31.1311   24.2774 C   0  0  0  0  0  0  0  0  0  0  0  0
  -20.6657  -30.5722   17.4764 C   0  0  0  0  0  0  0  0  0  0  0  0
  -27.5214  -19.9325   19.6496 C   0  0  0  0  0  0  0  0  0  0  0  0
  -27.3224  -24.7896   18.4501 C   0  0  0  0  0  0  0  0  0  1  0  0
  -28.9915  -19.4941   19.7307 C   0  0  0  0  0  0  0  0  0  0  0  0
  -29.1931  -18.3680   20.7468 C   0  0  0  0  0  0  0  0  0  0  0  0
  -30.6680  -17.9676   20.8465 C   0  0  0  0  0  0  0  0  0  0  0  0
  -30.9020  -16.8367   21.8426 C   0  0  0  0  0  0  0  0  0  0  0  0
  -21.1792  -29.8446   22.3796 C   0  0  1  0  0  0  0  0  0  0  0  0
  -19.0143  -30.5561   19.3503 C   0  0  2  0  0  0  0  0  0  0  0  0
  -20.5503  -29.7299   23.7969 C   0  0  0  0  0  0  0  0  0  0  0  0
  -25.7886  -11.6092   20.3402 N   0  0  0  0  0  0  0  0  0  0  0  0
  -26.2096  -12.8750   20.1769 N   0  0  0  0  0  0  0  0  0  0  0  0
  -23.6072  -30.0520   21.9485 N   0  0  0  0  0  0  0  0  0  0  0  0
  -29.9677  -13.5357   20.3975 N   0  0  0  0  0  0  0  0  0  0  0  0
  -25.5165  -15.1333   20.3508 N   0  0  0  0  0  0  0  0  0  0  0  0
  -21.8405  -12.8175   21.5837 N   0  0  0  0  0  0  0  0  0  0  0  0
  -26.2183  -31.2469   24.0662 N   0  0  0  0  0  0  0  0  0  0  0  0
  -20.2915  -30.4235   21.3770 N   0  0  0  0  0  0  0  0  0  0  0  0
  -30.1995  -15.6264   21.4785 N   0  0  0  0  0  0  0  0  0  0  0  0
  -19.2767  -30.2738   17.9107 N   0  3  0  0  0  0  0  0  0  0  0  0
  -22.6901  -14.9207   21.2469 O   0  0  0  0  0  0  0  0  0  0  0  0
  -25.2809  -29.1341   23.7837 O   0  0  0  0  0  0  0  0  0  0  0  0
  -22.3675  -31.8687   22.7226 O   0  0  0  0  0  0  0  0  0  0  0  0
  -20.3390  -28.6183   19.9224 O   0  0  0  0  0  0  0  0  0  0  0  0
  -31.9189  -14.7766   20.2222 O   0  0  0  0  0  0  0  0  0  0  0  0
  -21.3793   -7.2724   21.8563 O   0  0  0  0  0  0  0  0  0  0  0  0
  -26.1580  -25.1614   19.1865 O   0  0  0  0  0  0  0  0  0  1  0  0
  -23.6495   -3.2277   24.8380 F   0  0  0  0  0  0  0  0  0  0  0  0
  -20.2847   -6.5093   24.2775 F   0  0  0  0  0  0  0  0  0  0  0  0
  1  2  1  0  0  0  0
  1  5  2  0  0  0  0
  2  6  2  0  0  0  0
  3  8  2  0  0  0  0
  3 18  1  0  0  0  0
  4  9  1  0  0  0  0
  4 18  2  0  0  0  0
  5 20  1  0  0  0  0
  6 22  1  0  0  0  0
  7 10  2  0  0  0  0
  7 21  1  0  0  0  0
  8 27  1  0  0  0  0
  9 27  2  0  0  0  0
 10 28  1  0  0  0  0
 11 12  2  0  0  0  0
 11 29  1  0  0  0  0
 12 30  1  0  0  0  0
 13 23  1  0  0  0  0
 13 28  2  0  0  0  0
 14 24  1  0  0  0  0
 14 25  2  0  0  0  0
 15 24  2  0  0  0  0
 15 26  1  0  0  0  0
 16 25  1  0  0  0  0
 16 26  2  0  0  0  0
 17 30  2  0  0  0  0
 17 31  1  0  0  0  0
 18 32  1  0  0  0  0
 19 32  1  0  0  0  0
 19 33  2  0  0  0  0
 19 34  1  0  0  0  0
 20 22  2  0  0  0  0
 20 39  1  0  0  0  0
 21 23  2  0  0  0  0
 21 40  1  0  0  0  0
 22 48  1  0  0  0  0
 23 41  1  0  0  0  0
 24 51  1  0  0  0  0
 25 57  1  0  0  0  0
 26 58  1  0  0  0  0
 27 81  1  0  0  0  0
 28 82  1  0  0  0  0
 29 31  2  0  0  0  0
 29 81  1  0  0  0  0
 30 83  1  0  0  0  0
 31 84  1  0  0  0  0
 32 66  2  0  0  0  0
 33 67  1  0  0  0  0
 33 70  1  0  0  0  0
 34 71  1  0  0  0  0
 34 76  2  0  0  0  0
 35 49  1  0  0  0  0
 35 72  1  0  0  0  0
 35 77  2  0  0  0  0
 36 63  1  0  0  0  0
 36 68  1  0  0  0  0
 36 78  2  0  0  0  0
 37 64  1  0  0  0  0
 37 73  1  0  0  0  0
 37 79  2  0  0  0  0
 38 69  1  0  0  0  0
 38 74  1  0  0  0  0
 38 80  2  0  0  0  0
 39 42  1  0  0  0  0
 40 49  1  0  0  0  0
 41 68  1  0  0  0  0
 42 44  1  0  0  0  0
 43 45  1  0  0  0  0
 43 46  1  0  0  0  0
 44 48  1  0  0  0  0
 45 50  1  0  0  0  0
 46 69  1  0  0  0  0
 47 50  1  0  0  0  0
 47 69  1  0  0  0  0
 48 72  1  0  0  0  0
 49 68  1  0  0  0  0
 50 67  1  0  0  0  0
 52 64  1  0  0  0  0
 53 65  1  0  0  0  0
 54 65  1  0  0  0  0
 55 65  1  0  0  0  0
 56 75  1  0  0  0  0
 57 59  1  0  0  0  0
 58 82  1  0  0  0  0
 59 60  1  0  0  0  0
 60 61  1  0  0  0  0
 61 62  1  0  0  0  0
 62 74  1  0  0  0  0
 63 65  1  0  0  0  0
 63 73  1  0  0  0  0
 64 75  1  0  0  0  0
 66 67  1  0  0  0  0
M  CHG  1  75   1
M  ISO  4  38 100  58 101  74 100  82 101
M  END
> <Batch ID>
0039

> <Smiles>
CNC(C)C(=O)NC(C(=O)N1Cc2cc([101O:1][101CH2:1]c3cc(C)cc(CCCCC[100NH:0][100C:0](=O)N4CCCC(n5nc(-c6ccc(Oc7ccc(F)cc7F)cc6)c(C(N)=O)c5N)C4)c3)ccc2CC1C(=O)NC1CCCc2ccccc21)C(C)(C)C

> <Shape>
0.379

> <Color>
0.243

> <Negative vol penalty>
0.000

$$$$

  -OEChem-04052317043D

 85 93  0     1  0  0  0  0  0999 V2000
  -23.6198   -7.9292   22.1497 C   0  0  0  0  0  0  0  0  0  0  0  0
  -24.2366   -9.1070   22.5593 C   0  0  0  0  0  0  0  0  0  0  0  0
  -21.6197  -25.9498   23.4855 C   0  0  0  0  0  0  0  0  0  0  0  0
  -21.3605  -25.3098   21.1702 C   0  0  0  0  0  0  0  0  0  0  0  0
  -22.6350   -7.9658   21.1635 C   0  0  0  0  0  0  0  0  0  0  0  0
  -23.8696  -10.3221   21.9820 C   0  0  0  0  0  0  0  0  0  0  0  0
  -23.2577  -13.9966   25.4126 C   0  0  0  0  0  0  0  0  0  0  0  0
  -20.3196  -26.4550   23.4914 C   0  0  0  0  0  0  0  0  0  0  0  0
  -20.0603  -25.8150   21.1762 C   0  0  0  0  0  0  0  0  0  0  0  0
  -24.4114  -14.5937   25.9186 C   0  0  0  0  0  0  0  0  0  0  0  0
  -18.7260  -29.2417   22.4335 C   0  0  0  0  0  0  0  0  0  0  0  0
  -18.5188  -30.4888   23.0229 C   0  0  0  0  0  0  0  0  0  0  0  0
  -24.1010  -16.4540   24.4146 C   0  0  0  0  0  0  0  0  0  0  0  0
  -30.1914  -18.5225   22.4669 C   0  0  0  0  0  0  0  0  0  0  0  0
  -29.3909  -19.3935   24.9934 C   0  0  0  0  0  0  0  0  0  0  0  0
  -16.9876  -29.4884   24.6014 C   0  0  0  0  0  0  0  0  0  0  0  0
  -22.1402  -25.3772   22.3249 C   0  0  0  0  0  0  0  0  0  0  0  0
  -23.8879  -23.5449   22.6347 C   0  0  0  0  0  0  0  0  0  0  0  0
  -22.2489   -9.1832   20.5807 C   0  0  0  0  0  0  0  0  0  0  0  0
  -22.5218  -14.6196   24.3944 C   0  0  0  0  0  0  0  0  0  0  0  0
  -22.8796  -10.3749   20.9861 C   0  0  0  0  0  0  0  0  0  0  0  0
  -22.9369  -15.8639   23.8991 C   0  0  0  0  0  0  0  0  0  0  0  0
  -29.4131  -17.6946   23.2757 C   0  0  0  0  0  0  0  0  0  0  0  0
  -30.5695  -19.7860   22.9213 C   0  0  0  0  0  0  0  0  0  0  0  0
  -29.0128  -18.1300   24.5390 C   0  0  0  0  0  0  0  0  0  0  0  0
  -19.5399  -26.3876   22.3368 C   0  0  0  0  0  0  0  0  0  0  0  0
  -24.8349  -15.8213   25.4176 C   0  0  0  0  0  0  0  0  0  0  0  0
  -18.0638  -28.1179   22.9280 C   0  0  0  0  0  0  0  0  0  0  0  0
  -17.6496  -30.6122   24.1069 C   0  0  0  0  0  0  0  0  0  0  0  0
  -17.1947  -28.2413   24.0120 C   0  0  0  0  0  0  0  0  0  0  0  0
  -30.1692  -20.2214   24.1845 C   0  0  0  0  0  0  0  0  0  0  0  0
  -23.4833  -24.8556   22.3179 C   0  0  0  0  0  0  0  0  0  0  0  0
  -25.2522  -23.5592   22.4771 C   0  0  0  0  0  0  0  0  0  0  0  0
  -23.1008  -22.4155   23.0355 C   0  0  0  0  0  0  0  0  0  0  0  0
  -21.7454  -13.8664   21.4055 C   0  0  0  0  0  0  0  0  0  0  0  0
  -19.9626  -16.5694   21.6003 C   0  0  0  0  0  0  0  0  0  0  0  0
  -19.4497  -19.6012   23.0808 C   0  0  0  0  0  0  0  0  0  0  0  0
  -29.8021  -24.9944   19.5815 C   0  0  0  0  0  0  0  0  0  0  0  0
  -21.2130   -9.1670   19.4846 C   0  0  0  0  0  0  0  0  0  0  0  0
  -21.2647  -13.9750   23.8779 C   0  0  0  0  0  0  0  0  0  0  0  0
  -22.1710  -16.5837   22.8203 C   0  0  0  0  0  0  0  0  0  0  0  0
  -20.6167  -10.5410   19.1898 C   0  0  0  0  0  0  0  0  0  0  0  0
  -28.4487  -27.4219   21.8068 C   0  0  0  0  0  0  0  0  0  0  0  0
  -21.7194  -11.5895   19.0823 C   0  0  0  0  0  0  0  0  0  0  0  0
  -27.0679  -26.8657   22.1590 C   0  0  0  0  0  0  0  0  0  0  0  0
  -28.8196  -27.1332   20.3538 C   0  0  0  0  0  0  0  0  0  0  0  0
  -27.3456  -25.1585   20.3132 C   0  0  0  0  0  0  0  0  0  0  0  0
  -22.4913  -11.7156   20.4013 C   0  0  1  0  0  0  0  0  0  0  0  0
  -20.8776  -14.4540   22.4822 C   0  0  1  0  0  0  0  0  0  0  0  0
  -26.9511  -25.3761   21.7840 C   0  0  2  0  0  0  0  0  0  0  0  0
  -29.0216  -16.3449   22.7700 C   0  0  0  0  0  0  0  0  0  0  0  0
  -17.9355  -21.6009   23.0020 C   0  0  0  0  0  0  0  0  0  0  0  0
  -21.3600  -17.5245   19.0616 C   0  0  0  0  0  0  0  0  0  0  0  0
  -20.5411  -19.8365   19.5641 C   0  0  0  0  0  0  0  0  0  0  0  0
  -18.9061  -18.0000   19.1436 C   0  0  0  0  0  0  0  0  0  0  0  0
  -18.5713  -19.1914   25.8771 C   0  0  0  0  0  0  0  0  0  0  0  0
  -31.4037  -20.6425   22.0243 C   0  0  0  0  0  0  0  0  0  0  0  0
  -28.1728  -17.2504   25.4328 C   0  0  0  0  0  0  0  0  0  0  0  0
  -30.5734  -21.2900   20.9067 C   0  0  0  0  0  0  0  0  0  0  0  0
  -31.4455  -22.1352   19.9736 C   0  0  0  0  0  0  0  0  0  0  0  0
  -30.6451  -22.7791   18.8461 C   0  0  0  0  0  0  0  0  0  0  0  0
  -26.7059  -17.2335   25.0168 C   0  0  0  0  0  0  0  0  0  1  0  0
  -20.2033  -18.0318   21.3135 C   0  0  1  0  0  0  0  0  0  0  0  0
  -18.1973  -20.2477   23.6449 C   0  0  2  0  0  0  0  0  0  0  0  0
  -20.2684  -18.3340   19.7897 C   0  0  0  0  0  0  0  0  0  0  0  0
  -24.5077  -25.6451   21.9845 N   0  0  0  0  0  0  0  0  0  0  0  0
  -25.5696  -24.8282   22.0909 N   0  0  0  0  0  0  0  0  0  0  0  0
  -20.9519  -15.9099   22.3434 N   0  0  0  0  0  0  0  0  0  0  0  0
  -28.6894  -25.7033   20.0637 N   0  0  0  0  0  0  0  0  0  0  0  0
  -26.1995  -22.6100   22.6327 N   0  0  0  0  0  0  0  0  0  0  0  0
  -21.7129  -22.5744   23.1478 N   0  0  0  0  0  0  0  0  0  0  0  0
  -21.7294  -12.4854   21.3612 N   0  0  0  0  0  0  0  0  0  0  0  0
  -19.1606  -18.7642   22.0239 N   0  0  0  0  0  0  0  0  0  0  0  0
  -29.5946  -23.6422   19.3382 N   0  0  0  0  0  0  0  0  0  0  0  0
  -18.3337  -20.4447   25.1158 N   0  3  0  0  0  0  0  0  0  0  0  0
  -23.6150  -21.3029   23.3025 O   0  0  0  0  0  0  0  0  0  0  0  0
  -22.3812  -14.6109   20.6684 O   0  0  0  0  0  0  0  0  0  0  0  0
  -18.9313  -16.0338   21.1867 O   0  0  0  0  0  0  0  0  0  0  0  0
  -20.5725  -19.8200   23.5302 O   0  0  0  0  0  0  0  0  0  0  0  0
  -30.9006  -25.5260   19.3875 O   0  0  0  0  0  0  0  0  0  0  0  0
  -18.2712  -26.8804   22.3423 O   0  0  0  0  0  0  0  0  0  0  0  0
  -25.9610  -16.4060   25.9094 O   0  0  0  0  0  0  0  0  0  1  0  0
  -17.4520  -31.8096   24.6738 F   0  0  0  0  0  0  0  0  0  0  0  0
  -16.5567  -27.1651   24.4922 F   0  0  0  0  0  0  0  0  0  0  0  0
  -30.6180  -21.7779   24.7805 Cl  0  0  0  0  0  0  0  0  0  0  0  0
  1  2  1  0  0  0  0
  1  5  2  0  0  0  0
  2  6  2  0  0  0  0
  3  8  2  0  0  0  0
  3 17  1  0  0  0  0
  4  9  1  0  0  0  0
  4 17  2  0  0  0  0
  5 19  1  0  0  0  0
  6 21  1  0  0  0  0
  7 10  2  0  0  0  0
  7 20  1  0  0  0  0
  8 26  1  0  0  0  0
  9 26  2  0  0  0  0
 10 27  1  0  0  0  0
 11 12  2  0  0  0  0
 11 28  1  0  0  0  0
 12 29  1  0  0  0  0
 13 22  1  0  0  0  0
 13 27  2  0  0  0  0
 14 23  1  0  0  0  0
 14 24  2  0  0  0  0
 15 25  1  0  0  0  0
 15 31  2  0  0  0  0
 16 29  2  0  0  0  0
 16 30  1  0  0  0  0
 17 32  1  0  0  0  0
 18 32  1  0  0  0  0
 18 33  2  0  0  0  0
 18 34  1  0  0  0  0
 19 21  2  0  0  0  0
 19 39  1  0  0  0  0
 20 22  2  0  0  0  0
 20 40  1  0  0  0  0
 21 48  1  0  0  0  0
 22 41  1  0  0  0  0
 23 25  2  0  0  0  0
 23 51  1  0  0  0  0
 24 31  1  0  0  0  0
 24 57  1  0  0  0  0
 25 58  1  0  0  0  0
 26 81  1  0  0  0  0
 27 82  1  0  0  0  0
 28 30  2  0  0  0  0
 28 81  1  0  0  0  0
 29 83  1  0  0  0  0
 30 84  1  0  0  0  0
 31 85  1  0  0  0  0
 32 66  2  0  0  0  0
 33 67  1  0  0  0  0
 33 70  1  0  0  0  0
 34 71  1  0  0  0  0
 34 76  2  0  0  0  0
 35 49  1  0  0  0  0
 35 72  1  0  0  0  0
 35 77  2  0  0  0  0
 36 63  1  0  0  0  0
 36 68  1  0  0  0  0
 36 78  2  0  0  0  0
 37 64  1  0  0  0  0
 37 73  1  0  0  0  0
 37 79  2  0  0  0  0
 38 69  1  0  0  0  0
 38 74  1  0  0  0  0
 38 80  2  0  0  0  0
 39 42  1  0  0  0  0
 40 49  1  0  0  0  0
 41 68  1  0  0  0  0
 42 44  1  0  0  0  0
 43 45  1  0  0  0  0
 43 46  1  0  0  0  0
 44 48  1  0  0  0  0
 45 50  1  0  0  0  0
 46 69  1  0  0  0  0
 47 50  1  0  0  0  0
 47 69  1  0  0  0  0
 48 72  1  0  0  0  0
 49 68  1  0  0  0  0
 50 67  1  0  0  0  0
 52 64  1  0  0  0  0
 53 65  1  0  0  0  0
 54 65  1  0  0  0  0
 55 65  1  0  0  0  0
 56 75  1  0  0  0  0
 57 59  1  0  0  0  0
 58 62  1  0  0  0  0
 59 60  1  0  0  0  0
 60 61  1  0  0  0  0
 61 74  1  0  0  0  0
 62 82  1  0  0  0  0
 63 65  1  0  0  0  0
 63 73  1  0  0  0  0
 64 75  1  0  0  0  0
 66 67  1  0  0  0  0
M  CHG  1  75   1
M  ISO  4  38 100  62 101  74 100  82 101
M  END
> <Batch ID>
0039

> <Smiles>
CNC(C)C(=O)NC(C(=O)N1Cc2cc([101O:1][101CH2:1]Cc3cc(Cl)c(CCCC[100NH:0][100C:0](=O)N4CCCC(n5nc(-c6ccc(Oc7ccc(F)cc7F)cc6)c(C(N)=O)c5N)C4)cc3C)ccc2CC1C(=O)NC1CCCc2ccccc21)C(C)(C)C

> <Shape>
0.164

> <Color>
0.087

> <Negative vol penalty>
0.000

$$$$

  -OEChem-04052317043D

 85 93  0     1  0  0  0  0  0999 V2000
  -27.7900  -22.7502   18.9306 C   0  0  0  0  0  0  0  0  0  0  0  0
  -26.5893  -23.2032   19.4679 C   0  0  0  0  0  0  0  0  0  0  0  0
  -28.0169  -14.5165   21.8281 C   0  0  0  0  0  0  0  0  0  0  0  0
  -26.4704  -15.4694   20.2352 C   0  0  0  0  0  0  0  0  0  0  0  0
  -28.9985  -23.2744   19.3872 C   0  0  0  0  0  0  0  0  0  0  0  0
  -26.5967  -24.1799   20.4631 C   0  0  0  0  0  0  0  0  0  0  0  0
  -23.1417  -27.7949   19.6627 C   0  0  0  0  0  0  0  0  0  0  0  0
  -27.4240  -13.2658   21.6555 C   0  0  0  0  0  0  0  0  0  0  0  0
  -25.8776  -14.2186   20.0625 C   0  0  0  0  0  0  0  0  0  0  0  0
  -21.8182  -27.4921   19.9797 C   0  0  0  0  0  0  0  0  0  0  0  0
  -23.6703  -12.2589   21.7112 C   0  0  0  0  0  0  0  0  0  0  0  0
  -22.2769  -12.1975   21.7045 C   0  0  0  0  0  0  0  0  0  0  0  0
  -22.0491  -28.6897   22.0610 C   0  0  0  0  0  0  0  0  0  0  0  0
  -20.1665  -25.0993   25.8292 C   0  0  0  0  0  0  0  0  0  0  0  0
  -18.8083  -26.4538   24.3604 C   0  0  0  0  0  0  0  0  0  0  0  0
  -22.3275  -11.2896   19.4662 C   0  0  0  0  0  0  0  0  0  0  0  0
  -27.5400  -15.6184   21.1180 C   0  0  0  0  0  0  0  0  0  0  0  0
  -29.2309  -17.4480   20.5696 C   0  0  0  0  0  0  0  0  0  0  0  0
  -29.0202  -24.2650   20.3817 C   0  0  0  0  0  0  0  0  0  0  0  0
  -23.9335  -28.5393   20.5489 C   0  0  0  0  0  0  0  0  0  0  0  0
  -27.8067  -24.7169   20.9344 C   0  0  0  0  0  0  0  0  0  0  0  0
  -23.3815  -29.0027   21.7517 C   0  0  0  0  0  0  0  0  0  0  0  0
  -20.4134  -24.2114   24.7822 C   0  0  0  0  0  0  0  0  0  0  0  0
  -19.0552  -25.5660   23.3133 C   0  0  0  0  0  0  0  0  0  0  0  0
  -19.8578  -24.4447   23.5242 C   0  0  0  0  0  0  0  0  0  0  0  0
  -26.3544  -13.1168   20.7727 C   0  0  0  0  0  0  0  0  0  0  0  0
  -21.2726  -27.9370   21.1803 C   0  0  0  0  0  0  0  0  0  0  0  0
  -24.3924  -11.8356   20.5953 C   0  0  0  0  0  0  0  0  0  0  0  0
  -21.6055  -11.7129   20.5821 C   0  0  0  0  0  0  0  0  0  0  0  0
  -23.7210  -11.3510   19.4729 C   0  0  0  0  0  0  0  0  0  0  0  0
  -19.3639  -26.2205   25.6184 C   0  0  0  0  0  0  0  0  0  0  0  0
  -28.1516  -16.9108   21.2963 C   0  0  0  0  0  0  0  0  0  0  0  0
  -29.4298  -18.6911   21.1188 C   0  0  0  0  0  0  0  0  0  0  0  0
  -29.9862  -16.8747   19.4941 C   0  0  0  0  0  0  0  0  0  0  0  0
  -26.6088  -27.9853   22.1735 C   0  0  0  0  0  0  0  0  0  0  0  0
  -26.3335  -31.1257   22.9381 C   0  0  0  0  0  0  0  0  0  0  0  0
  -24.3126  -33.8504   23.3111 C   0  0  0  0  0  0  0  0  0  0  0  0
  -25.7762  -22.3795   23.9299 C   0  0  0  0  0  0  0  0  0  0  0  0
  -30.3533  -24.7674   20.8768 C   0  0  0  0  0  0  0  0  0  0  0  0
  -25.3513  -28.8802   20.1801 C   0  0  0  0  0  0  0  0  0  0  0  0
  -24.1833  -29.8226   22.7282 C   0  0  0  0  0  0  0  0  0  0  0  0
  -30.2577  -26.0691   21.6685 C   0  0  0  0  0  0  0  0  0  0  0  0
  -28.9056  -21.1000   25.2212 C   0  0  0  0  0  0  0  0  0  0  0  0
  -29.1268  -25.9913   22.6892 C   0  0  0  0  0  0  0  0  0  0  0  0
  -29.1648  -19.9230   24.2791 C   0  0  0  0  0  0  0  0  0  0  0  0
  -27.4194  -21.2372   25.5385 C   0  0  0  0  0  0  0  0  0  0  0  0
  -26.7998  -20.1862   23.3972 C   0  0  0  0  0  0  0  0  0  0  0  0
  -27.7724  -25.7931   21.9978 C   0  0  1  0  0  0  0  0  0  0  0  0
  -26.2212  -29.2074   21.3899 C   0  0  1  0  0  0  0  0  0  0  0  0
  -28.2818  -20.0080   23.0201 C   0  0  2  0  0  0  0  0  0  0  0  0
  -20.1217  -23.4922   22.4016 C   0  0  0  0  0  0  0  0  0  0  0  0
  -24.3688  -36.2672   23.9842 C   0  0  0  0  0  0  0  0  0  0  0  0
  -26.5454  -30.3021   25.8684 C   0  0  0  0  0  0  0  0  0  0  0  0
  -25.6579  -32.5579   26.4944 C   0  0  0  0  0  0  0  0  0  0  0  0
  -27.8230  -32.3671   25.2702 C   0  0  0  0  0  0  0  0  0  0  0  0
  -23.3555  -34.7329   20.6533 C   0  0  0  0  0  0  0  0  0  0  0  0
  -21.2762  -23.0181   25.0341 C   0  0  0  0  0  0  0  0  0  0  0  0
  -18.4427  -25.8410   21.9615 C   0  0  0  0  0  0  0  0  0  0  0  0
  -22.6943  -23.2001   24.4733 C   0  0  0  0  0  0  0  0  0  0  0  0
  -23.4145  -24.3809   25.1312 C   0  0  0  0  0  0  0  0  0  0  0  0
  -24.8310  -24.5739   24.5996 C   0  0  0  0  0  0  0  0  0  0  0  0
  -19.4502  -26.4227   20.9759 C   0  0  0  0  0  0  0  0  0  1  0  0
  -25.6611  -31.9016   24.0448 C   0  0  1  0  0  0  0  0  0  0  0  0
  -24.4536  -35.2827   22.8283 C   0  0  2  0  0  0  0  0  0  0  0  0
  -26.4070  -31.7651   25.4022 C   0  0  0  0  0  0  0  0  0  0  0  0
  -27.6967  -17.7442   22.2357 N   0  0  0  0  0  0  0  0  0  0  0  0
  -28.4942  -18.8178   22.1030 N   0  0  0  0  0  0  0  0  0  0  0  0
  -25.5668  -30.1245   22.3252 N   0  0  0  0  0  0  0  0  0  0  0  0
  -26.6369  -21.3321   24.2980 N   0  0  0  0  0  0  0  0  0  0  0  0
  -30.3120  -19.6772   20.8511 N   0  0  0  0  0  0  0  0  0  0  0  0
  -29.6492  -15.5879   19.0527 N   0  0  0  0  0  0  0  0  0  0  0  0
  -27.3025  -27.0426   21.4390 N   0  0  0  0  0  0  0  0  0  0  0  0
  -25.5392  -33.2740   23.5654 N   0  0  0  0  0  0  0  0  0  0  0  0
  -25.6727  -23.4232   24.8413 N   0  0  0  0  0  0  0  0  0  0  0  0
  -23.3752  -35.6090   21.8529 N   0  3  0  0  0  0  0  0  0  0  0  0
  -30.9425  -17.4789   18.9519 O   0  0  0  0  0  0  0  0  0  0  0  0
  -26.3025  -27.9043   23.3573 O   0  0  0  0  0  0  0  0  0  0  0  0
  -27.4938  -31.4026   22.6240 O   0  0  0  0  0  0  0  0  0  0  0  0
  -23.2232  -33.2992   23.4523 O   0  0  0  0  0  0  0  0  0  0  0  0
  -25.1500  -22.3869   22.8646 O   0  0  0  0  0  0  0  0  0  0  0  0
  -25.7759  -11.8965   20.6038 O   0  0  0  0  0  0  0  0  0  0  0  0
  -19.9812  -27.6424   21.4925 O   0  0  0  0  0  0  0  0  0  1  0  0
  -20.2674  -11.6525   20.5764 F   0  0  0  0  0  0  0  0  0  0  0  0
  -24.4094  -10.9418   18.3983 F   0  0  0  0  0  0  0  0  0  0  0  0
  -19.0589  -27.3162   26.9103 Cl  0  0  0  0  0  0  0  0  0  0  0  0
  1  2  1  0  0  0  0
  1  5  2  0  0  0  0
  2  6  2  0  0  0  0
  3  8  2  0  0  0  0
  3 17  1  0  0  0  0
  4  9  1  0  0  0  0
  4 17  2  0  0  0  0
  5 19  1  0  0  0  0
  6 21  1  0  0  0  0
  7 10  2  0  0  0  0
  7 20  1  0  0  0  0
  8 26  1  0  0  0  0
  9 26  2  0  0  0  0
 10 27  1  0  0  0  0
 11 12  2  0  0  0  0
 11 28  1  0  0  0  0
 12 29  1  0  0  0  0
 13 22  1  0  0  0  0
 13 27  2  0  0  0  0
 14 23  2  0  0  0  0
 14 31  1  0  0  0  0
 15 24  1  0  0  0  0
 15 31  2  0  0  0  0
 16 29  2  0  0  0  0
 16 30  1  0  0  0  0
 17 32  1  0  0  0  0
 18 32  1  0  0  0  0
 18 33  2  0  0  0  0
 18 34  1  0  0  0  0
 19 21  2  0  0  0  0
 19 39  1  0  0  0  0
 20 22  2  0  0  0  0
 20 40  1  0  0  0  0
 21 48  1  0  0  0  0
 22 41  1  0  0  0  0
 23 25  1  0  0  0  0
 23 57  1  0  0  0  0
 24 25  2  0  0  0  0
 24 58  1  0  0  0  0
 25 51  1  0  0  0  0
 26 81  1  0  0  0  0
 27 82  1  0  0  0  0
 28 30  2  0  0  0  0
 28 81  1  0  0  0  0
 29 83  1  0  0  0  0
 30 84  1  0  0  0  0
 31 85  1  0  0  0  0
 32 66  2  0  0  0  0
 33 67  1  0  0  0  0
 33 70  1  0  0  0  0
 34 71  1  0  0  0  0
 34 76  2  0  0  0  0
 35 49  1  0  0  0  0
 35 72  1  0  0  0  0
 35 77  2  0  0  0  0
 36 63  1  0  0  0  0
 36 68  1  0  0  0  0
 36 78  2  0  0  0  0
 37 64  1  0  0  0  0
 37 73  1  0  0  0  0
 37 79  2  0  0  0  0
 38 69  1  0  0  0  0
 38 74  1  0  0  0  0
 38 80  2  0  0  0  0
 39 42  1  0  0  0  0
 40 49  1  0  0  0  0
 41 68  1  0  0  0  0
 42 44  1  0  0  0  0
 43 45  1  0  0  0  0
 43 46  1  0  0  0  0
 44 48  1  0  0  0  0
 45 50  1  0  0  0  0
 46 69  1  0  0  0  0
 47 50  1  0  0  0  0
 47 69  1  0  0  0  0
 48 72  1  0  0  0  0
 49 68  1  0  0  0  0
 50 67  1  0  0  0  0
 52 64  1  0  0  0  0
 53 65  1  0  0  0  0
 54 65  1  0  0  0  0
 55 65  1  0  0  0  0
 56 75  1  0  0  0  0
 57 59  1  0  0  0  0
 58 62  1  0  0  0  0
 59 60  1  0  0  0  0
 60 61  1  0  0  0  0
 61 74  1  0  0  0  0
 62 82  1  0  0  0  0
 63 65  1  0  0  0  0
 63 73  1  0  0  0  0
 64 75  1  0  0  0  0
 66 67  1  0  0  0  0
M  CHG  1  75   1
M  ISO  4  38 100  62 101  74 100  82 101
M  END
> <Batch ID>
0039

> <Smiles>
CNC(C)C(=O)NC(C(=O)N1Cc2cc([101O:1][101CH2:1]Cc3cc(Cl)cc(CCCC[100NH:0][100C:0](=O)N4CCCC(n5nc(-c6ccc(Oc7ccc(F)cc7F)cc6)c(C(N)=O)c5N)C4)c3C)ccc2CC1C(=O)NC1CCCc2ccccc21)C(C)(C)C

> <Shape>
0.256

> <Color>
0.061

> <Negative vol penalty>
0.000

$$$$

  -OEChem-04052317043D

 80 88  0     1  0  0  0  0  0999 V2000
  -19.0575  -27.9061   26.4034 C   0  0  0  0  0  0  0  0  0  0  0  0
  -20.4426  -27.8454   26.2891 C   0  0  0  0  0  0  0  0  0  0  0  0
  -24.4428  -13.6475   21.6809 C   0  0  0  0  0  0  0  0  0  0  0  0
  -26.3965  -13.5376   20.2639 C   0  0  0  0  0  0  0  0  0  0  0  0
  -18.2630  -27.8863   25.2578 C   0  0  0  0  0  0  0  0  0  0  0  0
  -21.0341  -27.7637   25.0290 C   0  0  0  0  0  0  0  0  0  0  0  0
  -26.3554  -30.2482   23.2920 C   0  0  0  0  0  0  0  0  0  0  0  0
  -23.9494  -12.4838   21.0910 C   0  0  0  0  0  0  0  0  0  0  0  0
  -25.9032  -12.3738   19.6740 C   0  0  0  0  0  0  0  0  0  0  0  0
  -27.6406  -29.7219   23.1692 C   0  0  0  0  0  0  0  0  0  0  0  0
  -22.3470   -9.3420   20.2100 C   0  0  0  0  0  0  0  0  0  0  0  0
  -21.8205   -8.3616   21.0509 C   0  0  0  0  0  0  0  0  0  0  0  0
  -27.2561  -29.3477   20.8173 C   0  0  0  0  0  0  0  0  0  0  0  0
  -23.9554   -8.1716   22.1660 C   0  0  0  0  0  0  0  0  0  0  0  0
  -30.8479  -23.2830   22.8081 C   0  0  0  0  0  0  0  0  0  0  0  0
  -32.2762  -23.6927   21.1806 C   0  0  0  0  0  0  0  0  0  0  0  0
  -25.6663  -14.1744   21.2673 C   0  0  0  0  0  0  0  0  0  0  0  0
  -27.0045  -15.4701   23.0104 C   0  0  0  0  0  0  0  0  0  0  0  0
  -18.8455  -27.8141   23.9826 C   0  0  0  0  0  0  0  0  0  0  0  0
  -25.5056  -30.3183   22.1788 C   0  0  0  0  0  0  0  0  0  0  0  0
  -20.2467  -27.7416   23.8653 C   0  0  0  0  0  0  0  0  0  0  0  0
  -25.9615  -29.8777   20.9281 C   0  0  0  0  0  0  0  0  0  0  0  0
  -24.6797  -11.8469   20.0876 C   0  0  0  0  0  0  0  0  0  0  0  0
  -28.0901  -29.2689   21.9323 C   0  0  0  0  0  0  0  0  0  0  0  0
  -23.6777   -9.7372   20.3470 C   0  0  0  0  0  0  0  0  0  0  0  0
  -22.6247   -7.7764   22.0289 C   0  0  0  0  0  0  0  0  0  0  0  0
  -24.4818   -9.1521   21.3250 C   0  0  0  0  0  0  0  0  0  0  0  0
  -26.1762  -15.3768   21.8759 C   0  0  0  0  0  0  0  0  0  0  0  0
  -30.6592  -22.4297   21.7467 C   0  0  0  0  0  0  0  0  0  0  0  0
  -27.2042  -16.8183   23.1798 C   0  0  0  0  0  0  0  0  0  0  0  0
  -27.5450  -14.4308   23.8372 C   0  0  0  0  0  0  0  0  0  0  0  0
  -22.6904  -29.0509   21.4225 C   0  0  0  0  0  0  0  0  0  0  0  0
  -28.3790  -21.8307   20.9922 C   0  0  0  0  0  0  0  0  0  0  0  0
  -22.9615  -30.9731   18.8237 C   0  0  0  0  0  0  0  0  0  0  0  0
  -24.9967  -32.7001   16.6971 C   0  0  0  0  0  0  0  0  0  0  0  0
  -17.9439  -27.7478   22.7754 C   0  0  0  0  0  0  0  0  0  0  0  0
  -24.1317  -30.9134   22.3223 C   0  0  0  0  0  0  0  0  0  0  0  0
  -25.0955  -29.9498   19.6980 C   0  0  0  0  0  0  0  0  0  0  0  0
  -18.6637  -28.0377   21.4609 C   0  0  0  0  0  0  0  0  0  0  0  0
  -24.9512  -20.7868   21.0157 C   0  0  0  0  0  0  0  0  0  0  0  0
  -19.9744  -27.2608   21.3873 C   0  0  0  0  0  0  0  0  0  0  0  0
  -25.0342  -19.2885   21.3047 C   0  0  0  0  0  0  0  0  0  0  0  0
  -26.1229  -21.2560   20.1590 C   0  0  0  0  0  0  0  0  0  0  0  0
  -27.5490  -19.4261   21.0190 C   0  0  0  0  0  0  0  0  0  0  0  0
  -20.9266  -27.6773   22.5148 C   0  0  1  0  0  0  0  0  0  0  0  0
  -23.1679  -30.4624   21.2291 C   0  0  1  0  0  0  0  0  0  0  0  0
  -26.4005  -18.9167   21.9076 C   0  0  2  0  0  0  0  0  0  0  0  0
  -24.9312  -34.1446   14.6462 C   0  0  0  0  0  0  0  0  0  0  0  0
  -22.4829  -28.5008   17.1007 C   0  0  0  0  0  0  0  0  0  0  0  0
  -23.3582  -29.7850   15.1378 C   0  0  0  0  0  0  0  0  0  0  0  0
  -21.3026  -30.5622   16.3182 C   0  0  0  0  0  0  0  0  0  0  0  0
  -26.1954  -34.9937   18.1328 C   0  0  0  0  0  0  0  0  0  0  0  0
  -29.6681  -21.3515   21.6107 C   0  0  0  0  0  0  0  0  0  0  0  0
  -31.4793  -26.2746   23.6703 C   0  0  0  0  0  0  0  0  0  0  0  0
  -30.8645  -27.0258   22.4884 C   0  0  0  0  0  0  0  0  0  0  0  0
  -32.4907  -25.2055   23.2412 C   0  0  0  0  0  0  0  0  0  0  0  0
  -29.8928  -28.1018   22.9541 C   0  0  0  0  0  0  0  0  0  1  0  0
  -23.5519  -30.8261   17.4421 C   0  0  1  0  0  0  0  0  0  0  0  0
  -24.9261  -34.1207   16.1667 C   0  0  2  0  0  0  0  0  0  0  0  0
  -22.6898  -29.9153   16.5231 C   0  0  0  0  0  0  0  0  0  0  0  0
  -31.5516  -22.6896   20.7369 N   0  0  0  0  0  0  0  0  0  0  0  0
  -25.8706  -16.5708   21.3611 N   0  0  0  0  0  0  0  0  0  0  0  0
  -31.8873  -24.0859   22.4310 N   0  0  0  0  0  0  0  0  0  0  0  0
  -26.5102  -17.4270   22.1758 N   0  0  0  0  0  0  0  0  0  0  0  0
  -23.7579  -30.5339   19.8908 N   0  0  0  0  0  0  0  0  0  0  0  0
  -27.4018  -20.8640   20.7541 N   0  0  0  0  0  0  0  0  0  0  0  0
  -27.9040  -17.5308   24.0882 N   0  0  0  0  0  0  0  0  0  0  0  0
  -27.2404  -13.0996   23.5217 N   0  0  0  0  0  0  0  0  0  0  0  0
  -21.5556  -28.9430   22.2036 N   0  0  0  0  0  0  0  0  0  0  0  0
  -23.7417  -32.1801   16.9331 N   0  0  0  0  0  0  0  0  0  0  0  0
  -26.0905  -34.9137   16.6531 N   0  3  0  0  0  0  0  0  0  0  0  0
  -28.2630  -14.6762   24.8360 O   0  0  0  0  0  0  0  0  0  0  0  0
  -23.3050  -28.1282   20.9005 O   0  0  0  0  0  0  0  0  0  0  0  0
  -28.2452  -23.0293   20.7319 O   0  0  0  0  0  0  0  0  0  0  0  0
  -21.8381  -31.4663   18.9519 O   0  0  0  0  0  0  0  0  0  0  0  0
  -26.0588  -32.1094   16.8800 O   0  0  0  0  0  0  0  0  0  0  0  0
  -24.1987  -10.7113   19.5119 O   0  0  0  0  0  0  0  0  0  0  0  0
  -29.3438  -28.7541   21.8098 O   0  0  0  0  0  0  0  0  0  1  0  0
  -22.1185   -6.8360   22.8374 F   0  0  0  0  0  0  0  0  0  0  0  0
  -25.7606   -9.5285   21.4622 F   0  0  0  0  0  0  0  0  0  0  0  0
  1  2  1  0  0  0  0
  1  5  2  0  0  0  0
  2  6  2  0  0  0  0
  3  8  2  0  0  0  0
  3 17  1  0  0  0  0
  4  9  1  0  0  0  0
  4 17  2  0  0  0  0
  5 19  1  0  0  0  0
  6 21  1  0  0  0  0
  7 10  2  0  0  0  0
  7 20  1  0  0  0  0
  8 23  1  0  0  0  0
  9 23  2  0  0  0  0
 10 24  1  0  0  0  0
 11 12  2  0  0  0  0
 11 25  1  0  0  0  0
 12 26  1  0  0  0  0
 13 22  1  0  0  0  0
 13 24  2  0  0  0  0
 14 26  2  0  0  0  0
 14 27  1  0  0  0  0
 15 29  2  0  0  0  0
 15 63  1  0  0  0  0
 16 61  2  0  0  0  0
 16 63  1  0  0  0  0
 17 28  1  0  0  0  0
 18 28  1  0  0  0  0
 18 30  2  0  0  0  0
 18 31  1  0  0  0  0
 19 21  2  0  0  0  0
 19 36  1  0  0  0  0
 20 22  2  0  0  0  0
 20 37  1  0  0  0  0
 21 45  1  0  0  0  0
 22 38  1  0  0  0  0
 23 77  1  0  0  0  0
 24 78  1  0  0  0  0
 25 27  2  0  0  0  0
 25 77  1  0  0  0  0
 26 79  1  0  0  0  0
 27 80  1  0  0  0  0
 28 62  2  0  0  0  0
 29 53  1  0  0  0  0
 29 61  1  0  0  0  0
 30 64  1  0  0  0  0
 30 67  1  0  0  0  0
 31 68  1  0  0  0  0
 31 72  2  0  0  0  0
 32 46  1  0  0  0  0
 32 69  1  0  0  0  0
 32 73  2  0  0  0  0
 33 53  1  0  0  0  0
 33 66  1  0  0  0  0
 33 74  2  0  0  0  0
 34 58  1  0  0  0  0
 34 65  1  0  0  0  0
 34 75  2  0  0  0  0
 35 59  1  0  0  0  0
 35 70  1  0  0  0  0
 35 76  2  0  0  0  0
 36 39  1  0  0  0  0
 37 46  1  0  0  0  0
 38 65  1  0  0  0  0
 39 41  1  0  0  0  0
 40 42  1  0  0  0  0
 40 43  1  0  0  0  0
 41 45  1  0  0  0  0
 42 47  1  0  0  0  0
 43 66  1  0  0  0  0
 44 47  1  0  0  0  0
 44 66  1  0  0  0  0
 45 69  1  0  0  0  0
 46 65  1  0  0  0  0
 47 64  1  0  0  0  0
 48 59  1  0  0  0  0
 49 60  1  0  0  0  0
 50 60  1  0  0  0  0
 51 60  1  0  0  0  0
 52 71  1  0  0  0  0
 54 55  1  0  0  0  0
 54 56  1  0  0  0  0
 55 57  1  0  0  0  0
 56 63  1  0  0  0  0
 57 78  1  0  0  0  0
 58 60  1  0  0  0  0
 58 70  1  0  0  0  0
 59 71  1  0  0  0  0
 62 64  1  0  0  0  0
M  CHG  1  71   1
M  ISO  4  33 100  53 100  57 101  78 101
M  END
> <Batch ID>
0039

> <Smiles>
CNC(C)C(=O)NC(C(=O)N1Cc2cc([101O:1][101CH2:1]CCCn3cnc([100CH2:0][100C:0](=O)N4CCCC(n5nc(-c6ccc(Oc7ccc(F)cc7F)cc6)c(C(N)=O)c5N)C4)c3)ccc2CC1C(=O)NC1CCCc2ccccc21)C(C)(C)C

> <Shape>
0.222

> <Color>
0.089

> <Negative vol penalty>
0.000

$$$$

  -OEChem-04052317043D

 86 94  0     1  0  0  0  0  0999 V2000
  -25.4264  -18.5652   24.5490 C   0  0  0  0  0  0  0  0  0  0  0  0
  -25.9281  -19.4990   23.6481 C   0  0  0  0  0  0  0  0  0  0  0  0
  -26.6775  -12.5121   21.8265 C   0  0  0  0  0  0  0  0  0  0  0  0
  -25.6965  -14.2082   20.4130 C   0  0  0  0  0  0  0  0  0  0  0  0
  -24.0712  -18.5722   24.8763 C   0  0  0  0  0  0  0  0  0  0  0  0
  -25.0745  -20.4397   23.0729 C   0  0  0  0  0  0  0  0  0  0  0  0
  -27.0484  -25.1033   23.0611 C   0  0  0  0  0  0  0  0  0  0  0  0
  -25.4441  -11.8658   21.9072 C   0  0  0  0  0  0  0  0  0  0  0  0
  -24.4630  -13.5619   20.4937 C   0  0  0  0  0  0  0  0  0  0  0  0
  -28.0053  -25.3872   22.0878 C   0  0  0  0  0  0  0  0  0  0  0  0
  -22.6378   -9.5724   22.1905 C   0  0  0  0  0  0  0  0  0  0  0  0
  -22.6204   -8.1865   22.0340 C   0  0  0  0  0  0  0  0  0  0  0  0
  -26.3212  -26.4967   20.7642 C   0  0  0  0  0  0  0  0  0  0  0  0
  -31.3981  -22.0642   18.5792 C   0  0  0  0  0  0  0  0  0  0  0  0
  -23.5589   -8.4246   19.8205 C   0  0  0  0  0  0  0  0  0  0  0  0
  -32.8309  -23.3479   19.9777 C   0  0  0  0  0  0  0  0  0  0  0  0
  -26.8037  -13.6833   21.0795 C   0  0  0  0  0  0  0  0  0  0  0  0
  -29.0881  -14.1392   20.0395 C   0  0  0  0  0  0  0  0  0  0  0  0
  -23.2023  -19.5196   24.3122 C   0  0  0  0  0  0  0  0  0  0  0  0
  -25.7161  -25.5051   22.8879 C   0  0  0  0  0  0  0  0  0  0  0  0
  -23.7061  -20.4586   23.3918 C   0  0  0  0  0  0  0  0  0  0  0  0
  -25.3498  -26.2189   21.7380 C   0  0  0  0  0  0  0  0  0  0  0  0
  -32.4111  -22.1054   19.5307 C   0  0  0  0  0  0  0  0  0  0  0  0
  -30.8437  -23.2500   18.1103 C   0  0  0  0  0  0  0  0  0  0  0  0
  -24.3368  -12.3907   21.2408 C   0  0  0  0  0  0  0  0  0  0  0  0
  -27.6413  -26.0814   20.9378 C   0  0  0  0  0  0  0  0  0  0  0  0
  -23.1157  -10.3845   21.1619 C   0  0  0  0  0  0  0  0  0  0  0  0
  -23.0809   -7.6126   20.8491 C   0  0  0  0  0  0  0  0  0  0  0  0
  -23.5763   -9.8105   19.9770 C   0  0  0  0  0  0  0  0  0  0  0  0
  -28.0775  -14.3517   20.9962 C   0  0  0  0  0  0  0  0  0  0  0  0
  -31.3335  -24.4412   18.6210 C   0  0  0  0  0  0  0  0  0  0  0  0
  -30.0862  -15.0134   20.3944 C   0  0  0  0  0  0  0  0  0  0  0  0
  -29.1216  -13.2326   18.9292 C   0  0  0  0  0  0  0  0  0  0  0  0
  -22.9307  -23.9932   22.6447 C   0  0  0  0  0  0  0  0  0  0  0  0
  -21.7329  -27.0072   22.6997 C   0  0  0  0  0  0  0  0  0  0  0  0
  -22.2393  -30.3366   22.1470 C   0  0  0  0  0  0  0  0  0  0  0  0
  -31.7642  -20.0741   22.0434 C   0  0  0  0  0  0  0  0  0  0  0  0
  -21.7362  -19.4580   24.6603 C   0  0  0  0  0  0  0  0  0  0  0  0
  -24.7014  -25.2145   23.9595 C   0  0  0  0  0  0  0  0  0  0  0  0
  -23.9370  -26.6903   21.5136 C   0  0  0  0  0  0  0  0  0  0  0  0
  -20.9691  -20.7256   24.2930 C   0  0  0  0  0  0  0  0  0  0  0  0
  -30.6853  -17.8074   24.5682 C   0  0  0  0  0  0  0  0  0  0  0  0
  -21.3247  -21.1739   22.8790 C   0  0  0  0  0  0  0  0  0  0  0  0
  -29.9889  -16.6927   23.7857 C   0  0  0  0  0  0  0  0  0  0  0  0
  -30.4428  -19.1766   23.9368 C   0  0  0  0  0  0  0  0  0  0  0  0
  -30.0898  -18.1531   21.7228 C   0  0  0  0  0  0  0  0  0  0  0  0
  -22.8165  -21.5106   22.7658 C   0  0  1  0  0  0  0  0  0  0  0  0
  -23.2665  -25.2219   23.4415 C   0  0  1  0  0  0  0  0  0  0  0  0
  -30.3515  -16.7471   22.2894 C   0  0  2  0  0  0  0  0  0  0  0  0
  -26.5681  -21.5964   18.7202 C   0  0  0  0  0  0  0  0  0  0  0  0
  -21.0629  -32.5511   22.2451 C   0  0  0  0  0  0  0  0  0  0  0  0
  -27.3228  -23.6800   16.6296 C   0  0  0  0  0  0  0  0  0  0  0  0
  -20.2490  -26.3304   20.1209 C   0  0  0  0  0  0  0  0  0  0  0  0
  -19.8849  -28.7824   19.7691 C   0  0  0  0  0  0  0  0  0  0  0  0
  -18.9185  -27.6547   21.7733 C   0  0  0  0  0  0  0  0  0  0  0  0
  -24.1383  -31.3873   24.1592 C   0  0  0  0  0  0  0  0  0  0  0  0
  -29.7593  -23.2130   17.0895 C   0  0  0  0  0  0  0  0  0  0  0  0
  -33.0243  -20.8552   20.0532 C   0  0  0  0  0  0  0  0  0  0  0  0
  -30.7699  -25.7582   18.1504 C   0  0  0  0  0  0  0  0  0  0  0  0
  -27.9631  -21.7217   18.1224 C   0  0  0  0  0  0  0  0  0  0  0  0
  -30.7917  -26.8543   19.2179 C   0  0  0  0  0  0  0  0  0  0  0  0
  -29.9187  -26.5373   20.4266 C   0  0  0  0  0  0  0  0  0  1  0  0
  -21.4129  -28.0497   21.6557 C   0  0  1  0  0  0  0  0  0  0  0  0
  -21.9339  -31.5567   22.9970 C   0  0  2  0  0  0  0  0  0  0  0  0
  -28.3186  -23.1535   17.6697 C   0  0  2  0  0  0  0  0  0  0  0  0
  -20.1426  -27.6939   20.8328 C   0  0  0  0  0  0  0  0  0  0  0  0
  -32.3164  -24.5211   19.5458 N   0  0  0  0  0  0  0  0  0  0  0  0
  -28.4037  -15.2874   21.8917 N   0  0  0  0  0  0  0  0  0  0  0  0
  -29.6306  -15.6706   21.4993 N   0  0  0  0  0  0  0  0  0  0  0  0
  -22.9799  -26.3763   22.5874 N   0  0  0  0  0  0  0  0  0  0  0  0
  -30.8081  -19.1612   22.5182 N   0  0  0  0  0  0  0  0  0  0  0  0
  -31.3003  -15.2764   19.8660 N   0  0  0  0  0  0  0  0  0  0  0  0
  -28.0119  -12.4055   18.7083 N   0  0  0  0  0  0  0  0  0  0  0  0
  -23.0864  -22.8104   23.3421 N   0  0  0  0  0  0  0  0  0  0  0  0
  -21.3296  -29.3232   22.3626 N   0  0  0  0  0  0  0  0  0  0  0  0
  -32.0571  -19.9878   20.6879 N   0  0  0  0  0  0  0  0  0  0  0  0
  -23.1968  -32.2425   23.3916 N   0  3  0  0  0  0  0  0  0  0  0  0
  -30.1131  -13.1466   18.1657 O   0  0  0  0  0  0  0  0  0  0  0  0
  -22.5565  -24.1096   21.4836 O   0  0  0  0  0  0  0  0  0  0  0  0
  -20.9098  -26.7669   23.5864 O   0  0  0  0  0  0  0  0  0  0  0  0
  -23.1878  -30.2889   21.3668 O   0  0  0  0  0  0  0  0  0  0  0  0
  -32.3198  -20.9010   22.7745 O   0  0  0  0  0  0  0  0  0  0  0  0
  -23.1331  -11.7602   21.3191 O   0  0  0  0  0  0  0  0  0  0  0  0
  -28.5732  -26.3593   19.9858 O   0  0  0  0  0  0  0  0  0  1  0  0
  -23.0656   -6.2815   20.6996 F   0  0  0  0  0  0  0  0  0  0  0  0
  -24.0376  -10.5854   18.9858 F   0  0  0  0  0  0  0  0  0  0  0  0
  1  2  1  0  0  0  0
  1  5  2  0  0  0  0
  2  6  2  0  0  0  0
  3  8  2  0  0  0  0
  3 17  1  0  0  0  0
  4  9  1  0  0  0  0
  4 17  2  0  0  0  0
  5 19  1  0  0  0  0
  6 21  1  0  0  0  0
  7 10  2  0  0  0  0
  7 20  1  0  0  0  0
  8 25  1  0  0  0  0
  9 25  2  0  0  0  0
 10 26  1  0  0  0  0
 11 12  2  0  0  0  0
 11 27  1  0  0  0  0
 12 28  1  0  0  0  0
 13 22  1  0  0  0  0
 13 26  2  0  0  0  0
 14 23  2  0  0  0  0
 14 24  1  0  0  0  0
 15 28  2  0  0  0  0
 15 29  1  0  0  0  0
 16 23  1  0  0  0  0
 16 67  2  0  0  0  0
 17 30  1  0  0  0  0
 18 30  1  0  0  0  0
 18 32  2  0  0  0  0
 18 33  1  0  0  0  0
 19 21  2  0  0  0  0
 19 38  1  0  0  0  0
 20 22  2  0  0  0  0
 20 39  1  0  0  0  0
 21 47  1  0  0  0  0
 22 40  1  0  0  0  0
 23 58  1  0  0  0  0
 24 31  2  0  0  0  0
 24 57  1  0  0  0  0
 25 83  1  0  0  0  0
 26 84  1  0  0  0  0
 27 29  2  0  0  0  0
 27 83  1  0  0  0  0
 28 85  1  0  0  0  0
 29 86  1  0  0  0  0
 30 68  2  0  0  0  0
 31 59  1  0  0  0  0
 31 67  1  0  0  0  0
 32 69  1  0  0  0  0
 32 72  1  0  0  0  0
 33 73  1  0  0  0  0
 33 78  2  0  0  0  0
 34 48  1  0  0  0  0
 34 74  1  0  0  0  0
 34 79  2  0  0  0  0
 35 63  1  0  0  0  0
 35 70  1  0  0  0  0
 35 80  2  0  0  0  0
 36 64  1  0  0  0  0
 36 75  1  0  0  0  0
 36 81  2  0  0  0  0
 37 71  1  0  0  0  0
 37 76  1  0  0  0  0
 37 82  2  0  0  0  0
 38 41  1  0  0  0  0
 39 48  1  0  0  0  0
 40 70  1  0  0  0  0
 41 43  1  0  0  0  0
 42 44  1  0  0  0  0
 42 45  1  0  0  0  0
 43 47  1  0  0  0  0
 44 49  1  0  0  0  0
 45 71  1  0  0  0  0
 46 49  1  0  0  0  0
 46 71  1  0  0  0  0
 47 74  1  0  0  0  0
 48 70  1  0  0  0  0
 49 69  1  0  0  0  0
 50 60  1  0  0  0  0
 51 64  1  0  0  0  0
 52 65  1  0  0  0  0
 53 66  1  0  0  0  0
 54 66  1  0  0  0  0
 55 66  1  0  0  0  0
 56 77  1  0  0  0  0
 57 65  1  0  0  0  0
 58 76  1  0  0  0  0
 59 61  1  0  0  0  0
 60 65  1  0  0  0  0
 61 62  1  0  0  0  0
 62 84  1  0  0  0  0
 63 66  1  0  0  0  0
 63 75  1  0  0  0  0
 64 77  1  0  0  0  0
 68 69  1  0  0  0  0
M  CHG  1  77   1
M  ISO  4  37 100  62 101  76 100  84 101
M  END
> <Batch ID>
0039

> <Smiles>
CCC(C)Cc1cc(C[100NH:0][100C:0](=O)N2CCCC(n3nc(-c4ccc(Oc5ccc(F)cc5F)cc4)c(C(N)=O)c3N)C2)cnc1CC[101CH2:1][101O:1]c1ccc2c(c1)CN(C(=O)C(NC(=O)C(C)NC)C(C)(C)C)C(C(=O)NC1CCCc3ccccc31)C2

> <Shape>
0.240

> <Color>
0.074

> <Negative vol penalty>
0.000

$$$$

  -OEChem-04052317043D

 85 93  0     1  0  0  0  0  0999 V2000
  -30.3087  -37.2182   23.4865 C   0  0  0  0  0  0  0  0  0  0  0  0
  -30.3925  -36.1214   22.6349 C   0  0  0  0  0  0  0  0  0  0  0  0
  -24.7990   -8.1753   21.2270 C   0  0  0  0  0  0  0  0  0  0  0  0
  -23.1524   -9.7705   20.4648 C   0  0  0  0  0  0  0  0  0  0  0  0
  -29.5407  -37.1408   24.6476 C   0  0  0  0  0  0  0  0  0  0  0  0
  -29.7090  -34.9460   22.9444 C   0  0  0  0  0  0  0  0  0  0  0  0
  -27.1126  -31.0489   18.9976 C   0  0  0  0  0  0  0  0  0  0  0  0
  -23.7928   -7.2288   21.4198 C   0  0  0  0  0  0  0  0  0  0  0  0
  -22.1462   -8.8239   20.6575 C   0  0  0  0  0  0  0  0  0  0  0  0
  -27.5432  -29.8400   18.4526 C   0  0  0  0  0  0  0  0  0  0  0  0
  -21.4166   -6.5547   23.7270 C   0  0  0  0  0  0  0  0  0  0  0  0
  -21.4371   -5.8204   24.9127 C   0  0  0  0  0  0  0  0  0  0  0  0
  -26.3222  -28.6444   20.1552 C   0  0  0  0  0  0  0  0  0  0  0  0
  -27.7836  -23.5627   16.5732 C   0  0  0  0  0  0  0  0  0  0  0  0
  -21.6329   -3.7747   23.6424 C   0  0  0  0  0  0  0  0  0  0  0  0
  -24.4788   -9.4463   20.7496 C   0  0  0  0  0  0  0  0  0  0  0  0
  -26.2690  -10.6411   19.3802 C   0  0  0  0  0  0  0  0  0  0  0  0
  -28.8397  -35.9671   24.9666 C   0  0  0  0  0  0  0  0  0  0  0  0
  -26.2911  -31.0648   20.1340 C   0  0  0  0  0  0  0  0  0  0  0  0
  -28.9320  -34.8523   24.1115 C   0  0  0  0  0  0  0  0  0  0  0  0
  -25.8805  -29.8548   20.7112 C   0  0  0  0  0  0  0  0  0  0  0  0
  -27.2194  -24.6627   17.2095 C   0  0  0  0  0  0  0  0  0  0  0  0
  -27.7161  -25.0774   18.4402 C   0  0  0  0  0  0  0  0  0  0  0  0
  -22.4664   -7.5530   21.1350 C   0  0  0  0  0  0  0  0  0  0  0  0
  -27.1503  -28.6376   19.0331 C   0  0  0  0  0  0  0  0  0  0  0  0
  -21.5041   -5.8990   22.4990 C   0  0  0  0  0  0  0  0  0  0  0  0
  -21.5453   -4.4304   24.8705 C   0  0  0  0  0  0  0  0  0  0  0  0
  -21.6123   -4.5090   22.4567 C   0  0  0  0  0  0  0  0  0  0  0  0
  -25.5177  -10.4247   20.5509 C   0  0  0  0  0  0  0  0  0  0  0  0
  -28.8343  -22.9168   17.2044 C   0  0  0  0  0  0  0  0  0  0  0  0
  -28.7698  -24.3635   18.9879 C   0  0  0  0  0  0  0  0  0  0  0  0
  -27.1174  -11.6721   19.7023 C   0  0  0  0  0  0  0  0  0  0  0  0
  -26.2055   -9.9702   18.1146 C   0  0  0  0  0  0  0  0  0  0  0  0
  -26.5742  -32.1968   23.0907 C   0  0  0  0  0  0  0  0  0  0  0  0
  -27.9436  -16.6824   22.0482 C   0  0  0  0  0  0  0  0  0  0  0  0
  -23.4737  -31.2721   23.3241 C   0  0  0  0  0  0  0  0  0  0  0  0
  -20.9599  -29.2544   22.2030 C   0  0  0  0  0  0  0  0  0  0  0  0
  -28.0605  -35.9149   26.2568 C   0  0  0  0  0  0  0  0  0  0  0  0
  -25.8135  -32.3767   20.6938 C   0  0  0  0  0  0  0  0  0  0  0  0
  -24.9827  -29.8172   21.9199 C   0  0  0  0  0  0  0  0  0  0  0  0
  -27.0656  -34.7589   26.3211 C   0  0  0  0  0  0  0  0  0  0  0  0
  -28.1887  -13.7961   24.1575 C   0  0  0  0  0  0  0  0  0  0  0  0
  -27.7228  -33.4625   25.8585 C   0  0  0  0  0  0  0  0  0  0  0  0
  -27.5502  -12.6864   23.3232 C   0  0  0  0  0  0  0  0  0  0  0  0
  -27.4982  -15.1365   23.9260 C   0  0  0  0  0  0  0  0  0  0  0  0
  -26.8031  -14.4427   21.6551 C   0  0  0  0  0  0  0  0  0  0  0  0
  -28.1852  -33.5682   24.4002 C   0  0  1  0  0  0  0  0  0  0  0  0
  -25.3986  -32.2854   22.1590 C   0  0  1  0  0  0  0  0  0  0  0  0
  -27.4906  -13.0778   21.8360 C   0  0  2  0  0  0  0  0  0  0  0  0
  -26.0838  -25.3768   16.5540 C   0  0  0  0  0  0  0  0  0  0  0  0
  -29.3471  -24.7619   20.3069 C   0  0  0  0  0  0  0  0  0  0  0  0
  -18.5472  -28.7001   22.6140 C   0  0  0  0  0  0  0  0  0  0  0  0
  -24.2634  -29.6896   25.8105 C   0  0  0  0  0  0  0  0  0  0  0  0
  -22.1039  -28.4380   25.6146 C   0  0  0  0  0  0  0  0  0  0  0  0
  -22.0845  -30.9033   25.9947 C   0  0  0  0  0  0  0  0  0  0  0  0
  -20.1841  -30.0808   19.4691 C   0  0  0  0  0  0  0  0  0  0  0  0
  -27.1290  -26.2623   19.1490 C   0  0  0  0  0  0  0  0  0  1  0  0
  -29.4652  -21.7332   16.5501 C   0  0  0  0  0  0  0  0  0  0  0  0
  -27.8539  -16.9440   20.5658 C   0  0  0  0  0  0  0  0  0  0  0  0
  -28.8257  -20.3824   16.9219 C   0  0  0  0  0  0  0  0  0  0  0  0
  -28.4371  -18.3094   20.2157 C   0  0  0  0  0  0  0  0  0  0  0  0
  -28.9146  -20.0057   18.4057 C   0  0  0  0  0  0  0  0  0  0  0  0
  -28.3472  -18.6188   18.7173 C   0  0  0  0  0  0  0  0  0  0  0  0
  -22.7643  -30.0035   23.7320 C   0  0  1  0  0  0  0  0  0  0  0  0
  -19.5222  -29.5550   21.8195 C   0  0  2  0  0  0  0  0  0  0  0  0
  -22.8225  -29.7590   25.2663 C   0  0  0  0  0  0  0  0  0  0  0  0
  -25.8589  -11.2516   21.5427 N   0  0  0  0  0  0  0  0  0  0  0  0
  -29.3438  -23.2901   18.3996 N   0  0  0  0  0  0  0  0  0  0  0  0
  -26.8340  -11.9976   20.9961 N   0  0  0  0  0  0  0  0  0  0  0  0
  -24.5474  -31.1262   22.4343 N   0  0  0  0  0  0  0  0  0  0  0  0
  -27.4419  -15.4615   22.4997 N   0  0  0  0  0  0  0  0  0  0  0  0
  -28.0708  -12.3228   19.0023 N   0  0  0  0  0  0  0  0  0  0  0  0
  -25.2764   -8.9333   17.9540 N   0  0  0  0  0  0  0  0  0  0  0  0
  -27.0601  -33.4234   23.5015 N   0  0  0  0  0  0  0  0  0  0  0  0
  -21.4120  -30.1008   23.1933 N   0  0  0  0  0  0  0  0  0  0  0  0
  -19.3066  -29.2889   20.3691 N   0  3  0  0  0  0  0  0  0  0  0  0
  -26.9620  -10.2701   17.1600 O   0  0  0  0  0  0  0  0  0  0  0  0
  -27.0073  -31.0971   23.4141 O   0  0  0  0  0  0  0  0  0  0  0  0
  -28.4476  -17.5375   22.7811 O   0  0  0  0  0  0  0  0  0  0  0  0
  -23.0849  -32.3534   23.7727 O   0  0  0  0  0  0  0  0  0  0  0  0
  -21.6152  -28.3561   21.6794 O   0  0  0  0  0  0  0  0  0  0  0  0
  -21.4844   -6.6295   21.3227 O   0  0  0  0  0  0  0  0  0  0  0  0
  -27.5696  -27.4562   18.5035 O   0  0  0  0  0  0  0  0  0  1  0  0
  -21.5666   -3.7255   26.0092 F   0  0  0  0  0  0  0  0  0  0  0  0
  -21.6979   -3.8736   21.2799 F   0  0  0  0  0  0  0  0  0  0  0  0
  1  2  1  0  0  0  0
  1  5  2  0  0  0  0
  2  6  2  0  0  0  0
  3  8  2  0  0  0  0
  3 16  1  0  0  0  0
  4  9  1  0  0  0  0
  4 16  2  0  0  0  0
  5 18  1  0  0  0  0
  6 20  1  0  0  0  0
  7 10  2  0  0  0  0
  7 19  1  0  0  0  0
  8 24  1  0  0  0  0
  9 24  2  0  0  0  0
 10 25  1  0  0  0  0
 11 12  2  0  0  0  0
 11 26  1  0  0  0  0
 12 27  1  0  0  0  0
 13 21  1  0  0  0  0
 13 25  2  0  0  0  0
 14 22  2  0  0  0  0
 14 30  1  0  0  0  0
 15 27  2  0  0  0  0
 15 28  1  0  0  0  0
 16 29  1  0  0  0  0
 17 29  1  0  0  0  0
 17 32  2  0  0  0  0
 17 33  1  0  0  0  0
 18 20  2  0  0  0  0
 18 38  1  0  0  0  0
 19 21  2  0  0  0  0
 19 39  1  0  0  0  0
 20 47  1  0  0  0  0
 21 40  1  0  0  0  0
 22 23  1  0  0  0  0
 22 50  1  0  0  0  0
 23 31  2  0  0  0  0
 23 57  1  0  0  0  0
 24 82  1  0  0  0  0
 25 83  1  0  0  0  0
 26 28  2  0  0  0  0
 26 82  1  0  0  0  0
 27 84  1  0  0  0  0
 28 85  1  0  0  0  0
 29 67  2  0  0  0  0
 30 58  1  0  0  0  0
 30 68  2  0  0  0  0
 31 51  1  0  0  0  0
 31 68  1  0  0  0  0
 32 69  1  0  0  0  0
 32 72  1  0  0  0  0
 33 73  1  0  0  0  0
 33 77  2  0  0  0  0
 34 48  1  0  0  0  0
 34 74  1  0  0  0  0
 34 78  2  0  0  0  0
 35 59  1  0  0  0  0
 35 71  1  0  0  0  0
 35 79  2  0  0  0  0
 36 64  1  0  0  0  0
 36 70  1  0  0  0  0
 36 80  2  0  0  0  0
 37 65  1  0  0  0  0
 37 75  1  0  0  0  0
 37 81  2  0  0  0  0
 38 41  1  0  0  0  0
 39 48  1  0  0  0  0
 40 70  1  0  0  0  0
 41 43  1  0  0  0  0
 42 44  1  0  0  0  0
 42 45  1  0  0  0  0
 43 47  1  0  0  0  0
 44 49  1  0  0  0  0
 45 71  1  0  0  0  0
 46 49  1  0  0  0  0
 46 71  1  0  0  0  0
 47 74  1  0  0  0  0
 48 70  1  0  0  0  0
 49 69  1  0  0  0  0
 52 65  1  0  0  0  0
 53 66  1  0  0  0  0
 54 66  1  0  0  0  0
 55 66  1  0  0  0  0
 56 76  1  0  0  0  0
 57 83  1  0  0  0  0
 58 60  1  0  0  0  0
 59 61  1  0  0  0  0
 60 62  1  0  0  0  0
 61 63  1  0  0  0  0
 62 63  1  0  0  0  0
 64 66  1  0  0  0  0
 64 75  1  0  0  0  0
 65 76  1  0  0  0  0
 67 69  1  0  0  0  0
M  CHG  1  76   1
M  ISO  4  35 100  57 101  59 100  83 101
M  END
> <Batch ID>
0039

> <Smiles>
CNC(C)C(=O)NC(C(=O)N1Cc2cc([101O:1][101CH2:1]c3c(C)cc(CCCCC[100CH2:0][100C:0](=O)N4CCCC(n5nc(-c6ccc(Oc7ccc(F)cc7F)cc6)c(C(N)=O)c5N)C4)nc3C)ccc2CC1C(=O)NC1CCCc2ccccc21)C(C)(C)C

> <Shape>
0.276

> <Color>
0.093

> <Negative vol penalty>
0.000

$$$$

  -OEChem-04052317043D

 89 97  0     1  0  0  0  0  0999 V2000
  -26.2555  -20.5518   25.1503 C   0  0  0  0  0  0  0  0  0  0  0  0
  -26.4907  -19.1821   25.2134 C   0  0  0  0  0  0  0  0  0  0  0  0
  -23.0725   -9.8702   19.9426 C   0  0  0  0  0  0  0  0  0  0  0  0
  -23.8350   -9.8779   22.2351 C   0  0  0  0  0  0  0  0  0  0  0  0
  -25.5869  -21.1919   26.1930 C   0  0  0  0  0  0  0  0  0  0  0  0
  -26.0584  -18.4519   26.3198 C   0  0  0  0  0  0  0  0  0  0  0  0
  -23.8221  -14.0980   25.0207 C   0  0  0  0  0  0  0  0  0  0  0  0
  -22.3291   -8.7169   20.1937 C   0  0  0  0  0  0  0  0  0  0  0  0
  -23.0916   -8.7247   22.4862 C   0  0  0  0  0  0  0  0  0  0  0  0
  -24.6529  -13.0395   24.6558 C   0  0  0  0  0  0  0  0  0  0  0  0
  -19.9447   -5.9761   20.3255 C   0  0  0  0  0  0  0  0  0  0  0  0
  -18.6385   -5.9277   19.8387 C   0  0  0  0  0  0  0  0  0  0  0  0
  -24.3954  -12.0865   26.8569 C   0  0  0  0  0  0  0  0  0  0  0  0
  -18.0744   -7.8708   21.1591 C   0  0  0  0  0  0  0  0  0  0  0  0
  -23.8255  -10.4507   20.9633 C   0  0  0  0  0  0  0  0  0  0  0  0
  -24.1666  -12.9758   20.8422 C   0  0  0  0  0  0  0  0  0  0  0  0
  -25.1377  -20.4675   27.3083 C   0  0  0  0  0  0  0  0  0  0  0  0
  -23.2795  -14.1644   26.3121 C   0  0  0  0  0  0  0  0  0  0  0  0
  -25.3843  -19.0831   27.3791 C   0  0  0  0  0  0  0  0  0  0  0  0
  -23.5559  -13.1455   27.2349 C   0  0  0  0  0  0  0  0  0  0  0  0
  -22.3387   -8.1442   21.4655 C   0  0  0  0  0  0  0  0  0  0  0  0
  -24.9420  -12.0351   25.5748 C   0  0  0  0  0  0  0  0  0  0  0  0
  -20.3158   -6.9718   21.2292 C   0  0  0  0  0  0  0  0  0  0  0  0
  -17.7033   -6.8750   20.2555 C   0  0  0  0  0  0  0  0  0  0  0  0
  -19.3807   -7.9192   21.6459 C   0  0  0  0  0  0  0  0  0  0  0  0
  -24.5940  -11.6416   20.7044 C   0  0  0  0  0  0  0  0  0  0  0  0
  -28.9796  -13.9325   27.1148 C   0  0  0  0  0  0  0  0  0  0  0  0
  -30.1967  -14.2901   26.5778 C   0  0  0  0  0  0  0  0  0  0  0  0
  -29.1536  -11.8724   26.1374 C   0  0  0  0  0  0  0  0  0  0  0  0
  -30.3704  -12.2302   25.5997 C   0  0  0  0  0  0  0  0  0  0  0  0
  -25.2582  -13.7255   20.4775 C   0  0  0  0  0  0  0  0  0  0  0  0
  -22.8965  -13.4915   21.2625 C   0  0  0  0  0  0  0  0  0  0  0  0
  -23.5058  -16.2060   28.7379 C   0  0  0  0  0  0  0  0  0  0  0  0
  -21.2345  -14.2964   30.0482 C   0  0  0  0  0  0  0  0  0  0  0  0
  -19.7463  -11.2276   30.1685 C   0  0  0  0  0  0  0  0  0  0  0  0
  -30.7419  -14.7457   20.6594 C   0  0  0  0  0  0  0  0  0  0  0  0
  -24.4612  -21.2112   28.4326 C   0  0  0  0  0  0  0  0  0  0  0  0
  -22.3636  -15.2989   26.6816 C   0  0  0  0  0  0  0  0  0  0  0  0
  -22.9822  -13.1597   28.6274 C   0  0  0  0  0  0  0  0  0  0  0  0
  -23.7050  -20.3009   29.3968 C   0  0  0  0  0  0  0  0  0  0  0  0
  -29.6021  -12.3604   18.2745 C   0  0  0  0  0  0  0  0  0  0  0  0
  -24.5633  -19.0999   29.7814 C   0  0  0  0  0  0  0  0  0  0  0  0
  -28.1652  -12.0665   18.7091 C   0  0  0  0  0  0  0  0  0  0  0  0
  -30.5206  -12.5817   19.4743 C   0  0  0  0  0  0  0  0  0  0  0  0
  -28.6202  -13.3127   20.8629 C   0  0  0  0  0  0  0  0  0  0  0  0
  -24.9089  -18.2523   28.5512 C   0  0  1  0  0  0  0  0  0  0  0  0
  -22.2804  -15.5336   28.1868 C   0  0  1  0  0  0  0  0  0  0  0  0
  -27.6448  -13.1376   19.6864 C   0  0  2  0  0  0  0  0  0  0  0  0
  -28.1962  -14.8757   27.9620 C   0  0  0  0  0  0  0  0  0  0  0  0
  -33.4040  -10.7859   23.6981 C   0  0  0  0  0  0  0  0  0  0  0  0
  -17.9422   -9.9587   31.3655 C   0  0  0  0  0  0  0  0  0  0  0  0
  -23.0458  -14.0284   32.4890 C   0  0  0  0  0  0  0  0  0  0  0  0
  -21.6772  -12.0566   33.2013 C   0  0  0  0  0  0  0  0  0  0  0  0
  -20.6173  -14.3073   33.0176 C   0  0  0  0  0  0  0  0  0  0  0  0
  -18.2455  -10.7661   27.6598 C   0  0  0  0  0  0  0  0  0  0  0  0
  -30.7870  -15.6373   26.8194 C   0  0  0  0  0  0  0  0  0  0  0  0
  -28.5570  -10.5092   25.8942 C   0  0  0  0  0  0  0  0  0  0  0  0
  -31.1534  -11.2868   24.7523 C   0  0  0  0  0  0  0  0  0  0  0  0
  -32.5968  -11.7665   24.5341 C   0  0  0  0  0  0  0  0  0  0  0  0
  -31.6217  -16.1298   25.6271 C   0  0  0  0  0  0  0  0  0  0  0  0
  -27.9454  -10.3441   24.5012 C   0  0  0  0  0  0  0  0  0  0  0  0
  -30.7745  -16.2754   24.3612 C   0  0  0  0  0  0  0  0  0  0  0  0
  -31.6264  -16.7288   23.1721 C   0  0  0  0  0  0  0  0  0  0  0  0
  -30.8087  -16.8966   21.8956 C   0  0  0  0  0  0  0  0  0  0  0  0
  -26.7614  -11.2701   24.2480 C   0  0  0  0  0  0  0  0  0  1  0  0
  -21.2468  -13.0581   30.9116 C   0  0  1  0  0  0  0  0  0  0  0  0
  -18.2853  -10.8154   30.1567 C   0  0  2  0  0  0  0  0  0  0  0  0
  -21.6593  -13.3631   32.3793 C   0  0  0  0  0  0  0  0  0  0  0  0
  -25.8584  -11.5460   20.2847 N   0  0  0  0  0  0  0  0  0  0  0  0
  -28.4363  -12.7172   26.9043 N   0  0  0  0  0  0  0  0  0  0  0  0
  -30.9139  -13.4454   25.8106 N   0  0  0  0  0  0  0  0  0  0  0  0
  -26.2349  -12.8296   20.1556 N   0  0  0  0  0  0  0  0  0  0  0  0
  -22.0973  -14.2932   28.9430 N   0  0  0  0  0  0  0  0  0  0  0  0
  -29.9708  -13.6103   20.3606 N   0  0  0  0  0  0  0  0  0  0  0  0
  -25.4682  -15.0570   20.4039 N   0  0  0  0  0  0  0  0  0  0  0  0
  -21.8852  -12.5822   21.6011 N   0  0  0  0  0  0  0  0  0  0  0  0
  -23.7784  -17.4345   28.1670 N   0  0  0  0  0  0  0  0  0  0  0  0
  -19.9265  -12.4525   30.7755 N   0  0  0  0  0  0  0  0  0  0  0  0
  -30.1435  -15.6746   21.5019 N   0  0  0  0  0  0  0  0  0  0  0  0
  -17.9772  -10.0352   28.9250 N   0  3  0  0  0  0  0  0  0  0  0  0
  -22.6600  -14.7221   21.3198 O   0  0  0  0  0  0  0  0  0  0  0  0
  -24.1552  -15.6519   29.6172 O   0  0  0  0  0  0  0  0  0  0  0  0
  -20.4817  -15.2292   30.3394 O   0  0  0  0  0  0  0  0  0  0  0  0
  -20.6389  -10.5308   29.6906 O   0  0  0  0  0  0  0  0  0  0  0  0
  -31.8773  -14.9213   20.2044 O   0  0  0  0  0  0  0  0  0  0  0  0
  -21.6132   -7.0190   21.7110 O   0  0  0  0  0  0  0  0  0  0  0  0
  -25.7532  -11.0012   25.2215 O   0  0  0  0  0  0  0  0  0  1  0  0
  -16.4494   -6.8294   19.7867 F   0  0  0  0  0  0  0  0  0  0  0  0
  -19.7316   -8.8788   22.5130 F   0  0  0  0  0  0  0  0  0  0  0  0
  1  2  1  0  0  0  0
  1  5  2  0  0  0  0
  2  6  2  0  0  0  0
  3  8  2  0  0  0  0
  3 15  1  0  0  0  0
  4  9  1  0  0  0  0
  4 15  2  0  0  0  0
  5 17  1  0  0  0  0
  6 19  1  0  0  0  0
  7 10  2  0  0  0  0
  7 18  1  0  0  0  0
  8 21  1  0  0  0  0
  9 21  2  0  0  0  0
 10 22  1  0  0  0  0
 11 12  2  0  0  0  0
 11 23  1  0  0  0  0
 12 24  1  0  0  0  0
 13 20  1  0  0  0  0
 13 22  2  0  0  0  0
 14 24  2  0  0  0  0
 14 25  1  0  0  0  0
 15 26  1  0  0  0  0
 16 26  1  0  0  0  0
 16 31  2  0  0  0  0
 16 32  1  0  0  0  0
 17 19  2  0  0  0  0
 17 37  1  0  0  0  0
 18 20  2  0  0  0  0
 18 38  1  0  0  0  0
 19 46  1  0  0  0  0
 20 39  1  0  0  0  0
 21 86  1  0  0  0  0
 22 87  1  0  0  0  0
 23 25  2  0  0  0  0
 23 86  1  0  0  0  0
 24 88  1  0  0  0  0
 25 89  1  0  0  0  0
 26 69  2  0  0  0  0
 27 28  1  0  0  0  0
 27 49  1  0  0  0  0
 27 70  2  0  0  0  0
 28 56  1  0  0  0  0
 28 71  2  0  0  0  0
 29 30  2  0  0  0  0
 29 57  1  0  0  0  0
 29 70  1  0  0  0  0
 30 58  1  0  0  0  0
 30 71  1  0  0  0  0
 31 72  1  0  0  0  0
 31 75  1  0  0  0  0
 32 76  1  0  0  0  0
 32 81  2  0  0  0  0
 33 47  1  0  0  0  0
 33 77  1  0  0  0  0
 33 82  2  0  0  0  0
 34 66  1  0  0  0  0
 34 73  1  0  0  0  0
 34 83  2  0  0  0  0
 35 67  1  0  0  0  0
 35 78  1  0  0  0  0
 35 84  2  0  0  0  0
 36 74  1  0  0  0  0
 36 79  1  0  0  0  0
 36 85  2  0  0  0  0
 37 40  1  0  0  0  0
 38 47  1  0  0  0  0
 39 73  1  0  0  0  0
 40 42  1  0  0  0  0
 41 43  1  0  0  0  0
 41 44  1  0  0  0  0
 42 46  1  0  0  0  0
 43 48  1  0  0  0  0
 44 74  1  0  0  0  0
 45 48  1  0  0  0  0
 45 74  1  0  0  0  0
 46 77  1  0  0  0  0
 47 73  1  0  0  0  0
 48 72  1  0  0  0  0
 50 59  1  0  0  0  0
 51 67  1  0  0  0  0
 52 68  1  0  0  0  0
 53 68  1  0  0  0  0
 54 68  1  0  0  0  0
 55 80  1  0  0  0  0
 56 60  1  0  0  0  0
 57 61  1  0  0  0  0
 58 59  1  0  0  0  0
 60 62  1  0  0  0  0
 61 65  1  0  0  0  0
 62 63  1  0  0  0  0
 63 64  1  0  0  0  0
 64 79  1  0  0  0  0
 65 87  1  0  0  0  0
 66 68  1  0  0  0  0
 66 78  1  0  0  0  0
 67 80  1  0  0  0  0
 69 72  1  0  0  0  0
M  CHG  1  80   1
M  ISO  4  36 100  65 101  79 100  87 101
M  END
> <Batch ID>
0039

> <Smiles>
CCCc1nc(CCCCC[100NH:0][100C:0](=O)N2CCCC(n3nc(-c4ccc(Oc5ccc(F)cc5F)cc4)c(C(N)=O)c3N)C2)c(C)nc1CC[101CH2:1][101O:1]c1ccc2c(c1)CN(C(=O)C(NC(=O)C(C)NC)C(C)(C)C)C(C(=O)NC1CCCc3ccccc31)C2

> <Shape>
0.140

> <Color>
0.184

> <Negative vol penalty>
0.000

$$$$

  -OEChem-04052317043D

 85 93  0     1  0  0  0  0  0999 V2000
  -24.1743  -20.4443   14.7914 C   0  0  0  0  0  0  0  0  0  0  0  0
  -24.8754  -19.3226   15.2220 C   0  0  0  0  0  0  0  0  0  0  0  0
  -26.2985  -27.9993   18.9644 C   0  0  0  0  0  0  0  0  0  0  0  0
  -26.2714  -27.1304   21.2186 C   0  0  0  0  0  0  0  0  0  0  0  0
  -23.5184  -21.2533   15.7184 C   0  0  0  0  0  0  0  0  0  0  0  0
  -24.9220  -19.0098   16.5801 C   0  0  0  0  0  0  0  0  0  0  0  0
  -25.0229  -13.4146   19.0679 C   0  0  0  0  0  0  0  0  0  0  0  0
  -25.2014  -28.8073   19.2626 C   0  0  0  0  0  0  0  0  0  0  0  0
  -25.1742  -27.9385   21.5168 C   0  0  0  0  0  0  0  0  0  0  0  0
  -26.0622  -12.6234   19.5554 C   0  0  0  0  0  0  0  0  0  0  0  0
  -21.8358  -27.9030   20.9836 C   0  0  0  0  0  0  0  0  0  0  0  0
  -20.7762  -27.3251   21.6828 C   0  0  0  0  0  0  0  0  0  0  0  0
  -25.6052  -13.4102   21.7895 C   0  0  0  0  0  0  0  0  0  0  0  0
  -21.0802  -28.9258   23.4667 C   0  0  0  0  0  0  0  0  0  0  0  0
  -30.0614  -14.5838   20.1657 C   0  0  0  0  0  0  0  0  0  0  0  0
  -26.8335  -27.1607   19.9424 C   0  0  0  0  0  0  0  0  0  0  0  0
  -29.3281  -26.6531   19.7777 C   0  0  0  0  0  0  0  0  0  0  0  0
  -23.5489  -20.9449   17.0875 C   0  0  0  0  0  0  0  0  0  0  0  0
  -24.2727  -14.2192   19.9376 C   0  0  0  0  0  0  0  0  0  0  0  0
  -24.2671  -19.8162   17.5264 C   0  0  0  0  0  0  0  0  0  0  0  0
  -24.5552  -14.2088   21.3109 C   0  0  0  0  0  0  0  0  0  0  0  0
  -30.4323  -15.8552   20.5296 C   0  0  0  0  0  0  0  0  0  0  0  0
  -24.6393  -28.7770   20.5388 C   0  0  0  0  0  0  0  0  0  0  0  0
  -26.3554  -12.6233   20.9160 C   0  0  0  0  0  0  0  0  0  0  0  0
  -22.5176  -28.9924   21.5260 C   0  0  0  0  0  0  0  0  0  0  0  0
  -20.3984  -27.8365   22.9244 C   0  0  0  0  0  0  0  0  0  0  0  0
  -22.1398  -29.5038   22.7675 C   0  0  0  0  0  0  0  0  0  0  0  0
  -27.9665  -26.3254   19.6347 C   0  0  0  0  0  0  0  0  0  0  0  0
  -31.0324  -15.6987   21.7933 C   0  0  0  0  0  0  0  0  0  0  0  0
  -29.9976  -25.5311   19.3542 C   0  0  0  0  0  0  0  0  0  0  0  0
  -29.9335  -27.8635   20.2511 C   0  0  0  0  0  0  0  0  0  0  0  0
  -23.7660  -17.3439   20.2263 C   0  0  0  0  0  0  0  0  0  0  0  0
  -21.6495  -16.3960   22.4945 C   0  0  0  0  0  0  0  0  0  0  0  0
  -20.6773  -14.0119   24.7345 C   0  0  0  0  0  0  0  0  0  0  0  0
  -28.4408  -19.8378   19.2200 C   0  0  0  0  0  0  0  0  0  0  0  0
  -22.8642  -21.8757   18.0568 C   0  0  0  0  0  0  0  0  0  0  0  0
  -23.1376  -15.0465   19.3997 C   0  0  0  0  0  0  0  0  0  0  0  0
  -23.7666  -15.0392   22.2891 C   0  0  0  0  0  0  0  0  0  0  0  0
  -22.6495  -21.2651   19.4393 C   0  0  0  0  0  0  0  0  0  0  0  0
  -29.5522  -21.8001   16.3896 C   0  0  0  0  0  0  0  0  0  0  0  0
  -23.9230  -20.5789   19.9234 C   0  0  0  0  0  0  0  0  0  0  0  0
  -29.3969  -23.2240   16.9269 C   0  0  0  0  0  0  0  0  0  0  0  0
  -28.4245  -20.8976   16.8814 C   0  0  0  0  0  0  0  0  0  0  0  0
  -28.1179  -22.2744   18.9023 C   0  0  0  0  0  0  0  0  0  0  0  0
  -24.3201  -19.4300   18.9887 C   0  0  1  0  0  0  0  0  0  0  0  0
  -22.7722  -16.2195   20.3041 C   0  0  1  0  0  0  0  0  0  0  0  0
  -29.2400  -23.2307   18.4590 C   0  0  2  0  0  0  0  0  0  0  0  0
  -28.4197  -17.9598   24.5385 C   0  0  0  0  0  0  0  0  0  0  0  0
  -18.9306  -13.5375   26.4727 C   0  0  0  0  0  0  0  0  0  0  0  0
  -23.0558  -18.2969   24.4229 C   0  0  0  0  0  0  0  0  0  0  0  0
  -21.9259  -17.1046   26.3123 C   0  0  0  0  0  0  0  0  0  0  0  0
  -20.5609  -18.2930   24.5956 C   0  0  0  0  0  0  0  0  0  0  0  0
  -19.7021  -11.6311   23.2717 C   0  0  0  0  0  0  0  0  0  0  0  0
  -30.2391  -17.0963   19.7607 C   0  0  0  0  0  0  0  0  0  0  0  0
  -31.6138  -16.7447   22.6528 C   0  0  0  0  0  0  0  0  0  0  0  0
  -29.3232  -17.6250   23.3624 C   0  0  0  0  0  0  0  0  0  0  0  0
  -30.6917  -17.1297   23.8302 C   0  0  0  0  0  0  0  0  0  0  0  0
  -29.4914  -11.8210   22.5142 C   0  0  0  0  0  0  0  0  0  0  0  0
  -30.2611  -12.2803   21.2739 C   0  0  0  0  0  0  0  0  0  0  0  0
  -28.7736  -17.3841   19.3811 C   0  0  0  0  0  0  0  0  0  0  0  0
  -28.0536  -12.3255   22.5541 C   0  0  0  0  0  0  0  0  0  1  0  0
  -21.7202  -16.1324   23.9792 C   0  0  1  0  0  0  0  0  0  0  0  0
  -19.3240  -13.3825   25.0119 C   0  0  2  0  0  0  0  0  0  0  0  0
  -21.8320  -17.4424   24.8091 C   0  0  0  0  0  0  0  0  0  0  0  0
  -27.7804  -25.0918   19.1575 N   0  0  0  0  0  0  0  0  0  0  0  0
  -31.0442  -14.4280   22.2047 N   0  0  0  0  0  0  0  0  0  0  0  0
  -30.4467  -13.7745   21.1937 N   0  0  0  0  0  0  0  0  0  0  0  0
  -29.0339  -24.6346   18.9969 N   0  0  0  0  0  0  0  0  0  0  0  0
  -22.6706  -15.8362   21.7137 N   0  0  0  0  0  0  0  0  0  0  0  0
  -28.3408  -20.9348   18.3483 N   0  0  0  0  0  0  0  0  0  0  0  0
  -31.3108  -25.2338   19.2562 N   0  0  0  0  0  0  0  0  0  0  0  0
  -29.0989  -28.9177   20.6466 N   0  0  0  0  0  0  0  0  0  0  0  0
  -23.4932  -18.2683   19.2361 N   0  0  0  0  0  0  0  0  0  0  0  0
  -20.5554  -15.3164   24.3048 N   0  0  0  0  0  0  0  0  0  0  0  0
  -28.6447  -18.6037   18.6149 N   0  0  0  0  0  0  0  0  0  0  0  0
  -19.3518  -11.9289   24.6844 N   0  3  0  0  0  0  0  0  0  0  0  0
  -31.1779  -28.0119   20.3058 O   0  0  0  0  0  0  0  0  0  0  0  0
  -24.7094  -17.3714   21.0079 O   0  0  0  0  0  0  0  0  0  0  0  0
  -20.7185  -17.0678   22.0432 O   0  0  0  0  0  0  0  0  0  0  0  0
  -21.7367  -13.4080   24.8874 O   0  0  0  0  0  0  0  0  0  0  0  0
  -28.3599  -19.9504   20.4480 O   0  0  0  0  0  0  0  0  0  0  0  0
  -23.5689  -29.5655   20.8302 O   0  0  0  0  0  0  0  0  0  0  0  0
  -27.3697  -11.8525   21.3944 O   0  0  0  0  0  0  0  0  0  1  0  0
  -19.3799  -27.2823   23.5950 F   0  0  0  0  0  0  0  0  0  0  0  0
  -22.7903  -30.5509   23.2931 F   0  0  0  0  0  0  0  0  0  0  0  0
  1  2  1  0  0  0  0
  1  5  2  0  0  0  0
  2  6  2  0  0  0  0
  3  8  2  0  0  0  0
  3 16  1  0  0  0  0
  4  9  1  0  0  0  0
  4 16  2  0  0  0  0
  5 18  1  0  0  0  0
  6 20  1  0  0  0  0
  7 10  2  0  0  0  0
  7 19  1  0  0  0  0
  8 23  1  0  0  0  0
  9 23  2  0  0  0  0
 10 24  1  0  0  0  0
 11 12  2  0  0  0  0
 11 25  1  0  0  0  0
 12 26  1  0  0  0  0
 13 21  1  0  0  0  0
 13 24  2  0  0  0  0
 14 26  2  0  0  0  0
 14 27  1  0  0  0  0
 15 22  2  0  0  0  0
 15 67  1  0  0  0  0
 16 28  1  0  0  0  0
 17 28  1  0  0  0  0
 17 30  2  0  0  0  0
 17 31  1  0  0  0  0
 18 20  2  0  0  0  0
 18 36  1  0  0  0  0
 19 21  2  0  0  0  0
 19 37  1  0  0  0  0
 20 45  1  0  0  0  0
 21 38  1  0  0  0  0
 22 29  1  0  0  0  0
 22 54  1  0  0  0  0
 23 82  1  0  0  0  0
 24 83  1  0  0  0  0
 25 27  2  0  0  0  0
 25 82  1  0  0  0  0
 26 84  1  0  0  0  0
 27 85  1  0  0  0  0
 28 65  2  0  0  0  0
 29 55  1  0  0  0  0
 29 66  2  0  0  0  0
 30 68  1  0  0  0  0
 30 71  1  0  0  0  0
 31 72  1  0  0  0  0
 31 77  2  0  0  0  0
 32 46  1  0  0  0  0
 32 73  1  0  0  0  0
 32 78  2  0  0  0  0
 33 62  1  0  0  0  0
 33 69  1  0  0  0  0
 33 79  2  0  0  0  0
 34 63  1  0  0  0  0
 34 74  1  0  0  0  0
 34 80  2  0  0  0  0
 35 70  1  0  0  0  0
 35 75  1  0  0  0  0
 35 81  2  0  0  0  0
 36 39  1  0  0  0  0
 37 46  1  0  0  0  0
 38 69  1  0  0  0  0
 39 41  1  0  0  0  0
 40 42  1  0  0  0  0
 40 43  1  0  0  0  0
 41 45  1  0  0  0  0
 42 47  1  0  0  0  0
 43 70  1  0  0  0  0
 44 47  1  0  0  0  0
 44 70  1  0  0  0  0
 45 73  1  0  0  0  0
 46 69  1  0  0  0  0
 47 68  1  0  0  0  0
 48 56  1  0  0  0  0
 49 63  1  0  0  0  0
 50 64  1  0  0  0  0
 51 64  1  0  0  0  0
 52 64  1  0  0  0  0
 53 76  1  0  0  0  0
 54 60  1  0  0  0  0
 55 57  1  0  0  0  0
 56 57  1  0  0  0  0
 58 59  1  0  0  0  0
 58 61  1  0  0  0  0
 59 67  1  0  0  0  0
 60 75  1  0  0  0  0
 61 83  1  0  0  0  0
 62 64  1  0  0  0  0
 62 74  1  0  0  0  0
 63 76  1  0  0  0  0
 65 68  1  0  0  0  0
 66 67  1  0  0  0  0
M  CHG  1  76   1
M  ISO  4  35 100  61 101  75 100  83 101
M  END
> <Batch ID>
0039

> <Smiles>
CCCCc1nn(CC[101CH2:1][101O:1]c2ccc3c(c2)CN(C(=O)C(NC(=O)C(C)NC)C(C)(C)C)C(C(=O)NC2CCCc4ccccc42)C3)cc1CC[100NH:0][100C:0](=O)N1CCCC(n2nc(-c3ccc(Oc4ccc(F)cc4F)cc3)c(C(N)=O)c2N)C1

> <Shape>
0.235

> <Color>
0.045

> <Negative vol penalty>
0.000

$$$$

  -OEChem-04052317043D

 85 93  0     1  0  0  0  0  0999 V2000
  -30.4523  -33.4246   25.5833 C   0  0  0  0  0  0  0  0  0  0  0  0
  -30.4074  -32.3158   24.7443 C   0  0  0  0  0  0  0  0  0  0  0  0
  -22.9506  -10.0185   20.0192 C   0  0  0  0  0  0  0  0  0  0  0  0
  -23.6915  -10.0694   22.3182 C   0  0  0  0  0  0  0  0  0  0  0  0
  -29.3407  -33.7583   26.3559 C   0  0  0  0  0  0  0  0  0  0  0  0
  -29.2511  -31.5393   24.6782 C   0  0  0  0  0  0  0  0  0  0  0  0
  -27.0212  -28.6684   19.7496 C   0  0  0  0  0  0  0  0  0  0  0  0
  -22.1662   -8.8990   20.2968 C   0  0  0  0  0  0  0  0  0  0  0  0
  -22.9071   -8.9499   22.5959 C   0  0  0  0  0  0  0  0  0  0  0  0
  -27.1056  -27.3459   19.3163 C   0  0  0  0  0  0  0  0  0  0  0  0
  -23.0902   -5.6047   22.1411 C   0  0  0  0  0  0  0  0  0  0  0  0
  -23.6649   -4.5816   22.8951 C   0  0  0  0  0  0  0  0  0  0  0  0
  -24.9653  -26.8840   20.3286 C   0  0  0  0  0  0  0  0  0  0  0  0
  -27.0034  -20.6643   17.3158 C   0  0  0  0  0  0  0  0  0  0  0  0
  -26.9073  -23.0076   16.7355 C   0  0  0  0  0  0  0  0  0  0  0  0
  -27.4116  -22.3444   19.0033 C   0  0  0  0  0  0  0  0  0  0  0  0
  -21.9564   -4.8637   24.5799 C   0  0  0  0  0  0  0  0  0  0  0  0
  -23.7133  -10.6037   21.0299 C   0  0  0  0  0  0  0  0  0  0  0  0
  -24.1412  -13.1112   20.8374 C   0  0  0  0  0  0  0  0  0  0  0  0
  -28.1668  -32.9911   26.2920 C   0  0  0  0  0  0  0  0  0  0  0  0
  -25.9114  -29.1065   20.4864 C   0  0  0  0  0  0  0  0  0  0  0  0
  -28.1232  -31.8622   25.4517 C   0  0  0  0  0  0  0  0  0  0  0  0
  -24.8680  -28.2131   20.7680 C   0  0  0  0  0  0  0  0  0  0  0  0
  -26.8033  -21.6665   16.3664 C   0  0  0  0  0  0  0  0  0  0  0  0
  -27.3075  -21.0033   18.6342 C   0  0  0  0  0  0  0  0  0  0  0  0
  -27.2115  -23.3466   18.0539 C   0  0  0  0  0  0  0  0  0  0  0  0
  -22.1444   -8.3647   21.5851 C   0  0  0  0  0  0  0  0  0  0  0  0
  -26.0789  -26.4528   19.6082 C   0  0  0  0  0  0  0  0  0  0  0  0
  -21.9487   -6.2574   22.6065 C   0  0  0  0  0  0  0  0  0  0  0  0
  -23.0980   -4.2110   24.1145 C   0  0  0  0  0  0  0  0  0  0  0  0
  -21.3818   -5.8869   23.8259 C   0  0  0  0  0  0  0  0  0  0  0  0
  -24.5242  -11.7598   20.7437 C   0  0  0  0  0  0  0  0  0  0  0  0
  -25.2609  -13.8123   20.4619 C   0  0  0  0  0  0  0  0  0  0  0  0
  -22.8854  -13.6817   21.2290 C   0  0  0  0  0  0  0  0  0  0  0  0
  -25.4810  -30.2829   23.4078 C   0  0  0  0  0  0  0  0  0  0  0  0
  -22.4333  -30.6876   22.3733 C   0  0  0  0  0  0  0  0  0  0  0  0
  -19.9527  -29.7445   20.2276 C   0  0  0  0  0  0  0  0  0  0  0  0
  -30.7742  -14.6523   20.6699 C   0  0  0  0  0  0  0  0  0  0  0  0
  -27.0070  -33.3633   27.1813 C   0  0  0  0  0  0  0  0  0  0  0  0
  -25.8231  -30.5430   20.9236 C   0  0  0  0  0  0  0  0  0  0  0  0
  -23.6457  -28.6387   21.5383 C   0  0  0  0  0  0  0  0  0  0  0  0
  -25.6908  -32.7071   26.7724 C   0  0  0  0  0  0  0  0  0  0  0  0
  -29.5763  -12.2361   18.3454 C   0  0  0  0  0  0  0  0  0  0  0  0
  -25.8986  -31.2218   26.4942 C   0  0  0  0  0  0  0  0  0  0  0  0
  -28.1263  -12.0039   18.7737 C   0  0  0  0  0  0  0  0  0  0  0  0
  -30.4905  -12.4623   19.5475 C   0  0  0  0  0  0  0  0  0  0  0  0
  -28.6033  -13.2983   20.8940 C   0  0  0  0  0  0  0  0  0  0  0  0
  -26.8784  -31.0096   25.3339 C   0  0  1  0  0  0  0  0  0  0  0  0
  -24.8860  -30.7501   22.1095 C   0  0  1  0  0  0  0  0  0  0  0  0
  -27.6334  -13.1209   19.7132 C   0  0  2  0  0  0  0  0  0  0  0  0
  -27.7287  -21.1410   14.0962 C   0  0  0  0  0  0  0  0  0  0  0  0
  -17.5602  -30.2303   19.6469 C   0  0  0  0  0  0  0  0  0  0  0  0
  -21.5229  -29.1418   24.8414 C   0  0  0  0  0  0  0  0  0  0  0  0
  -19.2937  -28.8378   23.7429 C   0  0  0  0  0  0  0  0  0  0  0  0
  -20.1157  -31.1312   24.2787 C   0  0  0  0  0  0  0  0  0  0  0  0
  -20.6671  -30.5726   17.4776 C   0  0  0  0  0  0  0  0  0  0  0  0
  -26.4784  -21.3034   14.9568 C   0  0  0  0  0  0  0  0  0  0  0  0
  -27.5220  -19.9321   19.6497 C   0  0  0  0  0  0  0  0  0  0  0  0
  -27.3233  -24.7893   18.4505 C   0  0  0  0  0  0  0  0  0  1  0  0
  -28.9921  -19.4936   19.7307 C   0  0  0  0  0  0  0  0  0  0  0  0
  -29.1937  -18.3675   20.7467 C   0  0  0  0  0  0  0  0  0  0  0  0
  -30.6685  -17.9669   20.8462 C   0  0  0  0  0  0  0  0  0  0  0  0
  -30.9025  -16.8359   21.8424 C   0  0  0  0  0  0  0  0  0  0  0  0
  -21.1809  -29.8447   22.3807 C   0  0  1  0  0  0  0  0  0  0  0  0
  -19.0159  -30.5565   19.3516 C   0  0  2  0  0  0  0  0  0  0  0  0
  -20.5521  -29.7300   23.7981 C   0  0  0  0  0  0  0  0  0  0  0  0
  -25.7885  -11.6090   20.3401 N   0  0  0  0  0  0  0  0  0  0  0  0
  -26.2096  -12.8748   20.1768 N   0  0  0  0  0  0  0  0  0  0  0  0
  -23.6089  -30.0519   21.9494 N   0  0  0  0  0  0  0  0  0  0  0  0
  -29.9678  -13.5351   20.3971 N   0  0  0  0  0  0  0  0  0  0  0  0
  -25.5167  -15.1332   20.3509 N   0  0  0  0  0  0  0  0  0  0  0  0
  -21.8407  -12.8176   21.5840 N   0  0  0  0  0  0  0  0  0  0  0  0
  -26.2202  -31.2465   24.0669 N   0  0  0  0  0  0  0  0  0  0  0  0
  -20.2932  -30.4238   21.3782 N   0  0  0  0  0  0  0  0  0  0  0  0
  -30.1999  -15.6258   21.4782 N   0  0  0  0  0  0  0  0  0  0  0  0
  -19.2781  -30.2743   17.9120 N   0  3  0  0  0  0  0  0  0  0  0  0
  -22.6904  -14.9207   21.2472 O   0  0  0  0  0  0  0  0  0  0  0  0
  -25.2826  -29.1337   23.7844 O   0  0  0  0  0  0  0  0  0  0  0  0
  -22.3694  -31.8686   22.7237 O   0  0  0  0  0  0  0  0  0  0  0  0
  -20.3404  -28.6186   19.9236 O   0  0  0  0  0  0  0  0  0  0  0  0
  -31.9191  -14.7758   20.2217 O   0  0  0  0  0  0  0  0  0  0  0  0
  -21.3789   -7.2725   21.8564 O   0  0  0  0  0  0  0  0  0  0  0  0
  -26.1590  -25.1613   19.1870 O   0  0  0  0  0  0  0  0  0  1  0  0
  -23.6490   -3.2274   24.8377 F   0  0  0  0  0  0  0  0  0  0  0  0
  -20.2845   -6.5094   24.2777 F   0  0  0  0  0  0  0  0  0  0  0  0
  1  2  1  0  0  0  0
  1  5  2  0  0  0  0
  2  6  2  0  0  0  0
  3  8  2  0  0  0  0
  3 18  1  0  0  0  0
  4  9  1  0  0  0  0
  4 18  2  0  0  0  0
  5 20  1  0  0  0  0
  6 22  1  0  0  0  0
  7 10  2  0  0  0  0
  7 21  1  0  0  0  0
  8 27  1  0  0  0  0
  9 27  2  0  0  0  0
 10 28  1  0  0  0  0
 11 12  2  0  0  0  0
 11 29  1  0  0  0  0
 12 30  1  0  0  0  0
 13 23  1  0  0  0  0
 13 28  2  0  0  0  0
 14 24  1  0  0  0  0
 14 25  2  0  0  0  0
 15 24  2  0  0  0  0
 15 26  1  0  0  0  0
 16 25  1  0  0  0  0
 16 26  2  0  0  0  0
 17 30  2  0  0  0  0
 17 31  1  0  0  0  0
 18 32  1  0  0  0  0
 19 32  1  0  0  0  0
 19 33  2  0  0  0  0
 19 34  1  0  0  0  0
 20 22  2  0  0  0  0
 20 39  1  0  0  0  0
 21 23  2  0  0  0  0
 21 40  1  0  0  0  0
 22 48  1  0  0  0  0
 23 41  1  0  0  0  0
 24 57  1  0  0  0  0
 25 58  1  0  0  0  0
 26 59  1  0  0  0  0
 27 82  1  0  0  0  0
 28 83  1  0  0  0  0
 29 31  2  0  0  0  0
 29 82  1  0  0  0  0
 30 84  1  0  0  0  0
 31 85  1  0  0  0  0
 32 67  2  0  0  0  0
 33 68  1  0  0  0  0
 33 71  1  0  0  0  0
 34 72  1  0  0  0  0
 34 77  2  0  0  0  0
 35 49  1  0  0  0  0
 35 73  1  0  0  0  0
 35 78  2  0  0  0  0
 36 64  1  0  0  0  0
 36 69  1  0  0  0  0
 36 79  2  0  0  0  0
 37 65  1  0  0  0  0
 37 74  1  0  0  0  0
 37 80  2  0  0  0  0
 38 70  1  0  0  0  0
 38 75  1  0  0  0  0
 38 81  2  0  0  0  0
 39 42  1  0  0  0  0
 40 49  1  0  0  0  0
 41 69  1  0  0  0  0
 42 44  1  0  0  0  0
 43 45  1  0  0  0  0
 43 46  1  0  0  0  0
 44 48  1  0  0  0  0
 45 50  1  0  0  0  0
 46 70  1  0  0  0  0
 47 50  1  0  0  0  0
 47 70  1  0  0  0  0
 48 73  1  0  0  0  0
 49 69  1  0  0  0  0
 50 68  1  0  0  0  0
 51 57  1  0  0  0  0
 52 65  1  0  0  0  0
 53 66  1  0  0  0  0
 54 66  1  0  0  0  0
 55 66  1  0  0  0  0
 56 76  1  0  0  0  0
 58 60  1  0  0  0  0
 59 83  1  0  0  0  0
 60 61  1  0  0  0  0
 61 62  1  0  0  0  0
 62 63  1  0  0  0  0
 63 75  1  0  0  0  0
 64 66  1  0  0  0  0
 64 74  1  0  0  0  0
 65 76  1  0  0  0  0
 67 68  1  0  0  0  0
M  CHG  1  76   1
M  ISO  4  38 100  59 101  75 100  83 101
M  END
> <Batch ID>
0039

> <Smiles>
CCc1cc(CCCCC[100NH:0][100C:0](=O)N2CCCC(n3nc(-c4ccc(Oc5ccc(F)cc5F)cc4)c(C(N)=O)c3N)C2)cc([101CH2:1][101O:1]c2ccc3c(c2)CN(C(=O)C(NC(=O)C(C)NC)C(C)(C)C)C(C(=O)NC2CCCc4ccccc42)C3)c1

> <Shape>
0.377

> <Color>
0.237

> <Negative vol penalty>
0.000

$$$$

  -OEChem-04052317043D

 87 95  0     1  0  0  0  0  0999 V2000
  -28.1313  -11.2823   18.6943 C   0  0  0  0  0  0  0  0  0  0  0  0
  -28.2807  -12.6591   18.5618 C   0  0  0  0  0  0  0  0  0  0  0  0
  -19.7520  -27.2036   21.3720 C   0  0  0  0  0  0  0  0  0  0  0  0
  -20.2201  -28.0857   23.5720 C   0  0  0  0  0  0  0  0  0  0  0  0
  -27.0302  -10.7640   19.3747 C   0  0  0  0  0  0  0  0  0  0  0  0
  -27.3284  -13.5184   19.1087 C   0  0  0  0  0  0  0  0  0  0  0  0
  -29.4178  -17.4187   21.5718 C   0  0  0  0  0  0  0  0  0  0  0  0
  -18.4009  -27.0975   21.7020 C   0  0  0  0  0  0  0  0  0  0  0  0
  -18.8690  -27.9796   23.9020 C   0  0  0  0  0  0  0  0  0  0  0  0
  -29.9113  -18.4690   20.7991 C   0  0  0  0  0  0  0  0  0  0  0  0
  -16.4241  -24.9916   23.4575 C   0  0  0  0  0  0  0  0  0  0  0  0
  -15.7641  -23.8124   23.1121 C   0  0  0  0  0  0  0  0  0  0  0  0
  -27.9082  -19.7348   21.2514 C   0  0  0  0  0  0  0  0  0  0  0  0
  -14.2244  -25.0749   21.7438 C   0  0  0  0  0  0  0  0  0  0  0  0
  -29.6936  -23.6308   18.2939 C   0  0  0  0  0  0  0  0  0  0  0  0
  -31.8810  -23.1681   18.1676 C   0  0  0  0  0  0  0  0  0  0  0  0
  -20.6616  -27.6977   22.3070 C   0  0  0  0  0  0  0  0  0  0  0  0
  -22.7068  -28.9127   21.3857 C   0  0  0  0  0  0  0  0  0  0  0  0
  -26.0690  -11.6176   19.9386 C   0  0  0  0  0  0  0  0  0  0  0  0
  -28.1589  -17.5144   22.1822 C   0  0  0  0  0  0  0  0  0  0  0  0
  -26.2127  -13.0110   19.7961 C   0  0  0  0  0  0  0  0  0  0  0  0
  -27.4021  -18.6854   22.0334 C   0  0  0  0  0  0  0  0  0  0  0  0
  -30.3769  -24.7840   18.6105 C   0  0  0  0  0  0  0  0  0  0  0  0
  -31.7608  -24.4913   18.5308 C   0  0  0  0  0  0  0  0  0  0  0  0
  -17.9594  -27.4855   22.9670 C   0  0  0  0  0  0  0  0  0  0  0  0
  -29.1552  -19.6262   20.6364 C   0  0  0  0  0  0  0  0  0  0  0  0
  -15.9842  -26.2126   22.9461 C   0  0  0  0  0  0  0  0  0  0  0  0
  -14.6642  -23.8540   22.2552 C   0  0  0  0  0  0  0  0  0  0  0  0
  -14.8844  -26.2542   22.0892 C   0  0  0  0  0  0  0  0  0  0  0  0
  -22.0575  -27.8070   21.9669 C   0  0  0  0  0  0  0  0  0  0  0  0
  -24.0168  -28.5177   21.2662 C   0  0  0  0  0  0  0  0  0  0  0  0
  -22.1734  -30.1831   20.9893 C   0  0  0  0  0  0  0  0  0  0  0  0
  -25.4262  -15.9074   21.9514 C   0  0  0  0  0  0  0  0  0  0  0  0
  -24.5485  -17.8125   24.4258 C   0  0  0  0  0  0  0  0  0  0  0  0
  -24.9960  -20.7327   26.1343 C   0  0  0  0  0  0  0  0  0  0  0  0
  -27.2331  -24.5940   24.2854 C   0  0  0  0  0  0  0  0  0  0  0  0
  -24.8711  -11.0097   20.6241 C   0  0  0  0  0  0  0  0  0  0  0  0
  -27.6525  -16.3832   23.0345 C   0  0  0  0  0  0  0  0  0  0  0  0
  -26.0535  -18.8460   22.6844 C   0  0  0  0  0  0  0  0  0  0  0  0
  -24.1030  -11.9977   21.4982 C   0  0  0  0  0  0  0  0  0  0  0  0
  -26.7113  -24.6021   20.7042 C   0  0  0  0  0  0  0  0  0  0  0  0
  -23.8795  -13.3091   20.7518 C   0  0  0  0  0  0  0  0  0  0  0  0
  -25.5096  -25.5398   20.5741 C   0  0  0  0  0  0  0  0  0  0  0  0
  -26.5999  -23.7306   21.9517 C   0  0  0  0  0  0  0  0  0  0  0  0
  -25.2270  -25.4291   23.0936 C   0  0  0  0  0  0  0  0  0  0  0  0
  -25.2139  -13.9762   20.3969 C   0  0  1  0  0  0  0  0  0  0  0  0
  -26.1346  -16.3838   23.1878 C   0  0  1  0  0  0  0  0  0  0  0  0
  -25.2911  -26.3529   21.8637 C   0  0  2  0  0  0  0  0  0  0  0  0
  -29.7680  -26.0815   18.9649 C   0  0  0  0  0  0  0  0  0  0  0  0
  -24.1047  -22.0267   28.0909 C   0  0  0  0  0  0  0  0  0  0  0  0
  -22.1033  -18.6075   22.7829 C   0  0  0  0  0  0  0  0  0  0  0  0
  -21.7838  -20.5514   24.3281 C   0  0  0  0  0  0  0  0  0  0  0  0
  -21.6481  -18.2226   25.2117 C   0  0  0  0  0  0  0  0  0  0  0  0
  -27.6124  -20.6696   27.5162 C   0  0  0  0  0  0  0  0  0  0  0  0
  -32.9008  -25.4431   18.7928 C   0  0  0  0  0  0  0  0  0  0  0  0
  -33.5852  -25.2320   20.1482 C   0  0  0  0  0  0  0  0  0  0  0  0
  -32.6284  -25.3952   21.3343 C   0  0  0  0  0  0  0  0  0  0  0  0
  -33.3473  -25.1452   22.6625 C   0  0  0  0  0  0  0  0  0  0  0  0
  -32.4550  -25.3642   23.8880 C   0  0  0  0  0  0  0  0  0  0  0  0
  -31.2657  -24.4023   23.9553 C   0  0  0  0  0  0  0  0  0  0  0  0
  -30.4281  -24.6470   25.2151 C   0  0  0  0  0  0  0  0  0  0  0  0
  -30.3086  -21.2947   17.6501 C   0  0  0  0  0  0  0  0  0  0  0  0
  -29.2696  -23.6637   25.3551 C   0  0  0  0  0  0  0  0  0  0  0  0
  -30.5036  -20.3158   18.8028 C   0  0  0  0  0  0  0  0  0  1  0  0
  -23.8979  -19.1689   24.5522 C   0  0  1  0  0  0  0  0  0  0  0  0
  -25.1414  -21.0196   27.6178 C   0  0  2  0  0  0  0  0  0  0  0  0
  -22.3828  -19.1341   24.2047 C   0  0  0  0  0  0  0  0  0  0  0  0
  -22.8867  -26.7863   22.2003 N   0  0  0  0  0  0  0  0  0  0  0  0
  -30.6181  -22.6551   18.0260 N   0  0  0  0  0  0  0  0  0  0  0  0
  -24.0704  -27.2488   21.7634 N   0  0  0  0  0  0  0  0  0  0  0  0
  -25.5989  -17.7097   23.5028 N   0  0  0  0  0  0  0  0  0  0  0  0
  -26.4120  -24.5664   23.1459 N   0  0  0  0  0  0  0  0  0  0  0  0
  -25.1166  -29.1355   20.7853 N   0  0  0  0  0  0  0  0  0  0  0  0
  -20.8063  -30.4236   21.1829 N   0  0  0  0  0  0  0  0  0  0  0  0
  -25.7770  -14.6298   21.5589 N   0  0  0  0  0  0  0  0  0  0  0  0
  -24.1907  -19.6378   25.9023 N   0  0  0  0  0  0  0  0  0  0  0  0
  -28.3306  -23.7422   24.2583 N   0  0  0  0  0  0  0  0  0  0  0  0
  -26.4962  -21.5678   27.9091 N   0  3  0  0  0  0  0  0  0  0  0  0
  -22.8848  -31.0725   20.4634 O   0  0  0  0  0  0  0  0  0  0  0  0
  -24.6198  -16.6438   21.3954 O   0  0  0  0  0  0  0  0  0  0  0  0
  -24.1445  -16.8804   25.1255 O   0  0  0  0  0  0  0  0  0  0  0  0
  -25.5393  -21.4141   25.2677 O   0  0  0  0  0  0  0  0  0  0  0  0
  -27.0079  -25.3279   25.2539 O   0  0  0  0  0  0  0  0  0  0  0  0
  -16.6411  -27.3823   23.2893 O   0  0  0  0  0  0  0  0  0  0  0  0
  -29.6376  -20.6598   19.8769 O   0  0  0  0  0  0  0  0  0  1  0  0
  -14.0314  -22.7213   21.9224 F   0  0  0  0  0  0  0  0  0  0  0  0
  -14.4579  -27.4240   21.5938 F   0  0  0  0  0  0  0  0  0  0  0  0
  1  2  1  0  0  0  0
  1  5  2  0  0  0  0
  2  6  2  0  0  0  0
  3  8  2  0  0  0  0
  3 17  1  0  0  0  0
  4  9  1  0  0  0  0
  4 17  2  0  0  0  0
  5 19  1  0  0  0  0
  6 21  1  0  0  0  0
  7 10  2  0  0  0  0
  7 20  1  0  0  0  0
  8 25  1  0  0  0  0
  9 25  2  0  0  0  0
 10 26  1  0  0  0  0
 11 12  2  0  0  0  0
 11 27  1  0  0  0  0
 12 28  1  0  0  0  0
 13 22  1  0  0  0  0
 13 26  2  0  0  0  0
 14 28  2  0  0  0  0
 14 29  1  0  0  0  0
 15 23  2  0  0  0  0
 15 69  1  0  0  0  0
 16 24  2  0  0  0  0
 16 69  1  0  0  0  0
 17 30  1  0  0  0  0
 18 30  1  0  0  0  0
 18 31  2  0  0  0  0
 18 32  1  0  0  0  0
 19 21  2  0  0  0  0
 19 37  1  0  0  0  0
 20 22  2  0  0  0  0
 20 38  1  0  0  0  0
 21 46  1  0  0  0  0
 22 39  1  0  0  0  0
 23 24  1  0  0  0  0
 23 49  1  0  0  0  0
 24 55  1  0  0  0  0
 25 84  1  0  0  0  0
 26 85  1  0  0  0  0
 27 29  2  0  0  0  0
 27 84  1  0  0  0  0
 28 86  1  0  0  0  0
 29 87  1  0  0  0  0
 30 68  2  0  0  0  0
 31 70  1  0  0  0  0
 31 73  1  0  0  0  0
 32 74  1  0  0  0  0
 32 79  2  0  0  0  0
 33 47  1  0  0  0  0
 33 75  1  0  0  0  0
 33 80  2  0  0  0  0
 34 65  1  0  0  0  0
 34 71  1  0  0  0  0
 34 81  2  0  0  0  0
 35 66  1  0  0  0  0
 35 76  1  0  0  0  0
 35 82  2  0  0  0  0
 36 72  1  0  0  0  0
 36 77  1  0  0  0  0
 36 83  2  0  0  0  0
 37 40  1  0  0  0  0
 38 47  1  0  0  0  0
 39 71  1  0  0  0  0
 40 42  1  0  0  0  0
 41 43  1  0  0  0  0
 41 44  1  0  0  0  0
 42 46  1  0  0  0  0
 43 48  1  0  0  0  0
 44 72  1  0  0  0  0
 45 48  1  0  0  0  0
 45 72  1  0  0  0  0
 46 75  1  0  0  0  0
 47 71  1  0  0  0  0
 48 70  1  0  0  0  0
 50 66  1  0  0  0  0
 51 67  1  0  0  0  0
 52 67  1  0  0  0  0
 53 67  1  0  0  0  0
 54 78  1  0  0  0  0
 55 56  1  0  0  0  0
 56 57  1  0  0  0  0
 57 58  1  0  0  0  0
 58 59  1  0  0  0  0
 59 60  1  0  0  0  0
 60 61  1  0  0  0  0
 61 63  1  0  0  0  0
 62 64  1  0  0  0  0
 62 69  1  0  0  0  0
 63 77  1  0  0  0  0
 64 85  1  0  0  0  0
 65 67  1  0  0  0  0
 65 76  1  0  0  0  0
 66 78  1  0  0  0  0
 68 70  1  0  0  0  0
M  CHG  1  78   1
M  ISO  4  36 100  64 101  77 100  85 101
M  END
> <Batch ID>
0039

> <Smiles>
CNC(C)C(=O)NC(C(=O)N1Cc2cc([101O:1][101CH2:1]Cn3cc(C)c(CCCCCCCC[100NH:0][100C:0](=O)N4CCCC(n5nc(-c6ccc(Oc7ccc(F)cc7F)cc6)c(C(N)=O)c5N)C4)c3)ccc2CC1C(=O)NC1CCCc2ccccc21)C(C)(C)C

> <Shape>
0.198

> <Color>
0.060

> <Negative vol penalty>
0.000

$$$$

  -OEChem-04052317043D

 85 93  0     1  0  0  0  0  0999 V2000
  -22.3010  -35.5169   24.3485 C   0  0  0  0  0  0  0  0  0  0  0  0
  -23.4132  -34.7983   23.9219 C   0  0  0  0  0  0  0  0  0  0  0  0
  -27.5444  -12.8595   21.1317 C   0  0  0  0  0  0  0  0  0  0  0  0
  -25.3589  -13.6590   20.4824 C   0  0  0  0  0  0  0  0  0  0  0  0
  -21.1517  -34.8422   24.7583 C   0  0  0  0  0  0  0  0  0  0  0  0
  -23.3771  -33.4044   23.9059 C   0  0  0  0  0  0  0  0  0  0  0  0
  -26.1015  -29.6975   19.8634 C   0  0  0  0  0  0  0  0  0  0  0  0
  -27.1287  -11.5460   20.9135 C   0  0  0  0  0  0  0  0  0  0  0  0
  -24.9432  -12.3455   20.2641 C   0  0  0  0  0  0  0  0  0  0  0  0
  -27.2955  -28.9788   19.9060 C   0  0  0  0  0  0  0  0  0  0  0  0
  -23.9220   -9.7138   22.1249 C   0  0  0  0  0  0  0  0  0  0  0  0
  -22.6734   -9.3384   22.6203 C   0  0  0  0  0  0  0  0  0  0  0  0
  -26.0824  -27.0172   20.6129 C   0  0  0  0  0  0  0  0  0  0  0  0
  -21.9444   -8.8055   20.3794 C   0  0  0  0  0  0  0  0  0  0  0  0
  -28.9103  -25.1860   17.2800 C   0  0  0  0  0  0  0  0  0  0  0  0
  -26.6594  -13.9160   20.9162 C   0  0  0  0  0  0  0  0  0  0  0  0
  -27.6833  -16.1429   20.2089 C   0  0  0  0  0  0  0  0  0  0  0  0
  -21.0981  -33.4396   24.7381 C   0  0  0  0  0  0  0  0  0  0  0  0
  -24.8884  -29.0833   20.2063 C   0  0  0  0  0  0  0  0  0  0  0  0
  -22.2265  -32.7103   24.3170 C   0  0  0  0  0  0  0  0  0  0  0  0
  -24.8741  -27.7295   20.5713 C   0  0  0  0  0  0  0  0  0  0  0  0
  -29.6064  -24.9964   18.4563 C   0  0  0  0  0  0  0  0  0  0  0  0
  -25.8282  -11.2890   20.4797 C   0  0  0  0  0  0  0  0  0  0  0  0
  -27.2864  -27.6393   20.2836 C   0  0  0  0  0  0  0  0  0  0  0  0
  -24.1819   -9.6352   20.7566 C   0  0  0  0  0  0  0  0  0  0  0  0
  -21.6846   -8.8843   21.7476 C   0  0  0  0  0  0  0  0  0  0  0  0
  -23.1931   -9.1810   19.8839 C   0  0  0  0  0  0  0  0  0  0  0  0
  -27.0880  -15.2730   21.1420 C   0  0  0  0  0  0  0  0  0  0  0  0
  -29.5520  -23.7223   18.9835 C   0  0  0  0  0  0  0  0  0  0  0  0
  -27.8986  -17.3038   20.9105 C   0  0  0  0  0  0  0  0  0  0  0  0
  -28.2358  -23.0153   17.2705 C   0  0  0  0  0  0  0  0  0  0  0  0
  -28.0121  -15.9214   18.8310 C   0  0  0  0  0  0  0  0  0  0  0  0
  -22.6956  -29.5509   22.4594 C   0  0  0  0  0  0  0  0  0  0  0  0
  -21.0867  -27.2595   20.8213 C   0  0  0  0  0  0  0  0  0  0  0  0
  -21.2076  -24.5959   18.6912 C   0  0  0  0  0  0  0  0  0  0  0  0
  -26.1634  -21.2237   24.4839 C   0  0  0  0  0  0  0  0  0  0  0  0
  -19.8503  -32.7536   25.2351 C   0  0  0  0  0  0  0  0  0  0  0  0
  -23.6057  -29.8651   20.1294 C   0  0  0  0  0  0  0  0  0  0  0  0
  -23.5957  -27.0182   20.9292 C   0  0  0  0  0  0  0  0  0  0  0  0
  -19.7621  -31.2836   24.8330 C   0  0  0  0  0  0  0  0  0  0  0  0
  -27.5773  -18.2631   25.8667 C   0  0  0  0  0  0  0  0  0  0  0  0
  -21.0889  -30.5780   25.0949 C   0  0  0  0  0  0  0  0  0  0  0  0
  -27.6192  -17.2917   24.6857 C   0  0  0  0  0  0  0  0  0  0  0  0
  -26.3336  -19.1482   25.8254 C   0  0  0  0  0  0  0  0  0  0  0  0
  -26.1758  -18.9057   23.3780 C   0  0  0  0  0  0  0  0  0  0  0  0
  -22.2173  -31.1980   24.2619 C   0  0  1  0  0  0  0  0  0  0  0  0
  -22.4954  -29.2781   20.9954 C   0  0  1  0  0  0  0  0  0  0  0  0
  -27.4402  -18.0301   23.3456 C   0  0  2  0  0  0  0  0  0  0  0  0
  -27.4751  -21.9147   16.6115 C   0  0  0  0  0  0  0  0  0  0  0  0
  -19.7338  -22.9053   17.5655 C   0  0  0  0  0  0  0  0  0  0  0  0
  -20.8279  -25.7366   23.4526 C   0  0  0  0  0  0  0  0  0  0  0  0
  -20.2252  -23.6966   22.1321 C   0  0  0  0  0  0  0  0  0  0  0  0
  -18.7703  -25.7204   22.0312 C   0  0  0  0  0  0  0  0  0  0  0  0
  -21.9977  -25.5300   15.9964 C   0  0  0  0  0  0  0  0  0  0  0  0
  -30.3693  -26.1265   19.1038 C   0  0  0  0  0  0  0  0  0  0  0  0
  -30.2678  -23.4001   20.2537 C   0  0  0  0  0  0  0  0  0  0  0  0
  -29.5189  -23.9200   21.4893 C   0  0  0  0  0  0  0  0  0  0  0  0
  -28.1347  -23.2817   21.6229 C   0  0  0  0  0  0  0  0  0  0  0  0
  -27.3820  -23.8366   22.8357 C   0  0  0  0  0  0  0  0  0  0  0  0
  -26.0017  -23.2105   23.0055 C   0  0  0  0  0  0  0  0  0  0  0  0
  -29.4781  -27.3238   19.4159 C   0  0  0  0  0  0  0  0  0  1  0  0
  -21.0199  -25.7524   20.8779 C   0  0  1  0  0  0  0  0  0  0  0  0
  -20.4051  -24.2647   17.4459 C   0  0  2  0  0  0  0  0  0  0  0  0
  -20.2353  -25.2401   22.1186 C   0  0  0  0  0  0  0  0  0  0  0  0
  -28.2117  -24.2141   16.6574 N   0  0  0  0  0  0  0  0  0  0  0  0
  -26.9352  -15.8333   22.3448 N   0  0  0  0  0  0  0  0  0  0  0  0
  -28.8736  -22.7041   18.4150 N   0  0  0  0  0  0  0  0  0  0  0  0
  -27.4375  -17.0678   22.1722 N   0  0  0  0  0  0  0  0  0  0  0  0
  -22.3685  -27.8271   20.8449 N   0  0  0  0  0  0  0  0  0  0  0  0
  -26.2234  -19.8211   24.5289 N   0  0  0  0  0  0  0  0  0  0  0  0
  -28.4356  -18.4933   20.5652 N   0  0  0  0  0  0  0  0  0  0  0  0
  -27.7228  -14.6710   18.2678 N   0  0  0  0  0  0  0  0  0  0  0  0
  -22.1426  -30.7416   22.8905 N   0  0  0  0  0  0  0  0  0  0  0  0
  -20.4651  -25.3201   19.5997 N   0  0  0  0  0  0  0  0  0  0  0  0
  -26.0661  -21.7813   23.2149 N   0  0  0  0  0  0  0  0  0  0  0  0
  -21.2913  -24.2476   16.2479 N   0  3  0  0  0  0  0  0  0  0  0  0
  -28.5616  -16.8005   18.1248 O   0  0  0  0  0  0  0  0  0  0  0  0
  -23.3052  -28.7404   23.1472 O   0  0  0  0  0  0  0  0  0  0  0  0
  -20.0403  -27.9090   20.7512 O   0  0  0  0  0  0  0  0  0  0  0  0
  -22.3752  -24.2439   18.8444 O   0  0  0  0  0  0  0  0  0  0  0  0
  -26.1997  -21.9273   25.4991 O   0  0  0  0  0  0  0  0  0  0  0  0
  -25.4223  -10.0075   20.2664 O   0  0  0  0  0  0  0  0  0  0  0  0
  -28.4504  -26.9356   20.3267 O   0  0  0  0  0  0  0  0  0  1  0  0
  -20.4860   -8.5223   22.2237 F   0  0  0  0  0  0  0  0  0  0  0  0
  -23.4372   -9.1021   18.5686 F   0  0  0  0  0  0  0  0  0  0  0  0
  1  2  1  0  0  0  0
  1  5  2  0  0  0  0
  2  6  2  0  0  0  0
  3  8  2  0  0  0  0
  3 16  1  0  0  0  0
  4  9  1  0  0  0  0
  4 16  2  0  0  0  0
  5 18  1  0  0  0  0
  6 20  1  0  0  0  0
  7 10  2  0  0  0  0
  7 19  1  0  0  0  0
  8 23  1  0  0  0  0
  9 23  2  0  0  0  0
 10 24  1  0  0  0  0
 11 12  2  0  0  0  0
 11 25  1  0  0  0  0
 12 26  1  0  0  0  0
 13 21  1  0  0  0  0
 13 24  2  0  0  0  0
 14 26  2  0  0  0  0
 14 27  1  0  0  0  0
 15 22  1  0  0  0  0
 15 65  2  0  0  0  0
 16 28  1  0  0  0  0
 17 28  1  0  0  0  0
 17 30  2  0  0  0  0
 17 32  1  0  0  0  0
 18 20  2  0  0  0  0
 18 37  1  0  0  0  0
 19 21  2  0  0  0  0
 19 38  1  0  0  0  0
 20 46  1  0  0  0  0
 21 39  1  0  0  0  0
 22 29  2  0  0  0  0
 22 55  1  0  0  0  0
 23 82  1  0  0  0  0
 24 83  1  0  0  0  0
 25 27  2  0  0  0  0
 25 82  1  0  0  0  0
 26 84  1  0  0  0  0
 27 85  1  0  0  0  0
 28 66  2  0  0  0  0
 29 56  1  0  0  0  0
 29 67  1  0  0  0  0
 30 68  1  0  0  0  0
 30 71  1  0  0  0  0
 31 49  1  0  0  0  0
 31 65  1  0  0  0  0
 31 67  2  0  0  0  0
 32 72  1  0  0  0  0
 32 77  2  0  0  0  0
 33 47  1  0  0  0  0
 33 73  1  0  0  0  0
 33 78  2  0  0  0  0
 34 62  1  0  0  0  0
 34 69  1  0  0  0  0
 34 79  2  0  0  0  0
 35 63  1  0  0  0  0
 35 74  1  0  0  0  0
 35 80  2  0  0  0  0
 36 70  1  0  0  0  0
 36 75  1  0  0  0  0
 36 81  2  0  0  0  0
 37 40  1  0  0  0  0
 38 47  1  0  0  0  0
 39 69  1  0  0  0  0
 40 42  1  0  0  0  0
 41 43  1  0  0  0  0
 41 44  1  0  0  0  0
 42 46  1  0  0  0  0
 43 48  1  0  0  0  0
 44 70  1  0  0  0  0
 45 48  1  0  0  0  0
 45 70  1  0  0  0  0
 46 73  1  0  0  0  0
 47 69  1  0  0  0  0
 48 68  1  0  0  0  0
 50 63  1  0  0  0  0
 51 64  1  0  0  0  0
 52 64  1  0  0  0  0
 53 64  1  0  0  0  0
 54 76  1  0  0  0  0
 55 61  1  0  0  0  0
 56 57  1  0  0  0  0
 57 58  1  0  0  0  0
 58 59  1  0  0  0  0
 59 60  1  0  0  0  0
 60 75  1  0  0  0  0
 61 83  1  0  0  0  0
 62 64  1  0  0  0  0
 62 74  1  0  0  0  0
 63 76  1  0  0  0  0
 66 68  1  0  0  0  0
M  CHG  1  76   1
M  ISO  4  36 100  61 101  75 100  83 101
M  END
> <Batch ID>
0039

> <Smiles>
CNC(C)C(=O)NC(C(=O)N1Cc2cc([101O:1][101CH2:1]Cc3cnc(C)nc3CCCCC[100NH:0][100C:0](=O)N3CCCC(n4nc(-c5ccc(Oc6ccc(F)cc6F)cc5)c(C(N)=O)c4N)C3)ccc2CC1C(=O)NC1CCCc2ccccc21)C(C)(C)C

> <Shape>
0.230

> <Color>
0.096

> <Negative vol penalty>
0.000

$$$$

  -OEChem-04052317043D

 87 95  0     1  0  0  0  0  0999 V2000
  -28.8095  -36.4454   21.9775 C   0  0  0  0  0  0  0  0  0  0  0  0
  -29.0897  -35.1372   21.5960 C   0  0  0  0  0  0  0  0  0  0  0  0
  -24.2022   -9.6725   21.4828 C   0  0  0  0  0  0  0  0  0  0  0  0
  -22.1372  -10.8771   21.1341 C   0  0  0  0  0  0  0  0  0  0  0  0
  -27.8007  -36.6987   22.9060 C   0  0  0  0  0  0  0  0  0  0  0  0
  -28.3619  -34.0814   22.1437 C   0  0  0  0  0  0  0  0  0  0  0  0
  -26.7448  -28.8811   19.3424 C   0  0  0  0  0  0  0  0  0  0  0  0
  -23.4917   -8.4741   21.5503 C   0  0  0  0  0  0  0  0  0  0  0  0
  -21.4267   -9.6787   21.2015 C   0  0  0  0  0  0  0  0  0  0  0  0
  -27.2947  -27.6000   19.3526 C   0  0  0  0  0  0  0  0  0  0  0  0
  -21.6177   -6.8145   23.8214 C   0  0  0  0  0  0  0  0  0  0  0  0
  -21.9467   -5.9235   24.8429 C   0  0  0  0  0  0  0  0  0  0  0  0
  -25.7302  -26.9484   21.0692 C   0  0  0  0  0  0  0  0  0  0  0  0
  -22.5142   -4.2473   23.1981 C   0  0  0  0  0  0  0  0  0  0  0  0
  -23.5249  -10.8741   21.2747 C   0  0  0  0  0  0  0  0  0  0  0  0
  -24.8033  -12.7144   20.0556 C   0  0  0  0  0  0  0  0  0  0  0  0
  -27.0537  -35.6461   23.4581 C   0  0  0  0  0  0  0  0  0  0  0  0
  -25.6888  -29.2092   20.2048 C   0  0  0  0  0  0  0  0  0  0  0  0
  -27.3431  -34.3207   23.0815 C   0  0  0  0  0  0  0  0  0  0  0  0
  -25.1669  -28.2337   21.0663 C   0  0  0  0  0  0  0  0  0  0  0  0
  -22.1040   -8.4771   21.4096 C   0  0  0  0  0  0  0  0  0  0  0  0
  -26.7894  -26.6343   20.2181 C   0  0  0  0  0  0  0  0  0  0  0  0
  -21.7368   -6.4219   22.4882 C   0  0  0  0  0  0  0  0  0  0  0  0
  -22.3950   -4.6400   24.5313 C   0  0  0  0  0  0  0  0  0  0  0  0
  -22.1851   -5.1383   22.1766 C   0  0  0  0  0  0  0  0  0  0  0  0
  -24.2582  -12.1124   21.2055 C   0  0  0  0  0  0  0  0  0  0  0  0
  -24.1460  -23.3108   18.9439 C   0  0  0  0  0  0  0  0  0  0  0  0
  -26.1136  -21.5399   19.2900 C   0  0  0  0  0  0  0  0  0  0  0  0
  -23.8725  -21.9819   19.1826 C   0  0  0  0  0  0  0  0  0  0  0  0
  -26.3872  -22.8685   19.0505 C   0  0  0  0  0  0  0  0  0  0  0  0
  -25.3951  -13.8645   20.5179 C   0  0  0  0  0  0  0  0  0  0  0  0
  -24.7770  -12.2736   18.6916 C   0  0  0  0  0  0  0  0  0  0  0  0
  -25.2926  -31.2888   22.5759 C   0  0  0  0  0  0  0  0  0  0  0  0
  -22.2252  -30.2397   22.4629 C   0  0  0  0  0  0  0  0  0  0  0  0
  -20.0410  -27.7593   21.6122 C   0  0  0  0  0  0  0  0  0  0  0  0
  -24.4244  -17.3021   25.3232 C   0  0  0  0  0  0  0  0  0  0  0  0
  -26.0048  -35.9655   24.4937 C   0  0  0  0  0  0  0  0  0  0  0  0
  -25.0889  -30.5879   20.1628 C   0  0  0  0  0  0  0  0  0  0  0  0
  -24.0206  -28.5294   21.9975 C   0  0  0  0  0  0  0  0  0  0  0  0
  -25.0285  -34.8194   24.7454 C   0  0  0  0  0  0  0  0  0  0  0  0
  -27.4723  -15.7001   24.4175 C   0  0  0  0  0  0  0  0  0  0  0  0
  -25.7814  -33.5028   24.9085 C   0  0  0  0  0  0  0  0  0  0  0  0
  -27.0434  -14.6532   23.3878 C   0  0  0  0  0  0  0  0  0  0  0  0
  -26.4315  -15.8640   25.5228 C   0  0  0  0  0  0  0  0  0  0  0  0
  -24.6348  -15.0996   24.0190 C   0  0  0  0  0  0  0  0  0  0  0  0
  -26.5590  -33.1505   23.6346 C   0  0  1  0  0  0  0  0  0  0  0  0
  -24.3560  -30.9600   21.4479 C   0  0  1  0  0  0  0  0  0  0  0  0
  -25.6268  -14.9391   22.8543 C   0  0  2  0  0  0  0  0  0  0  0  0
  -23.0541  -24.3066   18.7500 C   0  0  0  0  0  0  0  0  0  0  0  0
  -27.2052  -20.5438   19.4841 C   0  0  0  0  0  0  0  0  0  0  0  0
  -17.6013  -27.1751   21.6767 C   0  0  0  0  0  0  0  0  0  0  0  0
  -22.4462  -29.6573   25.4499 C   0  0  0  0  0  0  0  0  0  0  0  0
  -20.3942  -28.2363   25.2538 C   0  0  0  0  0  0  0  0  0  0  0  0
  -20.2737  -30.6751   24.7434 C   0  0  0  0  0  0  0  0  0  0  0  0
  -19.8941  -27.5503   18.6637 C   0  0  0  0  0  0  0  0  0  0  0  0
  -22.4717  -21.4781   19.2577 C   0  0  0  0  0  0  0  0  0  0  0  0
  -27.8058  -23.3783   18.9731 C   0  0  0  0  0  0  0  0  0  0  0  0
  -22.2737  -20.2872   20.2137 C   0  0  0  0  0  0  0  0  0  0  0  0
  -22.5921  -20.6368   21.6709 C   0  0  0  0  0  0  0  0  0  0  0  0
  -22.3586  -19.4371   22.5926 C   0  0  0  0  0  0  0  0  0  0  0  0
  -22.6391  -19.7980   24.0543 C   0  0  0  0  0  0  0  0  0  0  0  0
  -22.3588  -18.6411   25.0077 C   0  0  0  0  0  0  0  0  0  0  0  0
  -27.8773  -24.9011   19.0063 C   0  0  0  0  0  0  0  0  0  1  0  0
  -21.4506  -29.1273   23.1274 C   0  0  1  0  0  0  0  0  0  0  0  0
  -18.7243  -27.7917   20.8573 C   0  0  2  0  0  0  0  0  0  0  0  0
  -21.1641  -29.4187   24.6276 C   0  0  0  0  0  0  0  0  0  0  0  0
  -24.4838  -12.8213   22.3148 N   0  0  0  0  0  0  0  0  0  0  0  0
  -24.8513  -21.0727   19.3602 N   0  0  0  0  0  0  0  0  0  0  0  0
  -25.4083  -23.7778   18.8732 N   0  0  0  0  0  0  0  0  0  0  0  0
  -25.1773  -13.8806   21.8642 N   0  0  0  0  0  0  0  0  0  0  0  0
  -23.4723  -29.8937   21.9236 N   0  0  0  0  0  0  0  0  0  0  0  0
  -25.1106  -16.1346   24.9502 N   0  0  0  0  0  0  0  0  0  0  0  0
  -26.0755  -14.8533   19.9000 N   0  0  0  0  0  0  0  0  0  0  0  0
  -24.1261  -11.0693   18.3911 N   0  0  0  0  0  0  0  0  0  0  0  0
  -25.6656  -32.6183   22.6281 N   0  0  0  0  0  0  0  0  0  0  0  0
  -20.2533  -28.9240   22.3189 N   0  0  0  0  0  0  0  0  0  0  0  0
  -23.1817  -17.4853   24.7292 N   0  0  0  0  0  0  0  0  0  0  0  0
  -18.8420  -27.0365   19.5780 N   0  3  0  0  0  0  0  0  0  0  0  0
  -25.3289  -12.9199   17.7690 O   0  0  0  0  0  0  0  0  0  0  0  0
  -25.6492  -30.4021   23.3430 O   0  0  0  0  0  0  0  0  0  0  0  0
  -21.7384  -31.3722   22.4176 O   0  0  0  0  0  0  0  0  0  0  0  0
  -20.8030  -26.7955   21.5811 O   0  0  0  0  0  0  0  0  0  0  0  0
  -24.8874  -18.1233   26.1222 O   0  0  0  0  0  0  0  0  0  0  0  0
  -21.4104   -7.3078   21.4752 O   0  0  0  0  0  0  0  0  0  0  0  0
  -27.3247  -25.3832   20.2304 O   0  0  0  0  0  0  0  0  0  1  0  0
  -22.7125   -3.7850   25.5123 F   0  0  0  0  0  0  0  0  0  0  0  0
  -22.3027   -4.7558   20.8977 F   0  0  0  0  0  0  0  0  0  0  0  0
  1  2  1  0  0  0  0
  1  5  2  0  0  0  0
  2  6  2  0  0  0  0
  3  8  2  0  0  0  0
  3 15  1  0  0  0  0
  4  9  1  0  0  0  0
  4 15  2  0  0  0  0
  5 17  1  0  0  0  0
  6 19  1  0  0  0  0
  7 10  2  0  0  0  0
  7 18  1  0  0  0  0
  8 21  1  0  0  0  0
  9 21  2  0  0  0  0
 10 22  1  0  0  0  0
 11 12  2  0  0  0  0
 11 23  1  0  0  0  0
 12 24  1  0  0  0  0
 13 20  1  0  0  0  0
 13 22  2  0  0  0  0
 14 24  2  0  0  0  0
 14 25  1  0  0  0  0
 15 26  1  0  0  0  0
 16 26  1  0  0  0  0
 16 31  2  0  0  0  0
 16 32  1  0  0  0  0
 17 19  2  0  0  0  0
 17 37  1  0  0  0  0
 18 20  2  0  0  0  0
 18 38  1  0  0  0  0
 19 46  1  0  0  0  0
 20 39  1  0  0  0  0
 21 84  1  0  0  0  0
 22 85  1  0  0  0  0
 23 25  2  0  0  0  0
 23 84  1  0  0  0  0
 24 86  1  0  0  0  0
 25 87  1  0  0  0  0
 26 67  2  0  0  0  0
 27 29  1  0  0  0  0
 27 49  1  0  0  0  0
 27 69  2  0  0  0  0
 28 30  2  0  0  0  0
 28 50  1  0  0  0  0
 28 68  1  0  0  0  0
 29 56  1  0  0  0  0
 29 68  2  0  0  0  0
 30 57  1  0  0  0  0
 30 69  1  0  0  0  0
 31 70  1  0  0  0  0
 31 73  1  0  0  0  0
 32 74  1  0  0  0  0
 32 79  2  0  0  0  0
 33 47  1  0  0  0  0
 33 75  1  0  0  0  0
 33 80  2  0  0  0  0
 34 64  1  0  0  0  0
 34 71  1  0  0  0  0
 34 81  2  0  0  0  0
 35 65  1  0  0  0  0
 35 76  1  0  0  0  0
 35 82  2  0  0  0  0
 36 72  1  0  0  0  0
 36 77  1  0  0  0  0
 36 83  2  0  0  0  0
 37 40  1  0  0  0  0
 38 47  1  0  0  0  0
 39 71  1  0  0  0  0
 40 42  1  0  0  0  0
 41 43  1  0  0  0  0
 41 44  1  0  0  0  0
 42 46  1  0  0  0  0
 43 48  1  0  0  0  0
 44 72  1  0  0  0  0
 45 48  1  0  0  0  0
 45 72  1  0  0  0  0
 46 75  1  0  0  0  0
 47 71  1  0  0  0  0
 48 70  1  0  0  0  0
 51 65  1  0  0  0  0
 52 66  1  0  0  0  0
 53 66  1  0  0  0  0
 54 66  1  0  0  0  0
 55 78  1  0  0  0  0
 56 58  1  0  0  0  0
 57 63  1  0  0  0  0
 58 59  1  0  0  0  0
 59 60  1  0  0  0  0
 60 61  1  0  0  0  0
 61 62  1  0  0  0  0
 62 77  1  0  0  0  0
 63 85  1  0  0  0  0
 64 66  1  0  0  0  0
 64 76  1  0  0  0  0
 65 78  1  0  0  0  0
 67 70  1  0  0  0  0
M  CHG  1  78   1
M  ISO  4  36 100  63 101  77 100  85 101
M  END
> <Batch ID>
0039

> <Smiles>
CNC(C)C(=O)NC(C(=O)N1Cc2cc([101O:1][101CH2:1]Cc3nc(C)c(CCCCCC[100NH:0][100C:0](=O)N4CCCC(n5nc(-c6ccc(Oc7ccc(F)cc7F)cc6)c(C(N)=O)c5N)C4)nc3C)ccc2CC1C(=O)NC1CCCc2ccccc21)C(C)(C)C

> <Shape>
0.265

> <Color>
0.107

> <Negative vol penalty>
0.000

$$$$

  -OEChem-04052317043D

 86 94  0     1  0  0  0  0  0999 V2000
  -24.5390  -32.9361   26.7822 C   0  0  0  0  0  0  0  0  0  0  0  0
  -24.5930  -31.5671   27.0234 C   0  0  0  0  0  0  0  0  0  0  0  0
  -23.0441   -9.8714   19.9430 C   0  0  0  0  0  0  0  0  0  0  0  0
  -23.8049   -9.8692   22.2361 C   0  0  0  0  0  0  0  0  0  0  0  0
  -24.3581  -33.4073   25.4825 C   0  0  0  0  0  0  0  0  0  0  0  0
  -24.4650  -30.6683   25.9650 C   0  0  0  0  0  0  0  0  0  0  0  0
  -27.2684  -25.2557   25.3721 C   0  0  0  0  0  0  0  0  0  0  0  0
  -22.2816   -8.7310   20.1949 C   0  0  0  0  0  0  0  0  0  0  0  0
  -23.0423   -8.7288   22.4880 C   0  0  0  0  0  0  0  0  0  0  0  0
  -26.8505  -23.9502   25.6262 C   0  0  0  0  0  0  0  0  0  0  0  0
  -19.8017   -7.9847   23.0928 C   0  0  0  0  0  0  0  0  0  0  0  0
  -19.0447   -7.9588   24.2640 C   0  0  0  0  0  0  0  0  0  0  0  0
  -26.2589  -23.6934   23.3017 C   0  0  0  0  0  0  0  0  0  0  0  0
  -20.2545   -6.0024   25.0027 C   0  0  0  0  0  0  0  0  0  0  0  0
  -23.8058  -10.4406   20.9636 C   0  0  0  0  0  0  0  0  0  0  0  0
  -24.1889  -12.9596   20.8399 C   0  0  0  0  0  0  0  0  0  0  0  0
  -24.2375  -32.5139   24.4064 C   0  0  0  0  0  0  0  0  0  0  0  0
  -27.1744  -25.7946   24.0808 C   0  0  0  0  0  0  0  0  0  0  0  0
  -24.2810  -31.1279   24.6498 C   0  0  0  0  0  0  0  0  0  0  0  0
  -26.6787  -25.0052   23.0333 C   0  0  0  0  0  0  0  0  0  0  0  0
  -22.2806   -8.1596   21.4674 C   0  0  0  0  0  0  0  0  0  0  0  0
  -26.3430  -23.1697   24.5916 C   0  0  0  0  0  0  0  0  0  0  0  0
  -20.7851   -7.0194   22.8765 C   0  0  0  0  0  0  0  0  0  0  0  0
  -19.2710   -6.9677   25.2190 C   0  0  0  0  0  0  0  0  0  0  0  0
  -21.0115   -6.0282   23.8315 C   0  0  0  0  0  0  0  0  0  0  0  0
  -24.5942  -11.6183   20.7040 C   0  0  0  0  0  0  0  0  0  0  0  0
  -28.6103  -19.9194   22.6039 C   0  0  0  0  0  0  0  0  0  0  0  0
  -27.0828  -18.0660   23.7697 C   0  0  0  0  0  0  0  0  0  0  0  0
  -28.4612  -18.6682   22.0472 C   0  0  0  0  0  0  0  0  0  0  0  0
  -27.2325  -19.3169   24.3269 C   0  0  0  0  0  0  0  0  0  0  0  0
  -25.2930  -13.6906   20.4752 C   0  0  0  0  0  0  0  0  0  0  0  0
  -22.9272  -13.4967   21.2585 C   0  0  0  0  0  0  0  0  0  0  0  0
  -25.6055  -28.2318   22.7760 C   0  0  0  0  0  0  0  0  0  0  0  0
  -27.3329  -27.4312   20.1497 C   0  0  0  0  0  0  0  0  0  0  0  0
  -29.0607  -25.0376   18.4373 C   0  0  0  0  0  0  0  0  0  0  0  0
  -30.7928  -14.6201   20.6602 C   0  0  0  0  0  0  0  0  0  0  0  0
  -23.9959  -33.0696   23.0252 C   0  0  0  0  0  0  0  0  0  0  0  0
  -27.6542  -27.1956   23.8177 C   0  0  0  0  0  0  0  0  0  0  0  0
  -26.5759  -25.5298   21.6252 C   0  0  0  0  0  0  0  0  0  0  0  0
  -24.2441  -32.0577   21.9096 C   0  0  0  0  0  0  0  0  0  0  0  0
  -29.6154  -12.2511   18.2772 C   0  0  0  0  0  0  0  0  0  0  0  0
  -23.5836  -30.7235   22.2423 C   0  0  0  0  0  0  0  0  0  0  0  0
  -28.1735  -11.9816   18.7111 C   0  0  0  0  0  0  0  0  0  0  0  0
  -30.5365  -12.4586   19.4775 C   0  0  0  0  0  0  0  0  0  0  0  0
  -28.6475  -13.2227   20.8637 C   0  0  0  0  0  0  0  0  0  0  0  0
  -24.1709  -30.1218   23.5247 C   0  0  1  0  0  0  0  0  0  0  0  0
  -27.0342  -27.8149   22.5690 C   0  0  1  0  0  0  0  0  0  0  0  0
  -27.6701  -13.0624   19.6867 C   0  0  2  0  0  0  0  0  0  0  0  0
  -30.5734  -21.4543   22.8812 C   0  0  0  0  0  0  0  0  0  0  0  0
  -24.8833  -16.8635   23.7169 C   0  0  0  0  0  0  0  0  0  0  0  0
  -30.3270  -24.6706   16.3021 C   0  0  0  0  0  0  0  0  0  0  0  0
  -24.6994  -27.2877   18.6154 C   0  0  0  0  0  0  0  0  0  0  0  0
  -25.8973  -26.0254   16.8154 C   0  0  0  0  0  0  0  0  0  0  0  0
  -26.5791  -28.3616   17.3632 C   0  0  0  0  0  0  0  0  0  0  0  0
  -31.5582  -24.4012   19.8921 C   0  0  0  0  0  0  0  0  0  0  0  0
  -29.4605  -20.9605   21.9599 C   0  0  0  0  0  0  0  0  0  0  0  0
  -26.2325  -17.0248   24.4133 C   0  0  0  0  0  0  0  0  0  0  0  0
  -29.1436  -18.2973   20.7750 C   0  0  0  0  0  0  0  0  0  0  0  0
  -26.5426  -19.6919   25.6159 C   0  0  0  0  0  0  0  0  0  0  0  0
  -30.6323  -17.9282   20.9325 C   0  0  0  0  0  0  0  0  0  0  0  0
  -30.8942  -16.7710   21.8940 C   0  0  0  0  0  0  0  0  0  0  0  0
  -26.5959  -21.1915   25.8871 C   0  0  0  0  0  0  0  0  0  1  0  0
  -27.1303  -26.4980   18.9804 C   0  0  1  0  0  0  0  0  0  0  0  0
  -30.4230  -25.0636   17.7681 C   0  0  2  0  0  0  0  0  0  0  0  0
  -26.0765  -27.0336   17.9704 C   0  0  0  0  0  0  0  0  0  0  0  0
  -25.8572  -11.5012   20.2854 N   0  0  0  0  0  0  0  0  0  0  0  0
  -27.6945  -17.7192   22.6199 N   0  0  0  0  0  0  0  0  0  0  0  0
  -27.9989  -20.2660   23.7539 N   0  0  0  0  0  0  0  0  0  0  0  0
  -26.2550  -12.7783   20.1551 N   0  0  0  0  0  0  0  0  0  0  0  0
  -27.0520  -26.9077   21.4197 N   0  0  0  0  0  0  0  0  0  0  0  0
  -30.0031  -13.4973   20.3622 N   0  0  0  0  0  0  0  0  0  0  0  0
  -25.5251  -15.0184   20.4002 N   0  0  0  0  0  0  0  0  0  0  0  0
  -21.9006  -12.6047   21.5975 N   0  0  0  0  0  0  0  0  0  0  0  0
  -25.4590  -29.5192   23.2563 N   0  0  0  0  0  0  0  0  0  0  0  0
  -28.4513  -26.2740   18.4033 N   0  0  0  0  0  0  0  0  0  0  0  0
  -30.2092  -15.5598   21.5012 N   0  0  0  0  0  0  0  0  0  0  0  0
  -31.3524  -24.1179   18.4483 N   0  3  0  0  0  0  0  0  0  0  0  0
  -22.7111  -14.7311   21.3142 O   0  0  0  0  0  0  0  0  0  0  0  0
  -24.7029  -27.4442   22.5177 O   0  0  0  0  0  0  0  0  0  0  0  0
  -27.7327  -28.5800   19.9444 O   0  0  0  0  0  0  0  0  0  0  0  0
  -28.5832  -24.0212   18.9368 O   0  0  0  0  0  0  0  0  0  0  0  0
  -31.9313  -14.7763   20.2060 O   0  0  0  0  0  0  0  0  0  0  0  0
  -21.5365   -7.0469   21.7135 O   0  0  0  0  0  0  0  0  0  0  0  0
  -25.9338  -21.8953   24.8370 O   0  0  0  0  0  0  0  0  0  1  0  0
  -18.5450   -6.9439   26.3444 F   0  0  0  0  0  0  0  0  0  0  0  0
  -21.9557   -5.0989   23.6298 F   0  0  0  0  0  0  0  0  0  0  0  0
  1  2  1  0  0  0  0
  1  5  2  0  0  0  0
  2  6  2  0  0  0  0
  3  8  2  0  0  0  0
  3 15  1  0  0  0  0
  4  9  1  0  0  0  0
  4 15  2  0  0  0  0
  5 17  1  0  0  0  0
  6 19  1  0  0  0  0
  7 10  2  0  0  0  0
  7 18  1  0  0  0  0
  8 21  1  0  0  0  0
  9 21  2  0  0  0  0
 10 22  1  0  0  0  0
 11 12  2  0  0  0  0
 11 23  1  0  0  0  0
 12 24  1  0  0  0  0
 13 20  1  0  0  0  0
 13 22  2  0  0  0  0
 14 24  2  0  0  0  0
 14 25  1  0  0  0  0
 15 26  1  0  0  0  0
 16 26  1  0  0  0  0
 16 31  2  0  0  0  0
 16 32  1  0  0  0  0
 17 19  2  0  0  0  0
 17 37  1  0  0  0  0
 18 20  2  0  0  0  0
 18 38  1  0  0  0  0
 19 46  1  0  0  0  0
 20 39  1  0  0  0  0
 21 83  1  0  0  0  0
 22 84  1  0  0  0  0
 23 25  2  0  0  0  0
 23 83  1  0  0  0  0
 24 85  1  0  0  0  0
 25 86  1  0  0  0  0
 26 66  2  0  0  0  0
 27 29  2  0  0  0  0
 27 56  1  0  0  0  0
 27 68  1  0  0  0  0
 28 30  1  0  0  0  0
 28 57  1  0  0  0  0
 28 67  2  0  0  0  0
 29 58  1  0  0  0  0
 29 67  1  0  0  0  0
 30 59  1  0  0  0  0
 30 68  2  0  0  0  0
 31 69  1  0  0  0  0
 31 72  1  0  0  0  0
 32 73  1  0  0  0  0
 32 78  2  0  0  0  0
 33 47  1  0  0  0  0
 33 74  1  0  0  0  0
 33 79  2  0  0  0  0
 34 63  1  0  0  0  0
 34 70  1  0  0  0  0
 34 80  2  0  0  0  0
 35 64  1  0  0  0  0
 35 75  1  0  0  0  0
 35 81  2  0  0  0  0
 36 71  1  0  0  0  0
 36 76  1  0  0  0  0
 36 82  2  0  0  0  0
 37 40  1  0  0  0  0
 38 47  1  0  0  0  0
 39 70  1  0  0  0  0
 40 42  1  0  0  0  0
 41 43  1  0  0  0  0
 41 44  1  0  0  0  0
 42 46  1  0  0  0  0
 43 48  1  0  0  0  0
 44 71  1  0  0  0  0
 45 48  1  0  0  0  0
 45 71  1  0  0  0  0
 46 74  1  0  0  0  0
 47 70  1  0  0  0  0
 48 69  1  0  0  0  0
 49 56  1  0  0  0  0
 50 57  1  0  0  0  0
 51 64  1  0  0  0  0
 52 65  1  0  0  0  0
 53 65  1  0  0  0  0
 54 65  1  0  0  0  0
 55 77  1  0  0  0  0
 58 60  1  0  0  0  0
 59 62  1  0  0  0  0
 60 61  1  0  0  0  0
 61 76  1  0  0  0  0
 62 84  1  0  0  0  0
 63 65  1  0  0  0  0
 63 75  1  0  0  0  0
 64 77  1  0  0  0  0
 66 69  1  0  0  0  0
M  CHG  1  77   1
M  ISO  4  36 100  62 101  76 100  84 101
M  END
> <Batch ID>
0039

> <Smiles>
CCc1nc(C[101CH2:1][101O:1]c2ccc3c(c2)CN(C(=O)C(NC(=O)C(C)NC)C(C)(C)C)C(C(=O)NC2CCCc4ccccc42)C3)c(CC)nc1CCC[100NH:0][100C:0](=O)N1CCCC(n2nc(-c3ccc(Oc4ccc(F)cc4F)cc3)c(C(N)=O)c2N)C1

> <Shape>
0.301

> <Color>
0.190

> <Negative vol penalty>
0.000

$$$$

  -OEChem-04052317043D

 85 93  0     1  0  0  0  0  0999 V2000
  -19.7632   -9.8133   20.3092 C   0  0  0  0  0  0  0  0  0  0  0  0
  -20.0834  -11.1087   20.7027 C   0  0  0  0  0  0  0  0  0  0  0  0
  -28.9622  -25.9927   19.6559 C   0  0  0  0  0  0  0  0  0  0  0  0
  -26.9439  -24.6649   19.6517 C   0  0  0  0  0  0  0  0  0  0  0  0
  -20.7376   -8.8164   20.3375 C   0  0  0  0  0  0  0  0  0  0  0  0
  -21.3780  -11.4077   21.1259 C   0  0  0  0  0  0  0  0  0  0  0  0
  -23.1293  -15.7172   19.1244 C   0  0  0  0  0  0  0  0  0  0  0  0
  -29.7114  -24.8531   19.9482 C   0  0  0  0  0  0  0  0  0  0  0  0
  -27.6930  -23.5252   19.9439 C   0  0  0  0  0  0  0  0  0  0  0  0
  -22.6776  -16.9103   19.6870 C   0  0  0  0  0  0  0  0  0  0  0  0
  -29.1433  -22.1256   22.6585 C   0  0  0  0  0  0  0  0  0  0  0  0
  -28.6607  -21.2691   23.6480 C   0  0  0  0  0  0  0  0  0  0  0  0
  -24.7314  -17.0902   20.9394 C   0  0  0  0  0  0  0  0  0  0  0  0
  -19.9450  -26.6747   23.0321 C   0  0  0  0  0  0  0  0  0  0  0  0
  -28.5472  -19.4721   22.0370 C   0  0  0  0  0  0  0  0  0  0  0  0
  -18.8120  -27.8333   21.2912 C   0  0  0  0  0  0  0  0  0  0  0  0
  -27.5784  -25.8987   19.5077 C   0  0  0  0  0  0  0  0  0  0  0  0
  -26.4778  -27.5752   17.9312 C   0  0  0  0  0  0  0  0  0  0  0  0
  -22.0472   -9.1056   20.7520 C   0  0  0  0  0  0  0  0  0  0  0  0
  -24.3830  -15.1953   19.4740 C   0  0  0  0  0  0  0  0  0  0  0  0
  -22.3705  -10.4135   21.1610 C   0  0  0  0  0  0  0  0  0  0  0  0
  -25.1978  -15.8918   20.3779 C   0  0  0  0  0  0  0  0  0  0  0  0
  -19.6595  -27.8727   22.3867 C   0  0  0  0  0  0  0  0  0  0  0  0
  -19.3823  -25.4906   22.5689 C   0  0  0  0  0  0  0  0  0  0  0  0
  -29.0768  -23.6193   20.0922 C   0  0  0  0  0  0  0  0  0  0  0  0
  -23.4775  -17.5955   20.5968 C   0  0  0  0  0  0  0  0  0  0  0  0
  -29.3277  -21.6555   21.3583 C   0  0  0  0  0  0  0  0  0  0  0  0
  -28.3628  -19.9423   23.3372 C   0  0  0  0  0  0  0  0  0  0  0  0
  -29.0297  -20.3287   21.0475 C   0  0  0  0  0  0  0  0  0  0  0  0
  -26.8039  -27.0757   19.2063 C   0  0  0  0  0  0  0  0  0  0  0  0
  -18.5470  -25.5579   21.4654 C   0  0  0  0  0  0  0  0  0  0  0  0
  -25.7347  -28.7024   18.1838 C   0  0  0  0  0  0  0  0  0  0  0  0
  -26.8162  -27.0658   16.6344 C   0  0  0  0  0  0  0  0  0  0  0  0
  -25.3901  -12.5229   20.8696 C   0  0  0  0  0  0  0  0  0  0  0  0
  -28.3195  -13.6971   20.1198 C   0  0  0  0  0  0  0  0  0  0  0  0
  -30.2555  -16.4157   19.4070 C   0  0  0  0  0  0  0  0  0  0  0  0
  -22.3819  -30.4175   22.8387 C   0  0  0  0  0  0  0  0  0  0  0  0
  -23.0543   -7.9844   20.8107 C   0  0  0  0  0  0  0  0  0  0  0  0
  -24.8669  -13.9210   18.8380 C   0  0  0  0  0  0  0  0  0  0  0  0
  -26.5603  -15.3842   20.7710 C   0  0  0  0  0  0  0  0  0  0  0  0
  -24.4985   -8.4677   20.9157 C   0  0  0  0  0  0  0  0  0  0  0  0
  -25.1597  -32.1551   21.4455 C   0  0  0  0  0  0  0  0  0  0  0  0
  -24.6200   -9.5610   21.9724 C   0  0  0  0  0  0  0  0  0  0  0  0
  -25.8666  -31.0955   20.5986 C   0  0  0  0  0  0  0  0  0  0  0  0
  -24.5776  -31.5588   22.7251 C   0  0  0  0  0  0  0  0  0  0  0  0
  -24.3996  -29.3372   21.6732 C   0  0  0  0  0  0  0  0  0  0  0  0
  -23.7700  -10.7826   21.6027 C   0  0  1  0  0  0  0  0  0  0  0  0
  -25.9438  -13.2160   19.6569 C   0  0  1  0  0  0  0  0  0  0  0  0
  -24.9546  -29.8801   20.3452 C   0  0  2  0  0  0  0  0  0  0  0  0
  -17.9137  -24.3178   20.9244 C   0  0  0  0  0  0  0  0  0  0  0  0
  -32.6205  -17.0650   18.8754 C   0  0  0  0  0  0  0  0  0  0  0  0
  -29.0723  -13.3500   23.0562 C   0  0  0  0  0  0  0  0  0  0  0  0
  -31.0318  -14.8572   22.6600 C   0  0  0  0  0  0  0  0  0  0  0  0
  -30.8596  -12.6903   21.4361 C   0  0  0  0  0  0  0  0  0  0  0  0
  -29.4858  -17.5022   16.7639 C   0  0  0  0  0  0  0  0  0  0  0  0
  -19.6891  -24.1876   23.2630 C   0  0  0  0  0  0  0  0  0  0  0  0
  -20.2445  -29.1564   22.8578 C   0  0  0  0  0  0  0  0  0  0  0  0
  -20.7338  -23.3309   22.5387 C   0  0  0  0  0  0  0  0  0  0  0  0
  -21.0216  -22.0053   23.2525 C   0  0  0  0  0  0  0  0  0  0  0  0
  -22.0463  -21.1723   22.4782 C   0  0  0  0  0  0  0  0  0  0  0  0
  -22.4220  -19.8682   23.1825 C   0  0  0  0  0  0  0  0  0  0  0  0
  -23.5009  -19.0713   22.4615 C   0  0  0  0  0  0  0  0  0  1  0  0
  -29.3197  -14.5945   20.8077 C   0  0  1  0  0  0  0  0  0  0  0  0
  -31.2673  -16.6705   18.3044 C   0  0  2  0  0  0  0  0  0  0  0  0
  -30.0444  -13.8818   21.9843 C   0  0  0  0  0  0  0  0  0  0  0  0
  -18.2464  -26.7027   20.8123 N   0  0  0  0  0  0  0  0  0  0  0  0
  -26.3088  -27.8243   20.1955 N   0  0  0  0  0  0  0  0  0  0  0  0
  -25.6640  -28.8057   19.5419 N   0  0  0  0  0  0  0  0  0  0  0  0
  -26.9862  -14.1308   20.1267 N   0  0  0  0  0  0  0  0  0  0  0  0
  -23.7212  -30.4114   22.4152 N   0  0  0  0  0  0  0  0  0  0  0  0
  -25.1415  -29.6054   17.3744 N   0  0  0  0  0  0  0  0  0  0  0  0
  -27.5860  -25.8973   16.5556 N   0  0  0  0  0  0  0  0  0  0  0  0
  -24.4318  -11.5692   20.5840 N   0  0  0  0  0  0  0  0  0  0  0  0
  -30.2138  -15.0845   19.7642 N   0  0  0  0  0  0  0  0  0  0  0  0
  -21.6382  -29.2943   22.4980 N   0  0  0  0  0  0  0  0  0  0  0  0
  -30.7960  -17.7671   17.4121 N   0  3  0  0  0  0  0  0  0  0  0  0
  -26.4607  -27.6393   15.5769 O   0  0  0  0  0  0  0  0  0  0  0  0
  -25.8029  -12.8295   21.9819 O   0  0  0  0  0  0  0  0  0  0  0  0
  -28.7080  -12.6534   19.5894 O   0  0  0  0  0  0  0  0  0  0  0  0
  -29.5732  -17.3088   19.9043 O   0  0  0  0  0  0  0  0  0  0  0  0
  -21.8843  -31.3568   23.4688 O   0  0  0  0  0  0  0  0  0  0  0  0
  -29.8076  -22.5069   20.3772 O   0  0  0  0  0  0  0  0  0  0  0  0
  -23.0387  -18.7598   21.1479 O   0  0  0  0  0  0  0  0  0  1  0  0
  -27.9009  -19.1194   24.2879 F   0  0  0  0  0  0  0  0  0  0  0  0
  -29.2060  -19.8710   19.8004 F   0  0  0  0  0  0  0  0  0  0  0  0
  1  2  1  0  0  0  0
  1  5  2  0  0  0  0
  2  6  2  0  0  0  0
  3  8  2  0  0  0  0
  3 17  1  0  0  0  0
  4  9  1  0  0  0  0
  4 17  2  0  0  0  0
  5 19  1  0  0  0  0
  6 21  1  0  0  0  0
  7 10  2  0  0  0  0
  7 20  1  0  0  0  0
  8 25  1  0  0  0  0
  9 25  2  0  0  0  0
 10 26  1  0  0  0  0
 11 12  2  0  0  0  0
 11 27  1  0  0  0  0
 12 28  1  0  0  0  0
 13 22  1  0  0  0  0
 13 26  2  0  0  0  0
 14 23  2  0  0  0  0
 14 24  1  0  0  0  0
 15 28  2  0  0  0  0
 15 29  1  0  0  0  0
 16 23  1  0  0  0  0
 16 66  2  0  0  0  0
 17 30  1  0  0  0  0
 18 30  1  0  0  0  0
 18 32  2  0  0  0  0
 18 33  1  0  0  0  0
 19 21  2  0  0  0  0
 19 38  1  0  0  0  0
 20 22  2  0  0  0  0
 20 39  1  0  0  0  0
 21 47  1  0  0  0  0
 22 40  1  0  0  0  0
 23 57  1  0  0  0  0
 24 31  2  0  0  0  0
 24 56  1  0  0  0  0
 25 82  1  0  0  0  0
 26 83  1  0  0  0  0
 27 29  2  0  0  0  0
 27 82  1  0  0  0  0
 28 84  1  0  0  0  0
 29 85  1  0  0  0  0
 30 67  2  0  0  0  0
 31 50  1  0  0  0  0
 31 66  1  0  0  0  0
 32 68  1  0  0  0  0
 32 71  1  0  0  0  0
 33 72  1  0  0  0  0
 33 77  2  0  0  0  0
 34 48  1  0  0  0  0
 34 73  1  0  0  0  0
 34 78  2  0  0  0  0
 35 63  1  0  0  0  0
 35 69  1  0  0  0  0
 35 79  2  0  0  0  0
 36 64  1  0  0  0  0
 36 74  1  0  0  0  0
 36 80  2  0  0  0  0
 37 70  1  0  0  0  0
 37 75  1  0  0  0  0
 37 81  2  0  0  0  0
 38 41  1  0  0  0  0
 39 48  1  0  0  0  0
 40 69  1  0  0  0  0
 41 43  1  0  0  0  0
 42 44  1  0  0  0  0
 42 45  1  0  0  0  0
 43 47  1  0  0  0  0
 44 49  1  0  0  0  0
 45 70  1  0  0  0  0
 46 49  1  0  0  0  0
 46 70  1  0  0  0  0
 47 73  1  0  0  0  0
 48 69  1  0  0  0  0
 49 68  1  0  0  0  0
 51 64  1  0  0  0  0
 52 65  1  0  0  0  0
 53 65  1  0  0  0  0
 54 65  1  0  0  0  0
 55 76  1  0  0  0  0
 56 58  1  0  0  0  0
 57 75  1  0  0  0  0
 58 59  1  0  0  0  0
 59 60  1  0  0  0  0
 60 61  1  0  0  0  0
 61 62  1  0  0  0  0
 62 83  1  0  0  0  0
 63 65  1  0  0  0  0
 63 74  1  0  0  0  0
 64 76  1  0  0  0  0
 67 68  1  0  0  0  0
M  CHG  1  76   1
M  ISO  4  37 100  62 101  75 100  83 101
M  END
> <Batch ID>
0039

> <Smiles>
CNC(C)C(=O)NC(C(=O)N1Cc2cc([101O:1][101CH2:1]CCCCCc3cc(C[100NH:0][100C:0](=O)N4CCCC(n5nc(-c6ccc(Oc7ccc(F)cc7F)cc6)c(C(N)=O)c5N)C4)cnc3C)ccc2CC1C(=O)NC1CCCc2ccccc21)C(C)(C)C

> <Shape>
0.288

> <Color>
0.067

> <Negative vol penalty>
0.000

$$$$

  -OEChem-04052317043D

 82 90  0     1  0  0  0  0  0999 V2000
  -13.8965  -27.0209   19.5133 C   0  0  0  0  0  0  0  0  0  0  0  0
  -14.9397  -26.1005   19.5252 C   0  0  0  0  0  0  0  0  0  0  0  0
  -23.0729   -9.8731   19.9377 C   0  0  0  0  0  0  0  0  0  0  0  0
  -23.8429   -9.8678   22.2277 C   0  0  0  0  0  0  0  0  0  0  0  0
  -14.1651  -28.3748   19.3169 C   0  0  0  0  0  0  0  0  0  0  0  0
  -16.2521  -26.5336   19.3395 C   0  0  0  0  0  0  0  0  0  0  0  0
  -21.2939  -24.2210   21.9354 C   0  0  0  0  0  0  0  0  0  0  0  0
  -22.3309   -8.7181   20.1845 C   0  0  0  0  0  0  0  0  0  0  0  0
  -23.1009   -8.7128   22.4745 C   0  0  0  0  0  0  0  0  0  0  0  0
  -22.2559  -23.3214   21.4784 C   0  0  0  0  0  0  0  0  0  0  0  0
  -19.8760   -7.9094   23.0868 C   0  0  0  0  0  0  0  0  0  0  0  0
  -19.1242   -7.8624   24.2608 C   0  0  0  0  0  0  0  0  0  0  0  0
  -23.6616  -25.1682   20.8207 C   0  0  0  0  0  0  0  0  0  0  0  0
  -26.5806  -20.7758   20.5700 C   0  0  0  0  0  0  0  0  0  0  0  0
  -20.3702   -5.9217   24.9809 C   0  0  0  0  0  0  0  0  0  0  0  0
  -25.2170  -19.8249   19.0514 C   0  0  0  0  0  0  0  0  0  0  0  0
  -23.8290  -10.4480   20.9593 C   0  0  0  0  0  0  0  0  0  0  0  0
  -24.1686  -12.9740   20.8519 C   0  0  0  0  0  0  0  0  0  0  0  0
  -15.4824  -28.8259   19.1384 C   0  0  0  0  0  0  0  0  0  0  0  0
  -21.5041  -25.6033   21.8284 C   0  0  0  0  0  0  0  0  0  0  0  0
  -16.5385  -27.8946   19.1392 C   0  0  0  0  0  0  0  0  0  0  0  0
  -22.7018  -26.0833   21.2795 C   0  0  0  0  0  0  0  0  0  0  0  0
  -25.2496  -20.7328   20.0868 C   0  0  0  0  0  0  0  0  0  0  0  0
  -22.3449   -8.1379   21.4529 C   0  0  0  0  0  0  0  0  0  0  0  0
  -23.4388  -23.7949   20.9182 C   0  0  0  0  0  0  0  0  0  0  0  0
  -20.8748   -6.9625   22.8598 C   0  0  0  0  0  0  0  0  0  0  0  0
  -19.3714   -6.8686   25.2079 C   0  0  0  0  0  0  0  0  0  0  0  0
  -21.1219   -5.9687   23.8069 C   0  0  0  0  0  0  0  0  0  0  0  0
  -24.5961  -11.6408   20.7048 C   0  0  0  0  0  0  0  0  0  0  0  0
  -27.3210  -19.8930   19.8152 C   0  0  0  0  0  0  0  0  0  0  0  0
  -25.2586  -13.7262   20.4880 C   0  0  0  0  0  0  0  0  0  0  0  0
  -22.8996  -13.4866   21.2793 C   0  0  0  0  0  0  0  0  0  0  0  0
  -20.0405  -27.9843   20.3143 C   0  0  0  0  0  0  0  0  0  0  0  0
  -22.1665  -29.8111   21.9468 C   0  0  0  0  0  0  0  0  0  0  0  0
  -25.1734  -30.0265   23.5465 C   0  0  0  0  0  0  0  0  0  0  0  0
  -30.7425  -14.7480   20.6577 C   0  0  0  0  0  0  0  0  0  0  0  0
  -15.7189  -30.2932   18.8824 C   0  0  0  0  0  0  0  0  0  0  0  0
  -20.4681  -26.5606   22.3505 C   0  0  0  0  0  0  0  0  0  0  0  0
  -22.9847  -27.5578   21.1603 C   0  0  0  0  0  0  0  0  0  0  0  0
  -17.1737  -30.7171   19.0671 C   0  0  0  0  0  0  0  0  0  0  0  0
  -29.5959  -12.3761   18.2627 C   0  0  0  0  0  0  0  0  0  0  0  0
  -18.1087  -29.7348   18.3685 C   0  0  0  0  0  0  0  0  0  0  0  0
  -28.1606  -12.0789   18.7004 C   0  0  0  0  0  0  0  0  0  0  0  0
  -30.5182  -12.5908   19.4608 C   0  0  0  0  0  0  0  0  0  0  0  0
  -28.6221  -13.3128   20.8598 C   0  0  0  0  0  0  0  0  0  0  0  0
  -17.9778  -28.3286   18.9660 C   0  0  1  0  0  0  0  0  0  0  0  0
  -20.5650  -27.9472   21.7219 C   0  0  1  0  0  0  0  0  0  0  0  0
  -27.6429  -13.1441   19.6856 C   0  0  2  0  0  0  0  0  0  0  0  0
  -26.6541  -31.6595   24.7458 C   0  0  0  0  0  0  0  0  0  0  0  0
  -22.9760  -31.0374   19.2727 C   0  0  0  0  0  0  0  0  0  0  0  0
  -25.0419  -31.9167   20.3805 C   0  0  0  0  0  0  0  0  0  0  0  0
  -22.7947  -32.6712   21.1574 C   0  0  0  0  0  0  0  0  0  0  0  0
  -26.8557  -18.3352   17.9046 C   0  0  0  0  0  0  0  0  0  0  0  0
  -25.0642  -28.4605   26.0554 C   0  0  0  0  0  0  0  0  0  0  0  0
  -24.0884  -21.5285   20.6062 C   0  0  0  0  0  0  0  0  0  1  0  0
  -28.7557  -19.5486   19.8952 C   0  0  0  0  0  0  0  0  0  0  0  0
  -29.0326  -18.3692   20.8492 C   0  0  0  0  0  0  0  0  0  0  0  0
  -30.5265  -18.0487   20.9546 C   0  0  0  0  0  0  0  0  0  0  0  0
  -30.8124  -16.8916   21.9063 C   0  0  0  0  0  0  0  0  0  0  0  0
  -23.5628  -30.3205   21.6826 C   0  0  1  0  0  0  0  0  0  0  0  0
  -25.5587  -30.6147   24.8919 C   0  0  2  0  0  0  0  0  0  0  0  0
  -23.5880  -31.4586   20.6236 C   0  0  0  0  0  0  0  0  0  0  0  0
  -25.8592  -11.5482   20.2804 N   0  0  0  0  0  0  0  0  0  0  0  0
  -26.4819  -19.3209   18.8950 N   0  0  0  0  0  0  0  0  0  0  0  0
  -26.2347  -12.8327   20.1576 N   0  0  0  0  0  0  0  0  0  0  0  0
  -21.9382  -28.4538   21.6793 N   0  0  0  0  0  0  0  0  0  0  0  0
  -29.9709  -13.6140   20.3549 N   0  0  0  0  0  0  0  0  0  0  0  0
  -25.4678  -15.0582   20.4215 N   0  0  0  0  0  0  0  0  0  0  0  0
  -21.8898  -12.5748   21.6159 N   0  0  0  0  0  0  0  0  0  0  0  0
  -18.6867  -28.2465   20.2251 N   0  0  0  0  0  0  0  0  0  0  0  0
  -24.1114  -30.6994   22.9802 N   0  0  0  0  0  0  0  0  0  0  0  0
  -30.1465  -15.6717   21.5076 N   0  0  0  0  0  0  0  0  0  0  0  0
  -26.0498  -29.5433   25.8041 N   0  3  0  0  0  0  0  0  0  0  0  0
  -22.6628  -14.7167   21.3446 O   0  0  0  0  0  0  0  0  0  0  0  0
  -20.8075  -27.7909   19.3784 O   0  0  0  0  0  0  0  0  0  0  0  0
  -21.3119  -30.5871   22.3815 O   0  0  0  0  0  0  0  0  0  0  0  0
  -25.7585  -29.0685   23.0461 O   0  0  0  0  0  0  0  0  0  0  0  0
  -31.8763  -14.9267   20.2001 O   0  0  0  0  0  0  0  0  0  0  0  0
  -21.6208   -7.0110   21.6941 O   0  0  0  0  0  0  0  0  0  0  0  0
  -24.3792  -22.9190   20.4707 O   0  0  0  0  0  0  0  0  0  1  0  0
  -18.6504   -6.8245   26.3359 F   0  0  0  0  0  0  0  0  0  0  0  0
  -22.0809   -5.0570   23.5949 F   0  0  0  0  0  0  0  0  0  0  0  0
  1  2  1  0  0  0  0
  1  5  2  0  0  0  0
  2  6  2  0  0  0  0
  3  8  2  0  0  0  0
  3 17  1  0  0  0  0
  4  9  1  0  0  0  0
  4 17  2  0  0  0  0
  5 19  1  0  0  0  0
  6 21  1  0  0  0  0
  7 10  2  0  0  0  0
  7 20  1  0  0  0  0
  8 24  1  0  0  0  0
  9 24  2  0  0  0  0
 10 25  1  0  0  0  0
 11 12  2  0  0  0  0
 11 26  1  0  0  0  0
 12 27  1  0  0  0  0
 13 22  1  0  0  0  0
 13 25  2  0  0  0  0
 14 23  1  0  0  0  0
 14 30  2  0  0  0  0
 15 27  2  0  0  0  0
 15 28  1  0  0  0  0
 16 23  2  0  0  0  0
 16 64  1  0  0  0  0
 17 29  1  0  0  0  0
 18 29  1  0  0  0  0
 18 31  2  0  0  0  0
 18 32  1  0  0  0  0
 19 21  2  0  0  0  0
 19 37  1  0  0  0  0
 20 22  2  0  0  0  0
 20 38  1  0  0  0  0
 21 46  1  0  0  0  0
 22 39  1  0  0  0  0
 23 55  1  0  0  0  0
 24 79  1  0  0  0  0
 25 80  1  0  0  0  0
 26 28  2  0  0  0  0
 26 79  1  0  0  0  0
 27 81  1  0  0  0  0
 28 82  1  0  0  0  0
 29 63  2  0  0  0  0
 30 56  1  0  0  0  0
 30 64  1  0  0  0  0
 31 65  1  0  0  0  0
 31 68  1  0  0  0  0
 32 69  1  0  0  0  0
 32 74  2  0  0  0  0
 33 47  1  0  0  0  0
 33 70  1  0  0  0  0
 33 75  2  0  0  0  0
 34 60  1  0  0  0  0
 34 66  1  0  0  0  0
 34 76  2  0  0  0  0
 35 61  1  0  0  0  0
 35 71  1  0  0  0  0
 35 77  2  0  0  0  0
 36 67  1  0  0  0  0
 36 72  1  0  0  0  0
 36 78  2  0  0  0  0
 37 40  1  0  0  0  0
 38 47  1  0  0  0  0
 39 66  1  0  0  0  0
 40 42  1  0  0  0  0
 41 43  1  0  0  0  0
 41 44  1  0  0  0  0
 42 46  1  0  0  0  0
 43 48  1  0  0  0  0
 44 67  1  0  0  0  0
 45 48  1  0  0  0  0
 45 67  1  0  0  0  0
 46 70  1  0  0  0  0
 47 66  1  0  0  0  0
 48 65  1  0  0  0  0
 49 61  1  0  0  0  0
 50 62  1  0  0  0  0
 51 62  1  0  0  0  0
 52 62  1  0  0  0  0
 53 64  1  0  0  0  0
 54 73  1  0  0  0  0
 55 80  1  0  0  0  0
 56 57  1  0  0  0  0
 57 58  1  0  0  0  0
 58 59  1  0  0  0  0
 59 72  1  0  0  0  0
 60 62  1  0  0  0  0
 60 71  1  0  0  0  0
 61 73  1  0  0  0  0
 63 65  1  0  0  0  0
M  CHG  1  73   1
M  ISO  4  36 100  55 101  72 100  80 101
M  END
> <Batch ID>
0039

> <Smiles>
CNC(C)C(=O)NC(C(=O)N1Cc2cc([101O:1][101CH2:1]c3cc(CCCC[100NH:0][100C:0](=O)N4CCCC(n5nc(-c6ccc(Oc7ccc(F)cc7F)cc6)c(C(N)=O)c5N)C4)n(C)c3)ccc2CC1C(=O)NC1CCCc2ccccc21)C(C)(C)C

> <Shape>
0.302

> <Color>
0.200

> <Negative vol penalty>
0.000

$$$$

  -OEChem-04052317043D

 85 93  0     1  0  0  0  0  0999 V2000
  -16.3950  -14.9190   23.8207 C   0  0  0  0  0  0  0  0  0  0  0  0
  -17.6420  -15.2501   23.3004 C   0  0  0  0  0  0  0  0  0  0  0  0
  -23.0744   -9.8695   19.9418 C   0  0  0  0  0  0  0  0  0  0  0  0
  -23.8380   -9.8756   22.2340 C   0  0  0  0  0  0  0  0  0  0  0  0
  -15.8892  -15.6195   24.9150 C   0  0  0  0  0  0  0  0  0  0  0  0
  -18.3836  -16.2826   23.8735 C   0  0  0  0  0  0  0  0  0  0  0  0
  -24.4770  -16.5807   24.4096 C   0  0  0  0  0  0  0  0  0  0  0  0
  -22.3314   -8.7159   20.1924 C   0  0  0  0  0  0  0  0  0  0  0  0
  -23.0949   -8.7220   22.4846 C   0  0  0  0  0  0  0  0  0  0  0  0
  -25.4547  -17.2259   23.6535 C   0  0  0  0  0  0  0  0  0  0  0  0
  -19.8680   -7.9227   23.0919 C   0  0  0  0  0  0  0  0  0  0  0  0
  -19.1130   -7.8819   24.2640 C   0  0  0  0  0  0  0  0  0  0  0  0
  -25.4105  -19.0830   25.1925 C   0  0  0  0  0  0  0  0  0  0  0  0
  -25.3401  -20.9171   20.6892 C   0  0  0  0  0  0  0  0  0  0  0  0
  -26.5984  -19.4732   18.6608 C   0  0  0  0  0  0  0  0  0  0  0  0
  -20.3563   -5.9445   24.9974 C   0  0  0  0  0  0  0  0  0  0  0  0
  -23.8278  -10.4493   20.9626 C   0  0  0  0  0  0  0  0  0  0  0  0
  -24.1684  -12.9747   20.8433 C   0  0  0  0  0  0  0  0  0  0  0  0
  -16.6291  -16.6548   25.5078 C   0  0  0  0  0  0  0  0  0  0  0  0
  -23.9500  -17.1876   25.5586 C   0  0  0  0  0  0  0  0  0  0  0  0
  -17.8866  -16.9985   24.9759 C   0  0  0  0  0  0  0  0  0  0  0  0
  -24.4280  -18.4423   25.9628 C   0  0  0  0  0  0  0  0  0  0  0  0
  -26.6962  -20.6072   20.7919 C   0  0  0  0  0  0  0  0  0  0  0  0
  -24.6131  -20.5050   19.5724 C   0  0  0  0  0  0  0  0  0  0  0  0
  -27.3254  -19.8852   19.7777 C   0  0  0  0  0  0  0  0  0  0  0  0
  -22.3416   -8.1422   21.4637 C   0  0  0  0  0  0  0  0  0  0  0  0
  -25.9195  -18.4785   24.0433 C   0  0  0  0  0  0  0  0  0  0  0  0
  -20.8672   -6.9744   22.8725 C   0  0  0  0  0  0  0  0  0  0  0  0
  -19.3571   -6.8928   25.2168 C   0  0  0  0  0  0  0  0  0  0  0  0
  -21.1114   -5.9853   23.8253 C   0  0  0  0  0  0  0  0  0  0  0  0
  -25.2423  -19.7831   18.5582 C   0  0  0  0  0  0  0  0  0  0  0  0
  -24.5960  -11.6406   20.7042 C   0  0  0  0  0  0  0  0  0  0  0  0
  -25.2597  -13.7248   20.4786 C   0  0  0  0  0  0  0  0  0  0  0  0
  -22.8984  -13.4898   21.2645 C   0  0  0  0  0  0  0  0  0  0  0  0
  -21.0635  -18.1763   26.4500 C   0  0  0  0  0  0  0  0  0  0  0  0
  -22.5494  -18.7115   29.2834 C   0  0  0  0  0  0  0  0  0  0  0  0
  -25.4600  -19.3153   30.9598 C   0  0  0  0  0  0  0  0  0  0  0  0
  -30.7433  -14.7458   20.6587 C   0  0  0  0  0  0  0  0  0  0  0  0
  -16.0203  -17.4148   26.6595 C   0  0  0  0  0  0  0  0  0  0  0  0
  -22.9150  -16.4667   26.3781 C   0  0  0  0  0  0  0  0  0  0  0  0
  -23.9094  -19.1278   27.1996 C   0  0  0  0  0  0  0  0  0  0  0  0
  -17.0323  -18.2469   27.4429 C   0  0  0  0  0  0  0  0  0  0  0  0
  -29.6028  -12.3621   18.2726 C   0  0  0  0  0  0  0  0  0  0  0  0
  -17.9262  -19.0353   26.4910 C   0  0  0  0  0  0  0  0  0  0  0  0
  -28.1662  -12.0676   18.7077 C   0  0  0  0  0  0  0  0  0  0  0  0
  -30.5218  -12.5827   19.4721 C   0  0  0  0  0  0  0  0  0  0  0  0
  -28.6220  -13.3123   20.8621 C   0  0  0  0  0  0  0  0  0  0  0  0
  -18.7318  -18.0958   25.5854 C   0  0  1  0  0  0  0  0  0  0  0  0
  -22.0791  -17.4043   27.2439 C   0  0  1  0  0  0  0  0  0  0  0  0
  -27.6460  -13.1379   19.6859 C   0  0  2  0  0  0  0  0  0  0  0  0
  -23.1623  -20.8570   19.5004 C   0  0  0  0  0  0  0  0  0  0  0  0
  -26.3525  -19.7460   33.2654 C   0  0  0  0  0  0  0  0  0  0  0  0
  -21.4857  -21.5686   29.1588 C   0  0  0  0  0  0  0  0  0  0  0  0
  -23.1474  -22.1901   30.9253 C   0  0  0  0  0  0  0  0  0  0  0  0
  -21.3712  -20.5106   31.4219 C   0  0  0  0  0  0  0  0  0  0  0  0
  -27.1583  -16.8928   30.8808 C   0  0  0  0  0  0  0  0  0  0  0  0
  -27.4627  -21.0612   22.0104 C   0  0  0  0  0  0  0  0  0  0  0  0
  -28.7756  -19.5396   19.8674 C   0  0  0  0  0  0  0  0  0  0  0  0
  -29.0339  -18.3684   20.8269 C   0  0  0  0  0  0  0  0  0  0  0  0
  -30.5275  -18.0481   20.9382 C   0  0  0  0  0  0  0  0  0  0  0  0
  -30.8103  -16.8958   21.8966 C   0  0  0  0  0  0  0  0  0  0  0  0
  -26.8539  -20.5377   23.3067 C   0  0  0  0  0  0  0  0  0  1  0  0
  -23.2876  -19.8748   29.9004 C   0  0  1  0  0  0  0  0  0  0  0  0
  -26.0491  -18.6917   32.2122 C   0  0  2  0  0  0  0  0  0  0  0  0
  -22.3316  -21.0242   30.3272 C   0  0  0  0  0  0  0  0  0  0  0  0
  -25.8602  -11.5455   20.2839 N   0  0  0  0  0  0  0  0  0  0  0  0
  -26.2364  -12.8293   20.1556 N   0  0  0  0  0  0  0  0  0  0  0  0
  -22.8936  -18.3852   27.9640 N   0  0  0  0  0  0  0  0  0  0  0  0
  -29.9723  -13.6105   20.3595 N   0  0  0  0  0  0  0  0  0  0  0  0
  -25.4694  -15.0563   20.4060 N   0  0  0  0  0  0  0  0  0  0  0  0
  -21.8874  -12.5800   21.6029 N   0  0  0  0  0  0  0  0  0  0  0  0
  -19.8497  -17.5308   26.3103 N   0  0  0  0  0  0  0  0  0  0  0  0
  -24.0815  -19.3215   30.9923 N   0  0  0  0  0  0  0  0  0  0  0  0
  -30.1452  -15.6740   21.5022 N   0  0  0  0  0  0  0  0  0  0  0  0
  -27.3142  -17.9740   31.8876 N   0  3  0  0  0  0  0  0  0  0  0  0
  -22.6618  -14.7203   21.3228 O   0  0  0  0  0  0  0  0  0  0  0  0
  -21.3587  -19.2768   25.9990 O   0  0  0  0  0  0  0  0  0  0  0  0
  -21.7037  -18.1098   29.9500 O   0  0  0  0  0  0  0  0  0  0  0  0
  -26.1534  -19.7565   30.0460 O   0  0  0  0  0  0  0  0  0  0  0  0
  -31.8785  -14.9220   20.2034 O   0  0  0  0  0  0  0  0  0  0  0  0
  -21.6165   -7.0167   21.7087 O   0  0  0  0  0  0  0  0  0  0  0  0
  -26.8732  -19.1108   23.3068 O   0  0  0  0  0  0  0  0  0  1  0  0
  -18.6330   -6.8547   26.3430 F   0  0  0  0  0  0  0  0  0  0  0  0
  -22.0707   -5.0723   23.6207 F   0  0  0  0  0  0  0  0  0  0  0  0
  -24.3752  -19.2563   17.1617 Cl  0  0  0  0  0  0  0  0  0  0  0  0
  1  2  1  0  0  0  0
  1  5  2  0  0  0  0
  2  6  2  0  0  0  0
  3  8  2  0  0  0  0
  3 17  1  0  0  0  0
  4  9  1  0  0  0  0
  4 17  2  0  0  0  0
  5 19  1  0  0  0  0
  6 21  1  0  0  0  0
  7 10  2  0  0  0  0
  7 20  1  0  0  0  0
  8 26  1  0  0  0  0
  9 26  2  0  0  0  0
 10 27  1  0  0  0  0
 11 12  2  0  0  0  0
 11 28  1  0  0  0  0
 12 29  1  0  0  0  0
 13 22  1  0  0  0  0
 13 27  2  0  0  0  0
 14 23  1  0  0  0  0
 14 24  2  0  0  0  0
 15 25  1  0  0  0  0
 15 31  2  0  0  0  0
 16 29  2  0  0  0  0
 16 30  1  0  0  0  0
 17 32  1  0  0  0  0
 18 32  1  0  0  0  0
 18 33  2  0  0  0  0
 18 34  1  0  0  0  0
 19 21  2  0  0  0  0
 19 39  1  0  0  0  0
 20 22  2  0  0  0  0
 20 40  1  0  0  0  0
 21 48  1  0  0  0  0
 22 41  1  0  0  0  0
 23 25  2  0  0  0  0
 23 57  1  0  0  0  0
 24 31  1  0  0  0  0
 24 51  1  0  0  0  0
 25 58  1  0  0  0  0
 26 81  1  0  0  0  0
 27 82  1  0  0  0  0
 28 30  2  0  0  0  0
 28 81  1  0  0  0  0
 29 83  1  0  0  0  0
 30 84  1  0  0  0  0
 31 85  1  0  0  0  0
 32 66  2  0  0  0  0
 33 67  1  0  0  0  0
 33 70  1  0  0  0  0
 34 71  1  0  0  0  0
 34 76  2  0  0  0  0
 35 49  1  0  0  0  0
 35 72  1  0  0  0  0
 35 77  2  0  0  0  0
 36 63  1  0  0  0  0
 36 68  1  0  0  0  0
 36 78  2  0  0  0  0
 37 64  1  0  0  0  0
 37 73  1  0  0  0  0
 37 79  2  0  0  0  0
 38 69  1  0  0  0  0
 38 74  1  0  0  0  0
 38 80  2  0  0  0  0
 39 42  1  0  0  0  0
 40 49  1  0  0  0  0
 41 68  1  0  0  0  0
 42 44  1  0  0  0  0
 43 45  1  0  0  0  0
 43 46  1  0  0  0  0
 44 48  1  0  0  0  0
 45 50  1  0  0  0  0
 46 69  1  0  0  0  0
 47 50  1  0  0  0  0
 47 69  1  0  0  0  0
 48 72  1  0  0  0  0
 49 68  1  0  0  0  0
 50 67  1  0  0  0  0
 52 64  1  0  0  0  0
 53 65  1  0  0  0  0
 54 65  1  0  0  0  0
 55 65  1  0  0  0  0
 56 75  1  0  0  0  0
 57 62  1  0  0  0  0
 58 59  1  0  0  0  0
 59 60  1  0  0  0  0
 60 61  1  0  0  0  0
 61 74  1  0  0  0  0
 62 82  1  0  0  0  0
 63 65  1  0  0  0  0
 63 73  1  0  0  0  0
 64 75  1  0  0  0  0
 66 67  1  0  0  0  0
M  CHG  1  75   1
M  ISO  4  38 100  62 101  74 100  82 101
M  END
> <Batch ID>
0039

> <Smiles>
CNC(C)C(=O)NC(C(=O)N1Cc2cc([101O:1][101CH2:1]Cc3cc(C)c(Cl)cc3CCCC[100NH:0][100C:0](=O)N3CCCC(n4nc(-c5ccc(Oc6ccc(F)cc6F)cc5)c(C(N)=O)c4N)C3)ccc2CC1C(=O)NC1CCCc2ccccc21)C(C)(C)C

> <Shape>
0.190

> <Color>
0.200

> <Negative vol penalty>
0.000

$$$$

  -OEChem-04052317043D

 86 94  0     1  0  0  0  0  0999 V2000
  -25.3950  -17.3654   17.9411 C   0  0  0  0  0  0  0  0  0  0  0  0
  -24.7783  -18.5801   18.2230 C   0  0  0  0  0  0  0  0  0  0  0  0
  -23.2956  -12.6077   19.3599 C   0  0  0  0  0  0  0  0  0  0  0  0
  -24.3360  -14.2974   20.7382 C   0  0  0  0  0  0  0  0  0  0  0  0
  -26.6378  -17.0696   18.4997 C   0  0  0  0  0  0  0  0  0  0  0  0
  -25.4035  -19.4994   19.0647 C   0  0  0  0  0  0  0  0  0  0  0  0
  -25.2075  -25.6057   18.6399 C   0  0  0  0  0  0  0  0  0  0  0  0
  -24.4718  -11.8586   19.3904 C   0  0  0  0  0  0  0  0  0  0  0  0
  -25.5122  -13.5483   20.7687 C   0  0  0  0  0  0  0  0  0  0  0  0
  -24.4413  -26.5675   19.2968 C   0  0  0  0  0  0  0  0  0  0  0  0
  -28.9054  -12.2539   20.9119 C   0  0  0  0  0  0  0  0  0  0  0  0
  -30.1093  -12.9286   20.7092 C   0  0  0  0  0  0  0  0  0  0  0  0
  -26.2375  -26.9162   20.8689 C   0  0  0  0  0  0  0  0  0  0  0  0
  -29.3480  -13.6312   18.5265 C   0  0  0  0  0  0  0  0  0  0  0  0
  -22.1253  -28.7859   24.3959 C   0  0  0  0  0  0  0  0  0  0  0  0
  -23.2277  -13.8271   20.0338 C   0  0  0  0  0  0  0  0  0  0  0  0
  -20.9351  -14.5296   20.9047 C   0  0  0  0  0  0  0  0  0  0  0  0
  -27.2830  -17.9898   19.3409 C   0  0  0  0  0  0  0  0  0  0  0  0
  -26.4925  -25.2836   19.0999 C   0  0  0  0  0  0  0  0  0  0  0  0
  -26.6555  -19.2151   19.6361 C   0  0  0  0  0  0  0  0  0  0  0  0
  -27.0190  -25.9518   20.2145 C   0  0  0  0  0  0  0  0  0  0  0  0
  -25.5801  -12.3288   20.0948 C   0  0  0  0  0  0  0  0  0  0  0  0
  -24.9550  -27.2209   20.4132 C   0  0  0  0  0  0  0  0  0  0  0  0
  -27.9229  -12.2677   19.9219 C   0  0  0  0  0  0  0  0  0  0  0  0
  -30.3306  -13.6173   19.5166 C   0  0  0  0  0  0  0  0  0  0  0  0
  -28.1442  -12.9564   18.7292 C   0  0  0  0  0  0  0  0  0  0  0  0
  -22.0131  -14.6017   20.0022 C   0  0  0  0  0  0  0  0  0  0  0  0
  -22.5326  -29.2756   23.1872 C   0  0  0  0  0  0  0  0  0  0  0  0
  -20.0374  -15.4606   20.4424 C   0  0  0  0  0  0  0  0  0  0  0  0
  -20.4283  -28.6191   22.9843 C   0  0  0  0  0  0  0  0  0  0  0  0
  -20.7609  -13.6956   22.0579 C   0  0  0  0  0  0  0  0  0  0  0  0
  -27.8797  -22.6521   20.2202 C   0  0  0  0  0  0  0  0  0  0  0  0
  -30.5517  -24.4888   20.1241 C   0  0  0  0  0  0  0  0  0  0  0  0
  -31.9206  -27.6150   20.1393 C   0  0  0  0  0  0  0  0  0  0  0  0
  -20.6424  -20.4223   17.1460 C   0  0  0  0  0  0  0  0  0  0  0  0
  -28.6041  -17.6059   19.9590 C   0  0  0  0  0  0  0  0  0  0  0  0
  -27.3167  -24.2628   18.3642 C   0  0  0  0  0  0  0  0  0  0  0  0
  -28.4008  -25.6569   20.7362 C   0  0  0  0  0  0  0  0  0  0  0  0
  -29.3711  -18.7902   20.5414 C   0  0  0  0  0  0  0  0  0  0  0  0
  -18.6024  -17.5986   16.4100 C   0  0  0  0  0  0  0  0  0  0  0  0
  -28.4451  -19.6658   21.3797 C   0  0  0  0  0  0  0  0  0  0  0  0
  -19.1479  -16.5038   17.3286 C   0  0  0  0  0  0  0  0  0  0  0  0
  -19.7163  -18.5017   15.8850 C   0  0  0  0  0  0  0  0  0  0  0  0
  -21.1225  -17.9981   17.8453 C   0  0  0  0  0  0  0  0  0  0  0  0
  -27.3133  -20.2485   20.5246 C   0  0  1  0  0  0  0  0  0  0  0  0
  -28.4130  -23.6457   19.2272 C   0  0  1  0  0  0  0  0  0  0  0  0
  -20.0299  -17.0960   18.4443 C   0  0  2  0  0  0  0  0  0  0  0  0
  -34.1339  -28.7965   20.0890 C   0  0  0  0  0  0  0  0  0  0  0  0
  -30.9971  -23.7743   23.0568 C   0  0  0  0  0  0  0  0  0  0  0  0
  -32.6142  -25.6800   23.2034 C   0  0  0  0  0  0  0  0  0  0  0  0
  -33.0696  -23.7761   21.6572 C   0  0  0  0  0  0  0  0  0  0  0  0
  -19.9966  -27.8061   25.2839 C   0  0  0  0  0  0  0  0  0  0  0  0
  -31.2617  -28.9867   17.6010 C   0  0  0  0  0  0  0  0  0  0  0  0
  -23.8527  -29.8547   22.7394 C   0  0  0  0  0  0  0  0  0  0  0  0
  -19.0943  -28.3359   22.3986 C   0  0  0  0  0  0  0  0  0  0  0  0
  -18.8592  -26.8576   22.0227 C   0  0  0  0  0  0  0  0  0  0  0  0
  -19.9064  -26.3272   21.0373 C   0  0  0  0  0  0  0  0  0  0  0  0
  -19.7260  -24.8434   20.7016 C   0  0  0  0  0  0  0  0  0  0  0  0
  -20.8140  -24.2938   19.7754 C   0  0  0  0  0  0  0  0  0  0  0  0
  -20.5689  -22.8164   19.4505 C   0  0  0  0  0  0  0  0  0  0  0  0
  -21.6295  -22.2397   18.5179 C   0  0  0  0  0  0  0  0  0  0  0  0
  -24.7977  -28.7898   22.1936 C   0  0  0  0  0  0  0  0  0  1  0  0
  -31.2403  -25.4256   21.0870 C   0  0  1  0  0  0  0  0  0  0  0  0
  -32.9796  -28.2552   19.2600 C   0  0  2  0  0  0  0  0  0  0  0  0
  -31.9535  -24.6684   22.2427 C   0  0  0  0  0  0  0  0  0  0  0  0
  -21.8197  -15.5069   19.0393 N   0  0  0  0  0  0  0  0  0  0  0  0
  -20.8194  -28.3873   24.2416 N   0  0  0  0  0  0  0  0  0  0  0  0
  -20.6098  -16.0121   19.3341 N   0  0  0  0  0  0  0  0  0  0  0  0
  -21.4629  -29.1599   22.3327 N   0  3  0  0  0  0  0  0  0  0  0  0
  -29.1653  -24.6465   19.9864 N   0  0  0  0  0  0  0  0  0  0  0  0
  -20.5144  -19.0319   16.9931 N   0  0  0  0  0  0  0  0  0  0  0  0
  -18.8221  -15.8531   20.8799 N   0  0  0  0  0  0  0  0  0  0  0  0
  -21.7814  -12.7945   22.3911 N   0  0  0  0  0  0  0  0  0  0  0  0
  -27.7975  -21.3608   19.7354 N   0  0  0  0  0  0  0  0  0  0  0  0
  -32.1268  -26.2591   20.2822 N   0  0  0  0  0  0  0  0  0  0  0  0
  -21.4107  -20.8406   18.2256 N   0  0  0  0  0  0  0  0  0  0  0  0
  -32.3932  -29.3810   18.4792 N   0  3  0  0  0  0  0  0  0  0  0  0
  -19.7238  -13.7363   22.7622 O   0  0  0  0  0  0  0  0  0  0  0  0
  -27.5674  -23.0290   21.3437 O   0  0  0  0  0  0  0  0  0  0  0  0
  -31.2203  -23.6529   19.5111 O   0  0  0  0  0  0  0  0  0  0  0  0
  -31.0044  -28.2544   20.6514 O   0  0  0  0  0  0  0  0  0  0  0  0
  -20.1068  -21.2311   16.3805 O   0  0  0  0  0  0  0  0  0  0  0  0
  -26.7279  -11.5980   20.1250 O   0  0  0  0  0  0  0  0  0  0  0  0
  -24.2090  -28.1596   21.0566 O   0  0  0  0  0  0  0  0  0  1  0  0
  -31.4860  -14.2665   19.3227 F   0  0  0  0  0  0  0  0  0  0  0  0
  -27.2035  -12.9742   17.7750 F   0  0  0  0  0  0  0  0  0  0  0  0
  1  2  1  0  0  0  0
  1  5  2  0  0  0  0
  2  6  2  0  0  0  0
  3  8  2  0  0  0  0
  3 16  1  0  0  0  0
  4  9  1  0  0  0  0
  4 16  2  0  0  0  0
  5 18  1  0  0  0  0
  6 20  1  0  0  0  0
  7 10  2  0  0  0  0
  7 19  1  0  0  0  0
  8 22  1  0  0  0  0
  9 22  2  0  0  0  0
 10 23  1  0  0  0  0
 11 12  2  0  0  0  0
 11 24  1  0  0  0  0
 12 25  1  0  0  0  0
 13 21  1  0  0  0  0
 13 23  2  0  0  0  0
 14 25  2  0  0  0  0
 14 26  1  0  0  0  0
 15 28  2  0  0  0  0
 15 67  1  0  0  0  0
 16 27  1  0  0  0  0
 17 27  1  0  0  0  0
 17 29  2  0  0  0  0
 17 31  1  0  0  0  0
 18 20  2  0  0  0  0
 18 36  1  0  0  0  0
 19 21  2  0  0  0  0
 19 37  1  0  0  0  0
 20 45  1  0  0  0  0
 21 38  1  0  0  0  0
 22 83  1  0  0  0  0
 23 84  1  0  0  0  0
 24 26  2  0  0  0  0
 24 83  1  0  0  0  0
 25 85  1  0  0  0  0
 26 86  1  0  0  0  0
 27 66  2  0  0  0  0
 28 54  1  0  0  0  0
 28 69  1  0  0  0  0
 29 68  1  0  0  0  0
 29 72  1  0  0  0  0
 30 55  1  0  0  0  0
 30 67  1  0  0  0  0
 30 69  2  0  0  0  0
 31 73  1  0  0  0  0
 31 78  2  0  0  0  0
 32 46  1  0  0  0  0
 32 74  1  0  0  0  0
 32 79  2  0  0  0  0
 33 63  1  0  0  0  0
 33 70  1  0  0  0  0
 33 80  2  0  0  0  0
 34 64  1  0  0  0  0
 34 75  1  0  0  0  0
 34 81  2  0  0  0  0
 35 71  1  0  0  0  0
 35 76  1  0  0  0  0
 35 82  2  0  0  0  0
 36 39  1  0  0  0  0
 37 46  1  0  0  0  0
 38 70  1  0  0  0  0
 39 41  1  0  0  0  0
 40 42  1  0  0  0  0
 40 43  1  0  0  0  0
 41 45  1  0  0  0  0
 42 47  1  0  0  0  0
 43 71  1  0  0  0  0
 44 47  1  0  0  0  0
 44 71  1  0  0  0  0
 45 74  1  0  0  0  0
 46 70  1  0  0  0  0
 47 68  1  0  0  0  0
 48 64  1  0  0  0  0
 49 65  1  0  0  0  0
 50 65  1  0  0  0  0
 51 65  1  0  0  0  0
 52 67  1  0  0  0  0
 53 77  1  0  0  0  0
 54 62  1  0  0  0  0
 55 56  1  0  0  0  0
 56 57  1  0  0  0  0
 57 58  1  0  0  0  0
 58 59  1  0  0  0  0
 59 60  1  0  0  0  0
 60 61  1  0  0  0  0
 61 76  1  0  0  0  0
 62 84  1  0  0  0  0
 63 65  1  0  0  0  0
 63 75  1  0  0  0  0
 64 77  1  0  0  0  0
 66 68  1  0  0  0  0
M  CHG  2  69   1  77   1
M  ISO  4  35 100  62 101  76 100  84 101
M  END
> <Batch ID>
0039

> <Smiles>
CNC(C)C(=O)NC(C(=O)N1Cc2cc([101O:1][101CH2:1]Cc3cn(C)c(CCCCCCC[100NH:0][100C:0](=O)N4CCCC(n5nc(-c6ccc(Oc7ccc(F)cc7F)cc6)c(C(N)=O)c5N)C4)n3)ccc2CC1C(=O)NC1CCCc2ccccc21)C(C)(C)C

> <Shape>
0.233

> <Color>
0.064

> <Negative vol penalty>
0.000

$$$$

  -OEChem-04052317043D

 81 89  0     1  0  0  0  0  0999 V2000
  -27.6837  -32.6464   27.1692 C   0  0  0  0  0  0  0  0  0  0  0  0
  -27.9342  -31.5942   26.2943 C   0  0  0  0  0  0  0  0  0  0  0  0
  -27.7771  -15.1424   19.1741 C   0  0  0  0  0  0  0  0  0  0  0  0
  -27.2982  -15.4098   21.5270 C   0  0  0  0  0  0  0  0  0  0  0  0
  -26.3714  -32.9676   27.5137 C   0  0  0  0  0  0  0  0  0  0  0  0
  -26.8726  -30.8619   25.7641 C   0  0  0  0  0  0  0  0  0  0  0  0
  -27.3796  -30.0242   20.7956 C   0  0  0  0  0  0  0  0  0  0  0  0
  -27.2784  -13.8406   19.2205 C   0  0  0  0  0  0  0  0  0  0  0  0
  -26.7994  -14.1080   21.5734 C   0  0  0  0  0  0  0  0  0  0  0  0
  -28.2601  -29.0157   20.4065 C   0  0  0  0  0  0  0  0  0  0  0  0
  -25.0676  -10.9795   22.2301 C   0  0  0  0  0  0  0  0  0  0  0  0
  -23.8664  -10.7681   22.9068 C   0  0  0  0  0  0  0  0  0  0  0  0
  -26.3958  -27.5172   20.0934 C   0  0  0  0  0  0  0  0  0  0  0  0
  -22.7487  -12.2878   21.3973 C   0  0  0  0  0  0  0  0  0  0  0  0
  -28.4481  -25.4862   23.2352 C   0  0  0  0  0  0  0  0  0  0  0  0
  -30.0227  -25.1687   24.7955 C   0  0  0  0  0  0  0  0  0  0  0  0
  -27.7871  -15.9270   20.3274 C   0  0  0  0  0  0  0  0  0  0  0  0
  -27.5829  -18.4487   20.0001 C   0  0  0  0  0  0  0  0  0  0  0  0
  -25.2927  -32.2450   26.9800 C   0  0  0  0  0  0  0  0  0  0  0  0
  -25.9992  -29.7831   20.8471 C   0  0  0  0  0  0  0  0  0  0  0  0
  -25.5447  -31.1729   26.1029 C   0  0  0  0  0  0  0  0  0  0  0  0
  -25.4997  -28.5251   20.4810 C   0  0  0  0  0  0  0  0  0  0  0  0
  -29.5089  -24.8530   22.6261 C   0  0  0  0  0  0  0  0  0  0  0  0
  -30.5051  -24.6523   23.6132 C   0  0  0  0  0  0  0  0  0  0  0  0
  -26.7896  -13.3234   20.4202 C   0  0  0  0  0  0  0  0  0  0  0  0
  -27.7685  -27.7611   20.0581 C   0  0  0  0  0  0  0  0  0  0  0  0
  -25.1094  -11.8451   21.1370 C   0  0  0  0  0  0  0  0  0  0  0  0
  -22.7069  -11.4223   22.4904 C   0  0  0  0  0  0  0  0  0  0  0  0
  -23.9500  -12.4992   20.7206 C   0  0  0  0  0  0  0  0  0  0  0  0
  -28.3026  -17.2717   20.2802 C   0  0  0  0  0  0  0  0  0  0  0  0
  -28.5194  -19.4505   20.0778 C   0  0  0  0  0  0  0  0  0  0  0  0
  -26.1922  -18.6212   19.6970 C   0  0  0  0  0  0  0  0  0  0  0  0
  -23.8011  -29.8122   23.1430 C   0  0  0  0  0  0  0  0  0  0  0  0
  -21.7658  -29.3333   20.6629 C   0  0  0  0  0  0  0  0  0  0  0  0
  -21.2953  -28.1999   17.4784 C   0  0  0  0  0  0  0  0  0  0  0  0
  -32.8385  -21.8872   22.6377 C   0  0  0  0  0  0  0  0  0  0  0  0
  -23.8938  -32.5991   27.4188 C   0  0  0  0  0  0  0  0  0  0  0  0
  -25.0604  -30.8896   21.2432 C   0  0  0  0  0  0  0  0  0  0  0  0
  -24.0246  -28.2213   20.5000 C   0  0  0  0  0  0  0  0  0  0  0  0
  -22.8072  -32.0134   26.5207 C   0  0  0  0  0  0  0  0  0  0  0  0
  -33.5632  -19.2253   20.3869 C   0  0  0  0  0  0  0  0  0  0  0  0
  -23.0888  -30.5423   26.2319 C   0  0  0  0  0  0  0  0  0  0  0  0
  -32.2014  -18.5735   20.1406 C   0  0  0  0  0  0  0  0  0  0  0  0
  -33.7037  -19.7120   21.8275 C   0  0  0  0  0  0  0  0  0  0  0  0
  -31.2602  -19.9503   22.0425 C   0  0  0  0  0  0  0  0  0  0  0  0
  -24.4185  -30.3708   25.4876 C   0  0  1  0  0  0  0  0  0  0  0  0
  -23.7166  -30.3789   21.7539 C   0  0  1  0  0  0  0  0  0  0  0  0
  -31.0501  -19.4938   20.5887 C   0  0  2  0  0  0  0  0  0  0  0  0
  -19.5142  -27.9050   15.7355 C   0  0  0  0  0  0  0  0  0  0  0  0
  -20.6860  -26.9155   22.1789 C   0  0  0  0  0  0  0  0  0  0  0  0
  -19.6335  -26.1354   20.0455 C   0  0  0  0  0  0  0  0  0  0  0  0
  -18.9386  -28.3079   21.0554 C   0  0  0  0  0  0  0  0  0  0  0  0
  -27.9222  -26.3024   25.5390 C   0  0  0  0  0  0  0  0  0  0  0  0
  -22.6906  -29.9938   15.5826 C   0  0  0  0  0  0  0  0  0  0  0  0
  -29.5837  -24.4511   21.1748 C   0  0  0  0  0  0  0  0  0  0  0  0
  -31.8206  -24.0102   23.4224 C   0  0  0  0  0  0  0  0  0  0  0  0
  -30.4618  -25.3721   20.3250 C   0  0  0  0  0  0  0  0  0  0  0  0
  -29.9362  -26.8005   20.2429 C   0  0  0  0  0  0  0  0  0  1  0  0
  -21.2079  -28.1214   19.9565 C   0  0  1  0  0  0  0  0  0  0  0  0
  -20.5989  -28.8207   16.2809 C   0  0  2  0  0  0  0  0  0  0  0  0
  -20.1445  -27.3749   20.8105 C   0  0  0  0  0  0  0  0  0  0  0  0
  -29.5965  -17.5027   20.5178 N   0  0  0  0  0  0  0  0  0  0  0  0
  -28.7714  -25.6727   24.5539 N   0  0  0  0  0  0  0  0  0  0  0  0
  -29.6973  -18.8364   20.3872 N   0  0  0  0  0  0  0  0  0  0  0  0
  -23.1476  -29.3340   20.9003 N   0  0  0  0  0  0  0  0  0  0  0  0
  -32.5814  -20.5811   22.1891 N   0  0  0  0  0  0  0  0  0  0  0  0
  -28.4420  -20.7878   19.9108 N   0  0  0  0  0  0  0  0  0  0  0  0
  -25.3711  -17.4860   19.6581 N   0  0  0  0  0  0  0  0  0  0  0  0
  -24.2619  -30.7079   24.0890 N   0  0  0  0  0  0  0  0  0  0  0  0
  -20.7152  -28.5918   18.6663 N   0  0  0  0  0  0  0  0  0  0  0  0
  -31.7183  -22.6462   22.9534 N   0  0  0  0  0  0  0  0  0  0  0  0
  -21.5805  -29.0872   15.1916 N   0  3  0  0  0  0  0  0  0  0  0  0
  -25.6958  -19.7466   19.4513 O   0  0  0  0  0  0  0  0  0  0  0  0
  -23.4710  -28.6490   23.3420 O   0  0  0  0  0  0  0  0  0  0  0  0
  -21.0047  -30.2489   20.9856 O   0  0  0  0  0  0  0  0  0  0  0  0
  -22.2554  -27.4402   17.3707 O   0  0  0  0  0  0  0  0  0  0  0  0
  -33.9815  -22.3447   22.7436 O   0  0  0  0  0  0  0  0  0  0  0  0
  -26.3026  -12.0532   20.4658 O   0  0  0  0  0  0  0  0  0  0  0  0
  -28.6258  -26.7748   19.6786 O   0  0  0  0  0  0  0  0  0  1  0  0
  -21.5531  -11.2180   23.1394 F   0  0  0  0  0  0  0  0  0  0  0  0
  -23.9837  -13.3310   19.6705 F   0  0  0  0  0  0  0  0  0  0  0  0
  1  2  1  0  0  0  0
  1  5  2  0  0  0  0
  2  6  2  0  0  0  0
  3  8  2  0  0  0  0
  3 17  1  0  0  0  0
  4  9  1  0  0  0  0
  4 17  2  0  0  0  0
  5 19  1  0  0  0  0
  6 21  1  0  0  0  0
  7 10  2  0  0  0  0
  7 20  1  0  0  0  0
  8 25  1  0  0  0  0
  9 25  2  0  0  0  0
 10 26  1  0  0  0  0
 11 12  2  0  0  0  0
 11 27  1  0  0  0  0
 12 28  1  0  0  0  0
 13 22  1  0  0  0  0
 13 26  2  0  0  0  0
 14 28  2  0  0  0  0
 14 29  1  0  0  0  0
 15 23  2  0  0  0  0
 15 63  1  0  0  0  0
 16 24  2  0  0  0  0
 16 63  1  0  0  0  0
 17 30  1  0  0  0  0
 18 30  1  0  0  0  0
 18 31  2  0  0  0  0
 18 32  1  0  0  0  0
 19 21  2  0  0  0  0
 19 37  1  0  0  0  0
 20 22  2  0  0  0  0
 20 38  1  0  0  0  0
 21 46  1  0  0  0  0
 22 39  1  0  0  0  0
 23 24  1  0  0  0  0
 23 55  1  0  0  0  0
 24 56  1  0  0  0  0
 25 78  1  0  0  0  0
 26 79  1  0  0  0  0
 27 29  2  0  0  0  0
 27 78  1  0  0  0  0
 28 80  1  0  0  0  0
 29 81  1  0  0  0  0
 30 62  2  0  0  0  0
 31 64  1  0  0  0  0
 31 67  1  0  0  0  0
 32 68  1  0  0  0  0
 32 73  2  0  0  0  0
 33 47  1  0  0  0  0
 33 69  1  0  0  0  0
 33 74  2  0  0  0  0
 34 59  1  0  0  0  0
 34 65  1  0  0  0  0
 34 75  2  0  0  0  0
 35 60  1  0  0  0  0
 35 70  1  0  0  0  0
 35 76  2  0  0  0  0
 36 66  1  0  0  0  0
 36 71  1  0  0  0  0
 36 77  2  0  0  0  0
 37 40  1  0  0  0  0
 38 47  1  0  0  0  0
 39 65  1  0  0  0  0
 40 42  1  0  0  0  0
 41 43  1  0  0  0  0
 41 44  1  0  0  0  0
 42 46  1  0  0  0  0
 43 48  1  0  0  0  0
 44 66  1  0  0  0  0
 45 48  1  0  0  0  0
 45 66  1  0  0  0  0
 46 69  1  0  0  0  0
 47 65  1  0  0  0  0
 48 64  1  0  0  0  0
 49 60  1  0  0  0  0
 50 61  1  0  0  0  0
 51 61  1  0  0  0  0
 52 61  1  0  0  0  0
 53 63  1  0  0  0  0
 54 72  1  0  0  0  0
 55 57  1  0  0  0  0
 56 71  1  0  0  0  0
 57 58  1  0  0  0  0
 58 79  1  0  0  0  0
 59 61  1  0  0  0  0
 59 70  1  0  0  0  0
 60 72  1  0  0  0  0
 62 64  1  0  0  0  0
M  CHG  1  72   1
M  ISO  4  36 100  58 101  71 100  79 101
M  END
> <Batch ID>
0039

> <Smiles>
CNC(C)C(=O)NC(C(=O)N1Cc2cc([101O:1][101CH2:1]CCc3cn(C)cc3C[100NH:0][100C:0](=O)N3CCCC(n4nc(-c5ccc(Oc6ccc(F)cc6F)cc5)c(C(N)=O)c4N)C3)ccc2CC1C(=O)NC1CCCc2ccccc21)C(C)(C)C

> <Shape>
0.255

> <Color>
0.088

> <Negative vol penalty>
0.000

$$$$

  -OEChem-04052317043D

 80 88  0     1  0  0  0  0  0999 V2000
  -29.6056  -24.6355   15.3784 C   0  0  0  0  0  0  0  0  0  0  0  0
  -29.3312  -24.3272   16.7069 C   0  0  0  0  0  0  0  0  0  0  0  0
  -24.2246  -12.2437   19.4062 C   0  0  0  0  0  0  0  0  0  0  0  0
  -25.5214  -12.1484   21.4424 C   0  0  0  0  0  0  0  0  0  0  0  0
  -29.3471  -25.9170   14.8936 C   0  0  0  0  0  0  0  0  0  0  0  0
  -28.7991  -25.3005   17.5518 C   0  0  0  0  0  0  0  0  0  0  0  0
  -24.9908  -23.5402   20.3879 C   0  0  0  0  0  0  0  0  0  0  0  0
  -24.4446  -10.8815   19.2023 C   0  0  0  0  0  0  0  0  0  0  0  0
  -25.7415  -10.7862   21.2386 C   0  0  0  0  0  0  0  0  0  0  0  0
  -25.3283  -22.7698   21.4997 C   0  0  0  0  0  0  0  0  0  0  0  0
  -24.0367   -7.8989   21.6604 C   0  0  0  0  0  0  0  0  0  0  0  0
  -23.8826   -7.0481   22.7550 C   0  0  0  0  0  0  0  0  0  0  0  0
  -25.0084  -24.6922   22.9214 C   0  0  0  0  0  0  0  0  0  0  0  0
  -26.1872   -6.3551   22.5409 C   0  0  0  0  0  0  0  0  0  0  0  0
  -28.2243  -20.5412   24.0931 C   0  0  0  0  0  0  0  0  0  0  0  0
  -24.7630  -12.8772   20.5263 C   0  0  0  0  0  0  0  0  0  0  0  0
  -23.4727  -14.8779   21.4427 C   0  0  0  0  0  0  0  0  0  0  0  0
  -28.8026  -26.9038   15.7306 C   0  0  0  0  0  0  0  0  0  0  0  0
  -24.6697  -24.8974   20.5333 C   0  0  0  0  0  0  0  0  0  0  0  0
  -28.5344  -26.5968   17.0782 C   0  0  0  0  0  0  0  0  0  0  0  0
  -24.6647  -25.4770   21.8101 C   0  0  0  0  0  0  0  0  0  0  0  0
  -25.2030  -10.1527   20.1185 C   0  0  0  0  0  0  0  0  0  0  0  0
  -25.3399  -23.3464   22.7664 C   0  0  0  0  0  0  0  0  0  0  0  0
  -25.2661   -7.9777   21.0060 C   0  0  0  0  0  0  0  0  0  0  0  0
  -24.9578   -6.2763   23.1952 C   0  0  0  0  0  0  0  0  0  0  0  0
  -26.3413   -7.2059   21.4463 C   0  0  0  0  0  0  0  0  0  0  0  0
  -24.5365  -14.2844   20.7371 C   0  0  0  0  0  0  0  0  0  0  0  0
  -28.2720  -21.7122   24.8731 C   0  0  0  0  0  0  0  0  0  0  0  0
  -29.4713  -20.4571   23.5235 C   0  0  0  0  0  0  0  0  0  0  0  0
  -23.7124  -16.2274   21.3541 C   0  0  0  0  0  0  0  0  0  0  0  0
  -22.3667  -14.2642   22.1179 C   0  0  0  0  0  0  0  0  0  0  0  0
  -25.9150  -27.6232   19.4736 C   0  0  0  0  0  0  0  0  0  0  0  0
  -23.2795  -28.9124   20.8574 C   0  0  0  0  0  0  0  0  0  0  0  0
  -20.8014  -28.6355   23.1874 C   0  0  0  0  0  0  0  0  0  0  0  0
  -28.6984  -19.4371   20.5239 C   0  0  0  0  0  0  0  0  0  0  0  0
  -28.5845  -28.2884   15.1738 C   0  0  0  0  0  0  0  0  0  0  0  0
  -24.2819  -25.7082   19.3272 C   0  0  0  0  0  0  0  0  0  0  0  0
  -24.3079  -26.9248   22.0224 C   0  0  0  0  0  0  0  0  0  0  0  0
  -27.6706  -29.1548   16.0365 C   0  0  0  0  0  0  0  0  0  0  0  0
  -25.7599  -19.4883   18.5142 C   0  0  0  0  0  0  0  0  0  0  0  0
  -28.0719  -29.0564   17.5049 C   0  0  0  0  0  0  0  0  0  0  0  0
  -25.0171  -18.2140   18.9196 C   0  0  0  0  0  0  0  0  0  0  0  0
  -27.2728  -19.2808   18.5041 C   0  0  0  0  0  0  0  0  0  0  0  0
  -27.0896  -17.4678   20.1634 C   0  0  0  0  0  0  0  0  0  0  0  0
  -27.9339  -27.6185   18.0194 C   0  0  1  0  0  0  0  0  0  0  0  0
  -24.4719  -27.2083   19.5293 C   0  0  1  0  0  0  0  0  0  0  0  0
  -25.5634  -17.6433   20.2422 C   0  0  2  0  0  0  0  0  0  0  0  0
  -18.8174  -29.8652   24.1087 C   0  0  0  0  0  0  0  0  0  0  0  0
  -25.1485  -30.7758   22.3887 C   0  0  0  0  0  0  0  0  0  0  0  0
  -23.2520  -31.2890   23.9406 C   0  0  0  0  0  0  0  0  0  0  0  0
  -23.0714  -31.8647   21.5201 C   0  0  0  0  0  0  0  0  0  0  0  0
  -31.5271  -21.8955   23.6625 C   0  0  0  0  0  0  0  0  0  0  0  0
  -18.9452  -26.4717   22.3927 C   0  0  0  0  0  0  0  0  0  0  0  0
  -27.1696  -22.2973   25.7221 C   0  0  0  0  0  0  0  0  0  0  0  0
  -30.0510  -19.4605   22.6045 C   0  0  0  0  0  0  0  0  0  0  0  0
  -26.2942  -23.2733   24.9436 C   0  0  0  0  0  0  0  0  0  1  0  0
  -22.9436  -29.4417   22.2307 C   0  0  1  0  0  0  0  0  0  0  0  0
  -19.3007  -28.8433   23.0914 C   0  0  2  0  0  0  0  0  0  0  0  0
  -23.6126  -30.8160   22.5161 C   0  0  0  0  0  0  0  0  0  0  0  0
  -25.3886  -15.1833   20.2371 N   0  0  0  0  0  0  0  0  0  0  0  0
  -29.4556  -22.3277   24.8074 N   0  0  0  0  0  0  0  0  0  0  0  0
  -30.1632  -21.5404   23.9794 N   0  0  0  0  0  0  0  0  0  0  0  0
  -24.8604  -16.3553   20.6289 N   0  0  0  0  0  0  0  0  0  0  0  0
  -23.9419  -27.6776   20.8112 N   0  0  0  0  0  0  0  0  0  0  0  0
  -27.7267  -18.7396   19.7875 N   0  0  0  0  0  0  0  0  0  0  0  0
  -23.0511  -17.3053   21.8266 N   0  0  0  0  0  0  0  0  0  0  0  0
  -22.2726  -12.8658   22.1115 N   0  0  0  0  0  0  0  0  0  0  0  0
  -26.5456  -27.3078   18.2852 N   0  0  0  0  0  0  0  0  0  0  0  0
  -21.4874  -29.4565   22.3175 N   0  0  0  0  0  0  0  0  0  0  0  0
  -29.0678  -18.8584   21.7320 N   0  0  0  0  0  0  0  0  0  0  0  0
  -18.5834  -27.5602   23.3368 N   0  3  0  0  0  0  0  0  0  0  0  0
  -21.4790  -14.9366   22.6953 O   0  0  0  0  0  0  0  0  0  0  0  0
  -26.4186  -28.1890   20.4369 O   0  0  0  0  0  0  0  0  0  0  0  0
  -22.9595  -29.5671   19.8620 O   0  0  0  0  0  0  0  0  0  0  0  0
  -21.3141  -27.8284   23.9597 O   0  0  0  0  0  0  0  0  0  0  0  0
  -29.1957  -20.4998   20.1363 O   0  0  0  0  0  0  0  0  0  0  0  0
  -25.4178   -8.8234   19.9200 O   0  0  0  0  0  0  0  0  0  0  0  0
  -25.6696  -22.5969   23.8533 O   0  0  0  0  0  0  0  0  0  1  0  0
  -24.8101   -5.4605   24.2473 F   0  0  0  0  0  0  0  0  0  0  0  0
  -27.5251   -7.2782   20.8224 F   0  0  0  0  0  0  0  0  0  0  0  0
  1  2  1  0  0  0  0
  1  5  2  0  0  0  0
  2  6  2  0  0  0  0
  3  8  2  0  0  0  0
  3 16  1  0  0  0  0
  4  9  1  0  0  0  0
  4 16  2  0  0  0  0
  5 18  1  0  0  0  0
  6 20  1  0  0  0  0
  7 10  2  0  0  0  0
  7 19  1  0  0  0  0
  8 22  1  0  0  0  0
  9 22  2  0  0  0  0
 10 23  1  0  0  0  0
 11 12  2  0  0  0  0
 11 24  1  0  0  0  0
 12 25  1  0  0  0  0
 13 21  1  0  0  0  0
 13 23  2  0  0  0  0
 14 25  2  0  0  0  0
 14 26  1  0  0  0  0
 15 28  1  0  0  0  0
 15 29  2  0  0  0  0
 16 27  1  0  0  0  0
 17 27  1  0  0  0  0
 17 30  2  0  0  0  0
 17 31  1  0  0  0  0
 18 20  2  0  0  0  0
 18 36  1  0  0  0  0
 19 21  2  0  0  0  0
 19 37  1  0  0  0  0
 20 45  1  0  0  0  0
 21 38  1  0  0  0  0
 22 77  1  0  0  0  0
 23 78  1  0  0  0  0
 24 26  2  0  0  0  0
 24 77  1  0  0  0  0
 25 79  1  0  0  0  0
 26 80  1  0  0  0  0
 27 60  2  0  0  0  0
 28 54  1  0  0  0  0
 28 61  2  0  0  0  0
 29 55  1  0  0  0  0
 29 62  1  0  0  0  0
 30 63  1  0  0  0  0
 30 66  1  0  0  0  0
 31 67  1  0  0  0  0
 31 72  2  0  0  0  0
 32 46  1  0  0  0  0
 32 68  1  0  0  0  0
 32 73  2  0  0  0  0
 33 57  1  0  0  0  0
 33 64  1  0  0  0  0
 33 74  2  0  0  0  0
 34 58  1  0  0  0  0
 34 69  1  0  0  0  0
 34 75  2  0  0  0  0
 35 65  1  0  0  0  0
 35 70  1  0  0  0  0
 35 76  2  0  0  0  0
 36 39  1  0  0  0  0
 37 46  1  0  0  0  0
 38 64  1  0  0  0  0
 39 41  1  0  0  0  0
 40 42  1  0  0  0  0
 40 43  1  0  0  0  0
 41 45  1  0  0  0  0
 42 47  1  0  0  0  0
 43 65  1  0  0  0  0
 44 47  1  0  0  0  0
 44 65  1  0  0  0  0
 45 68  1  0  0  0  0
 46 64  1  0  0  0  0
 47 63  1  0  0  0  0
 48 58  1  0  0  0  0
 49 59  1  0  0  0  0
 50 59  1  0  0  0  0
 51 59  1  0  0  0  0
 52 62  1  0  0  0  0
 53 71  1  0  0  0  0
 54 56  1  0  0  0  0
 55 70  1  0  0  0  0
 56 78  1  0  0  0  0
 57 59  1  0  0  0  0
 57 69  1  0  0  0  0
 58 71  1  0  0  0  0
 60 63  1  0  0  0  0
 61 62  1  0  0  0  0
M  CHG  1  71   1
M  ISO  4  35 100  56 101  70 100  78 101
M  END
> <Batch ID>
0039

> <Smiles>
CNC(C)C(=O)NC(C(=O)N1Cc2cc([101O:1][101CH2:1]Cc3cc(C[100NH:0][100C:0](=O)N4CCCC(n5nc(-c6ccc(Oc7ccc(F)cc7F)cc6)c(C(N)=O)c5N)C4)n(C)n3)ccc2CC1C(=O)NC1CCCc2ccccc21)C(C)(C)C

> <Shape>
0.201

> <Color>
0.080

> <Negative vol penalty>
0.000

$$$$

  -OEChem-04052317043D

 91100  0     1  0  0  0  0  0999 V2000
  -32.8396  -20.7957   23.9672 C   0  0  0  0  0  0  0  0  0  0  0  0
  -31.9898  -21.3787   23.0326 C   0  0  0  0  0  0  0  0  0  0  0  0
  -22.6597  -10.2140   20.1968 C   0  0  0  0  0  0  0  0  0  0  0  0
  -24.3151   -9.4340   21.7742 C   0  0  0  0  0  0  0  0  0  0  0  0
  -32.6081  -20.9812   25.3295 C   0  0  0  0  0  0  0  0  0  0  0  0
  -30.9072  -22.1466   23.4600 C   0  0  0  0  0  0  0  0  0  0  0  0
  -30.4348  -26.4605   20.8499 C   0  0  0  0  0  0  0  0  0  0  0  0
  -26.8635  -22.3441   19.9695 C   0  0  0  0  0  0  0  0  0  0  0  0
  -26.5880  -23.4636   19.1933 C   0  0  0  0  0  0  0  0  0  0  0  0
  -21.9212   -9.0474   20.3949 C   0  0  0  0  0  0  0  0  0  0  0  0
  -23.5765   -8.2674   21.9724 C   0  0  0  0  0  0  0  0  0  0  0  0
  -29.8652  -26.3772   19.5800 C   0  0  0  0  0  0  0  0  0  0  0  0
  -21.9451   -5.2451   23.1650 C   0  0  0  0  0  0  0  0  0  0  0  0
  -21.7638   -4.8063   24.4765 C   0  0  0  0  0  0  0  0  0  0  0  0
  -27.7571  -27.1253   20.4831 C   0  0  0  0  0  0  0  0  0  0  0  0
  -20.6501   -6.8812   25.0167 C   0  0  0  0  0  0  0  0  0  0  0  0
  -23.8567  -10.4073   20.8864 C   0  0  0  0  0  0  0  0  0  0  0  0
  -24.2005  -12.9348   20.9174 C   0  0  0  0  0  0  0  0  0  0  0  0
  -31.5277  -21.7598   25.7736 C   0  0  0  0  0  0  0  0  0  0  0  0
  -29.6656  -26.8670   21.9497 C   0  0  0  0  0  0  0  0  0  0  0  0
  -30.6602  -22.3416   24.8295 C   0  0  0  0  0  0  0  0  0  0  0  0
  -28.3199  -27.2153   21.7654 C   0  0  0  0  0  0  0  0  0  0  0  0
  -26.9358  -20.9620   17.9654 C   0  0  0  0  0  0  0  0  0  0  0  0
  -26.6571  -22.0947   17.1800 C   0  0  0  0  0  0  0  0  0  0  0  0
  -27.0372  -21.1021   19.3601 C   0  0  0  0  0  0  0  0  0  0  0  0
  -26.4867  -23.3404   17.8082 C   0  0  0  0  0  0  0  0  0  0  0  0
  -22.3796   -8.0741   21.2828 C   0  0  0  0  0  0  0  0  0  0  0  0
  -28.5255  -26.7069   19.3970 C   0  0  0  0  0  0  0  0  0  0  0  0
  -21.4790   -6.5019   22.7792 C   0  0  0  0  0  0  0  0  0  0  0  0
  -21.1163   -5.6244   25.4024 C   0  0  0  0  0  0  0  0  0  0  0  0
  -20.8315   -7.3200   23.7051 C   0  0  0  0  0  0  0  0  0  0  0  0
  -24.6203  -11.6119   20.6817 C   0  0  0  0  0  0  0  0  0  0  0  0
  -25.2828  -13.7056   20.5693 C   0  0  0  0  0  0  0  0  0  0  0  0
  -22.9447  -13.4233   21.4071 C   0  0  0  0  0  0  0  0  0  0  0  0
  -28.7773  -25.5177   24.6872 C   0  0  0  0  0  0  0  0  0  0  0  0
  -27.5792  -28.4687   25.3021 C   0  0  0  0  0  0  0  0  0  0  0  0
  -25.7868  -31.0152   23.4800 C   0  0  0  0  0  0  0  0  0  0  0  0
  -30.7721  -14.7084   20.6541 C   0  0  0  0  0  0  0  0  0  0  0  0
  -31.2901  -21.8928   27.2570 C   0  0  0  0  0  0  0  0  0  0  0  0
  -30.3018  -26.9772   23.3081 C   0  0  0  0  0  0  0  0  0  0  0  0
  -27.1368  -19.6020   17.3462 C   0  0  0  0  0  0  0  0  0  0  0  0
  -26.5453  -22.0065   15.6790 C   0  0  0  0  0  0  0  0  0  0  0  0
  -27.4564  -27.6769   22.9098 C   0  0  0  0  0  0  0  0  0  0  0  0
  -30.3393  -23.0299   27.6220 C   0  0  0  0  0  0  0  0  0  0  0  0
  -25.8830  -19.0659   16.6539 C   0  0  0  0  0  0  0  0  0  0  0  0
  -25.3720  -21.1430   15.2137 C   0  0  0  0  0  0  0  0  0  0  0  0
  -29.5565  -12.4817   18.1560 C   0  0  0  0  0  0  0  0  0  0  0  0
  -29.1060  -23.0033   26.7248 C   0  0  0  0  0  0  0  0  0  0  0  0
  -28.1323  -12.1614   18.6132 C   0  0  0  0  0  0  0  0  0  0  0  0
  -30.5104  -12.6250   19.3398 C   0  0  0  0  0  0  0  0  0  0  0  0
  -28.6537  -13.2667   20.8279 C   0  0  0  0  0  0  0  0  0  0  0  0
  -29.4896  -23.2019   25.2535 C   0  0  1  0  0  0  0  0  0  0  0  0
  -29.2909  -26.9095   24.4487 C   0  0  1  0  0  0  0  0  0  0  0  0
  -25.6519  -19.6309   15.2421 C   0  0  2  0  0  0  0  0  0  0  0  0
  -27.6436  -13.1681   19.6720 C   0  0  2  0  0  0  0  0  0  0  0  0
  -24.4838  -18.8867   14.5833 C   0  0  0  0  0  0  0  0  0  0  0  0
  -25.7039  -33.5020   23.8064 C   0  0  0  0  0  0  0  0  0  0  0  0
  -25.0940  -27.8757   26.9701 C   0  0  0  0  0  0  0  0  0  0  0  0
  -24.0489  -29.9434   26.0211 C   0  0  0  0  0  0  0  0  0  0  0  0
  -26.1248  -30.1145   27.3936 C   0  0  0  0  0  0  0  0  0  0  0  0
  -26.6186  -31.5263   20.6861 C   0  0  0  0  0  0  0  0  0  0  0  0
  -27.3249  -19.9433   20.2630 C   0  0  0  0  0  0  0  0  0  0  0  0
  -26.1840  -24.5894   17.0408 C   0  0  0  0  0  0  0  0  0  0  0  0
  -28.8086  -19.5534   20.2448 C   0  0  0  0  0  0  0  0  0  0  0  0
  -27.3969  -25.1904   16.3177 C   0  0  0  0  0  0  0  0  0  0  0  0
  -29.0843  -18.3444   21.1412 C   0  0  0  0  0  0  0  0  0  0  0  0
  -30.5734  -17.9864   21.1481 C   0  0  0  0  0  0  0  0  0  0  0  0
  -30.8808  -16.7756   22.0231 C   0  0  0  0  0  0  0  0  0  0  0  0
  -28.4976  -25.6460   17.2687 C   0  0  0  0  0  0  0  0  0  1  0  0
  -26.2593  -29.1591   25.0567 C   0  0  1  0  0  0  0  0  0  0  0  0
  -26.3288  -32.3577   23.0235 C   0  0  2  0  0  0  0  0  0  0  0  0
  -25.3912  -29.2525   26.3432 C   0  0  0  0  0  0  0  0  0  0  0  0
  -25.8715  -11.5425   20.2196 N   0  0  0  0  0  0  0  0  0  0  0  0
  -26.2473  -12.8315   20.1619 N   0  0  0  0  0  0  0  0  0  0  0  0
  -28.1227  -27.7622   24.2198 N   0  0  0  0  0  0  0  0  0  0  0  0
  -29.9896  -13.5950   20.3061 N   0  0  0  0  0  0  0  0  0  0  0  0
  -25.4940  -15.0389   20.5750 N   0  0  0  0  0  0  0  0  0  0  0  0
  -22.7820  -13.5793   22.7904 N   0  0  0  0  0  0  0  0  0  0  0  0
  -29.7639  -24.5977   24.9867 N   0  0  0  0  0  0  0  0  0  0  0  0
  -26.5791  -30.4499   24.4567 N   0  0  0  0  0  0  0  0  0  0  0  0
  -30.2012  -15.5818   21.5716 N   0  0  0  0  0  0  0  0  0  0  0  0
  -26.0423  -32.5669   21.5761 N   0  3  0  0  0  0  0  0  0  0  0  0
  -21.9893  -13.6973   20.6419 O   0  0  0  0  0  0  0  0  0  0  0  0
  -27.5749  -25.2953   24.6070 O   0  0  0  0  0  0  0  0  0  0  0  0
  -28.1120  -28.5591   26.4110 O   0  0  0  0  0  0  0  0  0  0  0  0
  -24.7609  -30.5195   23.0192 O   0  0  0  0  0  0  0  0  0  0  0  0
  -31.8941  -14.9121   20.1779 O   0  0  0  0  0  0  0  0  0  0  0  0
  -21.6591   -6.9358   21.4765 O   0  0  0  0  0  0  0  0  0  0  0  0
  -27.9630  -26.6253   18.1500 O   0  0  0  0  0  0  0  0  0  1  0  0
  -20.9409   -5.2023   26.6614 F   0  0  0  0  0  0  0  0  0  0  0  0
  -20.3804   -8.5279   23.3401 F   0  0  0  0  0  0  0  0  0  0  0  0
  1  2  1  0  0  0  0
  1  5  2  0  0  0  0
  2  6  2  0  0  0  0
  3 10  2  0  0  0  0
  3 17  1  0  0  0  0
  4 11  1  0  0  0  0
  4 17  2  0  0  0  0
  5 19  1  0  0  0  0
  6 21  1  0  0  0  0
  7 12  2  0  0  0  0
  7 20  1  0  0  0  0
  8  9  2  0  0  0  0
  8 25  1  0  0  0  0
  9 26  1  0  0  0  0
 10 27  1  0  0  0  0
 11 27  2  0  0  0  0
 12 28  1  0  0  0  0
 13 14  2  0  0  0  0
 13 29  1  0  0  0  0
 14 30  1  0  0  0  0
 15 22  1  0  0  0  0
 15 28  2  0  0  0  0
 16 30  2  0  0  0  0
 16 31  1  0  0  0  0
 17 32  1  0  0  0  0
 18 32  1  0  0  0  0
 18 33  2  0  0  0  0
 18 34  1  0  0  0  0
 19 21  2  0  0  0  0
 19 39  1  0  0  0  0
 20 22  2  0  0  0  0
 20 40  1  0  0  0  0
 21 52  1  0  0  0  0
 22 43  1  0  0  0  0
 23 24  1  0  0  0  0
 23 25  2  0  0  0  0
 23 41  1  0  0  0  0
 24 26  2  0  0  0  0
 24 42  1  0  0  0  0
 25 62  1  0  0  0  0
 26 63  1  0  0  0  0
 27 88  1  0  0  0  0
 28 89  1  0  0  0  0
 29 31  2  0  0  0  0
 29 88  1  0  0  0  0
 30 90  1  0  0  0  0
 31 91  1  0  0  0  0
 32 73  2  0  0  0  0
 33 74  1  0  0  0  0
 33 77  1  0  0  0  0
 34 78  1  0  0  0  0
 34 83  2  0  0  0  0
 35 53  1  0  0  0  0
 35 79  1  0  0  0  0
 35 84  2  0  0  0  0
 36 70  1  0  0  0  0
 36 75  1  0  0  0  0
 36 85  2  0  0  0  0
 37 71  1  0  0  0  0
 37 80  1  0  0  0  0
 37 86  2  0  0  0  0
 38 76  1  0  0  0  0
 38 81  1  0  0  0  0
 38 87  2  0  0  0  0
 39 44  1  0  0  0  0
 40 53  1  0  0  0  0
 41 45  1  0  0  0  0
 42 46  1  0  0  0  0
 43 75  1  0  0  0  0
 44 48  1  0  0  0  0
 45 54  1  0  0  0  0
 46 54  1  0  0  0  0
 47 49  1  0  0  0  0
 47 50  1  0  0  0  0
 48 52  1  0  0  0  0
 49 55  1  0  0  0  0
 50 76  1  0  0  0  0
 51 55  1  0  0  0  0
 51 76  1  0  0  0  0
 52 79  1  0  0  0  0
 53 75  1  0  0  0  0
 54 56  1  0  0  0  0
 55 74  1  0  0  0  0
 57 71  1  0  0  0  0
 58 72  1  0  0  0  0
 59 72  1  0  0  0  0
 60 72  1  0  0  0  0
 61 82  1  0  0  0  0
 62 64  1  0  0  0  0
 63 65  1  0  0  0  0
 64 66  1  0  0  0  0
 65 69  1  0  0  0  0
 66 67  1  0  0  0  0
 67 68  1  0  0  0  0
 68 81  1  0  0  0  0
 69 89  1  0  0  0  0
 70 72  1  0  0  0  0
 70 80  1  0  0  0  0
 71 82  1  0  0  0  0
 73 74  1  0  0  0  0
M  CHG  1  82   1
M  ISO  4  38 100  69 101  81 100  89 101
M  END
> <Batch ID>
0039

> <Smiles>
CNC(C)C(=O)NC(C(=O)N1Cc2cc([101O:1][101CH2:1]CCc3ccc(CCCCC[100NH:0][100C:0](=O)N4CCCC(n5nc(-c6ccc(Oc7ccc(F)cc7F)cc6)c(C(N)=O)c5N)C4)c4c3CCC(C)CC4)ccc2CC1C(=O)NC1CCCc2ccccc21)C(C)(C)C

> <Shape>
0.307

> <Color>
0.180

> <Negative vol penalty>
0.000

$$$$

  -OEChem-04052317043D

 89 97  0     1  0  0  0  0  0999 V2000
  -22.7551  -31.0611   26.6572 C   0  0  0  0  0  0  0  0  0  0  0  0
  -23.6460  -30.2762   25.9320 C   0  0  0  0  0  0  0  0  0  0  0  0
  -25.7750  -14.8553   19.1711 C   0  0  0  0  0  0  0  0  0  0  0  0
  -27.6194  -14.6893   20.7228 C   0  0  0  0  0  0  0  0  0  0  0  0
  -21.3870  -30.9779   26.4017 C   0  0  0  0  0  0  0  0  0  0  0  0
  -23.1691  -29.4069   24.9516 C   0  0  0  0  0  0  0  0  0  0  0  0
  -25.8878  -29.6121   20.6841 C   0  0  0  0  0  0  0  0  0  0  0  0
  -25.4213  -13.5352   19.4503 C   0  0  0  0  0  0  0  0  0  0  0  0
  -27.2656  -13.3693   21.0021 C   0  0  0  0  0  0  0  0  0  0  0  0
  -27.1097  -28.9408   20.6747 C   0  0  0  0  0  0  0  0  0  0  0  0
  -23.7996  -11.8550   21.8957 C   0  0  0  0  0  0  0  0  0  0  0  0
  -22.4500  -11.5777   22.1128 C   0  0  0  0  0  0  0  0  0  0  0  0
  -26.0841  -27.1030   19.4958 C   0  0  0  0  0  0  0  0  0  0  0  0
  -30.5357  -25.4245   22.7433 C   0  0  0  0  0  0  0  0  0  0  0  0
  -30.0280  -23.0913   21.3007 C   0  0  0  0  0  0  0  0  0  0  0  0
  -22.4639  -10.0469   20.2437 C   0  0  0  0  0  0  0  0  0  0  0  0
  -26.8741  -15.4323   19.8073 C   0  0  0  0  0  0  0  0  0  0  0  0
  -26.7898  -17.9547   20.1786 C   0  0  0  0  0  0  0  0  0  0  0  0
  -20.8939  -30.1142   25.4110 C   0  0  0  0  0  0  0  0  0  0  0  0
  -24.7504  -29.0282   20.1080 C   0  0  0  0  0  0  0  0  0  0  0  0
  -21.7929  -29.3111   24.6835 C   0  0  0  0  0  0  0  0  0  0  0  0
  -24.8495  -27.7701   19.4969 C   0  0  0  0  0  0  0  0  0  0  0  0
  -30.3207  -24.2216   23.4159 C   0  0  0  0  0  0  0  0  0  0  0  0
  -30.4968  -25.4609   21.3494 C   0  0  0  0  0  0  0  0  0  0  0  0
  -30.0669  -23.0550   22.6946 C   0  0  0  0  0  0  0  0  0  0  0  0
  -30.2429  -24.2943   20.6281 C   0  0  0  0  0  0  0  0  0  0  0  0
  -26.1666  -12.7922   20.3658 C   0  0  0  0  0  0  0  0  0  0  0  0
  -27.2073  -27.6848   20.0830 C   0  0  0  0  0  0  0  0  0  0  0  0
  -24.4814  -11.2284   20.8525 C   0  0  0  0  0  0  0  0  0  0  0  0
  -21.7821  -10.6736   21.2868 C   0  0  0  0  0  0  0  0  0  0  0  0
  -23.8136  -10.3243   20.0266 C   0  0  0  0  0  0  0  0  0  0  0  0
  -27.2404  -16.7957   19.5188 C   0  0  0  0  0  0  0  0  0  0  0  0
  -27.4266  -18.9866   19.5334 C   0  0  0  0  0  0  0  0  0  0  0  0
  -25.8774  -18.0869   21.2766 C   0  0  0  0  0  0  0  0  0  0  0  0
  -21.9105  -28.1013   21.1942 C   0  0  0  0  0  0  0  0  0  0  0  0
  -21.3147  -27.5733   18.0496 C   0  0  0  0  0  0  0  0  0  0  0  0
  -22.5522  -26.9379   14.9332 C   0  0  0  0  0  0  0  0  0  0  0  0
  -32.0175  -21.2254   17.2846 C   0  0  0  0  0  0  0  0  0  0  0  0
  -19.4028  -30.0240   25.2032 C   0  0  0  0  0  0  0  0  0  0  0  0
  -23.4459  -29.7769   20.1028 C   0  0  0  0  0  0  0  0  0  0  0  0
  -23.6629  -27.1085   18.8468 C   0  0  0  0  0  0  0  0  0  0  0  0
  -19.0104  -29.3529   23.8895 C   0  0  0  0  0  0  0  0  0  0  0  0
  -30.0970  -19.0348   15.2377 C   0  0  0  0  0  0  0  0  0  0  0  0
  -19.8151  -28.0737   23.6822 C   0  0  0  0  0  0  0  0  0  0  0  0
  -29.1504  -18.3486   16.2240 C   0  0  0  0  0  0  0  0  0  0  0  0
  -31.4733  -19.2785   15.8528 C   0  0  0  0  0  0  0  0  0  0  0  0
  -30.5117  -19.3205   18.1216 C   0  0  0  0  0  0  0  0  0  0  0  0
  -21.3162  -28.3743   23.5948 C   0  0  1  0  0  0  0  0  0  0  0  0
  -22.2340  -28.8645   19.9410 C   0  0  1  0  0  0  0  0  0  0  0  0
  -29.0939  -19.1043   17.5653 C   0  0  2  0  0  0  0  0  0  0  0  0
  -30.3679  -24.2069   24.9085 C   0  0  0  0  0  0  0  0  0  0  0  0
  -25.1912  -18.8509   26.6423 C   0  0  0  0  0  0  0  0  0  0  0  0
  -21.8187  -26.5188   12.5702 C   0  0  0  0  0  0  0  0  0  0  0  0
  -20.4956  -24.7342   18.8100 C   0  0  0  0  0  0  0  0  0  0  0  0
  -20.6957  -24.1043   16.3952 C   0  0  0  0  0  0  0  0  0  0  0  0
  -19.0287  -25.8207   17.1006 C   0  0  0  0  0  0  0  0  0  0  0  0
  -23.9866  -29.3290   13.9411 C   0  0  0  0  0  0  0  0  0  0  0  0
  -29.8343  -21.7555   23.3929 C   0  0  0  0  0  0  0  0  0  0  0  0
  -30.1956  -24.3090   19.1355 C   0  0  0  0  0  0  0  0  0  0  0  0
  -30.7316  -26.7743   20.6437 C   0  0  0  0  0  0  0  0  0  0  0  0
  -26.5655  -18.9131   25.9949 C   0  0  0  0  0  0  0  0  0  0  0  0
  -28.4247  -21.6701   23.9859 C   0  0  0  0  0  0  0  0  0  0  0  0
  -31.5780  -24.3043   18.4553 C   0  0  0  0  0  0  0  0  0  0  0  0
  -26.7910  -20.2487   25.2868 C   0  0  0  0  0  0  0  0  0  0  0  0
  -28.1870  -20.3206   24.6659 C   0  0  0  0  0  0  0  0  0  0  0  0
  -32.4599  -23.1155   18.8308 C   0  0  0  0  0  0  0  0  0  0  0  0
  -29.5076  -27.6827   20.6869 C   0  0  0  0  0  0  0  0  0  1  0  0
  -21.4886  -26.4046   17.1101 C   0  0  1  0  0  0  0  0  0  0  0  0
  -22.2539  -27.5658   13.5837 C   0  0  2  0  0  0  0  0  0  0  0  0
  -20.4492  -25.2773   17.3678 C   0  0  0  0  0  0  0  0  0  0  0  0
  -28.0971  -17.0652   18.5302 N   0  0  0  0  0  0  0  0  0  0  0  0
  -28.1899  -18.4055   18.5639 N   0  0  0  0  0  0  0  0  0  0  0  0
  -22.4079  -27.8779   18.8730 N   0  0  0  0  0  0  0  0  0  0  0  0
  -31.3496  -20.0004   17.1214 N   0  0  0  0  0  0  0  0  0  0  0  0
  -27.4025  -20.3252   19.7064 N   0  0  0  0  0  0  0  0  0  0  0  0
  -25.3140  -16.9246   21.8207 N   0  0  0  0  0  0  0  0  0  0  0  0
  -21.6508  -28.9025   22.2896 N   0  0  0  0  0  0  0  0  0  0  0  0
  -21.4490  -26.9565   15.7602 N   0  0  0  0  0  0  0  0  0  0  0  0
  -31.8420  -21.8469   18.5149 N   0  0  0  0  0  0  0  0  0  0  0  0
  -23.4638  -28.2571   13.0552 N   0  3  0  0  0  0  0  0  0  0  0  0
  -25.5580  -19.2037   21.7502 O   0  0  0  0  0  0  0  0  0  0  0  0
  -21.8962  -26.8762   21.1688 O   0  0  0  0  0  0  0  0  0  0  0  0
  -20.2509  -28.1977   18.0477 O   0  0  0  0  0  0  0  0  0  0  0  0
  -23.6526  -26.4738   15.2233 O   0  0  0  0  0  0  0  0  0  0  0  0
  -32.7139  -21.7304   16.3975 O   0  0  0  0  0  0  0  0  0  0  0  0
  -25.8215  -11.5042   20.6388 O   0  0  0  0  0  0  0  0  0  0  0  0
  -28.3986  -27.0271   20.0731 O   0  0  0  0  0  0  0  0  0  1  0  0
  -20.4865  -10.4061   21.4964 F   0  0  0  0  0  0  0  0  0  0  0  0
  -24.4636   -9.7183   19.0235 F   0  0  0  0  0  0  0  0  0  0  0  0
  1  2  1  0  0  0  0
  1  5  2  0  0  0  0
  2  6  2  0  0  0  0
  3  8  2  0  0  0  0
  3 17  1  0  0  0  0
  4  9  1  0  0  0  0
  4 17  2  0  0  0  0
  5 19  1  0  0  0  0
  6 21  1  0  0  0  0
  7 10  2  0  0  0  0
  7 20  1  0  0  0  0
  8 27  1  0  0  0  0
  9 27  2  0  0  0  0
 10 28  1  0  0  0  0
 11 12  2  0  0  0  0
 11 29  1  0  0  0  0
 12 30  1  0  0  0  0
 13 22  1  0  0  0  0
 13 28  2  0  0  0  0
 14 23  1  0  0  0  0
 14 24  2  0  0  0  0
 15 25  1  0  0  0  0
 15 26  2  0  0  0  0
 16 30  2  0  0  0  0
 16 31  1  0  0  0  0
 17 32  1  0  0  0  0
 18 32  1  0  0  0  0
 18 33  2  0  0  0  0
 18 34  1  0  0  0  0
 19 21  2  0  0  0  0
 19 39  1  0  0  0  0
 20 22  2  0  0  0  0
 20 40  1  0  0  0  0
 21 48  1  0  0  0  0
 22 41  1  0  0  0  0
 23 25  2  0  0  0  0
 23 51  1  0  0  0  0
 24 26  1  0  0  0  0
 24 60  1  0  0  0  0
 25 58  1  0  0  0  0
 26 59  1  0  0  0  0
 27 86  1  0  0  0  0
 28 87  1  0  0  0  0
 29 31  2  0  0  0  0
 29 86  1  0  0  0  0
 30 88  1  0  0  0  0
 31 89  1  0  0  0  0
 32 71  2  0  0  0  0
 33 72  1  0  0  0  0
 33 75  1  0  0  0  0
 34 76  1  0  0  0  0
 34 81  2  0  0  0  0
 35 49  1  0  0  0  0
 35 77  1  0  0  0  0
 35 82  2  0  0  0  0
 36 68  1  0  0  0  0
 36 73  1  0  0  0  0
 36 83  2  0  0  0  0
 37 69  1  0  0  0  0
 37 78  1  0  0  0  0
 37 84  2  0  0  0  0
 38 74  1  0  0  0  0
 38 79  1  0  0  0  0
 38 85  2  0  0  0  0
 39 42  1  0  0  0  0
 40 49  1  0  0  0  0
 41 73  1  0  0  0  0
 42 44  1  0  0  0  0
 43 45  1  0  0  0  0
 43 46  1  0  0  0  0
 44 48  1  0  0  0  0
 45 50  1  0  0  0  0
 46 74  1  0  0  0  0
 47 50  1  0  0  0  0
 47 74  1  0  0  0  0
 48 77  1  0  0  0  0
 49 73  1  0  0  0  0
 50 72  1  0  0  0  0
 52 61  1  0  0  0  0
 53 69  1  0  0  0  0
 54 70  1  0  0  0  0
 55 70  1  0  0  0  0
 56 70  1  0  0  0  0
 57 80  1  0  0  0  0
 58 62  1  0  0  0  0
 59 63  1  0  0  0  0
 60 67  1  0  0  0  0
 61 64  1  0  0  0  0
 62 65  1  0  0  0  0
 63 66  1  0  0  0  0
 64 65  1  0  0  0  0
 66 79  1  0  0  0  0
 67 87  1  0  0  0  0
 68 70  1  0  0  0  0
 68 78  1  0  0  0  0
 69 80  1  0  0  0  0
 71 72  1  0  0  0  0
M  CHG  1  80   1
M  ISO  4  38 100  67 101  79 100  87 101
M  END
> <Batch ID>
0039

> <Smiles>
CCCCCCc1cc(CCC[100NH:0][100C:0](=O)N2CCCC(n3nc(-c4ccc(Oc5ccc(F)cc5F)cc4)c(C(N)=O)c3N)C2)c(C[101CH2:1][101O:1]c2ccc3c(c2)CN(C(=O)C(NC(=O)C(C)NC)C(C)(C)C)C(C(=O)NC2CCCc4ccccc42)C3)cc1C

> <Shape>
0.214

> <Color>
0.071

> <Negative vol penalty>
0.000

$$$$

  -OEChem-04052317043D

 84 92  0     1  0  0  0  0  0999 V2000
  -22.9046  -24.0337   21.7008 C   0  0  0  0  0  0  0  0  0  0  0  0
  -24.0782  -23.2906   21.7766 C   0  0  0  0  0  0  0  0  0  0  0  0
  -26.1611  -27.1341   21.1775 C   0  0  0  0  0  0  0  0  0  0  0  0
  -26.5961  -28.0767   18.9959 C   0  0  0  0  0  0  0  0  0  0  0  0
  -21.6841  -23.4420   22.0234 C   0  0  0  0  0  0  0  0  0  0  0  0
  -24.0321  -21.9554   22.1762 C   0  0  0  0  0  0  0  0  0  0  0  0
  -26.8839  -18.9550   19.2590 C   0  0  0  0  0  0  0  0  0  0  0  0
  -25.3217  -28.2079   21.4740 C   0  0  0  0  0  0  0  0  0  0  0  0
  -25.7567  -29.1505   19.2924 C   0  0  0  0  0  0  0  0  0  0  0  0
  -28.2595  -18.9677   19.4855 C   0  0  0  0  0  0  0  0  0  0  0  0
  -25.6473  -31.4314   22.4372 C   0  0  0  0  0  0  0  0  0  0  0  0
  -25.7809  -32.0308   23.6895 C   0  0  0  0  0  0  0  0  0  0  0  0
  -28.0634  -16.9256   20.7545 C   0  0  0  0  0  0  0  0  0  0  0  0
  -32.3241  -17.8348   15.8963 C   0  0  0  0  0  0  0  0  0  0  0  0
  -32.2277  -16.1478   17.6229 C   0  0  0  0  0  0  0  0  0  0  0  0
  -32.3499  -18.4849   18.2231 C   0  0  0  0  0  0  0  0  0  0  0  0
  -23.4821  -31.4860   24.1955 C   0  0  0  0  0  0  0  0  0  0  0  0
  -26.7984  -27.0685   19.9384 C   0  0  0  0  0  0  0  0  0  0  0  0
  -27.3051  -24.7385   19.0317 C   0  0  0  0  0  0  0  0  0  0  0  0
  -21.6218  -22.0961   22.4177 C   0  0  0  0  0  0  0  0  0  0  0  0
  -26.0848  -17.9316   19.7887 C   0  0  0  0  0  0  0  0  0  0  0  0
  -22.8097  -21.3454   22.5056 C   0  0  0  0  0  0  0  0  0  0  0  0
  -26.6783  -16.9008   20.5312 C   0  0  0  0  0  0  0  0  0  0  0  0
  -32.2513  -16.4935   16.2718 C   0  0  0  0  0  0  0  0  0  0  0  0
  -32.3735  -18.8306   16.8719 C   0  0  0  0  0  0  0  0  0  0  0  0
  -32.2770  -17.1435   18.5986 C   0  0  0  0  0  0  0  0  0  0  0  0
  -25.1195  -29.2161   20.5316 C   0  0  0  0  0  0  0  0  0  0  0  0
  -28.8491  -17.9545   20.2358 C   0  0  0  0  0  0  0  0  0  0  0  0
  -24.4311  -30.8593   22.0639 C   0  0  0  0  0  0  0  0  0  0  0  0
  -24.6984  -32.0581   24.5687 C   0  0  0  0  0  0  0  0  0  0  0  0
  -23.3485  -30.8866   22.9431 C   0  0  0  0  0  0  0  0  0  0  0  0
  -27.6660  -25.9599   19.6316 C   0  0  0  0  0  0  0  0  0  0  0  0
  -28.4801  -24.0310   18.9594 C   0  0  0  0  0  0  0  0  0  0  0  0
  -26.0223  -24.2843   18.5801 C   0  0  0  0  0  0  0  0  0  0  0  0
  -23.6688  -17.8119   21.8508 C   0  0  0  0  0  0  0  0  0  0  0  0
  -23.5909  -14.6882   20.9797 C   0  0  0  0  0  0  0  0  0  0  0  0
  -25.2549  -11.9914   19.7126 C   0  0  0  0  0  0  0  0  0  0  0  0
  -33.9367  -23.7619   17.8199 C   0  0  0  0  0  0  0  0  0  0  0  0
  -20.2849  -21.5134   22.8021 C   0  0  0  0  0  0  0  0  0  0  0  0
  -24.6062  -17.9179   19.5129 C   0  0  0  0  0  0  0  0  0  0  0  0
  -25.8675  -15.7685   21.1047 C   0  0  0  0  0  0  0  0  0  0  0  0
  -20.2780  -19.9879   22.8556 C   0  0  0  0  0  0  0  0  0  0  0  0
  -32.9978  -24.9290   21.0499 C   0  0  0  0  0  0  0  0  0  0  0  0
  -21.4985  -19.4748   23.6133 C   0  0  0  0  0  0  0  0  0  0  0  0
  -31.4993  -25.2062   20.9174 C   0  0  0  0  0  0  0  0  0  0  0  0
  -33.7520  -25.2794   19.7691 C   0  0  0  0  0  0  0  0  0  0  0  0
  -31.7246  -24.9240   18.4137 C   0  0  0  0  0  0  0  0  0  0  0  0
  -22.7976  -19.8875   22.9109 C   0  0  1  0  0  0  0  0  0  0  0  0
  -23.8156  -17.1047   20.5332 C   0  0  1  0  0  0  0  0  0  0  0  0
  -30.9136  -24.5337   19.6612 C   0  0  2  0  0  0  0  0  0  0  0  0
  -30.7678  -15.0906   14.8166 C   0  0  0  0  0  0  0  0  0  0  0  0
  -24.9384   -9.5654   19.1546 C   0  0  0  0  0  0  0  0  0  0  0  0
  -23.7620  -13.9866   23.9442 C   0  0  0  0  0  0  0  0  0  0  0  0
  -24.3938  -11.6555   23.2846 C   0  0  0  0  0  0  0  0  0  0  0  0
  -22.1701  -12.5761   22.6286 C   0  0  0  0  0  0  0  0  0  0  0  0
  -25.8363  -12.4548   16.8479 C   0  0  0  0  0  0  0  0  0  0  0  0
  -32.1982  -15.4293   15.2281 C   0  0  0  0  0  0  0  0  0  0  0  0
  -32.4510  -20.2651   16.4710 C   0  0  0  0  0  0  0  0  0  0  0  0
  -32.2514  -16.7690   20.0606 C   0  0  0  0  0  0  0  0  0  0  0  0
  -33.8854  -20.8045   16.3050 C   0  0  0  0  0  0  0  0  0  0  0  0
  -33.9606  -22.2589   15.8451 C   0  0  0  0  0  0  0  0  0  0  0  0
  -30.8334  -16.7002   20.6168 C   0  0  0  0  0  0  0  0  0  1  0  0
  -24.2526  -13.4240   21.4726 C   0  0  1  0  0  0  0  0  0  0  0  0
  -24.8798  -10.9926   18.6328 C   0  0  2  0  0  0  0  0  0  0  0  0
  -23.6599  -12.9328   22.8234 C   0  0  0  0  0  0  0  0  0  0  0  0
  -28.9684  -26.0276   19.9201 N   0  0  0  0  0  0  0  0  0  0  0  0
  -29.4361  -24.8399   19.4997 N   0  0  0  0  0  0  0  0  0  0  0  0
  -24.4249  -15.8029   20.8129 N   0  0  0  0  0  0  0  0  0  0  0  0
  -33.1474  -24.6085   18.6157 N   0  0  0  0  0  0  0  0  0  0  0  0
  -28.7784  -22.8021   18.4871 N   0  0  0  0  0  0  0  0  0  0  0  0
  -24.9206  -25.1375   18.7299 N   0  0  0  0  0  0  0  0  0  0  0  0
  -23.0427  -19.0406   21.7632 N   0  0  0  0  0  0  0  0  0  0  0  0
  -24.1452  -12.4566   20.3859 N   0  0  0  0  0  0  0  0  0  0  0  0
  -33.2841  -23.1607   16.7505 N   0  0  0  0  0  0  0  0  0  0  0  0
  -25.8103  -11.1080   17.4745 N   0  3  0  0  0  0  0  0  0  0  0  0
  -25.8550  -23.1487   18.0742 O   0  0  0  0  0  0  0  0  0  0  0  0
  -24.0909  -17.2813   22.8716 O   0  0  0  0  0  0  0  0  0  0  0  0
  -22.3801  -14.6847   20.7443 O   0  0  0  0  0  0  0  0  0  0  0  0
  -26.4166  -12.3229   19.9388 O   0  0  0  0  0  0  0  0  0  0  0  0
  -35.1329  -23.5528   18.0487 O   0  0  0  0  0  0  0  0  0  0  0  0
  -24.3003  -30.2639   20.8205 O   0  0  0  0  0  0  0  0  0  0  0  0
  -30.1915  -17.9648   20.4588 O   0  0  0  0  0  0  0  0  0  1  0  0
  -24.8273  -32.6324   25.7720 F   0  0  0  0  0  0  0  0  0  0  0  0
  -22.1780  -30.3377   22.5906 F   0  0  0  0  0  0  0  0  0  0  0  0
  1  2  1  0  0  0  0
  1  5  2  0  0  0  0
  2  6  2  0  0  0  0
  3  8  2  0  0  0  0
  3 18  1  0  0  0  0
  4  9  1  0  0  0  0
  4 18  2  0  0  0  0
  5 20  1  0  0  0  0
  6 22  1  0  0  0  0
  7 10  2  0  0  0  0
  7 21  1  0  0  0  0
  8 27  1  0  0  0  0
  9 27  2  0  0  0  0
 10 28  1  0  0  0  0
 11 12  2  0  0  0  0
 11 29  1  0  0  0  0
 12 30  1  0  0  0  0
 13 23  1  0  0  0  0
 13 28  2  0  0  0  0
 14 24  1  0  0  0  0
 14 25  2  0  0  0  0
 15 24  2  0  0  0  0
 15 26  1  0  0  0  0
 16 25  1  0  0  0  0
 16 26  2  0  0  0  0
 17 30  2  0  0  0  0
 17 31  1  0  0  0  0
 18 32  1  0  0  0  0
 19 32  1  0  0  0  0
 19 33  2  0  0  0  0
 19 34  1  0  0  0  0
 20 22  2  0  0  0  0
 20 39  1  0  0  0  0
 21 23  2  0  0  0  0
 21 40  1  0  0  0  0
 22 48  1  0  0  0  0
 23 41  1  0  0  0  0
 24 57  1  0  0  0  0
 25 58  1  0  0  0  0
 26 59  1  0  0  0  0
 27 81  1  0  0  0  0
 28 82  1  0  0  0  0
 29 31  2  0  0  0  0
 29 81  1  0  0  0  0
 30 83  1  0  0  0  0
 31 84  1  0  0  0  0
 32 66  2  0  0  0  0
 33 67  1  0  0  0  0
 33 70  1  0  0  0  0
 34 71  1  0  0  0  0
 34 76  2  0  0  0  0
 35 49  1  0  0  0  0
 35 72  1  0  0  0  0
 35 77  2  0  0  0  0
 36 63  1  0  0  0  0
 36 68  1  0  0  0  0
 36 78  2  0  0  0  0
 37 64  1  0  0  0  0
 37 73  1  0  0  0  0
 37 79  2  0  0  0  0
 38 69  1  0  0  0  0
 38 74  1  0  0  0  0
 38 80  2  0  0  0  0
 39 42  1  0  0  0  0
 40 49  1  0  0  0  0
 41 68  1  0  0  0  0
 42 44  1  0  0  0  0
 43 45  1  0  0  0  0
 43 46  1  0  0  0  0
 44 48  1  0  0  0  0
 45 50  1  0  0  0  0
 46 69  1  0  0  0  0
 47 50  1  0  0  0  0
 47 69  1  0  0  0  0
 48 72  1  0  0  0  0
 49 68  1  0  0  0  0
 50 67  1  0  0  0  0
 51 57  1  0  0  0  0
 52 64  1  0  0  0  0
 53 65  1  0  0  0  0
 54 65  1  0  0  0  0
 55 65  1  0  0  0  0
 56 75  1  0  0  0  0
 58 60  1  0  0  0  0
 59 62  1  0  0  0  0
 60 61  1  0  0  0  0
 61 74  1  0  0  0  0
 62 82  1  0  0  0  0
 63 65  1  0  0  0  0
 63 73  1  0  0  0  0
 64 75  1  0  0  0  0
 66 67  1  0  0  0  0
M  CHG  1  75   1
M  ISO  4  38 100  62 101  74 100  82 101
M  END
> <Batch ID>
0039

> <Smiles>
CCc1cc(CCC[100NH:0][100C:0](=O)N2CCCC(n3nc(-c4ccc(Oc5ccc(F)cc5F)cc4)c(C(N)=O)c3N)C2)cc(C[101CH2:1][101O:1]c2ccc3c(c2)CN(C(=O)C(NC(=O)C(C)NC)C(C)(C)C)C(C(=O)NC2CCCc4ccccc42)C3)c1

> <Shape>
0.186

> <Color>
0.084

> <Negative vol penalty>
0.000

$$$$

  -OEChem-04052317043D

 82 90  0     1  0  0  0  0  0999 V2000
  -35.8597  -20.7093   35.0547 C   0  0  0  0  0  0  0  0  0  0  0  0
  -34.8053  -21.0108   34.1988 C   0  0  0  0  0  0  0  0  0  0  0  0
  -23.0000   -9.8940   19.9819 C   0  0  0  0  0  0  0  0  0  0  0  0
  -23.7291   -9.9451   22.2847 C   0  0  0  0  0  0  0  0  0  0  0  0
  -37.0748  -20.2673   34.5332 C   0  0  0  0  0  0  0  0  0  0  0  0
  -34.9657  -20.8716   32.8206 C   0  0  0  0  0  0  0  0  0  0  0  0
  -30.7120  -19.1216   28.7772 C   0  0  0  0  0  0  0  0  0  0  0  0
  -22.2350   -8.7587   20.2493 C   0  0  0  0  0  0  0  0  0  0  0  0
  -22.9641   -8.8098   22.5521 C   0  0  0  0  0  0  0  0  0  0  0  0
  -29.8869  -19.8405   27.9134 C   0  0  0  0  0  0  0  0  0  0  0  0
  -21.4876   -5.7151   23.7573 C   0  0  0  0  0  0  0  0  0  0  0  0
  -22.0759   -4.6997   24.5112 C   0  0  0  0  0  0  0  0  0  0  0  0
  -31.4684  -19.4948   26.1249 C   0  0  0  0  0  0  0  0  0  0  0  0
  -23.7996   -4.4545   22.8361 C   0  0  0  0  0  0  0  0  0  0  0  0
  -27.5140  -17.9600   22.7347 C   0  0  0  0  0  0  0  0  0  0  0  0
  -23.7471  -10.4872   20.9996 C   0  0  0  0  0  0  0  0  0  0  0  0
  -24.1298  -13.0031   20.8235 C   0  0  0  0  0  0  0  0  0  0  0  0
  -37.2472  -20.1132   33.1485 C   0  0  0  0  0  0  0  0  0  0  0  0
  -31.9287  -18.5923   28.3234 C   0  0  0  0  0  0  0  0  0  0  0  0
  -36.1848  -20.4283   32.2800 C   0  0  0  0  0  0  0  0  0  0  0  0
  -32.3059  -18.7674   26.9843 C   0  0  0  0  0  0  0  0  0  0  0  0
  -28.3715  -18.7434   21.9392 C   0  0  0  0  0  0  0  0  0  0  0  0
  -22.2170   -8.2166   21.5344 C   0  0  0  0  0  0  0  0  0  0  0  0
  -30.2665  -20.0297   26.5877 C   0  0  0  0  0  0  0  0  0  0  0  0
  -22.0552   -6.1002   22.5427 C   0  0  0  0  0  0  0  0  0  0  0  0
  -23.2319   -4.0694   24.0507 C   0  0  0  0  0  0  0  0  0  0  0  0
  -23.2112   -5.4699   22.0821 C   0  0  0  0  0  0  0  0  0  0  0  0
  -24.5380  -11.6596   20.7238 C   0  0  0  0  0  0  0  0  0  0  0  0
  -28.4063  -19.9629   22.5701 C   0  0  0  0  0  0  0  0  0  0  0  0
  -25.2382  -13.7268   20.4573 C   0  0  0  0  0  0  0  0  0  0  0  0
  -22.8620  -13.5483   21.2123 C   0  0  0  0  0  0  0  0  0  0  0  0
  -34.9855  -19.0303   29.0768 C   0  0  0  0  0  0  0  0  0  0  0  0
  -35.4447  -16.5820   26.9990 C   0  0  0  0  0  0  0  0  0  0  0  0
  -34.2946  -14.7926   24.3303 C   0  0  0  0  0  0  0  0  0  0  0  0
  -30.7342  -14.6665   20.6965 C   0  0  0  0  0  0  0  0  0  0  0  0
  -38.5943  -19.6776   32.6287 C   0  0  0  0  0  0  0  0  0  0  0  0
  -32.7947  -17.7964   29.2609 C   0  0  0  0  0  0  0  0  0  0  0  0
  -33.5925  -18.2022   26.4424 C   0  0  0  0  0  0  0  0  0  0  0  0
  -38.5621  -19.1986   31.1796 C   0  0  0  0  0  0  0  0  0  0  0  0
  -29.5916  -12.2423   18.3524 C   0  0  0  0  0  0  0  0  0  0  0  0
  -37.7695  -20.1721   30.3131 C   0  0  0  0  0  0  0  0  0  0  0  0
  -28.1441  -11.9811   18.7725 C   0  0  0  0  0  0  0  0  0  0  0  0
  -30.4959  -12.4782   19.5601 C   0  0  0  0  0  0  0  0  0  0  0  0
  -28.5874  -13.2717   20.9024 C   0  0  0  0  0  0  0  0  0  0  0  0
  -36.3121  -20.2663   30.7808 C   0  0  1  0  0  0  0  0  0  0  0  0
  -34.2553  -17.7417   28.8238 C   0  0  1  0  0  0  0  0  0  0  0  0
  -27.6265  -13.0834   19.7161 C   0  0  2  0  0  0  0  0  0  0  0  0
  -29.1204  -21.2106   22.2386 C   0  0  0  0  0  0  0  0  0  0  0  0
  -34.9073  -12.8734   22.8340 C   0  0  0  0  0  0  0  0  0  0  0  0
  -37.4423  -18.3642   25.5350 C   0  0  0  0  0  0  0  0  0  0  0  0
  -37.2942  -16.8061   23.5809 C   0  0  0  0  0  0  0  0  0  0  0  0
  -38.1517  -15.9778   25.7721 C   0  0  0  0  0  0  0  0  0  0  0  0
  -31.9059  -13.2456   25.1426 C   0  0  0  0  0  0  0  0  0  0  0  0
  -29.0714  -18.3402   20.7082 C   0  0  0  0  0  0  0  0  0  0  0  0
  -30.5673  -17.9798   20.8907 C   0  0  0  0  0  0  0  0  0  0  0  0
  -27.2965  -20.9037   24.6905 C   0  0  0  0  0  0  0  0  0  0  0  0
  -30.8169  -16.8452   21.8820 C   0  0  0  0  0  0  0  0  0  0  0  0
  -28.0592  -20.6852   25.9927 C   0  0  0  0  0  0  0  0  0  1  0  0
  -35.6858  -16.4720   25.5128 C   0  0  1  0  0  0  0  0  0  0  0  0
  -34.1736  -13.2975   24.0968 C   0  0  2  0  0  0  0  0  0  0  0  0
  -37.1201  -16.9175   25.1106 C   0  0  0  0  0  0  0  0  0  0  0  0
  -27.0385  -18.6260   23.7904 N   0  0  0  0  0  0  0  0  0  0  0  0
  -25.8067  -11.5343   20.3254 N   0  0  0  0  0  0  0  0  0  0  0  0
  -27.5993  -19.8406   23.6627 N   0  0  0  0  0  0  0  0  0  0  0  0
  -26.2053  -12.8085   20.1714 N   0  0  0  0  0  0  0  0  0  0  0  0
  -34.4081  -17.4368   27.3998 N   0  0  0  0  0  0  0  0  0  0  0  0
  -29.9496  -13.5363   20.4134 N   0  0  0  0  0  0  0  0  0  0  0  0
  -25.4703  -15.0528   20.3552 N   0  0  0  0  0  0  0  0  0  0  0  0
  -21.8316  -12.6631   21.5575 N   0  0  0  0  0  0  0  0  0  0  0  0
  -35.5612  -19.1140   30.3302 N   0  0  0  0  0  0  0  0  0  0  0  0
  -35.3627  -15.0971   25.1475 N   0  0  0  0  0  0  0  0  0  0  0  0
  -30.1383  -15.6245   21.5076 N   0  0  0  0  0  0  0  0  0  0  0  0
  -32.7413  -12.9087   23.9612 N   0  3  0  0  0  0  0  0  0  0  0  0
  -22.6442  -14.7834   21.2368 O   0  0  0  0  0  0  0  0  0  0  0  0
  -35.0250  -19.8847   28.1993 O   0  0  0  0  0  0  0  0  0  0  0  0
  -36.1454  -15.9279   27.7754 O   0  0  0  0  0  0  0  0  0  0  0  0
  -33.5214  -15.6090   23.8341 O   0  0  0  0  0  0  0  0  0  0  0  0
  -31.8787  -14.8136   20.2544 O   0  0  0  0  0  0  0  0  0  0  0  0
  -21.4704   -7.1090   21.7957 O   0  0  0  0  0  0  0  0  0  0  0  0
  -29.4633  -20.7316   25.7426 O   0  0  0  0  0  0  0  0  0  1  0  0
  -23.7976   -3.0954   24.7755 F   0  0  0  0  0  0  0  0  0  0  0  0
  -23.7618   -5.8364   20.9166 F   0  0  0  0  0  0  0  0  0  0  0  0
  1  2  1  0  0  0  0
  1  5  2  0  0  0  0
  2  6  2  0  0  0  0
  3  8  2  0  0  0  0
  3 16  1  0  0  0  0
  4  9  1  0  0  0  0
  4 16  2  0  0  0  0
  5 18  1  0  0  0  0
  6 20  1  0  0  0  0
  7 10  2  0  0  0  0
  7 19  1  0  0  0  0
  8 23  1  0  0  0  0
  9 23  2  0  0  0  0
 10 24  1  0  0  0  0
 11 12  2  0  0  0  0
 11 25  1  0  0  0  0
 12 26  1  0  0  0  0
 13 21  1  0  0  0  0
 13 24  2  0  0  0  0
 14 26  2  0  0  0  0
 14 27  1  0  0  0  0
 15 22  1  0  0  0  0
 15 62  2  0  0  0  0
 16 28  1  0  0  0  0
 17 28  1  0  0  0  0
 17 30  2  0  0  0  0
 17 31  1  0  0  0  0
 18 20  2  0  0  0  0
 18 36  1  0  0  0  0
 19 21  2  0  0  0  0
 19 37  1  0  0  0  0
 20 45  1  0  0  0  0
 21 38  1  0  0  0  0
 22 29  2  0  0  0  0
 22 54  1  0  0  0  0
 23 79  1  0  0  0  0
 24 80  1  0  0  0  0
 25 27  2  0  0  0  0
 25 79  1  0  0  0  0
 26 81  1  0  0  0  0
 27 82  1  0  0  0  0
 28 63  2  0  0  0  0
 29 48  1  0  0  0  0
 29 64  1  0  0  0  0
 30 65  1  0  0  0  0
 30 68  1  0  0  0  0
 31 69  1  0  0  0  0
 31 74  2  0  0  0  0
 32 46  1  0  0  0  0
 32 70  1  0  0  0  0
 32 75  2  0  0  0  0
 33 59  1  0  0  0  0
 33 66  1  0  0  0  0
 33 76  2  0  0  0  0
 34 60  1  0  0  0  0
 34 71  1  0  0  0  0
 34 77  2  0  0  0  0
 35 67  1  0  0  0  0
 35 72  1  0  0  0  0
 35 78  2  0  0  0  0
 36 39  1  0  0  0  0
 37 46  1  0  0  0  0
 38 66  1  0  0  0  0
 39 41  1  0  0  0  0
 40 42  1  0  0  0  0
 40 43  1  0  0  0  0
 41 45  1  0  0  0  0
 42 47  1  0  0  0  0
 43 67  1  0  0  0  0
 44 47  1  0  0  0  0
 44 67  1  0  0  0  0
 45 70  1  0  0  0  0
 46 66  1  0  0  0  0
 47 65  1  0  0  0  0
 49 60  1  0  0  0  0
 50 61  1  0  0  0  0
 51 61  1  0  0  0  0
 52 61  1  0  0  0  0
 53 73  1  0  0  0  0
 54 55  1  0  0  0  0
 55 57  1  0  0  0  0
 56 58  1  0  0  0  0
 56 64  1  0  0  0  0
 57 72  1  0  0  0  0
 58 80  1  0  0  0  0
 59 61  1  0  0  0  0
 59 71  1  0  0  0  0
 60 73  1  0  0  0  0
 62 64  1  0  0  0  0
 63 65  1  0  0  0  0
M  CHG  1  73   1
M  ISO  4  35 100  58 101  72 100  80 101
M  END
> <Batch ID>
0039

> <Smiles>
CNC(C)C(=O)NC(C(=O)N1Cc2cc([101O:1][101CH2:1]Cn3ncc(CCC[100NH:0][100C:0](=O)N4CCCC(n5nc(-c6ccc(Oc7ccc(F)cc7F)cc6)c(C(N)=O)c5N)C4)c3C)ccc2CC1C(=O)NC1CCCc2ccccc21)C(C)(C)C

> <Shape>
0.183

> <Color>
0.202

> <Negative vol penalty>
0.000

$$$$

  -OEChem-04052317043D

 91 99  0     1  0  0  0  0  0999 V2000
  -27.3124  -31.1756   15.7592 C   0  0  0  0  0  0  0  0  0  0  0  0
  -27.3055  -30.0253   16.5416 C   0  0  0  0  0  0  0  0  0  0  0  0
  -23.2928   -9.7867   19.9320 C   0  0  0  0  0  0  0  0  0  0  0  0
  -23.7443   -9.9537   22.2996 C   0  0  0  0  0  0  0  0  0  0  0  0
  -27.4530  -31.0753   14.3757 C   0  0  0  0  0  0  0  0  0  0  0  0
  -27.4380  -28.7739   15.9408 C   0  0  0  0  0  0  0  0  0  0  0  0
  -30.6908  -25.7722   18.4014 C   0  0  0  0  0  0  0  0  0  0  0  0
  -22.5699   -8.6143   20.1526 C   0  0  0  0  0  0  0  0  0  0  0  0
  -23.0214   -8.7813   22.5201 C   0  0  0  0  0  0  0  0  0  0  0  0
  -30.2333  -25.1567   19.5657 C   0  0  0  0  0  0  0  0  0  0  0  0
  -19.7771   -7.8633   22.7488 C   0  0  0  0  0  0  0  0  0  0  0  0
  -18.8753   -7.8502   23.8128 C   0  0  0  0  0  0  0  0  0  0  0  0
  -29.8577  -23.1175   18.3329 C   0  0  0  0  0  0  0  0  0  0  0  0
  -27.0791  -22.0697   24.1816 C   0  0  0  0  0  0  0  0  0  0  0  0
  -20.0869   -6.0171   24.8172 C   0  0  0  0  0  0  0  0  0  0  0  0
  -23.8800  -10.4563   21.0056 C   0  0  0  0  0  0  0  0  0  0  0  0
  -24.1320  -12.9848   20.7801 C   0  0  0  0  0  0  0  0  0  0  0  0
  -27.5970  -29.8227   13.7585 C   0  0  0  0  0  0  0  0  0  0  0  0
  -30.7249  -25.0671   17.1898 C   0  0  0  0  0  0  0  0  0  0  0  0
  -27.5793  -28.6568   14.5476 C   0  0  0  0  0  0  0  0  0  0  0  0
  -30.3184  -23.7256   17.1552 C   0  0  0  0  0  0  0  0  0  0  0  0
  -27.5099  -22.8558   23.1187 C   0  0  0  0  0  0  0  0  0  0  0  0
  -28.8590  -23.1686   22.9948 C   0  0  0  0  0  0  0  0  0  0  0  0
  -22.4342   -8.1117   21.4466 C   0  0  0  0  0  0  0  0  0  0  0  0
  -29.8139  -23.8300   19.5310 C   0  0  0  0  0  0  0  0  0  0  0  0
  -20.8337   -6.9531   22.7189 C   0  0  0  0  0  0  0  0  0  0  0  0
  -19.0302   -6.9272   24.8470 C   0  0  0  0  0  0  0  0  0  0  0  0
  -20.9886   -6.0301   23.7531 C   0  0  0  0  0  0  0  0  0  0  0  0
  -24.6274  -11.6671   20.7783 C   0  0  0  0  0  0  0  0  0  0  0  0
  -28.0296  -21.6248   25.0863 C   0  0  0  0  0  0  0  0  0  0  0  0
  -29.7298  -22.6748   23.9527 C   0  0  0  0  0  0  0  0  0  0  0  0
  -25.2311  -13.7651   20.5163 C   0  0  0  0  0  0  0  0  0  0  0  0
  -22.7977  -13.4609   21.0005 C   0  0  0  0  0  0  0  0  0  0  0  0
  -29.3180  -25.4018   14.3592 C   0  0  0  0  0  0  0  0  0  0  0  0
  -31.2717  -22.9474   13.5338 C   0  0  0  0  0  0  0  0  0  0  0  0
  -33.1190  -20.2550   14.5264 C   0  0  0  0  0  0  0  0  0  0  0  0
  -31.1049  -12.9477   21.3418 C   0  0  0  0  0  0  0  0  0  0  0  0
  -27.6986  -29.7616   12.2550 C   0  0  0  0  0  0  0  0  0  0  0  0
  -31.2463  -25.7373   15.9482 C   0  0  0  0  0  0  0  0  0  0  0  0
  -30.3546  -22.9185   15.8840 C   0  0  0  0  0  0  0  0  0  0  0  0
  -28.2099  -28.4213   11.7330 C   0  0  0  0  0  0  0  0  0  0  0  0
  -29.4524  -13.6499   18.2672 C   0  0  0  0  0  0  0  0  0  0  0  0
  -27.4876  -27.2688   12.4237 C   0  0  0  0  0  0  0  0  0  0  0  0
  -27.9838  -13.3402   18.5623 C   0  0  0  0  0  0  0  0  0  0  0  0
  -30.3889  -12.6807   18.9854 C   0  0  0  0  0  0  0  0  0  0  0  0
  -28.7043  -12.2650   20.7356 C   0  0  0  0  0  0  0  0  0  0  0  0
  -27.7455  -27.2829   13.9352 C   0  0  1  0  0  0  0  0  0  0  0  0
  -30.7539  -25.0798   14.6627 C   0  0  1  0  0  0  0  0  0  0  0  0
  -27.7232  -13.2505   20.0780 C   0  0  2  0  0  0  0  0  0  0  0  0
  -26.5074  -23.3517   22.1297 C   0  0  0  0  0  0  0  0  0  0  0  0
  -34.5738  -18.4222   13.6202 C   0  0  0  0  0  0  0  0  0  0  0  0
  -31.2940  -24.1955   26.1082 C   0  0  0  0  0  0  0  0  0  0  0  0
  -33.1174  -24.5139   24.4237 C   0  0  0  0  0  0  0  0  0  0  0  0
  -28.7911  -21.4689   12.5486 C   0  0  0  0  0  0  0  0  0  0  0  0
  -30.1344  -19.3561   12.5522 C   0  0  0  0  0  0  0  0  0  0  0  0
  -30.7939  -21.2488   11.0671 C   0  0  0  0  0  0  0  0  0  0  0  0
  -35.4610  -21.1897   16.0757 C   0  0  0  0  0  0  0  0  0  0  0  0
  -29.3532  -24.0128   21.8570 C   0  0  0  0  0  0  0  0  0  1  0  0
  -27.6037  -20.7779   26.2387 C   0  0  0  0  0  0  0  0  0  0  0  0
  -31.1908  -22.9758   23.8720 C   0  0  0  0  0  0  0  0  0  0  0  0
  -27.6186  -19.2649   25.9550 C   0  0  0  0  0  0  0  0  0  0  0  0
  -29.0128  -18.7425   25.5910 C   0  0  0  0  0  0  0  0  0  0  0  0
  -28.9903  -17.2314   25.3473 C   0  0  0  0  0  0  0  0  0  0  0  0
  -30.3447  -16.6654   24.9102 C   0  0  0  0  0  0  0  0  0  0  0  0
  -30.3062  -15.1674   24.5958 C   0  0  0  0  0  0  0  0  0  0  0  0
  -31.6784  -14.6642   24.1351 C   0  0  0  0  0  0  0  0  0  0  0  0
  -31.6673  -13.1886   23.7469 C   0  0  0  0  0  0  0  0  0  0  0  0
  -31.1663  -21.4417   13.5603 C   0  0  1  0  0  0  0  0  0  0  0  0
  -34.5380  -19.8297   14.1950 C   0  0  2  0  0  0  0  0  0  0  0  0
  -31.6191  -24.2646   24.6139 C   0  0  0  0  0  0  0  0  0  0  0  0
  -30.2188  -20.8944   12.4558 C   0  0  0  0  0  0  0  0  0  0  0  0
  -25.9390  -11.6096   20.5328 N   0  0  0  0  0  0  0  0  0  0  0  0
  -29.3486  -21.9082   24.9989 N   0  0  0  0  0  0  0  0  0  0  0  0
  -26.2772  -12.9010   20.3776 N   0  0  0  0  0  0  0  0  0  0  0  0
  -30.8665  -23.6202   14.6953 N   0  0  0  0  0  0  0  0  0  0  0  0
  -30.0904  -12.6436   20.4191 N   0  0  0  0  0  0  0  0  0  0  0  0
  -25.3952  -15.0993   20.3916 N   0  0  0  0  0  0  0  0  0  0  0  0
  -21.7880  -12.5238   21.2584 N   0  0  0  0  0  0  0  0  0  0  0  0
  -29.0599  -26.7531   14.2287 N   0  0  0  0  0  0  0  0  0  0  0  0
  -32.5323  -20.9355   13.4805 N   0  0  0  0  0  0  0  0  0  0  0  0
  -30.7361  -12.8953   22.6804 N   0  0  0  0  0  0  0  0  0  0  0  0
  -35.3869  -19.8590   15.4195 N   0  3  0  0  0  0  0  0  0  0  0  0
  -22.5063  -14.6801   20.9534 O   0  0  0  0  0  0  0  0  0  0  0  0
  -28.5047  -24.4917   14.2500 O   0  0  0  0  0  0  0  0  0  0  0  0
  -31.7045  -23.5057   12.5225 O   0  0  0  0  0  0  0  0  0  0  0  0
  -32.5832  -20.0052   15.6040 O   0  0  0  0  0  0  0  0  0  0  0  0
  -32.2529  -13.2492   20.9979 O   0  0  0  0  0  0  0  0  0  0  0  0
  -21.7286   -6.9678   21.6622 O   0  0  0  0  0  0  0  0  0  0  0  0
  -29.3663  -23.2270   20.6658 O   0  0  0  0  0  0  0  0  0  1  0  0
  -18.1650   -6.9158   25.8696 F   0  0  0  0  0  0  0  0  0  0  0  0
  -22.0025   -5.1540   23.7305 F   0  0  0  0  0  0  0  0  0  0  0  0
  1  2  1  0  0  0  0
  1  5  2  0  0  0  0
  2  6  2  0  0  0  0
  3  8  2  0  0  0  0
  3 16  1  0  0  0  0
  4  9  1  0  0  0  0
  4 16  2  0  0  0  0
  5 18  1  0  0  0  0
  6 20  1  0  0  0  0
  7 10  2  0  0  0  0
  7 19  1  0  0  0  0
  8 24  1  0  0  0  0
  9 24  2  0  0  0  0
 10 25  1  0  0  0  0
 11 12  2  0  0  0  0
 11 26  1  0  0  0  0
 12 27  1  0  0  0  0
 13 21  1  0  0  0  0
 13 25  2  0  0  0  0
 14 22  2  0  0  0  0
 14 30  1  0  0  0  0
 15 27  2  0  0  0  0
 15 28  1  0  0  0  0
 16 29  1  0  0  0  0
 17 29  1  0  0  0  0
 17 32  2  0  0  0  0
 17 33  1  0  0  0  0
 18 20  2  0  0  0  0
 18 38  1  0  0  0  0
 19 21  2  0  0  0  0
 19 39  1  0  0  0  0
 20 47  1  0  0  0  0
 21 40  1  0  0  0  0
 22 23  1  0  0  0  0
 22 50  1  0  0  0  0
 23 31  2  0  0  0  0
 23 58  1  0  0  0  0
 24 88  1  0  0  0  0
 25 89  1  0  0  0  0
 26 28  2  0  0  0  0
 26 88  1  0  0  0  0
 27 90  1  0  0  0  0
 28 91  1  0  0  0  0
 29 72  2  0  0  0  0
 30 59  1  0  0  0  0
 30 73  2  0  0  0  0
 31 60  1  0  0  0  0
 31 73  1  0  0  0  0
 32 74  1  0  0  0  0
 32 77  1  0  0  0  0
 33 78  1  0  0  0  0
 33 83  2  0  0  0  0
 34 48  1  0  0  0  0
 34 79  1  0  0  0  0
 34 84  2  0  0  0  0
 35 68  1  0  0  0  0
 35 75  1  0  0  0  0
 35 85  2  0  0  0  0
 36 69  1  0  0  0  0
 36 80  1  0  0  0  0
 36 86  2  0  0  0  0
 37 76  1  0  0  0  0
 37 81  1  0  0  0  0
 37 87  2  0  0  0  0
 38 41  1  0  0  0  0
 39 48  1  0  0  0  0
 40 75  1  0  0  0  0
 41 43  1  0  0  0  0
 42 44  1  0  0  0  0
 42 45  1  0  0  0  0
 43 47  1  0  0  0  0
 44 49  1  0  0  0  0
 45 76  1  0  0  0  0
 46 49  1  0  0  0  0
 46 76  1  0  0  0  0
 47 79  1  0  0  0  0
 48 75  1  0  0  0  0
 49 74  1  0  0  0  0
 51 69  1  0  0  0  0
 52 70  1  0  0  0  0
 53 70  1  0  0  0  0
 54 71  1  0  0  0  0
 55 71  1  0  0  0  0
 56 71  1  0  0  0  0
 57 82  1  0  0  0  0
 58 89  1  0  0  0  0
 59 61  1  0  0  0  0
 60 70  1  0  0  0  0
 61 62  1  0  0  0  0
 62 63  1  0  0  0  0
 63 64  1  0  0  0  0
 64 65  1  0  0  0  0
 65 66  1  0  0  0  0
 66 67  1  0  0  0  0
 67 81  1  0  0  0  0
 68 71  1  0  0  0  0
 68 80  1  0  0  0  0
 69 82  1  0  0  0  0
 72 74  1  0  0  0  0
M  CHG  1  82   1
M  ISO  4  37 100  58 101  81 100  89 101
M  END
> <Batch ID>
0039

> <Smiles>
CNC(C)C(=O)NC(C(=O)N1Cc2cc([101O:1][101CH2:1]c3c(C)cc(CCCCCCCC[100NH:0][100C:0](=O)N4CCCC(n5nc(-c6ccc(Oc7ccc(F)cc7F)cc6)c(C(N)=O)c5N)C4)nc3CC(C)C)ccc2CC1C(=O)NC1CCCc2ccccc21)C(C)(C)C

> <Shape>
0.181

> <Color>
0.175

> <Negative vol penalty>
0.000

$$$$

  -OEChem-04052317043D

 81 89  0     1  0  0  0  0  0999 V2000
  -26.5941  -25.8094   24.2575 C   0  0  0  0  0  0  0  0  0  0  0  0
  -25.3082  -25.4885   23.8348 C   0  0  0  0  0  0  0  0  0  0  0  0
  -25.7312  -28.4795   21.5625 C   0  0  0  0  0  0  0  0  0  0  0  0
  -25.0841  -27.9697   19.2913 C   0  0  0  0  0  0  0  0  0  0  0  0
  -27.6907  -25.1315   23.7267 C   0  0  0  0  0  0  0  0  0  0  0  0
  -25.1181  -24.4901   22.8801 C   0  0  0  0  0  0  0  0  0  0  0  0
  -20.4396  -20.5517   22.5532 C   0  0  0  0  0  0  0  0  0  0  0  0
  -26.9799  -27.9004   21.3367 C   0  0  0  0  0  0  0  0  0  0  0  0
  -26.3328  -27.3906   19.0655 C   0  0  0  0  0  0  0  0  0  0  0  0
  -19.2722  -20.5432   21.7911 C   0  0  0  0  0  0  0  0  0  0  0  0
  -29.4790  -28.4352   18.4087 C   0  0  0  0  0  0  0  0  0  0  0  0
  -30.1353  -28.7564   17.2207 C   0  0  0  0  0  0  0  0  0  0  0  0
  -20.3483  -19.1178   20.1696 C   0  0  0  0  0  0  0  0  0  0  0  0
  -30.1368  -26.4240   16.5908 C   0  0  0  0  0  0  0  0  0  0  0  0
  -15.7543  -23.5691   18.8070 C   0  0  0  0  0  0  0  0  0  0  0  0
  -24.7832  -28.5141   20.5397 C   0  0  0  0  0  0  0  0  0  0  0  0
  -23.1310  -30.4574   20.5733 C   0  0  0  0  0  0  0  0  0  0  0  0
  -27.5133  -24.1176   22.7721 C   0  0  0  0  0  0  0  0  0  0  0  0
  -21.5756  -19.8510   22.1230 C   0  0  0  0  0  0  0  0  0  0  0  0
  -26.2134  -23.7988   22.3350 C   0  0  0  0  0  0  0  0  0  0  0  0
  -21.5281  -19.1169   20.9293 C   0  0  0  0  0  0  0  0  0  0  0  0
  -16.7894  -24.4412   18.5378 C   0  0  0  0  0  0  0  0  0  0  0  0
  -27.2807  -27.3560   20.0882 C   0  0  0  0  0  0  0  0  0  0  0  0
  -19.2273  -19.8285   20.5976 C   0  0  0  0  0  0  0  0  0  0  0  0
  -29.1516  -27.1083   18.6879 C   0  0  0  0  0  0  0  0  0  0  0  0
  -30.4643  -27.7509   16.3117 C   0  0  0  0  0  0  0  0  0  0  0  0
  -29.4805  -26.1027   17.7789 C   0  0  0  0  0  0  0  0  0  0  0  0
  -23.4930  -29.1116   20.7725 C   0  0  0  0  0  0  0  0  0  0  0  0
  -17.9195  -23.8739   17.9853 C   0  0  0  0  0  0  0  0  0  0  0  0
  -21.8076  -30.5144   20.9367 C   0  0  0  0  0  0  0  0  0  0  0  0
  -16.9630  -21.8122   18.0201 C   0  0  0  0  0  0  0  0  0  0  0  0
  -23.9203  -31.5576   20.1020 C   0  0  0  0  0  0  0  0  0  0  0  0
  -24.5419  -20.6637   21.3203 C   0  0  0  0  0  0  0  0  0  0  0  0
  -24.9632  -17.4512   21.1623 C   0  0  0  0  0  0  0  0  0  0  0  0
  -23.5700  -14.3634   20.7488 C   0  0  0  0  0  0  0  0  0  0  0  0
  -17.4522  -26.4102   21.1308 C   0  0  0  0  0  0  0  0  0  0  0  0
  -28.7324  -23.4452   22.1922 C   0  0  0  0  0  0  0  0  0  0  0  0
  -22.8186  -19.8484   22.9700 C   0  0  0  0  0  0  0  0  0  0  0  0
  -22.7139  -18.3316   20.4336 C   0  0  0  0  0  0  0  0  0  0  0  0
  -28.4194  -22.1424   21.4607 C   0  0  0  0  0  0  0  0  0  0  0  0
  -18.6249  -28.4167   23.8282 C   0  0  0  0  0  0  0  0  0  0  0  0
  -27.2243  -22.3261   20.5309 C   0  0  0  0  0  0  0  0  0  0  0  0
  -19.9728  -28.9437   23.3329 C   0  0  0  0  0  0  0  0  0  0  0  0
  -18.3711  -26.9861   23.3580 C   0  0  0  0  0  0  0  0  0  0  0  0
  -19.8425  -27.3084   21.4074 C   0  0  0  0  0  0  0  0  0  0  0  0
  -25.9648  -22.7048   21.3195 C   0  0  1  0  0  0  0  0  0  0  0  0
  -24.0805  -19.5196   22.1781 C   0  0  1  0  0  0  0  0  0  0  0  0
  -20.1184  -28.7674   21.8095 C   0  0  2  0  0  0  0  0  0  0  0  0
  -19.1029  -24.7211   17.6516 C   0  0  0  0  0  0  0  0  0  0  0  0
  -24.1725  -11.9302   20.6305 C   0  0  0  0  0  0  0  0  0  0  0  0
  -26.0368  -17.8569   18.3351 C   0  0  0  0  0  0  0  0  0  0  0  0
  -25.7223  -15.4050   17.9387 C   0  0  0  0  0  0  0  0  0  0  0  0
  -27.3027  -16.1889   19.7024 C   0  0  0  0  0  0  0  0  0  0  0  0
  -21.9014  -13.7164   23.1059 C   0  0  0  0  0  0  0  0  0  0  0  0
  -16.6695  -25.8916   18.8335 C   0  0  0  0  0  0  0  0  0  0  0  0
  -17.0604  -20.3344   17.7283 C   0  0  0  0  0  0  0  0  0  0  0  0
  -18.2397  -19.6796   18.4393 C   0  0  0  0  0  0  0  0  0  1  0  0
  -24.8129  -16.4050   20.0844 C   0  0  1  0  0  0  0  0  0  0  0  0
  -23.7307  -13.0728   21.5317 C   0  0  2  0  0  0  0  0  0  0  0  0
  -25.9468  -16.4802   19.0232 C   0  0  0  0  0  0  0  0  0  0  0  0
  -15.8073  -22.2438   18.5600 N   0  0  0  0  0  0  0  0  0  0  0  0
  -22.4813  -28.3674   21.2273 N   0  0  0  0  0  0  0  0  0  0  0  0
  -18.0411  -22.5582   17.7124 N   0  0  0  0  0  0  0  0  0  0  0  0
  -21.4706  -29.2487   21.3169 N   0  0  0  0  0  0  0  0  0  0  0  0
  -23.9082  -18.3653   21.2939 N   0  0  0  0  0  0  0  0  0  0  0  0
  -18.5232  -26.8873   21.9044 N   0  0  0  0  0  0  0  0  0  0  0  0
  -20.9110  -31.5232   20.9649 N   0  0  0  0  0  0  0  0  0  0  0  0
  -25.2625  -31.3243   19.7727 N   0  0  0  0  0  0  0  0  0  0  0  0
  -25.4000  -21.5369   21.9610 N   0  0  0  0  0  0  0  0  0  0  0  0
  -24.7217  -15.1213   20.7715 N   0  0  0  0  0  0  0  0  0  0  0  0
  -17.6778  -26.3543   19.7609 N   0  0  0  0  0  0  0  0  0  0  0  0
  -22.4409  -12.6927   22.1743 N   0  3  0  0  0  0  0  0  0  0  0  0
  -23.4538  -32.7168   19.9920 O   0  0  0  0  0  0  0  0  0  0  0  0
  -24.1496  -20.7471   20.1623 O   0  0  0  0  0  0  0  0  0  0  0  0
  -25.9760  -17.4529   21.8664 O   0  0  0  0  0  0  0  0  0  0  0  0
  -22.5283  -14.6670   20.1715 O   0  0  0  0  0  0  0  0  0  0  0  0
  -16.3730  -26.0651   21.6239 O   0  0  0  0  0  0  0  0  0  0  0  0
  -28.4992  -26.7911   19.8675 O   0  0  0  0  0  0  0  0  0  0  0  0
  -18.0893  -19.8191   19.8515 O   0  0  0  0  0  0  0  0  0  1  0  0
  -31.0932  -28.0597   15.1701 F   0  0  0  0  0  0  0  0  0  0  0  0
  -29.1675  -24.8263   18.0411 F   0  0  0  0  0  0  0  0  0  0  0  0
  1  2  1  0  0  0  0
  1  5  2  0  0  0  0
  2  6  2  0  0  0  0
  3  8  2  0  0  0  0
  3 16  1  0  0  0  0
  4  9  1  0  0  0  0
  4 16  2  0  0  0  0
  5 18  1  0  0  0  0
  6 20  1  0  0  0  0
  7 10  2  0  0  0  0
  7 19  1  0  0  0  0
  8 23  1  0  0  0  0
  9 23  2  0  0  0  0
 10 24  1  0  0  0  0
 11 12  2  0  0  0  0
 11 25  1  0  0  0  0
 12 26  1  0  0  0  0
 13 21  1  0  0  0  0
 13 24  2  0  0  0  0
 14 26  2  0  0  0  0
 14 27  1  0  0  0  0
 15 22  1  0  0  0  0
 15 61  2  0  0  0  0
 16 28  1  0  0  0  0
 17 28  1  0  0  0  0
 17 30  2  0  0  0  0
 17 32  1  0  0  0  0
 18 20  2  0  0  0  0
 18 37  1  0  0  0  0
 19 21  2  0  0  0  0
 19 38  1  0  0  0  0
 20 46  1  0  0  0  0
 21 39  1  0  0  0  0
 22 29  2  0  0  0  0
 22 55  1  0  0  0  0
 23 78  1  0  0  0  0
 24 79  1  0  0  0  0
 25 27  2  0  0  0  0
 25 78  1  0  0  0  0
 26 80  1  0  0  0  0
 27 81  1  0  0  0  0
 28 62  2  0  0  0  0
 29 49  1  0  0  0  0
 29 63  1  0  0  0  0
 30 64  1  0  0  0  0
 30 67  1  0  0  0  0
 31 56  1  0  0  0  0
 31 61  1  0  0  0  0
 31 63  2  0  0  0  0
 32 68  1  0  0  0  0
 32 73  2  0  0  0  0
 33 47  1  0  0  0  0
 33 69  1  0  0  0  0
 33 74  2  0  0  0  0
 34 58  1  0  0  0  0
 34 65  1  0  0  0  0
 34 75  2  0  0  0  0
 35 59  1  0  0  0  0
 35 70  1  0  0  0  0
 35 76  2  0  0  0  0
 36 66  1  0  0  0  0
 36 71  1  0  0  0  0
 36 77  2  0  0  0  0
 37 40  1  0  0  0  0
 38 47  1  0  0  0  0
 39 65  1  0  0  0  0
 40 42  1  0  0  0  0
 41 43  1  0  0  0  0
 41 44  1  0  0  0  0
 42 46  1  0  0  0  0
 43 48  1  0  0  0  0
 44 66  1  0  0  0  0
 45 48  1  0  0  0  0
 45 66  1  0  0  0  0
 46 69  1  0  0  0  0
 47 65  1  0  0  0  0
 48 64  1  0  0  0  0
 50 59  1  0  0  0  0
 51 60  1  0  0  0  0
 52 60  1  0  0  0  0
 53 60  1  0  0  0  0
 54 72  1  0  0  0  0
 55 71  1  0  0  0  0
 56 57  1  0  0  0  0
 57 79  1  0  0  0  0
 58 60  1  0  0  0  0
 58 70  1  0  0  0  0
 59 72  1  0  0  0  0
 62 64  1  0  0  0  0
M  CHG  1  72   1
M  ISO  4  36 100  57 101  71 100  79 101
M  END
> <Batch ID>
0039

> <Smiles>
CNC(C)C(=O)NC(C(=O)N1Cc2cc([101O:1][101CH2:1]Cc3ncc(C[100NH:0][100C:0](=O)N4CCCC(n5nc(-c6ccc(Oc7ccc(F)cc7F)cc6)c(C(N)=O)c5N)C4)c(C)n3)ccc2CC1C(=O)NC1CCCc2ccccc21)C(C)(C)C

> <Shape>
0.168

> <Color>
0.097

> <Negative vol penalty>
0.000

$$$$

  -OEChem-04052317042D

  0  0  0     0  0  0  0  0  0999 V2000
M  END
$$$$

  -OEChem-04052317043D

 88 96  0     1  0  0  0  0  0999 V2000
  -28.2197  -11.0906   21.5803 C   0  0  0  0  0  0  0  0  0  0  0  0
  -28.7804  -12.3208   21.2522 C   0  0  0  0  0  0  0  0  0  0  0  0
  -20.6074  -26.8728   23.4735 C   0  0  0  0  0  0  0  0  0  0  0  0
  -19.9869  -28.5595   21.8589 C   0  0  0  0  0  0  0  0  0  0  0  0
  -26.8683  -10.8535   21.3326 C   0  0  0  0  0  0  0  0  0  0  0  0
  -27.9902  -13.3142   20.6750 C   0  0  0  0  0  0  0  0  0  0  0  0
  -28.4633  -19.3590   21.5369 C   0  0  0  0  0  0  0  0  0  0  0  0
  -19.2596  -26.6313   23.7393 C   0  0  0  0  0  0  0  0  0  0  0  0
  -18.6390  -28.3179   22.1245 C   0  0  0  0  0  0  0  0  0  0  0  0
  -29.0669  -20.3687   20.7887 C   0  0  0  0  0  0  0  0  0  0  0  0
  -16.3851  -29.1315   24.5097 C   0  0  0  0  0  0  0  0  0  0  0  0
  -15.5500  -30.2358   24.6792 C   0  0  0  0  0  0  0  0  0  0  0  0
  -26.9435  -20.8655   19.7573 C   0  0  0  0  0  0  0  0  0  0  0  0
  -31.0015  -24.6904   19.0751 C   0  0  0  0  0  0  0  0  0  0  0  0
  -14.2053  -29.5057   22.8094 C   0  0  0  0  0  0  0  0  0  0  0  0
  -31.3220  -24.3853   16.3825 C   0  0  0  0  0  0  0  0  0  0  0  0
  -20.9711  -27.8370   22.5334 C   0  0  0  0  0  0  0  0  0  0  0  0
  -23.1657  -27.4554   21.2901 C   0  0  0  0  0  0  0  0  0  0  0  0
  -26.0589  -11.8478   20.7610 C   0  0  0  0  0  0  0  0  0  0  0  0
  -27.0952  -19.0872   21.3927 C   0  0  0  0  0  0  0  0  0  0  0  0
  -26.6270  -13.0896   20.4181 C   0  0  0  0  0  0  0  0  0  0  0  0
  -26.3244  -19.8535   20.5068 C   0  0  0  0  0  0  0  0  0  0  0  0
  -30.7424  -23.4545   18.4930 C   0  0  0  0  0  0  0  0  0  0  0  0
  -30.9032  -23.2908   17.1217 C   0  0  0  0  0  0  0  0  0  0  0  0
  -18.2754  -27.3538   23.0647 C   0  0  0  0  0  0  0  0  0  0  0  0
  -28.3076  -21.1202   19.8966 C   0  0  0  0  0  0  0  0  0  0  0  0
  -16.1304  -28.2144   23.4901 C   0  0  0  0  0  0  0  0  0  0  0  0
  -14.4600  -30.4228   23.8291 C   0  0  0  0  0  0  0  0  0  0  0  0
  -15.0405  -28.4014   22.6400 C   0  0  0  0  0  0  0  0  0  0  0  0
  -22.3632  -28.0873   22.2589 C   0  0  0  0  0  0  0  0  0  0  0  0
  -31.4161  -25.7223   18.2485 C   0  0  0  0  0  0  0  0  0  0  0  0
  -24.3991  -28.0436   21.4292 C   0  0  0  0  0  0  0  0  0  0  0  0
  -22.8265  -26.4287   20.3486 C   0  0  0  0  0  0  0  0  0  0  0  0
  -25.3950  -16.5731   20.4481 C   0  0  0  0  0  0  0  0  0  0  0  0
  -22.8876  -18.4135   21.3690 C   0  0  0  0  0  0  0  0  0  0  0  0
  -21.6500  -21.5389   21.9583 C   0  0  0  0  0  0  0  0  0  0  0  0
  -27.5803  -32.5806   22.0932 C   0  0  0  0  0  0  0  0  0  0  0  0
  -24.6142  -11.5285   20.4685 C   0  0  0  0  0  0  0  0  0  0  0  0
  -26.4537  -18.0124   22.2267 C   0  0  0  0  0  0  0  0  0  0  0  0
  -24.8478  -19.6150   20.3300 C   0  0  0  0  0  0  0  0  0  0  0  0
  -23.7598  -12.7645   20.1989 C   0  0  0  0  0  0  0  0  0  0  0  0
  -26.1965  -31.1119   25.0266 C   0  0  0  0  0  0  0  0  0  0  0  0
  -24.4697  -13.7029   19.2283 C   0  0  0  0  0  0  0  0  0  0  0  0
  -25.1383  -30.1472   24.4884 C   0  0  0  0  0  0  0  0  0  0  0  0
  -26.2754  -32.3870   24.1899 C   0  0  0  0  0  0  0  0  0  0  0  0
  -25.4153  -31.2035   22.2066 C   0  0  0  0  0  0  0  0  0  0  0  0
  -25.7967  -14.2010   19.8134 C   0  0  1  0  0  0  0  0  0  0  0  0
  -25.1580  -17.4803   21.6221 C   0  0  1  0  0  0  0  0  0  0  0  0
  -25.3374  -29.8787   22.9845 C   0  0  2  0  0  0  0  0  0  0  0  0
  -27.6609  -20.6276   14.3436 C   0  0  0  0  0  0  0  0  0  0  0  0
  -19.5559  -22.7274   22.6649 C   0  0  0  0  0  0  0  0  0  0  0  0
  -21.6974  -17.9597   18.5964 C   0  0  0  0  0  0  0  0  0  0  0  0
  -20.1514  -19.8824   19.0217 C   0  0  0  0  0  0  0  0  0  0  0  0
  -20.0452  -17.8548   20.4708 C   0  0  0  0  0  0  0  0  0  0  0  0
  -22.9665  -22.6802   24.3507 C   0  0  0  0  0  0  0  0  0  0  0  0
  -30.6391  -21.9896   16.4470 C   0  0  0  0  0  0  0  0  0  0  0  0
  -30.2921  -22.3162   19.3607 C   0  0  0  0  0  0  0  0  0  1  0  0
  -31.7029  -27.0625   18.8387 C   0  0  0  0  0  0  0  0  0  0  0  0
  -29.0101  -20.6342   15.0443 C   0  0  0  0  0  0  0  0  0  0  0  0
  -29.2941  -21.9852   15.7008 C   0  0  0  0  0  0  0  0  0  0  0  0
  -30.4889  -28.0075   18.8885 C   0  0  0  0  0  0  0  0  0  0  0  0
  -30.8381  -29.3945   19.4375 C   0  0  0  0  0  0  0  0  0  0  0  0
  -29.6125  -30.3117   19.4466 C   0  0  0  0  0  0  0  0  0  0  0  0
  -29.9704  -31.7101   19.9585 C   0  0  0  0  0  0  0  0  0  0  0  0
  -28.7840  -32.6679   19.9246 C   0  0  0  0  0  0  0  0  0  0  0  0
  -22.0060  -19.4353   20.6924 C   0  0  1  0  0  0  0  0  0  0  0  0
  -20.8656  -22.1078   23.1269 C   0  0  2  0  0  0  0  0  0  0  0  0
  -21.0032  -18.7865   19.6970 C   0  0  0  0  0  0  0  0  0  0  0  0
  -31.5835  -25.6012   16.9125 N   0  0  0  0  0  0  0  0  0  0  0  0
  -23.0307  -29.0064   22.9616 N   0  0  0  0  0  0  0  0  0  0  0  0
  -24.2657  -28.9562   22.4339 N   0  0  0  0  0  0  0  0  0  0  0  0
  -24.2679  -18.5487   21.1633 N   0  0  0  0  0  0  0  0  0  0  0  0
  -26.4662  -32.0627   22.7741 N   0  0  0  0  0  0  0  0  0  0  0  0
  -25.5739  -27.8639   20.7889 N   0  0  0  0  0  0  0  0  0  0  0  0
  -21.5141  -25.9368   20.3403 N   0  0  0  0  0  0  0  0  0  0  0  0
  -25.5593  -15.2439   20.7884 N   0  0  0  0  0  0  0  0  0  0  0  0
  -21.3754  -20.2021   21.7614 N   0  0  0  0  0  0  0  0  0  0  0  0
  -27.6892  -32.2193   20.7559 N   0  0  0  0  0  0  0  0  0  0  0  0
  -21.6621  -23.1573   23.8234 N   0  3  0  0  0  0  0  0  0  0  0  0
  -23.6667  -25.9497   19.5498 O   0  0  0  0  0  0  0  0  0  0  0  0
  -25.4250  -17.0439   19.3171 O   0  0  0  0  0  0  0  0  0  0  0  0
  -22.3711  -17.5323   22.0605 O   0  0  0  0  0  0  0  0  0  0  0  0
  -22.4258  -22.2138   21.2851 O   0  0  0  0  0  0  0  0  0  0  0  0
  -28.4188  -33.3064   22.6381 O   0  0  0  0  0  0  0  0  0  0  0  0
  -16.9601  -27.1181   23.3236 O   0  0  0  0  0  0  0  0  0  0  0  0
  -28.8944  -22.1060   19.1646 O   0  0  0  0  0  0  0  0  0  1  0  0
  -13.6572  -31.4825   23.9929 F   0  0  0  0  0  0  0  0  0  0  0  0
  -14.7900  -27.5231   21.6594 F   0  0  0  0  0  0  0  0  0  0  0  0
  1  2  1  0  0  0  0
  1  5  2  0  0  0  0
  2  6  2  0  0  0  0
  3  8  2  0  0  0  0
  3 17  1  0  0  0  0
  4  9  1  0  0  0  0
  4 17  2  0  0  0  0
  5 19  1  0  0  0  0
  6 21  1  0  0  0  0
  7 10  2  0  0  0  0
  7 20  1  0  0  0  0
  8 25  1  0  0  0  0
  9 25  2  0  0  0  0
 10 26  1  0  0  0  0
 11 12  2  0  0  0  0
 11 27  1  0  0  0  0
 12 28  1  0  0  0  0
 13 22  1  0  0  0  0
 13 26  2  0  0  0  0
 14 23  1  0  0  0  0
 14 31  2  0  0  0  0
 15 28  2  0  0  0  0
 15 29  1  0  0  0  0
 16 24  1  0  0  0  0
 16 69  2  0  0  0  0
 17 30  1  0  0  0  0
 18 30  1  0  0  0  0
 18 32  2  0  0  0  0
 18 33  1  0  0  0  0
 19 21  2  0  0  0  0
 19 38  1  0  0  0  0
 20 22  2  0  0  0  0
 20 39  1  0  0  0  0
 21 47  1  0  0  0  0
 22 40  1  0  0  0  0
 23 24  2  0  0  0  0
 23 57  1  0  0  0  0
 24 56  1  0  0  0  0
 25 85  1  0  0  0  0
 26 86  1  0  0  0  0
 27 29  2  0  0  0  0
 27 85  1  0  0  0  0
 28 87  1  0  0  0  0
 29 88  1  0  0  0  0
 30 70  2  0  0  0  0
 31 58  1  0  0  0  0
 31 69  1  0  0  0  0
 32 71  1  0  0  0  0
 32 74  1  0  0  0  0
 33 75  1  0  0  0  0
 33 80  2  0  0  0  0
 34 48  1  0  0  0  0
 34 76  1  0  0  0  0
 34 81  2  0  0  0  0
 35 66  1  0  0  0  0
 35 72  1  0  0  0  0
 35 82  2  0  0  0  0
 36 67  1  0  0  0  0
 36 77  1  0  0  0  0
 36 83  2  0  0  0  0
 37 73  1  0  0  0  0
 37 78  1  0  0  0  0
 37 84  2  0  0  0  0
 38 41  1  0  0  0  0
 39 48  1  0  0  0  0
 40 72  1  0  0  0  0
 41 43  1  0  0  0  0
 42 44  1  0  0  0  0
 42 45  1  0  0  0  0
 43 47  1  0  0  0  0
 44 49  1  0  0  0  0
 45 73  1  0  0  0  0
 46 49  1  0  0  0  0
 46 73  1  0  0  0  0
 47 76  1  0  0  0  0
 48 72  1  0  0  0  0
 49 71  1  0  0  0  0
 50 59  1  0  0  0  0
 51 67  1  0  0  0  0
 52 68  1  0  0  0  0
 53 68  1  0  0  0  0
 54 68  1  0  0  0  0
 55 79  1  0  0  0  0
 56 60  1  0  0  0  0
 57 86  1  0  0  0  0
 58 61  1  0  0  0  0
 59 60  1  0  0  0  0
 61 62  1  0  0  0  0
 62 63  1  0  0  0  0
 63 64  1  0  0  0  0
 64 65  1  0  0  0  0
 65 78  1  0  0  0  0
 66 68  1  0  0  0  0
 66 77  1  0  0  0  0
 67 79  1  0  0  0  0
 70 71  1  0  0  0  0
M  CHG  1  79   1
M  ISO  4  37 100  57 101  78 100  86 101
M  END
> <Batch ID>
0039

> <Smiles>
CCCCc1cnc(CCCCCC[100NH:0][100C:0](=O)N2CCCC(n3nc(-c4ccc(Oc5ccc(F)cc5F)cc4)c(C(N)=O)c3N)C2)cc1[101CH2:1][101O:1]c1ccc2c(c1)CN(C(=O)C(NC(=O)C(C)NC)C(C)(C)C)C(C(=O)NC1CCCc3ccccc31)C2

> <Shape>
0.235

> <Color>
0.069

> <Negative vol penalty>
0.000

$$$$

  -OEChem-04052317043D

 82 90  0     1  0  0  0  0  0999 V2000
  -21.3050  -11.9994   20.6172 C   0  0  0  0  0  0  0  0  0  0  0  0
  -21.4561  -13.1038   21.4496 C   0  0  0  0  0  0  0  0  0  0  0  0
  -28.9295  -28.2717   18.3834 C   0  0  0  0  0  0  0  0  0  0  0  0
  -28.8068  -26.5162   20.0387 C   0  0  0  0  0  0  0  0  0  0  0  0
  -22.4230  -11.4233   20.0154 C   0  0  0  0  0  0  0  0  0  0  0  0
  -22.7256  -13.6320   21.6816 C   0  0  0  0  0  0  0  0  0  0  0  0
  -24.1649  -19.5264   22.5121 C   0  0  0  0  0  0  0  0  0  0  0  0
  -30.2063  -27.8419   18.0222 C   0  0  0  0  0  0  0  0  0  0  0  0
  -30.0837  -26.0863   19.6775 C   0  0  0  0  0  0  0  0  0  0  0  0
  -24.3949  -20.2831   23.6603 C   0  0  0  0  0  0  0  0  0  0  0  0
  -33.4550  -24.7492   19.4400 C   0  0  0  0  0  0  0  0  0  0  0  0
  -34.3522  -24.4493   20.4649 C   0  0  0  0  0  0  0  0  0  0  0  0
  -26.7678  -19.9267   23.4127 C   0  0  0  0  0  0  0  0  0  0  0  0
  -34.1805  -26.7175   21.2791 C   0  0  0  0  0  0  0  0  0  0  0  0
  -24.1286  -24.7201   27.9343 C   0  0  0  0  0  0  0  0  0  0  0  0
  -28.2297  -27.6089   19.3917 C   0  0  0  0  0  0  0  0  0  0  0  0
  -25.6844  -27.6258   19.2224 C   0  0  0  0  0  0  0  0  0  0  0  0
  -23.7057  -11.9506   20.2325 C   0  0  0  0  0  0  0  0  0  0  0  0
  -25.2358  -18.9542   21.8105 C   0  0  0  0  0  0  0  0  0  0  0  0
  -23.8620  -13.0616   21.0833 C   0  0  0  0  0  0  0  0  0  0  0  0
  -26.5490  -19.1654   22.2544 C   0  0  0  0  0  0  0  0  0  0  0  0
  -24.7423  -24.4814   26.6900 C   0  0  0  0  0  0  0  0  0  0  0  0
  -30.7834  -26.7492   18.6692 C   0  0  0  0  0  0  0  0  0  0  0  0
  -25.6962  -20.4809   24.1124 C   0  0  0  0  0  0  0  0  0  0  0  0
  -32.9205  -26.0334   19.3345 C   0  0  0  0  0  0  0  0  0  0  0  0
  -34.7149  -25.4334   21.3845 C   0  0  0  0  0  0  0  0  0  0  0  0
  -33.2832  -27.0175   20.2541 C   0  0  0  0  0  0  0  0  0  0  0  0
  -26.9109  -28.0527   19.7657 C   0  0  0  0  0  0  0  0  0  0  0  0
  -24.2927  -25.4990   25.8845 C   0  0  0  0  0  0  0  0  0  0  0  0
  -24.7359  -28.3411   19.9118 C   0  0  0  0  0  0  0  0  0  0  0  0
  -25.4255  -26.6683   18.1871 C   0  0  0  0  0  0  0  0  0  0  0  0
  -26.1214  -15.9851   21.1005 C   0  0  0  0  0  0  0  0  0  0  0  0
  -28.3945  -17.4977   19.3490 C   0  0  0  0  0  0  0  0  0  0  0  0
  -30.2682  -20.3040   18.8384 C   0  0  0  0  0  0  0  0  0  0  0  0
  -24.6965  -30.9011   25.3244 C   0  0  0  0  0  0  0  0  0  0  0  0
  -24.8895  -11.2648   19.5978 C   0  0  0  0  0  0  0  0  0  0  0  0
  -24.9729  -18.1630   20.5586 C   0  0  0  0  0  0  0  0  0  0  0  0
  -27.7347  -18.5896   21.5257 C   0  0  0  0  0  0  0  0  0  0  0  0
  -26.1576  -12.1147   19.5972 C   0  0  0  0  0  0  0  0  0  0  0  0
  -24.1089  -32.4977   22.1967 C   0  0  0  0  0  0  0  0  0  0  0  0
  -26.3784  -12.7450   20.9686 C   0  0  0  0  0  0  0  0  0  0  0  0
  -24.6497  -31.5010   21.1700 C   0  0  0  0  0  0  0  0  0  0  0  0
  -24.9583  -32.5176   23.4656 C   0  0  0  0  0  0  0  0  0  0  0  0
  -25.7041  -30.2026   23.0676 C   0  0  0  0  0  0  0  0  0  0  0  0
  -25.2198  -13.6785   21.3398 C   0  0  1  0  0  0  0  0  0  0  0  0
  -26.1027  -17.1978   20.2135 C   0  0  1  0  0  0  0  0  0  0  0  0
  -24.8482  -30.1062   21.7931 C   0  0  2  0  0  0  0  0  0  0  0  0
  -24.5659  -25.8138   24.4694 C   0  0  0  0  0  0  0  0  0  0  0  0
  -32.0676  -21.2279   17.3532 C   0  0  0  0  0  0  0  0  0  0  0  0
  -30.4709  -15.8166   20.8229 C   0  0  0  0  0  0  0  0  0  0  0  0
  -32.2278  -17.4103   20.0219 C   0  0  0  0  0  0  0  0  0  0  0  0
  -30.8984  -16.0911   18.3742 C   0  0  0  0  0  0  0  0  0  0  0  0
  -28.5183  -22.4916   17.8840 C   0  0  0  0  0  0  0  0  0  0  0  0
  -25.6826  -23.3574   26.3283 C   0  0  0  0  0  0  0  0  0  0  0  0
  -23.0428  -28.6690   27.1483 C   0  0  0  0  0  0  0  0  0  0  0  0
  -22.7500  -27.4449   26.2702 C   0  0  0  0  0  0  0  0  0  0  0  0
  -24.4859  -29.1647   27.0850 C   0  0  0  0  0  0  0  0  0  0  0  0
  -24.9928  -22.2602   25.5250 C   0  0  0  0  0  0  0  0  0  1  0  0
  -29.7941  -17.9964   19.6161 C   0  0  1  0  0  0  0  0  0  0  0  0
  -30.5695  -21.0990   17.5808 C   0  0  2  0  0  0  0  0  0  0  0  0
  -30.8256  -16.8380   19.7238 C   0  0  0  0  0  0  0  0  0  0  0  0
  -23.3488  -25.8045   27.9250 N   0  0  0  0  0  0  0  0  0  0  0  0
  -26.7586  -28.9683   20.7262 N   0  0  0  0  0  0  0  0  0  0  0  0
  -23.4695  -26.2562   26.6650 N   0  0  0  0  0  0  0  0  0  0  0  0
  -25.4252  -29.1227   20.7917 N   0  0  0  0  0  0  0  0  0  0  0  0
  -27.4255  -17.8182   20.3104 N   0  0  0  0  0  0  0  0  0  0  0  0
  -25.1067  -31.1645   24.0070 N   0  0  0  0  0  0  0  0  0  0  0  0
  -23.3879  -28.3714   19.8452 N   0  0  0  0  0  0  0  0  0  0  0  0
  -26.5151  -26.0250   17.5844 N   0  0  0  0  0  0  0  0  0  0  0  0
  -25.3433  -14.9398   20.6410 N   0  0  0  0  0  0  0  0  0  0  0  0
  -30.0901  -18.9642   18.5653 N   0  0  0  0  0  0  0  0  0  0  0  0
  -24.8661  -29.5916   25.7568 N   0  0  0  0  0  0  0  0  0  0  0  0
  -29.9900  -22.4682   17.6823 N   0  3  0  0  0  0  0  0  0  0  0  0
  -24.2633  -26.4036   17.7963 O   0  0  0  0  0  0  0  0  0  0  0  0
  -26.7933  -15.9965   22.1253 O   0  0  0  0  0  0  0  0  0  0  0  0
  -28.1677  -16.8538   18.3216 O   0  0  0  0  0  0  0  0  0  0  0  0
  -30.2016  -20.8193   19.9522 O   0  0  0  0  0  0  0  0  0  0  0  0
  -24.2098  -31.7675   26.0588 O   0  0  0  0  0  0  0  0  0  0  0  0
  -32.0293  -26.3294   18.3168 O   0  0  0  0  0  0  0  0  0  0  0  0
  -25.9234  -21.2185   25.2333 O   0  0  0  0  0  0  0  0  0  1  0  0
  -35.5753  -25.1447   22.3697 F   0  0  0  0  0  0  0  0  0  0  0  0
  -32.7722  -28.2526   20.1586 F   0  0  0  0  0  0  0  0  0  0  0  0
  1  2  1  0  0  0  0
  1  5  2  0  0  0  0
  2  6  2  0  0  0  0
  3  8  2  0  0  0  0
  3 16  1  0  0  0  0
  4  9  1  0  0  0  0
  4 16  2  0  0  0  0
  5 18  1  0  0  0  0
  6 20  1  0  0  0  0
  7 10  2  0  0  0  0
  7 19  1  0  0  0  0
  8 23  1  0  0  0  0
  9 23  2  0  0  0  0
 10 24  1  0  0  0  0
 11 12  2  0  0  0  0
 11 25  1  0  0  0  0
 12 26  1  0  0  0  0
 13 21  1  0  0  0  0
 13 24  2  0  0  0  0
 14 26  2  0  0  0  0
 14 27  1  0  0  0  0
 15 22  1  0  0  0  0
 15 62  2  0  0  0  0
 16 28  1  0  0  0  0
 17 28  1  0  0  0  0
 17 30  2  0  0  0  0
 17 31  1  0  0  0  0
 18 20  2  0  0  0  0
 18 36  1  0  0  0  0
 19 21  2  0  0  0  0
 19 37  1  0  0  0  0
 20 45  1  0  0  0  0
 21 38  1  0  0  0  0
 22 29  2  0  0  0  0
 22 54  1  0  0  0  0
 23 79  1  0  0  0  0
 24 80  1  0  0  0  0
 25 27  2  0  0  0  0
 25 79  1  0  0  0  0
 26 81  1  0  0  0  0
 27 82  1  0  0  0  0
 28 63  2  0  0  0  0
 29 48  1  0  0  0  0
 29 64  1  0  0  0  0
 30 65  1  0  0  0  0
 30 68  1  0  0  0  0
 31 69  1  0  0  0  0
 31 74  2  0  0  0  0
 32 46  1  0  0  0  0
 32 70  1  0  0  0  0
 32 75  2  0  0  0  0
 33 59  1  0  0  0  0
 33 66  1  0  0  0  0
 33 76  2  0  0  0  0
 34 60  1  0  0  0  0
 34 71  1  0  0  0  0
 34 77  2  0  0  0  0
 35 67  1  0  0  0  0
 35 72  1  0  0  0  0
 35 78  2  0  0  0  0
 36 39  1  0  0  0  0
 37 46  1  0  0  0  0
 38 66  1  0  0  0  0
 39 41  1  0  0  0  0
 40 42  1  0  0  0  0
 40 43  1  0  0  0  0
 41 45  1  0  0  0  0
 42 47  1  0  0  0  0
 43 67  1  0  0  0  0
 44 47  1  0  0  0  0
 44 67  1  0  0  0  0
 45 70  1  0  0  0  0
 46 66  1  0  0  0  0
 47 65  1  0  0  0  0
 49 60  1  0  0  0  0
 50 61  1  0  0  0  0
 51 61  1  0  0  0  0
 52 61  1  0  0  0  0
 53 73  1  0  0  0  0
 54 58  1  0  0  0  0
 55 56  1  0  0  0  0
 55 57  1  0  0  0  0
 56 64  1  0  0  0  0
 57 72  1  0  0  0  0
 58 80  1  0  0  0  0
 59 61  1  0  0  0  0
 59 71  1  0  0  0  0
 60 73  1  0  0  0  0
 62 64  1  0  0  0  0
 63 65  1  0  0  0  0
M  CHG  1  73   1
M  ISO  4  35 100  58 101  72 100  80 101
M  END
> <Batch ID>
0039

> <Smiles>
CNC(C)C(=O)NC(C(=O)N1Cc2cc([101O:1][101CH2:1]Cc3cnn(CCC[100NH:0][100C:0](=O)N4CCCC(n5nc(-c6ccc(Oc7ccc(F)cc7F)cc6)c(C(N)=O)c5N)C4)c3C)ccc2CC1C(=O)NC1CCCc2ccccc21)C(C)(C)C

> <Shape>
0.217

> <Color>
0.062

> <Negative vol penalty>
0.000

$$$$

  -OEChem-04052317043D

 85 93  0     1  0  0  0  0  0999 V2000
  -29.3556  -36.3454   20.5194 C   0  0  0  0  0  0  0  0  0  0  0  0
  -29.5080  -34.9631   20.4812 C   0  0  0  0  0  0  0  0  0  0  0  0
  -22.7791  -10.6392   19.9542 C   0  0  0  0  0  0  0  0  0  0  0  0
  -23.8684   -9.7449   21.9166 C   0  0  0  0  0  0  0  0  0  0  0  0
  -28.2855  -36.9087   21.2133 C   0  0  0  0  0  0  0  0  0  0  0  0
  -28.5908  -34.1433   21.1378 C   0  0  0  0  0  0  0  0  0  0  0  0
  -26.6588  -28.6129   19.3521 C   0  0  0  0  0  0  0  0  0  0  0  0
  -21.8931   -9.5619   19.9551 C   0  0  0  0  0  0  0  0  0  0  0  0
  -22.9822   -8.6677   21.9175 C   0  0  0  0  0  0  0  0  0  0  0  0
  -27.0341  -27.3229   19.7246 C   0  0  0  0  0  0  0  0  0  0  0  0
  -22.6035   -5.7519   20.2484 C   0  0  0  0  0  0  0  0  0  0  0  0
  -23.1335   -4.4770   20.4471 C   0  0  0  0  0  0  0  0  0  0  0  0
  -25.2072  -27.2524   21.2984 C   0  0  0  0  0  0  0  0  0  0  0  0
  -21.7676   -4.2171   22.4230 C   0  0  0  0  0  0  0  0  0  0  0  0
  -27.8743  -21.1730   20.5832 C   0  0  0  0  0  0  0  0  0  0  0  0
  -23.7668  -10.7306   20.9349 C   0  0  0  0  0  0  0  0  0  0  0  0
  -24.5198  -13.0788   21.5881 C   0  0  0  0  0  0  0  0  0  0  0  0
  -27.3493  -36.0950   21.8705 C   0  0  0  0  0  0  0  0  0  0  0  0
  -25.5596  -29.2376   19.9588 C   0  0  0  0  0  0  0  0  0  0  0  0
  -27.5078  -34.6963   21.8421 C   0  0  0  0  0  0  0  0  0  0  0  0
  -24.8185  -28.5494   20.9300 C   0  0  0  0  0  0  0  0  0  0  0  0
  -21.9946   -8.5762   20.9367 C   0  0  0  0  0  0  0  0  0  0  0  0
  -26.3100  -26.6435   20.6999 C   0  0  0  0  0  0  0  0  0  0  0  0
  -21.6557   -6.2595   21.1371 C   0  0  0  0  0  0  0  0  0  0  0  0
  -22.7155   -3.7096   21.5343 C   0  0  0  0  0  0  0  0  0  0  0  0
  -21.2377   -5.4921   22.2243 C   0  0  0  0  0  0  0  0  0  0  0  0
  -24.6828  -11.8429   20.9342 C   0  0  0  0  0  0  0  0  0  0  0  0
  -28.4188  -20.9465   21.8281 C   0  0  0  0  0  0  0  0  0  0  0  0
  -28.5746  -23.2023   22.1703 C   0  0  0  0  0  0  0  0  0  0  0  0
  -28.0308  -23.4287   20.9251 C   0  0  0  0  0  0  0  0  0  0  0  0
  -25.6574  -13.7836   21.2789 C   0  0  0  0  0  0  0  0  0  0  0  0
  -23.4369  -13.5479   22.4024 C   0  0  0  0  0  0  0  0  0  0  0  0
  -25.1578  -31.8472   21.7287 C   0  0  0  0  0  0  0  0  0  0  0  0
  -22.0157  -31.1075   21.4086 C   0  0  0  0  0  0  0  0  0  0  0  0
  -19.6459  -28.7231   20.8209 C   0  0  0  0  0  0  0  0  0  0  0  0
  -31.1987  -14.0589   20.6759 C   0  0  0  0  0  0  0  0  0  0  0  0
  -26.2355  -36.7515   22.6472 C   0  0  0  0  0  0  0  0  0  0  0  0
  -25.1516  -30.6194   19.5268 C   0  0  0  0  0  0  0  0  0  0  0  0
  -23.6181  -29.1679   21.5972 C   0  0  0  0  0  0  0  0  0  0  0  0
  -25.0968  -35.7989   23.0024 C   0  0  0  0  0  0  0  0  0  0  0  0
  -29.3148  -12.8220   17.9195 C   0  0  0  0  0  0  0  0  0  0  0  0
  -25.6493  -34.4908   23.5595 C   0  0  0  0  0  0  0  0  0  0  0  0
  -27.9310  -12.5533   18.5134 C   0  0  0  0  0  0  0  0  0  0  0  0
  -30.4281  -12.4981   18.9134 C   0  0  0  0  0  0  0  0  0  0  0  0
  -28.9155  -12.8915   20.8189 C   0  0  0  0  0  0  0  0  0  0  0  0
  -26.5198  -33.7728   22.5211 C   0  0  1  0  0  0  0  0  0  0  0  0
  -24.3263  -31.3548   20.5781 C   0  0  1  0  0  0  0  0  0  0  0  0
  -27.7583  -13.2563   19.8733 C   0  0  2  0  0  0  0  0  0  0  0  0
  -29.8272  -23.8678   24.2378 C   0  0  0  0  0  0  0  0  0  0  0  0
  -17.1609  -28.4132   20.6599 C   0  0  0  0  0  0  0  0  0  0  0  0
  -21.8060  -31.2288   24.4502 C   0  0  0  0  0  0  0  0  0  0  0  0
  -19.6257  -30.0101   24.2788 C   0  0  0  0  0  0  0  0  0  0  0  0
  -19.8814  -32.2589   23.2299 C   0  0  0  0  0  0  0  0  0  0  0  0
  -19.8221  -27.8388   18.0021 C   0  0  0  0  0  0  0  0  0  0  0  0
  -28.6304  -19.5571   22.3185 C   0  0  0  0  0  0  0  0  0  0  0  0
  -28.9678  -24.3292   23.0632 C   0  0  0  0  0  0  0  0  0  0  0  0
  -27.8090  -24.8202   20.4094 C   0  0  0  0  0  0  0  0  0  1  0  0
  -30.0158  -19.0085   21.9404 C   0  0  0  0  0  0  0  0  0  0  0  0
  -30.2071  -17.5663   22.4142 C   0  0  0  0  0  0  0  0  0  0  0  0
  -31.6053  -17.0479   22.0650 C   0  0  0  0  0  0  0  0  0  0  0  0
  -31.8244  -15.6064   22.5125 C   0  0  0  0  0  0  0  0  0  0  0  0
  -21.0313  -30.2653   22.1835 C   0  0  1  0  0  0  0  0  0  0  0  0
  -18.4427  -28.7054   19.8955 C   0  0  2  0  0  0  0  0  0  0  0  0
  -20.6099  -30.9296   23.5246 C   0  0  0  0  0  0  0  0  0  0  0  0
  -27.6706  -22.4182   20.1093 N   0  0  0  0  0  0  0  0  0  0  0  0
  -25.8333  -11.7639   20.2602 N   0  0  0  0  0  0  0  0  0  0  0  0
  -28.7787  -21.9571   22.6440 N   0  0  0  0  0  0  0  0  0  0  0  0
  -26.4035  -12.9592   20.4890 N   0  0  0  0  0  0  0  0  0  0  0  0
  -23.2627  -30.5232   21.1451 N   0  0  0  0  0  0  0  0  0  0  0  0
  -30.2057  -13.1973   20.1813 N   0  0  0  0  0  0  0  0  0  0  0  0
  -26.0823  -15.0219   21.6082 N   0  0  0  0  0  0  0  0  0  0  0  0
  -22.3457  -12.6954   22.6187 N   0  0  0  0  0  0  0  0  0  0  0  0
  -25.6903  -33.1081   21.5390 N   0  0  0  0  0  0  0  0  0  0  0  0
  -19.9217  -29.9953   21.2757 N   0  0  0  0  0  0  0  0  0  0  0  0
  -30.9051  -14.6866   21.8803 N   0  0  0  0  0  0  0  0  0  0  0  0
  -18.6121  -27.6614   18.8456 N   0  3  0  0  0  0  0  0  0  0  0  0
  -23.4295  -14.6953   22.9093 O   0  0  0  0  0  0  0  0  0  0  0  0
  -25.3042  -31.1364   22.7161 O   0  0  0  0  0  0  0  0  0  0  0  0
  -21.6877  -32.2394   21.0441 O   0  0  0  0  0  0  0  0  0  0  0  0
  -20.2757  -27.7093   21.1142 O   0  0  0  0  0  0  0  0  0  0  0  0
  -32.2655  -14.2585   20.0850 O   0  0  0  0  0  0  0  0  0  0  0  0
  -21.1299   -7.5250   20.9381 O   0  0  0  0  0  0  0  0  0  0  0  0
  -26.6745  -25.3845   21.0658 O   0  0  0  0  0  0  0  0  0  1  0  0
  -23.2233   -2.4848   21.7241 F   0  0  0  0  0  0  0  0  0  0  0  0
  -20.3265   -5.9738   23.0807 F   0  0  0  0  0  0  0  0  0  0  0  0
  1  2  1  0  0  0  0
  1  5  2  0  0  0  0
  2  6  2  0  0  0  0
  3  8  2  0  0  0  0
  3 16  1  0  0  0  0
  4  9  1  0  0  0  0
  4 16  2  0  0  0  0
  5 18  1  0  0  0  0
  6 20  1  0  0  0  0
  7 10  2  0  0  0  0
  7 19  1  0  0  0  0
  8 22  1  0  0  0  0
  9 22  2  0  0  0  0
 10 23  1  0  0  0  0
 11 12  2  0  0  0  0
 11 24  1  0  0  0  0
 12 25  1  0  0  0  0
 13 21  1  0  0  0  0
 13 23  2  0  0  0  0
 14 25  2  0  0  0  0
 14 26  1  0  0  0  0
 15 28  1  0  0  0  0
 15 65  2  0  0  0  0
 16 27  1  0  0  0  0
 17 27  1  0  0  0  0
 17 31  2  0  0  0  0
 17 32  1  0  0  0  0
 18 20  2  0  0  0  0
 18 37  1  0  0  0  0
 19 21  2  0  0  0  0
 19 38  1  0  0  0  0
 20 46  1  0  0  0  0
 21 39  1  0  0  0  0
 22 82  1  0  0  0  0
 23 83  1  0  0  0  0
 24 26  2  0  0  0  0
 24 82  1  0  0  0  0
 25 84  1  0  0  0  0
 26 85  1  0  0  0  0
 27 66  2  0  0  0  0
 28 55  1  0  0  0  0
 28 67  2  0  0  0  0
 29 30  2  0  0  0  0
 29 56  1  0  0  0  0
 29 67  1  0  0  0  0
 30 57  1  0  0  0  0
 30 65  1  0  0  0  0
 31 68  1  0  0  0  0
 31 71  1  0  0  0  0
 32 72  1  0  0  0  0
 32 77  2  0  0  0  0
 33 47  1  0  0  0  0
 33 73  1  0  0  0  0
 33 78  2  0  0  0  0
 34 62  1  0  0  0  0
 34 69  1  0  0  0  0
 34 79  2  0  0  0  0
 35 63  1  0  0  0  0
 35 74  1  0  0  0  0
 35 80  2  0  0  0  0
 36 70  1  0  0  0  0
 36 75  1  0  0  0  0
 36 81  2  0  0  0  0
 37 40  1  0  0  0  0
 38 47  1  0  0  0  0
 39 69  1  0  0  0  0
 40 42  1  0  0  0  0
 41 43  1  0  0  0  0
 41 44  1  0  0  0  0
 42 46  1  0  0  0  0
 43 48  1  0  0  0  0
 44 70  1  0  0  0  0
 45 48  1  0  0  0  0
 45 70  1  0  0  0  0
 46 73  1  0  0  0  0
 47 69  1  0  0  0  0
 48 68  1  0  0  0  0
 49 56  1  0  0  0  0
 50 63  1  0  0  0  0
 51 64  1  0  0  0  0
 52 64  1  0  0  0  0
 53 64  1  0  0  0  0
 54 76  1  0  0  0  0
 55 58  1  0  0  0  0
 57 83  1  0  0  0  0
 58 59  1  0  0  0  0
 59 60  1  0  0  0  0
 60 61  1  0  0  0  0
 61 75  1  0  0  0  0
 62 64  1  0  0  0  0
 62 74  1  0  0  0  0
 63 76  1  0  0  0  0
 66 68  1  0  0  0  0
M  CHG  1  76   1
M  ISO  4  36 100  57 101  75 100  83 101
M  END
> <Batch ID>
0039

> <Smiles>
CCc1nc(CCCCC[100NH:0][100C:0](=O)N2CCCC(n3nc(-c4ccc(Oc5ccc(F)cc5F)cc4)c(C(N)=O)c3N)C2)cnc1[101CH2:1][101O:1]c1ccc2c(c1)CN(C(=O)C(NC(=O)C(C)NC)C(C)(C)C)C(C(=O)NC1CCCc3ccccc31)C2

> <Shape>
0.331

> <Color>
0.140

> <Negative vol penalty>
0.000

$$$$

  -OEChem-04052317043D

 83 91  0     1  0  0  0  0  0999 V2000
  -17.3292  -25.7648   21.2670 C   0  0  0  0  0  0  0  0  0  0  0  0
  -18.6385  -25.3660   21.0182 C   0  0  0  0  0  0  0  0  0  0  0  0
  -24.6805  -14.0427   24.1470 C   0  0  0  0  0  0  0  0  0  0  0  0
  -24.0877  -15.8739   22.6867 C   0  0  0  0  0  0  0  0  0  0  0  0
  -17.0804  -26.9857   21.8927 C   0  0  0  0  0  0  0  0  0  0  0  0
  -19.7000  -26.1885   21.3940 C   0  0  0  0  0  0  0  0  0  0  0  0
  -23.4387  -23.6256   23.6520 C   0  0  0  0  0  0  0  0  0  0  0  0
  -24.2375  -14.7766   25.2472 C   0  0  0  0  0  0  0  0  0  0  0  0
  -23.6446  -16.6078   23.7870 C   0  0  0  0  0  0  0  0  0  0  0  0
  -24.3006  -22.9008   22.8302 C   0  0  0  0  0  0  0  0  0  0  0  0
  -25.0160  -18.4441   26.2726 C   0  0  0  0  0  0  0  0  0  0  0  0
  -25.3972  -19.7833   26.3543 C   0  0  0  0  0  0  0  0  0  0  0  0
  -25.9266  -24.6765   22.9798 C   0  0  0  0  0  0  0  0  0  0  0  0
  -23.0739  -20.4459   26.3329 C   0  0  0  0  0  0  0  0  0  0  0  0
  -24.6057  -14.5913   22.8667 C   0  0  0  0  0  0  0  0  0  0  0  0
  -24.3064  -12.9540   20.9335 C   0  0  0  0  0  0  0  0  0  0  0  0
  -18.1397  -27.8192   22.2850 C   0  0  0  0  0  0  0  0  0  0  0  0
  -23.8104  -24.8882   24.1359 C   0  0  0  0  0  0  0  0  0  0  0  0
  -19.4652  -27.4224   22.0242 C   0  0  0  0  0  0  0  0  0  0  0  0
  -25.0686  -25.4141   23.8097 C   0  0  0  0  0  0  0  0  0  0  0  0
  -23.7195  -16.0592   25.0673 C   0  0  0  0  0  0  0  0  0  0  0  0
  -25.5436  -23.4275   22.4915 C   0  0  0  0  0  0  0  0  0  0  0  0
  -23.6637  -18.1057   26.2210 C   0  0  0  0  0  0  0  0  0  0  0  0
  -24.4261  -20.7842   26.3845 C   0  0  0  0  0  0  0  0  0  0  0  0
  -22.6927  -19.1066   26.2511 C   0  0  0  0  0  0  0  0  0  0  0  0
  -25.0637  -13.8339   21.7298 C   0  0  0  0  0  0  0  0  0  0  0  0
  -29.6374  -20.5392   20.1628 C   0  0  0  0  0  0  0  0  0  0  0  0
  -29.7428  -20.8499   18.8313 C   0  0  0  0  0  0  0  0  0  0  0  0
  -25.1940  -12.4921   19.9926 C   0  0  0  0  0  0  0  0  0  0  0  0
  -28.4118  -22.4109   20.4699 C   0  0  0  0  0  0  0  0  0  0  0  0
  -22.9241  -12.5870   21.0352 C   0  0  0  0  0  0  0  0  0  0  0  0
  -22.6699  -27.8379   23.8160 C   0  0  0  0  0  0  0  0  0  0  0  0
  -24.9534  -28.5404   26.0101 C   0  0  0  0  0  0  0  0  0  0  0  0
  -27.9254  -27.7082   27.4667 C   0  0  0  0  0  0  0  0  0  0  0  0
  -30.2477  -14.7435   17.7030 C   0  0  0  0  0  0  0  0  0  0  0  0
  -17.8200  -29.1514   22.9156 C   0  0  0  0  0  0  0  0  0  0  0  0
  -22.8801  -25.6456   25.0432 C   0  0  0  0  0  0  0  0  0  0  0  0
  -25.5235  -26.7563   24.3197 C   0  0  0  0  0  0  0  0  0  0  0  0
  -19.0123  -29.7937   23.6200 C   0  0  0  0  0  0  0  0  0  0  0  0
  -29.8534  -11.6135   19.3535 C   0  0  0  0  0  0  0  0  0  0  0  0
  -20.2533  -29.7286   22.7355 C   0  0  0  0  0  0  0  0  0  0  0  0
  -28.5128  -11.7482   20.0778 C   0  0  0  0  0  0  0  0  0  0  0  0
  -30.6266  -12.9304   19.3478 C   0  0  0  0  0  0  0  0  0  0  0  0
  -28.5365  -14.2211   19.5456 C   0  0  0  0  0  0  0  0  0  0  0  0
  -20.6441  -28.2756   22.4393 C   0  0  1  0  0  0  0  0  0  0  0  0
  -23.1523  -27.1466   25.0598 C   0  0  1  0  0  0  0  0  0  0  0  0
  -27.6955  -12.9332   19.5289 C   0  0  2  0  0  0  0  0  0  0  0  0
  -30.2691  -19.3131   20.7274 C   0  0  0  0  0  0  0  0  0  0  0  0
  -29.5561  -28.4949   29.2043 C   0  0  0  0  0  0  0  0  0  0  0  0
  -25.9641  -30.6835   24.0878 C   0  0  0  0  0  0  0  0  0  0  0  0
  -28.0906  -30.7649   25.4067 C   0  0  0  0  0  0  0  0  0  0  0  0
  -25.9280  -31.3717   26.4919 C   0  0  0  0  0  0  0  0  0  0  0  0
  -27.5746  -25.2494   29.0761 C   0  0  0  0  0  0  0  0  0  0  0  0
  -30.4891  -19.9880   17.8745 C   0  0  0  0  0  0  0  0  0  0  0  0
  -27.6447  -23.3222   21.3823 C   0  0  0  0  0  0  0  0  0  1  0  0
  -29.6937  -18.7343   17.4739 C   0  0  0  0  0  0  0  0  0  0  0  0
  -30.4874  -17.8373   16.5194 C   0  0  0  0  0  0  0  0  0  0  0  0
  -29.7198  -16.5811   16.1206 C   0  0  0  0  0  0  0  0  0  0  0  0
  -26.4054  -28.9490   25.9487 C   0  0  1  0  0  0  0  0  0  0  0  0
  -28.3437  -27.6209   28.9233 C   0  0  2  0  0  0  0  0  0  0  0  0
  -26.5880  -30.4178   25.4724 C   0  0  0  0  0  0  0  0  0  0  0  0
  -26.3346  -13.9270   21.3297 N   0  0  0  0  0  0  0  0  0  0  0  0
  -28.9633  -21.3194   21.0211 N   0  0  0  0  0  0  0  0  0  0  0  0
  -29.1676  -21.9602   18.3349 N   0  0  0  0  0  0  0  0  0  0  0  0
  -28.4824  -22.7665   19.1720 N   0  0  0  0  0  0  0  0  0  0  0  0
  -26.3828  -13.0996   20.2718 N   0  0  0  0  0  0  0  0  0  0  0  0
  -24.5757  -27.4613   25.1984 N   0  0  0  0  0  0  0  0  0  0  0  0
  -29.7961  -14.0127   18.8143 N   0  0  0  0  0  0  0  0  0  0  0  0
  -25.0658  -11.6297   18.9620 N   0  0  0  0  0  0  0  0  0  0  0  0
  -22.1558  -13.1549   22.0606 N   0  0  0  0  0  0  0  0  0  0  0  0
  -21.3164  -27.6906   23.5795 N   0  0  0  0  0  0  0  0  0  0  0  0
  -26.9627  -28.6753   27.2689 N   0  0  0  0  0  0  0  0  0  0  0  0
  -29.3968  -15.7475   17.2572 N   0  0  0  0  0  0  0  0  0  0  0  0
  -28.6850  -26.2149   29.2809 N   0  3  0  0  0  0  0  0  0  0  0  0
  -22.3904  -11.7668   20.2504 O   0  0  0  0  0  0  0  0  0  0  0  0
  -23.4663  -28.4600   23.1230 O   0  0  0  0  0  0  0  0  0  0  0  0
  -24.1843  -29.1513   26.7564 O   0  0  0  0  0  0  0  0  0  0  0  0
  -28.4074  -26.9929   26.5912 O   0  0  0  0  0  0  0  0  0  0  0  0
  -31.3266  -14.5145   17.1459 O   0  0  0  0  0  0  0  0  0  0  0  0
  -23.2869  -16.7756   26.1407 O   0  0  0  0  0  0  0  0  0  0  0  0
  -26.3867  -22.7224   21.6890 O   0  0  0  0  0  0  0  0  0  1  0  0
  -24.7923  -22.0702   26.4645 F   0  0  0  0  0  0  0  0  0  0  0  0
  -21.3920  -18.7876   26.2030 F   0  0  0  0  0  0  0  0  0  0  0  0
  1  2  1  0  0  0  0
  1  5  2  0  0  0  0
  2  6  2  0  0  0  0
  3  8  2  0  0  0  0
  3 15  1  0  0  0  0
  4  9  1  0  0  0  0
  4 15  2  0  0  0  0
  5 17  1  0  0  0  0
  6 19  1  0  0  0  0
  7 10  2  0  0  0  0
  7 18  1  0  0  0  0
  8 21  1  0  0  0  0
  9 21  2  0  0  0  0
 10 22  1  0  0  0  0
 11 12  2  0  0  0  0
 11 23  1  0  0  0  0
 12 24  1  0  0  0  0
 13 20  1  0  0  0  0
 13 22  2  0  0  0  0
 14 24  2  0  0  0  0
 14 25  1  0  0  0  0
 15 26  1  0  0  0  0
 16 26  1  0  0  0  0
 16 29  2  0  0  0  0
 16 31  1  0  0  0  0
 17 19  2  0  0  0  0
 17 36  1  0  0  0  0
 18 20  2  0  0  0  0
 18 37  1  0  0  0  0
 19 45  1  0  0  0  0
 20 38  1  0  0  0  0
 21 80  1  0  0  0  0
 22 81  1  0  0  0  0
 23 25  2  0  0  0  0
 23 80  1  0  0  0  0
 24 82  1  0  0  0  0
 25 83  1  0  0  0  0
 26 62  2  0  0  0  0
 27 28  2  0  0  0  0
 27 48  1  0  0  0  0
 27 63  1  0  0  0  0
 28 54  1  0  0  0  0
 28 64  1  0  0  0  0
 29 66  1  0  0  0  0
 29 69  1  0  0  0  0
 30 55  1  0  0  0  0
 30 63  2  0  0  0  0
 30 65  1  0  0  0  0
 31 70  1  0  0  0  0
 31 75  2  0  0  0  0
 32 46  1  0  0  0  0
 32 71  1  0  0  0  0
 32 76  2  0  0  0  0
 33 59  1  0  0  0  0
 33 67  1  0  0  0  0
 33 77  2  0  0  0  0
 34 60  1  0  0  0  0
 34 72  1  0  0  0  0
 34 78  2  0  0  0  0
 35 68  1  0  0  0  0
 35 73  1  0  0  0  0
 35 79  2  0  0  0  0
 36 39  1  0  0  0  0
 37 46  1  0  0  0  0
 38 67  1  0  0  0  0
 39 41  1  0  0  0  0
 40 42  1  0  0  0  0
 40 43  1  0  0  0  0
 41 45  1  0  0  0  0
 42 47  1  0  0  0  0
 43 68  1  0  0  0  0
 44 47  1  0  0  0  0
 44 68  1  0  0  0  0
 45 71  1  0  0  0  0
 46 67  1  0  0  0  0
 47 66  1  0  0  0  0
 49 60  1  0  0  0  0
 50 61  1  0  0  0  0
 51 61  1  0  0  0  0
 52 61  1  0  0  0  0
 53 74  1  0  0  0  0
 54 56  1  0  0  0  0
 55 81  1  0  0  0  0
 56 57  1  0  0  0  0
 57 58  1  0  0  0  0
 58 73  1  0  0  0  0
 59 61  1  0  0  0  0
 59 72  1  0  0  0  0
 60 74  1  0  0  0  0
 62 66  1  0  0  0  0
 64 65  2  0  0  0  0
M  CHG  1  74   1
M  ISO  4  35 100  55 101  73 100  81 101
M  END
> <Batch ID>
0039

> <Smiles>
CNC(C)C(=O)NC(C(=O)N1Cc2cc([101O:1][101CH2:1]c3nnc(CCCC[100NH:0][100C:0](=O)N4CCCC(n5nc(-c6ccc(Oc7ccc(F)cc7F)cc6)c(C(N)=O)c5N)C4)c(C)n3)ccc2CC1C(=O)NC1CCCc2ccccc21)C(C)(C)C

> <Shape>
0.210

> <Color>
0.107

> <Negative vol penalty>
0.000

$$$$

  -OEChem-04052317043D

 88 96  0     1  0  0  0  0  0999 V2000
  -15.6261  -27.4231   25.5939 C   0  0  0  0  0  0  0  0  0  0  0  0
  -16.6172  -26.6118   25.0509 C   0  0  0  0  0  0  0  0  0  0  0  0
  -29.6379  -20.9829   20.0967 C   0  0  0  0  0  0  0  0  0  0  0  0
  -31.1057  -19.7956   18.5891 C   0  0  0  0  0  0  0  0  0  0  0  0
  -15.6156  -28.7894   25.3164 C   0  0  0  0  0  0  0  0  0  0  0  0
  -17.5979  -27.1662   24.2291 C   0  0  0  0  0  0  0  0  0  0  0  0
  -22.2444  -25.4923   25.3484 C   0  0  0  0  0  0  0  0  0  0  0  0
  -29.6859  -22.1004   19.2633 C   0  0  0  0  0  0  0  0  0  0  0  0
  -31.1537  -20.9131   17.7557 C   0  0  0  0  0  0  0  0  0  0  0  0
  -22.5905  -24.2214   24.8917 C   0  0  0  0  0  0  0  0  0  0  0  0
  -31.8214  -24.6415   18.6255 C   0  0  0  0  0  0  0  0  0  0  0  0
  -32.0072  -25.8877   19.2238 C   0  0  0  0  0  0  0  0  0  0  0  0
  -23.7935  -25.2164   23.0526 C   0  0  0  0  0  0  0  0  0  0  0  0
  -25.6491  -20.5856   22.4958 C   0  0  0  0  0  0  0  0  0  0  0  0
  -24.0455  -20.7457   20.7105 C   0  0  0  0  0  0  0  0  0  0  0  0
  -29.8981  -26.6384   18.3154 C   0  0  0  0  0  0  0  0  0  0  0  0
  -30.3479  -19.8305   19.7596 C   0  0  0  0  0  0  0  0  0  0  0  0
  -30.7009  -18.6025   21.9675 C   0  0  0  0  0  0  0  0  0  0  0  0
  -16.6023  -29.3625   24.4987 C   0  0  0  0  0  0  0  0  0  0  0  0
  -22.6618  -26.6365   24.6534 C   0  0  0  0  0  0  0  0  0  0  0  0
  -17.5999  -28.5413   23.9394 C   0  0  0  0  0  0  0  0  0  0  0  0
  -23.4535  -26.5008   23.5041 C   0  0  0  0  0  0  0  0  0  0  0  0
  -24.7356  -21.3357   21.7637 C   0  0  0  0  0  0  0  0  0  0  0  0
  -30.4437  -22.0655   18.0928 C   0  0  0  0  0  0  0  0  0  0  0  0
  -23.3627  -24.0831   23.7420 C   0  0  0  0  0  0  0  0  0  0  0  0
  -30.6740  -24.3937   17.8720 C   0  0  0  0  0  0  0  0  0  0  0  0
  -31.0456  -26.8861   19.0688 C   0  0  0  0  0  0  0  0  0  0  0  0
  -29.7123  -25.3921   17.7170 C   0  0  0  0  0  0  0  0  0  0  0  0
  -30.2992  -18.6760   20.6203 C   0  0  0  0  0  0  0  0  0  0  0  0
  -25.8350  -19.2601   22.1376 C   0  0  0  0  0  0  0  0  0  0  0  0
  -24.3033  -19.4131   20.4321 C   0  0  0  0  0  0  0  0  0  0  0  0
  -30.4548  -17.3004   22.3287 C   0  0  0  0  0  0  0  0  0  0  0  0
  -31.2476  -19.6203   22.8166 C   0  0  0  0  0  0  0  0  0  0  0  0
  -21.1798  -29.0186   23.1591 C   0  0  0  0  0  0  0  0  0  0  0  0
  -24.1874  -30.2042   22.8921 C   0  0  0  0  0  0  0  0  0  0  0  0
  -27.5449  -29.5971   22.8172 C   0  0  0  0  0  0  0  0  0  0  0  0
  -26.6633  -13.1463   20.2746 C   0  0  0  0  0  0  0  0  0  0  0  0
  -16.5223  -30.8364   24.1889 C   0  0  0  0  0  0  0  0  0  0  0  0
  -22.3026  -28.0011   25.1741 C   0  0  0  0  0  0  0  0  0  0  0  0
  -23.9441  -27.6980   22.7331 C   0  0  0  0  0  0  0  0  0  0  0  0
  -17.8147  -31.4086   23.6122 C   0  0  0  0  0  0  0  0  0  0  0  0
  -30.2076  -12.8886   20.4940 C   0  0  0  0  0  0  0  0  0  0  0  0
  -18.3569  -30.5005   22.5131 C   0  0  0  0  0  0  0  0  0  0  0  0
  -30.6692  -14.3360   20.6728 C   0  0  0  0  0  0  0  0  0  0  0  0
  -29.0070  -12.7910   19.5554 C   0  0  0  0  0  0  0  0  0  0  0  0
  -28.3258  -15.0962   20.0993 C   0  0  0  0  0  0  0  0  0  0  0  0
  -18.6952  -29.1097   23.0635 C   0  0  1  0  0  0  0  0  0  0  0  0
  -22.3504  -29.0825   24.0990 C   0  0  1  0  0  0  0  0  0  0  0  0
  -29.4994  -15.2512   21.0816 C   0  0  2  0  0  0  0  0  0  0  0  0
  -26.4986  -16.2251   26.0963 C   0  0  0  0  0  0  0  0  0  0  0  0
  -29.7517  -30.7611   22.5478 C   0  0  0  0  0  0  0  0  0  0  0  0
  -23.6929  -30.4418   19.8906 C   0  0  0  0  0  0  0  0  0  0  0  0
  -26.1644  -30.6858   19.5733 C   0  0  0  0  0  0  0  0  0  0  0  0
  -24.9064  -32.3793   20.9046 C   0  0  0  0  0  0  0  0  0  0  0  0
  -28.4495  -28.7536   25.5059 C   0  0  0  0  0  0  0  0  0  0  0  0
  -24.4945  -22.7757   22.1093 C   0  0  0  0  0  0  0  0  0  1  0  0
  -26.8064  -18.4243   22.9021 C   0  0  0  0  0  0  0  0  0  0  0  0
  -23.5821  -18.7483   19.3075 C   0  0  0  0  0  0  0  0  0  0  0  0
  -27.1525  -16.8915   24.8964 C   0  0  0  0  0  0  0  0  0  0  0  0
  -26.1445  -17.7145   24.0941 C   0  0  0  0  0  0  0  0  0  0  0  0
  -22.2540  -18.0823   19.7102 C   0  0  0  0  0  0  0  0  0  0  0  0
  -22.4255  -17.0370   20.8169 C   0  0  0  0  0  0  0  0  0  0  0  0
  -23.3478  -15.9006   20.3681 C   0  0  0  0  0  0  0  0  0  0  0  0
  -23.4877  -14.8360   21.4601 C   0  0  0  0  0  0  0  0  0  0  0  0
  -24.3533  -13.6587   21.0233 C   0  0  0  0  0  0  0  0  0  0  0  0
  -25.2996  -30.0797   21.8790 C   0  0  1  0  0  0  0  0  0  0  0  0
  -28.7054  -30.2642   23.5332 C   0  0  2  0  0  0  0  0  0  0  0  0
  -25.0051  -30.8738   20.5751 C   0  0  0  0  0  0  0  0  0  0  0  0
  -29.8334  -17.5131   20.1570 N   0  0  0  0  0  0  0  0  0  0  0  0
  -25.1833  -18.6523   21.1210 N   0  0  0  0  0  0  0  0  0  0  0  0
  -29.9410  -16.6965   21.2189 N   0  0  0  0  0  0  0  0  0  0  0  0
  -23.5612  -29.0108   23.2786 N   0  0  0  0  0  0  0  0  0  0  0  0
  -27.9324  -13.6819   19.9997 N   0  0  0  0  0  0  0  0  0  0  0  0
  -30.6301  -16.6245   23.4840 N   0  0  0  0  0  0  0  0  0  0  0  0
  -32.6393  -19.7810   22.8561 N   0  0  0  0  0  0  0  0  0  0  0  0
  -19.9518  -29.1419   23.7806 N   0  0  0  0  0  0  0  0  0  0  0  0
  -26.5223  -30.4865   22.5630 N   0  0  0  0  0  0  0  0  0  0  0  0
  -25.7039  -14.0586   20.6965 N   0  0  0  0  0  0  0  0  0  0  0  0
  -29.3582  -29.3042   24.4676 N   0  3  0  0  0  0  0  0  0  0  0  0
  -30.5243  -20.3542   23.5319 O   0  0  0  0  0  0  0  0  0  0  0  0
  -21.3763  -28.8700   21.9587 O   0  0  0  0  0  0  0  0  0  0  0  0
  -23.8902  -31.3185   23.3300 O   0  0  0  0  0  0  0  0  0  0  0  0
  -27.5469  -28.4069   22.5104 O   0  0  0  0  0  0  0  0  0  0  0  0
  -26.4059  -11.9434   20.1581 O   0  0  0  0  0  0  0  0  0  0  0  0
  -30.4906  -23.1557   17.2793 O   0  0  0  0  0  0  0  0  0  0  0  0
  -23.7014  -22.8437   23.2937 O   0  0  0  0  0  0  0  0  0  1  0  0
  -31.2234  -28.0823   19.6447 F   0  0  0  0  0  0  0  0  0  0  0  0
  -28.6074  -25.1596   16.9953 F   0  0  0  0  0  0  0  0  0  0  0  0
  1  2  1  0  0  0  0
  1  5  2  0  0  0  0
  2  6  2  0  0  0  0
  3  8  2  0  0  0  0
  3 17  1  0  0  0  0
  4  9  1  0  0  0  0
  4 17  2  0  0  0  0
  5 19  1  0  0  0  0
  6 21  1  0  0  0  0
  7 10  2  0  0  0  0
  7 20  1  0  0  0  0
  8 24  1  0  0  0  0
  9 24  2  0  0  0  0
 10 25  1  0  0  0  0
 11 12  2  0  0  0  0
 11 26  1  0  0  0  0
 12 27  1  0  0  0  0
 13 22  1  0  0  0  0
 13 25  2  0  0  0  0
 14 23  2  0  0  0  0
 14 30  1  0  0  0  0
 15 23  1  0  0  0  0
 15 31  2  0  0  0  0
 16 27  2  0  0  0  0
 16 28  1  0  0  0  0
 17 29  1  0  0  0  0
 18 29  1  0  0  0  0
 18 32  2  0  0  0  0
 18 33  1  0  0  0  0
 19 21  2  0  0  0  0
 19 38  1  0  0  0  0
 20 22  2  0  0  0  0
 20 39  1  0  0  0  0
 21 47  1  0  0  0  0
 22 40  1  0  0  0  0
 23 56  1  0  0  0  0
 24 85  1  0  0  0  0
 25 86  1  0  0  0  0
 26 28  2  0  0  0  0
 26 85  1  0  0  0  0
 27 87  1  0  0  0  0
 28 88  1  0  0  0  0
 29 69  2  0  0  0  0
 30 57  1  0  0  0  0
 30 70  2  0  0  0  0
 31 58  1  0  0  0  0
 31 70  1  0  0  0  0
 32 71  1  0  0  0  0
 32 74  1  0  0  0  0
 33 75  1  0  0  0  0
 33 80  2  0  0  0  0
 34 48  1  0  0  0  0
 34 76  1  0  0  0  0
 34 81  2  0  0  0  0
 35 66  1  0  0  0  0
 35 72  1  0  0  0  0
 35 82  2  0  0  0  0
 36 67  1  0  0  0  0
 36 77  1  0  0  0  0
 36 83  2  0  0  0  0
 37 73  1  0  0  0  0
 37 78  1  0  0  0  0
 37 84  2  0  0  0  0
 38 41  1  0  0  0  0
 39 48  1  0  0  0  0
 40 72  1  0  0  0  0
 41 43  1  0  0  0  0
 42 44  1  0  0  0  0
 42 45  1  0  0  0  0
 43 47  1  0  0  0  0
 44 49  1  0  0  0  0
 45 73  1  0  0  0  0
 46 49  1  0  0  0  0
 46 73  1  0  0  0  0
 47 76  1  0  0  0  0
 48 72  1  0  0  0  0
 49 71  1  0  0  0  0
 50 59  1  0  0  0  0
 51 67  1  0  0  0  0
 52 68  1  0  0  0  0
 53 68  1  0  0  0  0
 54 68  1  0  0  0  0
 55 79  1  0  0  0  0
 56 86  1  0  0  0  0
 57 60  1  0  0  0  0
 58 61  1  0  0  0  0
 59 60  1  0  0  0  0
 61 62  1  0  0  0  0
 62 63  1  0  0  0  0
 63 64  1  0  0  0  0
 64 65  1  0  0  0  0
 65 78  1  0  0  0  0
 66 68  1  0  0  0  0
 66 77  1  0  0  0  0
 67 79  1  0  0  0  0
 69 71  1  0  0  0  0
M  CHG  1  79   1
M  ISO  4  37 100  56 101  78 100  86 101
M  END
> <Batch ID>
0039

> <Smiles>
CCCCc1cc([101CH2:1][101O:1]c2ccc3c(c2)CN(C(=O)C(NC(=O)C(C)NC)C(C)(C)C)C(C(=O)NC2CCCc4ccccc42)C3)cc(CCCCCC[100NH:0][100C:0](=O)N2CCCC(n3nc(-c4ccc(Oc5ccc(F)cc5F)cc4)c(C(N)=O)c3N)C2)n1

> <Shape>
0.261

> <Color>
0.051

> <Negative vol penalty>
0.000

$$$$

  -OEChem-04052317043D

 87 95  0     1  0  0  0  0  0999 V2000
  -17.0352  -30.1367   23.3902 C   0  0  0  0  0  0  0  0  0  0  0  0
  -18.2819  -30.7505   23.3237 C   0  0  0  0  0  0  0  0  0  0  0  0
  -26.1532  -18.6941   19.7071 C   0  0  0  0  0  0  0  0  0  0  0  0
  -27.5253  -17.9499   21.5512 C   0  0  0  0  0  0  0  0  0  0  0  0
  -16.9353  -28.7504   23.2807 C   0  0  0  0  0  0  0  0  0  0  0  0
  -19.4296  -29.9781   23.1489 C   0  0  0  0  0  0  0  0  0  0  0  0
  -25.9031  -30.2108   20.0900 C   0  0  0  0  0  0  0  0  0  0  0  0
  -25.5814  -17.4248   19.6202 C   0  0  0  0  0  0  0  0  0  0  0  0
  -26.9534  -16.6806   21.4644 C   0  0  0  0  0  0  0  0  0  0  0  0
  -27.2479  -30.0107   20.3985 C   0  0  0  0  0  0  0  0  0  0  0  0
  -23.2144  -15.6424   21.2490 C   0  0  0  0  0  0  0  0  0  0  0  0
  -21.8291  -15.5639   21.1058 C   0  0  0  0  0  0  0  0  0  0  0  0
  -26.9465  -27.6311   20.1422 C   0  0  0  0  0  0  0  0  0  0  0  0
  -33.3262  -27.5377   20.5850 C   0  0  0  0  0  0  0  0  0  0  0  0
  -31.3617  -26.7519   22.4031 C   0  0  0  0  0  0  0  0  0  0  0  0
  -22.1120  -14.4032   19.0058 C   0  0  0  0  0  0  0  0  0  0  0  0
  -27.1252  -18.9567   20.6725 C   0  0  0  0  0  0  0  0  0  0  0  0
  -27.2647  -21.3527   21.5368 C   0  0  0  0  0  0  0  0  0  0  0  0
  -18.0814  -27.9614   23.0948 C   0  0  0  0  0  0  0  0  0  0  0  0
  -25.0659  -29.1198   19.8155 C   0  0  0  0  0  0  0  0  0  0  0  0
  -19.3451  -28.5798   23.0382 C   0  0  0  0  0  0  0  0  0  0  0  0
  -25.5920  -27.8201   19.8280 C   0  0  0  0  0  0  0  0  0  0  0  0
  -33.6876  -27.1271   21.8681 C   0  0  0  0  0  0  0  0  0  0  0  0
  -31.9825  -27.5555   20.2109 C   0  0  0  0  0  0  0  0  0  0  0  0
  -32.7054  -26.7342   22.7771 C   0  0  0  0  0  0  0  0  0  0  0  0
  -31.0003  -27.1626   21.1199 C   0  0  0  0  0  0  0  0  0  0  0  0
  -25.9815  -16.4181   20.4989 C   0  0  0  0  0  0  0  0  0  0  0  0
  -27.7691  -28.7205   20.4274 C   0  0  0  0  0  0  0  0  0  0  0  0
  -24.0485  -15.1014   20.2706 C   0  0  0  0  0  0  0  0  0  0  0  0
  -21.2779  -14.9442   19.9842 C   0  0  0  0  0  0  0  0  0  0  0  0
  -23.4973  -14.4818   19.1490 C   0  0  0  0  0  0  0  0  0  0  0  0
  -27.7166  -20.2675   20.7623 C   0  0  0  0  0  0  0  0  0  0  0  0
  -28.1629  -22.3585   21.2756 C   0  0  0  0  0  0  0  0  0  0  0  0
  -26.1343  -21.4435   22.4140 C   0  0  0  0  0  0  0  0  0  0  0  0
  -22.4524  -27.9048   21.1562 C   0  0  0  0  0  0  0  0  0  0  0  0
  -22.5012  -25.9553   18.5640 C   0  0  0  0  0  0  0  0  0  0  0  0
  -24.3181  -24.4920   16.0732 C   0  0  0  0  0  0  0  0  0  0  0  0
  -33.8125  -22.2408   19.5660 C   0  0  0  0  0  0  0  0  0  0  0  0
  -17.9281  -26.4625   23.0291 C   0  0  0  0  0  0  0  0  0  0  0  0
  -23.6237  -29.3544   19.4583 C   0  0  0  0  0  0  0  0  0  0  0  0
  -24.7400  -26.6167   19.5209 C   0  0  0  0  0  0  0  0  0  0  0  0
  -19.1560  -25.7485   22.4700 C   0  0  0  0  0  0  0  0  0  0  0  0
  -31.1157  -23.9487   17.8609 C   0  0  0  0  0  0  0  0  0  0  0  0
  -20.4275  -26.2847   23.1201 C   0  0  0  0  0  0  0  0  0  0  0  0
  -29.8893  -23.2908   18.4961 C   0  0  0  0  0  0  0  0  0  0  0  0
  -32.2420  -22.9394   17.6587 C   0  0  0  0  0  0  0  0  0  0  0  0
  -31.4295  -21.5609   19.5330 C   0  0  0  0  0  0  0  0  0  0  0  0
  -20.6107  -27.7782   22.8244 C   0  0  1  0  0  0  0  0  0  0  0  0
  -22.7421  -28.1329   19.6996 C   0  0  1  0  0  0  0  0  0  0  0  0
  -30.2635  -22.5343   19.7844 C   0  0  2  0  0  0  0  0  0  0  0  0
  -31.6793  -29.5166   18.6783 C   0  0  0  0  0  0  0  0  0  0  0  0
  -32.7947  -27.3670   25.2016 C   0  0  0  0  0  0  0  0  0  0  0  0
  -24.0891  -22.9197   14.1308 C   0  0  0  0  0  0  0  0  0  0  0  0
  -22.3751  -23.5946   20.4930 C   0  0  0  0  0  0  0  0  0  0  0  0
  -23.0986  -22.1089   18.6123 C   0  0  0  0  0  0  0  0  0  0  0  0
  -20.9435  -23.3553   18.4565 C   0  0  0  0  0  0  0  0  0  0  0  0
  -25.1852  -26.5631   14.1450 C   0  0  0  0  0  0  0  0  0  0  0  0
  -31.6195  -27.9998   18.8320 C   0  0  0  0  0  0  0  0  0  0  0  0
  -33.0685  -26.2901   24.1560 C   0  0  0  0  0  0  0  0  0  0  0  0
  -35.1325  -27.1157   22.2457 C   0  0  0  0  0  0  0  0  0  0  0  0
  -29.5486  -27.1742   20.7405 C   0  0  0  0  0  0  0  0  0  1  0  0
  -35.7242  -25.6990   22.2305 C   0  0  0  0  0  0  0  0  0  0  0  0
  -35.6573  -25.0723   20.8361 C   0  0  0  0  0  0  0  0  0  0  0  0
  -36.2139  -23.6456   20.8413 C   0  0  0  0  0  0  0  0  0  0  0  0
  -36.1739  -22.9961   19.4619 C   0  0  0  0  0  0  0  0  0  0  0  0
  -23.1236  -24.6178   18.2438 C   0  0  1  0  0  0  0  0  0  0  0  0
  -24.0676  -24.3722   14.5807 C   0  0  2  0  0  0  0  0  0  0  0  0
  -22.4011  -23.4415   18.9591 C   0  0  0  0  0  0  0  0  0  0  0  0
  -28.8163  -20.5566   20.0615 N   0  0  0  0  0  0  0  0  0  0  0  0
  -29.0629  -21.8350   20.3945 N   0  0  0  0  0  0  0  0  0  0  0  0
  -23.3347  -26.8973   19.1835 N   0  0  0  0  0  0  0  0  0  0  0  0
  -32.5623  -22.2678   18.9261 N   0  0  0  0  0  0  0  0  0  0  0  0
  -28.2626  -23.6308   21.7157 N   0  0  0  0  0  0  0  0  0  0  0  0
  -25.3154  -20.3165   22.5674 N   0  0  0  0  0  0  0  0  0  0  0  0
  -21.1106  -27.9696   21.4798 N   0  0  0  0  0  0  0  0  0  0  0  0
  -23.1397  -24.5129   16.7888 N   0  0  0  0  0  0  0  0  0  0  0  0
  -34.8340  -22.9288   18.9224 N   0  0  0  0  0  0  0  0  0  0  0  0
  -25.1108  -25.1156   13.8191 N   0  3  0  0  0  0  0  0  0  0  0  0
  -25.8490  -22.4981   23.0304 O   0  0  0  0  0  0  0  0  0  0  0  0
  -23.3776  -27.6848   21.9290 O   0  0  0  0  0  0  0  0  0  0  0  0
  -21.3210  -26.1594   18.2687 O   0  0  0  0  0  0  0  0  0  0  0  0
  -25.4464  -24.5566   16.5561 O   0  0  0  0  0  0  0  0  0  0  0  0
  -34.0035  -21.6515   20.6353 O   0  0  0  0  0  0  0  0  0  0  0  0
  -25.4236  -15.1795   20.4146 O   0  0  0  0  0  0  0  0  0  0  0  0
  -29.0813  -28.5224   20.7289 O   0  0  0  0  0  0  0  0  0  1  0  0
  -19.9477  -14.8675   19.8476 F   0  0  0  0  0  0  0  0  0  0  0  0
  -24.2935  -13.9592   18.2063 F   0  0  0  0  0  0  0  0  0  0  0  0
  1  2  1  0  0  0  0
  1  5  2  0  0  0  0
  2  6  2  0  0  0  0
  3  8  2  0  0  0  0
  3 17  1  0  0  0  0
  4  9  1  0  0  0  0
  4 17  2  0  0  0  0
  5 19  1  0  0  0  0
  6 21  1  0  0  0  0
  7 10  2  0  0  0  0
  7 20  1  0  0  0  0
  8 27  1  0  0  0  0
  9 27  2  0  0  0  0
 10 28  1  0  0  0  0
 11 12  2  0  0  0  0
 11 29  1  0  0  0  0
 12 30  1  0  0  0  0
 13 22  1  0  0  0  0
 13 28  2  0  0  0  0
 14 23  1  0  0  0  0
 14 24  2  0  0  0  0
 15 25  1  0  0  0  0
 15 26  2  0  0  0  0
 16 30  2  0  0  0  0
 16 31  1  0  0  0  0
 17 32  1  0  0  0  0
 18 32  1  0  0  0  0
 18 33  2  0  0  0  0
 18 34  1  0  0  0  0
 19 21  2  0  0  0  0
 19 39  1  0  0  0  0
 20 22  2  0  0  0  0
 20 40  1  0  0  0  0
 21 48  1  0  0  0  0
 22 41  1  0  0  0  0
 23 25  2  0  0  0  0
 23 60  1  0  0  0  0
 24 26  1  0  0  0  0
 24 58  1  0  0  0  0
 25 59  1  0  0  0  0
 26 61  1  0  0  0  0
 27 84  1  0  0  0  0
 28 85  1  0  0  0  0
 29 31  2  0  0  0  0
 29 84  1  0  0  0  0
 30 86  1  0  0  0  0
 31 87  1  0  0  0  0
 32 69  2  0  0  0  0
 33 70  1  0  0  0  0
 33 73  1  0  0  0  0
 34 74  1  0  0  0  0
 34 79  2  0  0  0  0
 35 49  1  0  0  0  0
 35 75  1  0  0  0  0
 35 80  2  0  0  0  0
 36 66  1  0  0  0  0
 36 71  1  0  0  0  0
 36 81  2  0  0  0  0
 37 67  1  0  0  0  0
 37 76  1  0  0  0  0
 37 82  2  0  0  0  0
 38 72  1  0  0  0  0
 38 77  1  0  0  0  0
 38 83  2  0  0  0  0
 39 42  1  0  0  0  0
 40 49  1  0  0  0  0
 41 71  1  0  0  0  0
 42 44  1  0  0  0  0
 43 45  1  0  0  0  0
 43 46  1  0  0  0  0
 44 48  1  0  0  0  0
 45 50  1  0  0  0  0
 46 72  1  0  0  0  0
 47 50  1  0  0  0  0
 47 72  1  0  0  0  0
 48 75  1  0  0  0  0
 49 71  1  0  0  0  0
 50 70  1  0  0  0  0
 51 58  1  0  0  0  0
 52 59  1  0  0  0  0
 53 67  1  0  0  0  0
 54 68  1  0  0  0  0
 55 68  1  0  0  0  0
 56 68  1  0  0  0  0
 57 78  1  0  0  0  0
 60 62  1  0  0  0  0
 61 85  1  0  0  0  0
 62 63  1  0  0  0  0
 63 64  1  0  0  0  0
 64 65  1  0  0  0  0
 65 77  1  0  0  0  0
 66 68  1  0  0  0  0
 66 76  1  0  0  0  0
 67 78  1  0  0  0  0
 69 70  1  0  0  0  0
M  CHG  1  78   1
M  ISO  4  38 100  61 101  77 100  85 101
M  END
> <Batch ID>
0039

> <Smiles>
CCc1cc([101CH2:1][101O:1]c2ccc3c(c2)CN(C(=O)C(NC(=O)C(C)NC)C(C)(C)C)C(C(=O)NC2CCCc4ccccc42)C3)c(CC)cc1CCCCC[100NH:0][100C:0](=O)N1CCCC(n2nc(-c3ccc(Oc4ccc(F)cc4F)cc3)c(C(N)=O)c2N)C1

> <Shape>
0.208

> <Color>
0.074

> <Negative vol penalty>
0.000

$$$$

  -OEChem-04052317043D

 86 95  0     1  0  0  0  0  0999 V2000
  -19.7088  -31.5167   21.4974 C   0  0  0  0  0  0  0  0  0  0  0  0
  -21.0549  -31.1842   21.6102 C   0  0  0  0  0  0  0  0  0  0  0  0
  -26.5096  -12.2562   21.6873 C   0  0  0  0  0  0  0  0  0  0  0  0
  -25.4718  -13.8546   20.2024 C   0  0  0  0  0  0  0  0  0  0  0  0
  -18.7307  -30.5620   21.7728 C   0  0  0  0  0  0  0  0  0  0  0  0
  -21.4238  -29.8970   21.9995 C   0  0  0  0  0  0  0  0  0  0  0  0
  -25.1733  -28.0100   19.1667 C   0  0  0  0  0  0  0  0  0  0  0  0
  -25.3267  -11.5179   21.7195 C   0  0  0  0  0  0  0  0  0  0  0  0
  -24.2888  -13.1162   20.2344 C   0  0  0  0  0  0  0  0  0  0  0  0
  -26.4654  -28.4557   19.4418 C   0  0  0  0  0  0  0  0  0  0  0  0
  -22.6934   -9.0186   21.9050 C   0  0  0  0  0  0  0  0  0  0  0  0
  -22.7895   -7.6337   21.7697 C   0  0  0  0  0  0  0  0  0  0  0  0
  -26.8898  -26.4357   20.6904 C   0  0  0  0  0  0  0  0  0  0  0  0
  -29.8975  -28.0166   23.3555 C   0  0  0  0  0  0  0  0  0  0  0  0
  -23.8135   -7.9168   19.5999 C   0  0  0  0  0  0  0  0  0  0  0  0
  -28.8287  -30.0782   23.8694 C   0  0  0  0  0  0  0  0  0  0  0  0
  -26.5822  -13.4246   20.9288 C   0  0  0  0  0  0  0  0  0  0  0  0
  -28.8729  -14.0426   19.9916 C   0  0  0  0  0  0  0  0  0  0  0  0
  -19.0878  -29.2597   22.1564 C   0  0  0  0  0  0  0  0  0  0  0  0
  -24.7254  -26.7767   19.6613 C   0  0  0  0  0  0  0  0  0  0  0  0
  -20.4495  -28.9244   22.2816 C   0  0  0  0  0  0  0  0  0  0  0  0
  -25.5924  -25.9755   20.4180 C   0  0  0  0  0  0  0  0  0  0  0  0
  -29.5251  -29.2969   22.9614 C   0  0  0  0  0  0  0  0  0  0  0  0
  -29.5666  -27.5630   24.6275 C   0  0  0  0  0  0  0  0  0  0  0  0
  -24.2163  -11.9478   20.9930 C   0  0  0  0  0  0  0  0  0  0  0  0
  -27.3229  -27.6698   20.2062 C   0  0  0  0  0  0  0  0  0  0  0  0
  -23.1573   -9.8527   20.8877 C   0  0  0  0  0  0  0  0  0  0  0  0
  -23.3496   -7.0828   20.6172 C   0  0  0  0  0  0  0  0  0  0  0  0
  -23.7174   -9.3017   19.7352 C   0  0  0  0  0  0  0  0  0  0  0  0
  -27.8037  -14.1881   20.8957 C   0  0  0  0  0  0  0  0  0  0  0  0
  -28.8685  -28.4219   25.4610 C   0  0  0  0  0  0  0  0  0  0  0  0
  -29.7828  -14.9954   20.3797 C   0  0  0  0  0  0  0  0  0  0  0  0
  -29.0294  -13.1281   18.8985 C   0  0  0  0  0  0  0  0  0  0  0  0
  -22.4094  -25.8594   21.6357 C   0  0  0  0  0  0  0  0  0  0  0  0
  -29.0496  -20.1255   23.2814 C   0  0  0  0  0  0  0  0  0  0  0  0
  -23.3578  -22.8886   20.7429 C   0  0  0  0  0  0  0  0  0  0  0  0
  -25.8332  -20.8833   19.5188 C   0  0  0  0  0  0  0  0  0  0  0  0
  -17.9946  -28.2756   22.4895 C   0  0  0  0  0  0  0  0  0  0  0  0
  -23.3377  -26.2982   19.3332 C   0  0  0  0  0  0  0  0  0  0  0  0
  -25.1667  -24.6345   20.9553 C   0  0  0  0  0  0  0  0  0  0  0  0
  -18.4722  -26.8264   22.5332 C   0  0  0  0  0  0  0  0  0  0  0  0
  -31.2798  -17.4104   24.2204 C   0  0  0  0  0  0  0  0  0  0  0  0
  -19.7679  -26.7151   23.3305 C   0  0  0  0  0  0  0  0  0  0  0  0
  -27.2214  -27.1932   27.0267 C   0  0  0  0  0  0  0  0  0  0  0  0
  -27.3023  -28.6081   27.5082 C   0  0  0  0  0  0  0  0  0  0  0  0
  -30.7108  -16.2512   23.4033 C   0  0  0  0  0  0  0  0  0  0  0  0
  -30.1780  -18.3485   24.7064 C   0  0  0  0  0  0  0  0  0  0  0  0
  -28.7404  -17.7200   22.7925 C   0  0  0  0  0  0  0  0  0  0  0  0
  -20.8895  -27.5316   22.6771 C   0  0  1  0  0  0  0  0  0  0  0  0
  -28.4918  -27.9766   26.8373 C   0  0  0  0  0  0  0  0  0  0  0  0
  -22.8153  -25.2584   20.3198 C   0  0  1  0  0  0  0  0  0  0  0  0
  -29.8225  -16.7670   22.2577 C   0  0  2  0  0  0  0  0  0  0  0  0
  -26.3235  -18.4924   18.9349 C   0  0  0  0  0  0  0  0  0  0  0  0
  -23.6497  -22.2270   23.7072 C   0  0  0  0  0  0  0  0  0  0  0  0
  -25.0114  -20.2295   23.0559 C   0  0  0  0  0  0  0  0  0  0  0  0
  -22.6322  -20.4063   22.3272 C   0  0  0  0  0  0  0  0  0  0  0  0
  -26.3270  -21.5566   16.6795 C   0  0  0  0  0  0  0  0  0  0  0  0
  -29.8687  -29.8198   21.5878 C   0  0  0  0  0  0  0  0  0  0  0  0
  -29.9630  -26.1909   25.0525 C   0  0  0  0  0  0  0  0  0  0  0  0
  -29.6616  -21.1743   24.1755 C   0  0  0  0  0  0  0  0  0  0  0  0
  -29.4091  -25.0627   24.1624 C   0  0  0  0  0  0  0  0  0  0  0  0
  -29.2651  -22.5768   23.7247 C   0  0  0  0  0  0  0  0  0  0  0  0
  -29.8555  -23.6703   24.6213 C   0  0  0  0  0  0  0  0  0  0  0  0
  -28.7826  -29.5133   20.5623 C   0  0  0  0  0  0  0  0  0  1  0  0
  -24.3718  -21.8922   21.2511 C   0  0  1  0  0  0  0  0  0  0  0  0
  -25.8300  -19.8357   18.4202 C   0  0  2  0  0  0  0  0  0  0  0  0
  -23.9239  -21.2148   22.5770 C   0  0  0  0  0  0  0  0  0  0  0  0
  -28.4896  -29.6722   25.1134 N   0  0  0  0  0  0  0  0  0  0  0  0
  -28.0136  -15.1569   21.7909 N   0  0  0  0  0  0  0  0  0  0  0  0
  -29.2253  -15.6288   21.4512 N   0  0  0  0  0  0  0  0  0  0  0  0
  -23.7982  -24.2133   20.6127 N   0  0  0  0  0  0  0  0  0  0  0  0
  -29.3374  -18.7956   23.5893 N   0  0  0  0  0  0  0  0  0  0  0  0
  -30.9975  -15.3448   19.9056 N   0  0  0  0  0  0  0  0  0  0  0  0
  -27.9982  -12.2154   18.6381 N   0  0  0  0  0  0  0  0  0  0  0  0
  -21.4276  -26.8264   21.5336 N   0  0  0  0  0  0  0  0  0  0  0  0
  -24.6124  -20.9596   20.1553 N   0  0  0  0  0  0  0  0  0  0  0  0
  -26.7115  -20.2610   17.2964 N   0  3  0  0  0  0  0  0  0  0  0  0
  -30.0606  -13.1095   18.1844 O   0  0  0  0  0  0  0  0  0  0  0  0
  -22.9460  -25.4731   22.6675 O   0  0  0  0  0  0  0  0  0  0  0  0
  -28.3397  -20.4797   22.3365 O   0  0  0  0  0  0  0  0  0  0  0  0
  -22.2192  -22.5042   20.4647 O   0  0  0  0  0  0  0  0  0  0  0  0
  -26.8211  -21.5630   19.7882 O   0  0  0  0  0  0  0  0  0  0  0  0
  -23.0619  -11.2274   21.0239 O   0  0  0  0  0  0  0  0  0  0  0  0
  -28.5843  -28.1027   20.4768 O   0  0  0  0  0  0  0  0  0  1  0  0
  -23.4432   -5.7528   20.4881 F   0  0  0  0  0  0  0  0  0  0  0  0
  -24.1658  -10.0979   18.7550 F   0  0  0  0  0  0  0  0  0  0  0  0
  1  2  1  0  0  0  0
  1  5  2  0  0  0  0
  2  6  2  0  0  0  0
  3  8  2  0  0  0  0
  3 17  1  0  0  0  0
  4  9  1  0  0  0  0
  4 17  2  0  0  0  0
  5 19  1  0  0  0  0
  6 21  1  0  0  0  0
  7 10  2  0  0  0  0
  7 20  1  0  0  0  0
  8 25  1  0  0  0  0
  9 25  2  0  0  0  0
 10 26  1  0  0  0  0
 11 12  2  0  0  0  0
 11 27  1  0  0  0  0
 12 28  1  0  0  0  0
 13 22  1  0  0  0  0
 13 26  2  0  0  0  0
 14 23  2  0  0  0  0
 14 24  1  0  0  0  0
 15 28  2  0  0  0  0
 15 29  1  0  0  0  0
 16 23  1  0  0  0  0
 16 68  2  0  0  0  0
 17 30  1  0  0  0  0
 18 30  1  0  0  0  0
 18 32  2  0  0  0  0
 18 33  1  0  0  0  0
 19 21  2  0  0  0  0
 19 38  1  0  0  0  0
 20 22  2  0  0  0  0
 20 39  1  0  0  0  0
 21 49  1  0  0  0  0
 22 40  1  0  0  0  0
 23 58  1  0  0  0  0
 24 31  2  0  0  0  0
 24 59  1  0  0  0  0
 25 83  1  0  0  0  0
 26 84  1  0  0  0  0
 27 29  2  0  0  0  0
 27 83  1  0  0  0  0
 28 85  1  0  0  0  0
 29 86  1  0  0  0  0
 30 69  2  0  0  0  0
 31 50  1  0  0  0  0
 31 68  1  0  0  0  0
 32 70  1  0  0  0  0
 32 73  1  0  0  0  0
 33 74  1  0  0  0  0
 33 78  2  0  0  0  0
 34 51  1  0  0  0  0
 34 75  1  0  0  0  0
 34 79  2  0  0  0  0
 35 60  1  0  0  0  0
 35 72  1  0  0  0  0
 35 80  2  0  0  0  0
 36 65  1  0  0  0  0
 36 71  1  0  0  0  0
 36 81  2  0  0  0  0
 37 66  1  0  0  0  0
 37 76  1  0  0  0  0
 37 82  2  0  0  0  0
 38 41  1  0  0  0  0
 39 51  1  0  0  0  0
 40 71  1  0  0  0  0
 41 43  1  0  0  0  0
 42 46  1  0  0  0  0
 42 47  1  0  0  0  0
 43 49  1  0  0  0  0
 44 45  1  0  0  0  0
 44 50  1  0  0  0  0
 45 50  1  0  0  0  0
 46 52  1  0  0  0  0
 47 72  1  0  0  0  0
 48 52  1  0  0  0  0
 48 72  1  0  0  0  0
 49 75  1  0  0  0  0
 51 71  1  0  0  0  0
 52 70  1  0  0  0  0
 53 66  1  0  0  0  0
 54 67  1  0  0  0  0
 55 67  1  0  0  0  0
 56 67  1  0  0  0  0
 57 77  1  0  0  0  0
 58 64  1  0  0  0  0
 59 61  1  0  0  0  0
 60 62  1  0  0  0  0
 61 63  1  0  0  0  0
 62 63  1  0  0  0  0
 64 84  1  0  0  0  0
 65 67  1  0  0  0  0
 65 76  1  0  0  0  0
 66 77  1  0  0  0  0
 69 70  1  0  0  0  0
M  CHG  1  77   1
M  ISO  4  35 100  60 100  64 101  84 101
M  END
> <Batch ID>
0039

> <Smiles>
CNC(C)C(=O)NC(C(=O)N1Cc2cc([101O:1][101CH2:1]Cc3cnc(C4CC4)c(CCCC[100CH2:0][100C:0](=O)N4CCCC(n5nc(-c6ccc(Oc7ccc(F)cc7F)cc6)c(C(N)=O)c5N)C4)c3)ccc2CC1C(=O)NC1CCCc2ccccc21)C(C)(C)C

> <Shape>
0.216

> <Color>
0.059

> <Negative vol penalty>
0.000

$$$$

  -OEChem-04052317043D

 83 91  0     1  0  0  0  0  0999 V2000
  -16.9285  -28.7935   24.3937 C   0  0  0  0  0  0  0  0  0  0  0  0
  -17.4125  -27.7598   23.5984 C   0  0  0  0  0  0  0  0  0  0  0  0
  -26.5951  -12.3435   20.9819 C   0  0  0  0  0  0  0  0  0  0  0  0
  -25.3555  -14.1054   19.8881 C   0  0  0  0  0  0  0  0  0  0  0  0
  -17.4962  -30.0639   24.3054 C   0  0  0  0  0  0  0  0  0  0  0  0
  -18.4640  -27.9961   22.7135 C   0  0  0  0  0  0  0  0  0  0  0  0
  -22.9260  -24.0948   21.1722 C   0  0  0  0  0  0  0  0  0  0  0  0
  -25.4005  -11.7855   21.4370 C   0  0  0  0  0  0  0  0  0  0  0  0
  -24.1608  -13.5473   20.3432 C   0  0  0  0  0  0  0  0  0  0  0  0
  -23.1000  -23.2559   20.0723 C   0  0  0  0  0  0  0  0  0  0  0  0
  -22.6567   -9.6948   22.5841 C   0  0  0  0  0  0  0  0  0  0  0  0
  -22.5004   -8.3137   22.4678 C   0  0  0  0  0  0  0  0  0  0  0  0
  -24.4560  -24.9431   19.0075 C   0  0  0  0  0  0  0  0  0  0  0  0
  -22.7539   -8.4868   20.0714 C   0  0  0  0  0  0  0  0  0  0  0  0
  -26.5726  -13.5035   20.2075 C   0  0  0  0  0  0  0  0  0  0  0  0
  -28.4710  -13.7984   18.5292 C   0  0  0  0  0  0  0  0  0  0  0  0
  -18.5615  -30.3135   23.4259 C   0  0  0  0  0  0  0  0  0  0  0  0
  -23.5077  -25.3706   21.1933 C   0  0  0  0  0  0  0  0  0  0  0  0
  -19.0456  -29.2713   22.6123 C   0  0  0  0  0  0  0  0  0  0  0  0
  -24.2900  -25.7953   20.1099 C   0  0  0  0  0  0  0  0  0  0  0  0
  -24.1833  -12.3874   21.1176 C   0  0  0  0  0  0  0  0  0  0  0  0
  -23.8627  -23.6811   18.9885 C   0  0  0  0  0  0  0  0  0  0  0  0
  -22.8616  -10.4720   21.4441 C   0  0  0  0  0  0  0  0  0  0  0  0
  -22.5490   -7.7096   21.2115 C   0  0  0  0  0  0  0  0  0  0  0  0
  -22.9102   -9.8680   20.1877 C   0  0  0  0  0  0  0  0  0  0  0  0
  -27.4024  -20.4972   17.6409 C   0  0  0  0  0  0  0  0  0  0  0  0
  -27.8063  -14.0807   19.7377 C   0  0  0  0  0  0  0  0  0  0  0  0
  -26.2929  -21.1794   17.1066 C   0  0  0  0  0  0  0  0  0  0  0  0
  -28.4693  -21.3235   17.3852 C   0  0  0  0  0  0  0  0  0  0  0  0
  -29.5859  -14.6001   18.5552 C   0  0  0  0  0  0  0  0  0  0  0  0
  -28.1125  -12.8926   17.4772 C   0  0  0  0  0  0  0  0  0  0  0  0
  -22.3911  -28.3426   21.3483 C   0  0  0  0  0  0  0  0  0  0  0  0
  -25.5372  -29.0971   21.5833 C   0  0  0  0  0  0  0  0  0  0  0  0
  -28.7794  -28.2238   20.9731 C   0  0  0  0  0  0  0  0  0  0  0  0
  -30.8413  -19.7496   21.3404 C   0  0  0  0  0  0  0  0  0  0  0  0
  -19.1116  -31.7146   23.3312 C   0  0  0  0  0  0  0  0  0  0  0  0
  -23.3327  -26.2531   22.3987 C   0  0  0  0  0  0  0  0  0  0  0  0
  -24.9525  -27.1478   20.0921 C   0  0  0  0  0  0  0  0  0  0  0  0
  -20.4702  -31.7901   22.6393 C   0  0  0  0  0  0  0  0  0  0  0  0
  -32.6304  -16.6825   21.6024 C   0  0  0  0  0  0  0  0  0  0  0  0
  -20.4634  -30.9629   21.3577 C   0  0  0  0  0  0  0  0  0  0  0  0
  -31.6569  -15.6424   21.0451 C   0  0  0  0  0  0  0  0  0  0  0  0
  -31.9037  -17.7720   22.3878 C   0  0  0  0  0  0  0  0  0  0  0  0
  -29.8368  -17.3983   21.0986 C   0  0  0  0  0  0  0  0  0  0  0  0
  -20.2011  -29.4822   21.6582 C   0  0  1  0  0  0  0  0  0  0  0  0
  -23.5452  -27.7324   22.0921 C   0  0  1  0  0  0  0  0  0  0  0  0
  -30.5175  -16.3095   20.2515 C   0  0  2  0  0  0  0  0  0  0  0  0
  -31.1296  -29.0606   21.2454 C   0  0  0  0  0  0  0  0  0  0  0  0
  -25.1248  -31.0103   19.2425 C   0  0  0  0  0  0  0  0  0  0  0  0
  -27.6107  -31.0820   18.9536 C   0  0  0  0  0  0  0  0  0  0  0  0
  -26.5790  -31.8993   21.0726 C   0  0  0  0  0  0  0  0  0  0  0  0
  -28.6820  -23.5597   16.2580 C   0  0  0  0  0  0  0  0  0  0  0  0
  -29.5190  -25.9330   22.6947 C   0  0  0  0  0  0  0  0  0  0  0  0
  -24.8481  -20.7430   17.0962 C   0  0  0  0  0  0  0  0  0  0  0  0
  -29.9068  -21.1865   17.6905 C   0  0  0  0  0  0  0  0  0  0  0  0
  -30.3920  -21.9862   18.9239 C   0  0  0  0  0  0  0  0  0  0  0  0
  -29.6696  -21.6294   20.2213 C   0  0  0  0  0  0  0  0  0  0  0  0
  -24.0185  -21.4585   18.1568 C   0  0  0  0  0  0  0  0  0  1  0  0
  -26.6365  -29.4164   20.5991 C   0  0  1  0  0  0  0  0  0  0  0  0
  -30.0102  -28.2359   21.8616 C   0  0  2  0  0  0  0  0  0  0  0  0
  -26.4738  -30.8272   19.9661 C   0  0  0  0  0  0  0  0  0  0  0  0
  -28.4458  -14.9906   20.4775 N   0  0  0  0  0  0  0  0  0  0  0  0
  -26.6243  -22.3491   16.5534 N   0  0  0  0  0  0  0  0  0  0  0  0
  -27.9541  -22.4083   16.7388 N   0  0  0  0  0  0  0  0  0  0  0  0
  -29.5239  -15.2869   19.7319 N   0  0  0  0  0  0  0  0  0  0  0  0
  -24.7465  -27.9767   21.2913 N   0  0  0  0  0  0  0  0  0  0  0  0
  -30.8366  -18.3652   21.5783 N   0  0  0  0  0  0  0  0  0  0  0  0
  -30.6035  -14.7775   17.6860 N   0  0  0  0  0  0  0  0  0  0  0  0
  -26.9342  -12.1457   17.6113 N   0  0  0  0  0  0  0  0  0  0  0  0
  -21.3995  -28.8496   22.1663 N   0  0  0  0  0  0  0  0  0  0  0  0
  -27.8934  -29.2237   21.3143 N   0  0  0  0  0  0  0  0  0  0  0  0
  -29.7977  -20.2292   20.5584 N   0  0  0  0  0  0  0  0  0  0  0  0
  -30.5103  -26.8480   22.0726 N   0  3  0  0  0  0  0  0  0  0  0  0
  -28.8249  -12.7376   16.4564 O   0  0  0  0  0  0  0  0  0  0  0  0
  -22.4004  -28.3541   20.1229 O   0  0  0  0  0  0  0  0  0  0  0  0
  -25.3903  -29.8111   22.5784 O   0  0  0  0  0  0  0  0  0  0  0  0
  -28.6217  -27.4112   20.0646 O   0  0  0  0  0  0  0  0  0  0  0  0
  -31.7142  -20.5016   21.7871 O   0  0  0  0  0  0  0  0  0  0  0  0
  -23.0174  -11.8430   21.5613 O   0  0  0  0  0  0  0  0  0  0  0  0
  -24.0336  -22.8645   17.9134 O   0  0  0  0  0  0  0  0  0  1  0  0
  -22.4004   -6.3831   21.1001 F   0  0  0  0  0  0  0  0  0  0  0  0
  -23.1080  -10.6092   19.0890 F   0  0  0  0  0  0  0  0  0  0  0  0
  -27.3942  -18.9942   18.4193 Cl  0  0  0  0  0  0  0  0  0  0  0  0
  1  2  1  0  0  0  0
  1  5  2  0  0  0  0
  2  6  2  0  0  0  0
  3  8  2  0  0  0  0
  3 15  1  0  0  0  0
  4  9  1  0  0  0  0
  4 15  2  0  0  0  0
  5 17  1  0  0  0  0
  6 19  1  0  0  0  0
  7 10  2  0  0  0  0
  7 18  1  0  0  0  0
  8 21  1  0  0  0  0
  9 21  2  0  0  0  0
 10 22  1  0  0  0  0
 11 12  2  0  0  0  0
 11 23  1  0  0  0  0
 12 24  1  0  0  0  0
 13 20  1  0  0  0  0
 13 22  2  0  0  0  0
 14 24  2  0  0  0  0
 14 25  1  0  0  0  0
 15 27  1  0  0  0  0
 16 27  1  0  0  0  0
 16 30  2  0  0  0  0
 16 31  1  0  0  0  0
 17 19  2  0  0  0  0
 17 36  1  0  0  0  0
 18 20  2  0  0  0  0
 18 37  1  0  0  0  0
 19 45  1  0  0  0  0
 20 38  1  0  0  0  0
 21 79  1  0  0  0  0
 22 80  1  0  0  0  0
 23 25  2  0  0  0  0
 23 79  1  0  0  0  0
 24 81  1  0  0  0  0
 25 82  1  0  0  0  0
 26 28  1  0  0  0  0
 26 29  2  0  0  0  0
 26 83  1  0  0  0  0
 27 62  2  0  0  0  0
 28 54  1  0  0  0  0
 28 63  2  0  0  0  0
 29 55  1  0  0  0  0
 29 64  1  0  0  0  0
 30 65  1  0  0  0  0
 30 68  1  0  0  0  0
 31 69  1  0  0  0  0
 31 74  2  0  0  0  0
 32 46  1  0  0  0  0
 32 70  1  0  0  0  0
 32 75  2  0  0  0  0
 33 59  1  0  0  0  0
 33 66  1  0  0  0  0
 33 76  2  0  0  0  0
 34 60  1  0  0  0  0
 34 71  1  0  0  0  0
 34 77  2  0  0  0  0
 35 67  1  0  0  0  0
 35 72  1  0  0  0  0
 35 78  2  0  0  0  0
 36 39  1  0  0  0  0
 37 46  1  0  0  0  0
 38 66  1  0  0  0  0
 39 41  1  0  0  0  0
 40 42  1  0  0  0  0
 40 43  1  0  0  0  0
 41 45  1  0  0  0  0
 42 47  1  0  0  0  0
 43 67  1  0  0  0  0
 44 47  1  0  0  0  0
 44 67  1  0  0  0  0
 45 70  1  0  0  0  0
 46 66  1  0  0  0  0
 47 65  1  0  0  0  0
 48 60  1  0  0  0  0
 49 61  1  0  0  0  0
 50 61  1  0  0  0  0
 51 61  1  0  0  0  0
 52 64  1  0  0  0  0
 53 73  1  0  0  0  0
 54 58  1  0  0  0  0
 55 56  1  0  0  0  0
 56 57  1  0  0  0  0
 57 72  1  0  0  0  0
 58 80  1  0  0  0  0
 59 61  1  0  0  0  0
 59 71  1  0  0  0  0
 60 73  1  0  0  0  0
 62 65  1  0  0  0  0
 63 64  1  0  0  0  0
M  CHG  1  73   1
M  ISO  4  35 100  58 101  72 100  80 101
M  END
> <Batch ID>
0039

> <Smiles>
CNC(C)C(=O)NC(C(=O)N1Cc2cc([101O:1][101CH2:1]Cc3nn(C)c(CCC[100NH:0][100C:0](=O)N4CCCC(n5nc(-c6ccc(Oc7ccc(F)cc7F)cc6)c(C(N)=O)c5N)C4)c3Cl)ccc2CC1C(=O)NC1CCCc2ccccc21)C(C)(C)C

> <Shape>
0.273

> <Color>
0.077

> <Negative vol penalty>
0.000

$$$$

  -OEChem-04052317043D

 89 98  0     1  0  0  0  0  0999 V2000
  -17.1954  -30.3053   24.0969 C   0  0  0  0  0  0  0  0  0  0  0  0
  -18.5526  -30.6056   24.1548 C   0  0  0  0  0  0  0  0  0  0  0  0
  -23.8616  -13.4209   20.8282 C   0  0  0  0  0  0  0  0  0  0  0  0
  -26.2581  -13.2105   21.0503 C   0  0  0  0  0  0  0  0  0  0  0  0
  -16.7718  -29.1052   23.5276 C   0  0  0  0  0  0  0  0  0  0  0  0
  -19.4871  -29.7052   23.6443 C   0  0  0  0  0  0  0  0  0  0  0  0
  -25.8671  -29.5249   20.3916 C   0  0  0  0  0  0  0  0  0  0  0  0
  -23.7794  -12.0821   20.4457 C   0  0  0  0  0  0  0  0  0  0  0  0
  -26.1760  -11.8716   20.6677 C   0  0  0  0  0  0  0  0  0  0  0  0
  -27.1228  -28.9319   20.5155 C   0  0  0  0  0  0  0  0  0  0  0  0
  -22.8978   -8.6227   19.7596 C   0  0  0  0  0  0  0  0  0  0  0  0
  -21.8946   -7.8439   20.3362 C   0  0  0  0  0  0  0  0  0  0  0  0
  -26.2702  -26.9251   19.4835 C   0  0  0  0  0  0  0  0  0  0  0  0
  -32.8802  -25.4502   20.5712 C   0  0  0  0  0  0  0  0  0  0  0  0
  -22.8193   -8.2743   22.5264 C   0  0  0  0  0  0  0  0  0  0  0  0
  -25.1009  -13.9852   21.1305 C   0  0  0  0  0  0  0  0  0  0  0  0
  -24.5714  -15.9747   22.6367 C   0  0  0  0  0  0  0  0  0  0  0  0
  -17.7010  -28.1941   23.0011 C   0  0  0  0  0  0  0  0  0  0  0  0
  -24.7989  -28.8173   19.8218 C   0  0  0  0  0  0  0  0  0  0  0  0
  -19.0756  -28.4912   23.0686 C   0  0  0  0  0  0  0  0  0  0  0  0
  -25.0026  -27.5122   19.3513 C   0  0  0  0  0  0  0  0  0  0  0  0
  -31.4538  -25.4338   20.6176 C   0  0  0  0  0  0  0  0  0  0  0  0
  -24.9366  -11.3074   20.3654 C   0  0  0  0  0  0  0  0  0  0  0  0
  -27.3238  -27.6308   20.0640 C   0  0  0  0  0  0  0  0  0  0  0  0
  -23.8619   -9.2273   20.5663 C   0  0  0  0  0  0  0  0  0  0  0  0
  -21.8553   -7.6697   21.7196 C   0  0  0  0  0  0  0  0  0  0  0  0
  -23.8226   -9.0531   21.9497 C   0  0  0  0  0  0  0  0  0  0  0  0
  -25.1865  -15.3683   21.5251 C   0  0  0  0  0  0  0  0  0  0  0  0
  -30.9815  -25.9859   21.7930 C   0  0  0  0  0  0  0  0  0  0  0  0
  -33.4311  -26.0041   21.7066 C   0  0  0  0  0  0  0  0  0  0  0  0
  -24.9608  -17.2901   22.5694 C   0  0  0  0  0  0  0  0  0  0  0  0
  -23.7238  -15.4003   23.6405 C   0  0  0  0  0  0  0  0  0  0  0  0
  -21.9568  -27.8336   20.8507 C   0  0  0  0  0  0  0  0  0  0  0  0
  -29.7153  -19.9421   20.0252 C   0  0  0  0  0  0  0  0  0  0  0  0
  -21.5734  -26.9547   17.7519 C   0  0  0  0  0  0  0  0  0  0  0  0
  -23.0216  -26.0838   14.7869 C   0  0  0  0  0  0  0  0  0  0  0  0
  -17.1983  -26.8883   22.4382 C   0  0  0  0  0  0  0  0  0  0  0  0
  -23.4574  -29.4807   19.6711 C   0  0  0  0  0  0  0  0  0  0  0  0
  -30.5359  -24.9232   19.5519 C   0  0  0  0  0  0  0  0  0  0  0  0
  -23.8938  -26.7171   18.7134 C   0  0  0  0  0  0  0  0  0  0  0  0
  -29.5360  -26.1061   22.1766 C   0  0  0  0  0  0  0  0  0  0  0  0
  -18.2290  -26.1572   21.5818 C   0  0  0  0  0  0  0  0  0  0  0  0
  -29.1161  -24.6862   20.0934 C   0  0  0  0  0  0  0  0  0  0  0  0
  -26.2539  -20.6654   19.4463 C   0  0  0  0  0  0  0  0  0  0  0  0
  -19.5835  -26.1310   22.2828 C   0  0  0  0  0  0  0  0  0  0  0  0
  -25.5337  -19.4316   19.9889 C   0  0  0  0  0  0  0  0  0  0  0  0
  -27.5908  -20.2971   18.8108 C   0  0  0  0  0  0  0  0  0  0  0  0
  -27.7860  -18.3007   20.2592 C   0  0  0  0  0  0  0  0  0  0  0  0
  -20.1182  -27.5513   22.5031 C   0  0  1  0  0  0  0  0  0  0  0  0
  -22.3092  -28.4844   19.5430 C   0  0  1  0  0  0  0  0  0  0  0  0
  -26.4448  -18.6322   20.9372 C   0  0  2  0  0  0  0  0  0  0  0  0
  -28.6211  -25.8528   20.9651 C   0  0  2  0  0  0  0  0  0  1  0  0
  -22.4499  -25.3836   12.4459 C   0  0  0  0  0  0  0  0  0  0  0  0
  -20.8702  -24.1625   18.7613 C   0  0  0  0  0  0  0  0  0  0  0  0
  -21.2438  -23.3047   16.4390 C   0  0  0  0  0  0  0  0  0  0  0  0
  -19.4464  -24.9788   16.8744 C   0  0  0  0  0  0  0  0  0  0  0  0
  -24.3762  -28.4452   13.6259 C   0  0  0  0  0  0  0  0  0  0  0  0
  -34.8881  -26.2011   22.0417 C   0  0  0  0  0  0  0  0  0  0  0  0
  -30.5043  -19.0917   20.9887 C   0  0  0  0  0  0  0  0  0  0  0  0
  -35.4475  -25.1531   23.0106 C   0  0  0  0  0  0  0  0  0  0  0  0
  -31.8986  -19.6709   21.2117 C   0  0  0  0  0  0  0  0  0  0  0  0
  -35.2799  -23.7172   22.5017 C   0  0  0  0  0  0  0  0  0  0  0  0
  -32.7245  -18.8411   22.2003 C   0  0  0  0  0  0  0  0  0  0  0  0
  -35.8787  -22.7080   23.4850 C   0  0  0  0  0  0  0  0  0  0  0  0
  -34.1580  -19.3535   22.3759 C   0  0  0  0  0  0  0  0  0  0  0  0
  -35.7456  -21.2555   23.0161 C   0  0  0  0  0  0  0  0  0  0  0  0
  -34.2923  -20.8087   22.8375 C   0  0  0  0  0  0  0  0  0  0  0  0
  -21.8655  -25.7096   16.9498 C   0  0  1  0  0  0  0  0  0  0  0  0
  -22.7673  -26.5525   13.3656 C   0  0  2  0  0  0  0  0  0  0  0  0
  -20.8771  -24.5529   17.2698 C   0  0  0  0  0  0  0  0  0  0  0  0
  -25.9114  -16.2279   20.8043 N   0  0  0  0  0  0  0  0  0  0  0  0
  -25.7543  -17.3879   21.4644 N   0  0  0  0  0  0  0  0  0  0  0  0
  -22.5987  -27.4071   18.5944 N   0  0  0  0  0  0  0  0  0  0  0  0
  -28.4179  -19.5195   19.7351 N   0  0  0  0  0  0  0  0  0  0  0  0
  -24.6983  -18.3612   23.3481 N   0  0  0  0  0  0  0  0  0  0  0  0
  -24.3181  -14.8752   24.7961 N   0  0  0  0  0  0  0  0  0  0  0  0
  -20.6647  -28.0821   21.2727 N   0  0  0  0  0  0  0  0  0  0  0  0
  -21.8733  -26.1187   15.5494 N   0  0  0  0  0  0  0  0  0  0  0  0
  -23.9655  -27.2592   12.8310 N   0  3  0  0  0  0  0  0  0  0  0  0
  -22.4778  -15.3394   23.5089 O   0  0  0  0  0  0  0  0  0  0  0  0
  -22.7947  -27.1550   21.4330 O   0  0  0  0  0  0  0  0  0  0  0  0
  -30.2372  -20.9532   19.5480 O   0  0  0  0  0  0  0  0  0  0  0  0
  -20.4784  -27.5096   17.6299 O   0  0  0  0  0  0  0  0  0  0  0  0
  -24.1275  -25.7194   15.1803 O   0  0  0  0  0  0  0  0  0  0  0  0
  -24.8568  -10.0009   19.9924 O   0  0  0  0  0  0  0  0  0  0  0  0
  -28.5547  -27.0464   20.1849 O   0  0  0  0  0  0  0  0  0  1  0  0
  -20.8909   -6.9230   22.2733 F   0  0  0  0  0  0  0  0  0  0  0  0
  -24.7453   -9.6324   22.7300 F   0  0  0  0  0  0  0  0  0  0  0  0
  -32.2343  -26.5042   22.8242 S   0  0  0  0  0  0  0  0  0  0  0  0
  1  2  1  0  0  0  0
  1  5  2  0  0  0  0
  2  6  2  0  0  0  0
  3  8  2  0  0  0  0
  3 16  1  0  0  0  0
  4  9  1  0  0  0  0
  4 16  2  0  0  0  0
  5 18  1  0  0  0  0
  6 20  1  0  0  0  0
  7 10  2  0  0  0  0
  7 19  1  0  0  0  0
  8 23  1  0  0  0  0
  9 23  2  0  0  0  0
 10 24  1  0  0  0  0
 11 12  2  0  0  0  0
 11 25  1  0  0  0  0
 12 26  1  0  0  0  0
 13 21  1  0  0  0  0
 13 24  2  0  0  0  0
 14 22  1  0  0  0  0
 14 30  2  0  0  0  0
 15 26  2  0  0  0  0
 15 27  1  0  0  0  0
 16 28  1  0  0  0  0
 17 28  1  0  0  0  0
 17 31  2  0  0  0  0
 17 32  1  0  0  0  0
 18 20  2  0  0  0  0
 18 37  1  0  0  0  0
 19 21  2  0  0  0  0
 19 38  1  0  0  0  0
 20 49  1  0  0  0  0
 21 40  1  0  0  0  0
 22 29  2  0  0  0  0
 22 39  1  0  0  0  0
 23 85  1  0  0  0  0
 24 86  1  0  0  0  0
 25 27  2  0  0  0  0
 25 85  1  0  0  0  0
 26 87  1  0  0  0  0
 27 88  1  0  0  0  0
 28 71  2  0  0  0  0
 29 41  1  0  0  0  0
 29 89  1  0  0  0  0
 30 58  1  0  0  0  0
 30 89  1  0  0  0  0
 31 72  1  0  0  0  0
 31 75  1  0  0  0  0
 32 76  1  0  0  0  0
 32 80  2  0  0  0  0
 33 50  1  0  0  0  0
 33 77  1  0  0  0  0
 33 81  2  0  0  0  0
 34 59  1  0  0  0  0
 34 74  1  0  0  0  0
 34 82  2  0  0  0  0
 35 68  1  0  0  0  0
 35 73  1  0  0  0  0
 35 83  2  0  0  0  0
 36 69  1  0  0  0  0
 36 78  1  0  0  0  0
 36 84  2  0  0  0  0
 37 42  1  0  0  0  0
 38 50  1  0  0  0  0
 39 43  1  0  0  0  0
 40 73  1  0  0  0  0
 41 52  1  0  0  0  0
 42 45  1  0  0  0  0
 43 52  1  0  0  0  0
 44 46  1  0  0  0  0
 44 47  1  0  0  0  0
 45 49  1  0  0  0  0
 46 51  1  0  0  0  0
 47 74  1  0  0  0  0
 48 51  1  0  0  0  0
 48 74  1  0  0  0  0
 49 77  1  0  0  0  0
 50 73  1  0  0  0  0
 51 72  1  0  0  0  0
 52 86  1  0  0  0  0
 53 69  1  0  0  0  0
 54 70  1  0  0  0  0
 55 70  1  0  0  0  0
 56 70  1  0  0  0  0
 57 79  1  0  0  0  0
 58 60  1  0  0  0  0
 59 61  1  0  0  0  0
 60 62  1  0  0  0  0
 61 63  1  0  0  0  0
 62 64  1  0  0  0  0
 63 65  1  0  0  0  0
 64 66  1  0  0  0  0
 65 67  1  0  0  0  0
 66 67  1  0  0  0  0
 68 70  1  0  0  0  0
 68 78  1  0  0  0  0
 69 79  1  0  0  0  0
 71 72  1  0  0  0  0
M  CHG  1  79   1
M  ISO  4  34 100  52 101  59 100  86 101
M  END
> <Batch ID>
0039

> <Smiles>
CNC(C)C(=O)NC(C(=O)N1Cc2cc([101O:1][101CH:1]3CCc4cc(CCCCCCCCC[100CH2:0][100C:0](=O)N5CCCC(n6nc(-c7ccc(Oc8ccc(F)cc8F)cc7)c(C(N)=O)c6N)C5)sc4C3)ccc2CC1C(=O)NC1CCCc2ccccc21)C(C)(C)C

> <Shape>
0.250

> <Color>
0.108

> <Negative vol penalty>
0.000

$$$$

  -OEChem-04052317043D

 85 93  0     1  0  0  0  0  0999 V2000
  -27.3975  -19.1667   15.8998 C   0  0  0  0  0  0  0  0  0  0  0  0
  -26.4462  -20.1817   15.9125 C   0  0  0  0  0  0  0  0  0  0  0  0
  -23.3741  -13.9688   20.2974 C   0  0  0  0  0  0  0  0  0  0  0  0
  -25.1123  -15.0829   21.5522 C   0  0  0  0  0  0  0  0  0  0  0  0
  -28.2357  -18.9848   16.9991 C   0  0  0  0  0  0  0  0  0  0  0  0
  -26.3318  -21.0147   17.0248 C   0  0  0  0  0  0  0  0  0  0  0  0
  -24.7054  -27.7605   18.8041 C   0  0  0  0  0  0  0  0  0  0  0  0
  -24.2261  -12.8863   20.0784 C   0  0  0  0  0  0  0  0  0  0  0  0
  -25.9642  -14.0004   21.3333 C   0  0  0  0  0  0  0  0  0  0  0  0
  -23.8696  -28.4772   19.6594 C   0  0  0  0  0  0  0  0  0  0  0  0
  -28.7173  -11.6882   20.8005 C   0  0  0  0  0  0  0  0  0  0  0  0
  -30.0309  -11.9634   20.4206 C   0  0  0  0  0  0  0  0  0  0  0  0
  -25.4246  -28.1198   21.4687 C   0  0  0  0  0  0  0  0  0  0  0  0
  -20.2661  -29.1509   22.1224 C   0  0  0  0  0  0  0  0  0  0  0  0
  -20.5541  -27.3378   23.6928 C   0  0  0  0  0  0  0  0  0  0  0  0
  -29.2223  -13.1007   18.4484 C   0  0  0  0  0  0  0  0  0  0  0  0
  -23.8173  -15.0672   21.0342 C   0  0  0  0  0  0  0  0  0  0  0  0
  -22.0476  -16.3636   22.3362 C   0  0  0  0  0  0  0  0  0  0  0  0
  -28.1380  -19.8222   18.1215 C   0  0  0  0  0  0  0  0  0  0  0  0
  -25.9039  -27.2079   19.2781 C   0  0  0  0  0  0  0  0  0  0  0  0
  -27.1685  -20.8430   18.1406 C   0  0  0  0  0  0  0  0  0  0  0  0
  -26.2751  -27.3987   20.6167 C   0  0  0  0  0  0  0  0  0  0  0  0
  -20.9403  -28.5862   23.2049 C   0  0  0  0  0  0  0  0  0  0  0  0
  -19.2055  -28.4674   21.5277 C   0  0  0  0  0  0  0  0  0  0  0  0
  -19.4936  -26.6542   23.0982 C   0  0  0  0  0  0  0  0  0  0  0  0
  -25.5211  -12.9021   20.5964 C   0  0  0  0  0  0  0  0  0  0  0  0
  -24.2277  -28.6544   20.9926 C   0  0  0  0  0  0  0  0  0  0  0  0
  -27.6562  -12.1192   20.0042 C   0  0  0  0  0  0  0  0  0  0  0  0
  -30.2835  -12.6697   19.2446 C   0  0  0  0  0  0  0  0  0  0  0  0
  -27.9087  -12.8255   18.8282 C   0  0  0  0  0  0  0  0  0  0  0  0
  -18.8193  -27.2190   22.0156 C   0  0  0  0  0  0  0  0  0  0  0  0
  -22.9379  -16.1860   21.2603 C   0  0  0  0  0  0  0  0  0  0  0  0
  -21.4495  -17.5754   22.0904 C   0  0  0  0  0  0  0  0  0  0  0  0
  -21.7848  -15.5097   23.4575 C   0  0  0  0  0  0  0  0  0  0  0  0
  -27.0655  -24.2608   19.5411 C   0  0  0  0  0  0  0  0  0  0  0  0
  -29.7562  -25.8221   20.4600 C   0  0  0  0  0  0  0  0  0  0  0  0
  -31.1653  -28.6363   21.7797 C   0  0  0  0  0  0  0  0  0  0  0  0
  -21.7593  -22.9367   20.5719 C   0  0  0  0  0  0  0  0  0  0  0  0
  -29.0341  -19.5569   19.3053 C   0  0  0  0  0  0  0  0  0  0  0  0
  -26.8074  -26.4603   18.3362 C   0  0  0  0  0  0  0  0  0  0  0  0
  -27.5610  -26.8429   21.1701 C   0  0  0  0  0  0  0  0  0  0  0  0
  -29.1006  -20.7201   20.2917 C   0  0  0  0  0  0  0  0  0  0  0  0
  -21.5325  -20.5131   17.9735 C   0  0  0  0  0  0  0  0  0  0  0  0
  -27.7008  -21.2477   20.5899 C   0  0  0  0  0  0  0  0  0  0  0  0
  -21.8106  -19.1875   18.6844 C   0  0  0  0  0  0  0  0  0  0  0  0
  -22.3763  -21.6492   18.5475 C   0  0  0  0  0  0  0  0  0  0  0  0
  -22.5481  -20.4969   20.7192 C   0  0  0  0  0  0  0  0  0  0  0  0
  -27.0305  -21.7829   19.3187 C   0  0  1  0  0  0  0  0  0  0  0  0
  -27.7554  -25.5026   19.0515 C   0  0  1  0  0  0  0  0  0  0  0  0
  -21.6798  -19.3326   20.2125 C   0  0  2  0  0  0  0  0  0  0  0  0
  -18.9270  -28.4997   19.0361 C   0  0  0  0  0  0  0  0  0  0  0  0
  -33.3837  -29.6024   22.4452 C   0  0  0  0  0  0  0  0  0  0  0  0
  -29.7580  -24.0840   22.9678 C   0  0  0  0  0  0  0  0  0  0  0  0
  -31.3712  -25.6966   23.9999 C   0  0  0  0  0  0  0  0  0  0  0  0
  -32.0115  -24.4390   21.9430 C   0  0  0  0  0  0  0  0  0  0  0  0
  -30.9070  -30.8619   19.8460 C   0  0  0  0  0  0  0  0  0  0  0  0
  -22.0880  -29.3258   23.8484 C   0  0  0  0  0  0  0  0  0  0  0  0
  -18.5118  -29.1110   20.3702 C   0  0  0  0  0  0  0  0  0  0  0  0
  -19.1142  -25.3193   23.6543 C   0  0  0  0  0  0  0  0  0  0  0  0
  -19.6440  -24.1210   22.8449 C   0  0  0  0  0  0  0  0  0  0  0  0
  -21.1627  -24.0898   22.6870 C   0  0  0  0  0  0  0  0  0  0  0  0
  -23.4293  -28.9847   23.2083 C   0  0  0  0  0  0  0  0  0  1  0  0
  -30.3148  -26.3059   21.7765 C   0  0  1  0  0  0  0  0  0  0  0  0
  -32.3522  -29.4719   21.3353 C   0  0  2  0  0  0  0  0  0  0  0  0
  -30.8386  -25.1403   22.6621 C   0  0  0  0  0  0  0  0  0  0  0  0
  -22.9109  -17.2034   20.3953 N   0  0  0  0  0  0  0  0  0  0  0  0
  -21.9963  -18.0319   20.9274 N   0  0  0  0  0  0  0  0  0  0  0  0
  -28.4076  -26.1140   20.2112 N   0  0  0  0  0  0  0  0  0  0  0  0
  -22.2058  -21.7339   20.0000 N   0  0  0  0  0  0  0  0  0  0  0  0
  -20.5143  -18.2842   22.7579 N   0  0  0  0  0  0  0  0  0  0  0  0
  -22.4874  -14.3010   23.5560 N   0  0  0  0  0  0  0  0  0  0  0  0
  -27.5503  -23.0919   18.9860 N   0  0  0  0  0  0  0  0  0  0  0  0
  -31.3238  -27.3073   21.4485 N   0  0  0  0  0  0  0  0  0  0  0  0
  -21.6187  -22.9296   21.9543 N   0  0  0  0  0  0  0  0  0  0  0  0
  -31.9060  -30.8393   20.9453 N   0  3  0  0  0  0  0  0  0  0  0  0
  -20.9396  -15.8020   24.3372 O   0  0  0  0  0  0  0  0  0  0  0  0
  -26.1613  -24.3560   20.3627 O   0  0  0  0  0  0  0  0  0  0  0  0
  -30.4914  -25.2140   19.6781 O   0  0  0  0  0  0  0  0  0  0  0  0
  -30.1963  -29.1142   22.3655 O   0  0  0  0  0  0  0  0  0  0  0  0
  -21.4998  -23.9406   19.8999 O   0  0  0  0  0  0  0  0  0  0  0  0
  -26.3526  -11.8458   20.3831 O   0  0  0  0  0  0  0  0  0  0  0  0
  -23.4134  -29.3530   21.8298 O   0  0  0  0  0  0  0  0  0  1  0  0
  -31.5449  -12.9352   18.8807 F   0  0  0  0  0  0  0  0  0  0  0  0
  -26.8934  -13.2431   18.0598 F   0  0  0  0  0  0  0  0  0  0  0  0
  -17.5024  -26.3704   21.2774 Cl  0  0  0  0  0  0  0  0  0  0  0  0
  1  2  1  0  0  0  0
  1  5  2  0  0  0  0
  2  6  2  0  0  0  0
  3  8  2  0  0  0  0
  3 17  1  0  0  0  0
  4  9  1  0  0  0  0
  4 17  2  0  0  0  0
  5 19  1  0  0  0  0
  6 21  1  0  0  0  0
  7 10  2  0  0  0  0
  7 20  1  0  0  0  0
  8 26  1  0  0  0  0
  9 26  2  0  0  0  0
 10 27  1  0  0  0  0
 11 12  2  0  0  0  0
 11 28  1  0  0  0  0
 12 29  1  0  0  0  0
 13 22  1  0  0  0  0
 13 27  2  0  0  0  0
 14 23  2  0  0  0  0
 14 24  1  0  0  0  0
 15 23  1  0  0  0  0
 15 25  2  0  0  0  0
 16 29  2  0  0  0  0
 16 30  1  0  0  0  0
 17 32  1  0  0  0  0
 18 32  1  0  0  0  0
 18 33  2  0  0  0  0
 18 34  1  0  0  0  0
 19 21  2  0  0  0  0
 19 39  1  0  0  0  0
 20 22  2  0  0  0  0
 20 40  1  0  0  0  0
 21 48  1  0  0  0  0
 22 41  1  0  0  0  0
 23 57  1  0  0  0  0
 24 31  2  0  0  0  0
 24 58  1  0  0  0  0
 25 31  1  0  0  0  0
 25 59  1  0  0  0  0
 26 81  1  0  0  0  0
 27 82  1  0  0  0  0
 28 30  2  0  0  0  0
 28 81  1  0  0  0  0
 29 83  1  0  0  0  0
 30 84  1  0  0  0  0
 31 85  1  0  0  0  0
 32 66  2  0  0  0  0
 33 67  1  0  0  0  0
 33 70  1  0  0  0  0
 34 71  1  0  0  0  0
 34 76  2  0  0  0  0
 35 49  1  0  0  0  0
 35 72  1  0  0  0  0
 35 77  2  0  0  0  0
 36 63  1  0  0  0  0
 36 68  1  0  0  0  0
 36 78  2  0  0  0  0
 37 64  1  0  0  0  0
 37 73  1  0  0  0  0
 37 79  2  0  0  0  0
 38 69  1  0  0  0  0
 38 74  1  0  0  0  0
 38 80  2  0  0  0  0
 39 42  1  0  0  0  0
 40 49  1  0  0  0  0
 41 68  1  0  0  0  0
 42 44  1  0  0  0  0
 43 45  1  0  0  0  0
 43 46  1  0  0  0  0
 44 48  1  0  0  0  0
 45 50  1  0  0  0  0
 46 69  1  0  0  0  0
 47 50  1  0  0  0  0
 47 69  1  0  0  0  0
 48 72  1  0  0  0  0
 49 68  1  0  0  0  0
 50 67  1  0  0  0  0
 51 58  1  0  0  0  0
 52 64  1  0  0  0  0
 53 65  1  0  0  0  0
 54 65  1  0  0  0  0
 55 65  1  0  0  0  0
 56 75  1  0  0  0  0
 57 62  1  0  0  0  0
 59 60  1  0  0  0  0
 60 61  1  0  0  0  0
 61 74  1  0  0  0  0
 62 82  1  0  0  0  0
 63 65  1  0  0  0  0
 63 73  1  0  0  0  0
 64 75  1  0  0  0  0
 66 67  1  0  0  0  0
M  CHG  1  75   1
M  ISO  4  38 100  62 101  74 100  82 101
M  END
> <Batch ID>
0039

> <Smiles>
CCc1cc(C[101CH2:1][101O:1]c2ccc3c(c2)CN(C(=O)C(NC(=O)C(C)NC)C(C)(C)C)C(C(=O)NC2CCCc4ccccc42)C3)cc(CCC[100NH:0][100C:0](=O)N2CCCC(n3nc(-c4ccc(Oc5ccc(F)cc5F)cc4)c(C(N)=O)c3N)C2)c1Cl

> <Shape>
0.223

> <Color>
0.074

> <Negative vol penalty>
0.000

$$$$

  -OEChem-04052317043D

 86 94  0     1  0  0  0  0  0999 V2000
  -20.2364  -23.5078   18.2847 C   0  0  0  0  0  0  0  0  0  0  0  0
  -21.5243  -23.2733   18.7554 C   0  0  0  0  0  0  0  0  0  0  0  0
  -23.5478  -28.7761   20.3802 C   0  0  0  0  0  0  0  0  0  0  0  0
  -24.9624  -28.5705   22.3279 C   0  0  0  0  0  0  0  0  0  0  0  0
  -19.1993  -22.6444   18.6353 C   0  0  0  0  0  0  0  0  0  0  0  0
  -21.7757  -22.1758   19.5781 C   0  0  0  0  0  0  0  0  0  0  0  0
  -25.9655  -19.6652   18.2412 C   0  0  0  0  0  0  0  0  0  0  0  0
  -22.4373  -28.9533   21.2054 C   0  0  0  0  0  0  0  0  0  0  0  0
  -23.8519  -28.7478   23.1532 C   0  0  0  0  0  0  0  0  0  0  0  0
  -27.1878  -20.2193   18.6192 C   0  0  0  0  0  0  0  0  0  0  0  0
  -20.3737  -27.0169   23.0537 C   0  0  0  0  0  0  0  0  0  0  0  0
  -19.2137  -26.3093   22.7387 C   0  0  0  0  0  0  0  0  0  0  0  0
  -27.3041  -18.6822   20.4747 C   0  0  0  0  0  0  0  0  0  0  0  0
  -18.0127  -28.3905   22.4868 C   0  0  0  0  0  0  0  0  0  0  0  0
  -24.8104  -28.5846   20.9414 C   0  0  0  0  0  0  0  0  0  0  0  0
  -26.8065  -29.4014   19.5790 C   0  0  0  0  0  0  0  0  0  0  0  0
  -19.4400  -21.5303   19.4548 C   0  0  0  0  0  0  0  0  0  0  0  0
  -25.3972  -18.6209   18.9848 C   0  0  0  0  0  0  0  0  0  0  0  0
  -20.7406  -21.2975   19.9411 C   0  0  0  0  0  0  0  0  0  0  0  0
  -26.0758  -18.1148   20.1026 C   0  0  0  0  0  0  0  0  0  0  0  0
  -22.5894  -28.9392   22.5918 C   0  0  0  0  0  0  0  0  0  0  0  0
  -27.8558  -19.7298   19.7377 C   0  0  0  0  0  0  0  0  0  0  0  0
  -20.3533  -28.4113   23.0853 C   0  0  0  0  0  0  0  0  0  0  0  0
  -18.0331  -26.9961   22.4552 C   0  0  0  0  0  0  0  0  0  0  0  0
  -19.1727  -29.0981   22.8018 C   0  0  0  0  0  0  0  0  0  0  0  0
  -25.9578  -28.4009   20.0896 C   0  0  0  0  0  0  0  0  0  0  0  0
  -31.2556  -21.4050   22.4862 C   0  0  0  0  0  0  0  0  0  0  0  0
  -30.9563  -20.4608   21.5265 C   0  0  0  0  0  0  0  0  0  0  0  0
  -27.7349  -28.7166   18.8336 C   0  0  0  0  0  0  0  0  0  0  0  0
  -33.2036  -21.3271   21.4816 C   0  0  0  0  0  0  0  0  0  0  0  0
  -26.7598  -30.8226   19.7624 C   0  0  0  0  0  0  0  0  0  0  0  0
  -22.7121  -18.2528   20.6457 C   0  0  0  0  0  0  0  0  0  0  0  0
  -23.7442  -15.1875   20.8919 C   0  0  0  0  0  0  0  0  0  0  0  0
  -26.3624  -12.9990   20.8404 C   0  0  0  0  0  0  0  0  0  0  0  0
  -31.2604  -24.4391   18.1865 C   0  0  0  0  0  0  0  0  0  0  0  0
  -18.2779  -20.6519   19.8455 C   0  0  0  0  0  0  0  0  0  0  0  0
  -24.0910  -18.0161   18.5484 C   0  0  0  0  0  0  0  0  0  0  0  0
  -25.5180  -16.9814   20.9228 C   0  0  0  0  0  0  0  0  0  0  0  0
  -18.7007  -19.3005   20.4158 C   0  0  0  0  0  0  0  0  0  0  0  0
  -27.8457  -23.8835   17.3452 C   0  0  0  0  0  0  0  0  0  0  0  0
  -19.8085  -19.4800   21.4489 C   0  0  0  0  0  0  0  0  0  0  0  0
  -27.1200  -25.0880   17.9472 C   0  0  0  0  0  0  0  0  0  0  0  0
  -29.0022  -23.4217   18.2291 C   0  0  0  0  0  0  0  0  0  0  0  0
  -29.2455  -25.6806   19.1841 C   0  0  0  0  0  0  0  0  0  0  0  0
  -21.0579  -20.1037   20.8154 C   0  0  1  0  0  0  0  0  0  0  0  0
  -23.3566  -17.3008   19.6783 C   0  0  1  0  0  0  0  0  0  0  0  0
  -28.1061  -26.2175   18.3010 C   0  0  2  0  0  0  0  0  0  0  0  0
  -26.8988  -10.5625   21.1103 C   0  0  0  0  0  0  0  0  0  0  0  0
  -28.5788  -23.6294   24.2273 C   0  0  0  0  0  0  0  0  0  0  0  0
  -30.4305  -24.3146   22.6892 C   0  0  0  0  0  0  0  0  0  0  0  0
  -23.4233  -15.4541   23.9145 C   0  0  0  0  0  0  0  0  0  0  0  0
  -24.8367  -13.4041   24.1754 C   0  0  0  0  0  0  0  0  0  0  0  0
  -22.6555  -13.2683   22.9727 C   0  0  0  0  0  0  0  0  0  0  0  0
  -27.4285  -12.8096   18.0861 C   0  0  0  0  0  0  0  0  0  0  0  0
  -30.3325  -21.9160   23.5203 C   0  0  0  0  0  0  0  0  0  0  0  0
  -29.6783  -19.7192   21.2656 C   0  0  0  0  0  0  0  0  0  1  0  0
  -34.6172  -21.6059   21.1467 C   0  0  0  0  0  0  0  0  0  0  0  0
  -34.8707  -23.0928   20.8322 C   0  0  0  0  0  0  0  0  0  0  0  0
  -34.0103  -23.5930   19.6699 C   0  0  0  0  0  0  0  0  0  0  0  0
  -34.3079  -25.0610   19.3504 C   0  0  0  0  0  0  0  0  0  0  0  0
  -33.4563  -25.5952   18.2034 C   0  0  0  0  0  0  0  0  0  0  0  0
  -24.6113  -14.4263   21.8655 C   0  0  1  0  0  0  0  0  0  0  0  0
  -26.5516  -11.6713   20.1292 C   0  0  2  0  0  0  0  0  0  0  0  0
  -29.5075  -23.1654   23.1023 C   0  0  0  0  0  0  0  0  0  0  0  0
  -23.8915  -14.1609   23.2179 C   0  0  0  0  0  0  0  0  0  0  0  0
  -26.3153  -27.1740   19.7011 N   0  0  0  0  0  0  0  0  0  0  0  0
  -32.5439  -21.9025   22.4623 N   0  0  0  0  0  0  0  0  0  0  0  0
  -27.3987  -27.3990   18.9385 N   0  0  0  0  0  0  0  0  0  0  0  0
  -24.2349  -16.4277   20.4595 N   0  0  0  0  0  0  0  0  0  0  0  0
  -29.9012  -24.5395   18.5262 N   0  0  0  0  0  0  0  0  0  0  0  0
  -28.7977  -29.1191   18.1050 N   0  0  0  0  0  0  0  0  0  0  0  0
  -25.7398  -31.3604   20.5590 N   0  0  0  0  0  0  0  0  0  0  0  0
  -21.7950  -19.1088   20.0662 N   0  0  0  0  0  0  0  0  0  0  0  0
  -25.0417  -13.2180   21.1705 N   0  0  0  0  0  0  0  0  0  0  0  0
  -32.0414  -25.5456   18.4971 N   0  0  0  0  0  0  0  0  0  0  0  0
  -27.6496  -11.7726   19.1267 N   0  3  0  0  0  0  0  0  0  0  0  0
  -27.5881  -31.5942   19.2220 O   0  0  0  0  0  0  0  0  0  0  0  0
  -23.0227  -18.2127   21.8305 O   0  0  0  0  0  0  0  0  0  0  0  0
  -22.6745  -14.6964   20.5230 O   0  0  0  0  0  0  0  0  0  0  0  0
  -27.2937  -13.7636   21.0826 O   0  0  0  0  0  0  0  0  0  0  0  0
  -31.7412  -23.4397   17.6415 O   0  0  0  0  0  0  0  0  0  0  0  0
  -21.5060  -29.1123   23.3974 O   0  0  0  0  0  0  0  0  0  0  0  0
  -29.0486  -20.2693   20.1092 O   0  0  0  0  0  0  0  0  0  1  0  0
  -16.9196  -26.3166   22.1513 F   0  0  0  0  0  0  0  0  0  0  0  0
  -19.1472  -30.4376   22.8294 F   0  0  0  0  0  0  0  0  0  0  0  0
  -32.3359  -20.1782   20.5476 S   0  0  0  0  0  0  0  0  0  0  0  0
  1  2  1  0  0  0  0
  1  5  2  0  0  0  0
  2  6  2  0  0  0  0
  3  8  2  0  0  0  0
  3 15  1  0  0  0  0
  4  9  1  0  0  0  0
  4 15  2  0  0  0  0
  5 17  1  0  0  0  0
  6 19  1  0  0  0  0
  7 10  2  0  0  0  0
  7 18  1  0  0  0  0
  8 21  1  0  0  0  0
  9 21  2  0  0  0  0
 10 22  1  0  0  0  0
 11 12  2  0  0  0  0
 11 23  1  0  0  0  0
 12 24  1  0  0  0  0
 13 20  1  0  0  0  0
 13 22  2  0  0  0  0
 14 24  2  0  0  0  0
 14 25  1  0  0  0  0
 15 26  1  0  0  0  0
 16 26  1  0  0  0  0
 16 29  2  0  0  0  0
 16 31  1  0  0  0  0
 17 19  2  0  0  0  0
 17 36  1  0  0  0  0
 18 20  2  0  0  0  0
 18 37  1  0  0  0  0
 19 45  1  0  0  0  0
 20 38  1  0  0  0  0
 21 82  1  0  0  0  0
 22 83  1  0  0  0  0
 23 25  2  0  0  0  0
 23 82  1  0  0  0  0
 24 84  1  0  0  0  0
 25 85  1  0  0  0  0
 26 66  2  0  0  0  0
 27 28  2  0  0  0  0
 27 55  1  0  0  0  0
 27 67  1  0  0  0  0
 28 56  1  0  0  0  0
 28 86  1  0  0  0  0
 29 68  1  0  0  0  0
 29 71  1  0  0  0  0
 30 57  1  0  0  0  0
 30 67  2  0  0  0  0
 30 86  1  0  0  0  0
 31 72  1  0  0  0  0
 31 77  2  0  0  0  0
 32 46  1  0  0  0  0
 32 73  1  0  0  0  0
 32 78  2  0  0  0  0
 33 62  1  0  0  0  0
 33 69  1  0  0  0  0
 33 79  2  0  0  0  0
 34 63  1  0  0  0  0
 34 74  1  0  0  0  0
 34 80  2  0  0  0  0
 35 70  1  0  0  0  0
 35 75  1  0  0  0  0
 35 81  2  0  0  0  0
 36 39  1  0  0  0  0
 37 46  1  0  0  0  0
 38 69  1  0  0  0  0
 39 41  1  0  0  0  0
 40 42  1  0  0  0  0
 40 43  1  0  0  0  0
 41 45  1  0  0  0  0
 42 47  1  0  0  0  0
 43 70  1  0  0  0  0
 44 47  1  0  0  0  0
 44 70  1  0  0  0  0
 45 73  1  0  0  0  0
 46 69  1  0  0  0  0
 47 68  1  0  0  0  0
 48 63  1  0  0  0  0
 49 64  1  0  0  0  0
 50 64  1  0  0  0  0
 51 65  1  0  0  0  0
 52 65  1  0  0  0  0
 53 65  1  0  0  0  0
 54 76  1  0  0  0  0
 55 64  1  0  0  0  0
 56 83  1  0  0  0  0
 57 58  1  0  0  0  0
 58 59  1  0  0  0  0
 59 60  1  0  0  0  0
 60 61  1  0  0  0  0
 61 75  1  0  0  0  0
 62 65  1  0  0  0  0
 62 74  1  0  0  0  0
 63 76  1  0  0  0  0
 66 68  1  0  0  0  0
M  CHG  1  76   1
M  ISO  4  35 100  56 101  75 100  83 101
M  END
> <Batch ID>
0039

> <Smiles>
CNC(C)C(=O)NC(C(=O)N1Cc2cc([101O:1][101CH2:1]c3sc(CCCCC[100NH:0][100C:0](=O)N4CCCC(n5nc(-c6ccc(Oc7ccc(F)cc7F)cc6)c(C(N)=O)c5N)C4)nc3CC(C)C)ccc2CC1C(=O)NC1CCCc2ccccc21)C(C)(C)C

> <Shape>
0.212

> <Color>
0.058

> <Negative vol penalty>
0.000

$$$$

  -OEChem-04052317043D

 85 93  0     1  0  0  0  0  0999 V2000
  -23.9675   -6.0384   23.6751 C   0  0  0  0  0  0  0  0  0  0  0  0
  -25.1631   -6.7498   23.6749 C   0  0  0  0  0  0  0  0  0  0  0  0
  -24.3802  -29.9401   20.6349 C   0  0  0  0  0  0  0  0  0  0  0  0
  -24.5417  -28.6715   22.6847 C   0  0  0  0  0  0  0  0  0  0  0  0
  -22.9221   -6.4341   22.8418 C   0  0  0  0  0  0  0  0  0  0  0  0
  -25.3143   -7.8567   22.8405 C   0  0  0  0  0  0  0  0  0  0  0  0
  -28.5567  -14.2385   22.5643 C   0  0  0  0  0  0  0  0  0  0  0  0
  -24.0629  -31.0837   21.3676 C   0  0  0  0  0  0  0  0  0  0  0  0
  -24.2245  -29.8152   23.4175 C   0  0  0  0  0  0  0  0  0  0  0  0
  -29.3941  -14.9862   21.7377 C   0  0  0  0  0  0  0  0  0  0  0  0
  -23.8111  -32.4838   25.8518 C   0  0  0  0  0  0  0  0  0  0  0  0
  -24.5691  -32.7562   26.9906 C   0  0  0  0  0  0  0  0  0  0  0  0
  -27.4921  -15.6250   20.3986 C   0  0  0  0  0  0  0  0  0  0  0  0
  -30.1609  -20.2420   20.7241 C   0  0  0  0  0  0  0  0  0  0  0  0
  -29.2054  -19.3243   18.7038 C   0  0  0  0  0  0  0  0  0  0  0  0
  -26.5646  -32.8753   25.6338 C   0  0  0  0  0  0  0  0  0  0  0  0
  -24.6195  -28.7339   21.2934 C   0  0  0  0  0  0  0  0  0  0  0  0
  -26.2299  -27.1104   20.1627 C   0  0  0  0  0  0  0  0  0  0  0  0
  -23.0571   -7.5522   22.0038 C   0  0  0  0  0  0  0  0  0  0  0  0
  -27.1798  -14.1695   22.3074 C   0  0  0  0  0  0  0  0  0  0  0  0
  -24.2702   -8.2669   21.9941 C   0  0  0  0  0  0  0  0  0  0  0  0
  -26.6389  -14.8778   21.2250 C   0  0  0  0  0  0  0  0  0  0  0  0
  -30.1787  -19.2925   19.7025 C   0  0  0  0  0  0  0  0  0  0  0  0
  -29.1698  -21.2233   20.7471 C   0  0  0  0  0  0  0  0  0  0  0  0
  -28.2143  -20.3056   18.7267 C   0  0  0  0  0  0  0  0  0  0  0  0
  -23.9851  -31.0213   22.7589 C   0  0  0  0  0  0  0  0  0  0  0  0
  -28.8623  -15.6773   20.6530 C   0  0  0  0  0  0  0  0  0  0  0  0
  -24.4299  -32.4070   24.6040 C   0  0  0  0  0  0  0  0  0  0  0  0
  -25.9459  -32.9520   26.8816 C   0  0  0  0  0  0  0  0  0  0  0  0
  -25.8066  -32.6028   24.4950 C   0  0  0  0  0  0  0  0  0  0  0  0
  -28.1965  -21.2551   19.7484 C   0  0  0  0  0  0  0  0  0  0  0  0
  -24.9467  -27.5520   20.5370 C   0  0  0  0  0  0  0  0  0  0  0  0
  -26.0034  -25.9501   19.4635 C   0  0  0  0  0  0  0  0  0  0  0  0
  -27.5121  -27.6965   20.4239 C   0  0  0  0  0  0  0  0  0  0  0  0
  -25.1459  -11.8340   21.5917 C   0  0  0  0  0  0  0  0  0  0  0  0
  -22.9380  -14.1901   21.9023 C   0  0  0  0  0  0  0  0  0  0  0  0
  -22.2334  -17.5285   21.8277 C   0  0  0  0  0  0  0  0  0  0  0  0
  -23.4006  -21.0478   18.8818 C   0  0  0  0  0  0  0  0  0  0  0  0
  -21.9162   -7.9134   21.0858 C   0  0  0  0  0  0  0  0  0  0  0  0
  -26.2861  -13.3801   23.2243 C   0  0  0  0  0  0  0  0  0  0  0  0
  -25.1646  -14.8527   20.9181 C   0  0  0  0  0  0  0  0  0  0  0  0
  -22.0233   -9.3215   20.5061 C   0  0  0  0  0  0  0  0  0  0  0  0
  -21.7009  -23.9490   17.7110 C   0  0  0  0  0  0  0  0  0  0  0  0
  -23.4346   -9.5797   19.9881 C   0  0  0  0  0  0  0  0  0  0  0  0
  -22.4957  -25.1076   18.3159 C   0  0  0  0  0  0  0  0  0  0  0  0
  -21.6229  -22.7593   18.6652 C   0  0  0  0  0  0  0  0  0  0  0  0
  -23.7199  -23.4371   19.7683 C   0  0  0  0  0  0  0  0  0  0  0  0
  -24.4636   -9.4879   21.1213 C   0  0  1  0  0  0  0  0  0  0  0  0
  -24.9738  -12.9640   22.5670 C   0  0  1  0  0  0  0  0  0  0  0  0
  -23.8737  -24.6391   18.8208 C   0  0  2  0  0  0  0  0  0  0  0  0
  -29.6893  -23.5916   21.3854 C   0  0  0  0  0  0  0  0  0  0  0  0
  -20.3324  -19.1467   22.0824 C   0  0  0  0  0  0  0  0  0  0  0  0
  -21.9319  -13.4424   19.1205 C   0  0  0  0  0  0  0  0  0  0  0  0
  -20.7240  -15.6341   19.0444 C   0  0  0  0  0  0  0  0  0  0  0  0
  -20.1307  -13.9446   20.7812 C   0  0  0  0  0  0  0  0  0  0  0  0
  -23.5194  -18.8544   24.1400 C   0  0  0  0  0  0  0  0  0  0  0  0
  -31.2517  -18.2312   19.6768 C   0  0  0  0  0  0  0  0  0  0  0  0
  -29.1535  -22.2368   21.8410 C   0  0  0  0  0  0  0  0  0  0  0  0
  -27.1753  -20.3371   17.6568 C   0  0  0  0  0  0  0  0  0  0  0  0
  -26.0378  -19.3135   17.8422 C   0  0  0  0  0  0  0  0  0  0  0  0
  -25.2786  -19.4495   19.1603 C   0  0  0  0  0  0  0  0  0  0  0  0
  -30.8435  -16.9755   20.4394 C   0  0  0  0  0  0  0  0  0  1  0  0
  -22.3159  -15.2019   20.9705 C   0  0  1  0  0  0  0  0  0  0  0  0
  -21.4648  -18.4174   22.7886 C   0  0  2  0  0  0  0  0  0  0  0  0
  -21.3037  -14.5548   19.9835 C   0  0  0  0  0  0  0  0  0  0  0  0
  -23.9768  -26.7387   20.1106 N   0  0  0  0  0  0  0  0  0  0  0  0
  -24.6509  -25.7743   19.4612 N   0  0  0  0  0  0  0  0  0  0  0  0
  -24.3328  -14.0616   21.8400 N   0  0  0  0  0  0  0  0  0  0  0  0
  -22.9629  -22.3637   19.1054 N   0  0  0  0  0  0  0  0  0  0  0  0
  -26.8311  -25.0733   18.8565 N   0  0  0  0  0  0  0  0  0  0  0  0
  -27.5644  -28.8897   21.1574 N   0  0  0  0  0  0  0  0  0  0  0  0
  -24.4412  -10.6925   21.9231 N   0  0  0  0  0  0  0  0  0  0  0  0
  -21.7420  -16.2401   21.8197 N   0  0  0  0  0  0  0  0  0  0  0  0
  -24.6855  -20.7579   19.3243 N   0  0  0  0  0  0  0  0  0  0  0  0
  -22.3725  -19.4328   23.3936 N   0  3  0  0  0  0  0  0  0  0  0  0
  -28.5786  -27.1862   20.0049 O   0  0  0  0  0  0  0  0  0  0  0  0
  -25.8636  -11.9870   20.6103 O   0  0  0  0  0  0  0  0  0  0  0  0
  -22.2138  -13.5428   22.6627 O   0  0  0  0  0  0  0  0  0  0  0  0
  -23.1731  -17.9370   21.1490 O   0  0  0  0  0  0  0  0  0  0  0  0
  -22.7004  -20.1960   18.3240 O   0  0  0  0  0  0  0  0  0  0  0  0
  -23.6758  -32.1372   23.4743 O   0  0  0  0  0  0  0  0  0  0  0  0
  -29.6776  -16.4074   19.8442 O   0  0  0  0  0  0  0  0  0  1  0  0
  -26.6734  -33.2152   27.9750 F   0  0  0  0  0  0  0  0  0  0  0  0
  -26.4065  -32.5315   23.2988 F   0  0  0  0  0  0  0  0  0  0  0  0
  -27.2425  -22.1976   19.7708 F   0  0  0  0  0  0  0  0  0  0  0  0
  1  2  1  0  0  0  0
  1  5  2  0  0  0  0
  2  6  2  0  0  0  0
  3  8  2  0  0  0  0
  3 17  1  0  0  0  0
  4  9  1  0  0  0  0
  4 17  2  0  0  0  0
  5 19  1  0  0  0  0
  6 21  1  0  0  0  0
  7 10  2  0  0  0  0
  7 20  1  0  0  0  0
  8 26  1  0  0  0  0
  9 26  2  0  0  0  0
 10 27  1  0  0  0  0
 11 12  2  0  0  0  0
 11 28  1  0  0  0  0
 12 29  1  0  0  0  0
 13 22  1  0  0  0  0
 13 27  2  0  0  0  0
 14 23  2  0  0  0  0
 14 24  1  0  0  0  0
 15 23  1  0  0  0  0
 15 25  2  0  0  0  0
 16 29  2  0  0  0  0
 16 30  1  0  0  0  0
 17 32  1  0  0  0  0
 18 32  1  0  0  0  0
 18 33  2  0  0  0  0
 18 34  1  0  0  0  0
 19 21  2  0  0  0  0
 19 39  1  0  0  0  0
 20 22  2  0  0  0  0
 20 40  1  0  0  0  0
 21 48  1  0  0  0  0
 22 41  1  0  0  0  0
 23 57  1  0  0  0  0
 24 31  2  0  0  0  0
 24 58  1  0  0  0  0
 25 31  1  0  0  0  0
 25 59  1  0  0  0  0
 26 81  1  0  0  0  0
 27 82  1  0  0  0  0
 28 30  2  0  0  0  0
 28 81  1  0  0  0  0
 29 83  1  0  0  0  0
 30 84  1  0  0  0  0
 31 85  1  0  0  0  0
 32 66  2  0  0  0  0
 33 67  1  0  0  0  0
 33 70  1  0  0  0  0
 34 71  1  0  0  0  0
 34 76  2  0  0  0  0
 35 49  1  0  0  0  0
 35 72  1  0  0  0  0
 35 77  2  0  0  0  0
 36 63  1  0  0  0  0
 36 68  1  0  0  0  0
 36 78  2  0  0  0  0
 37 64  1  0  0  0  0
 37 73  1  0  0  0  0
 37 79  2  0  0  0  0
 38 69  1  0  0  0  0
 38 74  1  0  0  0  0
 38 80  2  0  0  0  0
 39 42  1  0  0  0  0
 40 49  1  0  0  0  0
 41 68  1  0  0  0  0
 42 44  1  0  0  0  0
 43 45  1  0  0  0  0
 43 46  1  0  0  0  0
 44 48  1  0  0  0  0
 45 50  1  0  0  0  0
 46 69  1  0  0  0  0
 47 50  1  0  0  0  0
 47 69  1  0  0  0  0
 48 72  1  0  0  0  0
 49 68  1  0  0  0  0
 50 67  1  0  0  0  0
 51 58  1  0  0  0  0
 52 64  1  0  0  0  0
 53 65  1  0  0  0  0
 54 65  1  0  0  0  0
 55 65  1  0  0  0  0
 56 75  1  0  0  0  0
 57 62  1  0  0  0  0
 59 60  1  0  0  0  0
 60 61  1  0  0  0  0
 61 74  1  0  0  0  0
 62 82  1  0  0  0  0
 63 65  1  0  0  0  0
 63 73  1  0  0  0  0
 64 75  1  0  0  0  0
 66 67  1  0  0  0  0
M  CHG  1  75   1
M  ISO  4  38 100  62 101  74 100  82 101
M  END
> <Batch ID>
0039

> <Smiles>
CCc1cc(C[101CH2:1][101O:1]c2ccc3c(c2)CN(C(=O)C(NC(=O)C(C)NC)C(C)(C)C)C(C(=O)NC2CCCc4ccccc42)C3)cc(CCC[100NH:0][100C:0](=O)N2CCCC(n3nc(-c4ccc(Oc5ccc(F)cc5F)cc4)c(C(N)=O)c3N)C2)c1F

> <Shape>
0.255

> <Color>
0.074

> <Negative vol penalty>
0.000

$$$$

  -OEChem-04052317043D

 83 91  0     1  0  0  0  0  0999 V2000
  -18.3159  -27.1078   22.8141 C   0  0  0  0  0  0  0  0  0  0  0  0
  -19.2407  -26.2174   22.2780 C   0  0  0  0  0  0  0  0  0  0  0  0
  -25.6519  -16.1485   20.7054 C   0  0  0  0  0  0  0  0  0  0  0  0
  -26.0314  -15.8531   18.3377 C   0  0  0  0  0  0  0  0  0  0  0  0
  -18.7010  -28.4134   23.1159 C   0  0  0  0  0  0  0  0  0  0  0  0
  -20.5509  -26.6325   22.0425 C   0  0  0  0  0  0  0  0  0  0  0  0
  -27.2753  -24.1628   22.0447 C   0  0  0  0  0  0  0  0  0  0  0  0
  -25.0523  -14.8906   20.7663 C   0  0  0  0  0  0  0  0  0  0  0  0
  -25.4318  -14.5951   18.3986 C   0  0  0  0  0  0  0  0  0  0  0  0
  -28.4014  -24.1039   21.2248 C   0  0  0  0  0  0  0  0  0  0  0  0
  -26.0454  -11.6602   20.8715 C   0  0  0  0  0  0  0  0  0  0  0  0
  -26.4077  -10.8197   21.9240 C   0  0  0  0  0  0  0  0  0  0  0  0
  -28.9738  -26.3599   21.8590 C   0  0  0  0  0  0  0  0  0  0  0  0
  -24.1103  -10.7634   22.6697 C   0  0  0  0  0  0  0  0  0  0  0  0
  -26.1414  -16.6298   19.4911 C   0  0  0  0  0  0  0  0  0  0  0  0
  -28.1235  -18.2315   19.6080 C   0  0  0  0  0  0  0  0  0  0  0  0
  -20.0191  -28.8419   22.8929 C   0  0  0  0  0  0  0  0  0  0  0  0
  -26.9836  -25.3265   22.7708 C   0  0  0  0  0  0  0  0  0  0  0  0
  -20.9536  -27.9454   22.3403 C   0  0  0  0  0  0  0  0  0  0  0  0
  -27.8448  -26.4301   22.6894 C   0  0  0  0  0  0  0  0  0  0  0  0
  -32.3085  -26.0666   19.3287 C   0  0  0  0  0  0  0  0  0  0  0  0
  -24.9423  -14.1139   19.6130 C   0  0  0  0  0  0  0  0  0  0  0  0
  -29.2492  -25.2036   21.1296 C   0  0  0  0  0  0  0  0  0  0  0  0
  -24.7156  -12.0524   20.7180 C   0  0  0  0  0  0  0  0  0  0  0  0
  -25.4401  -10.3713   22.8231 C   0  0  0  0  0  0  0  0  0  0  0  0
  -23.7481  -11.6040   21.6171 C   0  0  0  0  0  0  0  0  0  0  0  0
  -26.7604  -17.9294   19.4274 C   0  0  0  0  0  0  0  0  0  0  0  0
  -32.4543  -26.5669   18.0579 C   0  0  0  0  0  0  0  0  0  0  0  0
  -33.4581  -25.2797   19.5312 C   0  0  0  0  0  0  0  0  0  0  0  0
  -28.1972  -19.5938   19.4489 C   0  0  0  0  0  0  0  0  0  0  0  0
  -29.2245  -17.3588   19.8938 C   0  0  0  0  0  0  0  0  0  0  0  0
  -24.5793  -27.4054   22.8052 C   0  0  0  0  0  0  0  0  0  0  0  0
  -26.1862  -28.6283   25.3438 C   0  0  0  0  0  0  0  0  0  0  0  0
  -29.1524  -28.9963   26.9909 C   0  0  0  0  0  0  0  0  0  0  0  0
  -26.8257  -24.2541   16.7020 C   0  0  0  0  0  0  0  0  0  0  0  0
  -20.3763  -30.2766   23.1909 C   0  0  0  0  0  0  0  0  0  0  0  0
  -25.7796  -25.3647   23.6715 C   0  0  0  0  0  0  0  0  0  0  0  0
  -27.5872  -27.6958   23.4641 C   0  0  0  0  0  0  0  0  0  0  0  0
  -21.8803  -30.5279   23.2605 C   0  0  0  0  0  0  0  0  0  0  0  0
  -24.5411  -23.0781   19.1667 C   0  0  0  0  0  0  0  0  0  0  0  0
  -22.5865  -29.8718   22.0784 C   0  0  0  0  0  0  0  0  0  0  0  0
  -25.0235  -21.6572   19.4642 C   0  0  0  0  0  0  0  0  0  0  0  0
  -24.7079  -23.4333   17.6909 C   0  0  0  0  0  0  0  0  0  0  0  0
  -26.5502  -21.8136   17.4534 C   0  0  0  0  0  0  0  0  0  0  0  0
  -22.3906  -28.3510   22.0935 C   0  0  1  0  0  0  0  0  0  0  0  0
  -25.2993  -26.7821   23.9673 C   0  0  1  0  0  0  0  0  0  0  0  0
  -26.4540  -21.4294   18.9398 C   0  0  2  0  0  0  0  0  0  0  0  0
  -30.1588  -30.0809   29.0178 C   0  0  0  0  0  0  0  0  0  0  0  0
  -26.0999  -31.3339   23.9358 C   0  0  0  0  0  0  0  0  0  0  0  0
  -27.8906  -32.1249   25.4966 C   0  0  0  0  0  0  0  0  0  0  0  0
  -25.6725  -31.4252   26.3982 C   0  0  0  0  0  0  0  0  0  0  0  0
  -34.2351  -26.3111   16.3025 C   0  0  0  0  0  0  0  0  0  0  0  0
  -29.9776  -26.3881   28.1201 C   0  0  0  0  0  0  0  0  0  0  0  0
  -31.1738  -26.3121   20.2793 C   0  0  0  0  0  0  0  0  0  1  0  0
  -31.5931  -27.4581   17.2578 C   0  0  0  0  0  0  0  0  0  0  0  0
  -30.7831  -26.7013   16.1845 C   0  0  0  0  0  0  0  0  0  0  0  0
  -29.8268  -25.6733   16.7964 C   0  0  0  0  0  0  0  0  0  0  0  0
  -29.0124  -24.9299   15.7426 C   0  0  0  0  0  0  0  0  0  0  0  0
  -27.2663  -29.6672   25.5257 C   0  0  1  0  0  0  0  0  0  0  0  0
  -29.5212  -28.8211   28.4530 C   0  0  2  0  0  0  0  0  0  0  0  0
  -26.7364  -31.1148   25.3229 C   0  0  0  0  0  0  0  0  0  0  0  0
  -26.0214  -19.0126   19.1733 N   0  0  0  0  0  0  0  0  0  0  0  0
  -34.2740  -25.2771   18.4738 N   0  0  0  0  0  0  0  0  0  0  0  0
  -33.6362  -26.0684   17.5944 N   0  0  0  0  0  0  0  0  0  0  0  0
  -26.9234  -20.0087   19.1931 N   0  0  0  0  0  0  0  0  0  0  0  0
  -26.3938  -27.6863   24.3262 N   0  0  0  0  0  0  0  0  0  0  0  0
  -26.0868  -23.1962   17.2569 N   0  0  0  0  0  0  0  0  0  0  0  0
  -29.2267  -20.4652   19.5044 N   0  0  0  0  0  0  0  0  0  0  0  0
  -28.9726  -15.9864   20.0255 N   0  0  0  0  0  0  0  0  0  0  0  0
  -23.2648  -27.7385   23.0708 N   0  0  0  0  0  0  0  0  0  0  0  0
  -27.8500  -29.4233   26.8403 N   0  0  0  0  0  0  0  0  0  0  0  0
  -28.1264  -23.9456   16.3229 N   0  0  0  0  0  0  0  0  0  0  0  0
  -30.4839  -27.6948   28.6130 N   0  3  0  0  0  0  0  0  0  0  0  0
  -30.3944  -17.7855   20.0448 O   0  0  0  0  0  0  0  0  0  0  0  0
  -25.1728  -27.5732   21.7463 O   0  0  0  0  0  0  0  0  0  0  0  0
  -25.1983  -28.6474   26.0821 O   0  0  0  0  0  0  0  0  0  0  0  0
  -29.9420  -28.7799   26.0742 O   0  0  0  0  0  0  0  0  0  0  0  0
  -26.3623  -25.3909   16.5602 O   0  0  0  0  0  0  0  0  0  0  0  0
  -24.3574  -12.8863   19.6721 O   0  0  0  0  0  0  0  0  0  0  0  0
  -30.3486  -25.1490   20.3295 O   0  0  0  0  0  0  0  0  0  1  0  0
  -25.7879   -9.5629   23.8329 F   0  0  0  0  0  0  0  0  0  0  0  0
  -22.4687  -11.9764   21.4741 F   0  0  0  0  0  0  0  0  0  0  0  0
  -33.8454  -24.3981   20.9277 Cl  0  0  0  0  0  0  0  0  0  0  0  0
  1  2  1  0  0  0  0
  1  5  2  0  0  0  0
  2  6  2  0  0  0  0
  3  8  2  0  0  0  0
  3 15  1  0  0  0  0
  4  9  1  0  0  0  0
  4 15  2  0  0  0  0
  5 17  1  0  0  0  0
  6 19  1  0  0  0  0
  7 10  2  0  0  0  0
  7 18  1  0  0  0  0
  8 22  1  0  0  0  0
  9 22  2  0  0  0  0
 10 23  1  0  0  0  0
 11 12  2  0  0  0  0
 11 24  1  0  0  0  0
 12 25  1  0  0  0  0
 13 20  1  0  0  0  0
 13 23  2  0  0  0  0
 14 25  2  0  0  0  0
 14 26  1  0  0  0  0
 15 27  1  0  0  0  0
 16 27  1  0  0  0  0
 16 30  2  0  0  0  0
 16 31  1  0  0  0  0
 17 19  2  0  0  0  0
 17 36  1  0  0  0  0
 18 20  2  0  0  0  0
 18 37  1  0  0  0  0
 19 45  1  0  0  0  0
 20 38  1  0  0  0  0
 21 28  2  0  0  0  0
 21 29  1  0  0  0  0
 21 54  1  0  0  0  0
 22 79  1  0  0  0  0
 23 80  1  0  0  0  0
 24 26  2  0  0  0  0
 24 79  1  0  0  0  0
 25 81  1  0  0  0  0
 26 82  1  0  0  0  0
 27 62  2  0  0  0  0
 28 55  1  0  0  0  0
 28 64  1  0  0  0  0
 29 63  2  0  0  0  0
 29 83  1  0  0  0  0
 30 65  1  0  0  0  0
 30 68  1  0  0  0  0
 31 69  1  0  0  0  0
 31 74  2  0  0  0  0
 32 46  1  0  0  0  0
 32 70  1  0  0  0  0
 32 75  2  0  0  0  0
 33 59  1  0  0  0  0
 33 66  1  0  0  0  0
 33 76  2  0  0  0  0
 34 60  1  0  0  0  0
 34 71  1  0  0  0  0
 34 77  2  0  0  0  0
 35 67  1  0  0  0  0
 35 72  1  0  0  0  0
 35 78  2  0  0  0  0
 36 39  1  0  0  0  0
 37 46  1  0  0  0  0
 38 66  1  0  0  0  0
 39 41  1  0  0  0  0
 40 42  1  0  0  0  0
 40 43  1  0  0  0  0
 41 45  1  0  0  0  0
 42 47  1  0  0  0  0
 43 67  1  0  0  0  0
 44 47  1  0  0  0  0
 44 67  1  0  0  0  0
 45 70  1  0  0  0  0
 46 66  1  0  0  0  0
 47 65  1  0  0  0  0
 48 60  1  0  0  0  0
 49 61  1  0  0  0  0
 50 61  1  0  0  0  0
 51 61  1  0  0  0  0
 52 64  1  0  0  0  0
 53 73  1  0  0  0  0
 54 80  1  0  0  0  0
 55 56  1  0  0  0  0
 56 57  1  0  0  0  0
 57 58  1  0  0  0  0
 58 72  1  0  0  0  0
 59 61  1  0  0  0  0
 59 71  1  0  0  0  0
 60 73  1  0  0  0  0
 62 65  1  0  0  0  0
 63 64  1  0  0  0  0
M  CHG  1  73   1
M  ISO  4  35 100  54 101  72 100  80 101
M  END
> <Batch ID>
0039

> <Smiles>
CNC(C)C(=O)NC(C(=O)N1Cc2cc([101O:1][101CH2:1]c3c(Cl)nn(C)c3CCCC[100NH:0][100C:0](=O)N3CCCC(n4nc(-c5ccc(Oc6ccc(F)cc6F)cc5)c(C(N)=O)c4N)C3)ccc2CC1C(=O)NC1CCCc2ccccc21)C(C)(C)C

> <Shape>
0.216

> <Color>
0.081

> <Negative vol penalty>
0.000

$$$$

  -OEChem-04052317043D

 83 91  0     1  0  0  0  0  0999 V2000
  -28.5624  -24.9224   17.2528 C   0  0  0  0  0  0  0  0  0  0  0  0
  -27.4169  -25.0411   18.0333 C   0  0  0  0  0  0  0  0  0  0  0  0
  -24.0475  -12.3825   19.5373 C   0  0  0  0  0  0  0  0  0  0  0  0
  -25.0475  -13.0971   21.6172 C   0  0  0  0  0  0  0  0  0  0  0  0
  -29.7222  -25.6087   17.6100 C   0  0  0  0  0  0  0  0  0  0  0  0
  -27.4309  -25.8456   19.1722 C   0  0  0  0  0  0  0  0  0  0  0  0
  -23.3088  -28.7641   19.5401 C   0  0  0  0  0  0  0  0  0  0  0  0
  -25.0094  -11.3792   19.4195 C   0  0  0  0  0  0  0  0  0  0  0  0
  -26.0094  -12.0938   21.4995 C   0  0  0  0  0  0  0  0  0  0  0  0
  -22.1375  -28.1577   19.9917 C   0  0  0  0  0  0  0  0  0  0  0  0
  -26.2092   -8.7624   22.0304 C   0  0  0  0  0  0  0  0  0  0  0  0
  -26.4967   -8.0059   23.1665 C   0  0  0  0  0  0  0  0  0  0  0  0
  -22.5237  -29.0650   22.1932 C   0  0  0  0  0  0  0  0  0  0  0  0
  -22.6980  -25.0347   22.8137 C   0  0  0  0  0  0  0  0  0  0  0  0
  -28.7983   -8.7340   23.0687 C   0  0  0  0  0  0  0  0  0  0  0  0
  -21.3926  -23.0693   23.1128 C   0  0  0  0  0  0  0  0  0  0  0  0
  -24.0666  -13.2415   20.6361 C   0  0  0  0  0  0  0  0  0  0  0  0
  -21.8206  -14.1851   21.3928 C   0  0  0  0  0  0  0  0  0  0  0  0
  -29.7476  -26.4296   18.7485 C   0  0  0  0  0  0  0  0  0  0  0  0
  -24.1034  -29.5178   20.4158 C   0  0  0  0  0  0  0  0  0  0  0  0
  -28.5926  -26.5425   19.5457 C   0  0  0  0  0  0  0  0  0  0  0  0
  -23.7033  -29.6821   21.7496 C   0  0  0  0  0  0  0  0  0  0  0  0
  -21.4673  -24.4527   23.0963 C   0  0  0  0  0  0  0  0  0  0  0  0
  -23.8009  -24.2268   22.5598 C   0  0  0  0  0  0  0  0  0  0  0  0
  -25.9903  -11.2349   20.4006 C   0  0  0  0  0  0  0  0  0  0  0  0
  -21.7463  -28.3056   21.3192 C   0  0  0  0  0  0  0  0  0  0  0  0
  -27.2162   -9.5047   21.4135 C   0  0  0  0  0  0  0  0  0  0  0  0
  -27.7913   -7.9917   23.6856 C   0  0  0  0  0  0  0  0  0  0  0  0
  -28.5107   -9.4905   21.9327 C   0  0  0  0  0  0  0  0  0  0  0  0
  -23.0736  -14.2784   20.7580 C   0  0  0  0  0  0  0  0  0  0  0  0
  -23.6218  -22.8535   22.6006 C   0  0  0  0  0  0  0  0  0  0  0  0
  -21.2620  -15.4298   21.2346 C   0  0  0  0  0  0  0  0  0  0  0  0
  -21.2156  -13.0727   22.0653 C   0  0  0  0  0  0  0  0  0  0  0  0
  -27.0815  -29.2882   21.5030 C   0  0  0  0  0  0  0  0  0  0  0  0
  -23.7125  -20.8432   20.3391 C   0  0  0  0  0  0  0  0  0  0  0  0
  -26.4011  -32.1647   22.8392 C   0  0  0  0  0  0  0  0  0  0  0  0
  -24.0337  -34.3419   23.9801 C   0  0  0  0  0  0  0  0  0  0  0  0
  -31.0386  -27.1146   19.1209 C   0  0  0  0  0  0  0  0  0  0  0  0
  -25.3501  -30.1878   19.9065 C   0  0  0  0  0  0  0  0  0  0  0  0
  -24.5106  -30.4979   22.7250 C   0  0  0  0  0  0  0  0  0  0  0  0
  -30.8596  -28.2423   20.1341 C   0  0  0  0  0  0  0  0  0  0  0  0
  -21.2666  -19.1994   18.3006 C   0  0  0  0  0  0  0  0  0  0  0  0
  -29.9612  -27.7914   21.2815 C   0  0  0  0  0  0  0  0  0  0  0  0
  -21.3590  -17.7379   18.7373 C   0  0  0  0  0  0  0  0  0  0  0  0
  -22.6316  -19.8797   18.3347 C   0  0  0  0  0  0  0  0  0  0  0  0
  -23.4162  -18.3284   20.0953 C   0  0  0  0  0  0  0  0  0  0  0  0
  -28.5611  -27.4251   20.7746 C   0  0  1  0  0  0  0  0  0  0  0  0
  -26.3516  -30.5064   21.0123 C   0  0  1  0  0  0  0  0  0  0  0  0
  -22.0539  -17.6124   20.1047 C   0  0  2  0  0  0  0  0  0  0  0  0
  -25.1221  -24.8439   22.2546 C   0  0  0  0  0  0  0  0  0  0  0  0
  -25.5790  -21.6485   23.6187 C   0  0  0  0  0  0  0  0  0  0  0  0
  -23.7846  -36.5976   25.0511 C   0  0  0  0  0  0  0  0  0  0  0  0
  -27.2756  -30.9880   25.5151 C   0  0  0  0  0  0  0  0  0  0  0  0
  -26.1329  -32.9037   26.6519 C   0  0  0  0  0  0  0  0  0  0  0  0
  -28.0430  -33.3328   25.1059 C   0  0  0  0  0  0  0  0  0  0  0  0
  -22.4762  -35.3858   21.6902 C   0  0  0  0  0  0  0  0  0  0  0  0
  -20.2522  -25.3003   23.3769 C   0  0  0  0  0  0  0  0  0  0  0  0
  -24.3548  -20.5980   21.6812 C   0  0  0  0  0  0  0  0  0  0  0  0
  -19.4411  -25.6472   22.1265 C   0  0  0  0  0  0  0  0  0  0  0  0
  -20.2112  -26.4997   21.1246 C   0  0  0  0  0  0  0  0  0  1  0  0
  -24.7712  -21.9365   22.3368 C   0  0  1  0  0  0  0  0  0  0  0  0
  -25.8123  -32.6211   24.1522 C   0  0  1  0  0  0  0  0  0  0  0  0
  -23.8324  -35.8274   23.7407 C   0  0  2  0  0  0  0  0  0  0  0  0
  -26.8015  -32.4443   25.3386 C   0  0  0  0  0  0  0  0  0  0  0  0
  -22.4418  -22.2517   22.8713 N   0  0  0  0  0  0  0  0  0  0  0  0
  -23.2982  -15.4869   20.2354 N   0  0  0  0  0  0  0  0  0  0  0  0
  -22.1786  -16.1644   20.5414 N   0  0  0  0  0  0  0  0  0  0  0  0
  -25.7247  -31.1280   22.1807 N   0  0  0  0  0  0  0  0  0  0  0  0
  -23.2687  -19.7188   19.6429 N   0  0  0  0  0  0  0  0  0  0  0  0
  -20.0810  -15.9567   21.6222 N   0  0  0  0  0  0  0  0  0  0  0  0
  -21.9274  -11.8674   22.1364 N   0  0  0  0  0  0  0  0  0  0  0  0
  -27.7869  -28.6210   20.5198 N   0  0  0  0  0  0  0  0  0  0  0  0
  -25.3677  -33.9950   23.9445 N   0  0  0  0  0  0  0  0  0  0  0  0
  -22.5564  -36.0659   23.0086 N   0  3  0  0  0  0  0  0  0  0  0  0
  -20.0708  -13.1404   22.5735 O   0  0  0  0  0  0  0  0  0  0  0  0
  -27.0113  -28.9775   22.6863 O   0  0  0  0  0  0  0  0  0  0  0  0
  -23.6066  -22.0005   19.9248 O   0  0  0  0  0  0  0  0  0  0  0  0
  -27.4195  -32.7127   22.4100 O   0  0  0  0  0  0  0  0  0  0  0  0
  -23.1010  -33.5674   24.1823 O   0  0  0  0  0  0  0  0  0  0  0  0
  -26.9289  -10.2558   20.2862 O   0  0  0  0  0  0  0  0  0  0  0  0
  -20.6038  -27.7142   21.7627 O   0  0  0  0  0  0  0  0  0  1  0  0
  -28.0670   -7.2664   24.7775 F   0  0  0  0  0  0  0  0  0  0  0  0
  -29.4821  -10.2026   21.3450 F   0  0  0  0  0  0  0  0  0  0  0  0
  1  2  1  0  0  0  0
  1  5  2  0  0  0  0
  2  6  2  0  0  0  0
  3  8  2  0  0  0  0
  3 17  1  0  0  0  0
  4  9  1  0  0  0  0
  4 17  2  0  0  0  0
  5 19  1  0  0  0  0
  6 21  1  0  0  0  0
  7 10  2  0  0  0  0
  7 20  1  0  0  0  0
  8 25  1  0  0  0  0
  9 25  2  0  0  0  0
 10 26  1  0  0  0  0
 11 12  2  0  0  0  0
 11 27  1  0  0  0  0
 12 28  1  0  0  0  0
 13 22  1  0  0  0  0
 13 26  2  0  0  0  0
 14 23  2  0  0  0  0
 14 24  1  0  0  0  0
 15 28  2  0  0  0  0
 15 29  1  0  0  0  0
 16 23  1  0  0  0  0
 16 65  2  0  0  0  0
 17 30  1  0  0  0  0
 18 30  1  0  0  0  0
 18 32  2  0  0  0  0
 18 33  1  0  0  0  0
 19 21  2  0  0  0  0
 19 38  1  0  0  0  0
 20 22  2  0  0  0  0
 20 39  1  0  0  0  0
 21 47  1  0  0  0  0
 22 40  1  0  0  0  0
 23 57  1  0  0  0  0
 24 31  2  0  0  0  0
 24 50  1  0  0  0  0
 25 80  1  0  0  0  0
 26 81  1  0  0  0  0
 27 29  2  0  0  0  0
 27 80  1  0  0  0  0
 28 82  1  0  0  0  0
 29 83  1  0  0  0  0
 30 66  2  0  0  0  0
 31 61  1  0  0  0  0
 31 65  1  0  0  0  0
 32 67  1  0  0  0  0
 32 70  1  0  0  0  0
 33 71  1  0  0  0  0
 33 75  2  0  0  0  0
 34 48  1  0  0  0  0
 34 72  1  0  0  0  0
 34 76  2  0  0  0  0
 35 58  1  0  0  0  0
 35 69  1  0  0  0  0
 35 77  2  0  0  0  0
 36 62  1  0  0  0  0
 36 68  1  0  0  0  0
 36 78  2  0  0  0  0
 37 63  1  0  0  0  0
 37 73  1  0  0  0  0
 37 79  2  0  0  0  0
 38 41  1  0  0  0  0
 39 48  1  0  0  0  0
 40 68  1  0  0  0  0
 41 43  1  0  0  0  0
 42 44  1  0  0  0  0
 42 45  1  0  0  0  0
 43 47  1  0  0  0  0
 44 49  1  0  0  0  0
 45 69  1  0  0  0  0
 46 49  1  0  0  0  0
 46 69  1  0  0  0  0
 47 72  1  0  0  0  0
 48 68  1  0  0  0  0
 49 67  1  0  0  0  0
 51 61  1  0  0  0  0
 52 63  1  0  0  0  0
 53 64  1  0  0  0  0
 54 64  1  0  0  0  0
 55 64  1  0  0  0  0
 56 74  1  0  0  0  0
 57 59  1  0  0  0  0
 58 61  1  0  0  0  0
 59 60  1  0  0  0  0
 60 81  1  0  0  0  0
 62 64  1  0  0  0  0
 62 73  1  0  0  0  0
 63 74  1  0  0  0  0
 66 67  1  0  0  0  0
M  CHG  1  74   1
M  ISO  4  35 100  58 100  60 101  81 101
M  END
> <Batch ID>
0039

> <Smiles>
CNC(C)C(=O)NC(C(=O)N1Cc2cc([101O:1][101CH2:1]CCc3cnc(C(C)[100CH2:0][100C:0](=O)N4CCCC(n5nc(-c6ccc(Oc7ccc(F)cc7F)cc6)c(C(N)=O)c5N)C4)c(C)c3)ccc2CC1C(=O)NC1CCCc2ccccc21)C(C)(C)C

> <Shape>
0.244

> <Color>
0.068

> <Negative vol penalty>
0.000

$$$$

  -OEChem-04052317043D

 85 93  0     1  0  0  0  0  0999 V2000
  -31.3840  -23.9004   24.1728 C   0  0  0  0  0  0  0  0  0  0  0  0
  -31.1983  -24.4180   22.8949 C   0  0  0  0  0  0  0  0  0  0  0  0
  -26.3865  -13.1521   21.0956 C   0  0  0  0  0  0  0  0  0  0  0  0
  -25.0391  -14.4887   19.6006 C   0  0  0  0  0  0  0  0  0  0  0  0
  -30.2822  -23.5056   24.9306 C   0  0  0  0  0  0  0  0  0  0  0  0
  -29.9108  -24.5400   22.3735 C   0  0  0  0  0  0  0  0  0  0  0  0
  -27.8482  -28.9446   18.6518 C   0  0  0  0  0  0  0  0  0  0  0  0
  -28.8501  -23.9496   13.9386 C   0  0  0  0  0  0  0  0  0  0  0  0
  -28.0491  -24.9588   13.4040 C   0  0  0  0  0  0  0  0  0  0  0  0
  -25.2611  -12.4039   21.4410 C   0  0  0  0  0  0  0  0  0  0  0  0
  -23.9137  -13.7405   19.9460 C   0  0  0  0  0  0  0  0  0  0  0  0
  -27.6686  -28.9973   17.2703 C   0  0  0  0  0  0  0  0  0  0  0  0
  -23.4385   -9.8866   20.1091 C   0  0  0  0  0  0  0  0  0  0  0  0
  -23.5722   -8.4990   20.1569 C   0  0  0  0  0  0  0  0  0  0  0  0
  -25.3480  -28.4034   17.5554 C   0  0  0  0  0  0  0  0  0  0  0  0
  -27.4181  -23.8424   15.8815 C   0  0  0  0  0  0  0  0  0  0  0  0
  -22.9478   -8.5193   22.4907 C   0  0  0  0  0  0  0  0  0  0  0  0
  -26.2755  -14.1945   20.1754 C   0  0  0  0  0  0  0  0  0  0  0  0
  -28.3423  -14.7094   18.7715 C   0  0  0  0  0  0  0  0  0  0  0  0
  -28.9799  -23.6319   24.4220 C   0  0  0  0  0  0  0  0  0  0  0  0
  -26.7799  -28.6097   19.4962 C   0  0  0  0  0  0  0  0  0  0  0  0
  -28.7907  -24.1453   23.1247 C   0  0  0  0  0  0  0  0  0  0  0  0
  -25.5161  -28.3496   18.9475 C   0  0  0  0  0  0  0  0  0  0  0  0
  -28.5345  -23.3914   15.1773 C   0  0  0  0  0  0  0  0  0  0  0  0
  -26.9328  -25.4098   14.1082 C   0  0  0  0  0  0  0  0  0  0  0  0
  -24.0247  -12.6981   20.8662 C   0  0  0  0  0  0  0  0  0  0  0  0
  -26.4191  -28.7239   16.7216 C   0  0  0  0  0  0  0  0  0  0  0  0
  -23.0595  -10.5906   21.2521 C   0  0  0  0  0  0  0  0  0  0  0  0
  -23.3268   -7.8154   21.3477 C   0  0  0  0  0  0  0  0  0  0  0  0
  -22.8141   -9.9069   22.4429 C   0  0  0  0  0  0  0  0  0  0  0  0
  -26.6172  -24.8515   15.3470 C   0  0  0  0  0  0  0  0  0  0  0  0
  -27.4376  -14.9681   19.8186 C   0  0  0  0  0  0  0  0  0  0  0  0
  -29.2610  -15.7273   18.8522 C   0  0  0  0  0  0  0  0  0  0  0  0
  -28.3515  -13.6444   17.8117 C   0  0  0  0  0  0  0  0  0  0  0  0
  -26.1976  -26.2552   21.5508 C   0  0  0  0  0  0  0  0  0  0  0  0
  -23.5506  -28.0101   22.2109 C   0  0  0  0  0  0  0  0  0  0  0  0
  -21.2864  -30.3417   21.1699 C   0  0  0  0  0  0  0  0  0  0  0  0
  -30.4917  -21.1327   19.4946 C   0  0  0  0  0  0  0  0  0  0  0  0
  -27.8232  -23.1477   25.2600 C   0  0  0  0  0  0  0  0  0  0  0  0
  -26.9835  -28.5833   20.9863 C   0  0  0  0  0  0  0  0  0  0  0  0
  -24.3318  -28.0050   19.8119 C   0  0  0  0  0  0  0  0  0  0  0  0
  -26.4672  -23.6586   24.7798 C   0  0  0  0  0  0  0  0  0  0  0  0
  -30.0162  -19.2030   22.4488 C   0  0  0  0  0  0  0  0  0  0  0  0
  -26.3404  -23.4963   23.2683 C   0  0  0  0  0  0  0  0  0  0  0  0
  -29.3722  -17.9113   21.9422 C   0  0  0  0  0  0  0  0  0  0  0  0
  -29.5318  -20.4205   21.6644 C   0  0  0  0  0  0  0  0  0  0  0  0
  -29.0401  -19.0234   19.6946 C   0  0  0  0  0  0  0  0  0  0  0  0
  -27.4080  -24.3164   22.5340 C   0  0  1  0  0  0  0  0  0  0  0  0
  -25.9515  -27.7283   21.7153 C   0  0  1  0  0  0  0  0  0  0  0  0
  -29.5400  -17.7613   20.4182 C   0  0  2  0  0  0  0  0  0  0  0  0
  -25.4564  -26.0319   12.1786 C   0  0  0  0  0  0  0  0  0  0  0  0
  -19.2134  -31.5443   21.9142 C   0  0  0  0  0  0  0  0  0  0  0  0
  -21.9044  -25.4967   21.6792 C   0  0  0  0  0  0  0  0  0  0  0  0
  -19.8732  -26.9493   21.4992 C   0  0  0  0  0  0  0  0  0  0  0  0
  -21.1442  -26.8455   23.6431 C   0  0  0  0  0  0  0  0  0  0  0  0
  -22.6114  -32.9816   20.9847 C   0  0  0  0  0  0  0  0  0  0  0  0
  -29.3909  -22.3125   15.7490 C   0  0  0  0  0  0  0  0  0  0  0  0
  -30.5499  -22.8177   16.6309 C   0  0  0  0  0  0  0  0  0  0  0  0
  -26.8707  -27.8182   13.2635 C   0  0  0  0  0  0  0  0  0  0  0  0
  -31.3939  -21.7087   17.2556 C   0  0  0  0  0  0  0  0  0  0  0  0
  -27.3679  -28.4561   14.5573 C   0  0  0  0  0  0  0  0  0  1  0  0
  -26.0874  -26.5109   13.4916 C   0  0  2  0  0  0  0  0  0  0  0  0
  -22.1431  -28.0675   21.6680 C   0  0  1  0  0  0  0  0  0  0  0  0
  -20.7324  -31.5813   21.8489 C   0  0  2  0  0  0  0  0  0  0  0  0
  -21.2888  -26.8443   22.1057 C   0  0  0  0  0  0  0  0  0  0  0  0
  -27.7529  -16.0643   20.5135 N   0  0  0  0  0  0  0  0  0  0  0  0
  -28.8662  -16.5034   19.9020 N   0  0  0  0  0  0  0  0  0  0  0  0
  -24.5829  -27.9857   21.2625 N   0  0  0  0  0  0  0  0  0  0  0  0
  -29.7204  -20.2147   20.2263 N   0  0  0  0  0  0  0  0  0  0  0  0
  -30.3599  -16.0252   18.1270 N   0  0  0  0  0  0  0  0  0  0  0  0
  -27.3334  -12.6829   17.8709 N   0  0  0  0  0  0  0  0  0  0  0  0
  -27.0391  -25.7155   22.5047 N   0  0  0  0  0  0  0  0  0  0  0  0
  -21.5981  -29.3559   22.0821 N   0  0  0  0  0  0  0  0  0  0  0  0
  -30.6255  -20.8600   18.1387 N   0  0  0  0  0  0  0  0  0  0  0  0
  -21.1412  -32.8060   21.1047 N   0  3  0  0  0  0  0  0  0  0  0  0
  -29.2455  -13.5390   16.9381 O   0  0  0  0  0  0  0  0  0  0  0  0
  -25.6625  -25.6526   20.6276 O   0  0  0  0  0  0  0  0  0  0  0  0
  -23.7278  -27.9950   23.4316 O   0  0  0  0  0  0  0  0  0  0  0  0
  -21.4250  -30.2552   19.9517 O   0  0  0  0  0  0  0  0  0  0  0  0
  -31.0263  -22.1191   20.0125 O   0  0  0  0  0  0  0  0  0  0  0  0
  -22.9264  -11.9681   21.2029 O   0  0  0  0  0  0  0  0  0  0  0  0
  -26.2412  -28.7740   15.3734 O   0  0  0  0  0  0  0  0  0  1  0  0
  -23.4537   -6.4827   21.3930 F   0  0  0  0  0  0  0  0  0  0  0  0
  -22.4485  -10.5776   23.5440 F   0  0  0  0  0  0  0  0  0  0  0  0
  -25.2444  -25.3852   16.2470 Cl  0  0  0  0  0  0  0  0  0  0  0  0
  1  2  1  0  0  0  0
  1  5  2  0  0  0  0
  2  6  2  0  0  0  0
  3 10  2  0  0  0  0
  3 18  1  0  0  0  0
  4 11  1  0  0  0  0
  4 18  2  0  0  0  0
  5 20  1  0  0  0  0
  6 22  1  0  0  0  0
  7 12  2  0  0  0  0
  7 21  1  0  0  0  0
  8  9  2  0  0  0  0
  8 24  1  0  0  0  0
  9 25  1  0  0  0  0
 10 26  1  0  0  0  0
 11 26  2  0  0  0  0
 12 27  1  0  0  0  0
 13 14  2  0  0  0  0
 13 28  1  0  0  0  0
 14 29  1  0  0  0  0
 15 23  1  0  0  0  0
 15 27  2  0  0  0  0
 16 24  2  0  0  0  0
 16 31  1  0  0  0  0
 17 29  2  0  0  0  0
 17 30  1  0  0  0  0
 18 32  1  0  0  0  0
 19 32  1  0  0  0  0
 19 33  2  0  0  0  0
 19 34  1  0  0  0  0
 20 22  2  0  0  0  0
 20 39  1  0  0  0  0
 21 23  2  0  0  0  0
 21 40  1  0  0  0  0
 22 48  1  0  0  0  0
 23 41  1  0  0  0  0
 24 57  1  0  0  0  0
 25 31  2  0  0  0  0
 25 62  1  0  0  0  0
 26 81  1  0  0  0  0
 27 82  1  0  0  0  0
 28 30  2  0  0  0  0
 28 81  1  0  0  0  0
 29 83  1  0  0  0  0
 30 84  1  0  0  0  0
 31 85  1  0  0  0  0
 32 66  2  0  0  0  0
 33 67  1  0  0  0  0
 33 70  1  0  0  0  0
 34 71  1  0  0  0  0
 34 76  2  0  0  0  0
 35 49  1  0  0  0  0
 35 72  1  0  0  0  0
 35 77  2  0  0  0  0
 36 63  1  0  0  0  0
 36 68  1  0  0  0  0
 36 78  2  0  0  0  0
 37 64  1  0  0  0  0
 37 73  1  0  0  0  0
 37 79  2  0  0  0  0
 38 69  1  0  0  0  0
 38 74  1  0  0  0  0
 38 80  2  0  0  0  0
 39 42  1  0  0  0  0
 40 49  1  0  0  0  0
 41 68  1  0  0  0  0
 42 44  1  0  0  0  0
 43 45  1  0  0  0  0
 43 46  1  0  0  0  0
 44 48  1  0  0  0  0
 45 50  1  0  0  0  0
 46 69  1  0  0  0  0
 47 50  1  0  0  0  0
 47 69  1  0  0  0  0
 48 72  1  0  0  0  0
 49 68  1  0  0  0  0
 50 67  1  0  0  0  0
 51 62  1  0  0  0  0
 52 64  1  0  0  0  0
 53 65  1  0  0  0  0
 54 65  1  0  0  0  0
 55 65  1  0  0  0  0
 56 75  1  0  0  0  0
 57 58  1  0  0  0  0
 58 60  1  0  0  0  0
 59 61  1  0  0  0  0
 59 62  1  0  0  0  0
 60 74  1  0  0  0  0
 61 82  1  0  0  0  0
 63 65  1  0  0  0  0
 63 73  1  0  0  0  0
 64 75  1  0  0  0  0
 66 67  1  0  0  0  0
M  CHG  1  75   1
M  ISO  4  38 100  61 101  74 100  82 101
M  END
> <Batch ID>
0039

> <Smiles>
CNC(C)C(=O)NC(C(=O)N1Cc2cc([101O:1][101CH2:1]CC(C)c3ccc(CCC[100NH:0][100C:0](=O)N4CCCC(n5nc(-c6ccc(Oc7ccc(F)cc7F)cc6)c(C(N)=O)c5N)C4)cc3Cl)ccc2CC1C(=O)NC1CCCc2ccccc21)C(C)(C)C

> <Shape>
0.200

> <Color>
0.072

> <Negative vol penalty>
0.000

$$$$

  -OEChem-04052317043D

 84 92  0     1  0  0  0  0  0999 V2000
  -42.1222  -24.9605   25.5594 C   0  0  0  0  0  0  0  0  0  0  0  0
  -41.2692  -24.0669   24.9197 C   0  0  0  0  0  0  0  0  0  0  0  0
  -23.0744   -9.8689   19.9410 C   0  0  0  0  0  0  0  0  0  0  0  0
  -23.8386   -9.8735   22.2329 C   0  0  0  0  0  0  0  0  0  0  0  0
  -41.7140  -26.2751   25.7809 C   0  0  0  0  0  0  0  0  0  0  0  0
  -40.0069  -24.4871   24.5021 C   0  0  0  0  0  0  0  0  0  0  0  0
  -36.9826  -22.6506   19.5034 C   0  0  0  0  0  0  0  0  0  0  0  0
  -22.3319   -8.7148   20.1908 C   0  0  0  0  0  0  0  0  0  0  0  0
  -23.0961   -8.7194   22.4828 C   0  0  0  0  0  0  0  0  0  0  0  0
  -35.9736  -21.7080   19.3110 C   0  0  0  0  0  0  0  0  0  0  0  0
  -19.8698   -7.9181   23.0903 C   0  0  0  0  0  0  0  0  0  0  0  0
  -19.1151   -7.8760   24.2626 C   0  0  0  0  0  0  0  0  0  0  0  0
  -34.3201  -23.4593   19.4461 C   0  0  0  0  0  0  0  0  0  0  0  0
  -30.6403  -20.0394   19.9729 C   0  0  0  0  0  0  0  0  0  0  0  0
  -20.3595   -5.9386   24.9941 C   0  0  0  0  0  0  0  0  0  0  0  0
  -23.8278  -10.4482   20.9620 C   0  0  0  0  0  0  0  0  0  0  0  0
  -24.1673  -12.9738   20.8447 C   0  0  0  0  0  0  0  0  0  0  0  0
  -40.4498  -26.7143   25.3571 C   0  0  0  0  0  0  0  0  0  0  0  0
  -36.6668  -24.0054   19.6797 C   0  0  0  0  0  0  0  0  0  0  0  0
  -39.5808  -25.8085   24.7193 C   0  0  0  0  0  0  0  0  0  0  0  0
  -35.3272  -24.4175   19.6379 C   0  0  0  0  0  0  0  0  0  0  0  0
  -29.7754  -18.9656   19.7933 C   0  0  0  0  0  0  0  0  0  0  0  0
  -31.3772  -20.5190   18.8957 C   0  0  0  0  0  0  0  0  0  0  0  0
  -22.3428   -8.1401   21.4617 C   0  0  0  0  0  0  0  0  0  0  0  0
  -34.6419  -22.1118   19.2852 C   0  0  0  0  0  0  0  0  0  0  0  0
  -20.8693   -6.9704   22.8699 C   0  0  0  0  0  0  0  0  0  0  0  0
  -19.3599   -6.8863   25.2145 C   0  0  0  0  0  0  0  0  0  0  0  0
  -21.1141   -5.9807   23.8218 C   0  0  0  0  0  0  0  0  0  0  0  0
  -24.5954  -11.6401   20.7044 C   0  0  0  0  0  0  0  0  0  0  0  0
  -29.6843  -18.4110   18.5268 C   0  0  0  0  0  0  0  0  0  0  0  0
  -31.2145  -19.8948   17.6695 C   0  0  0  0  0  0  0  0  0  0  0  0
  -25.2582  -13.7247   20.4804 C   0  0  0  0  0  0  0  0  0  0  0  0
  -22.8972  -13.4880   21.2667 C   0  0  0  0  0  0  0  0  0  0  0  0
  -37.0791  -26.1189   22.0178 C   0  0  0  0  0  0  0  0  0  0  0  0
  -35.8997  -28.1946   19.8217 C   0  0  0  0  0  0  0  0  0  0  0  0
  -34.0280  -28.6843   17.0103 C   0  0  0  0  0  0  0  0  0  0  0  0
  -30.7415  -14.7479   20.6597 C   0  0  0  0  0  0  0  0  0  0  0  0
  -40.0343  -28.1319   25.6609 C   0  0  0  0  0  0  0  0  0  0  0  0
  -37.7686  -25.0135   19.8595 C   0  0  0  0  0  0  0  0  0  0  0  0
  -34.9366  -25.8628   19.8019 C   0  0  0  0  0  0  0  0  0  0  0  0
  -38.8264  -28.5991   24.8529 C   0  0  0  0  0  0  0  0  0  0  0  0
  -29.6013  -12.3657   18.2719 C   0  0  0  0  0  0  0  0  0  0  0  0
  -37.7295  -27.5392   24.8713 C   0  0  0  0  0  0  0  0  0  0  0  0
  -28.1649  -12.0702   18.7071 C   0  0  0  0  0  0  0  0  0  0  0  0
  -30.5205  -12.5856   19.4713 C   0  0  0  0  0  0  0  0  0  0  0  0
  -28.6208  -13.3133   20.8625 C   0  0  0  0  0  0  0  0  0  0  0  0
  -38.2135  -26.2333   24.2294 C   0  0  1  0  0  0  0  0  0  0  0  0
  -37.3004  -26.2950   20.5421 C   0  0  1  0  0  0  0  0  0  0  0  0
  -27.6445  -13.1395   19.6865 C   0  0  2  0  0  0  0  0  0  0  0  0
  -31.9796  -20.3690   16.4774 C   0  0  0  0  0  0  0  0  0  0  0  0
  -33.2157  -30.4958   15.4754 C   0  0  0  0  0  0  0  0  0  0  0  0
  -33.8327  -29.0296   21.9051 C   0  0  0  0  0  0  0  0  0  0  0  0
  -32.5085  -30.0908   20.0643 C   0  0  0  0  0  0  0  0  0  0  0  0
  -34.8038  -30.9179   20.5838 C   0  0  0  0  0  0  0  0  0  0  0  0
  -35.4228  -27.4992   14.6846 C   0  0  0  0  0  0  0  0  0  0  0  0
  -28.9831  -18.4471   20.9433 C   0  0  0  0  0  0  0  0  0  0  0  0
  -32.3125  -21.6773   19.0828 C   0  0  0  0  0  0  0  0  0  1  0  0
  -28.7726  -17.2551   18.2745 C   0  0  0  0  0  0  0  0  0  0  0  0
  -29.8261  -18.0355   22.1674 C   0  0  0  0  0  0  0  0  0  0  0  0
  -30.8079  -16.8969   21.8993 C   0  0  0  0  0  0  0  0  0  0  0  0
  -34.5218  -28.6802   19.4415 C   0  0  1  0  0  0  0  0  0  0  0  0
  -34.3047  -29.4677   15.7398 C   0  0  2  0  0  0  0  0  0  0  0  0
  -33.9236  -29.6520   20.4975 C   0  0  0  0  0  0  0  0  0  0  0  0
  -25.8596  -11.5458   20.2836 N   0  0  0  0  0  0  0  0  0  0  0  0
  -30.3840  -18.8495   17.4565 N   0  0  0  0  0  0  0  0  0  0  0  0
  -26.2352  -12.8299   20.1562 N   0  0  0  0  0  0  0  0  0  0  0  0
  -36.0495  -26.8097   19.9812 N   0  0  0  0  0  0  0  0  0  0  0  0
  -29.9708  -13.6125   20.3597 N   0  0  0  0  0  0  0  0  0  0  0  0
  -25.4674  -15.0564   20.4087 N   0  0  0  0  0  0  0  0  0  0  0  0
  -21.8867  -12.5776   21.6047 N   0  0  0  0  0  0  0  0  0  0  0  0
  -38.2047  -26.3458   22.7866 N   0  0  0  0  0  0  0  0  0  0  0  0
  -34.6449  -29.2521   18.1050 N   0  0  0  0  0  0  0  0  0  0  0  0
  -30.1432  -15.6751   21.5041 N   0  0  0  0  0  0  0  0  0  0  0  0
  -34.3769  -28.5480   14.5695 N   0  3  0  0  0  0  0  0  0  0  0  0
  -22.6601  -14.7184   21.3262 O   0  0  0  0  0  0  0  0  0  0  0  0
  -35.9689  -25.8023   22.4288 O   0  0  0  0  0  0  0  0  0  0  0  0
  -36.8113  -29.0133   19.9647 O   0  0  0  0  0  0  0  0  0  0  0  0
  -33.3311  -27.6721   17.0303 O   0  0  0  0  0  0  0  0  0  0  0  0
  -31.8764  -14.9249   20.2041 O   0  0  0  0  0  0  0  0  0  0  0  0
  -21.6182   -7.0141   21.7059 O   0  0  0  0  0  0  0  0  0  0  0  0
  -33.6550  -21.1937   19.0983 O   0  0  0  0  0  0  0  0  0  1  0  0
  -18.6362   -6.8469   26.3409 F   0  0  0  0  0  0  0  0  0  0  0  0
  -22.0738   -5.0683   23.6161 F   0  0  0  0  0  0  0  0  0  0  0  0
  -27.0799  -17.7936   18.2163 Cl  0  0  0  0  0  0  0  0  0  0  0  0
  1  2  1  0  0  0  0
  1  5  2  0  0  0  0
  2  6  2  0  0  0  0
  3  8  2  0  0  0  0
  3 16  1  0  0  0  0
  4  9  1  0  0  0  0
  4 16  2  0  0  0  0
  5 18  1  0  0  0  0
  6 20  1  0  0  0  0
  7 10  2  0  0  0  0
  7 19  1  0  0  0  0
  8 24  1  0  0  0  0
  9 24  2  0  0  0  0
 10 25  1  0  0  0  0
 11 12  2  0  0  0  0
 11 26  1  0  0  0  0
 12 27  1  0  0  0  0
 13 21  1  0  0  0  0
 13 25  2  0  0  0  0
 14 22  2  0  0  0  0
 14 23  1  0  0  0  0
 15 27  2  0  0  0  0
 15 28  1  0  0  0  0
 16 29  1  0  0  0  0
 17 29  1  0  0  0  0
 17 32  2  0  0  0  0
 17 33  1  0  0  0  0
 18 20  2  0  0  0  0
 18 38  1  0  0  0  0
 19 21  2  0  0  0  0
 19 39  1  0  0  0  0
 20 47  1  0  0  0  0
 21 40  1  0  0  0  0
 22 30  1  0  0  0  0
 22 56  1  0  0  0  0
 23 31  2  0  0  0  0
 23 57  1  0  0  0  0
 24 80  1  0  0  0  0
 25 81  1  0  0  0  0
 26 28  2  0  0  0  0
 26 80  1  0  0  0  0
 27 82  1  0  0  0  0
 28 83  1  0  0  0  0
 29 64  2  0  0  0  0
 30 58  1  0  0  0  0
 30 65  2  0  0  0  0
 31 50  1  0  0  0  0
 31 65  1  0  0  0  0
 32 66  1  0  0  0  0
 32 69  1  0  0  0  0
 33 70  1  0  0  0  0
 33 75  2  0  0  0  0
 34 48  1  0  0  0  0
 34 71  1  0  0  0  0
 34 76  2  0  0  0  0
 35 61  1  0  0  0  0
 35 67  1  0  0  0  0
 35 77  2  0  0  0  0
 36 62  1  0  0  0  0
 36 72  1  0  0  0  0
 36 78  2  0  0  0  0
 37 68  1  0  0  0  0
 37 73  1  0  0  0  0
 37 79  2  0  0  0  0
 38 41  1  0  0  0  0
 39 48  1  0  0  0  0
 40 67  1  0  0  0  0
 41 43  1  0  0  0  0
 42 44  1  0  0  0  0
 42 45  1  0  0  0  0
 43 47  1  0  0  0  0
 44 49  1  0  0  0  0
 45 68  1  0  0  0  0
 46 49  1  0  0  0  0
 46 68  1  0  0  0  0
 47 71  1  0  0  0  0
 48 67  1  0  0  0  0
 49 66  1  0  0  0  0
 51 62  1  0  0  0  0
 52 63  1  0  0  0  0
 53 63  1  0  0  0  0
 54 63  1  0  0  0  0
 55 74  1  0  0  0  0
 56 59  1  0  0  0  0
 57 81  1  0  0  0  0
 58 84  1  0  0  0  0
 59 60  1  0  0  0  0
 60 73  1  0  0  0  0
 61 63  1  0  0  0  0
 61 72  1  0  0  0  0
 62 74  1  0  0  0  0
 64 66  1  0  0  0  0
M  CHG  1  74   1
M  ISO  4  37 100  57 101  73 100  81 101
M  END
> <Batch ID>
0039

> <Smiles>
CNC(C)C(=O)NC(C(=O)N1Cc2cc([101O:1][101CH2:1]c3cc(CCC[100NH:0][100C:0](=O)N4CCCC(n5nc(-c6ccc(Oc7ccc(F)cc7F)cc6)c(C(N)=O)c5N)C4)c(CCl)nc3C)ccc2CC1C(=O)NC1CCCc2ccccc21)C(C)(C)C

> <Shape>
0.195

> <Color>
0.196

> <Negative vol penalty>
0.000

$$$$

  -OEChem-04052317043D

 84 92  0     1  0  0  0  0  0999 V2000
  -19.2534  -33.6736   20.9725 C   0  0  0  0  0  0  0  0  0  0  0  0
  -20.5196  -33.2716   20.5595 C   0  0  0  0  0  0  0  0  0  0  0  0
  -22.3075  -12.9035   20.1959 C   0  0  0  0  0  0  0  0  0  0  0  0
  -21.9461  -14.8635   21.5616 C   0  0  0  0  0  0  0  0  0  0  0  0
  -18.6883  -33.1216   22.1214 C   0  0  0  0  0  0  0  0  0  0  0  0
  -21.2219  -32.3181   21.2958 C   0  0  0  0  0  0  0  0  0  0  0  0
  -25.0045  -28.0287   19.1053 C   0  0  0  0  0  0  0  0  0  0  0  0
  -21.2866  -12.2407   20.8771 C   0  0  0  0  0  0  0  0  0  0  0  0
  -20.9252  -14.2006   22.2427 C   0  0  0  0  0  0  0  0  0  0  0  0
  -26.3935  -27.9672   19.0019 C   0  0  0  0  0  0  0  0  0  0  0  0
  -20.8871  -10.6560   23.8358 C   0  0  0  0  0  0  0  0  0  0  0  0
  -21.1252   -9.3424   24.2398 C   0  0  0  0  0  0  0  0  0  0  0  0
  -26.4871  -26.7336   21.0728 C   0  0  0  0  0  0  0  0  0  0  0  0
  -19.2566   -8.5929   22.9042 C   0  0  0  0  0  0  0  0  0  0  0  0
  -22.6373  -14.2150   20.5382 C   0  0  0  0  0  0  0  0  0  0  0  0
  -23.5688  -15.6866   18.6742 C   0  0  0  0  0  0  0  0  0  0  0  0
  -19.3800  -32.1538   22.8667 C   0  0  0  0  0  0  0  0  0  0  0  0
  -24.3461  -27.4516   20.2006 C   0  0  0  0  0  0  0  0  0  0  0  0
  -20.6660  -31.7537   22.4564 C   0  0  0  0  0  0  0  0  0  0  0  0
  -25.0894  -26.7869   21.1864 C   0  0  0  0  0  0  0  0  0  0  0  0
  -20.5954  -12.8892   21.9005 C   0  0  0  0  0  0  0  0  0  0  0  0
  -27.1352  -27.3221   19.9872 C   0  0  0  0  0  0  0  0  0  0  0  0
  -19.8337  -10.9381   22.9660 C   0  0  0  0  0  0  0  0  0  0  0  0
  -20.3100   -8.3108   23.7740 C   0  0  0  0  0  0  0  0  0  0  0  0
  -19.0184   -9.9066   22.5002 C   0  0  0  0  0  0  0  0  0  0  0  0
  -23.6921  -14.9001   19.8353 C   0  0  0  0  0  0  0  0  0  0  0  0
  -24.8484  -16.1089   18.4082 C   0  0  0  0  0  0  0  0  0  0  0  0
  -22.4020  -16.0068   17.9051 C   0  0  0  0  0  0  0  0  0  0  0  0
  -22.5123  -28.5544   22.5511 C   0  0  0  0  0  0  0  0  0  0  0  0
  -29.7044  -18.2156   20.2167 C   0  0  0  0  0  0  0  0  0  0  0  0
  -22.1765  -25.4030   23.2427 C   0  0  0  0  0  0  0  0  0  0  0  0
  -23.4371  -22.2390   23.0261 C   0  0  0  0  0  0  0  0  0  0  0  0
  -18.7479  -31.6205   24.1279 C   0  0  0  0  0  0  0  0  0  0  0  0
  -22.8452  -27.5033   20.2838 C   0  0  0  0  0  0  0  0  0  0  0  0
  -24.4290  -26.1336   22.3719 C   0  0  0  0  0  0  0  0  0  0  0  0
  -19.4020  -30.3410   24.6430 C   0  0  0  0  0  0  0  0  0  0  0  0
  -29.2756  -14.6610   20.3605 C   0  0  0  0  0  0  0  0  0  0  0  0
  -20.9212  -30.4782   24.6367 C   0  0  0  0  0  0  0  0  0  0  0  0
  -28.9617  -21.4027   17.1353 C   0  0  0  0  0  0  0  0  0  0  0  0
  -28.2960  -22.5832   16.4350 C   0  0  0  0  0  0  0  0  0  0  0  0
  -27.7709  -14.4730   20.1716 C   0  0  0  0  0  0  0  0  0  0  0  0
  -30.0454  -22.9853   18.7696 C   0  0  0  0  0  0  0  0  0  0  0  0
  -29.5851  -15.9290   21.1501 C   0  0  0  0  0  0  0  0  0  0  0  0
  -27.4847  -16.9832   20.3765 C   0  0  0  0  0  0  0  0  0  0  0  0
  -21.4488  -30.7038   23.2147 C   0  0  1  0  0  0  0  0  0  0  0  0
  -22.3191  -27.3278   21.7051 C   0  0  1  0  0  0  0  0  0  0  0  0
  -29.2203  -21.7022   18.6144 C   0  0  2  0  0  0  0  0  0  0  0  0
  -29.1132  -23.8775   16.5810 C   0  0  2  0  0  0  0  0  0  0  0  0
  -29.3832  -24.1880   18.0733 C   0  0  2  0  0  0  0  0  0  0  0  0
  -27.1296  -15.7298   19.5571 C   0  0  2  0  0  0  0  0  0  0  0  0
  -28.1449  -24.7001   14.4282 C   0  0  0  0  0  0  0  0  0  0  0  0
  -22.9575  -19.8757   23.7204 C   0  0  0  0  0  0  0  0  0  0  0  0
  -31.3983  -27.0167   19.8218 C   0  0  0  0  0  0  0  0  0  0  0  0
  -23.0638  -26.0611   26.0870 C   0  0  0  0  0  0  0  0  0  0  0  0
  -23.4794  -23.6187   26.4479 C   0  0  0  0  0  0  0  0  0  0  0  0
  -21.1762  -24.4276   25.9346 C   0  0  0  0  0  0  0  0  0  0  0  0
  -23.3002  -21.3188   20.2166 C   0  0  0  0  0  0  0  0  0  0  0  0
  -28.9700  -19.3774   19.5961 C   0  0  0  0  0  0  0  0  0  0  0  0
  -29.9223  -20.5243   19.2880 C   0  0  0  0  0  0  0  0  0  0  0  0
  -28.3853  -25.0193   15.8657 C   0  0  0  0  0  0  0  0  0  0  0  0
  -30.2541  -25.4216   18.2636 C   0  0  0  0  0  0  0  0  0  0  0  0
  -29.1338  -26.1255   20.4665 C   0  0  0  0  0  0  0  0  0  1  0  0
  -22.9210  -24.4125   24.1050 C   0  0  1  0  0  0  0  0  0  0  0  0
  -22.7926  -20.9229   22.6300 C   0  0  2  0  0  0  0  0  0  0  0  0
  -30.4496  -25.8152   19.7405 C   0  0  2  0  0  0  0  0  0  0  0  0
  -22.6730  -24.6439   25.6224 C   0  0  0  0  0  0  0  0  0  0  0  0
  -24.9506  -14.8255   20.2763 N   0  0  0  0  0  0  0  0  0  0  0  0
  -25.6299  -15.5704   19.3877 N   0  0  0  0  0  0  0  0  0  0  0  0
  -22.9596  -26.2166   22.4116 N   0  0  0  0  0  0  0  0  0  0  0  0
  -28.9398  -17.0966   20.5472 N   0  0  0  0  0  0  0  0  0  0  0  0
  -25.3700  -16.8846   17.4342 N   0  0  0  0  0  0  0  0  0  0  0  0
  -21.1666  -15.4899   18.3186 N   0  0  0  0  0  0  0  0  0  0  0  0
  -21.4688  -29.4574   22.4793 N   0  0  0  0  0  0  0  0  0  0  0  0
  -22.5347  -23.0878   23.6316 N   0  0  0  0  0  0  0  0  0  0  0  0
  -23.4101  -20.3997   21.3786 N   0  3  0  0  0  0  0  0  0  0  0  0
  -22.4558  -16.7163   16.8721 O   0  0  0  0  0  0  0  0  0  0  0  0
  -23.5319  -28.6722   23.2206 O   0  0  0  0  0  0  0  0  0  0  0  0
  -30.9217  -18.3009   20.3986 O   0  0  0  0  0  0  0  0  0  0  0  0
  -20.9451  -25.4482   23.2991 O   0  0  0  0  0  0  0  0  0  0  0  0
  -24.6233  -22.4877   22.8225 O   0  0  0  0  0  0  0  0  0  0  0  0
  -19.5991  -12.2427   22.5652 O   0  0  0  0  0  0  0  0  0  0  0  0
  -28.4912  -27.2612   19.8890 O   0  0  0  0  0  0  0  0  0  1  0  0
  -20.5397   -7.0492   24.1608 F   0  0  0  0  0  0  0  0  0  0  0  0
  -18.0056  -10.1713   21.6636 F   0  0  0  0  0  0  0  0  0  0  0  0
  1  2  1  0  0  0  0
  1  5  2  0  0  0  0
  2  6  2  0  0  0  0
  3  8  2  0  0  0  0
  3 15  1  0  0  0  0
  4  9  1  0  0  0  0
  4 15  2  0  0  0  0
  5 17  1  0  0  0  0
  6 19  1  0  0  0  0
  7 10  2  0  0  0  0
  7 18  1  0  0  0  0
  8 21  1  0  0  0  0
  9 21  2  0  0  0  0
 10 22  1  0  0  0  0
 11 12  2  0  0  0  0
 11 23  1  0  0  0  0
 12 24  1  0  0  0  0
 13 20  1  0  0  0  0
 13 22  2  0  0  0  0
 14 24  2  0  0  0  0
 14 25  1  0  0  0  0
 15 26  1  0  0  0  0
 16 26  1  0  0  0  0
 16 27  2  0  0  0  0
 16 28  1  0  0  0  0
 17 19  2  0  0  0  0
 17 33  1  0  0  0  0
 18 20  2  0  0  0  0
 18 34  1  0  0  0  0
 19 45  1  0  0  0  0
 20 35  1  0  0  0  0
 21 81  1  0  0  0  0
 22 82  1  0  0  0  0
 23 25  2  0  0  0  0
 23 81  1  0  0  0  0
 24 83  1  0  0  0  0
 25 84  1  0  0  0  0
 26 67  2  0  0  0  0
 27 68  1  0  0  0  0
 27 71  1  0  0  0  0
 28 72  1  0  0  0  0
 28 76  2  0  0  0  0
 29 46  1  0  0  0  0
 29 73  1  0  0  0  0
 29 77  2  0  0  0  0
 30 58  1  0  0  0  0
 30 70  1  0  0  0  0
 30 78  2  0  0  0  0
 31 63  1  0  0  0  0
 31 69  1  0  0  0  0
 31 79  2  0  0  0  0
 32 64  1  0  0  0  0
 32 74  1  0  0  0  0
 32 80  2  0  0  0  0
 33 36  1  0  0  0  0
 34 46  1  0  0  0  0
 35 69  1  0  0  0  0
 36 38  1  0  0  0  0
 37 41  1  0  0  0  0
 37 43  1  0  0  0  0
 38 45  1  0  0  0  0
 39 40  1  0  0  0  0
 39 47  1  0  0  0  0
 40 48  1  0  0  0  0
 41 50  1  0  0  0  0
 42 47  1  0  0  0  0
 42 49  1  0  0  0  0
 43 70  1  0  0  0  0
 44 50  1  0  0  0  0
 44 70  1  0  0  0  0
 45 73  1  0  0  0  0
 46 69  1  0  0  0  0
 47 59  1  0  0  0  0
 48 49  1  0  0  0  0
 48 60  1  0  0  0  0
 49 61  1  0  0  0  0
 50 68  1  0  0  0  0
 51 60  1  0  0  0  0
 52 64  1  0  0  0  0
 53 65  1  0  0  0  0
 54 66  1  0  0  0  0
 55 66  1  0  0  0  0
 56 66  1  0  0  0  0
 57 75  1  0  0  0  0
 58 59  1  0  0  0  0
 61 65  1  0  0  0  0
 62 65  1  0  0  0  0
 62 82  1  0  0  0  0
 63 66  1  0  0  0  0
 63 74  1  0  0  0  0
 64 75  1  0  0  0  0
 67 68  1  0  0  0  0
M  CHG  1  75   1
M  ISO  4  30 100  58 100  62 101  82 101
M  END
> <Batch ID>
0039

> <Smiles>
CCC1CCC(C[100CH2:0][100C:0](=O)N2CCCC(n3nc(-c4ccc(Oc5ccc(F)cc5F)cc4)c(C(N)=O)c3N)C2)CC1CC(C)[101CH2:1][101O:1]c1ccc2c(c1)CN(C(=O)C(NC(=O)C(C)NC)C(C)(C)C)C(C(=O)NC1CCCc3ccccc31)C2

> <Shape>
0.192

> <Color>
0.083

> <Negative vol penalty>
0.000

$$$$

  -OEChem-04052317043D

 87 95  0     1  0  0  0  0  0999 V2000
  -19.3583  -24.0277   22.0331 C   0  0  0  0  0  0  0  0  0  0  0  0
  -20.5921  -24.3393   21.4706 C   0  0  0  0  0  0  0  0  0  0  0  0
  -25.9274  -15.9098   20.5976 C   0  0  0  0  0  0  0  0  0  0  0  0
  -27.8380  -15.1047   19.3572 C   0  0  0  0  0  0  0  0  0  0  0  0
  -18.5014  -25.0492   22.4406 C   0  0  0  0  0  0  0  0  0  0  0  0
  -20.9691  -25.6726   21.3144 C   0  0  0  0  0  0  0  0  0  0  0  0
  -25.7507  -26.5205   22.7504 C   0  0  0  0  0  0  0  0  0  0  0  0
  -25.6223  -14.6025   20.9763 C   0  0  0  0  0  0  0  0  0  0  0  0
  -27.5329  -13.7974   19.7359 C   0  0  0  0  0  0  0  0  0  0  0  0
  -26.7584  -26.1394   21.8655 C   0  0  0  0  0  0  0  0  0  0  0  0
  -27.9177  -11.8425   22.4655 C   0  0  0  0  0  0  0  0  0  0  0  0
  -28.9668  -11.0350   22.9047 C   0  0  0  0  0  0  0  0  0  0  0  0
  -26.9652  -28.4262   21.1257 C   0  0  0  0  0  0  0  0  0  0  0  0
  -28.5180   -9.4774   21.1132 C   0  0  0  0  0  0  0  0  0  0  0  0
  -27.0352  -16.1609   19.7880 C   0  0  0  0  0  0  0  0  0  0  0  0
  -28.1780  -18.4231   20.0783 C   0  0  0  0  0  0  0  0  0  0  0  0
  -18.8722  -26.3956   22.2982 C   0  0  0  0  0  0  0  0  0  0  0  0
  -25.3345  -27.8577   22.8220 C   0  0  0  0  0  0  0  0  0  0  0  0
  -20.1157  -26.7131   21.7192 C   0  0  0  0  0  0  0  0  0  0  0  0
  -25.9539  -28.8221   22.0142 C   0  0  0  0  0  0  0  0  0  0  0  0
  -29.8189  -25.1160   17.8033 C   0  0  0  0  0  0  0  0  0  0  0  0
  -26.4251  -13.5463   20.5455 C   0  0  0  0  0  0  0  0  0  0  0  0
  -27.3638  -27.0918   21.0509 C   0  0  0  0  0  0  0  0  0  0  0  0
  -27.1686  -11.4674   21.3502 C   0  0  0  0  0  0  0  0  0  0  0  0
  -29.2670   -9.8525   22.2285 C   0  0  0  0  0  0  0  0  0  0  0  0
  -27.4688  -10.2849   20.6740 C   0  0  0  0  0  0  0  0  0  0  0  0
  -27.3506  -17.5111   19.3961 C   0  0  0  0  0  0  0  0  0  0  0  0
  -31.1638  -24.8895   17.4543 C   0  0  0  0  0  0  0  0  0  0  0  0
  -29.8203  -25.1425   19.1766 C   0  0  0  0  0  0  0  0  0  0  0  0
  -28.1529  -19.5562   19.3025 C   0  0  0  0  0  0  0  0  0  0  0  0
  -28.9045  -18.2605   21.3036 C   0  0  0  0  0  0  0  0  0  0  0  0
  -22.6018  -29.3884   22.2808 C   0  0  0  0  0  0  0  0  0  0  0  0
  -24.2459  -31.9298   23.4473 C   0  0  0  0  0  0  0  0  0  0  0  0
  -27.2672  -33.4066   24.0279 C   0  0  0  0  0  0  0  0  0  0  0  0
  -27.1067  -20.4900   13.4814 C   0  0  0  0  0  0  0  0  0  0  0  0
  -17.8925  -27.4659   22.7100 C   0  0  0  0  0  0  0  0  0  0  0  0
  -24.2647  -28.2572   23.8009 C   0  0  0  0  0  0  0  0  0  0  0  0
  -25.5575  -30.2742   22.0674 C   0  0  0  0  0  0  0  0  0  0  0  0
  -18.5249  -28.8478   22.8537 C   0  0  0  0  0  0  0  0  0  0  0  0
  -25.3574  -21.9285   16.2286 C   0  0  0  0  0  0  0  0  0  0  0  0
  -19.4181  -29.1534   21.6556 C   0  0  0  0  0  0  0  0  0  0  0  0
  -25.7445  -21.0418   17.4135 C   0  0  0  0  0  0  0  0  0  0  0  0
  -25.2077  -21.1185   14.9427 C   0  0  0  0  0  0  0  0  0  0  0  0
  -26.7618  -19.3991   15.7809 C   0  0  0  0  0  0  0  0  0  0  0  0
  -20.5708  -28.1471   21.5559 C   0  0  1  0  0  0  0  0  0  0  0  0
  -23.5639  -29.5583   23.4223 C   0  0  1  0  0  0  0  0  0  0  0  0
  -26.9790  -20.1794   17.0886 C   0  0  2  0  0  0  0  0  0  0  0  0
  -28.6666  -25.2862   16.9014 C   0  0  0  0  0  0  0  0  0  0  0  0
  -31.7676  -26.2580   21.5241 C   0  0  0  0  0  0  0  0  0  0  0  0
  -28.2898  -35.4999   24.9606 C   0  0  0  0  0  0  0  0  0  0  0  0
  -23.4755  -33.4349   20.9074 C   0  0  0  0  0  0  0  0  0  0  0  0
  -25.2608  -35.1073   21.4403 C   0  0  0  0  0  0  0  0  0  0  0  0
  -23.3434  -34.7912   23.0044 C   0  0  0  0  0  0  0  0  0  0  0  0
  -28.7047  -31.9045   26.1342 C   0  0  0  0  0  0  0  0  0  0  0  0
  -31.7388  -24.7692   16.1030 C   0  0  0  0  0  0  0  0  0  0  0  0
  -28.7090  -25.3422   20.1647 C   0  0  0  0  0  0  0  0  0  1  0  0
  -31.5223  -23.3963   15.4217 C   0  0  0  0  0  0  0  0  0  0  0  0
  -32.1943  -23.3131   14.0468 C   0  0  0  0  0  0  0  0  0  0  0  0
  -32.0462  -21.9408   13.3819 C   0  0  0  0  0  0  0  0  0  0  0  0
  -30.5930  -21.5666   13.0790 C   0  0  0  0  0  0  0  0  0  0  0  0
  -30.5017  -20.1758   12.4421 C   0  0  0  0  0  0  0  0  0  0  0  0
  -31.6297  -24.8797   20.9007 C   0  0  0  0  0  0  0  0  0  0  0  0
  -29.0640  -19.7655   12.1386 C   0  0  0  0  0  0  0  0  0  0  0  0
  -25.1230  -33.0022   22.8476 C   0  0  1  0  0  0  0  0  0  0  0  0
  -27.8388  -34.0794   25.2629 C   0  0  2  0  0  0  0  0  0  0  0  0
  -24.3070  -34.0563   22.0473 C   0  0  0  0  0  0  0  0  0  0  0  0
  -26.8371  -18.0209   18.2733 N   0  0  0  0  0  0  0  0  0  0  0  0
  -31.9616  -24.7801   18.5199 N   0  0  0  0  0  0  0  0  0  0  0  0
  -31.1156  -24.9386   19.5520 N   0  0  0  0  0  0  0  0  0  0  0  0
  -27.3432  -19.2655   18.2441 N   0  0  0  0  0  0  0  0  0  0  0  0
  -24.5023  -30.6141   23.0362 N   0  0  0  0  0  0  0  0  0  0  0  0
  -26.4128  -20.3243   14.6914 N   0  0  0  0  0  0  0  0  0  0  0  0
  -28.7446  -20.7630   19.4292 N   0  0  0  0  0  0  0  0  0  0  0  0
  -28.8200  -17.0317   21.9724 N   0  0  0  0  0  0  0  0  0  0  0  0
  -21.6030  -28.4639   22.5197 N   0  0  0  0  0  0  0  0  0  0  0  0
  -25.8990  -33.5588   23.9505 N   0  0  0  0  0  0  0  0  0  0  0  0
  -28.2416  -19.7034   13.3263 N   0  0  0  0  0  0  0  0  0  0  0  0
  -29.0101  -33.3133   25.7748 N   0  3  0  0  0  0  0  0  0  0  0  0
  -29.5946  -19.1832   21.7995 O   0  0  0  0  0  0  0  0  0  0  0  0
  -22.7534  -30.0484   21.2594 O   0  0  0  0  0  0  0  0  0  0  0  0
  -23.3703  -32.2470   24.2562 O   0  0  0  0  0  0  0  0  0  0  0  0
  -27.9652  -32.8093   23.2115 O   0  0  0  0  0  0  0  0  0  0  0  0
  -26.7448  -21.2841   12.6066 O   0  0  0  0  0  0  0  0  0  0  0  0
  -26.1278  -12.2705   20.9150 O   0  0  0  0  0  0  0  0  0  0  0  0
  -28.3471  -26.7224   20.1857 O   0  0  0  0  0  0  0  0  0  1  0  0
  -30.2756   -9.0780   22.6494 F   0  0  0  0  0  0  0  0  0  0  0  0
  -26.7535   -9.9199   19.6012 F   0  0  0  0  0  0  0  0  0  0  0  0
  1  2  1  0  0  0  0
  1  5  2  0  0  0  0
  2  6  2  0  0  0  0
  3  8  2  0  0  0  0
  3 15  1  0  0  0  0
  4  9  1  0  0  0  0
  4 15  2  0  0  0  0
  5 17  1  0  0  0  0
  6 19  1  0  0  0  0
  7 10  2  0  0  0  0
  7 18  1  0  0  0  0
  8 22  1  0  0  0  0
  9 22  2  0  0  0  0
 10 23  1  0  0  0  0
 11 12  2  0  0  0  0
 11 24  1  0  0  0  0
 12 25  1  0  0  0  0
 13 20  1  0  0  0  0
 13 23  2  0  0  0  0
 14 25  2  0  0  0  0
 14 26  1  0  0  0  0
 15 27  1  0  0  0  0
 16 27  1  0  0  0  0
 16 30  2  0  0  0  0
 16 31  1  0  0  0  0
 17 19  2  0  0  0  0
 17 36  1  0  0  0  0
 18 20  2  0  0  0  0
 18 37  1  0  0  0  0
 19 45  1  0  0  0  0
 20 38  1  0  0  0  0
 21 28  1  0  0  0  0
 21 29  2  0  0  0  0
 21 48  1  0  0  0  0
 22 84  1  0  0  0  0
 23 85  1  0  0  0  0
 24 26  2  0  0  0  0
 24 84  1  0  0  0  0
 25 86  1  0  0  0  0
 26 87  1  0  0  0  0
 27 67  2  0  0  0  0
 28 55  1  0  0  0  0
 28 68  2  0  0  0  0
 29 56  1  0  0  0  0
 29 69  1  0  0  0  0
 30 70  1  0  0  0  0
 30 73  1  0  0  0  0
 31 74  1  0  0  0  0
 31 79  2  0  0  0  0
 32 46  1  0  0  0  0
 32 75  1  0  0  0  0
 32 80  2  0  0  0  0
 33 64  1  0  0  0  0
 33 71  1  0  0  0  0
 33 81  2  0  0  0  0
 34 65  1  0  0  0  0
 34 76  1  0  0  0  0
 34 82  2  0  0  0  0
 35 72  1  0  0  0  0
 35 77  1  0  0  0  0
 35 83  2  0  0  0  0
 36 39  1  0  0  0  0
 37 46  1  0  0  0  0
 38 71  1  0  0  0  0
 39 41  1  0  0  0  0
 40 42  1  0  0  0  0
 40 43  1  0  0  0  0
 41 45  1  0  0  0  0
 42 47  1  0  0  0  0
 43 72  1  0  0  0  0
 44 47  1  0  0  0  0
 44 72  1  0  0  0  0
 45 75  1  0  0  0  0
 46 71  1  0  0  0  0
 47 70  1  0  0  0  0
 49 62  1  0  0  0  0
 50 65  1  0  0  0  0
 51 66  1  0  0  0  0
 52 66  1  0  0  0  0
 53 66  1  0  0  0  0
 54 78  1  0  0  0  0
 55 57  1  0  0  0  0
 56 85  1  0  0  0  0
 57 58  1  0  0  0  0
 58 59  1  0  0  0  0
 59 60  1  0  0  0  0
 60 61  1  0  0  0  0
 61 63  1  0  0  0  0
 62 69  1  0  0  0  0
 63 77  1  0  0  0  0
 64 66  1  0  0  0  0
 64 76  1  0  0  0  0
 65 78  1  0  0  0  0
 67 70  1  0  0  0  0
 68 69  1  0  0  0  0
M  CHG  1  78   1
M  ISO  4  35 100  56 101  77 100  85 101
M  END
> <Batch ID>
0039

> <Smiles>
CCn1nc(CCCCCCC[100NH:0][100C:0](=O)N2CCCC(n3nc(-c4ccc(Oc5ccc(F)cc5F)cc4)c(C(N)=O)c3N)C2)c(C)c1[101CH2:1][101O:1]c1ccc2c(c1)CN(C(=O)C(NC(=O)C(C)NC)C(C)(C)C)C(C(=O)NC1CCCc3ccccc31)C2

> <Shape>
0.254

> <Color>
0.094

> <Negative vol penalty>
0.000

$$$$

  -OEChem-04052317043D

 85 93  0     1  0  0  0  0  0999 V2000
  -28.0961  -25.7564   13.0772 C   0  0  0  0  0  0  0  0  0  0  0  0
  -27.1620  -25.5603   14.0893 C   0  0  0  0  0  0  0  0  0  0  0  0
  -26.6139  -12.8885   19.4481 C   0  0  0  0  0  0  0  0  0  0  0  0
  -25.2076  -13.5692   21.2910 C   0  0  0  0  0  0  0  0  0  0  0  0
  -29.4031  -26.1213   13.3975 C   0  0  0  0  0  0  0  0  0  0  0  0
  -27.5346  -25.7280   15.4225 C   0  0  0  0  0  0  0  0  0  0  0  0
  -24.1228  -28.3665   18.0762 C   0  0  0  0  0  0  0  0  0  0  0  0
  -26.3266  -11.5515   19.7227 C   0  0  0  0  0  0  0  0  0  0  0  0
  -24.9203  -12.2321   21.5656 C   0  0  0  0  0  0  0  0  0  0  0  0
  -22.9759  -27.6900   18.4894 C   0  0  0  0  0  0  0  0  0  0  0  0
  -22.9035   -9.8160   20.3347 C   0  0  0  0  0  0  0  0  0  0  0  0
  -21.5740   -9.4794   20.5893 C   0  0  0  0  0  0  0  0  0  0  0  0
  -23.9326  -27.4232   20.6877 C   0  0  0  0  0  0  0  0  0  0  0  0
  -24.0983  -21.8025   18.0128 C   0  0  0  0  0  0  0  0  0  0  0  0
  -21.9603  -21.7855   19.1142 C   0  0  0  0  0  0  0  0  0  0  0  0
  -22.1969   -8.6778   22.7817 C   0  0  0  0  0  0  0  0  0  0  0  0
  -26.0544  -13.8974   20.2323 C   0  0  0  0  0  0  0  0  0  0  0  0
  -25.6439  -16.1418   19.0912 C   0  0  0  0  0  0  0  0  0  0  0  0
  -29.7894  -26.3029   14.7348 C   0  0  0  0  0  0  0  0  0  0  0  0
  -25.1895  -28.5673   18.9640 C   0  0  0  0  0  0  0  0  0  0  0  0
  -28.8483  -26.0943   15.7611 C   0  0  0  0  0  0  0  0  0  0  0  0
  -25.0908  -28.1048   20.2841 C   0  0  0  0  0  0  0  0  0  0  0  0
  -22.8818  -21.1794   18.2675 C   0  0  0  0  0  0  0  0  0  0  0  0
  -25.4798  -11.2233   20.7814 C   0  0  0  0  0  0  0  0  0  0  0  0
  -22.8818  -27.2157   19.7944 C   0  0  0  0  0  0  0  0  0  0  0  0
  -23.8797   -9.5834   21.3035 C   0  0  0  0  0  0  0  0  0  0  0  0
  -21.2207   -8.9104   21.8128 C   0  0  0  0  0  0  0  0  0  0  0  0
  -23.5264   -9.0143   22.5270 C   0  0  0  0  0  0  0  0  0  0  0  0
  -26.3513  -15.2787   19.9495 C   0  0  0  0  0  0  0  0  0  0  0  0
  -24.3433  -23.0214   18.6245 C   0  0  0  0  0  0  0  0  0  0  0  0
  -22.3011  -23.0051   19.6767 C   0  0  0  0  0  0  0  0  0  0  0  0
  -26.3213  -17.3341   19.1688 C   0  0  0  0  0  0  0  0  0  0  0  0
  -24.4787  -15.8883   18.2951 C   0  0  0  0  0  0  0  0  0  0  0  0
  -28.2386  -27.6728   19.0458 C   0  0  0  0  0  0  0  0  0  0  0  0
  -28.3324  -29.6102   21.6458 C   0  0  0  0  0  0  0  0  0  0  0  0
  -26.6394  -31.1264   24.1917 C   0  0  0  0  0  0  0  0  0  0  0  0
  -28.8786  -21.2930   22.1575 C   0  0  0  0  0  0  0  0  0  0  0  0
  -31.2258  -26.6516   15.0345 C   0  0  0  0  0  0  0  0  0  0  0  0
  -26.4087  -29.3224   18.5106 C   0  0  0  0  0  0  0  0  0  0  0  0
  -26.1997  -28.3123   21.2820 C   0  0  0  0  0  0  0  0  0  0  0  0
  -31.4427  -27.1744   16.4522 C   0  0  0  0  0  0  0  0  0  0  0  0
  -30.8046  -18.4456   21.2306 C   0  0  0  0  0  0  0  0  0  0  0  0
  -30.7215  -26.2893   17.4637 C   0  0  0  0  0  0  0  0  0  0  0  0
  -29.7592  -17.4375   20.7501 C   0  0  0  0  0  0  0  0  0  0  0  0
  -30.2914  -19.2735   22.4066 C   0  0  0  0  0  0  0  0  0  0  0  0
  -27.9564  -18.9416   21.6916 C   0  0  0  0  0  0  0  0  0  0  0  0
  -29.2079  -26.2908   17.2179 C   0  0  1  0  0  0  0  0  0  0  0  0
  -27.6458  -29.0195   19.3504 C   0  0  1  0  0  0  0  0  0  0  0  0
  -28.4074  -18.1216   20.4707 C   0  0  2  0  0  0  0  0  0  0  0  0
  -22.5661  -19.8667   17.6344 C   0  0  0  0  0  0  0  0  0  0  0  0
  -26.9924  -32.6177   26.1789 C   0  0  0  0  0  0  0  0  0  0  0  0
  -29.4975  -27.2579   23.2011 C   0  0  0  0  0  0  0  0  0  0  0  0
  -28.9420  -28.4727   25.3186 C   0  0  0  0  0  0  0  0  0  0  0  0
  -30.5591  -29.4666   23.7000 C   0  0  0  0  0  0  0  0  0  0  0  0
  -24.8672  -33.2204   23.0811 C   0  0  0  0  0  0  0  0  0  0  0  0
  -25.6377  -23.7199   18.3729 C   0  0  0  0  0  0  0  0  0  0  0  0
  -21.3267  -23.6902   20.6012 C   0  0  0  0  0  0  0  0  0  0  0  0
  -26.7206  -23.3191   19.3865 C   0  0  0  0  0  0  0  0  0  0  0  0
  -20.3589  -24.6351   19.8856 C   0  0  0  0  0  0  0  0  0  0  0  0
  -26.2896  -23.6218   20.8247 C   0  0  0  0  0  0  0  0  0  0  0  0
  -27.3447  -23.2196   21.8500 C   0  0  0  0  0  0  0  0  0  0  0  0
  -21.0530  -25.8122   19.2101 C   0  0  0  0  0  0  0  0  0  1  0  0
  -28.0973  -29.4257   23.1256 C   0  0  1  0  0  0  0  0  0  0  0  0
  -26.6519  -32.5575   24.6980 C   0  0  2  0  0  0  0  0  0  0  0  0
  -29.2537  -28.6500   23.8172 C   0  0  0  0  0  0  0  0  0  0  0  0
  -27.3978  -15.8722   20.5296 N   0  0  0  0  0  0  0  0  0  0  0  0
  -23.4729  -23.6409   19.4528 N   0  0  0  0  0  0  0  0  0  0  0  0
  -27.3531  -17.1210   20.0348 N   0  0  0  0  0  0  0  0  0  0  0  0
  -27.3739  -29.0509   20.7889 N   0  0  0  0  0  0  0  0  0  0  0  0
  -29.0075  -19.8967   22.0762 N   0  0  0  0  0  0  0  0  0  0  0  0
  -26.1290  -18.5336   18.5800 N   0  0  0  0  0  0  0  0  0  0  0  0
  -23.9095  -14.6082   18.3325 N   0  0  0  0  0  0  0  0  0  0  0  0
  -28.6145  -27.5090   17.7262 N   0  0  0  0  0  0  0  0  0  0  0  0
  -27.8618  -30.7583   23.6707 N   0  0  0  0  0  0  0  0  0  0  0  0
  -27.6304  -21.8025   21.8212 N   0  0  0  0  0  0  0  0  0  0  0  0
  -25.3175  -33.1899   24.4965 N   0  3  0  0  0  0  0  0  0  0  0  0
  -23.9675  -16.7663   17.5593 O   0  0  0  0  0  0  0  0  0  0  0  0
  -28.3482  -26.8443   19.9420 O   0  0  0  0  0  0  0  0  0  0  0  0
  -29.3260  -30.2339   21.2645 O   0  0  0  0  0  0  0  0  0  0  0  0
  -25.6458  -30.4058   24.2557 O   0  0  0  0  0  0  0  0  0  0  0  0
  -29.8087  -22.0315   22.4991 O   0  0  0  0  0  0  0  0  0  0  0  0
  -25.1990   -9.9187   21.0494 O   0  0  0  0  0  0  0  0  0  0  0  0
  -21.7638  -26.5545   20.2001 O   0  0  0  0  0  0  0  0  0  1  0  0
  -19.9437   -8.5887   22.0579 F   0  0  0  0  0  0  0  0  0  0  0  0
  -24.4596   -8.7896   23.4621 F   0  0  0  0  0  0  0  0  0  0  0  0
  1  2  1  0  0  0  0
  1  5  2  0  0  0  0
  2  6  2  0  0  0  0
  3  8  2  0  0  0  0
  3 17  1  0  0  0  0
  4  9  1  0  0  0  0
  4 17  2  0  0  0  0
  5 19  1  0  0  0  0
  6 21  1  0  0  0  0
  7 10  2  0  0  0  0
  7 20  1  0  0  0  0
  8 24  1  0  0  0  0
  9 24  2  0  0  0  0
 10 25  1  0  0  0  0
 11 12  2  0  0  0  0
 11 26  1  0  0  0  0
 12 27  1  0  0  0  0
 13 22  1  0  0  0  0
 13 25  2  0  0  0  0
 14 23  1  0  0  0  0
 14 30  2  0  0  0  0
 15 23  2  0  0  0  0
 15 31  1  0  0  0  0
 16 27  2  0  0  0  0
 16 28  1  0  0  0  0
 17 29  1  0  0  0  0
 18 29  1  0  0  0  0
 18 32  2  0  0  0  0
 18 33  1  0  0  0  0
 19 21  2  0  0  0  0
 19 38  1  0  0  0  0
 20 22  2  0  0  0  0
 20 39  1  0  0  0  0
 21 47  1  0  0  0  0
 22 40  1  0  0  0  0
 23 50  1  0  0  0  0
 24 82  1  0  0  0  0
 25 83  1  0  0  0  0
 26 28  2  0  0  0  0
 26 82  1  0  0  0  0
 27 84  1  0  0  0  0
 28 85  1  0  0  0  0
 29 66  2  0  0  0  0
 30 56  1  0  0  0  0
 30 67  1  0  0  0  0
 31 57  1  0  0  0  0
 31 67  2  0  0  0  0
 32 68  1  0  0  0  0
 32 71  1  0  0  0  0
 33 72  1  0  0  0  0
 33 77  2  0  0  0  0
 34 48  1  0  0  0  0
 34 73  1  0  0  0  0
 34 78  2  0  0  0  0
 35 63  1  0  0  0  0
 35 69  1  0  0  0  0
 35 79  2  0  0  0  0
 36 64  1  0  0  0  0
 36 74  1  0  0  0  0
 36 80  2  0  0  0  0
 37 70  1  0  0  0  0
 37 75  1  0  0  0  0
 37 81  2  0  0  0  0
 38 41  1  0  0  0  0
 39 48  1  0  0  0  0
 40 69  1  0  0  0  0
 41 43  1  0  0  0  0
 42 44  1  0  0  0  0
 42 45  1  0  0  0  0
 43 47  1  0  0  0  0
 44 49  1  0  0  0  0
 45 70  1  0  0  0  0
 46 49  1  0  0  0  0
 46 70  1  0  0  0  0
 47 73  1  0  0  0  0
 48 69  1  0  0  0  0
 49 68  1  0  0  0  0
 51 64  1  0  0  0  0
 52 65  1  0  0  0  0
 53 65  1  0  0  0  0
 54 65  1  0  0  0  0
 55 76  1  0  0  0  0
 56 58  1  0  0  0  0
 57 59  1  0  0  0  0
 58 60  1  0  0  0  0
 59 62  1  0  0  0  0
 60 61  1  0  0  0  0
 61 75  1  0  0  0  0
 62 83  1  0  0  0  0
 63 65  1  0  0  0  0
 63 74  1  0  0  0  0
 64 76  1  0  0  0  0
 66 68  1  0  0  0  0
M  CHG  1  76   1
M  ISO  4  37 100  62 101  75 100  83 101
M  END
> <Batch ID>
0039

> <Smiles>
CNC(C)C(=O)NC(C(=O)N1Cc2cc([101O:1][101CH2:1]CCc3cc(C)cc(CCCC[100NH:0][100C:0](=O)N4CCCC(n5nc(-c6ccc(Oc7ccc(F)cc7F)cc6)c(C(N)=O)c5N)C4)n3)ccc2CC1C(=O)NC1CCCc2ccccc21)C(C)(C)C

> <Shape>
0.209

> <Color>
0.070

> <Negative vol penalty>
0.000

$$$$

  -OEChem-04052317043D

 88 96  0     1  0  0  0  0  0999 V2000
  -31.4860  -30.2333   32.9586 C   0  0  0  0  0  0  0  0  0  0  0  0
  -30.3578  -29.5585   32.5032 C   0  0  0  0  0  0  0  0  0  0  0  0
  -23.0752   -9.8668   19.9432 C   0  0  0  0  0  0  0  0  0  0  0  0
  -23.8379   -9.8762   22.2356 C   0  0  0  0  0  0  0  0  0  0  0  0
  -32.3668  -30.8116   32.0455 C   0  0  0  0  0  0  0  0  0  0  0  0
  -30.1092  -29.4627   31.1345 C   0  0  0  0  0  0  0  0  0  0  0  0
  -27.5436  -24.7516   28.1799 C   0  0  0  0  0  0  0  0  0  0  0  0
  -22.3328   -8.7131   20.1949 C   0  0  0  0  0  0  0  0  0  0  0  0
  -23.0954   -8.7225   22.4874 C   0  0  0  0  0  0  0  0  0  0  0  0
  -26.2435  -24.5210   27.7323 C   0  0  0  0  0  0  0  0  0  0  0  0
  -19.8688   -7.9219   23.0944 C   0  0  0  0  0  0  0  0  0  0  0  0
  -19.1133   -7.8820   24.2662 C   0  0  0  0  0  0  0  0  0  0  0  0
  -26.8617  -25.3222   25.5425 C   0  0  0  0  0  0  0  0  0  0  0  0
  -20.3576   -5.9463   25.0026 C   0  0  0  0  0  0  0  0  0  0  0  0
  -23.8278  -10.4484   20.9636 C   0  0  0  0  0  0  0  0  0  0  0  0
  -24.1669  -12.9738   20.8413 C   0  0  0  0  0  0  0  0  0  0  0  0
  -32.1340  -30.7144   30.6646 C   0  0  0  0  0  0  0  0  0  0  0  0
  -28.5113  -25.2804   27.3137 C   0  0  0  0  0  0  0  0  0  0  0  0
  -30.9870  -30.0414   30.2022 C   0  0  0  0  0  0  0  0  0  0  0  0
  -28.1741  -25.5562   25.9809 C   0  0  0  0  0  0  0  0  0  0  0  0
  -24.6126  -21.4163   22.1348 C   0  0  0  0  0  0  0  0  0  0  0  0
  -22.3429   -8.1409   21.4670 C   0  0  0  0  0  0  0  0  0  0  0  0
  -25.9016  -24.8090   26.4143 C   0  0  0  0  0  0  0  0  0  0  0  0
  -20.8687   -6.9739   22.8766 C   0  0  0  0  0  0  0  0  0  0  0  0
  -19.3577   -6.8943   25.2203 C   0  0  0  0  0  0  0  0  0  0  0  0
  -21.1131   -5.9862   23.8307 C   0  0  0  0  0  0  0  0  0  0  0  0
  -24.5954  -11.6398   20.7040 C   0  0  0  0  0  0  0  0  0  0  0  0
  -24.4603  -22.7727   22.3382 C   0  0  0  0  0  0  0  0  0  0  0  0
  -24.1560  -20.6049   23.1534 C   0  0  0  0  0  0  0  0  0  0  0  0
  -25.2579  -13.7241   20.4762 C   0  0  0  0  0  0  0  0  0  0  0  0
  -23.5002  -22.4118   24.3667 C   0  0  0  0  0  0  0  0  0  0  0  0
  -22.8964  -13.4886   21.2614 C   0  0  0  0  0  0  0  0  0  0  0  0
  -30.2590  -27.9348   27.2551 C   0  0  0  0  0  0  0  0  0  0  0  0
  -31.6565  -26.4935   24.7072 C   0  0  0  0  0  0  0  0  0  0  0  0
  -31.4182  -24.2174   22.1755 C   0  0  0  0  0  0  0  0  0  0  0  0
  -30.7408  -14.7488   20.6571 C   0  0  0  0  0  0  0  0  0  0  0  0
  -33.0895  -31.3963   29.7176 C   0  0  0  0  0  0  0  0  0  0  0  0
  -29.9163  -25.4983   27.8046 C   0  0  0  0  0  0  0  0  0  0  0  0
  -29.1814  -26.1061   25.0055 C   0  0  0  0  0  0  0  0  0  0  0  0
  -32.9522  -30.9274   28.2714 C   0  0  0  0  0  0  0  0  0  0  0  0
  -29.6027  -12.3614   18.2735 C   0  0  0  0  0  0  0  0  0  0  0  0
  -31.4837  -30.8870   27.8604 C   0  0  0  0  0  0  0  0  0  0  0  0
  -28.1661  -12.0666   18.7084 C   0  0  0  0  0  0  0  0  0  0  0  0
  -30.5211  -12.5840   19.4731 C   0  0  0  0  0  0  0  0  0  0  0  0
  -28.6203  -13.3142   20.8615 C   0  0  0  0  0  0  0  0  0  0  0  0
  -30.6962  -29.8947   28.7243 C   0  0  1  0  0  0  0  0  0  0  0  0
  -30.6867  -26.5217   26.9761 C   0  0  1  0  0  0  0  0  0  0  0  0
  -27.6449  -13.1378   19.6851 C   0  0  2  0  0  0  0  0  0  0  0  0
  -24.9175  -23.7482   21.3039 C   0  0  0  0  0  0  0  0  0  0  0  0
  -24.2685  -19.1197   23.0462 C   0  0  0  0  0  0  0  0  0  0  0  0
  -32.7075  -23.2898   20.2327 C   0  0  0  0  0  0  0  0  0  0  0  0
  -31.0667  -29.0256   23.1100 C   0  0  0  0  0  0  0  0  0  0  0  0
  -31.4884  -27.7194   21.0162 C   0  0  0  0  0  0  0  0  0  0  0  0
  -33.3183  -28.0242   22.6839 C   0  0  0  0  0  0  0  0  0  0  0  0
  -31.3907  -21.4850   23.3124 C   0  0  0  0  0  0  0  0  0  0  0  0
  -25.2273  -20.8651   20.8973 C   0  0  0  0  0  0  0  0  0  0  0  0
  -22.8723  -22.9713   25.6201 C   0  0  0  0  0  0  0  0  0  0  0  0
  -26.6961  -20.4237   21.0562 C   0  0  0  0  0  0  0  0  0  0  0  0
  -27.3080  -19.9273   19.7416 C   0  0  0  0  0  0  0  0  0  0  0  0
  -28.7860  -19.5443   19.8675 C   0  0  0  0  0  0  0  0  0  0  0  0
  -29.0308  -18.3753   20.8252 C   0  0  0  0  0  0  0  0  0  0  0  0
  -30.5251  -18.0540   20.9346 C   0  0  0  0  0  0  0  0  0  0  0  0
  -30.8060  -16.9003   21.8924 C   0  0  0  0  0  0  0  0  0  0  0  0
  -23.9100  -23.5216   26.5925 C   0  0  0  0  0  0  0  0  0  1  0  0
  -31.3995  -26.4676   23.2198 C   0  0  1  0  0  0  0  0  0  0  0  0
  -32.3675  -23.1296   21.7063 C   0  0  2  0  0  0  0  0  0  0  0  0
  -31.7985  -27.8007   22.5261 C   0  0  0  0  0  0  0  0  0  0  0  0
  -25.8598  -11.5450   20.2843 N   0  0  0  0  0  0  0  0  0  0  0  0
  -23.9064  -23.3070   23.4463 N   0  0  0  0  0  0  0  0  0  0  0  0
  -23.5926  -21.0706   24.2874 N   0  0  0  0  0  0  0  0  0  0  0  0
  -26.2353  -12.8288   20.1546 N   0  0  0  0  0  0  0  0  0  0  0  0
  -30.5402  -26.3078   25.5350 N   0  0  0  0  0  0  0  0  0  0  0  0
  -29.9706  -13.6126   20.3590 N   0  0  0  0  0  0  0  0  0  0  0  0
  -25.4669  -15.0557   20.4020 N   0  0  0  0  0  0  0  0  0  0  0  0
  -21.8858  -12.5786   21.6006 N   0  0  0  0  0  0  0  0  0  0  0  0
  -30.9475  -28.5369   28.2909 N   0  0  0  0  0  0  0  0  0  0  0  0
  -32.0972  -25.2941   22.7054 N   0  0  0  0  0  0  0  0  0  0  0  0
  -30.1418  -15.6776   21.4992 N   0  0  0  0  0  0  0  0  0  0  0  0
  -31.7538  -21.7860   21.9037 N   0  3  0  0  0  0  0  0  0  0  0  0
  -22.6590  -14.7190   21.3182 O   0  0  0  0  0  0  0  0  0  0  0  0
  -29.3712  -28.4418   26.5796 O   0  0  0  0  0  0  0  0  0  0  0  0
  -32.8065  -26.6648   25.1193 O   0  0  0  0  0  0  0  0  0  0  0  0
  -30.1967  -24.1229   22.0782 O   0  0  0  0  0  0  0  0  0  0  0  0
  -31.8760  -14.9251   20.2020 O   0  0  0  0  0  0  0  0  0  0  0  0
  -21.6184   -7.0153   21.7130 O   0  0  0  0  0  0  0  0  0  0  0  0
  -24.6332  -24.5855   25.9750 O   0  0  0  0  0  0  0  0  0  1  0  0
  -18.6332   -6.8571   26.3463 F   0  0  0  0  0  0  0  0  0  0  0  0
  -22.0731   -5.0735   23.6275 F   0  0  0  0  0  0  0  0  0  0  0  0
  1  2  1  0  0  0  0
  1  5  2  0  0  0  0
  2  6  2  0  0  0  0
  3  8  2  0  0  0  0
  3 15  1  0  0  0  0
  4  9  1  0  0  0  0
  4 15  2  0  0  0  0
  5 17  1  0  0  0  0
  6 19  1  0  0  0  0
  7 10  2  0  0  0  0
  7 18  1  0  0  0  0
  8 22  1  0  0  0  0
  9 22  2  0  0  0  0
 10 23  1  0  0  0  0
 11 12  2  0  0  0  0
 11 24  1  0  0  0  0
 12 25  1  0  0  0  0
 13 20  1  0  0  0  0
 13 23  2  0  0  0  0
 14 25  2  0  0  0  0
 14 26  1  0  0  0  0
 15 27  1  0  0  0  0
 16 27  1  0  0  0  0
 16 30  2  0  0  0  0
 16 32  1  0  0  0  0
 17 19  2  0  0  0  0
 17 37  1  0  0  0  0
 18 20  2  0  0  0  0
 18 38  1  0  0  0  0
 19 46  1  0  0  0  0
 20 39  1  0  0  0  0
 21 28  1  0  0  0  0
 21 29  2  0  0  0  0
 21 56  1  0  0  0  0
 22 85  1  0  0  0  0
 23 86  1  0  0  0  0
 24 26  2  0  0  0  0
 24 85  1  0  0  0  0
 25 87  1  0  0  0  0
 26 88  1  0  0  0  0
 27 68  2  0  0  0  0
 28 49  1  0  0  0  0
 28 69  2  0  0  0  0
 29 50  1  0  0  0  0
 29 70  1  0  0  0  0
 30 71  1  0  0  0  0
 30 74  1  0  0  0  0
 31 57  1  0  0  0  0
 31 69  1  0  0  0  0
 31 70  2  0  0  0  0
 32 75  1  0  0  0  0
 32 80  2  0  0  0  0
 33 47  1  0  0  0  0
 33 76  1  0  0  0  0
 33 81  2  0  0  0  0
 34 65  1  0  0  0  0
 34 72  1  0  0  0  0
 34 82  2  0  0  0  0
 35 66  1  0  0  0  0
 35 77  1  0  0  0  0
 35 83  2  0  0  0  0
 36 73  1  0  0  0  0
 36 78  1  0  0  0  0
 36 84  2  0  0  0  0
 37 40  1  0  0  0  0
 38 47  1  0  0  0  0
 39 72  1  0  0  0  0
 40 42  1  0  0  0  0
 41 43  1  0  0  0  0
 41 44  1  0  0  0  0
 42 46  1  0  0  0  0
 43 48  1  0  0  0  0
 44 73  1  0  0  0  0
 45 48  1  0  0  0  0
 45 73  1  0  0  0  0
 46 76  1  0  0  0  0
 47 72  1  0  0  0  0
 48 71  1  0  0  0  0
 51 66  1  0  0  0  0
 52 67  1  0  0  0  0
 53 67  1  0  0  0  0
 54 67  1  0  0  0  0
 55 79  1  0  0  0  0
 56 58  1  0  0  0  0
 57 64  1  0  0  0  0
 58 59  1  0  0  0  0
 59 60  1  0  0  0  0
 60 61  1  0  0  0  0
 61 62  1  0  0  0  0
 62 63  1  0  0  0  0
 63 78  1  0  0  0  0
 64 86  1  0  0  0  0
 65 67  1  0  0  0  0
 65 77  1  0  0  0  0
 66 79  1  0  0  0  0
 68 71  1  0  0  0  0
M  CHG  1  79   1
M  ISO  4  36 100  64 101  78 100  86 101
M  END
> <Batch ID>
0039

> <Smiles>
CNC(C)C(=O)NC(C(=O)N1Cc2cc([101O:1][101CH2:1]Cc3nc(C)c(CCCCCCC[100NH:0][100C:0](=O)N4CCCC(n5nc(-c6ccc(Oc7ccc(F)cc7F)cc6)c(C(N)=O)c5N)C4)c(C)n3)ccc2CC1C(=O)NC1CCCc2ccccc21)C(C)(C)C

> <Shape>
0.190

> <Color>
0.184

> <Negative vol penalty>
0.000

$$$$

  -OEChem-04052317043D

 85 93  0     1  0  0  0  0  0999 V2000
  -24.9108  -18.1722   23.8583 C   0  0  0  0  0  0  0  0  0  0  0  0
  -26.2111  -18.0724   23.3737 C   0  0  0  0  0  0  0  0  0  0  0  0
  -23.0717   -9.8705   19.9435 C   0  0  0  0  0  0  0  0  0  0  0  0
  -23.8345   -9.8782   22.2359 C   0  0  0  0  0  0  0  0  0  0  0  0
  -24.6194  -19.0623   24.8911 C   0  0  0  0  0  0  0  0  0  0  0  0
  -27.2206  -18.8635   23.9210 C   0  0  0  0  0  0  0  0  0  0  0  0
  -33.0961  -17.3194   24.6955 C   0  0  0  0  0  0  0  0  0  0  0  0
  -22.3284   -8.7172   20.1947 C   0  0  0  0  0  0  0  0  0  0  0  0
  -23.0912   -8.7249   22.4871 C   0  0  0  0  0  0  0  0  0  0  0  0
  -34.2422  -17.5852   23.9475 C   0  0  0  0  0  0  0  0  0  0  0  0
  -19.9441   -5.9763   20.3267 C   0  0  0  0  0  0  0  0  0  0  0  0
  -18.6378   -5.9279   19.8401 C   0  0  0  0  0  0  0  0  0  0  0  0
  -34.7352  -19.4617   25.3811 C   0  0  0  0  0  0  0  0  0  0  0  0
  -18.0738   -7.8709   21.1606 C   0  0  0  0  0  0  0  0  0  0  0  0
  -34.0578  -21.2570   21.6202 C   0  0  0  0  0  0  0  0  0  0  0  0
  -23.8248  -10.4510   20.9641 C   0  0  0  0  0  0  0  0  0  0  0  0
  -24.1658  -12.9762   20.8431 C   0  0  0  0  0  0  0  0  0  0  0  0
  -25.6277  -19.8578   25.4579 C   0  0  0  0  0  0  0  0  0  0  0  0
  -32.7545  -18.1306   25.7871 C   0  0  0  0  0  0  0  0  0  0  0  0
  -26.9421  -19.7660   24.9615 C   0  0  0  0  0  0  0  0  0  0  0  0
  -33.5856  -19.2024   26.1429 C   0  0  0  0  0  0  0  0  0  0  0  0
  -22.3381   -8.1444   21.4664 C   0  0  0  0  0  0  0  0  0  0  0  0
  -35.0604  -18.6582   24.2885 C   0  0  0  0  0  0  0  0  0  0  0  0
  -20.3153   -6.9720   21.2304 C   0  0  0  0  0  0  0  0  0  0  0  0
  -17.7027   -6.8752   20.2570 C   0  0  0  0  0  0  0  0  0  0  0  0
  -19.3802   -7.9193   21.6473 C   0  0  0  0  0  0  0  0  0  0  0  0
  -24.5932  -11.6420   20.7051 C   0  0  0  0  0  0  0  0  0  0  0  0
  -35.3028  -21.2988   20.9644 C   0  0  0  0  0  0  0  0  0  0  0  0
  -33.1502  -21.6266   20.6578 C   0  0  0  0  0  0  0  0  0  0  0  0
  -25.2573  -13.7258   20.4782 C   0  0  0  0  0  0  0  0  0  0  0  0
  -22.8958  -13.4918   21.2635 C   0  0  0  0  0  0  0  0  0  0  0  0
  -30.2918  -20.0088   26.5021 C   0  0  0  0  0  0  0  0  0  0  0  0
  -31.8035  -20.2449   29.3624 C   0  0  0  0  0  0  0  0  0  0  0  0
  -34.7186  -20.0367   31.1246 C   0  0  0  0  0  0  0  0  0  0  0  0
  -30.7411  -14.7463   20.6593 C   0  0  0  0  0  0  0  0  0  0  0  0
  -25.2553  -20.8396   26.5404 C   0  0  0  0  0  0  0  0  0  0  0  0
  -31.5291  -17.8144   26.6001 C   0  0  0  0  0  0  0  0  0  0  0  0
  -33.2740  -20.0913   27.3181 C   0  0  0  0  0  0  0  0  0  0  0  0
  -26.4555  -21.3712   27.3198 C   0  0  0  0  0  0  0  0  0  0  0  0
  -29.6010  -12.3609   18.2746 C   0  0  0  0  0  0  0  0  0  0  0  0
  -27.5706  -21.7860   26.3652 C   0  0  0  0  0  0  0  0  0  0  0  0
  -28.1642  -12.0670   18.7094 C   0  0  0  0  0  0  0  0  0  0  0  0
  -30.5196  -12.5823   19.4742 C   0  0  0  0  0  0  0  0  0  0  0  0
  -28.6195  -13.3132   20.8631 C   0  0  0  0  0  0  0  0  0  0  0  0
  -28.0693  -20.5894   25.5461 C   0  0  1  0  0  0  0  0  0  0  0  0
  -31.0019  -19.0160   27.3783 C   0  0  1  0  0  0  0  0  0  0  0  0
  -27.6438  -13.1381   19.6867 C   0  0  2  0  0  0  0  0  0  0  0  0
  -35.6460  -20.3209   33.4390 C   0  0  0  0  0  0  0  0  0  0  0  0
  -31.6731  -23.2762   29.0398 C   0  0  0  0  0  0  0  0  0  0  0  0
  -33.4036  -23.4722   30.8385 C   0  0  0  0  0  0  0  0  0  0  0  0
  -31.1858  -22.4510   31.3498 C   0  0  0  0  0  0  0  0  0  0  0  0
  -33.3735  -22.2720   18.2395 C   0  0  0  0  0  0  0  0  0  0  0  0
  -35.5911  -17.2114   31.2473 C   0  0  0  0  0  0  0  0  0  0  0  0
  -36.6586  -20.9871   21.5461 C   0  0  0  0  0  0  0  0  0  0  0  0
  -31.6846  -21.7761   20.7152 C   0  0  0  0  0  0  0  0  0  0  0  0
  -37.0638  -19.5177   21.4109 C   0  0  0  0  0  0  0  0  0  0  0  0
  -30.9358  -20.4747   20.3605 C   0  0  0  0  0  0  0  0  0  0  0  0
  -31.2506  -19.3375   21.3345 C   0  0  0  0  0  0  0  0  0  0  0  0
  -30.5256  -18.0486   20.9363 C   0  0  0  0  0  0  0  0  0  0  0  0
  -30.8080  -16.8971   21.8957 C   0  0  0  0  0  0  0  0  0  0  0  0
  -36.1518  -18.5669   22.1775 C   0  0  0  0  0  0  0  0  0  1  0  0
  -32.8490  -21.1640   29.9465 C   0  0  1  0  0  0  0  0  0  0  0  0
  -35.0579  -19.3445   32.4323 C   0  0  2  0  0  0  0  0  0  0  0  0
  -32.2830  -22.5755   30.2703 C   0  0  0  0  0  0  0  0  0  0  0  0
  -25.8576  -11.5464   20.2852 N   0  0  0  0  0  0  0  0  0  0  0  0
  -35.1993  -21.6658   19.6844 N   0  0  0  0  0  0  0  0  0  0  0  0
  -33.8784  -21.8579   19.5280 N   0  0  0  0  0  0  0  0  0  0  0  0
  -26.2340  -12.8300   20.1561 N   0  0  0  0  0  0  0  0  0  0  0  0
  -32.0615  -19.7452   28.0781 N   0  0  0  0  0  0  0  0  0  0  0  0
  -29.9699  -13.6108   20.3607 N   0  0  0  0  0  0  0  0  0  0  0  0
  -25.4673  -15.0573   20.4047 N   0  0  0  0  0  0  0  0  0  0  0  0
  -21.8845  -12.5824   21.6023 N   0  0  0  0  0  0  0  0  0  0  0  0
  -28.9420  -19.7575   26.3465 N   0  0  0  0  0  0  0  0  0  0  0  0
  -33.4085  -20.4658   31.0988 N   0  0  0  0  0  0  0  0  0  0  0  0
  -30.1428  -15.6751   21.5019 N   0  0  0  0  0  0  0  0  0  0  0  0
  -36.0483  -18.2554   32.2002 N   0  3  0  0  0  0  0  0  0  0  0  0
  -22.6593  -14.7223   21.3209 O   0  0  0  0  0  0  0  0  0  0  0  0
  -30.9216  -20.9352   26.0053 O   0  0  0  0  0  0  0  0  0  0  0  0
  -30.7984  -19.9743   30.0244 O   0  0  0  0  0  0  0  0  0  0  0  0
  -35.5353  -20.1855   30.2183 O   0  0  0  0  0  0  0  0  0  0  0  0
  -31.8764  -14.9219   20.2042 O   0  0  0  0  0  0  0  0  0  0  0  0
  -21.6128   -7.0192   21.7120 O   0  0  0  0  0  0  0  0  0  0  0  0
  -36.1794  -18.9203   23.5597 O   0  0  0  0  0  0  0  0  0  1  0  0
  -16.4487   -6.8295   19.7884 F   0  0  0  0  0  0  0  0  0  0  0  0
  -19.7312   -8.8789   22.5143 F   0  0  0  0  0  0  0  0  0  0  0  0
  1  2  1  0  0  0  0
  1  5  2  0  0  0  0
  2  6  2  0  0  0  0
  3  8  2  0  0  0  0
  3 16  1  0  0  0  0
  4  9  1  0  0  0  0
  4 16  2  0  0  0  0
  5 18  1  0  0  0  0
  6 20  1  0  0  0  0
  7 10  2  0  0  0  0
  7 19  1  0  0  0  0
  8 22  1  0  0  0  0
  9 22  2  0  0  0  0
 10 23  1  0  0  0  0
 11 12  2  0  0  0  0
 11 24  1  0  0  0  0
 12 25  1  0  0  0  0
 13 21  1  0  0  0  0
 13 23  2  0  0  0  0
 14 25  2  0  0  0  0
 14 26  1  0  0  0  0
 15 28  1  0  0  0  0
 15 29  2  0  0  0  0
 16 27  1  0  0  0  0
 17 27  1  0  0  0  0
 17 30  2  0  0  0  0
 17 31  1  0  0  0  0
 18 20  2  0  0  0  0
 18 36  1  0  0  0  0
 19 21  2  0  0  0  0
 19 37  1  0  0  0  0
 20 45  1  0  0  0  0
 21 38  1  0  0  0  0
 22 82  1  0  0  0  0
 23 83  1  0  0  0  0
 24 26  2  0  0  0  0
 24 82  1  0  0  0  0
 25 84  1  0  0  0  0
 26 85  1  0  0  0  0
 27 65  2  0  0  0  0
 28 54  1  0  0  0  0
 28 66  2  0  0  0  0
 29 55  1  0  0  0  0
 29 67  1  0  0  0  0
 30 68  1  0  0  0  0
 30 71  1  0  0  0  0
 31 72  1  0  0  0  0
 31 77  2  0  0  0  0
 32 46  1  0  0  0  0
 32 73  1  0  0  0  0
 32 78  2  0  0  0  0
 33 62  1  0  0  0  0
 33 69  1  0  0  0  0
 33 79  2  0  0  0  0
 34 63  1  0  0  0  0
 34 74  1  0  0  0  0
 34 80  2  0  0  0  0
 35 70  1  0  0  0  0
 35 75  1  0  0  0  0
 35 81  2  0  0  0  0
 36 39  1  0  0  0  0
 37 46  1  0  0  0  0
 38 69  1  0  0  0  0
 39 41  1  0  0  0  0
 40 42  1  0  0  0  0
 40 43  1  0  0  0  0
 41 45  1  0  0  0  0
 42 47  1  0  0  0  0
 43 70  1  0  0  0  0
 44 47  1  0  0  0  0
 44 70  1  0  0  0  0
 45 73  1  0  0  0  0
 46 69  1  0  0  0  0
 47 68  1  0  0  0  0
 48 63  1  0  0  0  0
 49 64  1  0  0  0  0
 50 64  1  0  0  0  0
 51 64  1  0  0  0  0
 52 67  1  0  0  0  0
 53 76  1  0  0  0  0
 54 56  1  0  0  0  0
 55 57  1  0  0  0  0
 56 61  1  0  0  0  0
 57 58  1  0  0  0  0
 58 59  1  0  0  0  0
 59 60  1  0  0  0  0
 60 75  1  0  0  0  0
 61 83  1  0  0  0  0
 62 64  1  0  0  0  0
 62 74  1  0  0  0  0
 63 76  1  0  0  0  0
 65 68  1  0  0  0  0
 66 67  1  0  0  0  0
M  CHG  1  76   1
M  ISO  4  35 100  61 101  75 100  83 101
M  END
> <Batch ID>
0039

> <Smiles>
CNC(C)C(=O)NC(C(=O)N1Cc2cc([101O:1][101CH2:1]CCc3cc(CCCCC[100NH:0][100C:0](=O)N4CCCC(n5nc(-c6ccc(Oc7ccc(F)cc7F)cc6)c(C(N)=O)c5N)C4)n(C)n3)ccc2CC1C(=O)NC1CCCc2ccccc21)C(C)(C)C

> <Shape>
0.148

> <Color>
0.191

> <Negative vol penalty>
0.000

$$$$

  -OEChem-04052317043D

 85 93  0     1  0  0  0  0  0999 V2000
  -35.0371  -32.4470   20.0029 C   0  0  0  0  0  0  0  0  0  0  0  0
  -34.8554  -31.4397   20.9452 C   0  0  0  0  0  0  0  0  0  0  0  0
  -23.0087   -9.8336   19.9881 C   0  0  0  0  0  0  0  0  0  0  0  0
  -23.7247   -9.9265   22.2937 C   0  0  0  0  0  0  0  0  0  0  0  0
  -34.1082  -32.6160   18.9770 C   0  0  0  0  0  0  0  0  0  0  0  0
  -33.7441  -30.6015   20.8626 C   0  0  0  0  0  0  0  0  0  0  0  0
  -34.9296  -25.7286   21.5659 C   0  0  0  0  0  0  0  0  0  0  0  0
  -22.2565   -8.6927   20.2675 C   0  0  0  0  0  0  0  0  0  0  0  0
  -22.9724   -8.7856   22.5732 C   0  0  0  0  0  0  0  0  0  0  0  0
  -35.1406  -25.3076   22.8781 C   0  0  0  0  0  0  0  0  0  0  0  0
  -23.2633   -5.4440   22.1489 C   0  0  0  0  0  0  0  0  0  0  0  0
  -23.8617   -4.4454   22.9172 C   0  0  0  0  0  0  0  0  0  0  0  0
  -32.9102  -24.3905   22.9361 C   0  0  0  0  0  0  0  0  0  0  0  0
  -35.7024  -20.5498   25.3823 C   0  0  0  0  0  0  0  0  0  0  0  0
  -33.5912  -21.4396   26.1489 C   0  0  0  0  0  0  0  0  0  0  0  0
  -22.1286   -4.6884   24.5828 C   0  0  0  0  0  0  0  0  0  0  0  0
  -23.7428  -10.4505   21.0011 C   0  0  0  0  0  0  0  0  0  0  0  0
  -24.0950  -12.9684   20.7913 C   0  0  0  0  0  0  0  0  0  0  0  0
  -32.9901  -31.7733   18.8761 C   0  0  0  0  0  0  0  0  0  0  0  0
  -33.7014  -25.4929   20.9315 C   0  0  0  0  0  0  0  0  0  0  0  0
  -32.7987  -30.7602   19.8351 C   0  0  0  0  0  0  0  0  0  0  0  0
  -32.6870  -24.8072   21.6149 C   0  0  0  0  0  0  0  0  0  0  0  0
  -34.9637  -21.5880   25.9497 C   0  0  0  0  0  0  0  0  0  0  0  0
  -35.0684  -19.3631   25.0139 C   0  0  0  0  0  0  0  0  0  0  0  0
  -32.9572  -20.2530   25.7806 C   0  0  0  0  0  0  0  0  0  0  0  0
  -33.6959  -19.2147   25.2131 C   0  0  0  0  0  0  0  0  0  0  0  0
  -22.2383   -8.1687   21.5601 C   0  0  0  0  0  0  0  0  0  0  0  0
  -34.1298  -24.6410   23.5645 C   0  0  0  0  0  0  0  0  0  0  0  0
  -22.0976   -6.0649   22.5975 C   0  0  0  0  0  0  0  0  0  0  0  0
  -23.2943   -4.0675   24.1341 C   0  0  0  0  0  0  0  0  0  0  0  0
  -21.5302   -5.6870   23.8145 C   0  0  0  0  0  0  0  0  0  0  0  0
  -24.5205  -11.6287   20.7129 C   0  0  0  0  0  0  0  0  0  0  0  0
  -25.1962  -13.7007   20.4207 C   0  0  0  0  0  0  0  0  0  0  0  0
  -22.8184  -13.5030   21.1657 C   0  0  0  0  0  0  0  0  0  0  0  0
  -31.4165  -27.3357   19.7121 C   0  0  0  0  0  0  0  0  0  0  0  0
  -30.1874  -24.4967   18.7367 C   0  0  0  0  0  0  0  0  0  0  0  0
  -29.9859  -21.1195   19.1853 C   0  0  0  0  0  0  0  0  0  0  0  0
  -30.6786  -14.7127   20.6753 C   0  0  0  0  0  0  0  0  0  0  0  0
  -31.9883  -32.0247   17.7771 C   0  0  0  0  0  0  0  0  0  0  0  0
  -33.4990  -25.9298   19.5065 C   0  0  0  0  0  0  0  0  0  0  0  0
  -31.3575  -24.5116   20.9719 C   0  0  0  0  0  0  0  0  0  0  0  0
  -31.0351  -30.8556   17.5426 C   0  0  0  0  0  0  0  0  0  0  0  0
  -29.5792  -12.2414   18.3600 C   0  0  0  0  0  0  0  0  0  0  0  0
  -30.4890  -30.3377   18.8694 C   0  0  0  0  0  0  0  0  0  0  0  0
  -28.1328  -11.9680   18.7761 C   0  0  0  0  0  0  0  0  0  0  0  0
  -30.4739  -12.5058   19.5690 C   0  0  0  0  0  0  0  0  0  0  0  0
  -28.5484  -13.2941   20.8898 C   0  0  0  0  0  0  0  0  0  0  0  0
  -31.6189  -29.8151   19.7647 C   0  0  1  0  0  0  0  0  0  0  0  0
  -32.0284  -26.0911   19.1341 C   0  0  1  0  0  0  0  0  0  0  0  0
  -27.5963  -13.0769   19.7012 C   0  0  2  0  0  0  0  0  0  0  0  0
  -35.8824  -18.2661   24.4092 C   0  0  0  0  0  0  0  0  0  0  0  0
  -31.4862  -20.1191   26.0045 C   0  0  0  0  0  0  0  0  0  0  0  0
  -28.8721  -19.0719   18.2559 C   0  0  0  0  0  0  0  0  0  0  0  0
  -27.5780  -25.3009   20.0985 C   0  0  0  0  0  0  0  0  0  0  0  0
  -26.8556  -22.9071   19.9725 C   0  0  0  0  0  0  0  0  0  0  0  0
  -27.2954  -24.1872   17.8772 C   0  0  0  0  0  0  0  0  0  0  0  0
  -32.5824  -19.8810   18.4902 C   0  0  0  0  0  0  0  0  0  0  0  0
  -35.6496  -22.8724   26.3477 C   0  0  0  0  0  0  0  0  0  0  0  0
  -33.0165  -17.9421   24.8185 C   0  0  0  0  0  0  0  0  0  0  0  0
  -32.2393  -18.0864   23.5025 C   0  0  0  0  0  0  0  0  0  0  0  0
  -31.5189  -16.7877   23.1285 C   0  0  0  0  0  0  0  0  0  0  0  0
  -30.7277  -16.9088   21.8302 C   0  0  0  0  0  0  0  0  0  0  0  0
  -35.6695  -23.8939   25.2158 C   0  0  0  0  0  0  0  0  0  1  0  0
  -29.2406  -23.4813   19.3298 C   0  0  1  0  0  0  0  0  0  0  0  0
  -30.1022  -19.9647   18.2069 C   0  0  2  0  0  0  0  0  0  0  0  0
  -27.7666  -23.9762   19.3325 C   0  0  0  0  0  0  0  0  0  0  0  0
  -25.7928  -11.5139   20.3230 N   0  0  0  0  0  0  0  0  0  0  0  0
  -26.1762  -12.7907   20.1529 N   0  0  0  0  0  0  0  0  0  0  0  0
  -31.2058  -24.9644   19.5793 N   0  0  0  0  0  0  0  0  0  0  0  0
  -29.9098  -13.5688   20.4042 N   0  0  0  0  0  0  0  0  0  0  0  0
  -25.4123  -15.0279   20.3009 N   0  0  0  0  0  0  0  0  0  0  0  0
  -21.7973  -12.6098   21.5180 N   0  0  0  0  0  0  0  0  0  0  0  0
  -32.0459  -28.5037   19.3260 N   0  0  0  0  0  0  0  0  0  0  0  0
  -29.4536  -22.2429   18.5886 N   0  0  0  0  0  0  0  0  0  0  0  0
  -30.0664  -15.6745   21.4696 N   0  0  0  0  0  0  0  0  0  0  0  0
  -31.2984  -19.1347   18.5250 N   0  3  0  0  0  0  0  0  0  0  0  0
  -22.5850  -14.7354   21.1714 O   0  0  0  0  0  0  0  0  0  0  0  0
  -30.4442  -27.2434   20.4523 O   0  0  0  0  0  0  0  0  0  0  0  0
  -30.0335  -24.8560   17.5668 O   0  0  0  0  0  0  0  0  0  0  0  0
  -30.3292  -21.0326   20.3622 O   0  0  0  0  0  0  0  0  0  0  0  0
  -31.8236  -14.8679   20.2372 O   0  0  0  0  0  0  0  0  0  0  0  0
  -21.5043   -7.0556   21.8333 O   0  0  0  0  0  0  0  0  0  0  0  0
  -34.3329  -24.2296   24.8456 O   0  0  0  0  0  0  0  0  0  1  0  0
  -23.8682   -3.1075   24.8711 F   0  0  0  0  0  0  0  0  0  0  0  0
  -20.4097   -6.2790   24.2502 F   0  0  0  0  0  0  0  0  0  0  0  0
  1  2  1  0  0  0  0
  1  5  2  0  0  0  0
  2  6  2  0  0  0  0
  3  8  2  0  0  0  0
  3 17  1  0  0  0  0
  4  9  1  0  0  0  0
  4 17  2  0  0  0  0
  5 19  1  0  0  0  0
  6 21  1  0  0  0  0
  7 10  2  0  0  0  0
  7 20  1  0  0  0  0
  8 27  1  0  0  0  0
  9 27  2  0  0  0  0
 10 28  1  0  0  0  0
 11 12  2  0  0  0  0
 11 29  1  0  0  0  0
 12 30  1  0  0  0  0
 13 22  1  0  0  0  0
 13 28  2  0  0  0  0
 14 23  1  0  0  0  0
 14 24  2  0  0  0  0
 15 23  2  0  0  0  0
 15 25  1  0  0  0  0
 16 30  2  0  0  0  0
 16 31  1  0  0  0  0
 17 32  1  0  0  0  0
 18 32  1  0  0  0  0
 18 33  2  0  0  0  0
 18 34  1  0  0  0  0
 19 21  2  0  0  0  0
 19 39  1  0  0  0  0
 20 22  2  0  0  0  0
 20 40  1  0  0  0  0
 21 48  1  0  0  0  0
 22 41  1  0  0  0  0
 23 58  1  0  0  0  0
 24 26  1  0  0  0  0
 24 51  1  0  0  0  0
 25 26  2  0  0  0  0
 25 52  1  0  0  0  0
 26 59  1  0  0  0  0
 27 82  1  0  0  0  0
 28 83  1  0  0  0  0
 29 31  2  0  0  0  0
 29 82  1  0  0  0  0
 30 84  1  0  0  0  0
 31 85  1  0  0  0  0
 32 67  2  0  0  0  0
 33 68  1  0  0  0  0
 33 71  1  0  0  0  0
 34 72  1  0  0  0  0
 34 77  2  0  0  0  0
 35 49  1  0  0  0  0
 35 73  1  0  0  0  0
 35 78  2  0  0  0  0
 36 64  1  0  0  0  0
 36 69  1  0  0  0  0
 36 79  2  0  0  0  0
 37 65  1  0  0  0  0
 37 74  1  0  0  0  0
 37 80  2  0  0  0  0
 38 70  1  0  0  0  0
 38 75  1  0  0  0  0
 38 81  2  0  0  0  0
 39 42  1  0  0  0  0
 40 49  1  0  0  0  0
 41 69  1  0  0  0  0
 42 44  1  0  0  0  0
 43 45  1  0  0  0  0
 43 46  1  0  0  0  0
 44 48  1  0  0  0  0
 45 50  1  0  0  0  0
 46 70  1  0  0  0  0
 47 50  1  0  0  0  0
 47 70  1  0  0  0  0
 48 73  1  0  0  0  0
 49 69  1  0  0  0  0
 50 68  1  0  0  0  0
 53 65  1  0  0  0  0
 54 66  1  0  0  0  0
 55 66  1  0  0  0  0
 56 66  1  0  0  0  0
 57 76  1  0  0  0  0
 58 63  1  0  0  0  0
 59 60  1  0  0  0  0
 60 61  1  0  0  0  0
 61 62  1  0  0  0  0
 62 75  1  0  0  0  0
 63 83  1  0  0  0  0
 64 66  1  0  0  0  0
 64 74  1  0  0  0  0
 65 76  1  0  0  0  0
 67 68  1  0  0  0  0
M  CHG  1  76   1
M  ISO  4  38 100  63 101  75 100  83 101
M  END
> <Batch ID>
0039

> <Smiles>
CNC(C)C(=O)NC(C(=O)N1Cc2cc([101O:1][101CH2:1]Cc3cc(C)c(CCCC[100NH:0][100C:0](=O)N4CCCC(n5nc(-c6ccc(Oc7ccc(F)cc7F)cc6)c(C(N)=O)c5N)C4)c(C)c3)ccc2CC1C(=O)NC1CCCc2ccccc21)C(C)(C)C

> <Shape>
0.246

> <Color>
0.212

> <Negative vol penalty>
0.000

$$$$

  -OEChem-04052317043D

 84 92  0     1  0  0  0  0  0999 V2000
  -31.0266   -8.5336   16.9546 C   0  0  0  0  0  0  0  0  0  0  0  0
  -31.6579   -9.7655   17.0935 C   0  0  0  0  0  0  0  0  0  0  0  0
  -21.3734  -26.4294   20.6574 C   0  0  0  0  0  0  0  0  0  0  0  0
  -21.4574  -26.5436   23.0692 C   0  0  0  0  0  0  0  0  0  0  0  0
  -29.6345   -8.4590   16.9729 C   0  0  0  0  0  0  0  0  0  0  0  0
  -30.8973  -10.9237   17.2497 C   0  0  0  0  0  0  0  0  0  0  0  0
  -31.0534  -17.3105   20.4903 C   0  0  0  0  0  0  0  0  0  0  0  0
  -20.0397  -26.8371   20.6845 C   0  0  0  0  0  0  0  0  0  0  0  0
  -20.1237  -26.9513   23.0964 C   0  0  0  0  0  0  0  0  0  0  0  0
  -30.8986  -18.6666   20.2060 C   0  0  0  0  0  0  0  0  0  0  0  0
  -18.3803  -29.7991   22.5759 C   0  0  0  0  0  0  0  0  0  0  0  0
  -18.0468  -30.8647   23.4118 C   0  0  0  0  0  0  0  0  0  0  0  0
  -28.5022  -18.4069   20.3021 C   0  0  0  0  0  0  0  0  0  0  0  0
  -16.5147  -29.4387   24.6185 C   0  0  0  0  0  0  0  0  0  0  0  0
  -29.5983  -25.2694   18.9029 C   0  0  0  0  0  0  0  0  0  0  0  0
  -22.0822  -26.2826   21.8498 C   0  0  0  0  0  0  0  0  0  0  0  0
  -24.5992  -26.6839   21.7440 C   0  0  0  0  0  0  0  0  0  0  0  0
  -28.8567   -9.6157   17.1391 C   0  0  0  0  0  0  0  0  0  0  0  0
  -29.9318  -16.4887   20.6721 C   0  0  0  0  0  0  0  0  0  0  0  0
  -29.4934  -10.8647   17.2688 C   0  0  0  0  0  0  0  0  0  0  0  0
  -28.6456  -17.0412   20.5911 C   0  0  0  0  0  0  0  0  0  0  0  0
  -19.4149  -27.0980   21.9040 C   0  0  0  0  0  0  0  0  0  0  0  0
  -29.6228  -19.2144   20.1090 C   0  0  0  0  0  0  0  0  0  0  0  0
  -17.7809  -28.5533   22.7611 C   0  0  0  0  0  0  0  0  0  0  0  0
  -17.1141  -30.6845   24.4331 C   0  0  0  0  0  0  0  0  0  0  0  0
  -16.8481  -28.3731   23.7825 C   0  0  0  0  0  0  0  0  0  0  0  0
  -23.4597  -25.8610   21.8224 C   0  0  0  0  0  0  0  0  0  0  0  0
  -28.7791  -24.2285   18.5246 C   0  0  0  0  0  0  0  0  0  0  0  0
  -31.1012  -23.7748   19.7613 C   0  0  0  0  0  0  0  0  0  0  0  0
  -30.2818  -22.7338   19.3837 C   0  0  0  0  0  0  0  0  0  0  0  0
  -25.6567  -25.8075   21.7495 C   0  0  0  0  0  0  0  0  0  0  0  0
  -24.6934  -28.1128   21.6726 C   0  0  0  0  0  0  0  0  0  0  0  0
  -28.7570  -13.9357   19.1870 C   0  0  0  0  0  0  0  0  0  0  0  0
  -26.6465  -13.9574   21.6503 C   0  0  0  0  0  0  0  0  0  0  0  0
  -25.0604  -15.7390   24.0910 C   0  0  0  0  0  0  0  0  0  0  0  0
  -28.2209  -21.2874   23.7839 C   0  0  0  0  0  0  0  0  0  0  0  0
  -27.3540   -9.4911   17.1050 C   0  0  0  0  0  0  0  0  0  0  0  0
  -30.1161  -15.0335   21.0046 C   0  0  0  0  0  0  0  0  0  0  0  0
  -27.4093  -16.2062   20.7980 C   0  0  0  0  0  0  0  0  0  0  0  0
  -26.6285  -10.7185   17.6505 C   0  0  0  0  0  0  0  0  0  0  0  0
  -25.7637  -20.7741   21.2589 C   0  0  0  0  0  0  0  0  0  0  0  0
  -27.2288  -11.9951   17.0702 C   0  0  0  0  0  0  0  0  0  0  0  0
  -25.0357  -22.1171   21.1786 C   0  0  0  0  0  0  0  0  0  0  0  0
  -26.1668  -20.4355   22.6924 C   0  0  0  0  0  0  0  0  0  0  0  0
  -26.2206  -22.8236   23.2989 C   0  0  0  0  0  0  0  0  0  0  0  0
  -28.7034  -12.1404   17.4651 C   0  0  1  0  0  0  0  0  0  0  0  0
  -28.8965  -14.1832   20.6625 C   0  0  1  0  0  0  0  0  0  0  0  0
  -25.8435  -23.2347   21.8654 C   0  0  2  0  0  0  0  0  0  0  0  0
  -27.4874  -24.4961   17.8348 C   0  0  0  0  0  0  0  0  0  0  0  0
  -23.3627  -15.4921   25.9225 C   0  0  0  0  0  0  0  0  0  0  0  0
  -24.4124  -13.9287   19.5723 C   0  0  0  0  0  0  0  0  0  0  0  0
  -22.8228  -14.6337   21.3735 C   0  0  0  0  0  0  0  0  0  0  0  0
  -24.0164  -12.4504   21.5502 C   0  0  0  0  0  0  0  0  0  0  0  0
  -27.0193  -16.5142   26.1697 C   0  0  0  0  0  0  0  0  0  0  0  0
  -32.3992  -23.5309   20.4523 C   0  0  0  0  0  0  0  0  0  0  0  0
  -30.6577  -21.3060   19.6505 C   0  0  0  0  0  0  0  0  0  1  0  0
  -32.3160  -23.8060   21.9617 C   0  0  0  0  0  0  0  0  0  0  0  0
  -31.3058  -22.8874   22.6524 C   0  0  0  0  0  0  0  0  0  0  0  0
  -31.2044  -23.1988   24.1484 C   0  0  0  0  0  0  0  0  0  0  0  0
  -30.2141  -22.2907   24.8701 C   0  0  0  0  0  0  0  0  0  0  0  0
  -25.3029  -14.5983   21.9014 C   0  0  1  0  0  0  0  0  0  0  0  0
  -24.8405  -15.4528   25.5655 C   0  0  2  0  0  0  0  0  0  0  0  0
  -24.1617  -13.9184   21.0935 C   0  0  0  0  0  0  0  0  0  0  0  0
  -30.7740  -25.0612   19.5280 N   0  0  0  0  0  0  0  0  0  0  0  0
  -23.7646  -24.5616   21.8738 N   0  0  0  0  0  0  0  0  0  0  0  0
  -29.1062  -22.9420   18.7583 N   0  0  0  0  0  0  0  0  0  0  0  0
  -25.1077  -24.5614   21.8275 N   0  0  0  0  0  0  0  0  0  0  0  0
  -27.6416  -14.7872   21.1147 N   0  0  0  0  0  0  0  0  0  0  0  0
  -26.9312  -21.5353   23.2857 N   0  0  0  0  0  0  0  0  0  0  0  0
  -26.9933  -25.9888   21.6950 N   0  0  0  0  0  0  0  0  0  0  0  0
  -23.5086  -28.8615   21.6777 N   0  0  0  0  0  0  0  0  0  0  0  0
  -28.8174  -12.6016   18.8322 N   0  0  0  0  0  0  0  0  0  0  0  0
  -25.1052  -14.5791   23.3467 N   0  0  0  0  0  0  0  0  0  0  0  0
  -28.8788  -22.3859   24.3236 N   0  0  0  0  0  0  0  0  0  0  0  0
  -25.5527  -16.4608   26.4007 N   0  3  0  0  0  0  0  0  0  0  0  0
  -25.7949  -28.7072   21.5897 O   0  0  0  0  0  0  0  0  0  0  0  0
  -28.6042  -14.8848   18.4270 O   0  0  0  0  0  0  0  0  0  0  0  0
  -26.8092  -12.7661   21.9261 O   0  0  0  0  0  0  0  0  0  0  0  0
  -25.1768  -16.8778   23.6436 O   0  0  0  0  0  0  0  0  0  0  0  0
  -28.7492  -20.1710   23.7454 O   0  0  0  0  0  0  0  0  0  0  0  0
  -18.1136  -27.4961   21.9309 O   0  0  0  0  0  0  0  0  0  0  0  0
  -29.4688  -20.5376   19.8310 O   0  0  0  0  0  0  0  0  0  1  0  0
  -16.7951  -31.7076   25.2368 F   0  0  0  0  0  0  0  0  0  0  0  0
  -16.2698  -27.1782   23.9661 F   0  0  0  0  0  0  0  0  0  0  0  0
  1  2  1  0  0  0  0
  1  5  2  0  0  0  0
  2  6  2  0  0  0  0
  3  8  2  0  0  0  0
  3 16  1  0  0  0  0
  4  9  1  0  0  0  0
  4 16  2  0  0  0  0
  5 18  1  0  0  0  0
  6 20  1  0  0  0  0
  7 10  2  0  0  0  0
  7 19  1  0  0  0  0
  8 22  1  0  0  0  0
  9 22  2  0  0  0  0
 10 23  1  0  0  0  0
 11 12  2  0  0  0  0
 11 24  1  0  0  0  0
 12 25  1  0  0  0  0
 13 21  1  0  0  0  0
 13 23  2  0  0  0  0
 14 25  2  0  0  0  0
 14 26  1  0  0  0  0
 15 28  1  0  0  0  0
 15 64  2  0  0  0  0
 16 27  1  0  0  0  0
 17 27  1  0  0  0  0
 17 31  2  0  0  0  0
 17 32  1  0  0  0  0
 18 20  2  0  0  0  0
 18 37  1  0  0  0  0
 19 21  2  0  0  0  0
 19 38  1  0  0  0  0
 20 46  1  0  0  0  0
 21 39  1  0  0  0  0
 22 81  1  0  0  0  0
 23 82  1  0  0  0  0
 24 26  2  0  0  0  0
 24 81  1  0  0  0  0
 25 83  1  0  0  0  0
 26 84  1  0  0  0  0
 27 65  2  0  0  0  0
 28 49  1  0  0  0  0
 28 66  2  0  0  0  0
 29 30  2  0  0  0  0
 29 55  1  0  0  0  0
 29 64  1  0  0  0  0
 30 56  1  0  0  0  0
 30 66  1  0  0  0  0
 31 67  1  0  0  0  0
 31 70  1  0  0  0  0
 32 71  1  0  0  0  0
 32 76  2  0  0  0  0
 33 47  1  0  0  0  0
 33 72  1  0  0  0  0
 33 77  2  0  0  0  0
 34 61  1  0  0  0  0
 34 68  1  0  0  0  0
 34 78  2  0  0  0  0
 35 62  1  0  0  0  0
 35 73  1  0  0  0  0
 35 79  2  0  0  0  0
 36 69  1  0  0  0  0
 36 74  1  0  0  0  0
 36 80  2  0  0  0  0
 37 40  1  0  0  0  0
 38 47  1  0  0  0  0
 39 68  1  0  0  0  0
 40 42  1  0  0  0  0
 41 43  1  0  0  0  0
 41 44  1  0  0  0  0
 42 46  1  0  0  0  0
 43 48  1  0  0  0  0
 44 69  1  0  0  0  0
 45 48  1  0  0  0  0
 45 69  1  0  0  0  0
 46 72  1  0  0  0  0
 47 68  1  0  0  0  0
 48 67  1  0  0  0  0
 50 62  1  0  0  0  0
 51 63  1  0  0  0  0
 52 63  1  0  0  0  0
 53 63  1  0  0  0  0
 54 75  1  0  0  0  0
 55 57  1  0  0  0  0
 56 82  1  0  0  0  0
 57 58  1  0  0  0  0
 58 59  1  0  0  0  0
 59 60  1  0  0  0  0
 60 74  1  0  0  0  0
 61 63  1  0  0  0  0
 61 73  1  0  0  0  0
 62 75  1  0  0  0  0
 65 67  1  0  0  0  0
M  CHG  1  75   1
M  ISO  4  36 100  56 101  74 100  82 101
M  END
> <Batch ID>
0039

> <Smiles>
CNC(C)C(=O)NC(C(=O)N1Cc2cc([101O:1][101CH2:1]c3nc(C)cnc3CCCCC[100NH:0][100C:0](=O)N3CCCC(n4nc(-c5ccc(Oc6ccc(F)cc6F)cc5)c(C(N)=O)c4N)C3)ccc2CC1C(=O)NC1CCCc2ccccc21)C(C)(C)C

> <Shape>
0.219

> <Color>
0.070

> <Negative vol penalty>
0.000

$$$$

  -OEChem-04052317043D

 87 96  0     1  0  0  0  0  0999 V2000
  -21.0336  -34.0825   21.9142 C   0  0  0  0  0  0  0  0  0  0  0  0
  -22.2464  -33.4184   21.7604 C   0  0  0  0  0  0  0  0  0  0  0  0
  -22.6653  -10.2261   20.2780 C   0  0  0  0  0  0  0  0  0  0  0  0
  -24.1816   -9.7130   22.0877 C   0  0  0  0  0  0  0  0  0  0  0  0
  -19.9897  -33.4730   22.6091 C   0  0  0  0  0  0  0  0  0  0  0  0
  -22.4164  -32.1449   22.3024 C   0  0  0  0  0  0  0  0  0  0  0  0
  -24.1337  -26.5350   18.1226 C   0  0  0  0  0  0  0  0  0  0  0  0
  -21.9153   -9.0907   20.5845 C   0  0  0  0  0  0  0  0  0  0  0  0
  -23.4315   -8.5776   22.3942 C   0  0  0  0  0  0  0  0  0  0  0  0
  -24.6684  -25.4538   17.4216 C   0  0  0  0  0  0  0  0  0  0  0  0
  -23.0732   -5.4328   21.2057 C   0  0  0  0  0  0  0  0  0  0  0  0
  -23.7644   -4.2471   21.4546 C   0  0  0  0  0  0  0  0  0  0  0  0
  -24.5131  -24.0779   19.4042 C   0  0  0  0  0  0  0  0  0  0  0  0
  -31.4727  -18.5477   19.8124 C   0  0  0  0  0  0  0  0  0  0  0  0
  -22.8147   -4.1596   23.6745 C   0  0  0  0  0  0  0  0  0  0  0  0
  -23.7985  -10.5372   21.0296 C   0  0  0  0  0  0  0  0  0  0  0  0
  -24.1327  -13.0464   20.7132 C   0  0  0  0  0  0  0  0  0  0  0  0
  -20.1438  -32.1874   23.1515 C   0  0  0  0  0  0  0  0  0  0  0  0
  -23.7720  -26.3872   19.4645 C   0  0  0  0  0  0  0  0  0  0  0  0
  -21.3740  -31.5183   23.0063 C   0  0  0  0  0  0  0  0  0  0  0  0
  -23.9655  -25.1538   20.1080 C   0  0  0  0  0  0  0  0  0  0  0  0
  -30.9502  -19.5400   18.9336 C   0  0  0  0  0  0  0  0  0  0  0  0
  -22.2983   -8.2665   21.6426 C   0  0  0  0  0  0  0  0  0  0  0  0
  -24.8578  -24.2284   18.0610 C   0  0  0  0  0  0  0  0  0  0  0  0
  -22.2527   -5.9819   22.1911 C   0  0  0  0  0  0  0  0  0  0  0  0
  -23.6352   -3.6105   22.6890 C   0  0  0  0  0  0  0  0  0  0  0  0
  -22.1235   -5.3453   23.4255 C   0  0  0  0  0  0  0  0  0  0  0  0
  -24.5741  -11.7096   20.7131 C   0  0  0  0  0  0  0  0  0  0  0  0
  -29.6323  -19.8321   19.2080 C   0  0  0  0  0  0  0  0  0  0  0  0
  -30.5342  -18.1192   20.7254 C   0  0  0  0  0  0  0  0  0  0  0  0
  -25.2390  -13.7733   20.3469 C   0  0  0  0  0  0  0  0  0  0  0  0
  -22.8384  -13.5831   21.0174 C   0  0  0  0  0  0  0  0  0  0  0  0
  -22.3339  -27.9805   22.5417 C   0  0  0  0  0  0  0  0  0  0  0  0
  -21.1943  -25.1362   22.3955 C   0  0  0  0  0  0  0  0  0  0  0  0
  -19.8411  -22.0965   21.6428 C   0  0  0  0  0  0  0  0  0  0  0  0
  -30.6986  -14.8597   20.7435 C   0  0  0  0  0  0  0  0  0  0  0  0
  -19.0027  -31.5887   23.9352 C   0  0  0  0  0  0  0  0  0  0  0  0
  -23.2498  -27.5419   20.2755 C   0  0  0  0  0  0  0  0  0  0  0  0
  -23.5940  -25.0508   21.5621 C   0  0  0  0  0  0  0  0  0  0  0  0
  -19.1387  -30.0844   24.1560 C   0  0  0  0  0  0  0  0  0  0  0  0
  -29.7062  -12.2699   18.5109 C   0  0  0  0  0  0  0  0  0  0  0  0
  -20.5505  -29.7381   24.6183 C   0  0  0  0  0  0  0  0  0  0  0  0
  -28.2471  -21.9351   19.4721 C   0  0  0  0  0  0  0  0  0  0  0  0
  -27.5095  -20.1205   17.8589 C   0  0  0  0  0  0  0  0  0  0  0  0
  -28.2488  -11.9996   18.8890 C   0  0  0  0  0  0  0  0  0  0  0  0
  -27.3284  -22.9282   18.7649 C   0  0  0  0  0  0  0  0  0  0  0  0
  -26.5952  -21.1232   17.1598 C   0  0  0  0  0  0  0  0  0  0  0  0
  -30.5550  -12.6011   19.7364 C   0  0  0  0  0  0  0  0  0  0  0  0
  -28.5764  -13.4280   20.9508 C   0  0  0  0  0  0  0  0  0  0  0  0
  -21.5887  -30.1257   23.5584 C   0  0  1  0  0  0  0  0  0  0  0  0
  -28.7115  -20.8212   18.5169 C   0  0  0  0  0  0  0  0  0  0  0  0
  -22.2003  -27.1203   21.3195 C   0  0  1  0  0  0  0  0  0  0  0  0
  -27.6690  -13.1443   19.7415 C   0  0  2  0  0  0  0  0  0  0  0  0
  -26.1392  -22.2286   18.1091 C   0  0  0  0  0  0  0  0  0  1  0  0
  -18.2059  -20.4000   22.5062 C   0  0  0  0  0  0  0  0  0  0  0  0
  -33.4946  -21.1895   19.4063 C   0  0  0  0  0  0  0  0  0  0  0  0
  -33.2344  -22.0750   17.0800 C   0  0  0  0  0  0  0  0  0  0  0  0
  -23.2338  -24.2351   24.4769 C   0  0  0  0  0  0  0  0  0  0  0  0
  -22.0134  -22.0541   24.6250 C   0  0  0  0  0  0  0  0  0  0  0  0
  -20.8563  -24.1736   25.2505 C   0  0  0  0  0  0  0  0  0  0  0  0
  -18.1318  -22.3503   19.2402 C   0  0  0  0  0  0  0  0  0  0  0  0
  -31.7424  -20.1760   17.8539 C   0  0  0  0  0  0  0  0  0  0  0  0
  -30.6851  -17.1081   21.7942 C   0  0  0  0  0  0  0  0  0  0  0  0
  -21.3338  -23.6945   22.8144 C   0  0  1  0  0  0  0  0  0  0  0  0
  -18.4021  -21.6141   21.6116 C   0  0  2  0  0  0  0  0  0  0  0  0
  -32.4997  -21.4638   18.2757 C   0  0  0  0  0  0  0  0  0  0  0  0
  -21.8694  -23.5486   24.2668 C   0  0  0  0  0  0  0  0  0  0  0  0
  -25.8604  -11.5913   20.3735 N   0  0  0  0  0  0  0  0  0  0  0  0
  -26.2368  -12.8631   20.1567 N   0  0  0  0  0  0  0  0  0  0  0  0
  -22.3134  -25.7338   21.8031 N   0  0  0  0  0  0  0  0  0  0  0  0
  -29.9513  -13.6955   20.5004 N   0  0  0  0  0  0  0  0  0  0  0  0
  -25.4458  -15.0958   20.1720 N   0  0  0  0  0  0  0  0  0  0  0  0
  -22.5577  -13.9395   22.3435 N   0  0  0  0  0  0  0  0  0  0  0  0
  -21.6045  -29.1529   22.4870 N   0  0  0  0  0  0  0  0  0  0  0  0
  -20.0305  -23.0772   22.5933 N   0  0  0  0  0  0  0  0  0  0  0  0
  -30.0493  -15.8506   21.4697 N   0  0  0  0  0  0  0  0  0  0  0  0
  -18.0103  -21.2425   20.2226 N   0  3  0  0  0  0  0  0  0  0  0  0
  -21.9513  -13.7265   20.1422 O   0  0  0  0  0  0  0  0  0  0  0  0
  -23.0450  -27.6083   23.4677 O   0  0  0  0  0  0  0  0  0  0  0  0
  -20.1252  -25.7206   22.5921 O   0  0  0  0  0  0  0  0  0  0  0  0
  -20.7111  -21.6455   20.9009 O   0  0  0  0  0  0  0  0  0  0  0  0
  -31.8567  -15.0075   20.3386 O   0  0  0  0  0  0  0  0  0  0  0  0
  -21.5665   -7.1586   21.9421 O   0  0  0  0  0  0  0  0  0  0  0  0
  -25.3760  -23.1758   17.3695 O   0  0  0  0  0  0  0  0  0  1  0  0
  -24.2979   -2.4711   22.9274 F   0  0  0  0  0  0  0  0  0  0  0  0
  -21.3359   -5.8674   24.3757 F   0  0  0  0  0  0  0  0  0  0  0  0
  -29.0302  -18.9120   20.5207 S   0  0  0  0  0  0  0  0  0  0  0  0
  1  2  1  0  0  0  0
  1  5  2  0  0  0  0
  2  6  2  0  0  0  0
  3  8  2  0  0  0  0
  3 16  1  0  0  0  0
  4  9  1  0  0  0  0
  4 16  2  0  0  0  0
  5 18  1  0  0  0  0
  6 20  1  0  0  0  0
  7 10  2  0  0  0  0
  7 19  1  0  0  0  0
  8 23  1  0  0  0  0
  9 23  2  0  0  0  0
 10 24  1  0  0  0  0
 11 12  2  0  0  0  0
 11 25  1  0  0  0  0
 12 26  1  0  0  0  0
 13 21  1  0  0  0  0
 13 24  2  0  0  0  0
 14 22  1  0  0  0  0
 14 30  2  0  0  0  0
 15 26  2  0  0  0  0
 15 27  1  0  0  0  0
 16 28  1  0  0  0  0
 17 28  1  0  0  0  0
 17 31  2  0  0  0  0
 17 32  1  0  0  0  0
 18 20  2  0  0  0  0
 18 37  1  0  0  0  0
 19 21  2  0  0  0  0
 19 38  1  0  0  0  0
 20 50  1  0  0  0  0
 21 39  1  0  0  0  0
 22 29  2  0  0  0  0
 22 62  1  0  0  0  0
 23 83  1  0  0  0  0
 24 84  1  0  0  0  0
 25 27  2  0  0  0  0
 25 83  1  0  0  0  0
 26 85  1  0  0  0  0
 27 86  1  0  0  0  0
 28 68  2  0  0  0  0
 29 51  1  0  0  0  0
 29 87  1  0  0  0  0
 30 63  1  0  0  0  0
 30 87  1  0  0  0  0
 31 69  1  0  0  0  0
 31 72  1  0  0  0  0
 32 73  1  0  0  0  0
 32 78  2  0  0  0  0
 33 52  1  0  0  0  0
 33 74  1  0  0  0  0
 33 79  2  0  0  0  0
 34 64  1  0  0  0  0
 34 70  1  0  0  0  0
 34 80  2  0  0  0  0
 35 65  1  0  0  0  0
 35 75  1  0  0  0  0
 35 81  2  0  0  0  0
 36 71  1  0  0  0  0
 36 76  1  0  0  0  0
 36 82  2  0  0  0  0
 37 40  1  0  0  0  0
 38 52  1  0  0  0  0
 39 70  1  0  0  0  0
 40 42  1  0  0  0  0
 41 45  1  0  0  0  0
 41 48  1  0  0  0  0
 42 50  1  0  0  0  0
 43 46  1  0  0  0  0
 43 51  1  0  0  0  0
 44 47  1  0  0  0  0
 44 51  1  0  0  0  0
 45 53  1  0  0  0  0
 46 54  1  0  0  0  0
 47 54  1  0  0  0  0
 48 71  1  0  0  0  0
 49 53  1  0  0  0  0
 49 71  1  0  0  0  0
 50 74  1  0  0  0  0
 52 70  1  0  0  0  0
 53 69  1  0  0  0  0
 54 84  1  0  0  0  0
 55 65  1  0  0  0  0
 56 66  1  0  0  0  0
 57 66  1  0  0  0  0
 58 67  1  0  0  0  0
 59 67  1  0  0  0  0
 60 67  1  0  0  0  0
 61 77  1  0  0  0  0
 62 66  1  0  0  0  0
 63 76  1  0  0  0  0
 64 67  1  0  0  0  0
 64 75  1  0  0  0  0
 65 77  1  0  0  0  0
 68 69  1  0  0  0  0
M  CHG  1  77   1
M  ISO  4  36 100  54 101  76 100  84 101
M  END
> <Batch ID>
0039

> <Smiles>
CNC(C)C(=O)NC(C(=O)N1Cc2cc([101O:1][101CH:1]3CCC(c4sc(C[100NH:0][100C:0](=O)N5CCCC(n6nc(-c7ccc(Oc8ccc(F)cc8F)cc7)c(C(N)=O)c6N)C5)cc4CC(C)C)CC3)ccc2CC1C(=O)NC1CCCc2ccccc21)C(C)(C)C

> <Shape>
0.260

> <Color>
0.188

> <Negative vol penalty>
0.000

$$$$

  -OEChem-04052317043D

 83 91  0     1  0  0  0  0  0999 V2000
  -24.2065  -30.9725   22.0050 C   0  0  0  0  0  0  0  0  0  0  0  0
  -23.5600  -29.7620   22.2331 C   0  0  0  0  0  0  0  0  0  0  0  0
  -28.9361  -12.3280   20.7988 C   0  0  0  0  0  0  0  0  0  0  0  0
  -28.2135  -12.1405   18.5010 C   0  0  0  0  0  0  0  0  0  0  0  0
  -25.2090  -31.0551   21.0396 C   0  0  0  0  0  0  0  0  0  0  0  0
  -23.9150  -28.6334   21.4951 C   0  0  0  0  0  0  0  0  0  0  0  0
  -23.9957  -22.8307   23.4515 C   0  0  0  0  0  0  0  0  0  0  0  0
  -30.2508  -12.0778   20.4058 C   0  0  0  0  0  0  0  0  0  0  0  0
  -29.5283  -11.8903   18.1080 C   0  0  0  0  0  0  0  0  0  0  0  0
  -23.0856  -21.7830   23.3178 C   0  0  0  0  0  0  0  0  0  0  0  0
  -33.7442  -11.1320   20.0522 C   0  0  0  0  0  0  0  0  0  0  0  0
  -34.4885  -10.2281   20.8103 C   0  0  0  0  0  0  0  0  0  0  0  0
  -24.3157  -20.9658   21.4103 C   0  0  0  0  0  0  0  0  0  0  0  0
  -19.5648  -18.5503   21.7327 C   0  0  0  0  0  0  0  0  0  0  0  0
  -32.8788   -8.4937   20.3228 C   0  0  0  0  0  0  0  0  0  0  0  0
  -20.5111  -17.4329   23.6068 C   0  0  0  0  0  0  0  0  0  0  0  0
  -27.9174  -12.3592   19.8464 C   0  0  0  0  0  0  0  0  0  0  0  0
  -25.9240  -13.8697   20.3491 C   0  0  0  0  0  0  0  0  0  0  0  0
  -25.5831  -29.9246   20.2961 C   0  0  0  0  0  0  0  0  0  0  0  0
  -25.0683  -22.9602   22.5574 C   0  0  0  0  0  0  0  0  0  0  0  0
  -24.9225  -28.7012   20.5178 C   0  0  0  0  0  0  0  0  0  0  0  0
  -25.2394  -22.0146   21.5363 C   0  0  0  0  0  0  0  0  0  0  0  0
  -20.4417  -18.5654   22.8116 C   0  0  0  0  0  0  0  0  0  0  0  0
  -18.7950  -17.4192   21.4854 C   0  0  0  0  0  0  0  0  0  0  0  0
  -30.5469  -11.8590   19.0604 C   0  0  0  0  0  0  0  0  0  0  0  0
  -23.2438  -20.8520   22.2954 C   0  0  0  0  0  0  0  0  0  0  0  0
  -32.5672  -10.7167   19.4295 C   0  0  0  0  0  0  0  0  0  0  0  0
  -34.0558   -8.9090   20.9456 C   0  0  0  0  0  0  0  0  0  0  0  0
  -32.1345   -9.3976   19.5647 C   0  0  0  0  0  0  0  0  0  0  0  0
  -26.5590  -12.6170   20.2518 C   0  0  0  0  0  0  0  0  0  0  0  0
  -18.9382  -16.3379   22.3399 C   0  0  0  0  0  0  0  0  0  0  0  0
  -24.6506  -13.5772   20.7725 C   0  0  0  0  0  0  0  0  0  0  0  0
  -26.4393  -15.1805   20.0806 C   0  0  0  0  0  0  0  0  0  0  0  0
  -25.9826  -25.1621   20.4551 C   0  0  0  0  0  0  0  0  0  0  0  0
  -28.5938  -23.2570   20.1825 C   0  0  0  0  0  0  0  0  0  0  0  0
  -29.9603  -20.1483   20.5224 C   0  0  0  0  0  0  0  0  0  0  0  0
  -20.0137  -10.4856   20.4782 C   0  0  0  0  0  0  0  0  0  0  0  0
  -26.6398  -30.0739   19.2303 C   0  0  0  0  0  0  0  0  0  0  0  0
  -26.0565  -24.0807   22.7314 C   0  0  0  0  0  0  0  0  0  0  0  0
  -26.3856  -22.0974   20.5628 C   0  0  0  0  0  0  0  0  0  0  0  0
  -27.2155  -28.7431   18.7529 C   0  0  0  0  0  0  0  0  0  0  0  0
  -22.6687   -9.2595   22.5090 C   0  0  0  0  0  0  0  0  0  0  0  0
  -26.0956  -27.7442   18.4797 C   0  0  0  0  0  0  0  0  0  0  0  0
  -23.8658  -10.1225   22.1063 C   0  0  0  0  0  0  0  0  0  0  0  0
  -21.7687   -8.9504   21.3147 C   0  0  0  0  0  0  0  0  0  0  0  0
  -22.5103  -10.9959   20.1574 C   0  0  0  0  0  0  0  0  0  0  0  0
  -25.2966  -27.4490   19.7549 C   0  0  1  0  0  0  0  0  0  0  0  0
  -26.8186  -24.4094   21.4513 C   0  0  1  0  0  0  0  0  0  0  0  0
  -23.4171  -11.3807   21.3389 C   0  0  2  0  0  0  0  0  0  0  0  0
  -17.8521  -17.3970   20.3322 C   0  0  0  0  0  0  0  0  0  0  0  0
  -32.1066  -18.8923   20.1858 C   0  0  0  0  0  0  0  0  0  0  0  0
  -28.0955  -23.2169   17.1725 C   0  0  0  0  0  0  0  0  0  0  0  0
  -29.6302  -21.2451   17.0151 C   0  0  0  0  0  0  0  0  0  0  0  0
  -30.4985  -23.4373   17.8292 C   0  0  0  0  0  0  0  0  0  0  0  0
  -30.1484  -19.4684   23.3967 C   0  0  0  0  0  0  0  0  0  0  0  0
  -21.2871  -19.7698   23.1052 C   0  0  0  0  0  0  0  0  0  1  0  0
  -18.1375  -15.0957   22.1224 C   0  0  0  0  0  0  0  0  0  0  0  0
  -18.6966  -14.2393   20.9767 C   0  0  0  0  0  0  0  0  0  0  0  0
  -17.8459  -12.9879   20.7399 C   0  0  0  0  0  0  0  0  0  0  0  0
  -18.3743  -12.1272   19.5970 C   0  0  0  0  0  0  0  0  0  0  0  0
  -28.9720  -22.0787   19.3178 C   0  0  1  0  0  0  0  0  0  0  0  0
  -31.2531  -19.6812   21.1666 C   0  0  2  0  0  0  0  0  0  0  0  0
  -29.2763  -22.4938   17.8507 C   0  0  0  0  0  0  0  0  0  0  0  0
  -19.7793  -16.3155   23.3980 N   0  0  0  0  0  0  0  0  0  0  0  0
  -25.7552  -11.6042   20.5867 N   0  0  0  0  0  0  0  0  0  0  0  0
  -24.6022  -12.2201   20.8985 N   0  0  0  0  0  0  0  0  0  0  0  0
  -27.3217  -23.2146   20.7704 N   0  0  0  0  0  0  0  0  0  0  0  0
  -21.3774  -10.1858   20.6316 N   0  0  0  0  0  0  0  0  0  0  0  0
  -23.5788  -14.3512   21.0456 N   0  0  0  0  0  0  0  0  0  0  0  0
  -27.7687  -15.3013   19.6535 N   0  0  0  0  0  0  0  0  0  0  0  0
  -26.0255  -26.5348   20.6078 N   0  0  0  0  0  0  0  0  0  0  0  0
  -30.0820  -21.4159   19.9938 N   0  0  0  0  0  0  0  0  0  0  0  0
  -19.7299  -11.6787   19.8250 N   0  0  0  0  0  0  0  0  0  0  0  0
  -30.9618  -18.8115   22.3413 N   0  3  0  0  0  0  0  0  0  0  0  0
  -25.7464  -16.2153   20.2312 O   0  0  0  0  0  0  0  0  0  0  0  0
  -25.3470  -24.5433   19.6097 O   0  0  0  0  0  0  0  0  0  0  0  0
  -29.4003  -24.1775   20.3366 O   0  0  0  0  0  0  0  0  0  0  0  0
  -28.9452  -19.4562   20.4881 O   0  0  0  0  0  0  0  0  0  0  0  0
  -19.1157   -9.7475   20.8974 O   0  0  0  0  0  0  0  0  0  0  0  0
  -31.8298  -11.6151   18.6765 O   0  0  0  0  0  0  0  0  0  0  0  0
  -22.3566  -19.8288   22.1623 O   0  0  0  0  0  0  0  0  0  1  0  0
  -34.7714   -8.0407   21.6723 F   0  0  0  0  0  0  0  0  0  0  0  0
  -31.0051   -8.9926   18.9678 F   0  0  0  0  0  0  0  0  0  0  0  0
  1  2  1  0  0  0  0
  1  5  2  0  0  0  0
  2  6  2  0  0  0  0
  3  8  2  0  0  0  0
  3 17  1  0  0  0  0
  4  9  1  0  0  0  0
  4 17  2  0  0  0  0
  5 19  1  0  0  0  0
  6 21  1  0  0  0  0
  7 10  2  0  0  0  0
  7 20  1  0  0  0  0
  8 25  1  0  0  0  0
  9 25  2  0  0  0  0
 10 26  1  0  0  0  0
 11 12  2  0  0  0  0
 11 27  1  0  0  0  0
 12 28  1  0  0  0  0
 13 22  1  0  0  0  0
 13 26  2  0  0  0  0
 14 23  2  0  0  0  0
 14 24  1  0  0  0  0
 15 28  2  0  0  0  0
 15 29  1  0  0  0  0
 16 23  1  0  0  0  0
 16 64  2  0  0  0  0
 17 30  1  0  0  0  0
 18 30  1  0  0  0  0
 18 32  2  0  0  0  0
 18 33  1  0  0  0  0
 19 21  2  0  0  0  0
 19 38  1  0  0  0  0
 20 22  2  0  0  0  0
 20 39  1  0  0  0  0
 21 47  1  0  0  0  0
 22 40  1  0  0  0  0
 23 56  1  0  0  0  0
 24 31  2  0  0  0  0
 24 50  1  0  0  0  0
 25 80  1  0  0  0  0
 26 81  1  0  0  0  0
 27 29  2  0  0  0  0
 27 80  1  0  0  0  0
 28 82  1  0  0  0  0
 29 83  1  0  0  0  0
 30 65  2  0  0  0  0
 31 57  1  0  0  0  0
 31 64  1  0  0  0  0
 32 66  1  0  0  0  0
 32 69  1  0  0  0  0
 33 70  1  0  0  0  0
 33 75  2  0  0  0  0
 34 48  1  0  0  0  0
 34 71  1  0  0  0  0
 34 76  2  0  0  0  0
 35 61  1  0  0  0  0
 35 67  1  0  0  0  0
 35 77  2  0  0  0  0
 36 62  1  0  0  0  0
 36 72  1  0  0  0  0
 36 78  2  0  0  0  0
 37 68  1  0  0  0  0
 37 73  1  0  0  0  0
 37 79  2  0  0  0  0
 38 41  1  0  0  0  0
 39 48  1  0  0  0  0
 40 67  1  0  0  0  0
 41 43  1  0  0  0  0
 42 44  1  0  0  0  0
 42 45  1  0  0  0  0
 43 47  1  0  0  0  0
 44 49  1  0  0  0  0
 45 68  1  0  0  0  0
 46 49  1  0  0  0  0
 46 68  1  0  0  0  0
 47 71  1  0  0  0  0
 48 67  1  0  0  0  0
 49 66  1  0  0  0  0
 51 62  1  0  0  0  0
 52 63  1  0  0  0  0
 53 63  1  0  0  0  0
 54 63  1  0  0  0  0
 55 74  1  0  0  0  0
 56 81  1  0  0  0  0
 57 58  1  0  0  0  0
 58 59  1  0  0  0  0
 59 60  1  0  0  0  0
 60 73  1  0  0  0  0
 61 63  1  0  0  0  0
 61 72  1  0  0  0  0
 62 74  1  0  0  0  0
 65 66  1  0  0  0  0
M  CHG  1  74   1
M  ISO  4  37 100  56 101  73 100  81 101
M  END
> <Batch ID>
0039

> <Smiles>
CNC(C)C(=O)NC(C(=O)N1Cc2cc([101O:1][101CH2:1]c3cnc(CCCC[100NH:0][100C:0](=O)N4CCCC(n5nc(-c6ccc(Oc7ccc(F)cc7F)cc6)c(C(N)=O)c5N)C4)c(C)c3)ccc2CC1C(=O)NC1CCCc2ccccc21)C(C)(C)C

> <Shape>
0.213

> <Color>
0.099

> <Negative vol penalty>
0.000

$$$$

  -OEChem-04052317043D

 89 99  0     1  0  0  0  0  0999 V2000
  -29.1644  -30.5433   26.7031 C   0  0  0  0  0  0  0  0  0  0  0  0
  -28.9391  -29.5884   25.7167 C   0  0  0  0  0  0  0  0  0  0  0  0
  -23.1767  -10.7506   21.4175 C   0  0  0  0  0  0  0  0  0  0  0  0
  -24.7909   -9.0046   21.8454 C   0  0  0  0  0  0  0  0  0  0  0  0
  -28.0854  -31.1798   27.3150 C   0  0  0  0  0  0  0  0  0  0  0  0
  -27.6344  -29.2687   25.3425 C   0  0  0  0  0  0  0  0  0  0  0  0
  -27.0691  -28.9835   20.3181 C   0  0  0  0  0  0  0  0  0  0  0  0
  -22.1668   -9.7933   21.3209 C   0  0  0  0  0  0  0  0  0  0  0  0
  -23.7810   -8.0473   21.7488 C   0  0  0  0  0  0  0  0  0  0  0  0
  -27.5252  -27.8249   19.6908 C   0  0  0  0  0  0  0  0  0  0  0  0
  -21.2964   -6.8448   23.6986 C   0  0  0  0  0  0  0  0  0  0  0  0
  -21.2617   -5.8417   24.6672 C   0  0  0  0  0  0  0  0  0  0  0  0
  -25.2666  -26.9804   19.6216 C   0  0  0  0  0  0  0  0  0  0  0  0
  -21.5316   -4.1692   22.9446 C   0  0  0  0  0  0  0  0  0  0  0  0
  -24.4888  -10.3562   21.6796 C   0  0  0  0  0  0  0  0  0  0  0  0
  -25.9559  -12.0201   22.9392 C   0  0  0  0  0  0  0  0  0  0  0  0
  -26.7671  -30.8747   26.9413 C   0  0  0  0  0  0  0  0  0  0  0  0
  -25.7075  -29.1447   20.6122 C   0  0  0  0  0  0  0  0  0  0  0  0
  -26.5367  -29.9008   25.9510 C   0  0  0  0  0  0  0  0  0  0  0  0
  -24.7954  -28.1431   20.2504 C   0  0  0  0  0  0  0  0  0  0  0  0
  -27.2242  -23.5600   16.4699 C   0  0  0  0  0  0  0  0  0  0  0  0
  -22.4689   -8.4416   21.4866 C   0  0  0  0  0  0  0  0  0  0  0  0
  -26.6244  -26.8219   19.3451 C   0  0  0  0  0  0  0  0  0  0  0  0
  -21.4487   -6.5102   22.3530 C   0  0  0  0  0  0  0  0  0  0  0  0
  -21.3794   -4.5039   24.2902 C   0  0  0  0  0  0  0  0  0  0  0  0
  -21.5663   -5.1724   21.9761 C   0  0  0  0  0  0  0  0  0  0  0  0
  -25.5325  -11.3446   21.7789 C   0  0  0  0  0  0  0  0  0  0  0  0
  -27.8332  -22.3936   16.0201 C   0  0  0  0  0  0  0  0  0  0  0  0
  -26.7620  -23.5234   17.7791 C   0  0  0  0  0  0  0  0  0  0  0  0
  -26.9648  -12.8458   22.5068 C   0  0  0  0  0  0  0  0  0  0  0  0
  -27.4833  -21.3930   18.0526 C   0  0  0  0  0  0  0  0  0  0  0  0
  -25.4799  -11.9111   24.2872 C   0  0  0  0  0  0  0  0  0  0  0  0
  -24.0156  -29.5013   23.2794 C   0  0  0  0  0  0  0  0  0  0  0  0
  -21.5666  -29.9589   21.2020 C   0  0  0  0  0  0  0  0  0  0  0  0
  -20.2748  -29.4388   18.0864 C   0  0  0  0  0  0  0  0  0  0  0  0
  -29.1715  -16.3668   18.9355 C   0  0  0  0  0  0  0  0  0  0  0  0
  -25.6317  -31.5548   27.6645 C   0  0  0  0  0  0  0  0  0  0  0  0
  -25.2277  -30.4120   21.2651 C   0  0  0  0  0  0  0  0  0  0  0  0
  -27.0595  -24.7872   15.6224 C   0  0  0  0  0  0  0  0  0  0  0  0
  -23.3206  -28.2763   20.5257 C   0  0  0  0  0  0  0  0  0  0  0  0
  -28.3811  -22.2800   14.6238 C   0  0  0  0  0  0  0  0  0  0  0  0
  -24.2904  -31.4299   26.9464 C   0  0  0  0  0  0  0  0  0  0  0  0
  -29.5284  -23.2513   14.3549 C   0  0  0  0  0  0  0  0  0  0  0  0
  -29.4275  -13.0223   18.1004 C   0  0  0  0  0  0  0  0  0  0  0  0
  -24.0585  -29.9914   26.4950 C   0  0  0  0  0  0  0  0  0  0  0  0
  -29.0757  -24.6786   14.0418 C   0  0  0  0  0  0  0  0  0  0  0  0
  -28.4747  -12.3305   19.0751 C   0  0  0  0  0  0  0  0  0  0  0  0
  -26.8691  -18.9557   18.3753 C   0  0  0  0  0  0  0  0  0  0  0  0
  -29.1091  -19.8131   19.1855 C   0  0  0  0  0  0  0  0  0  0  0  0
  -28.8266  -14.3232   17.5807 C   0  0  0  0  0  0  0  0  0  0  0  0
  -27.0503  -17.7155   19.2552 C   0  0  0  0  0  0  0  0  0  0  0  0
  -29.2251  -18.5701   20.0630 C   0  0  0  0  0  0  0  0  0  0  0  0
  -27.4889  -14.6060   19.6419 C   0  0  0  0  0  0  0  0  0  0  0  0
  -25.1366  -29.5447   25.5003 C   0  0  1  0  0  0  0  0  0  0  0  0
  -27.6322  -20.1690   18.9365 C   0  0  0  0  0  0  0  0  0  0  0  0
  -23.8905  -30.2464   21.9806 C   0  0  1  0  0  0  0  0  0  0  0  0
  -28.4000  -25.4207   15.2085 C   0  0  1  0  0  0  0  0  0  0  0  0
  -28.0509  -13.2850   20.2055 C   0  0  1  0  0  0  0  0  0  0  0  0
  -28.1687  -26.8818   14.8024 C   0  0  0  0  0  0  0  0  0  0  0  0
  -18.2371  -29.9007   16.6964 C   0  0  0  0  0  0  0  0  0  0  0  0
  -20.0518  -27.7756   22.7015 C   0  0  0  0  0  0  0  0  0  0  0  0
  -18.4877  -27.6194   20.7528 C   0  0  0  0  0  0  0  0  0  0  0  0
  -18.6605  -29.7470   22.0436 C   0  0  0  0  0  0  0  0  0  0  0  0
  -21.8347  -30.9896   16.1063 C   0  0  0  0  0  0  0  0  0  0  0  0
  -26.0916  -24.7027   18.4065 C   0  0  0  0  0  0  0  0  0  1  0  0
  -20.5600  -29.0627   20.5219 C   0  0  1  0  0  0  0  0  0  0  0  0
  -19.6221  -30.3858   17.0956 C   0  0  2  0  0  0  0  0  0  0  0  0
  -19.4680  -28.5475   21.5014 C   0  0  0  0  0  0  0  0  0  0  0  0
  -26.2163  -11.7095   20.6912 N   0  0  0  0  0  0  0  0  0  0  0  0
  -27.9729  -21.2959   16.8033 N   0  0  0  0  0  0  0  0  0  0  0  0
  -26.8752  -22.4580   18.5976 N   0  0  0  0  0  0  0  0  0  0  0  0
  -27.0797  -12.6235   21.1661 N   0  0  0  0  0  0  0  0  0  0  0  0
  -22.9015  -29.5312   21.1716 N   0  0  0  0  0  0  0  0  0  0  0  0
  -28.4340  -15.2002   18.6837 N   0  0  0  0  0  0  0  0  0  0  0  0
  -28.4763  -17.4509   19.4920 N   0  0  0  0  0  0  0  0  0  0  0  0
  -27.7560  -13.7330   23.1465 N   0  0  0  0  0  0  0  0  0  0  0  0
  -24.4373  -11.0142   24.5570 N   0  0  0  0  0  0  0  0  0  0  0  0
  -24.8720  -30.0938   24.1877 N   0  0  0  0  0  0  0  0  0  0  0  0
  -20.0379  -29.8207   19.3899 N   0  0  0  0  0  0  0  0  0  0  0  0
  -20.4531  -30.5001   15.8638 N   0  3  0  0  0  0  0  0  0  0  0  0
  -25.9538  -12.6008   25.2217 O   0  0  0  0  0  0  0  0  0  0  0  0
  -23.3808  -28.4664   23.4458 O   0  0  0  0  0  0  0  0  0  0  0  0
  -21.1836  -31.0037   21.7344 O   0  0  0  0  0  0  0  0  0  0  0  0
  -20.9263  -28.4563   17.7387 O   0  0  0  0  0  0  0  0  0  0  0  0
  -30.3801  -16.4362   18.6793 O   0  0  0  0  0  0  0  0  0  0  0  0
  -21.4837   -7.5073   21.3927 O   0  0  0  0  0  0  0  0  0  0  0  0
  -27.0702  -25.6816   18.7289 O   0  0  0  0  0  0  0  0  0  1  0  0
  -21.3476   -3.5408   25.2206 F   0  0  0  0  0  0  0  0  0  0  0  0
  -21.7140   -4.8448   20.6851 F   0  0  0  0  0  0  0  0  0  0  0  0
  1  2  1  0  0  0  0
  1  5  2  0  0  0  0
  2  6  2  0  0  0  0
  3  8  2  0  0  0  0
  3 15  1  0  0  0  0
  4  9  1  0  0  0  0
  4 15  2  0  0  0  0
  5 17  1  0  0  0  0
  6 19  1  0  0  0  0
  7 10  2  0  0  0  0
  7 18  1  0  0  0  0
  8 22  1  0  0  0  0
  9 22  2  0  0  0  0
 10 23  1  0  0  0  0
 11 12  2  0  0  0  0
 11 24  1  0  0  0  0
 12 25  1  0  0  0  0
 13 20  1  0  0  0  0
 13 23  2  0  0  0  0
 14 25  2  0  0  0  0
 14 26  1  0  0  0  0
 15 27  1  0  0  0  0
 16 27  1  0  0  0  0
 16 30  2  0  0  0  0
 16 32  1  0  0  0  0
 17 19  2  0  0  0  0
 17 37  1  0  0  0  0
 18 20  2  0  0  0  0
 18 38  1  0  0  0  0
 19 54  1  0  0  0  0
 20 40  1  0  0  0  0
 21 28  1  0  0  0  0
 21 29  2  0  0  0  0
 21 39  1  0  0  0  0
 22 86  1  0  0  0  0
 23 87  1  0  0  0  0
 24 26  2  0  0  0  0
 24 86  1  0  0  0  0
 25 88  1  0  0  0  0
 26 89  1  0  0  0  0
 27 69  2  0  0  0  0
 28 41  1  0  0  0  0
 28 70  2  0  0  0  0
 29 65  1  0  0  0  0
 29 71  1  0  0  0  0
 30 72  1  0  0  0  0
 30 76  1  0  0  0  0
 31 55  1  0  0  0  0
 31 70  1  0  0  0  0
 31 71  2  0  0  0  0
 32 77  1  0  0  0  0
 32 81  2  0  0  0  0
 33 56  1  0  0  0  0
 33 78  1  0  0  0  0
 33 82  2  0  0  0  0
 34 66  1  0  0  0  0
 34 73  1  0  0  0  0
 34 83  2  0  0  0  0
 35 67  1  0  0  0  0
 35 79  1  0  0  0  0
 35 84  2  0  0  0  0
 36 74  1  0  0  0  0
 36 75  1  0  0  0  0
 36 85  2  0  0  0  0
 37 42  1  0  0  0  0
 38 56  1  0  0  0  0
 39 57  1  0  0  0  0
 40 73  1  0  0  0  0
 41 43  1  0  0  0  0
 42 45  1  0  0  0  0
 43 46  1  0  0  0  0
 44 47  1  0  0  0  0
 44 50  1  0  0  0  0
 45 54  1  0  0  0  0
 46 57  1  0  0  0  0
 47 58  1  0  0  0  0
 48 51  1  0  0  0  0
 48 55  1  0  0  0  0
 49 52  1  0  0  0  0
 49 55  1  0  0  0  0
 50 74  1  0  0  0  0
 51 75  1  0  0  0  0
 52 75  1  0  0  0  0
 53 58  1  0  0  0  0
 53 74  1  0  0  0  0
 54 78  1  0  0  0  0
 56 73  1  0  0  0  0
 57 59  1  0  0  0  0
 58 72  1  0  0  0  0
 60 67  1  0  0  0  0
 61 68  1  0  0  0  0
 62 68  1  0  0  0  0
 63 68  1  0  0  0  0
 64 80  1  0  0  0  0
 65 87  1  0  0  0  0
 66 68  1  0  0  0  0
 66 79  1  0  0  0  0
 67 80  1  0  0  0  0
 69 72  1  0  0  0  0
M  CHG  1  80   1
M  ISO  4  36 100  65 101  75 100  87 101
M  END
> <Batch ID>
0039

> <Smiles>
CNC(C)C(=O)NC(C(=O)N1Cc2cc([101O:1][101CH2:1]c3nc(C4CC[100N:0]([100C:0](=O)N5CCCC(n6nc(-c7ccc(Oc8ccc(F)cc8F)cc7)c(C(N)=O)c6N)C5)CC4)nc4c3CC(C)CCC4)ccc2CC1C(=O)NC1CCCc2ccccc21)C(C)(C)C

> <Shape>
0.286

> <Color>
0.109

> <Negative vol penalty>
0.000

$$$$

  -OEChem-04052317043D

 87 95  0     1  0  0  0  0  0999 V2000
  -29.2142  -37.2183   23.9252 C   0  0  0  0  0  0  0  0  0  0  0  0
  -29.5495  -36.0245   23.2945 C   0  0  0  0  0  0  0  0  0  0  0  0
  -25.9216  -11.7853   20.8004 C   0  0  0  0  0  0  0  0  0  0  0  0
  -26.1757  -12.4775   18.4997 C   0  0  0  0  0  0  0  0  0  0  0  0
  -28.1746  -37.2467   24.8539 C   0  0  0  0  0  0  0  0  0  0  0  0
  -28.8461  -34.8580   23.5929 C   0  0  0  0  0  0  0  0  0  0  0  0
  -27.4821  -30.2946   19.7432 C   0  0  0  0  0  0  0  0  0  0  0  0
  -25.5942  -10.4973   20.3768 C   0  0  0  0  0  0  0  0  0  0  0  0
  -25.8483  -11.1894   18.0761 C   0  0  0  0  0  0  0  0  0  0  0  0
  -28.0764  -29.0552   19.5096 C   0  0  0  0  0  0  0  0  0  0  0  0
  -22.8907   -8.8983   19.1283 C   0  0  0  0  0  0  0  0  0  0  0  0
  -21.8020   -8.2739   19.7369 C   0  0  0  0  0  0  0  0  0  0  0  0
  -26.4940  -28.0209   21.0082 C   0  0  0  0  0  0  0  0  0  0  0  0
  -30.4788  -24.6652   19.9096 C   0  0  0  0  0  0  0  0  0  0  0  0
  -29.4571  -24.5353   17.7242 C   0  0  0  0  0  0  0  0  0  0  0  0
  -23.2483   -6.4950   20.4991 C   0  0  0  0  0  0  0  0  0  0  0  0
  -26.2124  -12.7754   19.8619 C   0  0  0  0  0  0  0  0  0  0  0  0
  -27.8339  -14.6050   20.5905 C   0  0  0  0  0  0  0  0  0  0  0  0
  -27.4518  -36.0820   25.1567 C   0  0  0  0  0  0  0  0  0  0  0  0
  -26.3944  -30.4083   20.6209 C   0  0  0  0  0  0  0  0  0  0  0  0
  -27.7968  -34.8706   24.5275 C   0  0  0  0  0  0  0  0  0  0  0  0
  -25.8861  -29.2625   21.2492 C   0  0  0  0  0  0  0  0  0  0  0  0
  -29.7465  -25.2584   18.8813 C   0  0  0  0  0  0  0  0  0  0  0  0
  -30.9219  -23.3489   19.7807 C   0  0  0  0  0  0  0  0  0  0  0  0
  -29.9001  -23.2189   17.5953 C   0  0  0  0  0  0  0  0  0  0  0  0
  -30.6325  -22.6257   18.6236 C   0  0  0  0  0  0  0  0  0  0  0  0
  -25.5575  -10.1994   19.0147 C   0  0  0  0  0  0  0  0  0  0  0  0
  -27.5842  -27.9186   20.1444 C   0  0  0  0  0  0  0  0  0  0  0  0
  -24.1582   -8.3211   19.2050 C   0  0  0  0  0  0  0  0  0  0  0  0
  -21.9808   -7.0723   20.4223 C   0  0  0  0  0  0  0  0  0  0  0  0
  -24.3370   -7.1194   19.8904 C   0  0  0  0  0  0  0  0  0  0  0  0
  -26.5501  -14.1062   20.2988 C   0  0  0  0  0  0  0  0  0  0  0  0
  -27.6194  -15.9107   20.9587 C   0  0  0  0  0  0  0  0  0  0  0  0
  -29.1064  -13.9470   20.5335 C   0  0  0  0  0  0  0  0  0  0  0  0
  -25.8672  -31.9469   23.3519 C   0  0  0  0  0  0  0  0  0  0  0  0
  -22.8423  -30.8533   22.9323 C   0  0  0  0  0  0  0  0  0  0  0  0
  -20.7683  -28.5359   21.5270 C   0  0  0  0  0  0  0  0  0  0  0  0
  -23.2719  -19.8360   19.7166 C   0  0  0  0  0  0  0  0  0  0  0  0
  -26.3672  -36.1520   26.2024 C   0  0  0  0  0  0  0  0  0  0  0  0
  -25.7476  -31.7483   20.8415 C   0  0  0  0  0  0  0  0  0  0  0  0
  -24.7077  -29.3278   22.1849 C   0  0  0  0  0  0  0  0  0  0  0  0
  -25.4259  -34.9504   26.1850 C   0  0  0  0  0  0  0  0  0  0  0  0
  -24.3163  -18.7477   22.9417 C   0  0  0  0  0  0  0  0  0  0  0  0
  -26.2205  -33.6510   26.1003 C   0  0  0  0  0  0  0  0  0  0  0  0
  -25.1231  -17.4798   22.6564 C   0  0  0  0  0  0  0  0  0  0  0  0
  -23.1234  -18.8819   21.9979 C   0  0  0  0  0  0  0  0  0  0  0  0
  -24.2634  -17.5342   20.2780 C   0  0  0  0  0  0  0  0  0  0  0  0
  -27.0410  -33.5895   24.8063 C   0  0  1  0  0  0  0  0  0  0  0  0
  -24.9707  -31.8282   22.1520 C   0  0  1  0  0  0  0  0  0  0  0  0
  -25.5090  -17.3837   21.1681 C   0  0  2  0  0  0  0  0  0  0  0  0
  -31.1073  -21.2142   18.4859 C   0  0  0  0  0  0  0  0  0  0  0  0
  -30.8614  -21.7797   21.7353 C   0  0  0  0  0  0  0  0  0  0  0  0
  -18.3498  -27.8793   21.3952 C   0  0  0  0  0  0  0  0  0  0  0  0
  -23.0103  -29.6796   25.7437 C   0  0  0  0  0  0  0  0  0  0  0  0
  -21.0150  -28.2688   25.1987 C   0  0  0  0  0  0  0  0  0  0  0  0
  -20.8214  -30.7558   25.1916 C   0  0  0  0  0  0  0  0  0  0  0  0
  -20.7012  -28.9296   18.5945 C   0  0  0  0  0  0  0  0  0  0  0  0
  -31.7034  -22.7365   20.8969 C   0  0  0  0  0  0  0  0  0  0  0  0
  -29.5769  -22.4660   16.3461 C   0  0  0  0  0  0  0  0  0  0  0  0
  -29.2705  -26.6746   19.0197 C   0  0  0  0  0  0  0  0  0  1  0  0
  -28.4433  -21.4375   16.5018 C   0  0  0  0  0  0  0  0  0  0  0  0
  -27.1031  -22.0813   16.8711 C   0  0  0  0  0  0  0  0  0  0  0  0
  -25.9972  -21.0297   16.9909 C   0  0  0  0  0  0  0  0  0  0  0  0
  -24.6494  -21.6777   17.3213 C   0  0  0  0  0  0  0  0  0  0  0  0
  -23.5125  -20.6633   17.3892 C   0  0  0  0  0  0  0  0  0  0  0  0
  -22.0912  -29.6062   23.3321 C   0  0  1  0  0  0  0  0  0  0  0  0
  -19.4702  -28.6831   20.7538 C   0  0  2  0  0  0  0  0  0  0  0  0
  -21.7579  -29.5764   24.8504 C   0  0  0  0  0  0  0  0  0  0  0  0
  -25.5911  -15.0205   20.4674 N   0  0  0  0  0  0  0  0  0  0  0  0
  -26.2726  -16.1069   20.8691 N   0  0  0  0  0  0  0  0  0  0  0  0
  -24.1137  -30.6617   22.3731 N   0  0  0  0  0  0  0  0  0  0  0  0
  -23.5576  -18.7838   20.6022 N   0  0  0  0  0  0  0  0  0  0  0  0
  -28.4532  -16.8987   21.3473 N   0  0  0  0  0  0  0  0  0  0  0  0
  -29.1468  -12.6040   20.1347 N   0  0  0  0  0  0  0  0  0  0  0  0
  -26.1919  -33.2481   23.6852 N   0  0  0  0  0  0  0  0  0  0  0  0
  -20.9221  -29.5373   22.4622 N   0  0  0  0  0  0  0  0  0  0  0  0
  -23.7244  -19.6654   18.4140 N   0  0  0  0  0  0  0  0  0  0  0  0
  -19.6457  -28.2090   19.3519 N   0  3  0  0  0  0  0  0  0  0  0  0
  -30.1742  -14.5278   20.8433 O   0  0  0  0  0  0  0  0  0  0  0  0
  -26.2358  -30.9332   23.9334 O   0  0  0  0  0  0  0  0  0  0  0  0
  -22.3172  -31.9563   23.1031 O   0  0  0  0  0  0  0  0  0  0  0  0
  -21.5643  -27.6216   21.3243 O   0  0  0  0  0  0  0  0  0  0  0  0
  -22.6636  -20.8544   20.0625 O   0  0  0  0  0  0  0  0  0  0  0  0
  -25.2383   -8.9426   18.6009 O   0  0  0  0  0  0  0  0  0  0  0  0
  -28.1628  -26.7077   19.9187 O   0  0  0  0  0  0  0  0  0  1  0  0
  -20.9354   -6.4736   21.0080 F   0  0  0  0  0  0  0  0  0  0  0  0
  -25.5525   -6.5607   19.9686 F   0  0  0  0  0  0  0  0  0  0  0  0
  1  2  1  0  0  0  0
  1  5  2  0  0  0  0
  2  6  2  0  0  0  0
  3  8  2  0  0  0  0
  3 17  1  0  0  0  0
  4  9  1  0  0  0  0
  4 17  2  0  0  0  0
  5 19  1  0  0  0  0
  6 21  1  0  0  0  0
  7 10  2  0  0  0  0
  7 20  1  0  0  0  0
  8 27  1  0  0  0  0
  9 27  2  0  0  0  0
 10 28  1  0  0  0  0
 11 12  2  0  0  0  0
 11 29  1  0  0  0  0
 12 30  1  0  0  0  0
 13 22  1  0  0  0  0
 13 28  2  0  0  0  0
 14 23  2  0  0  0  0
 14 24  1  0  0  0  0
 15 23  1  0  0  0  0
 15 25  2  0  0  0  0
 16 30  2  0  0  0  0
 16 31  1  0  0  0  0
 17 32  1  0  0  0  0
 18 32  1  0  0  0  0
 18 33  2  0  0  0  0
 18 34  1  0  0  0  0
 19 21  2  0  0  0  0
 19 39  1  0  0  0  0
 20 22  2  0  0  0  0
 20 40  1  0  0  0  0
 21 48  1  0  0  0  0
 22 41  1  0  0  0  0
 23 60  1  0  0  0  0
 24 26  2  0  0  0  0
 24 58  1  0  0  0  0
 25 26  1  0  0  0  0
 25 59  1  0  0  0  0
 26 51  1  0  0  0  0
 27 84  1  0  0  0  0
 28 85  1  0  0  0  0
 29 31  2  0  0  0  0
 29 84  1  0  0  0  0
 30 86  1  0  0  0  0
 31 87  1  0  0  0  0
 32 69  2  0  0  0  0
 33 70  1  0  0  0  0
 33 73  1  0  0  0  0
 34 74  1  0  0  0  0
 34 79  2  0  0  0  0
 35 49  1  0  0  0  0
 35 75  1  0  0  0  0
 35 80  2  0  0  0  0
 36 66  1  0  0  0  0
 36 71  1  0  0  0  0
 36 81  2  0  0  0  0
 37 67  1  0  0  0  0
 37 76  1  0  0  0  0
 37 82  2  0  0  0  0
 38 72  1  0  0  0  0
 38 77  1  0  0  0  0
 38 83  2  0  0  0  0
 39 42  1  0  0  0  0
 40 49  1  0  0  0  0
 41 71  1  0  0  0  0
 42 44  1  0  0  0  0
 43 45  1  0  0  0  0
 43 46  1  0  0  0  0
 44 48  1  0  0  0  0
 45 50  1  0  0  0  0
 46 72  1  0  0  0  0
 47 50  1  0  0  0  0
 47 72  1  0  0  0  0
 48 75  1  0  0  0  0
 49 71  1  0  0  0  0
 50 70  1  0  0  0  0
 52 58  1  0  0  0  0
 53 67  1  0  0  0  0
 54 68  1  0  0  0  0
 55 68  1  0  0  0  0
 56 68  1  0  0  0  0
 57 78  1  0  0  0  0
 59 61  1  0  0  0  0
 60 85  1  0  0  0  0
 61 62  1  0  0  0  0
 62 63  1  0  0  0  0
 63 64  1  0  0  0  0
 64 65  1  0  0  0  0
 65 77  1  0  0  0  0
 66 68  1  0  0  0  0
 66 76  1  0  0  0  0
 67 78  1  0  0  0  0
 69 70  1  0  0  0  0
M  CHG  1  78   1
M  ISO  4  38 100  60 101  77 100  85 101
M  END
> <Batch ID>
0039

> <Smiles>
CCc1cc([101CH2:1][101O:1]c2ccc3c(c2)CN(C(=O)C(NC(=O)C(C)NC)C(C)(C)C)C(C(=O)NC2CCCc4ccccc42)C3)cc(CCCCCC[100NH:0][100C:0](=O)N2CCCC(n3nc(-c4ccc(Oc5ccc(F)cc5F)cc4)c(C(N)=O)c3N)C2)c1C

> <Shape>
0.265

> <Color>
0.073

> <Negative vol penalty>
0.000

$$$$

  -OEChem-04052317043D

 83 91  0     1  0  0  0  0  0999 V2000
  -21.6370  -11.9588   20.4704 C   0  0  0  0  0  0  0  0  0  0  0  0
  -21.5147  -13.2477   20.9795 C   0  0  0  0  0  0  0  0  0  0  0  0
  -25.0594  -28.5329   19.4320 C   0  0  0  0  0  0  0  0  0  0  0  0
  -25.8862  -26.9385   21.0480 C   0  0  0  0  0  0  0  0  0  0  0  0
  -22.9015  -11.4192   20.2384 C   0  0  0  0  0  0  0  0  0  0  0  0
  -22.6570  -13.9974   21.2579 C   0  0  0  0  0  0  0  0  0  0  0  0
  -23.3229  -20.0552   20.6528 C   0  0  0  0  0  0  0  0  0  0  0  0
  -26.3142  -29.1405   19.3894 C   0  0  0  0  0  0  0  0  0  0  0  0
  -27.1410  -27.5460   21.0054 C   0  0  0  0  0  0  0  0  0  0  0  0
  -23.2504  -21.1030   21.5697 C   0  0  0  0  0  0  0  0  0  0  0  0
  -29.8359  -27.5519   18.9662 C   0  0  0  0  0  0  0  0  0  0  0  0
  -30.9536  -26.7218   18.8809 C   0  0  0  0  0  0  0  0  0  0  0  0
  -25.6495  -21.0468   21.8145 C   0  0  0  0  0  0  0  0  0  0  0  0
  -22.3138  -22.9652   25.4724 C   0  0  0  0  0  0  0  0  0  0  0  0
  -31.7802  -27.6208   20.9656 C   0  0  0  0  0  0  0  0  0  0  0  0
  -23.7607  -21.6756   26.8507 C   0  0  0  0  0  0  0  0  0  0  0  0
  -24.8453  -27.4319   20.2613 C   0  0  0  0  0  0  0  0  0  0  0  0
  -23.0883  -25.7469   19.4990 C   0  0  0  0  0  0  0  0  0  0  0  0
  -24.0597  -12.1662   20.5051 C   0  0  0  0  0  0  0  0  0  0  0  0
  -24.5604  -19.4871   20.3176 C   0  0  0  0  0  0  0  0  0  0  0  0
  -23.9382  -13.4668   21.0306 C   0  0  0  0  0  0  0  0  0  0  0  0
  -25.7353  -19.9936   20.8912 C   0  0  0  0  0  0  0  0  0  0  0  0
  -23.6052  -22.6570   25.8850 C   0  0  0  0  0  0  0  0  0  0  0  0
  -21.2324  -22.2923   26.0302 C   0  0  0  0  0  0  0  0  0  0  0  0
  -27.3551  -28.6470   20.1761 C   0  0  0  0  0  0  0  0  0  0  0  0
  -24.4135  -21.5971   22.1528 C   0  0  0  0  0  0  0  0  0  0  0  0
  -29.6903  -28.4165   20.0511 C   0  0  0  0  0  0  0  0  0  0  0  0
  -31.9257  -26.7562   19.8806 C   0  0  0  0  0  0  0  0  0  0  0  0
  -30.6625  -28.4509   21.0508 C   0  0  0  0  0  0  0  0  0  0  0  0
  -23.5492  -26.8042   20.3061 C   0  0  0  0  0  0  0  0  0  0  0  0
  -21.4941  -21.3271   26.9892 C   0  0  0  0  0  0  0  0  0  0  0  0
  -21.8049  -25.5188   19.9318 C   0  0  0  0  0  0  0  0  0  0  0  0
  -23.7602  -25.0346   18.4517 C   0  0  0  0  0  0  0  0  0  0  0  0
  -25.8537  -16.5977   20.6049 C   0  0  0  0  0  0  0  0  0  0  0  0
  -28.2639  -17.9335   18.8936 C   0  0  0  0  0  0  0  0  0  0  0  0
  -29.9168  -20.7622   17.9379 C   0  0  0  0  0  0  0  0  0  0  0  0
  -19.0134  -26.5364   25.1301 C   0  0  0  0  0  0  0  0  0  0  0  0
  -25.4056  -11.5230   20.2827 C   0  0  0  0  0  0  0  0  0  0  0  0
  -24.6242  -18.3751   19.3067 C   0  0  0  0  0  0  0  0  0  0  0  0
  -27.0905  -19.4321   20.5498 C   0  0  0  0  0  0  0  0  0  0  0  0
  -26.5601  -12.5212   20.2519 C   0  0  0  0  0  0  0  0  0  0  0  0
  -18.0708  -27.7538   21.9198 C   0  0  0  0  0  0  0  0  0  0  0  0
  -26.4477  -13.5033   21.4136 C   0  0  0  0  0  0  0  0  0  0  0  0
  -19.3263  -27.5530   21.0694 C   0  0  0  0  0  0  0  0  0  0  0  0
  -18.4173  -28.1548   23.3519 C   0  0  0  0  0  0  0  0  0  0  0  0
  -20.6136  -27.0489   23.1877 C   0  0  0  0  0  0  0  0  0  0  0  0
  -25.1533  -14.3204   21.3220 C   0  0  1  0  0  0  0  0  0  0  0  0
  -25.8886  -17.5301   19.4271 C   0  0  1  0  0  0  0  0  0  0  0  0
  -20.3165  -26.5890   21.7502 C   0  0  2  0  0  0  0  0  0  0  0  0
  -20.3716  -20.5715   27.6223 C   0  0  0  0  0  0  0  0  0  0  0  0
  -31.8707  -21.5332   16.5649 C   0  0  0  0  0  0  0  0  0  0  0  0
  -30.1695  -17.0028   21.0873 C   0  0  0  0  0  0  0  0  0  0  0  0
  -31.8836  -18.5814   20.1716 C   0  0  0  0  0  0  0  0  0  0  0  0
  -31.0350  -16.7082   18.7595 C   0  0  0  0  0  0  0  0  0  0  0  0
  -28.1795  -22.3566   16.1495 C   0  0  0  0  0  0  0  0  0  0  0  0
  -24.8006  -23.3682   25.2989 C   0  0  0  0  0  0  0  0  0  0  0  0
  -19.8459  -22.6189   25.5939 C   0  0  0  0  0  0  0  0  0  0  0  0
  -19.0708  -23.5373   26.5604 C   0  0  0  0  0  0  0  0  0  0  0  0
  -19.7463  -24.8807   26.8274 C   0  0  0  0  0  0  0  0  0  0  0  0
  -25.3476  -22.6613   24.0635 C   0  0  0  0  0  0  0  0  0  1  0  0
  -29.5294  -18.6829   19.2343 C   0  0  1  0  0  0  0  0  0  0  0  0
  -30.3769  -21.2483   16.5753 C   0  0  2  0  0  0  0  0  0  0  0  0
  -30.6288  -17.7533   19.8213 C   0  0  0  0  0  0  0  0  0  0  0  0
  -22.7347  -21.0003   27.4155 N   0  0  0  0  0  0  0  0  0  0  0  0
  -22.6330  -27.2192   21.1850 N   0  0  0  0  0  0  0  0  0  0  0  0
  -21.5835  -26.4185   20.9326 N   0  0  0  0  0  0  0  0  0  0  0  0
  -27.1002  -18.3415   19.5607 N   0  0  0  0  0  0  0  0  0  0  0  0
  -19.3586  -27.1991   23.9407 N   0  0  0  0  0  0  0  0  0  0  0  0
  -20.8553  -24.6384   19.5500 N   0  0  0  0  0  0  0  0  0  0  0  0
  -25.0765  -25.3972   18.1349 N   0  0  0  0  0  0  0  0  0  0  0  0
  -25.2858  -15.3678   20.3321 N   0  0  0  0  0  0  0  0  0  0  0  0
  -29.9272  -19.3858   18.0194 N   0  0  0  0  0  0  0  0  0  0  0  0
  -19.9593  -25.6427   25.6171 N   0  0  0  0  0  0  0  0  0  0  0  0
  -29.6573  -22.4985   16.2012 N   0  3  0  0  0  0  0  0  0  0  0  0
  -23.2041  -24.1151   17.8046 O   0  0  0  0  0  0  0  0  0  0  0  0
  -26.3096  -16.9663   21.6810 O   0  0  0  0  0  0  0  0  0  0  0  0
  -28.3051  -17.0245   18.0607 O   0  0  0  0  0  0  0  0  0  0  0  0
  -29.5851  -21.5271   18.8409 O   0  0  0  0  0  0  0  0  0  0  0  0
  -17.9393  -26.7231   25.7119 O   0  0  0  0  0  0  0  0  0  0  0  0
  -28.5797  -29.2395   20.1347 O   0  0  0  0  0  0  0  0  0  0  0  0
  -24.3454  -22.6193   23.0485 O   0  0  0  0  0  0  0  0  0  1  0  0
  -32.9982  -25.9579   19.7994 F   0  0  0  0  0  0  0  0  0  0  0  0
  -30.5276  -29.2786   22.0960 F   0  0  0  0  0  0  0  0  0  0  0  0
  1  2  1  0  0  0  0
  1  5  2  0  0  0  0
  2  6  2  0  0  0  0
  3  8  2  0  0  0  0
  3 17  1  0  0  0  0
  4  9  1  0  0  0  0
  4 17  2  0  0  0  0
  5 19  1  0  0  0  0
  6 21  1  0  0  0  0
  7 10  2  0  0  0  0
  7 20  1  0  0  0  0
  8 25  1  0  0  0  0
  9 25  2  0  0  0  0
 10 26  1  0  0  0  0
 11 12  2  0  0  0  0
 11 27  1  0  0  0  0
 12 28  1  0  0  0  0
 13 22  1  0  0  0  0
 13 26  2  0  0  0  0
 14 23  2  0  0  0  0
 14 24  1  0  0  0  0
 15 28  2  0  0  0  0
 15 29  1  0  0  0  0
 16 23  1  0  0  0  0
 16 64  2  0  0  0  0
 17 30  1  0  0  0  0
 18 30  1  0  0  0  0
 18 32  2  0  0  0  0
 18 33  1  0  0  0  0
 19 21  2  0  0  0  0
 19 38  1  0  0  0  0
 20 22  2  0  0  0  0
 20 39  1  0  0  0  0
 21 47  1  0  0  0  0
 22 40  1  0  0  0  0
 23 56  1  0  0  0  0
 24 31  2  0  0  0  0
 24 57  1  0  0  0  0
 25 80  1  0  0  0  0
 26 81  1  0  0  0  0
 27 29  2  0  0  0  0
 27 80  1  0  0  0  0
 28 82  1  0  0  0  0
 29 83  1  0  0  0  0
 30 65  2  0  0  0  0
 31 50  1  0  0  0  0
 31 64  1  0  0  0  0
 32 66  1  0  0  0  0
 32 69  1  0  0  0  0
 33 70  1  0  0  0  0
 33 75  2  0  0  0  0
 34 48  1  0  0  0  0
 34 71  1  0  0  0  0
 34 76  2  0  0  0  0
 35 61  1  0  0  0  0
 35 67  1  0  0  0  0
 35 77  2  0  0  0  0
 36 62  1  0  0  0  0
 36 72  1  0  0  0  0
 36 78  2  0  0  0  0
 37 68  1  0  0  0  0
 37 73  1  0  0  0  0
 37 79  2  0  0  0  0
 38 41  1  0  0  0  0
 39 48  1  0  0  0  0
 40 67  1  0  0  0  0
 41 43  1  0  0  0  0
 42 44  1  0  0  0  0
 42 45  1  0  0  0  0
 43 47  1  0  0  0  0
 44 49  1  0  0  0  0
 45 68  1  0  0  0  0
 46 49  1  0  0  0  0
 46 68  1  0  0  0  0
 47 71  1  0  0  0  0
 48 67  1  0  0  0  0
 49 66  1  0  0  0  0
 51 62  1  0  0  0  0
 52 63  1  0  0  0  0
 53 63  1  0  0  0  0
 54 63  1  0  0  0  0
 55 74  1  0  0  0  0
 56 60  1  0  0  0  0
 57 58  1  0  0  0  0
 58 59  1  0  0  0  0
 59 73  1  0  0  0  0
 60 81  1  0  0  0  0
 61 63  1  0  0  0  0
 61 72  1  0  0  0  0
 62 74  1  0  0  0  0
 65 66  1  0  0  0  0
M  CHG  1  74   1
M  ISO  4  37 100  60 101  73 100  81 101
M  END
> <Batch ID>
0039

> <Smiles>
CNC(C)C(=O)NC(C(=O)N1Cc2cc([101O:1][101CH2:1]Cc3cnc(C)c(CCC[100NH:0][100C:0](=O)N4CCCC(n5nc(-c6ccc(Oc7ccc(F)cc7F)cc6)c(C(N)=O)c5N)C4)c3)ccc2CC1C(=O)NC1CCCc2ccccc21)C(C)(C)C

> <Shape>
0.197

> <Color>
0.077

> <Negative vol penalty>
0.000

$$$$

  -OEChem-04052317043D

 87 95  0     1  0  0  0  0  0999 V2000
  -17.8072  -25.4545   24.7101 C   0  0  0  0  0  0  0  0  0  0  0  0
  -19.1455  -25.1180   24.8862 C   0  0  0  0  0  0  0  0  0  0  0  0
  -27.5345  -16.5048   20.1875 C   0  0  0  0  0  0  0  0  0  0  0  0
  -29.1840  -17.6265   18.8244 C   0  0  0  0  0  0  0  0  0  0  0  0
  -17.4634  -26.5520   23.9219 C   0  0  0  0  0  0  0  0  0  0  0  0
  -20.1409  -25.8783   24.2733 C   0  0  0  0  0  0  0  0  0  0  0  0
  -25.7073  -27.1349   26.4963 C   0  0  0  0  0  0  0  0  0  0  0  0
  -27.8153  -15.3027   19.5382 C   0  0  0  0  0  0  0  0  0  0  0  0
  -29.4650  -16.4244   18.1751 C   0  0  0  0  0  0  0  0  0  0  0  0
  -26.9598  -26.5681   26.2645 C   0  0  0  0  0  0  0  0  0  0  0  0
  -28.3540  -11.8643   18.4881 C   0  0  0  0  0  0  0  0  0  0  0  0
  -28.5001  -10.7214   19.2742 C   0  0  0  0  0  0  0  0  0  0  0  0
  -27.4253  -28.2803   24.6302 C   0  0  0  0  0  0  0  0  0  0  0  0
  -32.1197  -23.3551   23.4134 C   0  0  0  0  0  0  0  0  0  0  0  0
  -32.0018  -26.1304   23.6713 C   0  0  0  0  0  0  0  0  0  0  0  0
  -30.3422  -11.7604   20.4423 C   0  0  0  0  0  0  0  0  0  0  0  0
  -28.2188  -17.6668   19.8306 C   0  0  0  0  0  0  0  0  0  0  0  0
  -28.5454  -19.4130   21.6613 C   0  0  0  0  0  0  0  0  0  0  0  0
  -18.4555  -27.3319   23.3069 C   0  0  0  0  0  0  0  0  0  0  0  0
  -25.2994  -28.2741   25.7878 C   0  0  0  0  0  0  0  0  0  0  0  0
  -19.8100  -26.9865   23.4751 C   0  0  0  0  0  0  0  0  0  0  0  0
  -26.1681  -28.8611   24.8567 C   0  0  0  0  0  0  0  0  0  0  0  0
  -32.4856  -24.1711   22.3430 C   0  0  0  0  0  0  0  0  0  0  0  0
  -31.6948  -23.9267   24.6128 C   0  0  0  0  0  0  0  0  0  0  0  0
  -32.4267  -25.5588   22.4719 C   0  0  0  0  0  0  0  0  0  0  0  0
  -31.6358  -25.3143   24.7417 C   0  0  0  0  0  0  0  0  0  0  0  0
  -28.7806  -15.2625   18.5320 C   0  0  0  0  0  0  0  0  0  0  0  0
  -27.8179  -27.1391   25.3292 C   0  0  0  0  0  0  0  0  0  0  0  0
  -29.2020  -12.9553   18.6791 C   0  0  0  0  0  0  0  0  0  0  0  0
  -29.4942  -10.6694   20.2513 C   0  0  0  0  0  0  0  0  0  0  0  0
  -30.1961  -12.9033   19.6562 C   0  0  0  0  0  0  0  0  0  0  0  0
  -27.9287  -18.9090   20.5005 C   0  0  0  0  0  0  0  0  0  0  0  0
  -27.9186  -20.6137   21.8894 C   0  0  0  0  0  0  0  0  0  0  0  0
  -29.5913  -18.8465   22.4618 C   0  0  0  0  0  0  0  0  0  0  0  0
  -22.9393  -28.9302   23.7621 C   0  0  0  0  0  0  0  0  0  0  0  0
  -24.0813  -31.9553   24.0206 C   0  0  0  0  0  0  0  0  0  0  0  0
  -26.7131  -34.0075   24.7341 C   0  0  0  0  0  0  0  0  0  0  0  0
  -25.8809  -25.4686   20.0393 C   0  0  0  0  0  0  0  0  0  0  0  0
  -18.0333  -28.4807   22.4257 C   0  0  0  0  0  0  0  0  0  0  0  0
  -23.9557  -28.8890   26.0689 C   0  0  0  0  0  0  0  0  0  0  0  0
  -25.7858  -30.0963   24.0844 C   0  0  0  0  0  0  0  0  0  0  0  0
  -19.1640  -29.4584   22.1160 C   0  0  0  0  0  0  0  0  0  0  0  0
  -23.7699  -22.6118   19.7959 C   0  0  0  0  0  0  0  0  0  0  0  0
  -20.4258  -28.7038   21.7095 C   0  0  0  0  0  0  0  0  0  0  0  0
  -24.7155  -21.4358   20.0470 C   0  0  0  0  0  0  0  0  0  0  0  0
  -24.4532  -23.7269   19.0075 C   0  0  0  0  0  0  0  0  0  0  0  0
  -26.6669  -23.0318   19.8380 C   0  0  0  0  0  0  0  0  0  0  0  0
  -20.9196  -27.8016   22.8469 C   0  0  1  0  0  0  0  0  0  0  0  0
  -23.4395  -29.7483   24.9188 C   0  0  1  0  0  0  0  0  0  0  0  0
  -26.0398  -21.9060   20.6781 C   0  0  2  0  0  0  0  0  0  0  0  0
  -32.9380  -23.5366   21.0690 C   0  0  0  0  0  0  0  0  0  0  0  0
  -31.3072  -23.0329   25.7448 C   0  0  0  0  0  0  0  0  0  0  0  0
  -27.3532  -36.4324   24.8206 C   0  0  0  0  0  0  0  0  0  0  0  0
  -24.2609  -32.0141   20.9752 C   0  0  0  0  0  0  0  0  0  0  0  0
  -25.7534  -34.0146   21.1714 C   0  0  0  0  0  0  0  0  0  0  0  0
  -23.4069  -34.1242   22.0108 C   0  0  0  0  0  0  0  0  0  0  0  0
  -27.3105  -33.8661   27.6292 C   0  0  0  0  0  0  0  0  0  0  0  0
  -32.8140  -26.4525   21.3398 C   0  0  0  0  0  0  0  0  0  0  0  0
  -31.1785  -25.9557   26.0293 C   0  0  0  0  0  0  0  0  0  0  0  0
  -31.7599  -26.5543   20.2234 C   0  0  0  0  0  0  0  0  0  0  0  0
  -30.4400  -27.1641   20.7062 C   0  0  0  0  0  0  0  0  0  0  0  0
  -29.4283  -27.2724   19.5625 C   0  0  0  0  0  0  0  0  0  0  0  0
  -28.1229  -27.9182   20.0364 C   0  0  0  0  0  0  0  0  0  0  0  0
  -27.4184  -27.0958   21.1104 C   0  0  0  0  0  0  0  0  0  0  0  0
  -29.6631  -25.9120   26.1925 C   0  0  0  0  0  0  0  0  0  1  0  0
  -25.1188  -32.7725   23.2893 C   0  0  1  0  0  0  0  0  0  0  0  0
  -26.8174  -35.2456   25.6062 C   0  0  2  0  0  0  0  0  0  0  0  0
  -24.6417  -33.2070   21.8747 C   0  0  0  0  0  0  0  0  0  0  0  0
  -26.9826  -19.7228   20.0245 N   0  0  0  0  0  0  0  0  0  0  0  0
  -27.0001  -20.7503   20.8905 N   0  0  0  0  0  0  0  0  0  0  0  0
  -24.4592  -30.6567   24.3901 N   0  0  0  0  0  0  0  0  0  0  0  0
  -25.7019  -24.1281   19.6598 N   0  0  0  0  0  0  0  0  0  0  0  0
  -28.0690  -21.5552   22.8450 N   0  0  0  0  0  0  0  0  0  0  0  0
  -30.1231  -17.6056   22.0855 N   0  0  0  0  0  0  0  0  0  0  0  0
  -21.6043  -28.5851   23.8526 N   0  0  0  0  0  0  0  0  0  0  0  0
  -25.4602  -33.8829   24.1719 N   0  0  0  0  0  0  0  0  0  0  0  0
  -27.0902  -25.7625   20.6573 N   0  0  0  0  0  0  0  0  0  0  0  0
  -27.7300  -34.9931   26.7570 N   0  3  0  0  0  0  0  0  0  0  0  0
  -30.0297  -19.4160   23.4899 O   0  0  0  0  0  0  0  0  0  0  0  0
  -23.7073  -28.6351   22.8539 O   0  0  0  0  0  0  0  0  0  0  0  0
  -22.9788  -32.4534   24.2616 O   0  0  0  0  0  0  0  0  0  0  0  0
  -27.6505  -33.2308   24.5652 O   0  0  0  0  0  0  0  0  0  0  0  0
  -25.0241  -26.3379   19.8468 O   0  0  0  0  0  0  0  0  0  0  0  0
  -29.0551  -14.0896   17.8984 O   0  0  0  0  0  0  0  0  0  0  0  0
  -29.0407  -26.5876   25.1004 O   0  0  0  0  0  0  0  0  0  1  0  0
  -29.6334   -9.5724   21.0072 F   0  0  0  0  0  0  0  0  0  0  0  0
  -31.0130  -13.9487   19.8451 F   0  0  0  0  0  0  0  0  0  0  0  0
  1  2  1  0  0  0  0
  1  5  2  0  0  0  0
  2  6  2  0  0  0  0
  3  8  2  0  0  0  0
  3 17  1  0  0  0  0
  4  9  1  0  0  0  0
  4 17  2  0  0  0  0
  5 19  1  0  0  0  0
  6 21  1  0  0  0  0
  7 10  2  0  0  0  0
  7 20  1  0  0  0  0
  8 27  1  0  0  0  0
  9 27  2  0  0  0  0
 10 28  1  0  0  0  0
 11 12  2  0  0  0  0
 11 29  1  0  0  0  0
 12 30  1  0  0  0  0
 13 22  1  0  0  0  0
 13 28  2  0  0  0  0
 14 23  2  0  0  0  0
 14 24  1  0  0  0  0
 15 25  2  0  0  0  0
 15 26  1  0  0  0  0
 16 30  2  0  0  0  0
 16 31  1  0  0  0  0
 17 32  1  0  0  0  0
 18 32  1  0  0  0  0
 18 33  2  0  0  0  0
 18 34  1  0  0  0  0
 19 21  2  0  0  0  0
 19 39  1  0  0  0  0
 20 22  2  0  0  0  0
 20 40  1  0  0  0  0
 21 48  1  0  0  0  0
 22 41  1  0  0  0  0
 23 25  1  0  0  0  0
 23 51  1  0  0  0  0
 24 26  2  0  0  0  0
 24 52  1  0  0  0  0
 25 58  1  0  0  0  0
 26 59  1  0  0  0  0
 27 84  1  0  0  0  0
 28 85  1  0  0  0  0
 29 31  2  0  0  0  0
 29 84  1  0  0  0  0
 30 86  1  0  0  0  0
 31 87  1  0  0  0  0
 32 69  2  0  0  0  0
 33 70  1  0  0  0  0
 33 73  1  0  0  0  0
 34 74  1  0  0  0  0
 34 79  2  0  0  0  0
 35 49  1  0  0  0  0
 35 75  1  0  0  0  0
 35 80  2  0  0  0  0
 36 66  1  0  0  0  0
 36 71  1  0  0  0  0
 36 81  2  0  0  0  0
 37 67  1  0  0  0  0
 37 76  1  0  0  0  0
 37 82  2  0  0  0  0
 38 72  1  0  0  0  0
 38 77  1  0  0  0  0
 38 83  2  0  0  0  0
 39 42  1  0  0  0  0
 40 49  1  0  0  0  0
 41 71  1  0  0  0  0
 42 44  1  0  0  0  0
 43 45  1  0  0  0  0
 43 46  1  0  0  0  0
 44 48  1  0  0  0  0
 45 50  1  0  0  0  0
 46 72  1  0  0  0  0
 47 50  1  0  0  0  0
 47 72  1  0  0  0  0
 48 75  1  0  0  0  0
 49 71  1  0  0  0  0
 50 70  1  0  0  0  0
 53 67  1  0  0  0  0
 54 68  1  0  0  0  0
 55 68  1  0  0  0  0
 56 68  1  0  0  0  0
 57 78  1  0  0  0  0
 58 60  1  0  0  0  0
 59 65  1  0  0  0  0
 60 61  1  0  0  0  0
 61 62  1  0  0  0  0
 62 63  1  0  0  0  0
 63 64  1  0  0  0  0
 64 77  1  0  0  0  0
 65 85  1  0  0  0  0
 66 68  1  0  0  0  0
 66 76  1  0  0  0  0
 67 78  1  0  0  0  0
 69 70  1  0  0  0  0
M  CHG  1  78   1
M  ISO  4  38 100  65 101  77 100  85 101
M  END
> <Batch ID>
0039

> <Smiles>
CNC(C)C(=O)NC(C(=O)N1Cc2cc([101O:1][101CH2:1]Cc3cc(CCCCCC[100NH:0][100C:0](=O)N4CCCC(n5nc(-c6ccc(Oc7ccc(F)cc7F)cc6)c(C(N)=O)c5N)C4)c(C)cc3C)ccc2CC1C(=O)NC1CCCc2ccccc21)C(C)(C)C

> <Shape>
0.235

> <Color>
0.067

> <Negative vol penalty>
0.000

$$$$

  -OEChem-04052317043D

 88 96  0     1  0  0  0  0  0999 V2000
  -32.8610  -20.5932   26.3141 C   0  0  0  0  0  0  0  0  0  0  0  0
  -32.2445  -20.9728   25.1262 C   0  0  0  0  0  0  0  0  0  0  0  0
  -23.0595   -9.9058   19.9162 C   0  0  0  0  0  0  0  0  0  0  0  0
  -23.8417   -9.8542   22.2015 C   0  0  0  0  0  0  0  0  0  0  0  0
  -32.2118  -20.7965   27.5311 C   0  0  0  0  0  0  0  0  0  0  0  0
  -30.9777  -21.5550   25.1545 C   0  0  0  0  0  0  0  0  0  0  0  0
  -30.6270  -25.5929   22.1185 C   0  0  0  0  0  0  0  0  0  0  0  0
  -22.3118   -8.7509   20.1460 C   0  0  0  0  0  0  0  0  0  0  0  0
  -23.0941   -8.6993   22.4313 C   0  0  0  0  0  0  0  0  0  0  0  0
  -30.4778  -25.3521   20.7534 C   0  0  0  0  0  0  0  0  0  0  0  0
  -19.3736   -7.9353   21.6070 C   0  0  0  0  0  0  0  0  0  0  0  0
  -18.0618   -7.9074   21.1337 C   0  0  0  0  0  0  0  0  0  0  0  0
  -28.1072  -25.7542   20.9476 C   0  0  0  0  0  0  0  0  0  0  0  0
  -28.2797  -21.8892   19.7600 C   0  0  0  0  0  0  0  0  0  0  0  0
  -18.5981   -5.9935   19.7602 C   0  0  0  0  0  0  0  0  0  0  0  0
  -23.8245  -10.4574   20.9439 C   0  0  0  0  0  0  0  0  0  0  0  0
  -24.1788  -12.9829   20.8806 C   0  0  0  0  0  0  0  0  0  0  0  0
  -30.9405  -21.3903   27.5751 C   0  0  0  0  0  0  0  0  0  0  0  0
  -29.5138  -25.9060   22.9118 C   0  0  0  0  0  0  0  0  0  0  0  0
  -30.3103  -21.7652   26.3732 C   0  0  0  0  0  0  0  0  0  0  0  0
  -28.2453  -26.0011   22.3220 C   0  0  0  0  0  0  0  0  0  0  0  0
  -28.5320  -20.8042   20.5921 C   0  0  0  0  0  0  0  0  0  0  0  0
  -28.7979  -19.5571   20.0377 C   0  0  0  0  0  0  0  0  0  0  0  0
  -22.3291   -8.1476   21.4036 C   0  0  0  0  0  0  0  0  0  0  0  0
  -29.2174  -25.4299   20.1683 C   0  0  0  0  0  0  0  0  0  0  0  0
  -20.2977   -6.9923   21.1568 C   0  0  0  0  0  0  0  0  0  0  0  0
  -17.6740   -6.9365   20.2104 C   0  0  0  0  0  0  0  0  0  0  0  0
  -19.9099   -6.0214   20.2335 C   0  0  0  0  0  0  0  0  0  0  0  0
  -24.5974  -11.6501   20.7070 C   0  0  0  0  0  0  0  0  0  0  0  0
  -28.3047  -21.6763   18.3911 C   0  0  0  0  0  0  0  0  0  0  0  0
  -28.7996  -19.4486   18.6564 C   0  0  0  0  0  0  0  0  0  0  0  0
  -25.2714  -13.7352   20.5245 C   0  0  0  0  0  0  0  0  0  0  0  0
  -22.9153  -13.4952   21.3242 C   0  0  0  0  0  0  0  0  0  0  0  0
  -28.0802  -24.5466   25.4019 C   0  0  0  0  0  0  0  0  0  0  0  0
  -26.3073  -27.2629   25.3685 C   0  0  0  0  0  0  0  0  0  0  0  0
  -25.1047  -29.9160   23.5903 C   0  0  0  0  0  0  0  0  0  0  0  0
  -30.7622  -14.7210   20.6828 C   0  0  0  0  0  0  0  0  0  0  0  0
  -30.2581  -21.5465   28.9109 C   0  0  0  0  0  0  0  0  0  0  0  0
  -29.6954  -26.1893   24.3778 C   0  0  0  0  0  0  0  0  0  0  0  0
  -27.0214  -26.3537   23.1260 C   0  0  0  0  0  0  0  0  0  0  0  0
  -29.0762  -22.5121   28.8819 C   0  0  0  0  0  0  0  0  0  0  0  0
  -29.5884  -12.4000   18.2513 C   0  0  0  0  0  0  0  0  0  0  0  0
  -28.1825  -22.2261   27.6793 C   0  0  0  0  0  0  0  0  0  0  0  0
  -28.1537  -12.1035   18.6913 C   0  0  0  0  0  0  0  0  0  0  0  0
  -30.5184  -12.5873   19.4480 C   0  0  0  0  0  0  0  0  0  0  0  0
  -28.6343  -13.2950   20.8703 C   0  0  0  0  0  0  0  0  0  0  0  0
  -28.9471  -22.4224   26.3647 C   0  0  1  0  0  0  0  0  0  0  0  0
  -28.4167  -25.9951   25.1868 C   0  0  1  0  0  0  0  0  0  0  0  0
  -27.6477  -13.1536   19.6986 C   0  0  2  0  0  0  0  0  0  0  0  0
  -28.5089  -21.0033   22.0716 C   0  0  0  0  0  0  0  0  0  0  0  0
  -26.8113  -15.4299   16.3716 C   0  0  0  0  0  0  0  0  0  0  0  0
  -23.6512  -31.9482   23.8247 C   0  0  0  0  0  0  0  0  0  0  0  0
  -23.8237  -25.4921   25.2945 C   0  0  0  0  0  0  0  0  0  0  0  0
  -22.5022  -27.4950   24.5801 C   0  0  0  0  0  0  0  0  0  0  0  0
  -23.6420  -27.4816   26.7989 C   0  0  0  0  0  0  0  0  0  0  0  0
  -27.3383  -31.7346   22.9104 C   0  0  0  0  0  0  0  0  0  0  0  0
  -29.0746  -18.3757   20.9055 C   0  0  0  0  0  0  0  0  0  0  0  0
  -28.0370  -22.8301   17.4580 C   0  0  0  0  0  0  0  0  0  0  0  0
  -29.0801  -18.1351   18.0024 C   0  0  0  0  0  0  0  0  0  0  0  0
  -28.0874  -16.1046   16.8487 C   0  0  0  0  0  0  0  0  0  0  0  0
  -30.5681  -18.0192   21.0403 C   0  0  0  0  0  0  0  0  0  0  0  0
  -29.2956  -23.6021   17.0561 C   0  0  0  0  0  0  0  0  0  0  0  0
  -27.7988  -17.4658   17.4817 C   0  0  0  0  0  0  0  0  0  0  0  0
  -30.8518  -16.8411   21.9697 C   0  0  0  0  0  0  0  0  0  0  0  0
  -29.9863  -24.2843   18.2312 C   0  0  0  0  0  0  0  0  0  1  0  0
  -25.0275  -27.6960   24.6951 C   0  0  1  0  0  0  0  0  0  0  0  0
  -25.0686  -31.4019   23.8986 C   0  0  2  0  0  0  0  0  0  0  0  0
  -23.7714  -27.0326   25.3271 C   0  0  0  0  0  0  0  0  0  0  0  0
  -25.8576  -11.5577   20.2740 N   0  0  0  0  0  0  0  0  0  0  0  0
  -28.5590  -20.4797   17.8158 N   0  0  0  0  0  0  0  0  0  0  0  0
  -26.2402  -12.8420   20.1726 N   0  0  0  0  0  0  0  0  0  0  0  0
  -27.2496  -26.6156   24.5567 N   0  0  0  0  0  0  0  0  0  0  0  0
  -29.9821  -13.5973   20.3636 N   0  0  0  0  0  0  0  0  0  0  0  0
  -25.4883  -15.0669   20.4810 N   0  0  0  0  0  0  0  0  0  0  0  0
  -21.9018  -12.5835   21.6498 N   0  0  0  0  0  0  0  0  0  0  0  0
  -29.0658  -23.8310   26.0545 N   0  0  0  0  0  0  0  0  0  0  0  0
  -25.0178  -29.1543   24.7365 N   0  0  0  0  0  0  0  0  0  0  0  0
  -30.1763  -15.6326   21.5525 N   0  0  0  0  0  0  0  0  0  0  0  0
  -25.9130  -32.1531   22.9272 N   0  3  0  0  0  0  0  0  0  0  0  0
  -22.6863  -14.7253   21.4131 O   0  0  0  0  0  0  0  0  0  0  0  0
  -27.0053  -24.1109   25.0064 O   0  0  0  0  0  0  0  0  0  0  0  0
  -26.4682  -27.4969   26.5689 O   0  0  0  0  0  0  0  0  0  0  0  0
  -25.1967  -29.4749   22.4468 O   0  0  0  0  0  0  0  0  0  0  0  0
  -31.8946  -14.9013   20.2222 O   0  0  0  0  0  0  0  0  0  0  0  0
  -21.5995   -7.0208   21.6282 O   0  0  0  0  0  0  0  0  0  0  0  0
  -29.0689  -25.1947   18.8362 O   0  0  0  0  0  0  0  0  0  1  0  0
  -16.4139   -6.9089   19.7571 F   0  0  0  0  0  0  0  0  0  0  0  0
  -20.7929   -5.1122   19.7982 F   0  0  0  0  0  0  0  0  0  0  0  0
  1  2  1  0  0  0  0
  1  5  2  0  0  0  0
  2  6  2  0  0  0  0
  3  8  2  0  0  0  0
  3 16  1  0  0  0  0
  4  9  1  0  0  0  0
  4 16  2  0  0  0  0
  5 18  1  0  0  0  0
  6 20  1  0  0  0  0
  7 10  2  0  0  0  0
  7 19  1  0  0  0  0
  8 24  1  0  0  0  0
  9 24  2  0  0  0  0
 10 25  1  0  0  0  0
 11 12  2  0  0  0  0
 11 26  1  0  0  0  0
 12 27  1  0  0  0  0
 13 21  1  0  0  0  0
 13 25  2  0  0  0  0
 14 22  2  0  0  0  0
 14 30  1  0  0  0  0
 15 27  2  0  0  0  0
 15 28  1  0  0  0  0
 16 29  1  0  0  0  0
 17 29  1  0  0  0  0
 17 32  2  0  0  0  0
 17 33  1  0  0  0  0
 18 20  2  0  0  0  0
 18 38  1  0  0  0  0
 19 21  2  0  0  0  0
 19 39  1  0  0  0  0
 20 47  1  0  0  0  0
 21 40  1  0  0  0  0
 22 23  1  0  0  0  0
 22 50  1  0  0  0  0
 23 31  2  0  0  0  0
 23 57  1  0  0  0  0
 24 85  1  0  0  0  0
 25 86  1  0  0  0  0
 26 28  2  0  0  0  0
 26 85  1  0  0  0  0
 27 87  1  0  0  0  0
 28 88  1  0  0  0  0
 29 69  2  0  0  0  0
 30 58  1  0  0  0  0
 30 70  2  0  0  0  0
 31 59  1  0  0  0  0
 31 70  1  0  0  0  0
 32 71  1  0  0  0  0
 32 74  1  0  0  0  0
 33 75  1  0  0  0  0
 33 80  2  0  0  0  0
 34 48  1  0  0  0  0
 34 76  1  0  0  0  0
 34 81  2  0  0  0  0
 35 66  1  0  0  0  0
 35 72  1  0  0  0  0
 35 82  2  0  0  0  0
 36 67  1  0  0  0  0
 36 77  1  0  0  0  0
 36 83  2  0  0  0  0
 37 73  1  0  0  0  0
 37 78  1  0  0  0  0
 37 84  2  0  0  0  0
 38 41  1  0  0  0  0
 39 48  1  0  0  0  0
 40 72  1  0  0  0  0
 41 43  1  0  0  0  0
 42 44  1  0  0  0  0
 42 45  1  0  0  0  0
 43 47  1  0  0  0  0
 44 49  1  0  0  0  0
 45 73  1  0  0  0  0
 46 49  1  0  0  0  0
 46 73  1  0  0  0  0
 47 76  1  0  0  0  0
 48 72  1  0  0  0  0
 49 71  1  0  0  0  0
 51 60  1  0  0  0  0
 52 67  1  0  0  0  0
 53 68  1  0  0  0  0
 54 68  1  0  0  0  0
 55 68  1  0  0  0  0
 56 79  1  0  0  0  0
 57 61  1  0  0  0  0
 58 62  1  0  0  0  0
 59 63  1  0  0  0  0
 60 63  1  0  0  0  0
 61 64  1  0  0  0  0
 62 65  1  0  0  0  0
 64 78  1  0  0  0  0
 65 86  1  0  0  0  0
 66 68  1  0  0  0  0
 66 77  1  0  0  0  0
 67 79  1  0  0  0  0
 69 71  1  0  0  0  0
M  CHG  1  79   1
M  ISO  4  37 100  65 101  78 100  86 101
M  END
> <Batch ID>
0039

> <Smiles>
CCCCc1nc(CC[101CH2:1][101O:1]c2ccc3c(c2)CN(C(=O)C(NC(=O)C(C)NC)C(C)(C)C)C(C(=O)NC2CCCc4ccccc42)C3)cc(C)c1CCC[100NH:0][100C:0](=O)N1CCCC(n2nc(-c3ccc(Oc4ccc(F)cc4F)cc3)c(C(N)=O)c2N)C1

> <Shape>
0.267

> <Color>
0.193

> <Negative vol penalty>
0.000

$$$$

  -OEChem-04052317043D

 83 92  0     1  0  0  0  0  0999 V2000
  -27.2125  -34.8689   24.8589 C   0  0  0  0  0  0  0  0  0  0  0  0
  -27.6311  -33.6920   24.2464 C   0  0  0  0  0  0  0  0  0  0  0  0
  -22.6028  -11.7320   18.2148 C   0  0  0  0  0  0  0  0  0  0  0  0
  -23.4759   -9.7678   19.3178 C   0  0  0  0  0  0  0  0  0  0  0  0
  -25.9415  -34.9438   25.4271 C   0  0  0  0  0  0  0  0  0  0  0  0
  -26.7792  -32.5889   24.2028 C   0  0  0  0  0  0  0  0  0  0  0  0
  -26.3205  -28.4676   19.6961 C   0  0  0  0  0  0  0  0  0  0  0  0
  -21.6993  -10.9355   17.5114 C   0  0  0  0  0  0  0  0  0  0  0  0
  -22.5723   -8.9712   18.6145 C   0  0  0  0  0  0  0  0  0  0  0  0
  -26.8573  -27.1911   19.5342 C   0  0  0  0  0  0  0  0  0  0  0  0
  -18.7439   -9.4031   18.1033 C   0  0  0  0  0  0  0  0  0  0  0  0
  -17.4222   -9.8410   18.0196 C   0  0  0  0  0  0  0  0  0  0  0  0
  -24.8105  -26.2304   20.3749 C   0  0  0  0  0  0  0  0  0  0  0  0
  -17.5938   -9.8985   15.6104 C   0  0  0  0  0  0  0  0  0  0  0  0
  -29.5692  -17.1115   19.1712 C   0  0  0  0  0  0  0  0  0  0  0  0
  -29.4318  -16.6952   21.4657 C   0  0  0  0  0  0  0  0  0  0  0  0
  -23.4911  -11.1482   19.1180 C   0  0  0  0  0  0  0  0  0  0  0  0
  -29.8620  -16.2703   20.2252 C   0  0  0  0  0  0  0  0  0  0  0  0
  -24.1220  -13.0225   20.7294 C   0  0  0  0  0  0  0  0  0  0  0  0
  -25.0700  -33.8442   25.3819 C   0  0  0  0  0  0  0  0  0  0  0  0
  -25.0266  -28.6357   20.2097 C   0  0  0  0  0  0  0  0  0  0  0  0
  -25.4958  -32.6487   24.7721 C   0  0  0  0  0  0  0  0  0  0  0  0
  -24.2587  -27.5100   20.5399 C   0  0  0  0  0  0  0  0  0  0  0  0
  -21.6840   -9.5551   17.7112 C   0  0  0  0  0  0  0  0  0  0  0  0
  -26.1033  -26.0723   19.8763 C   0  0  0  0  0  0  0  0  0  0  0  0
  -19.4906   -9.2130   16.9405 C   0  0  0  0  0  0  0  0  0  0  0  0
  -16.8471  -10.0887   16.7732 C   0  0  0  0  0  0  0  0  0  0  0  0
  -18.9155   -9.4607   15.6941 C   0  0  0  0  0  0  0  0  0  0  0  0
  -24.4251  -11.9704   19.8445 C   0  0  0  0  0  0  0  0  0  0  0  0
  -25.3464  -13.4782   21.1532 C   0  0  0  0  0  0  0  0  0  0  0  0
  -28.5413  -18.5831   20.5658 C   0  0  0  0  0  0  0  0  0  0  0  0
  -30.5842  -15.0052   20.0382 C   0  0  0  0  0  0  0  0  0  0  0  0
  -22.8476  -13.5414   21.1323 C   0  0  0  0  0  0  0  0  0  0  0  0
  -23.8009  -30.0322   22.7887 C   0  0  0  0  0  0  0  0  0  0  0  0
  -20.9793  -29.2955   21.3681 C   0  0  0  0  0  0  0  0  0  0  0  0
  -19.2672  -27.3114   19.1821 C   0  0  0  0  0  0  0  0  0  0  0  0
  -23.7233  -33.9573   26.0515 C   0  0  0  0  0  0  0  0  0  0  0  0
  -24.4522  -30.0184   20.3532 C   0  0  0  0  0  0  0  0  0  0  0  0
  -22.8569  -27.6358   21.0763 C   0  0  0  0  0  0  0  0  0  0  0  0
  -22.7415  -32.8659   25.6330 C   0  0  0  0  0  0  0  0  0  0  0  0
  -29.9782  -11.5297   20.5817 C   0  0  0  0  0  0  0  0  0  0  0  0
  -23.4169  -31.4986   25.6670 C   0  0  0  0  0  0  0  0  0  0  0  0
  -26.4499  -19.8968   20.0117 C   0  0  0  0  0  0  0  0  0  0  0  0
  -28.6500  -21.1036   20.3617 C   0  0  0  0  0  0  0  0  0  0  0  0
  -25.6989  -21.2111   20.2236 C   0  0  0  0  0  0  0  0  0  0  0  0
  -27.8936  -22.4148   20.5727 C   0  0  0  0  0  0  0  0  0  0  0  0
  -28.4555  -11.4143   20.4921 C   0  0  0  0  0  0  0  0  0  0  0  0
  -30.5227  -12.5719   19.6081 C   0  0  0  0  0  0  0  0  0  0  0  0
  -28.3763  -13.7953   19.6404 C   0  0  0  0  0  0  0  0  0  0  0  0
  -24.5913  -31.4388   24.6828 C   0  0  1  0  0  0  0  0  0  0  0  0
  -27.7936  -19.8897   20.7597 C   0  0  0  0  0  0  0  0  0  0  0  0
  -23.3153  -30.0908   21.3680 C   0  0  1  0  0  0  0  0  0  0  0  0
  -26.5528  -22.4225   19.8268 C   0  0  0  0  0  0  0  0  0  0  0  0
  -27.7819  -12.7914   20.6419 C   0  0  1  0  0  0  0  0  0  0  0  0
  -16.9653  -26.9246   18.2606 C   0  0  0  0  0  0  0  0  0  0  0  0
  -20.1710  -27.9223   23.9701 C   0  0  0  0  0  0  0  0  0  0  0  0
  -18.3384  -26.7707   22.7117 C   0  0  0  0  0  0  0  0  0  0  0  0
  -18.3552  -29.2590   22.8882 C   0  0  0  0  0  0  0  0  0  0  0  0
  -20.1466  -27.9085   16.4200 C   0  0  0  0  0  0  0  0  0  0  0  0
  -25.7971  -23.7237   20.0905 C   0  0  0  0  0  0  0  0  0  1  0  0
  -20.0444  -28.1106   21.3983 C   0  0  1  0  0  0  0  0  0  0  0  0
  -18.2898  -27.6472   18.0701 C   0  0  2  0  0  0  0  0  0  0  0  0
  -19.2543  -28.0130   22.7338 C   0  0  0  0  0  0  0  0  0  0  0  0
  -28.9080  -18.2798   19.3060 N   0  0  0  0  0  0  0  0  0  0  0  0
  -28.7663  -17.8503   21.6731 N   0  0  0  0  0  0  0  0  0  0  0  0
  -25.7390  -11.7697   19.7129 N   0  0  0  0  0  0  0  0  0  0  0  0
  -26.2724  -12.7018   20.5208 N   0  0  0  0  0  0  0  0  0  0  0  0
  -29.8379  -13.8520   19.7841 N   0  0  0  0  0  0  0  0  0  0  0  0
  -22.3420  -29.0091   21.2045 N   0  0  0  0  0  0  0  0  0  0  0  0
  -25.7105  -14.4633   22.0014 N   0  0  0  0  0  0  0  0  0  0  0  0
  -22.2257  -12.9856   22.2587 N   0  0  0  0  0  0  0  0  0  0  0  0
  -24.1084  -31.2661   23.3295 N   0  0  0  0  0  0  0  0  0  0  0  0
  -19.2019  -28.2251   20.2127 N   0  0  0  0  0  0  0  0  0  0  0  0
  -18.8541  -27.2537   16.7481 N   0  3  0  0  0  0  0  0  0  0  0  0
  -31.8094  -15.0597   20.1336 O   0  0  0  0  0  0  0  0  0  0  0  0
  -22.2696  -14.4593   20.5022 O   0  0  0  0  0  0  0  0  0  0  0  0
  -23.8886  -28.9480   23.3530 O   0  0  0  0  0  0  0  0  0  0  0  0
  -20.5167  -30.4338   21.4782 O   0  0  0  0  0  0  0  0  0  0  0  0
  -20.0113  -26.3340   19.1422 O   0  0  0  0  0  0  0  0  0  0  0  0
  -20.8024   -8.7775   17.0252 O   0  0  0  0  0  0  0  0  0  0  0  0
  -26.6250  -24.8253   19.7198 O   0  0  0  0  0  0  0  0  0  1  0  0
  -15.5774  -10.5077   16.6929 F   0  0  0  0  0  0  0  0  0  0  0  0
  -19.6275   -9.2787   14.5734 F   0  0  0  0  0  0  0  0  0  0  0  0
  1  2  1  0  0  0  0
  1  5  2  0  0  0  0
  2  6  2  0  0  0  0
  3  8  2  0  0  0  0
  3 17  1  0  0  0  0
  4  9  1  0  0  0  0
  4 17  2  0  0  0  0
  5 20  1  0  0  0  0
  6 22  1  0  0  0  0
  7 10  2  0  0  0  0
  7 21  1  0  0  0  0
  8 24  1  0  0  0  0
  9 24  2  0  0  0  0
 10 25  1  0  0  0  0
 11 12  2  0  0  0  0
 11 26  1  0  0  0  0
 12 27  1  0  0  0  0
 13 23  1  0  0  0  0
 13 25  2  0  0  0  0
 14 27  2  0  0  0  0
 14 28  1  0  0  0  0
 15 18  1  0  0  0  0
 15 64  2  0  0  0  0
 16 18  2  0  0  0  0
 16 65  1  0  0  0  0
 17 29  1  0  0  0  0
 18 32  1  0  0  0  0
 19 29  1  0  0  0  0
 19 30  2  0  0  0  0
 19 33  1  0  0  0  0
 20 22  2  0  0  0  0
 20 37  1  0  0  0  0
 21 23  2  0  0  0  0
 21 38  1  0  0  0  0
 22 50  1  0  0  0  0
 23 39  1  0  0  0  0
 24 80  1  0  0  0  0
 25 81  1  0  0  0  0
 26 28  2  0  0  0  0
 26 80  1  0  0  0  0
 27 82  1  0  0  0  0
 28 83  1  0  0  0  0
 29 66  2  0  0  0  0
 30 67  1  0  0  0  0
 30 70  1  0  0  0  0
 31 51  1  0  0  0  0
 31 64  1  0  0  0  0
 31 65  2  0  0  0  0
 32 68  1  0  0  0  0
 32 75  2  0  0  0  0
 33 71  1  0  0  0  0
 33 76  2  0  0  0  0
 34 52  1  0  0  0  0
 34 72  1  0  0  0  0
 34 77  2  0  0  0  0
 35 61  1  0  0  0  0
 35 69  1  0  0  0  0
 35 78  2  0  0  0  0
 36 62  1  0  0  0  0
 36 73  1  0  0  0  0
 36 79  2  0  0  0  0
 37 40  1  0  0  0  0
 38 52  1  0  0  0  0
 39 69  1  0  0  0  0
 40 42  1  0  0  0  0
 41 47  1  0  0  0  0
 41 48  1  0  0  0  0
 42 50  1  0  0  0  0
 43 45  1  0  0  0  0
 43 51  1  0  0  0  0
 44 46  1  0  0  0  0
 44 51  1  0  0  0  0
 45 53  1  0  0  0  0
 46 53  1  0  0  0  0
 47 54  1  0  0  0  0
 48 68  1  0  0  0  0
 49 54  1  0  0  0  0
 49 68  1  0  0  0  0
 50 72  1  0  0  0  0
 52 69  1  0  0  0  0
 53 60  1  0  0  0  0
 54 67  1  0  0  0  0
 55 62  1  0  0  0  0
 56 63  1  0  0  0  0
 57 63  1  0  0  0  0
 58 63  1  0  0  0  0
 59 74  1  0  0  0  0
 60 81  1  0  0  0  0
 61 63  1  0  0  0  0
 61 73  1  0  0  0  0
 62 74  1  0  0  0  0
 66 67  1  0  0  0  0
M  CHG  1  74   1
M  ISO  4  18 100  32 100  60 101  81 101
M  END
> <Batch ID>
0039

> <Smiles>
CNC(C)C(=O)NC(C(=O)N1Cc2cc([101O:1][101CH2:1]C3CCC(c4nc[100c:0]([100C:0](=O)N5CCCC(n6nc(-c7ccc(Oc8ccc(F)cc8F)cc7)c(C(N)=O)c6N)C5)cn4)CC3)ccc2CC1C(=O)NC1CCCc2ccccc21)C(C)(C)C

> <Shape>
0.296

> <Color>
0.124

> <Negative vol penalty>
0.000

$$$$

  -OEChem-04052317043D

 86 94  0     1  0  0  0  0  0999 V2000
  -16.4831  -28.7016   23.2642 C   0  0  0  0  0  0  0  0  0  0  0  0
  -17.3874  -28.1990   22.3342 C   0  0  0  0  0  0  0  0  0  0  0  0
  -23.9708  -13.8402   19.9069 C   0  0  0  0  0  0  0  0  0  0  0  0
  -26.3815  -13.7934   20.0610 C   0  0  0  0  0  0  0  0  0  0  0  0
  -16.8892  -29.6790   24.1718 C   0  0  0  0  0  0  0  0  0  0  0  0
  -18.6981  -28.6743   22.3104 C   0  0  0  0  0  0  0  0  0  0  0  0
  -23.7489  -25.4805   20.9708 C   0  0  0  0  0  0  0  0  0  0  0  0
  -23.9428  -12.4457   19.9225 C   0  0  0  0  0  0  0  0  0  0  0  0
  -26.3534  -12.3989   20.0767 C   0  0  0  0  0  0  0  0  0  0  0  0
  -24.5016  -25.3620   19.8033 C   0  0  0  0  0  0  0  0  0  0  0  0
  -24.1972   -9.9747   22.2165 C   0  0  0  0  0  0  0  0  0  0  0  0
  -23.2587   -9.3544   23.0411 C   0  0  0  0  0  0  0  0  0  0  0  0
  -26.0105  -27.0621   20.6107 C   0  0  0  0  0  0  0  0  0  0  0  0
  -22.2740   -8.2814   21.1134 C   0  0  0  0  0  0  0  0  0  0  0  0
  -25.1902  -14.5141   19.9761 C   0  0  0  0  0  0  0  0  0  0  0  0
  -25.1659  -16.8188   21.0693 C   0  0  0  0  0  0  0  0  0  0  0  0
  -18.2081  -30.1596   24.1655 C   0  0  0  0  0  0  0  0  0  0  0  0
  -24.1157  -26.4000   21.9639 C   0  0  0  0  0  0  0  0  0  0  0  0
  -19.1218  -29.6601   23.2179 C   0  0  0  0  0  0  0  0  0  0  0  0
  -25.2622  -27.1886   21.7910 C   0  0  0  0  0  0  0  0  0  0  0  0
  -25.1340  -11.7251   20.0074 C   0  0  0  0  0  0  0  0  0  0  0  0
  -25.6310  -26.1549   19.6218 C   0  0  0  0  0  0  0  0  0  0  0  0
  -24.1741   -9.7484   20.8402 C   0  0  0  0  0  0  0  0  0  0  0  0
  -22.2971   -8.5078   22.4896 C   0  0  0  0  0  0  0  0  0  0  0  0
  -23.2125   -8.9018   20.2887 C   0  0  0  0  0  0  0  0  0  0  0  0
  -25.2199  -15.9545   19.9594 C   0  0  0  0  0  0  0  0  0  0  0  0
  -30.8226  -21.5768   17.5548 C   0  0  0  0  0  0  0  0  0  0  0  0
  -30.3280  -21.4683   16.2475 C   0  0  0  0  0  0  0  0  0  0  0  0
  -25.2259  -18.0790   20.5264 C   0  0  0  0  0  0  0  0  0  0  0  0
  -25.0702  -16.5101   22.4662 C   0  0  0  0  0  0  0  0  0  0  0  0
  -22.7484  -28.9545   23.2711 C   0  0  0  0  0  0  0  0  0  0  0  0
  -25.3253  -28.8441   25.2383 C   0  0  0  0  0  0  0  0  0  0  0  0
  -28.5513  -27.8471   25.7339 C   0  0  0  0  0  0  0  0  0  0  0  0
  -27.4497  -20.2039   15.3892 C   0  0  0  0  0  0  0  0  0  0  0  0
  -18.5878  -31.2506   25.1352 C   0  0  0  0  0  0  0  0  0  0  0  0
  -23.3084  -26.4968   23.2294 C   0  0  0  0  0  0  0  0  0  0  0  0
  -25.7101  -28.1766   22.8359 C   0  0  0  0  0  0  0  0  0  0  0  0
  -20.0958  -31.4310   25.2891 C   0  0  0  0  0  0  0  0  0  0  0  0
  -24.1003  -20.5043   16.5588 C   0  0  0  0  0  0  0  0  0  0  0  0
  -20.7728  -31.4555   23.9224 C   0  0  0  0  0  0  0  0  0  0  0  0
  -24.0026  -19.4503   17.6631 C   0  0  0  0  0  0  0  0  0  0  0  0
  -24.9787  -20.0308   15.4028 C   0  0  0  0  0  0  0  0  0  0  0  0
  -26.2284  -18.5228   16.8988 C   0  0  0  0  0  0  0  0  0  0  0  0
  -20.5589  -30.1326   23.1770 C   0  0  1  0  0  0  0  0  0  0  0  0
  -23.4816  -27.8313   23.9481 C   0  0  1  0  0  0  0  0  0  0  0  0
  -25.3983  -18.9770   18.1116 C   0  0  2  0  0  0  0  0  0  0  0  0
  -29.1752  -17.4708   22.1362 C   0  0  0  0  0  0  0  0  0  0  0  0
  -30.4023  -27.9348   27.4260 C   0  0  0  0  0  0  0  0  0  0  0  0
  -25.8488  -31.7607   24.5108 C   0  0  0  0  0  0  0  0  0  0  0  0
  -28.1608  -31.5039   25.4364 C   0  0  0  0  0  0  0  0  0  0  0  0
  -26.1827  -31.2123   26.9279 C   0  0  0  0  0  0  0  0  0  0  0  0
  -28.6430  -24.8974   25.9580 C   0  0  0  0  0  0  0  0  0  0  0  0
  -31.0805  -20.5220   18.5448 C   0  0  0  0  0  0  0  0  0  0  0  0
  -29.9283  -20.2689   15.4978 C   0  0  0  0  0  0  0  0  0  0  0  0
  -28.8647  -18.4875   21.0493 C   0  0  0  0  0  0  0  0  0  0  0  0
  -29.8202  -20.0060   19.2710 C   0  0  0  0  0  0  0  0  0  0  0  0
  -30.1359  -18.9532   20.3382 C   0  0  0  0  0  0  0  0  0  0  0  0
  -30.0131  -25.7338   17.5987 C   0  0  0  0  0  0  0  0  0  0  0  0
  -28.5036  -25.4953   17.5360 C   0  0  0  0  0  0  0  0  0  0  0  0
  -30.7894  -24.9479   16.5359 C   0  0  0  0  0  0  0  0  0  0  0  0
  -27.7635  -26.3182   18.5819 C   0  0  0  0  0  0  0  0  0  1  0  0
  -26.7154  -29.4323   25.2133 C   0  0  1  0  0  0  0  0  0  0  0  0
  -29.2189  -27.1384   26.8986 C   0  0  2  0  0  0  0  0  0  0  0  0
  -26.7176  -30.9601   25.5014 C   0  0  0  0  0  0  0  0  0  0  0  0
  -25.3073  -16.6102   18.7990 N   0  0  0  0  0  0  0  0  0  0  0  0
  -31.0612  -22.8591   17.8439 N   0  0  0  0  0  0  0  0  0  0  0  0
  -30.2457  -22.6807   15.6923 N   0  0  0  0  0  0  0  0  0  0  0  0
  -25.3086  -17.8999   19.1768 N   0  0  0  0  0  0  0  0  0  0  0  0
  -30.6962  -23.4512   16.6953 N   0  0  0  0  0  0  0  0  0  0  0  0
  -24.8842  -28.2388   24.0530 N   0  0  0  0  0  0  0  0  0  0  0  0
  -26.2884  -19.5973   15.8954 N   0  0  0  0  0  0  0  0  0  0  0  0
  -25.2154  -19.3118   21.0765 N   0  0  0  0  0  0  0  0  0  0  0  0
  -25.0187  -15.1634   22.8508 N   0  0  0  0  0  0  0  0  0  0  0  0
  -21.4430  -29.1112   23.6962 N   0  0  0  0  0  0  0  0  0  0  0  0
  -27.5082  -28.6460   26.1522 N   0  0  0  0  0  0  0  0  0  0  0  0
  -28.6491  -19.7387   15.9143 N   0  0  0  0  0  0  0  0  0  0  0  0
  -29.7070  -25.7951   26.4766 N   0  3  0  0  0  0  0  0  0  0  0  0
  -25.0149  -17.4024   23.3461 O   0  0  0  0  0  0  0  0  0  0  0  0
  -23.3249  -29.6301   22.4267 O   0  0  0  0  0  0  0  0  0  0  0  0
  -24.6582  -28.9126   26.2736 O   0  0  0  0  0  0  0  0  0  0  0  0
  -28.9206  -27.7088   24.5699 O   0  0  0  0  0  0  0  0  0  0  0  0
  -27.4197  -21.0979   14.5367 O   0  0  0  0  0  0  0  0  0  0  0  0
  -25.1070  -10.3644   20.0229 O   0  0  0  0  0  0  0  0  0  0  0  0
  -26.3671  -26.0417   18.4829 O   0  0  0  0  0  0  0  0  0  1  0  0
  -21.3969   -7.9110   23.2818 F   0  0  0  0  0  0  0  0  0  0  0  0
  -23.1860   -8.6796   18.9675 F   0  0  0  0  0  0  0  0  0  0  0  0
  1  2  1  0  0  0  0
  1  5  2  0  0  0  0
  2  6  2  0  0  0  0
  3  8  2  0  0  0  0
  3 15  1  0  0  0  0
  4  9  1  0  0  0  0
  4 15  2  0  0  0  0
  5 17  1  0  0  0  0
  6 19  1  0  0  0  0
  7 10  2  0  0  0  0
  7 18  1  0  0  0  0
  8 21  1  0  0  0  0
  9 21  2  0  0  0  0
 10 22  1  0  0  0  0
 11 12  2  0  0  0  0
 11 23  1  0  0  0  0
 12 24  1  0  0  0  0
 13 20  1  0  0  0  0
 13 22  2  0  0  0  0
 14 24  2  0  0  0  0
 14 25  1  0  0  0  0
 15 26  1  0  0  0  0
 16 26  1  0  0  0  0
 16 29  2  0  0  0  0
 16 30  1  0  0  0  0
 17 19  2  0  0  0  0
 17 35  1  0  0  0  0
 18 20  2  0  0  0  0
 18 36  1  0  0  0  0
 19 44  1  0  0  0  0
 20 37  1  0  0  0  0
 21 83  1  0  0  0  0
 22 84  1  0  0  0  0
 23 25  2  0  0  0  0
 23 83  1  0  0  0  0
 24 85  1  0  0  0  0
 25 86  1  0  0  0  0
 26 65  2  0  0  0  0
 27 28  1  0  0  0  0
 27 53  1  0  0  0  0
 27 66  2  0  0  0  0
 28 54  1  0  0  0  0
 28 67  2  0  0  0  0
 29 68  1  0  0  0  0
 29 72  1  0  0  0  0
 30 73  1  0  0  0  0
 30 78  2  0  0  0  0
 31 45  1  0  0  0  0
 31 74  1  0  0  0  0
 31 79  2  0  0  0  0
 32 62  1  0  0  0  0
 32 70  1  0  0  0  0
 32 80  2  0  0  0  0
 33 63  1  0  0  0  0
 33 75  1  0  0  0  0
 33 81  2  0  0  0  0
 34 71  1  0  0  0  0
 34 76  1  0  0  0  0
 34 82  2  0  0  0  0
 35 38  1  0  0  0  0
 36 45  1  0  0  0  0
 37 70  1  0  0  0  0
 38 40  1  0  0  0  0
 39 41  1  0  0  0  0
 39 42  1  0  0  0  0
 40 44  1  0  0  0  0
 41 46  1  0  0  0  0
 42 71  1  0  0  0  0
 43 46  1  0  0  0  0
 43 71  1  0  0  0  0
 44 74  1  0  0  0  0
 45 70  1  0  0  0  0
 46 68  1  0  0  0  0
 47 55  1  0  0  0  0
 48 63  1  0  0  0  0
 49 64  1  0  0  0  0
 50 64  1  0  0  0  0
 51 64  1  0  0  0  0
 52 77  1  0  0  0  0
 53 56  1  0  0  0  0
 54 76  1  0  0  0  0
 55 57  1  0  0  0  0
 56 57  1  0  0  0  0
 58 59  1  0  0  0  0
 58 60  1  0  0  0  0
 59 61  1  0  0  0  0
 60 69  1  0  0  0  0
 61 84  1  0  0  0  0
 62 64  1  0  0  0  0
 62 75  1  0  0  0  0
 63 77  1  0  0  0  0
 65 68  1  0  0  0  0
 66 69  1  0  0  0  0
 67 69  1  0  0  0  0
M  CHG  1  77   1
M  ISO  4  34 100  61 101  76 100  84 101
M  END
> <Batch ID>
0039

> <Smiles>
CCCCCc1nn(CCC[101CH2:1][101O:1]c2ccc3c(c2)CN(C(=O)C(NC(=O)C(C)NC)C(C)(C)C)C(C(=O)NC2CCCc4ccccc42)C3)nc1C[100NH:0][100C:0](=O)N1CCCC(n2nc(-c3ccc(Oc4ccc(F)cc4F)cc3)c(C(N)=O)c2N)C1

> <Shape>
0.226

> <Color>
0.067

> <Negative vol penalty>
0.000

$$$$

  -OEChem-04052317043D

 85 93  0     1  0  0  0  0  0999 V2000
  -28.4224  -11.1296   21.5228 C   0  0  0  0  0  0  0  0  0  0  0  0
  -28.9088  -12.3922   21.1994 C   0  0  0  0  0  0  0  0  0  0  0  0
  -19.9083  -28.3106   23.7983 C   0  0  0  0  0  0  0  0  0  0  0  0
  -20.8663  -27.0992   21.9403 C   0  0  0  0  0  0  0  0  0  0  0  0
  -27.0834  -10.8188   21.2893 C   0  0  0  0  0  0  0  0  0  0  0  0
  -28.0568  -13.3445   20.6412 C   0  0  0  0  0  0  0  0  0  0  0  0
  -28.2001  -19.3986   21.5540 C   0  0  0  0  0  0  0  0  0  0  0  0
  -18.6311  -27.9251   23.3911 C   0  0  0  0  0  0  0  0  0  0  0  0
  -19.5891  -26.7137   21.5332 C   0  0  0  0  0  0  0  0  0  0  0  0
  -28.7365  -20.4472   20.8080 C   0  0  0  0  0  0  0  0  0  0  0  0
  -16.9823  -28.0871   19.8751 C   0  0  0  0  0  0  0  0  0  0  0  0
  -16.6768  -28.1878   18.5179 C   0  0  0  0  0  0  0  0  0  0  0  0
  -26.5757  -20.8325   19.8072 C   0  0  0  0  0  0  0  0  0  0  0  0
  -29.1978  -26.7425   17.9984 C   0  0  0  0  0  0  0  0  0  0  0  0
  -30.6901  -24.3898   18.1407 C   0  0  0  0  0  0  0  0  0  0  0  0
  -16.2518  -25.8108   18.4373 C   0  0  0  0  0  0  0  0  0  0  0  0
  -21.0259  -27.8977   23.0729 C   0  0  0  0  0  0  0  0  0  0  0  0
  -23.1986  -27.6113   24.3787 C   0  0  0  0  0  0  0  0  0  0  0  0
  -26.2122  -11.7709   20.7369 C   0  0  0  0  0  0  0  0  0  0  0  0
  -26.8477  -19.0514   21.4239 C   0  0  0  0  0  0  0  0  0  0  0  0
  -26.7052  -13.0457   20.3988 C   0  0  0  0  0  0  0  0  0  0  0  0
  -26.0240  -19.7807   20.5546 C   0  0  0  0  0  0  0  0  0  0  0  0
  -28.6787  -25.5551   17.4825 C   0  0  0  0  0  0  0  0  0  0  0  0
  -31.2093  -25.5772   18.6566 C   0  0  0  0  0  0  0  0  0  0  0  0
  -30.4632  -26.7536   18.5854 C   0  0  0  0  0  0  0  0  0  0  0  0
  -29.4248  -24.3787   17.5537 C   0  0  0  0  0  0  0  0  0  0  0  0
  -18.4715  -27.1267   22.2586 C   0  0  0  0  0  0  0  0  0  0  0  0
  -27.9249  -21.1624   19.9323 C   0  0  0  0  0  0  0  0  0  0  0  0
  -16.9226  -26.8483   20.5135 C   0  0  0  0  0  0  0  0  0  0  0  0
  -16.3115  -27.0496   17.7989 C   0  0  0  0  0  0  0  0  0  0  0  0
  -16.5573  -25.7101   19.7945 C   0  0  0  0  0  0  0  0  0  0  0  0
  -22.3455  -28.2961   23.4926 C   0  0  0  0  0  0  0  0  0  0  0  0
  -24.3241  -28.3955   24.4466 C   0  0  0  0  0  0  0  0  0  0  0  0
  -22.9921  -26.3767   25.0778 C   0  0  0  0  0  0  0  0  0  0  0  0
  -25.2798  -16.4538   20.4764 C   0  0  0  0  0  0  0  0  0  0  0  0
  -22.6848  -18.1420   21.4448 C   0  0  0  0  0  0  0  0  0  0  0  0
  -21.2810  -21.1874   22.0785 C   0  0  0  0  0  0  0  0  0  0  0  0
  -28.2545  -31.4921   21.9750 C   0  0  0  0  0  0  0  0  0  0  0  0
  -24.7842  -11.3733   20.4589 C   0  0  0  0  0  0  0  0  0  0  0  0
  -26.2783  -17.9349   22.2555 C   0  0  0  0  0  0  0  0  0  0  0  0
  -24.5610  -19.4609   20.3934 C   0  0  0  0  0  0  0  0  0  0  0  0
  -23.8583  -12.5614   20.2113 C   0  0  0  0  0  0  0  0  0  0  0  0
  -25.1723  -33.0899   22.7643 C   0  0  0  0  0  0  0  0  0  0  0  0
  -24.5020  -13.5467   19.2410 C   0  0  0  0  0  0  0  0  0  0  0  0
  -24.2314  -31.9288   23.0909 C   0  0  0  0  0  0  0  0  0  0  0  0
  -26.1379  -32.7337   21.6362 C   0  0  0  0  0  0  0  0  0  0  0  0
  -25.9704  -30.3351   22.1773 C   0  0  0  0  0  0  0  0  0  0  0  0
  -25.8062  -14.1137   19.8147 C   0  0  1  0  0  0  0  0  0  0  0  0
  -25.0070  -17.3360   21.6616 C   0  0  1  0  0  0  0  0  0  0  0  0
  -25.0149  -30.6273   23.3468 C   0  0  2  0  0  0  0  0  0  0  0  0
  -27.3215  -25.5674   16.8593 C   0  0  0  0  0  0  0  0  0  0  0  0
  -32.5665  -25.5649   19.2797 C   0  0  0  0  0  0  0  0  0  0  0  0
  -19.5623  -22.8430   22.8549 C   0  0  0  0  0  0  0  0  0  0  0  0
  -21.4870  -17.6459   18.6827 C   0  0  0  0  0  0  0  0  0  0  0  0
  -19.8408  -19.4748   19.1448 C   0  0  0  0  0  0  0  0  0  0  0  0
  -19.8671  -17.4318   20.5761 C   0  0  0  0  0  0  0  0  0  0  0  0
  -22.3385  -21.1644   24.8425 C   0  0  0  0  0  0  0  0  0  0  0  0
  -30.9986  -28.0370   19.1302 C   0  0  0  0  0  0  0  0  0  0  0  0
  -28.8837  -23.0818   17.0029 C   0  0  0  0  0  0  0  0  0  0  0  0
  -30.3731  -28.3969   20.4860 C   0  0  0  0  0  0  0  0  0  0  0  0
  -30.9029  -29.7326   21.0160 C   0  0  0  0  0  0  0  0  0  0  0  0
  -30.2857  -30.1180   22.3564 C   0  0  0  0  0  0  0  0  0  0  0  0
  -27.8549  -22.4428   17.9293 C   0  0  0  0  0  0  0  0  0  1  0  0
  -21.7387  -19.1183   20.7886 C   0  0  1  0  0  0  0  0  0  0  0  0
  -20.4807  -21.7011   23.2617 C   0  0  2  0  0  0  0  0  0  0  0  0
  -20.7614  -18.4227   19.7994 C   0  0  0  0  0  0  0  0  0  0  0  0
  -22.8830  -29.4283   23.0309 N   0  0  0  0  0  0  0  0  0  0  0  0
  -24.0859  -29.4610   23.6292 N   0  0  0  0  0  0  0  0  0  0  0  0
  -24.0526  -18.3565   21.2237 N   0  0  0  0  0  0  0  0  0  0  0  0
  -26.8503  -31.4906   21.9417 N   0  0  0  0  0  0  0  0  0  0  0  0
  -25.4844  -28.2708   25.1252 N   0  0  0  0  0  0  0  0  0  0  0  0
  -21.7786  -25.6999   24.8944 N   0  0  0  0  0  0  0  0  0  0  0  0
  -25.5229  -15.1331   20.8021 N   0  0  0  0  0  0  0  0  0  0  0  0
  -21.0794  -19.8390   21.8723 N   0  0  0  0  0  0  0  0  0  0  0  0
  -28.8503  -30.2740   22.2785 N   0  0  0  0  0  0  0  0  0  0  0  0
  -21.3948  -22.1916   24.3316 N   0  3  0  0  0  0  0  0  0  0  0  0
  -23.8515  -25.8965   25.8552 O   0  0  0  0  0  0  0  0  0  0  0  0
  -25.2690  -16.9353   19.3495 O   0  0  0  0  0  0  0  0  0  0  0  0
  -22.2274  -17.2271   22.1343 O   0  0  0  0  0  0  0  0  0  0  0  0
  -22.0090  -21.9108   21.4023 O   0  0  0  0  0  0  0  0  0  0  0  0
  -28.9274  -32.5051   21.7561 O   0  0  0  0  0  0  0  0  0  0  0  0
  -17.2254  -26.7501   21.8612 O   0  0  0  0  0  0  0  0  0  0  0  0
  -28.4461  -22.1860   19.2025 O   0  0  0  0  0  0  0  0  0  1  0  0
  -16.0167  -27.1467   16.4959 F   0  0  0  0  0  0  0  0  0  0  0  0
  -16.4970  -24.5175   20.4026 F   0  0  0  0  0  0  0  0  0  0  0  0
  1  2  1  0  0  0  0
  1  5  2  0  0  0  0
  2  6  2  0  0  0  0
  3  8  2  0  0  0  0
  3 17  1  0  0  0  0
  4  9  1  0  0  0  0
  4 17  2  0  0  0  0
  5 19  1  0  0  0  0
  6 21  1  0  0  0  0
  7 10  2  0  0  0  0
  7 20  1  0  0  0  0
  8 27  1  0  0  0  0
  9 27  2  0  0  0  0
 10 28  1  0  0  0  0
 11 12  2  0  0  0  0
 11 29  1  0  0  0  0
 12 30  1  0  0  0  0
 13 22  1  0  0  0  0
 13 28  2  0  0  0  0
 14 23  1  0  0  0  0
 14 25  2  0  0  0  0
 15 24  2  0  0  0  0
 15 26  1  0  0  0  0
 16 30  2  0  0  0  0
 16 31  1  0  0  0  0
 17 32  1  0  0  0  0
 18 32  1  0  0  0  0
 18 33  2  0  0  0  0
 18 34  1  0  0  0  0
 19 21  2  0  0  0  0
 19 39  1  0  0  0  0
 20 22  2  0  0  0  0
 20 40  1  0  0  0  0
 21 48  1  0  0  0  0
 22 41  1  0  0  0  0
 23 26  2  0  0  0  0
 23 51  1  0  0  0  0
 24 25  1  0  0  0  0
 24 52  1  0  0  0  0
 25 58  1  0  0  0  0
 26 59  1  0  0  0  0
 27 82  1  0  0  0  0
 28 83  1  0  0  0  0
 29 31  2  0  0  0  0
 29 82  1  0  0  0  0
 30 84  1  0  0  0  0
 31 85  1  0  0  0  0
 32 67  2  0  0  0  0
 33 68  1  0  0  0  0
 33 71  1  0  0  0  0
 34 72  1  0  0  0  0
 34 77  2  0  0  0  0
 35 49  1  0  0  0  0
 35 73  1  0  0  0  0
 35 78  2  0  0  0  0
 36 64  1  0  0  0  0
 36 69  1  0  0  0  0
 36 79  2  0  0  0  0
 37 65  1  0  0  0  0
 37 74  1  0  0  0  0
 37 80  2  0  0  0  0
 38 70  1  0  0  0  0
 38 75  1  0  0  0  0
 38 81  2  0  0  0  0
 39 42  1  0  0  0  0
 40 49  1  0  0  0  0
 41 69  1  0  0  0  0
 42 44  1  0  0  0  0
 43 45  1  0  0  0  0
 43 46  1  0  0  0  0
 44 48  1  0  0  0  0
 45 50  1  0  0  0  0
 46 70  1  0  0  0  0
 47 50  1  0  0  0  0
 47 70  1  0  0  0  0
 48 73  1  0  0  0  0
 49 69  1  0  0  0  0
 50 68  1  0  0  0  0
 53 65  1  0  0  0  0
 54 66  1  0  0  0  0
 55 66  1  0  0  0  0
 56 66  1  0  0  0  0
 57 76  1  0  0  0  0
 58 60  1  0  0  0  0
 59 63  1  0  0  0  0
 60 61  1  0  0  0  0
 61 62  1  0  0  0  0
 62 75  1  0  0  0  0
 63 83  1  0  0  0  0
 64 66  1  0  0  0  0
 64 74  1  0  0  0  0
 65 76  1  0  0  0  0
 67 68  1  0  0  0  0
M  CHG  1  76   1
M  ISO  4  38 100  63 101  75 100  83 101
M  END
> <Batch ID>
0039

> <Smiles>
CNC(C)C(=O)NC(C(=O)N1Cc2cc([101O:1][101CH2:1]Cc3cc(C)c(CCCC[100NH:0][100C:0](=O)N4CCCC(n5nc(-c6ccc(Oc7ccc(F)cc7F)cc6)c(C(N)=O)c5N)C4)cc3C)ccc2CC1C(=O)NC1CCCc2ccccc21)C(C)(C)C

> <Shape>
0.215

> <Color>
0.065

> <Negative vol penalty>
0.000

$$$$

  -OEChem-04052317043D

 87 95  0     1  0  0  0  0  0999 V2000
  -20.2383  -30.1683   24.8730 C   0  0  0  0  0  0  0  0  0  0  0  0
  -21.5029  -29.6867   24.5497 C   0  0  0  0  0  0  0  0  0  0  0  0
  -23.9818   -9.7677   22.3755 C   0  0  0  0  0  0  0  0  0  0  0  0
  -23.0084  -10.1012   20.1895 C   0  0  0  0  0  0  0  0  0  0  0  0
  -19.1046  -29.5691   24.3258 C   0  0  0  0  0  0  0  0  0  0  0  0
  -21.6343  -28.6049   23.6797 C   0  0  0  0  0  0  0  0  0  0  0  0
  -26.1071  -27.6847   19.5989 C   0  0  0  0  0  0  0  0  0  0  0  0
  -29.8962  -24.9604   14.7917 C   0  0  0  0  0  0  0  0  0  0  0  0
  -30.1928  -25.2936   16.1133 C   0  0  0  0  0  0  0  0  0  0  0  0
  -22.9880   -8.8364   22.6760 C   0  0  0  0  0  0  0  0  0  0  0  0
  -22.0145   -9.1697   20.4901 C   0  0  0  0  0  0  0  0  0  0  0  0
  -27.2658  -26.9102   19.6359 C   0  0  0  0  0  0  0  0  0  0  0  0
  -22.3205   -5.5948   21.9836 C   0  0  0  0  0  0  0  0  0  0  0  0
  -22.7124   -4.4017   22.5906 C   0  0  0  0  0  0  0  0  0  0  0  0
  -26.1053  -25.1305   18.4934 C   0  0  0  0  0  0  0  0  0  0  0  0
  -29.9993  -22.6145   15.3601 C   0  0  0  0  0  0  0  0  0  0  0  0
  -21.3096   -4.9080   24.4914 C   0  0  0  0  0  0  0  0  0  0  0  0
  -23.9920  -10.4002   21.1322 C   0  0  0  0  0  0  0  0  0  0  0  0
  -26.2684  -11.1103   20.2259 C   0  0  0  0  0  0  0  0  0  0  0  0
  -19.2226  -28.4856   23.4411 C   0  0  0  0  0  0  0  0  0  0  0  0
  -24.9337  -27.1829   19.0176 C   0  0  0  0  0  0  0  0  0  0  0  0
  -20.5009  -27.9899   23.1211 C   0  0  0  0  0  0  0  0  0  0  0  0
  -24.9338  -25.9016   18.4481 C   0  0  0  0  0  0  0  0  0  0  0  0
  -29.7993  -23.6208   14.4151 C   0  0  0  0  0  0  0  0  0  0  0  0
  -30.3928  -24.2873   17.0583 C   0  0  0  0  0  0  0  0  0  0  0  0
  -30.2960  -22.9477   16.6817 C   0  0  0  0  0  0  0  0  0  0  0  0
  -22.0043   -8.5373   21.7333 C   0  0  0  0  0  0  0  0  0  0  0  0
  -27.2642  -25.6318   19.0857 C   0  0  0  0  0  0  0  0  0  0  0  0
  -21.4232   -6.4446   22.6305 C   0  0  0  0  0  0  0  0  0  0  0  0
  -22.2069   -4.0583   23.8445 C   0  0  0  0  0  0  0  0  0  0  0  0
  -20.9178   -6.1012   23.8844 C   0  0  0  0  0  0  0  0  0  0  0  0
  -25.0181  -11.3629   20.8214 C   0  0  0  0  0  0  0  0  0  0  0  0
  -26.8666  -12.3441   20.1468 C   0  0  0  0  0  0  0  0  0  0  0  0
  -26.8382   -9.8711   19.7836 C   0  0  0  0  0  0  0  0  0  0  0  0
  -22.0047  -26.5415   20.0725 C   0  0  0  0  0  0  0  0  0  0  0  0
  -21.4221  -25.9644   16.9341 C   0  0  0  0  0  0  0  0  0  0  0  0
  -22.6556  -25.1225   13.8654 C   0  0  0  0  0  0  0  0  0  0  0  0
  -24.6164  -17.7935   19.8360 C   0  0  0  0  0  0  0  0  0  0  0  0
  -17.9662  -27.8404   22.9118 C   0  0  0  0  0  0  0  0  0  0  0  0
  -23.6998  -28.0412   18.9619 C   0  0  0  0  0  0  0  0  0  0  0  0
  -23.7059  -25.3244   17.7942 C   0  0  0  0  0  0  0  0  0  0  0  0
  -18.2072  -26.9375   21.7048 C   0  0  0  0  0  0  0  0  0  0  0  0
  -26.9621  -16.6059   22.3230 C   0  0  0  0  0  0  0  0  0  0  0  0
  -19.4017  -26.0218   21.9531 C   0  0  0  0  0  0  0  0  0  0  0  0
  -26.8416  -15.0901   22.1553 C   0  0  0  0  0  0  0  0  0  0  0  0
  -25.6095  -17.2905   22.1498 C   0  0  0  0  0  0  0  0  0  0  0  0
  -24.8056  -15.4747   20.6902 C   0  0  0  0  0  0  0  0  0  0  0  0
  -20.6855  -26.8341   22.1618 C   0  0  1  0  0  0  0  0  0  0  0  0
  -22.4160  -27.2324   18.8032 C   0  0  1  0  0  0  0  0  0  0  0  0
  -26.1437  -14.7265   20.8314 C   0  0  2  0  0  0  0  0  0  0  0  0
  -27.9811  -23.1393   12.7572 C   0  0  0  0  0  0  0  0  0  0  0  0
  -21.9312  -24.6912   11.5018 C   0  0  0  0  0  0  0  0  0  0  0  0
  -20.3448  -23.2333   17.7651 C   0  0  0  0  0  0  0  0  0  0  0  0
  -20.5329  -22.5096   15.3757 C   0  0  0  0  0  0  0  0  0  0  0  0
  -19.0094  -24.3862   15.9925 C   0  0  0  0  0  0  0  0  0  0  0  0
  -24.3108  -27.3465   12.8297 C   0  0  0  0  0  0  0  0  0  0  0  0
  -29.4827  -23.2648   13.0020 C   0  0  0  0  0  0  0  0  0  0  0  0
  -30.7138  -24.6725   18.4819 C   0  0  0  0  0  0  0  0  0  0  0  0
  -30.5063  -21.8533   17.6760 C   0  0  0  0  0  0  0  0  0  0  0  0
  -29.3201  -21.6268   18.6296 C   0  0  0  0  0  0  0  0  0  0  0  0
  -28.0465  -21.1878   17.9000 C   0  0  0  0  0  0  0  0  0  0  0  0
  -26.8987  -20.9477   18.8840 C   0  0  0  0  0  0  0  0  0  0  0  0
  -25.6370  -20.4709   18.1585 C   0  0  0  0  0  0  0  0  0  0  0  0
  -24.4905  -20.1649   19.1166 C   0  0  0  0  0  0  0  0  0  0  0  0
  -29.6414  -25.5652   19.0969 C   0  0  0  0  0  0  0  0  0  1  0  0
  -21.5103  -24.7548   16.0351 C   0  0  1  0  0  0  0  0  0  0  0  0
  -22.4377  -25.7293   12.4911 C   0  0  2  0  0  0  0  0  0  0  0  0
  -20.3721  -23.7308   16.3061 C   0  0  0  0  0  0  0  0  0  0  0  0
  -24.8318  -12.6556   21.1010 N   0  0  0  0  0  0  0  0  0  0  0  0
  -25.9731  -13.2264   20.6793 N   0  0  0  0  0  0  0  0  0  0  0  0
  -22.5225  -26.1999   17.7703 N   0  0  0  0  0  0  0  0  0  0  0  0
  -25.0071  -16.9173   20.8621 N   0  0  0  0  0  0  0  0  0  0  0  0
  -28.0644  -12.7497   19.6744 N   0  0  0  0  0  0  0  0  0  0  0  0
  -26.0880   -8.6975   19.9395 N   0  0  0  0  0  0  0  0  0  0  0  0
  -21.1970  -27.3058   20.8928 N   0  0  0  0  0  0  0  0  0  0  0  0
  -21.5434  -25.2636   14.6682 N   0  0  0  0  0  0  0  0  0  0  0  0
  -24.8351  -19.1437   20.0806 N   0  0  0  0  0  0  0  0  0  0  0  0
  -23.7126  -26.2955   11.9668 N   0  3  0  0  0  0  0  0  0  0  0  0
  -27.9853   -9.8042   19.2806 O   0  0  0  0  0  0  0  0  0  0  0  0
  -22.3902  -25.3989   20.2908 O   0  0  0  0  0  0  0  0  0  0  0  0
  -20.4169  -26.6781   16.8906 O   0  0  0  0  0  0  0  0  0  0  0  0
  -23.7059  -24.5745   14.1927 O   0  0  0  0  0  0  0  0  0  0  0  0
  -24.1146  -17.4012   18.7771 O   0  0  0  0  0  0  0  0  0  0  0  0
  -21.0345   -7.6283   22.0261 O   0  0  0  0  0  0  0  0  0  0  0  0
  -28.3936  -24.8734   19.1210 O   0  0  0  0  0  0  0  0  0  1  0  0
  -22.5822   -2.9118   24.4267 F   0  0  0  0  0  0  0  0  0  0  0  0
  -20.0545   -6.9129   24.5102 F   0  0  0  0  0  0  0  0  0  0  0  0
  1  2  1  0  0  0  0
  1  5  2  0  0  0  0
  2  6  2  0  0  0  0
  3 10  2  0  0  0  0
  3 18  1  0  0  0  0
  4 11  1  0  0  0  0
  4 18  2  0  0  0  0
  5 20  1  0  0  0  0
  6 22  1  0  0  0  0
  7 12  2  0  0  0  0
  7 21  1  0  0  0  0
  8  9  2  0  0  0  0
  8 24  1  0  0  0  0
  9 25  1  0  0  0  0
 10 27  1  0  0  0  0
 11 27  2  0  0  0  0
 12 28  1  0  0  0  0
 13 14  2  0  0  0  0
 13 29  1  0  0  0  0
 14 30  1  0  0  0  0
 15 23  1  0  0  0  0
 15 28  2  0  0  0  0
 16 24  2  0  0  0  0
 16 26  1  0  0  0  0
 17 30  2  0  0  0  0
 17 31  1  0  0  0  0
 18 32  1  0  0  0  0
 19 32  1  0  0  0  0
 19 33  2  0  0  0  0
 19 34  1  0  0  0  0
 20 22  2  0  0  0  0
 20 39  1  0  0  0  0
 21 23  2  0  0  0  0
 21 40  1  0  0  0  0
 22 48  1  0  0  0  0
 23 41  1  0  0  0  0
 24 57  1  0  0  0  0
 25 26  2  0  0  0  0
 25 58  1  0  0  0  0
 26 59  1  0  0  0  0
 27 84  1  0  0  0  0
 28 85  1  0  0  0  0
 29 31  2  0  0  0  0
 29 84  1  0  0  0  0
 30 86  1  0  0  0  0
 31 87  1  0  0  0  0
 32 69  2  0  0  0  0
 33 70  1  0  0  0  0
 33 73  1  0  0  0  0
 34 74  1  0  0  0  0
 34 79  2  0  0  0  0
 35 49  1  0  0  0  0
 35 75  1  0  0  0  0
 35 80  2  0  0  0  0
 36 66  1  0  0  0  0
 36 71  1  0  0  0  0
 36 81  2  0  0  0  0
 37 67  1  0  0  0  0
 37 76  1  0  0  0  0
 37 82  2  0  0  0  0
 38 72  1  0  0  0  0
 38 77  1  0  0  0  0
 38 83  2  0  0  0  0
 39 42  1  0  0  0  0
 40 49  1  0  0  0  0
 41 71  1  0  0  0  0
 42 44  1  0  0  0  0
 43 45  1  0  0  0  0
 43 46  1  0  0  0  0
 44 48  1  0  0  0  0
 45 50  1  0  0  0  0
 46 72  1  0  0  0  0
 47 50  1  0  0  0  0
 47 72  1  0  0  0  0
 48 75  1  0  0  0  0
 49 71  1  0  0  0  0
 50 70  1  0  0  0  0
 51 57  1  0  0  0  0
 52 67  1  0  0  0  0
 53 68  1  0  0  0  0
 54 68  1  0  0  0  0
 55 68  1  0  0  0  0
 56 78  1  0  0  0  0
 58 65  1  0  0  0  0
 59 60  1  0  0  0  0
 60 61  1  0  0  0  0
 61 62  1  0  0  0  0
 62 63  1  0  0  0  0
 63 64  1  0  0  0  0
 64 77  1  0  0  0  0
 65 85  1  0  0  0  0
 66 68  1  0  0  0  0
 66 76  1  0  0  0  0
 67 78  1  0  0  0  0
 69 70  1  0  0  0  0
M  CHG  1  78   1
M  ISO  4  38 100  65 101  77 100  85 101
M  END
> <Batch ID>
0039

> <Smiles>
CCc1ccc(C[101CH2:1][101O:1]c2ccc3c(c2)CN(C(=O)C(NC(=O)C(C)NC)C(C)(C)C)C(C(=O)NC2CCCc4ccccc42)C3)c(CCCCCC[100NH:0][100C:0](=O)N2CCCC(n3nc(-c4ccc(Oc5ccc(F)cc5F)cc4)c(C(N)=O)c3N)C2)c1

> <Shape>
0.243

> <Color>
0.069

> <Negative vol penalty>
0.000

$$$$

  -OEChem-04052317043D

 88 96  0     1  0  0  0  0  0999 V2000
  -22.3428   -7.8482   20.8269 C   0  0  0  0  0  0  0  0  0  0  0  0
  -22.1842   -9.0800   21.4538 C   0  0  0  0  0  0  0  0  0  0  0  0
  -25.9758  -23.5404   19.4309 C   0  0  0  0  0  0  0  0  0  0  0  0
  -27.8616  -24.6870   20.4138 C   0  0  0  0  0  0  0  0  0  0  0  0
  -23.6210   -7.3807   20.5245 C   0  0  0  0  0  0  0  0  0  0  0  0
  -23.3039   -9.8445   21.7796 C   0  0  0  0  0  0  0  0  0  0  0  0
  -23.7351  -15.9532   21.7195 C   0  0  0  0  0  0  0  0  0  0  0  0
  -26.4985  -22.3183   19.8536 C   0  0  0  0  0  0  0  0  0  0  0  0
  -28.3844  -23.4649   20.8365 C   0  0  0  0  0  0  0  0  0  0  0  0
  -23.6435  -16.9100   22.7294 C   0  0  0  0  0  0  0  0  0  0  0  0
  -27.8478  -21.2608   23.3415 C   0  0  0  0  0  0  0  0  0  0  0  0
  -28.3342  -21.1822   24.6464 C   0  0  0  0  0  0  0  0  0  0  0  0
  -26.0477  -16.9238   22.9261 C   0  0  0  0  0  0  0  0  0  0  0  0
  -23.3172  -21.1441   25.4353 C   0  0  0  0  0  0  0  0  0  0  0  0
  -30.5197  -20.6001   23.7967 C   0  0  0  0  0  0  0  0  0  0  0  0
  -23.9195  -20.4700   28.0099 C   0  0  0  0  0  0  0  0  0  0  0  0
  -26.6573  -24.7248   19.7110 C   0  0  0  0  0  0  0  0  0  0  0  0
  -25.8485  -26.3846   17.9508 C   0  0  0  0  0  0  0  0  0  0  0  0
  -24.7565   -8.1442   20.8380 C   0  0  0  0  0  0  0  0  0  0  0  0
  -24.9852  -15.4657   21.3121 C   0  0  0  0  0  0  0  0  0  0  0  0
  -24.5986   -9.3862   21.4823 C   0  0  0  0  0  0  0  0  0  0  0  0
  -26.1526  -15.9628   21.9090 C   0  0  0  0  0  0  0  0  0  0  0  0
  -23.5215  -19.8078   25.7605 C   0  0  0  0  0  0  0  0  0  0  0  0
  -23.8288  -19.4559   27.0701 C   0  0  0  0  0  0  0  0  0  0  0  0
  -27.7028  -22.2805   20.5564 C   0  0  0  0  0  0  0  0  0  0  0  0
  -24.7997  -17.3933   23.3349 C   0  0  0  0  0  0  0  0  0  0  0  0
  -28.6973  -21.0089   22.2641 C   0  0  0  0  0  0  0  0  0  0  0  0
  -29.6702  -20.8519   24.8740 C   0  0  0  0  0  0  0  0  0  0  0  0
  -30.0332  -20.6786   22.4917 C   0  0  0  0  0  0  0  0  0  0  0  0
  -26.1181  -25.9876   19.2742 C   0  0  0  0  0  0  0  0  0  0  0  0
  -23.4306  -22.0826   26.4483 C   0  0  0  0  0  0  0  0  0  0  0  0
  -25.3512  -27.6594   18.0693 C   0  0  0  0  0  0  0  0  0  0  0  0
  -26.0310  -25.6654   16.7240 C   0  0  0  0  0  0  0  0  0  0  0  0
  -26.3890  -12.6139   21.3112 C   0  0  0  0  0  0  0  0  0  0  0  0
  -28.7124  -14.1909   19.6873 C   0  0  0  0  0  0  0  0  0  0  0  0
  -30.2404  -17.1558   18.9655 C   0  0  0  0  0  0  0  0  0  0  0  0
  -22.5785  -30.5575   22.5151 C   0  0  0  0  0  0  0  0  0  0  0  0
  -26.1201   -7.5759   20.5342 C   0  0  0  0  0  0  0  0  0  0  0  0
  -25.0685  -14.4534   20.2028 C   0  0  0  0  0  0  0  0  0  0  0  0
  -27.5199  -15.4869   21.4939 C   0  0  0  0  0  0  0  0  0  0  0  0
  -27.2364   -8.6163   20.5746 C   0  0  0  0  0  0  0  0  0  0  0  0
  -25.5888  -31.5252   20.8783 C   0  0  0  0  0  0  0  0  0  0  0  0
  -27.1126   -9.4839   21.8230 C   0  0  0  0  0  0  0  0  0  0  0  0
  -26.0414  -30.2515   20.1622 C   0  0  0  0  0  0  0  0  0  0  0  0
  -24.9497  -31.2157   22.2303 C   0  0  0  0  0  0  0  0  0  0  0  0
  -24.2994  -28.9639   21.4684 C   0  0  0  0  0  0  0  0  0  0  0  0
  -25.7875  -10.2558   21.8292 C   0  0  1  0  0  0  0  0  0  0  0  0
  -26.3652  -13.6499   20.2232 C   0  0  1  0  0  0  0  0  0  0  0  0
  -24.8996  -29.2210   20.0756 C   0  0  2  0  0  0  0  0  0  0  0  0
  -25.5399  -17.7180   27.6516 C   0  0  0  0  0  0  0  0  0  0  0  0
  -32.1357  -18.1226   17.6348 C   0  0  0  0  0  0  0  0  0  0  0  0
  -30.6963  -13.1387   21.7530 C   0  0  0  0  0  0  0  0  0  0  0  0
  -32.3319  -14.8583   20.9555 C   0  0  0  0  0  0  0  0  0  0  0  0
  -31.5230  -13.0898   19.3932 C   0  0  0  0  0  0  0  0  0  0  0  0
  -28.4089  -18.8382   17.3611 C   0  0  0  0  0  0  0  0  0  0  0  0
  -24.0578  -18.0405   27.4727 C   0  0  0  0  0  0  0  0  0  0  0  0
  -23.4056  -18.7666   24.6864 C   0  0  0  0  0  0  0  0  0  1  0  0
  -23.2183  -23.5263   26.1356 C   0  0  0  0  0  0  0  0  0  0  0  0
  -21.7617  -24.0013   26.2857 C   0  0  0  0  0  0  0  0  0  0  0  0
  -21.5811  -25.4828   25.9371 C   0  0  0  0  0  0  0  0  0  0  0  0
  -20.1161  -25.9068   26.0688 C   0  0  0  0  0  0  0  0  0  0  0  0
  -19.8876  -27.3973   25.8006 C   0  0  0  0  0  0  0  0  0  0  0  0
  -20.2401  -27.8202   24.3718 C   0  0  0  0  0  0  0  0  0  0  0  0
  -19.9626  -29.3114   24.1528 C   0  0  0  0  0  0  0  0  0  0  0  0
  -20.2375  -29.7598   22.7204 C   0  0  0  0  0  0  0  0  0  0  0  0
  -29.9565  -14.9542   20.0729 C   0  0  1  0  0  0  0  0  0  0  0  0
  -30.6538  -17.7808   17.6453 C   0  0  2  0  0  0  0  0  0  0  0  0
  -31.1012  -14.0180   20.5531 C   0  0  0  0  0  0  0  0  0  0  0  0
  -23.7276  -21.7790   27.7317 N   0  0  0  0  0  0  0  0  0  0  0  0
  -25.8173  -26.9336   20.1678 N   0  0  0  0  0  0  0  0  0  0  0  0
  -25.3535  -27.9378   19.4045 N   0  0  0  0  0  0  0  0  0  0  0  0
  -27.5488  -14.4917   20.4092 N   0  0  0  0  0  0  0  0  0  0  0  0
  -23.8736  -30.2334   22.0782 N   0  0  0  0  0  0  0  0  0  0  0  0
  -24.9166  -28.5583   17.1607 N   0  0  0  0  0  0  0  0  0  0  0  0
  -27.2574  -25.7842   16.0559 N   0  0  0  0  0  0  0  0  0  0  0  0
  -25.8609  -11.3930   20.9371 N   0  0  0  0  0  0  0  0  0  0  0  0
  -30.3029  -15.7791   18.9206 N   0  0  0  0  0  0  0  0  0  0  0  0
  -21.6165  -29.5725   22.3280 N   0  0  0  0  0  0  0  0  0  0  0  0
  -29.8813  -19.0313   17.3997 N   0  3  0  0  0  0  0  0  0  0  0  0
  -25.1274  -24.9518   16.2262 O   0  0  0  0  0  0  0  0  0  0  0  0
  -26.8535  -12.9005   22.4084 O   0  0  0  0  0  0  0  0  0  0  0  0
  -28.7693  -13.3634   18.7742 O   0  0  0  0  0  0  0  0  0  0  0  0
  -29.9000  -17.8224   19.9403 O   0  0  0  0  0  0  0  0  0  0  0  0
  -22.2992  -31.6462   23.0286 O   0  0  0  0  0  0  0  0  0  0  0  0
  -28.2131  -21.0881   20.9692 O   0  0  0  0  0  0  0  0  0  0  0  0
  -24.7131  -18.3267   24.3214 O   0  0  0  0  0  0  0  0  0  1  0  0
  -30.1375  -20.7780   26.1271 F   0  0  0  0  0  0  0  0  0  0  0  0
  -30.8544  -20.4368   21.4607 F   0  0  0  0  0  0  0  0  0  0  0  0
  1  2  1  0  0  0  0
  1  5  2  0  0  0  0
  2  6  2  0  0  0  0
  3  8  2  0  0  0  0
  3 17  1  0  0  0  0
  4  9  1  0  0  0  0
  4 17  2  0  0  0  0
  5 19  1  0  0  0  0
  6 21  1  0  0  0  0
  7 10  2  0  0  0  0
  7 20  1  0  0  0  0
  8 25  1  0  0  0  0
  9 25  2  0  0  0  0
 10 26  1  0  0  0  0
 11 12  2  0  0  0  0
 11 27  1  0  0  0  0
 12 28  1  0  0  0  0
 13 22  1  0  0  0  0
 13 26  2  0  0  0  0
 14 23  1  0  0  0  0
 14 31  2  0  0  0  0
 15 28  2  0  0  0  0
 15 29  1  0  0  0  0
 16 24  1  0  0  0  0
 16 69  2  0  0  0  0
 17 30  1  0  0  0  0
 18 30  1  0  0  0  0
 18 32  2  0  0  0  0
 18 33  1  0  0  0  0
 19 21  2  0  0  0  0
 19 38  1  0  0  0  0
 20 22  2  0  0  0  0
 20 39  1  0  0  0  0
 21 47  1  0  0  0  0
 22 40  1  0  0  0  0
 23 24  2  0  0  0  0
 23 57  1  0  0  0  0
 24 56  1  0  0  0  0
 25 85  1  0  0  0  0
 26 86  1  0  0  0  0
 27 29  2  0  0  0  0
 27 85  1  0  0  0  0
 28 87  1  0  0  0  0
 29 88  1  0  0  0  0
 30 70  2  0  0  0  0
 31 58  1  0  0  0  0
 31 69  1  0  0  0  0
 32 71  1  0  0  0  0
 32 74  1  0  0  0  0
 33 75  1  0  0  0  0
 33 80  2  0  0  0  0
 34 48  1  0  0  0  0
 34 76  1  0  0  0  0
 34 81  2  0  0  0  0
 35 66  1  0  0  0  0
 35 72  1  0  0  0  0
 35 82  2  0  0  0  0
 36 67  1  0  0  0  0
 36 77  1  0  0  0  0
 36 83  2  0  0  0  0
 37 73  1  0  0  0  0
 37 78  1  0  0  0  0
 37 84  2  0  0  0  0
 38 41  1  0  0  0  0
 39 48  1  0  0  0  0
 40 72  1  0  0  0  0
 41 43  1  0  0  0  0
 42 44  1  0  0  0  0
 42 45  1  0  0  0  0
 43 47  1  0  0  0  0
 44 49  1  0  0  0  0
 45 73  1  0  0  0  0
 46 49  1  0  0  0  0
 46 73  1  0  0  0  0
 47 76  1  0  0  0  0
 48 72  1  0  0  0  0
 49 71  1  0  0  0  0
 50 56  1  0  0  0  0
 51 67  1  0  0  0  0
 52 68  1  0  0  0  0
 53 68  1  0  0  0  0
 54 68  1  0  0  0  0
 55 79  1  0  0  0  0
 57 86  1  0  0  0  0
 58 59  1  0  0  0  0
 59 60  1  0  0  0  0
 60 61  1  0  0  0  0
 61 62  1  0  0  0  0
 62 63  1  0  0  0  0
 63 64  1  0  0  0  0
 64 65  1  0  0  0  0
 65 78  1  0  0  0  0
 66 68  1  0  0  0  0
 66 77  1  0  0  0  0
 67 79  1  0  0  0  0
 70 71  1  0  0  0  0
M  CHG  1  79   1
M  ISO  4  37 100  57 101  78 100  86 101
M  END
> <Batch ID>
0039

> <Smiles>
CCc1cnc(CCCCCCCC[100NH:0][100C:0](=O)N2CCCC(n3nc(-c4ccc(Oc5ccc(F)cc5F)cc4)c(C(N)=O)c3N)C2)cc1[101CH2:1][101O:1]c1ccc2c(c1)CN(C(=O)C(NC(=O)C(C)NC)C(C)(C)C)C(C(=O)NC1CCCc3ccccc31)C2

> <Shape>
0.216

> <Color>
0.066

> <Negative vol penalty>
0.000

$$$$

  -OEChem-04052317043D

 85 93  0     1  0  0  0  0  0999 V2000
  -18.4816  -26.5365   20.6182 C   0  0  0  0  0  0  0  0  0  0  0  0
  -19.6349  -27.2147   20.9996 C   0  0  0  0  0  0  0  0  0  0  0  0
  -26.2198  -13.5467   23.3116 C   0  0  0  0  0  0  0  0  0  0  0  0
  -26.1944  -14.9204   21.3243 C   0  0  0  0  0  0  0  0  0  0  0  0
  -18.4807  -25.1435   20.5595 C   0  0  0  0  0  0  0  0  0  0  0  0
  -20.7876  -26.5001   21.3235 C   0  0  0  0  0  0  0  0  0  0  0  0
  -24.9538  -28.4850   19.2383 C   0  0  0  0  0  0  0  0  0  0  0  0
  -25.9714  -12.4162   22.5333 C   0  0  0  0  0  0  0  0  0  0  0  0
  -25.9460  -13.7898   20.5460 C   0  0  0  0  0  0  0  0  0  0  0  0
  -25.4932  -29.6171   19.8474 C   0  0  0  0  0  0  0  0  0  0  0  0
  -23.3179  -10.9667   21.0226 C   0  0  0  0  0  0  0  0  0  0  0  0
  -22.3515  -10.0687   21.4754 C   0  0  0  0  0  0  0  0  0  0  0  0
  -27.1442  -28.2368   20.9374 C   0  0  0  0  0  0  0  0  0  0  0  0
  -25.2071  -29.6757   24.2671 C   0  0  0  0  0  0  0  0  0  0  0  0
  -24.0168   -8.3205   21.5628 C   0  0  0  0  0  0  0  0  0  0  0  0
  -23.4094  -31.2279   25.6106 C   0  0  0  0  0  0  0  0  0  0  0  0
  -26.3313  -14.7989   22.7071 C   0  0  0  0  0  0  0  0  0  0  0  0
  -27.8426  -16.4989   23.8618 C   0  0  0  0  0  0  0  0  0  0  0  0
  -19.6368  -24.4119   20.8735 C   0  0  0  0  0  0  0  0  0  0  0  0
  -25.4997  -27.2167   19.4832 C   0  0  0  0  0  0  0  0  0  0  0  0
  -20.8018  -25.0959   21.2702 C   0  0  0  0  0  0  0  0  0  0  0  0
  -26.6115  -27.0904   20.3282 C   0  0  0  0  0  0  0  0  0  0  0  0
  -25.5141  -31.0071   24.5252 C   0  0  0  0  0  0  0  0  0  0  0  0
  -25.8345  -12.5377   21.1506 C   0  0  0  0  0  0  0  0  0  0  0  0
  -26.5868  -29.4928   20.6994 C   0  0  0  0  0  0  0  0  0  0  0  0
  -24.6338  -10.5417   20.8397 C   0  0  0  0  0  0  0  0  0  0  0  0
  -22.7009   -8.7456   21.7456 C   0  0  0  0  0  0  0  0  0  0  0  0
  -24.9833   -9.2186   21.1099 C   0  0  0  0  0  0  0  0  0  0  0  0
  -24.6035  -31.8048   25.2092 C   0  0  0  0  0  0  0  0  0  0  0  0
  -26.5873  -15.9672   23.5105 C   0  0  0  0  0  0  0  0  0  0  0  0
  -23.9861  -29.1941   24.7109 C   0  0  0  0  0  0  0  0  0  0  0  0
  -27.5469  -17.6010   24.6263 C   0  0  0  0  0  0  0  0  0  0  0  0
  -29.1582  -16.0380   23.5268 C   0  0  0  0  0  0  0  0  0  0  0  0
  -24.4164  -24.5180   20.7666 C   0  0  0  0  0  0  0  0  0  0  0  0
  -27.2905  -23.3633   19.8030 C   0  0  0  0  0  0  0  0  0  0  0  0
  -30.5379  -24.0020   18.9706 C   0  0  0  0  0  0  0  0  0  0  0  0
  -24.6967  -22.2016   25.4378 C   0  0  0  0  0  0  0  0  0  0  0  0
  -19.5737  -22.9053   20.8411 C   0  0  0  0  0  0  0  0  0  0  0  0
  -24.9230  -26.0086   18.7975 C   0  0  0  0  0  0  0  0  0  0  0  0
  -27.2472  -25.7540   20.6080 C   0  0  0  0  0  0  0  0  0  0  0  0
  -20.9467  -22.2381   20.8381 C   0  0  0  0  0  0  0  0  0  0  0  0
  -23.1630  -19.1455   26.6232 C   0  0  0  0  0  0  0  0  0  0  0  0
  -21.8490  -22.8688   21.8940 C   0  0  0  0  0  0  0  0  0  0  0  0
  -24.0299  -18.0856   25.9411 C   0  0  0  0  0  0  0  0  0  0  0  0
  -22.9407  -20.3484   25.7113 C   0  0  0  0  0  0  0  0  0  0  0  0
  -25.0611  -19.9248   24.5290 C   0  0  0  0  0  0  0  0  0  0  0  0
  -22.0793  -24.3571   21.6051 C   0  0  1  0  0  0  0  0  0  0  0  0
  -25.2375  -24.7033   19.5220 C   0  0  1  0  0  0  0  0  0  0  0  0
  -25.3414  -18.6925   25.4083 C   0  0  2  0  0  0  0  0  0  0  0  0
  -32.6529  -22.8517   18.2630 C   0  0  0  0  0  0  0  0  0  0  0  0
  -27.7263  -22.4075   22.6677 C   0  0  0  0  0  0  0  0  0  0  0  0
  -30.1586  -22.1443   22.1359 C   0  0  0  0  0  0  0  0  0  0  0  0
  -28.4613  -20.7920   20.9057 C   0  0  0  0  0  0  0  0  0  0  0  0
  -30.6213  -25.4797   16.4077 C   0  0  0  0  0  0  0  0  0  0  0  0
  -26.8378  -31.5485   24.0474 C   0  0  0  0  0  0  0  0  0  0  0  0
  -23.6233  -27.7697   24.4526 C   0  0  0  0  0  0  0  0  0  0  0  0
  -26.7297  -32.4263   22.7987 C   0  0  0  0  0  0  0  0  0  0  0  0
  -24.0800  -26.8394   25.5868 C   0  0  0  0  0  0  0  0  0  0  0  0
  -23.7350  -25.3765   25.2925 C   0  0  0  0  0  0  0  0  0  0  0  0
  -24.1911  -24.4322   26.3999 C   0  0  0  0  0  0  0  0  0  0  0  0
  -26.2220  -31.6741   21.5740 C   0  0  0  0  0  0  0  0  0  1  0  0
  -28.6646  -23.2649   20.4203 C   0  0  1  0  0  0  0  0  0  0  0  0
  -31.3845  -23.5480   17.7952 C   0  0  2  0  0  0  0  0  0  0  0  0
  -28.7397  -22.1773   21.5289 C   0  0  0  0  0  0  0  0  0  0  0  0
  -23.0760  -29.9385   25.3782 N   0  0  0  0  0  0  0  0  0  0  0  0
  -25.5699  -16.6732   24.0110 N   0  0  0  0  0  0  0  0  0  0  0  0
  -26.1855  -17.6599   24.6846 N   0  0  0  0  0  0  0  0  0  0  0  0
  -26.6433  -24.6017   19.9188 N   0  0  0  0  0  0  0  0  0  0  0  0
  -24.2282  -20.8900   25.2540 N   0  0  0  0  0  0  0  0  0  0  0  0
  -28.3211  -18.5157   25.2478 N   0  0  0  0  0  0  0  0  0  0  0  0
  -29.2819  -14.8899   22.7326 N   0  0  0  0  0  0  0  0  0  0  0  0
  -23.0522  -24.5219   20.5464 N   0  0  0  0  0  0  0  0  0  0  0  0
  -29.5945  -23.0574   19.3156 N   0  0  0  0  0  0  0  0  0  0  0  0
  -23.8447  -23.0548   26.1282 N   0  0  0  0  0  0  0  0  0  0  0  0
  -31.7722  -24.7159   16.9545 N   0  3  0  0  0  0  0  0  0  0  0  0
  -30.1937  -16.6173   23.9339 O   0  0  0  0  0  0  0  0  0  0  0  0
  -24.9789  -24.3802   21.8466 O   0  0  0  0  0  0  0  0  0  0  0  0
  -26.8120  -22.3798   19.2325 O   0  0  0  0  0  0  0  0  0  0  0  0
  -30.7000  -25.0846   19.5295 O   0  0  0  0  0  0  0  0  0  0  0  0
  -25.7961  -22.5829   25.0218 O   0  0  0  0  0  0  0  0  0  0  0  0
  -25.5923  -11.4347   20.3908 O   0  0  0  0  0  0  0  0  0  0  0  0
  -27.1148  -30.5962   21.2957 O   0  0  0  0  0  0  0  0  0  1  0  0
  -21.7731   -7.8837   22.1819 F   0  0  0  0  0  0  0  0  0  0  0  0
  -26.2461   -8.8047   20.9372 F   0  0  0  0  0  0  0  0  0  0  0  0
  -24.9150  -33.4590   25.5610 Cl  0  0  0  0  0  0  0  0  0  0  0  0
  1  2  1  0  0  0  0
  1  5  2  0  0  0  0
  2  6  2  0  0  0  0
  3  8  2  0  0  0  0
  3 17  1  0  0  0  0
  4  9  1  0  0  0  0
  4 17  2  0  0  0  0
  5 19  1  0  0  0  0
  6 21  1  0  0  0  0
  7 10  2  0  0  0  0
  7 20  1  0  0  0  0
  8 24  1  0  0  0  0
  9 24  2  0  0  0  0
 10 25  1  0  0  0  0
 11 12  2  0  0  0  0
 11 26  1  0  0  0  0
 12 27  1  0  0  0  0
 13 22  1  0  0  0  0
 13 25  2  0  0  0  0
 14 23  1  0  0  0  0
 14 31  2  0  0  0  0
 15 27  2  0  0  0  0
 15 28  1  0  0  0  0
 16 29  1  0  0  0  0
 16 65  2  0  0  0  0
 17 30  1  0  0  0  0
 18 30  1  0  0  0  0
 18 32  2  0  0  0  0
 18 33  1  0  0  0  0
 19 21  2  0  0  0  0
 19 38  1  0  0  0  0
 20 22  2  0  0  0  0
 20 39  1  0  0  0  0
 21 47  1  0  0  0  0
 22 40  1  0  0  0  0
 23 29  2  0  0  0  0
 23 55  1  0  0  0  0
 24 81  1  0  0  0  0
 25 82  1  0  0  0  0
 26 28  2  0  0  0  0
 26 81  1  0  0  0  0
 27 83  1  0  0  0  0
 28 84  1  0  0  0  0
 29 85  1  0  0  0  0
 30 66  2  0  0  0  0
 31 56  1  0  0  0  0
 31 65  1  0  0  0  0
 32 67  1  0  0  0  0
 32 70  1  0  0  0  0
 33 71  1  0  0  0  0
 33 76  2  0  0  0  0
 34 48  1  0  0  0  0
 34 72  1  0  0  0  0
 34 77  2  0  0  0  0
 35 62  1  0  0  0  0
 35 68  1  0  0  0  0
 35 78  2  0  0  0  0
 36 63  1  0  0  0  0
 36 73  1  0  0  0  0
 36 79  2  0  0  0  0
 37 69  1  0  0  0  0
 37 74  1  0  0  0  0
 37 80  2  0  0  0  0
 38 41  1  0  0  0  0
 39 48  1  0  0  0  0
 40 68  1  0  0  0  0
 41 43  1  0  0  0  0
 42 44  1  0  0  0  0
 42 45  1  0  0  0  0
 43 47  1  0  0  0  0
 44 49  1  0  0  0  0
 45 69  1  0  0  0  0
 46 49  1  0  0  0  0
 46 69  1  0  0  0  0
 47 72  1  0  0  0  0
 48 68  1  0  0  0  0
 49 67  1  0  0  0  0
 50 63  1  0  0  0  0
 51 64  1  0  0  0  0
 52 64  1  0  0  0  0
 53 64  1  0  0  0  0
 54 75  1  0  0  0  0
 55 57  1  0  0  0  0
 56 58  1  0  0  0  0
 57 61  1  0  0  0  0
 58 59  1  0  0  0  0
 59 60  1  0  0  0  0
 60 74  1  0  0  0  0
 61 82  1  0  0  0  0
 62 64  1  0  0  0  0
 62 73  1  0  0  0  0
 63 75  1  0  0  0  0
 66 67  1  0  0  0  0
M  CHG  1  75   1
M  ISO  4  37 100  61 101  74 100  82 101
M  END
> <Batch ID>
0039

> <Smiles>
CNC(C)C(=O)NC(C(=O)N1Cc2cc([101O:1][101CH2:1]CCc3cc(CCCC[100NH:0][100C:0](=O)N4CCCC(n5nc(-c6ccc(Oc7ccc(F)cc7F)cc6)c(C(N)=O)c5N)C4)ncc3Cl)ccc2CC1C(=O)NC1CCCc2ccccc21)C(C)(C)C

> <Shape>
0.218

> <Color>
0.067

> <Negative vol penalty>
0.000

$$$$

  -OEChem-04052317043D

 88 96  0     1  0  0  0  0  0999 V2000
  -24.3482  -13.8215   39.0700 C   0  0  0  0  0  0  0  0  0  0  0  0
  -25.0714  -14.5988   38.1710 C   0  0  0  0  0  0  0  0  0  0  0  0
  -23.0663   -9.8736   19.9497 C   0  0  0  0  0  0  0  0  0  0  0  0
  -23.8596   -9.8736   22.2317 C   0  0  0  0  0  0  0  0  0  0  0  0
  -24.4221  -12.4308   39.0041 C   0  0  0  0  0  0  0  0  0  0  0  0
  -25.8699  -13.9857   37.2061 C   0  0  0  0  0  0  0  0  0  0  0  0
  -25.3333  -16.0771   32.6254 C   0  0  0  0  0  0  0  0  0  0  0  0
  -22.3287   -8.7179   20.2060 C   0  0  0  0  0  0  0  0  0  0  0  0
  -23.1219   -8.7178   22.4881 C   0  0  0  0  0  0  0  0  0  0  0  0
  -25.9934  -17.2833   32.3949 C   0  0  0  0  0  0  0  0  0  0  0  0
  -21.1627   -5.9712   23.8430 C   0  0  0  0  0  0  0  0  0  0  0  0
  -20.4238   -5.9214   25.0249 C   0  0  0  0  0  0  0  0  0  0  0  0
  -27.7471  -16.0958   31.2400 C   0  0  0  0  0  0  0  0  0  0  0  0
  -28.8196  -22.2739   30.9307 C   0  0  0  0  0  0  0  0  0  0  0  0
  -19.1644   -7.8587   24.3191 C   0  0  0  0  0  0  0  0  0  0  0  0
  -30.1121  -20.3747   30.3148 C   0  0  0  0  0  0  0  0  0  0  0  0
  -23.8318  -10.4515   20.9625 C   0  0  0  0  0  0  0  0  0  0  0  0
  -24.1664  -12.9778   20.8472 C   0  0  0  0  0  0  0  0  0  0  0  0
  -25.2144  -11.8002   38.0318 C   0  0  0  0  0  0  0  0  0  0  0  0
  -25.8815  -14.8680   32.1737 C   0  0  0  0  0  0  0  0  0  0  0  0
  -25.9556  -12.5852   37.1280 C   0  0  0  0  0  0  0  0  0  0  0  0
  -27.0907  -14.8760   31.4638 C   0  0  0  0  0  0  0  0  0  0  0  0
  -29.2978  -21.0058   31.2414 C   0  0  0  0  0  0  0  0  0  0  0  0
  -29.1654  -22.8638   29.7200 C   0  0  0  0  0  0  0  0  0  0  0  0
  -22.3565   -8.1400   21.4752 C   0  0  0  0  0  0  0  0  0  0  0  0
  -27.2019  -17.2925   31.7046 C   0  0  0  0  0  0  0  0  0  0  0  0
  -20.9026   -6.9648   22.8991 C   0  0  0  0  0  0  0  0  0  0  0  0
  -19.4246   -6.8652   25.2630 C   0  0  0  0  0  0  0  0  0  0  0  0
  -19.9034   -7.9085   23.1371 C   0  0  0  0  0  0  0  0  0  0  0  0
  -24.5945  -11.6450   20.6981 C   0  0  0  0  0  0  0  0  0  0  0  0
  -29.9858  -22.1496   28.8616 C   0  0  0  0  0  0  0  0  0  0  0  0
  -25.2515  -13.7311   20.4709 C   0  0  0  0  0  0  0  0  0  0  0  0
  -22.9011  -13.4892   21.2866 C   0  0  0  0  0  0  0  0  0  0  0  0
  -26.9057  -12.2063   33.5774 C   0  0  0  0  0  0  0  0  0  0  0  0
  -30.7576  -14.6949   20.6794 C   0  0  0  0  0  0  0  0  0  0  0  0
  -27.2060  -11.1719   30.5177 C   0  0  0  0  0  0  0  0  0  0  0  0
  -27.6026  -11.9561   27.2200 C   0  0  0  0  0  0  0  0  0  0  0  0
  -25.2997  -10.2945   38.0297 C   0  0  0  0  0  0  0  0  0  0  0  0
  -25.1437  -13.5782   32.4071 C   0  0  0  0  0  0  0  0  0  0  0  0
  -27.7113  -13.6074   30.9403 C   0  0  0  0  0  0  0  0  0  0  0  0
  -25.8755   -9.7188   36.7385 C   0  0  0  0  0  0  0  0  0  0  0  0
  -29.5614  -12.4052   18.1962 C   0  0  0  0  0  0  0  0  0  0  0  0
  -27.1304  -10.4820   36.3267 C   0  0  0  0  0  0  0  0  0  0  0  0
  -28.1383  -12.0896   18.6547 C   0  0  0  0  0  0  0  0  0  0  0  0
  -30.4989  -12.6053   19.3828 C   0  0  0  0  0  0  0  0  0  0  0  0
  -28.6147  -13.3305   20.8130 C   0  0  0  0  0  0  0  0  0  0  0  0
  -26.8135  -11.9569   36.0513 C   0  0  1  0  0  0  0  0  0  0  0  0
  -26.0504  -12.3526   32.3507 C   0  0  1  0  0  0  0  0  0  0  0  0
  -27.6284  -13.1513   19.6453 C   0  0  2  0  0  0  0  0  0  0  0  0
  -28.6551  -24.2215   29.3800 C   0  0  0  0  0  0  0  0  0  0  0  0
  -27.8527  -10.8958   24.9593 C   0  0  0  0  0  0  0  0  0  0  0  0
  -30.0990  -10.4587   31.1749 C   0  0  0  0  0  0  0  0  0  0  0  0
  -30.5489  -10.3147   28.7162 C   0  0  0  0  0  0  0  0  0  0  0  0
  -28.9006   -8.7693   29.7734 C   0  0  0  0  0  0  0  0  0  0  0  0
  -25.1351  -13.2444   26.2145 C   0  0  0  0  0  0  0  0  0  0  0  0
  -28.9420  -20.3378   32.5473 C   0  0  0  0  0  0  0  0  0  0  0  0
  -30.3905  -22.7338   27.5477 C   0  0  0  0  0  0  0  0  0  0  0  0
  -30.1413  -15.6839   21.6365 C   0  0  0  0  0  0  0  0  0  0  0  0
  -31.1110  -16.8188   21.9503 C   0  0  0  0  0  0  0  0  0  0  0  0
  -30.4984  -17.8758   22.8743 C   0  0  0  0  0  0  0  0  0  0  0  0
  -31.5046  -18.9836   23.1936 C   0  0  0  0  0  0  0  0  0  0  0  0
  -30.8842  -20.0577   24.0902 C   0  0  0  0  0  0  0  0  0  0  0  0
  -31.8808  -21.1852   24.3746 C   0  0  0  0  0  0  0  0  0  0  0  0
  -31.3184  -22.2792   25.2737 C   0  0  0  0  0  0  0  0  0  0  0  0
  -27.6696  -19.5039   32.4443 C   0  0  0  0  0  0  0  0  0  1  0  0
  -28.3015  -11.2079   29.4796 C   0  0  1  0  0  0  0  0  0  0  0  0
  -26.8796  -11.4728   25.9757 C   0  0  2  0  0  0  0  0  0  0  0  0
  -29.4520  -10.2115   29.7975 C   0  0  0  0  0  0  0  0  0  0  0  0
  -30.4697  -20.9159   29.1287 N   0  0  0  0  0  0  0  0  0  0  0  0
  -25.8533  -11.5536   20.2610 N   0  0  0  0  0  0  0  0  0  0  0  0
  -26.2255  -12.8385   20.1322 N   0  0  0  0  0  0  0  0  0  0  0  0
  -26.9549  -12.3711   31.1993 N   0  0  0  0  0  0  0  0  0  0  0  0
  -29.9684  -13.6050   20.3115 N   0  0  0  0  0  0  0  0  0  0  0  0
  -25.4579  -15.0633   20.4000 N   0  0  0  0  0  0  0  0  0  0  0  0
  -21.8961  -12.5765   21.6352 N   0  0  0  0  0  0  0  0  0  0  0  0
  -26.1887  -12.1060   34.7544 N   0  0  0  0  0  0  0  0  0  0  0  0
  -27.6525  -10.9804   28.1930 N   0  0  0  0  0  0  0  0  0  0  0  0
  -26.1429  -12.5985   25.3346 N   0  3  0  0  0  0  0  0  0  0  0  0
  -30.9611  -21.7307   26.6083 N   0  3  0  0  0  0  0  0  0  0  0  0
  -22.6630  -14.7190   21.3522 O   0  0  0  0  0  0  0  0  0  0  0  0
  -28.1257  -12.1845   33.4643 O   0  0  0  0  0  0  0  0  0  0  0  0
  -31.9052  -14.8885   20.2698 O   0  0  0  0  0  0  0  0  0  0  0  0
  -26.5908  -10.1205   30.7114 O   0  0  0  0  0  0  0  0  0  0  0  0
  -28.0789  -13.0849   27.3175 O   0  0  0  0  0  0  0  0  0  0  0  0
  -21.6366   -7.0123   21.7258 O   0  0  0  0  0  0  0  0  0  0  0  0
  -27.8486  -18.4684   31.4788 O   0  0  0  0  0  0  0  0  0  1  0  0
  -18.7140   -6.8163   26.3974 F   0  0  0  0  0  0  0  0  0  0  0  0
  -19.6482   -8.8646   22.2336 F   0  0  0  0  0  0  0  0  0  0  0  0
  1  2  1  0  0  0  0
  1  5  2  0  0  0  0
  2  6  2  0  0  0  0
  3  8  2  0  0  0  0
  3 17  1  0  0  0  0
  4  9  1  0  0  0  0
  4 17  2  0  0  0  0
  5 19  1  0  0  0  0
  6 21  1  0  0  0  0
  7 10  2  0  0  0  0
  7 20  1  0  0  0  0
  8 25  1  0  0  0  0
  9 25  2  0  0  0  0
 10 26  1  0  0  0  0
 11 12  2  0  0  0  0
 11 27  1  0  0  0  0
 12 28  1  0  0  0  0
 13 22  1  0  0  0  0
 13 26  2  0  0  0  0
 14 23  2  0  0  0  0
 14 24  1  0  0  0  0
 15 28  2  0  0  0  0
 15 29  1  0  0  0  0
 16 23  1  0  0  0  0
 16 69  2  0  0  0  0
 17 30  1  0  0  0  0
 18 30  1  0  0  0  0
 18 32  2  0  0  0  0
 18 33  1  0  0  0  0
 19 21  2  0  0  0  0
 19 38  1  0  0  0  0
 20 22  2  0  0  0  0
 20 39  1  0  0  0  0
 21 47  1  0  0  0  0
 22 40  1  0  0  0  0
 23 56  1  0  0  0  0
 24 31  2  0  0  0  0
 24 50  1  0  0  0  0
 25 85  1  0  0  0  0
 26 86  1  0  0  0  0
 27 29  2  0  0  0  0
 27 85  1  0  0  0  0
 28 87  1  0  0  0  0
 29 88  1  0  0  0  0
 30 70  2  0  0  0  0
 31 57  1  0  0  0  0
 31 69  1  0  0  0  0
 32 71  1  0  0  0  0
 32 74  1  0  0  0  0
 33 75  1  0  0  0  0
 33 80  2  0  0  0  0
 34 48  1  0  0  0  0
 34 76  1  0  0  0  0
 34 81  2  0  0  0  0
 35 58  1  0  0  0  0
 35 73  1  0  0  0  0
 35 82  2  0  0  0  0
 36 66  1  0  0  0  0
 36 72  1  0  0  0  0
 36 83  2  0  0  0  0
 37 67  1  0  0  0  0
 37 77  1  0  0  0  0
 37 84  2  0  0  0  0
 38 41  1  0  0  0  0
 39 48  1  0  0  0  0
 40 72  1  0  0  0  0
 41 43  1  0  0  0  0
 42 44  1  0  0  0  0
 42 45  1  0  0  0  0
 43 47  1  0  0  0  0
 44 49  1  0  0  0  0
 45 73  1  0  0  0  0
 46 49  1  0  0  0  0
 46 73  1  0  0  0  0
 47 76  1  0  0  0  0
 48 72  1  0  0  0  0
 49 71  1  0  0  0  0
 51 67  1  0  0  0  0
 52 68  1  0  0  0  0
 53 68  1  0  0  0  0
 54 68  1  0  0  0  0
 55 78  1  0  0  0  0
 56 65  1  0  0  0  0
 57 79  1  0  0  0  0
 58 59  1  0  0  0  0
 59 60  1  0  0  0  0
 60 61  1  0  0  0  0
 61 62  1  0  0  0  0
 62 63  1  0  0  0  0
 63 64  1  0  0  0  0
 64 79  1  0  0  0  0
 65 86  1  0  0  0  0
 66 68  1  0  0  0  0
 66 77  1  0  0  0  0
 67 78  1  0  0  0  0
 70 71  1  0  0  0  0
M  CHG  2  78   1  79   1
M  ISO  4  35 100  58 100  65 101  86 101
M  END
> <Batch ID>
0039

> <Smiles>
CNC(C)C(=O)NC(C(=O)N1Cc2cc([101O:1][101CH2:1]Cc3cnc(CNCCCCCC[100CH2:0][100C:0](=O)N4CCCC(n5nc(-c6ccc(Oc7ccc(F)cc7F)cc6)c(C(N)=O)c5N)C4)c(C)c3)ccc2CC1C(=O)NC1CCCc2ccccc21)C(C)(C)C

> <Shape>
0.155

> <Color>
0.183

> <Negative vol penalty>
0.000

$$$$

  -OEChem-04052317043D

 83 91  0     1  0  0  0  0  0999 V2000
  -20.6095  -21.9612   17.7393 C   0  0  0  0  0  0  0  0  0  0  0  0
  -21.2113  -20.7151   17.5961 C   0  0  0  0  0  0  0  0  0  0  0  0
  -26.2040  -27.9101   18.9126 C   0  0  0  0  0  0  0  0  0  0  0  0
  -26.1745  -27.2464   21.2355 C   0  0  0  0  0  0  0  0  0  0  0  0
  -20.9210  -22.7625   18.8369 C   0  0  0  0  0  0  0  0  0  0  0  0
  -22.1258  -20.2700   18.5500 C   0  0  0  0  0  0  0  0  0  0  0  0
  -22.9644  -14.5047   20.4377 C   0  0  0  0  0  0  0  0  0  0  0  0
  -25.1402  -28.7811   19.1479 C   0  0  0  0  0  0  0  0  0  0  0  0
  -25.1107  -28.1175   21.4708 C   0  0  0  0  0  0  0  0  0  0  0  0
  -23.8998  -13.5308   20.0908 C   0  0  0  0  0  0  0  0  0  0  0  0
  -21.7666  -28.1570   20.9746 C   0  0  0  0  0  0  0  0  0  0  0  0
  -20.6961  -27.6826   21.7326 C   0  0  0  0  0  0  0  0  0  0  0  0
  -25.2473  -14.1566   21.9912 C   0  0  0  0  0  0  0  0  0  0  0  0
  -30.7451  -15.5843   18.7685 C   0  0  0  0  0  0  0  0  0  0  0  0
  -30.8118  -15.6692   21.1820 C   0  0  0  0  0  0  0  0  0  0  0  0
  -21.0795  -29.4233   23.3635 C   0  0  0  0  0  0  0  0  0  0  0  0
  -26.7211  -27.1427   19.9564 C   0  0  0  0  0  0  0  0  0  0  0  0
  -29.1937  -26.5315   19.8141 C   0  0  0  0  0  0  0  0  0  0  0  0
  -21.8325  -22.3229   19.8098 C   0  0  0  0  0  0  0  0  0  0  0  0
  -23.1691  -15.3206   21.5597 C   0  0  0  0  0  0  0  0  0  0  0  0
  -22.4508  -21.0668   19.6610 C   0  0  0  0  0  0  0  0  0  0  0  0
  -24.3118  -15.1384   22.3517 C   0  0  0  0  0  0  0  0  0  0  0  0
  -30.9851  -16.2922   19.9461 C   0  0  0  0  0  0  0  0  0  0  0  0
  -30.1586  -13.6302   20.0626 C   0  0  0  0  0  0  0  0  0  0  0  0
  -24.5936  -28.8848   20.4270 C   0  0  0  0  0  0  0  0  0  0  0  0
  -25.0428  -13.3585   20.8659 C   0  0  0  0  0  0  0  0  0  0  0  0
  -22.4937  -29.2645   21.4111 C   0  0  0  0  0  0  0  0  0  0  0  0
  -20.3525  -28.3158   22.9270 C   0  0  0  0  0  0  0  0  0  0  0  0
  -22.1501  -29.8977   22.6055 C   0  0  0  0  0  0  0  0  0  0  0  0
  -30.3318  -14.2533   18.8267 C   0  0  0  0  0  0  0  0  0  0  0  0
  -30.3986  -14.3382   21.2403 C   0  0  0  0  0  0  0  0  0  0  0  0
  -27.8196  -26.2424   19.7138 C   0  0  0  0  0  0  0  0  0  0  0  0
  -29.8174  -25.3525   19.4861 C   0  0  0  0  0  0  0  0  0  0  0  0
  -29.8478  -27.7561   20.1718 C   0  0  0  0  0  0  0  0  0  0  0  0
  -23.5376  -18.4433   22.0251 C   0  0  0  0  0  0  0  0  0  0  0  0
  -23.4446  -17.5926   25.1541 C   0  0  0  0  0  0  0  0  0  0  0  0
  -23.8973  -15.1671   27.5117 C   0  0  0  0  0  0  0  0  0  0  0  0
  -30.3055  -19.9262   19.9996 C   0  0  0  0  0  0  0  0  0  0  0  0
  -22.1733  -23.2443   20.9542 C   0  0  0  0  0  0  0  0  0  0  0  0
  -22.1376  -16.3486   21.9358 C   0  0  0  0  0  0  0  0  0  0  0  0
  -24.5684  -15.9748   23.5777 C   0  0  0  0  0  0  0  0  0  0  0  0
  -22.8700  -22.5406   22.1160 C   0  0  0  0  0  0  0  0  0  0  0  0
  -27.9633  -21.0868   17.4968 C   0  0  0  0  0  0  0  0  0  0  0  0
  -23.9860  -21.6372   21.6010 C   0  0  0  0  0  0  0  0  0  0  0  0
  -27.8327  -22.5659   17.8650 C   0  0  0  0  0  0  0  0  0  0  0  0
  -28.0850  -20.2155   18.7434 C   0  0  0  0  0  0  0  0  0  0  0  0
  -29.0712  -22.0752   20.0250 C   0  0  0  0  0  0  0  0  0  0  0  0
  -23.4292  -20.5385   20.6876 C   0  0  1  0  0  0  0  0  0  0  0  0
  -22.7000  -17.4694   22.8046 C   0  0  1  0  0  0  0  0  0  0  0  0
  -28.9671  -23.0110   18.8070 C   0  0  2  0  0  0  0  0  0  0  0  0
  -23.7806  -14.7812   29.9886 C   0  0  0  0  0  0  0  0  0  0  0  0
  -26.0848  -19.0805   25.5078 C   0  0  0  0  0  0  0  0  0  0  0  0
  -26.3863  -17.8852   27.6870 C   0  0  0  0  0  0  0  0  0  0  0  0
  -24.4423  -19.4146   27.3638 C   0  0  0  0  0  0  0  0  0  0  0  0
  -21.8008  -13.1004   27.2080 C   0  0  0  0  0  0  0  0  0  0  0  0
  -29.7112  -12.1917   20.1256 C   0  0  0  0  0  0  0  0  0  0  0  0
  -31.4263  -17.7155   19.8838 C   0  0  0  0  0  0  0  0  0  0  0  0
  -28.2198  -11.9976   19.8435 C   0  0  0  0  0  0  0  0  0  0  0  0
  -27.3182  -12.6667   20.8744 C   0  0  0  0  0  0  0  0  0  1  0  0
  -24.4716  -17.1804   26.1809 C   0  0  1  0  0  0  0  0  0  0  0  0
  -23.0269  -14.7127   28.6695 C   0  0  2  0  0  0  0  0  0  0  0  0
  -25.3426  -18.3756   26.6607 C   0  0  0  0  0  0  0  0  0  0  0  0
  -27.5836  -24.9790   19.3504 N   0  0  0  0  0  0  0  0  0  0  0  0
  -28.8179  -24.4637   19.2193 N   0  0  0  0  0  0  0  0  0  0  0  0
  -23.5335  -16.9709   23.9005 N   0  0  0  0  0  0  0  0  0  0  0  0
  -29.1944  -20.6806   19.5878 N   0  0  0  0  0  0  0  0  0  0  0  0
  -31.1178  -24.9999   19.4026 N   0  0  0  0  0  0  0  0  0  0  0  0
  -29.0564  -28.8712   20.4795 N   0  0  0  0  0  0  0  0  0  0  0  0
  -22.8199  -19.4878   21.4744 N   0  0  0  0  0  0  0  0  0  0  0  0
  -23.7359  -16.5108   27.2480 N   0  0  0  0  0  0  0  0  0  0  0  0
  -30.3431  -18.6127   19.5481 N   0  0  0  0  0  0  0  0  0  0  0  0
  -22.5758  -13.3081   28.4583 N   0  3  0  0  0  0  0  0  0  0  0  0
  -31.0973  -27.8632   20.2013 O   0  0  0  0  0  0  0  0  0  0  0  0
  -24.7459  -18.2614   21.9316 O   0  0  0  0  0  0  0  0  0  0  0  0
  -22.5904  -18.4300   25.4554 O   0  0  0  0  0  0  0  0  0  0  0  0
  -24.6483  -14.4069   26.9046 O   0  0  0  0  0  0  0  0  0  0  0  0
  -31.2014  -20.3907   20.7130 O   0  0  0  0  0  0  0  0  0  0  0  0
  -23.5557  -29.7348   20.6570 O   0  0  0  0  0  0  0  0  0  0  0  0
  -25.9577  -12.4091   20.5291 O   0  0  0  0  0  0  0  0  0  1  0  0
  -19.3235  -27.8611   23.6540 F   0  0  0  0  0  0  0  0  0  0  0  0
  -22.8441  -30.9628   23.0294 F   0  0  0  0  0  0  0  0  0  0  0  0
  -30.0454  -13.4143   17.3445 Cl  0  0  0  0  0  0  0  0  0  0  0  0
  -30.1957  -13.6061   22.7912 Cl  0  0  0  0  0  0  0  0  0  0  0  0
  1  2  1  0  0  0  0
  1  5  2  0  0  0  0
  2  6  2  0  0  0  0
  3  8  2  0  0  0  0
  3 17  1  0  0  0  0
  4  9  1  0  0  0  0
  4 17  2  0  0  0  0
  5 19  1  0  0  0  0
  6 21  1  0  0  0  0
  7 10  2  0  0  0  0
  7 20  1  0  0  0  0
  8 25  1  0  0  0  0
  9 25  2  0  0  0  0
 10 26  1  0  0  0  0
 11 12  2  0  0  0  0
 11 27  1  0  0  0  0
 12 28  1  0  0  0  0
 13 22  1  0  0  0  0
 13 26  2  0  0  0  0
 14 23  1  0  0  0  0
 14 30  2  0  0  0  0
 15 23  2  0  0  0  0
 15 31  1  0  0  0  0
 16 28  2  0  0  0  0
 16 29  1  0  0  0  0
 17 32  1  0  0  0  0
 18 32  1  0  0  0  0
 18 33  2  0  0  0  0
 18 34  1  0  0  0  0
 19 21  2  0  0  0  0
 19 39  1  0  0  0  0
 20 22  2  0  0  0  0
 20 40  1  0  0  0  0
 21 48  1  0  0  0  0
 22 41  1  0  0  0  0
 23 57  1  0  0  0  0
 24 30  1  0  0  0  0
 24 31  2  0  0  0  0
 24 56  1  0  0  0  0
 25 78  1  0  0  0  0
 26 79  1  0  0  0  0
 27 29  2  0  0  0  0
 27 78  1  0  0  0  0
 28 80  1  0  0  0  0
 29 81  1  0  0  0  0
 30 82  1  0  0  0  0
 31 83  1  0  0  0  0
 32 63  2  0  0  0  0
 33 64  1  0  0  0  0
 33 67  1  0  0  0  0
 34 68  1  0  0  0  0
 34 73  2  0  0  0  0
 35 49  1  0  0  0  0
 35 69  1  0  0  0  0
 35 74  2  0  0  0  0
 36 60  1  0  0  0  0
 36 65  1  0  0  0  0
 36 75  2  0  0  0  0
 37 61  1  0  0  0  0
 37 70  1  0  0  0  0
 37 76  2  0  0  0  0
 38 66  1  0  0  0  0
 38 71  1  0  0  0  0
 38 77  2  0  0  0  0
 39 42  1  0  0  0  0
 40 49  1  0  0  0  0
 41 65  1  0  0  0  0
 42 44  1  0  0  0  0
 43 45  1  0  0  0  0
 43 46  1  0  0  0  0
 44 48  1  0  0  0  0
 45 50  1  0  0  0  0
 46 66  1  0  0  0  0
 47 50  1  0  0  0  0
 47 66  1  0  0  0  0
 48 69  1  0  0  0  0
 49 65  1  0  0  0  0
 50 64  1  0  0  0  0
 51 61  1  0  0  0  0
 52 62  1  0  0  0  0
 53 62  1  0  0  0  0
 54 62  1  0  0  0  0
 55 72  1  0  0  0  0
 56 58  1  0  0  0  0
 57 71  1  0  0  0  0
 58 59  1  0  0  0  0
 59 79  1  0  0  0  0
 60 62  1  0  0  0  0
 60 70  1  0  0  0  0
 61 72  1  0  0  0  0
 63 64  1  0  0  0  0
M  CHG  1  72   1
M  ISO  4  38 100  59 101  71 100  79 101
M  END
> <Batch ID>
0039

> <Smiles>
CNC(C)C(=O)NC(C(=O)N1Cc2cc([101O:1][101CH2:1]CCc3c(Cl)cc(C[100NH:0][100C:0](=O)N4CCCC(n5nc(-c6ccc(Oc7ccc(F)cc7F)cc6)c(C(N)=O)c5N)C4)cc3Cl)ccc2CC1C(=O)NC1CCCc2ccccc21)C(C)(C)C

> <Shape>
0.225

> <Color>
0.043

> <Negative vol penalty>
0.000

$$$$

  -OEChem-04052317043D

 83 91  0     1  0  0  0  0  0999 V2000
  -28.9799  -10.8647   16.6494 C   0  0  0  0  0  0  0  0  0  0  0  0
  -27.8239  -11.5978   16.4012 C   0  0  0  0  0  0  0  0  0  0  0  0
  -24.8901  -28.6881   21.5036 C   0  0  0  0  0  0  0  0  0  0  0  0
  -23.7417  -30.1556   19.9659 C   0  0  0  0  0  0  0  0  0  0  0  0
  -29.7191  -11.1017   17.8076 C   0  0  0  0  0  0  0  0  0  0  0  0
  -27.4058  -12.5677   17.3117 C   0  0  0  0  0  0  0  0  0  0  0  0
  -24.6289  -17.8721   16.0242 C   0  0  0  0  0  0  0  0  0  0  0  0
  -25.6785  -29.7554   21.9335 C   0  0  0  0  0  0  0  0  0  0  0  0
  -24.5301  -31.2230   20.3958 C   0  0  0  0  0  0  0  0  0  0  0  0
  -23.2900  -18.2600   16.0483 C   0  0  0  0  0  0  0  0  0  0  0  0
  -27.7475  -32.1713   23.6935 C   0  0  0  0  0  0  0  0  0  0  0  0
  -27.9416  -32.3224   25.0665 C   0  0  0  0  0  0  0  0  0  0  0  0
  -23.5992  -19.1682   18.2616 C   0  0  0  0  0  0  0  0  0  0  0  0
  -16.7006  -20.4707   16.6399 C   0  0  0  0  0  0  0  0  0  0  0  0
  -18.2070  -18.6287   16.2218 C   0  0  0  0  0  0  0  0  0  0  0  0
  -19.0779  -20.8682   16.4733 C   0  0  0  0  0  0  0  0  0  0  0  0
  -25.5577  -32.5622   25.3771 C   0  0  0  0  0  0  0  0  0  0  0  0
  -23.9217  -28.8882   20.5197 C   0  0  0  0  0  0  0  0  0  0  0  0
  -21.8702  -27.3744   20.6057 C   0  0  0  0  0  0  0  0  0  0  0  0
  -29.3151  -12.0817   18.7280 C   0  0  0  0  0  0  0  0  0  0  0  0
  -25.4617  -18.1201   17.1248 C   0  0  0  0  0  0  0  0  0  0  0  0
  -28.1396  -12.8171   18.4839 C   0  0  0  0  0  0  0  0  0  0  0  0
  -24.9490  -18.7848   18.2479 C   0  0  0  0  0  0  0  0  0  0  0  0
  -16.9125  -19.1102   16.4167 C   0  0  0  0  0  0  0  0  0  0  0  0
  -17.7833  -21.3497   16.6681 C   0  0  0  0  0  0  0  0  0  0  0  0
  -19.2897  -19.5077   16.2501 C   0  0  0  0  0  0  0  0  0  0  0  0
  -25.4985  -31.0229   21.3797 C   0  0  0  0  0  0  0  0  0  0  0  0
  -22.7742  -18.9056   17.1683 C   0  0  0  0  0  0  0  0  0  0  0  0
  -26.4585  -32.2157   23.1623 C   0  0  0  0  0  0  0  0  0  0  0  0
  -26.8467  -32.5178   25.9083 C   0  0  0  0  0  0  0  0  0  0  0  0
  -25.3636  -32.4111   24.0041 C   0  0  0  0  0  0  0  0  0  0  0  0
  -23.1074  -27.7859   20.0748 C   0  0  0  0  0  0  0  0  0  0  0  0
  -21.5109  -26.2922   19.8400 C   0  0  0  0  0  0  0  0  0  0  0  0
  -21.1134  -27.9215   21.6936 C   0  0  0  0  0  0  0  0  0  0  0  0
  -27.1061  -16.3019   19.1481 C   0  0  0  0  0  0  0  0  0  0  0  0
  -28.2104  -19.1611   20.2101 C   0  0  0  0  0  0  0  0  0  0  0  0
  -27.7206  -22.5249   20.5123 C   0  0  0  0  0  0  0  0  0  0  0  0
  -20.9789  -23.8080   14.8710 C   0  0  0  0  0  0  0  0  0  0  0  0
  -30.1208  -12.2693   19.9891 C   0  0  0  0  0  0  0  0  0  0  0  0
  -26.9105  -17.7193   17.0724 C   0  0  0  0  0  0  0  0  0  0  0  0
  -25.8065  -19.0926   19.4473 C   0  0  0  0  0  0  0  0  0  0  0  0
  -29.8145  -13.5745   20.7190 C   0  0  0  0  0  0  0  0  0  0  0  0
  -24.1626  -23.6285   16.4548 C   0  0  0  0  0  0  0  0  0  0  0  0
  -28.3076  -13.7863   20.8245 C   0  0  0  0  0  0  0  0  0  0  0  0
  -24.0718  -24.6641   17.5769 C   0  0  0  0  0  0  0  0  0  0  0  0
  -23.4179  -24.0864   15.2026 C   0  0  0  0  0  0  0  0  0  0  0  0
  -21.9218  -25.5102   16.5473 C   0  0  0  0  0  0  0  0  0  0  0  0
  -27.6672  -13.8949   19.4354 C   0  0  1  0  0  0  0  0  0  0  0  0
  -27.5375  -17.5629   18.4543 C   0  0  1  0  0  0  0  0  0  0  0  0
  -22.6106  -25.0685   17.8499 C   0  0  2  0  0  0  0  0  0  0  0  0
  -15.4359  -17.5981   17.7656 C   0  0  0  0  0  0  0  0  0  0  0  0
  -28.7791  -24.5922   21.4627 C   0  0  0  0  0  0  0  0  0  0  0  0
  -27.3449  -18.3139   23.0106 C   0  0  0  0  0  0  0  0  0  0  0  0
  -27.5357  -20.7078   23.7182 C   0  0  0  0  0  0  0  0  0  0  0  0
  -29.5532  -19.4833   22.9103 C   0  0  0  0  0  0  0  0  0  0  0  0
  -27.9214  -23.7892   17.8439 C   0  0  0  0  0  0  0  0  0  0  0  0
  -15.7544  -18.1708   16.3870 C   0  0  0  0  0  0  0  0  0  0  0  0
  -17.5574  -22.8045   16.9071 C   0  0  0  0  0  0  0  0  0  0  0  0
  -20.6821  -18.9894   16.0404 C   0  0  0  0  0  0  0  0  0  1  0  0
  -17.3297  -23.6334   15.6276 C   0  0  0  0  0  0  0  0  0  0  0  0
  -18.5121  -23.6349   14.6610 C   0  0  0  0  0  0  0  0  0  0  0  0
  -27.7667  -20.1579   21.2534 C   0  0  1  0  0  0  0  0  0  0  0  0
  -28.6349  -23.7048   20.2361 C   0  0  2  0  0  0  0  0  0  0  0  0
  -28.0332  -19.6583   22.7015 C   0  0  0  0  0  0  0  0  0  0  0  0
  -23.5073  -27.0269   19.0511 N   0  0  0  0  0  0  0  0  0  0  0  0
  -22.5157  -26.1276   18.9326 N   0  0  0  0  0  0  0  0  0  0  0  0
  -27.2150  -18.6751   19.3505 N   0  0  0  0  0  0  0  0  0  0  0  0
  -22.0381  -24.4538   15.5298 N   0  0  0  0  0  0  0  0  0  0  0  0
  -20.4367  -25.4750   19.8611 N   0  0  0  0  0  0  0  0  0  0  0  0
  -21.6281  -29.0343   22.3726 N   0  0  0  0  0  0  0  0  0  0  0  0
  -27.9023  -15.2069   18.8717 N   0  0  0  0  0  0  0  0  0  0  0  0
  -28.4285  -21.4156   20.9239 N   0  0  0  0  0  0  0  0  0  0  0  0
  -19.7028  -24.2112   15.2448 N   0  0  0  0  0  0  0  0  0  0  0  0
  -28.0926  -24.5302   19.1201 N   0  3  0  0  0  0  0  0  0  0  0  0
  -20.0213  -27.4277   22.0636 O   0  0  0  0  0  0  0  0  0  0  0  0
  -26.1243  -16.3213   19.8813 O   0  0  0  0  0  0  0  0  0  0  0  0
  -29.3978  -18.8314   20.1550 O   0  0  0  0  0  0  0  0  0  0  0  0
  -26.5000  -22.5828   20.3801 O   0  0  0  0  0  0  0  0  0  0  0  0
  -21.1571  -22.9328   14.0170 O   0  0  0  0  0  0  0  0  0  0  0  0
  -26.2674  -32.0647   21.7991 O   0  0  0  0  0  0  0  0  0  0  0  0
  -21.4675  -19.2846   17.1947 O   0  0  0  0  0  0  0  0  0  1  0  0
  -27.0331  -32.6614   27.2270 F   0  0  0  0  0  0  0  0  0  0  0  0
  -24.1228  -32.4535   23.4997 F   0  0  0  0  0  0  0  0  0  0  0  0
  1  2  1  0  0  0  0
  1  5  2  0  0  0  0
  2  6  2  0  0  0  0
  3  8  2  0  0  0  0
  3 18  1  0  0  0  0
  4  9  1  0  0  0  0
  4 18  2  0  0  0  0
  5 20  1  0  0  0  0
  6 22  1  0  0  0  0
  7 10  2  0  0  0  0
  7 21  1  0  0  0  0
  8 27  1  0  0  0  0
  9 27  2  0  0  0  0
 10 28  1  0  0  0  0
 11 12  2  0  0  0  0
 11 29  1  0  0  0  0
 12 30  1  0  0  0  0
 13 23  1  0  0  0  0
 13 28  2  0  0  0  0
 14 24  1  0  0  0  0
 14 25  2  0  0  0  0
 15 24  2  0  0  0  0
 15 26  1  0  0  0  0
 16 25  1  0  0  0  0
 16 26  2  0  0  0  0
 17 30  2  0  0  0  0
 17 31  1  0  0  0  0
 18 32  1  0  0  0  0
 19 32  1  0  0  0  0
 19 33  2  0  0  0  0
 19 34  1  0  0  0  0
 20 22  2  0  0  0  0
 20 39  1  0  0  0  0
 21 23  2  0  0  0  0
 21 40  1  0  0  0  0
 22 48  1  0  0  0  0
 23 41  1  0  0  0  0
 24 57  1  0  0  0  0
 25 58  1  0  0  0  0
 26 59  1  0  0  0  0
 27 80  1  0  0  0  0
 28 81  1  0  0  0  0
 29 31  2  0  0  0  0
 29 80  1  0  0  0  0
 30 82  1  0  0  0  0
 31 83  1  0  0  0  0
 32 65  2  0  0  0  0
 33 66  1  0  0  0  0
 33 69  1  0  0  0  0
 34 70  1  0  0  0  0
 34 75  2  0  0  0  0
 35 49  1  0  0  0  0
 35 71  1  0  0  0  0
 35 76  2  0  0  0  0
 36 62  1  0  0  0  0
 36 67  1  0  0  0  0
 36 77  2  0  0  0  0
 37 63  1  0  0  0  0
 37 72  1  0  0  0  0
 37 78  2  0  0  0  0
 38 68  1  0  0  0  0
 38 73  1  0  0  0  0
 38 79  2  0  0  0  0
 39 42  1  0  0  0  0
 40 49  1  0  0  0  0
 41 67  1  0  0  0  0
 42 44  1  0  0  0  0
 43 45  1  0  0  0  0
 43 46  1  0  0  0  0
 44 48  1  0  0  0  0
 45 50  1  0  0  0  0
 46 68  1  0  0  0  0
 47 50  1  0  0  0  0
 47 68  1  0  0  0  0
 48 71  1  0  0  0  0
 49 67  1  0  0  0  0
 50 66  1  0  0  0  0
 51 57  1  0  0  0  0
 52 63  1  0  0  0  0
 53 64  1  0  0  0  0
 54 64  1  0  0  0  0
 55 64  1  0  0  0  0
 56 74  1  0  0  0  0
 58 60  1  0  0  0  0
 59 81  1  0  0  0  0
 60 61  1  0  0  0  0
 61 73  1  0  0  0  0
 62 64  1  0  0  0  0
 62 72  1  0  0  0  0
 63 74  1  0  0  0  0
 65 66  1  0  0  0  0
M  CHG  1  74   1
M  ISO  4  38 100  59 101  73 100  81 101
M  END
> <Batch ID>
0039

> <Smiles>
CCc1cc(CCC[100NH:0][100C:0](=O)N2CCCC(n3nc(-c4ccc(Oc5ccc(F)cc5F)cc4)c(C(N)=O)c3N)C2)cc([101CH2:1][101O:1]c2ccc3c(c2)CN(C(=O)C(NC(=O)C(C)NC)C(C)(C)C)C(C(=O)NC2CCCc4ccccc42)C3)c1

> <Shape>
0.211

> <Color>
0.058

> <Negative vol penalty>
0.000

$$$$

  -OEChem-04052317043D

 85 93  0     1  0  0  0  0  0999 V2000
  -27.9413  -34.2952   24.3390 C   0  0  0  0  0  0  0  0  0  0  0  0
  -28.1145  -32.9212   24.4711 C   0  0  0  0  0  0  0  0  0  0  0  0
  -22.8814  -10.1769   22.2561 C   0  0  0  0  0  0  0  0  0  0  0  0
  -22.9111   -9.8215   19.8666 C   0  0  0  0  0  0  0  0  0  0  0  0
  -26.6872  -34.8105   24.0143 C   0  0  0  0  0  0  0  0  0  0  0  0
  -27.0333  -32.0617   24.2798 C   0  0  0  0  0  0  0  0  0  0  0  0
  -28.2261  -28.0412   21.4412 C   0  0  0  0  0  0  0  0  0  0  0  0
  -22.5524   -8.8356   22.4516 C   0  0  0  0  0  0  0  0  0  0  0  0
  -22.5822   -8.4801   20.0620 C   0  0  0  0  0  0  0  0  0  0  0  0
  -28.9276  -27.0088   22.0623 C   0  0  0  0  0  0  0  0  0  0  0  0
  -19.7927   -6.8941   22.2545 C   0  0  0  0  0  0  0  0  0  0  0  0
  -18.7796   -6.6025   23.1678 C   0  0  0  0  0  0  0  0  0  0  0  0
  -26.8740  -25.7660   22.3023 C   0  0  0  0  0  0  0  0  0  0  0  0
  -28.6734  -21.7353   22.5828 C   0  0  0  0  0  0  0  0  0  0  0  0
  -20.3354   -5.2973   24.4767 C   0  0  0  0  0  0  0  0  0  0  0  0
  -30.2481  -21.9136   20.8094 C   0  0  0  0  0  0  0  0  0  0  0  0
  -23.0607  -10.6699   20.9636 C   0  0  0  0  0  0  0  0  0  0  0  0
  -24.6906  -12.6137   20.6939 C   0  0  0  0  0  0  0  0  0  0  0  0
  -25.5922  -33.9563   23.8094 C   0  0  0  0  0  0  0  0  0  0  0  0
  -26.8393  -27.9483   21.2554 C   0  0  0  0  0  0  0  0  0  0  0  0
  -25.7630  -32.5661   23.9534 C   0  0  0  0  0  0  0  0  0  0  0  0
  -26.1577  -26.7975   21.6762 C   0  0  0  0  0  0  0  0  0  0  0  0
  -29.8573  -22.2721   22.0894 C   0  0  0  0  0  0  0  0  0  0  0  0
  -27.9269  -20.8686   21.7922 C   0  0  0  0  0  0  0  0  0  0  0  0
  -22.4028   -7.9872   21.3545 C   0  0  0  0  0  0  0  0  0  0  0  0
  -28.2511  -25.8722   22.4956 C   0  0  0  0  0  0  0  0  0  0  0  0
  -21.0771   -6.3872   22.4522 C   0  0  0  0  0  0  0  0  0  0  0  0
  -19.0509   -5.8041   24.2790 C   0  0  0  0  0  0  0  0  0  0  0  0
  -21.3484   -5.5888   23.5633 C   0  0  0  0  0  0  0  0  0  0  0  0
  -23.4000  -12.0555   20.7610 C   0  0  0  0  0  0  0  0  0  0  0  0
  -28.4041  -20.5731   20.5254 C   0  0  0  0  0  0  0  0  0  0  0  0
  -24.4746  -13.9548   20.4908 C   0  0  0  0  0  0  0  0  0  0  0  0
  -25.9704  -11.9768   20.8050 C   0  0  0  0  0  0  0  0  0  0  0  0
  -24.3250  -29.6132   22.2608 C   0  0  0  0  0  0  0  0  0  0  0  0
  -22.7085  -27.6415   20.2553 C   0  0  0  0  0  0  0  0  0  0  0  0
  -22.5821  -24.6569   18.6053 C   0  0  0  0  0  0  0  0  0  0  0  0
  -21.7986  -18.1173   17.9107 C   0  0  0  0  0  0  0  0  0  0  0  0
  -24.2450  -34.5629   23.5065 C   0  0  0  0  0  0  0  0  0  0  0  0
  -26.1013  -29.0591   20.5597 C   0  0  0  0  0  0  0  0  0  0  0  0
  -24.6724  -26.6400   21.4822 C   0  0  0  0  0  0  0  0  0  0  0  0
  -23.2363  -33.5601   22.9521 C   0  0  0  0  0  0  0  0  0  0  0  0
  -20.2240  -16.6832   20.7638 C   0  0  0  0  0  0  0  0  0  0  0  0
  -23.2463  -32.2794   23.7806 C   0  0  0  0  0  0  0  0  0  0  0  0
  -21.0122  -15.3951   21.0078 C   0  0  0  0  0  0  0  0  0  0  0  0
  -20.0718  -16.9780   19.2732 C   0  0  0  0  0  0  0  0  0  0  0  0
  -22.1245  -15.7150   18.7585 C   0  0  0  0  0  0  0  0  0  0  0  0
  -24.6201  -31.5999   23.7293 C   0  0  1  0  0  0  0  0  0  0  0  0
  -24.6109  -29.0817   20.8848 C   0  0  1  0  0  0  0  0  0  0  0  0
  -22.3523  -15.4053   20.2480 C   0  0  2  0  0  0  0  0  0  0  0  0
  -26.6584  -20.2885   22.3153 C   0  0  0  0  0  0  0  0  0  0  0  0
  -21.1178  -23.3138   17.0725 C   0  0  0  0  0  0  0  0  0  0  0  0
  -20.8888  -26.9489   22.6047 C   0  0  0  0  0  0  0  0  0  0  0  0
  -20.0912  -24.9598   21.3103 C   0  0  0  0  0  0  0  0  0  0  0  0
  -19.7045  -27.2593   20.4240 C   0  0  0  0  0  0  0  0  0  0  0  0
  -24.6402  -24.6238   16.4787 C   0  0  0  0  0  0  0  0  0  0  0  0
  -30.6903  -23.2165   22.9216 C   0  0  0  0  0  0  0  0  0  0  0  0
  -27.6436  -19.6488   19.6315 C   0  0  0  0  0  0  0  0  0  0  0  0
  -26.4269  -20.3325   18.9919 C   0  0  0  0  0  0  0  0  0  0  0  0
  -25.6336  -19.3663   18.1096 C   0  0  0  0  0  0  0  0  0  0  0  0
  -24.4454  -20.0685   17.4459 C   0  0  0  0  0  0  0  0  0  0  0  0
  -23.6249  -19.1287   16.5686 C   0  0  0  0  0  0  0  0  0  0  0  0
  -30.2938  -24.6743   22.7158 C   0  0  0  0  0  0  0  0  0  1  0  0
  -22.0410  -26.2941   20.3889 C   0  0  1  0  0  0  0  0  0  0  0  0
  -22.2574  -24.3169   17.1619 C   0  0  2  0  0  0  0  0  0  0  0  0
  -20.7091  -26.3690   21.1875 C   0  0  0  0  0  0  0  0  0  0  0  0
  -29.5495  -21.0749   20.0118 N   0  0  0  0  0  0  0  0  0  0  0  0
  -22.4355  -12.9675   20.6128 N   0  0  0  0  0  0  0  0  0  0  0  0
  -23.1205  -14.1123   20.4506 N   0  0  0  0  0  0  0  0  0  0  0  0
  -23.9943  -27.7561   20.8024 N   0  0  0  0  0  0  0  0  0  0  0  0
  -21.3789  -16.9748   18.6117 N   0  0  0  0  0  0  0  0  0  0  0  0
  -25.3128  -15.0029   20.3446 N   0  0  0  0  0  0  0  0  0  0  0  0
  -26.0114  -10.5912   21.0124 N   0  0  0  0  0  0  0  0  0  0  0  0
  -24.7896  -30.8966   22.4759 N   0  0  0  0  0  0  0  0  0  0  0  0
  -21.8966  -25.7740   19.0335 N   0  0  0  0  0  0  0  0  0  0  0  0
  -23.0528  -18.0328   17.3185 N   0  0  0  0  0  0  0  0  0  0  0  0
  -23.4507  -23.7338   16.4859 N   0  3  0  0  0  0  0  0  0  0  0  0
  -27.0454  -12.6198   20.7392 O   0  0  0  0  0  0  0  0  0  0  0  0
  -23.7259  -28.9114   23.0671 O   0  0  0  0  0  0  0  0  0  0  0  0
  -22.1138  -28.5566   19.6803 O   0  0  0  0  0  0  0  0  0  0  0  0
  -23.3628  -23.9954   19.2860 O   0  0  0  0  0  0  0  0  0  0  0  0
  -21.1092  -19.1391   17.8237 O   0  0  0  0  0  0  0  0  0  0  0  0
  -22.0820   -6.6782   21.5449 O   0  0  0  0  0  0  0  0  0  0  0  0
  -28.9333  -24.8633   23.1027 O   0  0  0  0  0  0  0  0  0  1  0  0
  -18.0784   -5.5255   25.1568 F   0  0  0  0  0  0  0  0  0  0  0  0
  -22.5807   -5.1000   23.7592 F   0  0  0  0  0  0  0  0  0  0  0  0
  1  2  1  0  0  0  0
  1  5  2  0  0  0  0
  2  6  2  0  0  0  0
  3  8  2  0  0  0  0
  3 17  1  0  0  0  0
  4  9  1  0  0  0  0
  4 17  2  0  0  0  0
  5 19  1  0  0  0  0
  6 21  1  0  0  0  0
  7 10  2  0  0  0  0
  7 20  1  0  0  0  0
  8 25  1  0  0  0  0
  9 25  2  0  0  0  0
 10 26  1  0  0  0  0
 11 12  2  0  0  0  0
 11 27  1  0  0  0  0
 12 28  1  0  0  0  0
 13 22  1  0  0  0  0
 13 26  2  0  0  0  0
 14 23  2  0  0  0  0
 14 24  1  0  0  0  0
 15 28  2  0  0  0  0
 15 29  1  0  0  0  0
 16 23  1  0  0  0  0
 16 66  2  0  0  0  0
 17 30  1  0  0  0  0
 18 30  1  0  0  0  0
 18 32  2  0  0  0  0
 18 33  1  0  0  0  0
 19 21  2  0  0  0  0
 19 38  1  0  0  0  0
 20 22  2  0  0  0  0
 20 39  1  0  0  0  0
 21 47  1  0  0  0  0
 22 40  1  0  0  0  0
 23 56  1  0  0  0  0
 24 31  2  0  0  0  0
 24 50  1  0  0  0  0
 25 82  1  0  0  0  0
 26 83  1  0  0  0  0
 27 29  2  0  0  0  0
 27 82  1  0  0  0  0
 28 84  1  0  0  0  0
 29 85  1  0  0  0  0
 30 67  2  0  0  0  0
 31 57  1  0  0  0  0
 31 66  1  0  0  0  0
 32 68  1  0  0  0  0
 32 71  1  0  0  0  0
 33 72  1  0  0  0  0
 33 77  2  0  0  0  0
 34 48  1  0  0  0  0
 34 73  1  0  0  0  0
 34 78  2  0  0  0  0
 35 63  1  0  0  0  0
 35 69  1  0  0  0  0
 35 79  2  0  0  0  0
 36 64  1  0  0  0  0
 36 74  1  0  0  0  0
 36 80  2  0  0  0  0
 37 70  1  0  0  0  0
 37 75  1  0  0  0  0
 37 81  2  0  0  0  0
 38 41  1  0  0  0  0
 39 48  1  0  0  0  0
 40 69  1  0  0  0  0
 41 43  1  0  0  0  0
 42 44  1  0  0  0  0
 42 45  1  0  0  0  0
 43 47  1  0  0  0  0
 44 49  1  0  0  0  0
 45 70  1  0  0  0  0
 46 49  1  0  0  0  0
 46 70  1  0  0  0  0
 47 73  1  0  0  0  0
 48 69  1  0  0  0  0
 49 68  1  0  0  0  0
 51 64  1  0  0  0  0
 52 65  1  0  0  0  0
 53 65  1  0  0  0  0
 54 65  1  0  0  0  0
 55 76  1  0  0  0  0
 56 62  1  0  0  0  0
 57 58  1  0  0  0  0
 58 59  1  0  0  0  0
 59 60  1  0  0  0  0
 60 61  1  0  0  0  0
 61 75  1  0  0  0  0
 62 83  1  0  0  0  0
 63 65  1  0  0  0  0
 63 74  1  0  0  0  0
 64 76  1  0  0  0  0
 67 68  1  0  0  0  0
M  CHG  1  76   1
M  ISO  4  37 100  62 101  75 100  83 101
M  END
> <Batch ID>
0039

> <Smiles>
CNC(C)C(=O)NC(C(=O)N1Cc2cc([101O:1][101CH2:1]Cc3cnc(CCCCC[100NH:0][100C:0](=O)N4CCCC(n5nc(-c6ccc(Oc7ccc(F)cc7F)cc6)c(C(N)=O)c5N)C4)c(C)c3)ccc2CC1C(=O)NC1CCCc2ccccc21)C(C)(C)C

> <Shape>
0.251

> <Color>
0.109

> <Negative vol penalty>
0.000

$$$$

  -OEChem-04052317043D

 81 89  0     1  0  0  0  0  0999 V2000
  -21.9945  -25.0944   31.3882 C   0  0  0  0  0  0  0  0  0  0  0  0
  -22.4610  -24.4329   30.2567 C   0  0  0  0  0  0  0  0  0  0  0  0
  -23.0061   -9.8666   19.9735 C   0  0  0  0  0  0  0  0  0  0  0  0
  -23.7346   -9.9175   22.2765 C   0  0  0  0  0  0  0  0  0  0  0  0
  -21.2396  -26.2586   31.2521 C   0  0  0  0  0  0  0  0  0  0  0  0
  -22.1717  -24.9348   28.9883 C   0  0  0  0  0  0  0  0  0  0  0  0
  -26.2056  -24.9197   25.9268 C   0  0  0  0  0  0  0  0  0  0  0  0
  -22.2418   -8.7308   20.2403 C   0  0  0  0  0  0  0  0  0  0  0  0
  -22.9702   -8.7816   22.5434 C   0  0  0  0  0  0  0  0  0  0  0  0
  -26.5660  -23.7006   25.3544 C   0  0  0  0  0  0  0  0  0  0  0  0
  -23.2192   -5.4433   22.0692 C   0  0  0  0  0  0  0  0  0  0  0  0
  -23.8094   -4.4266   22.8199 C   0  0  0  0  0  0  0  0  0  0  0  0
  -25.4741  -24.3479   23.3031 C   0  0  0  0  0  0  0  0  0  0  0  0
  -22.0876   -4.6659   24.4978 C   0  0  0  0  0  0  0  0  0  0  0  0
  -27.6871  -17.9706   22.8482 C   0  0  0  0  0  0  0  0  0  0  0  0
  -23.7526  -10.4600   20.9916 C   0  0  0  0  0  0  0  0  0  0  0  0
  -24.1336  -12.9763   20.8165 C   0  0  0  0  0  0  0  0  0  0  0  0
  -20.9491  -26.7803   29.9816 C   0  0  0  0  0  0  0  0  0  0  0  0
  -25.4662  -25.8592   25.1940 C   0  0  0  0  0  0  0  0  0  0  0  0
  -21.4110  -26.1063   28.8350 C   0  0  0  0  0  0  0  0  0  0  0  0
  -25.1078  -25.5792   23.8676 C   0  0  0  0  0  0  0  0  0  0  0  0
  -22.2238   -8.1883   21.5253 C   0  0  0  0  0  0  0  0  0  0  0  0
  -26.1977  -23.4133   24.0433 C   0  0  0  0  0  0  0  0  0  0  0  0
  -22.0632   -6.0714   22.5328 C   0  0  0  0  0  0  0  0  0  0  0  0
  -23.2437   -4.0379   24.0341 C   0  0  0  0  0  0  0  0  0  0  0  0
  -21.4974   -5.6826   23.7471 C   0  0  0  0  0  0  0  0  0  0  0  0
  -24.5428  -11.6330   20.7165 C   0  0  0  0  0  0  0  0  0  0  0  0
  -28.3691  -18.7190   21.9308 C   0  0  0  0  0  0  0  0  0  0  0  0
  -25.2417  -13.7008   20.4509 C   0  0  0  0  0  0  0  0  0  0  0  0
  -27.6037  -20.0863   23.4944 C   0  0  0  0  0  0  0  0  0  0  0  0
  -22.8654  -13.5204   21.2052 C   0  0  0  0  0  0  0  0  0  0  0  0
  -22.6054  -27.2068   25.5160 C   0  0  0  0  0  0  0  0  0  0  0  0
  -23.5817  -28.9707   22.9748 C   0  0  0  0  0  0  0  0  0  0  0  0
  -25.6059  -29.2388   20.2403 C   0  0  0  0  0  0  0  0  0  0  0  0
  -30.7369  -14.6440   20.6918 C   0  0  0  0  0  0  0  0  0  0  0  0
  -20.0894  -28.0156   29.8833 C   0  0  0  0  0  0  0  0  0  0  0  0
  -25.1083  -27.1806   25.8170 C   0  0  0  0  0  0  0  0  0  0  0  0
  -24.3313  -26.5624   23.0316 C   0  0  0  0  0  0  0  0  0  0  0  0
  -20.1440  -28.6883   28.5141 C   0  0  0  0  0  0  0  0  0  0  0  0
  -29.5966  -12.2199   18.3467 C   0  0  0  0  0  0  0  0  0  0  0  0
  -19.9942  -27.6527   27.4041 C   0  0  0  0  0  0  0  0  0  0  0  0
  -28.1492  -11.9576   18.7662 C   0  0  0  0  0  0  0  0  0  0  0  0
  -30.5005  -12.4560   19.5547 C   0  0  0  0  0  0  0  0  0  0  0  0
  -28.5911  -13.2477   20.8967 C   0  0  0  0  0  0  0  0  0  0  0  0
  -21.1391  -26.6332   27.4426 C   0  0  1  0  0  0  0  0  0  0  0  0
  -23.9120  -27.8516   25.1492 C   0  0  1  0  0  0  0  0  0  0  0  0
  -27.6306  -13.0592   19.7100 C   0  0  2  0  0  0  0  0  0  0  0  0
  -26.1509  -30.7800   18.3363 C   0  0  0  0  0  0  0  0  0  0  0  0
  -21.0078  -28.1354   21.5652 C   0  0  0  0  0  0  0  0  0  0  0  0
  -22.0293  -28.8851   19.4059 C   0  0  0  0  0  0  0  0  0  0  0  0
  -21.6449  -30.5318   21.2398 C   0  0  0  0  0  0  0  0  0  0  0  0
  -28.8911  -21.1643   21.6795 C   0  0  0  0  0  0  0  0  0  0  0  0
  -28.4158  -29.5256   21.1243 C   0  0  0  0  0  0  0  0  0  0  0  0
  -29.0695  -18.3159   20.7052 C   0  0  0  0  0  0  0  0  0  0  0  0
  -27.2919  -21.3167   24.2945 C   0  0  0  0  0  0  0  0  0  1  0  0
  -30.5678  -17.9572   20.8872 C   0  0  0  0  0  0  0  0  0  0  0  0
  -30.8179  -16.8224   21.8781 C   0  0  0  0  0  0  0  0  0  0  0  0
  -23.4944  -28.8242   21.4749 C   0  0  1  0  0  0  0  0  0  0  0  0
  -26.5017  -30.3650   19.7567 C   0  0  2  0  0  0  0  0  0  0  0  0
  -22.0571  -29.0746   20.9376 C   0  0  0  0  0  0  0  0  0  0  0  0
  -25.8117  -11.5087   20.3184 N   0  0  0  0  0  0  0  0  0  0  0  0
  -28.3010  -20.0240   22.3553 N   0  0  0  0  0  0  0  0  0  0  0  0
  -26.2094  -12.7832   20.1649 N   0  0  0  0  0  0  0  0  0  0  0  0
  -27.2247  -18.8423   23.8045 N   0  3  0  0  0  0  0  0  0  0  0  0
  -23.9995  -27.8379   23.6876 N   0  0  0  0  0  0  0  0  0  0  0  0
  -29.9532  -13.5134   20.4082 N   0  0  0  0  0  0  0  0  0  0  0  0
  -25.4729  -15.0270   20.3492 N   0  0  0  0  0  0  0  0  0  0  0  0
  -21.8355  -12.6345   21.5497 N   0  0  0  0  0  0  0  0  0  0  0  0
  -22.3416  -27.2019   26.8724 N   0  0  0  0  0  0  0  0  0  0  0  0
  -24.5046  -29.7174   20.9180 N   0  0  0  0  0  0  0  0  0  0  0  0
  -30.1403  -15.6014   21.5031 N   0  0  0  0  0  0  0  0  0  0  0  0
  -27.9295  -29.9387   19.7827 N   0  3  0  0  0  0  0  0  0  0  0  0
  -22.6467  -14.7554   21.2300 O   0  0  0  0  0  0  0  0  0  0  0  0
  -21.8889  -26.7489   24.6336 O   0  0  0  0  0  0  0  0  0  0  0  0
  -23.2967  -30.0527   23.4943 O   0  0  0  0  0  0  0  0  0  0  0  0
  -25.8562  -28.0533   20.0341 O   0  0  0  0  0  0  0  0  0  0  0  0
  -31.8815  -14.7920   20.2502 O   0  0  0  0  0  0  0  0  0  0  0  0
  -21.4779   -7.0800   21.7860 O   0  0  0  0  0  0  0  0  0  0  0  0
  -26.5476  -22.2238   23.4824 O   0  0  0  0  0  0  0  0  0  1  0  0
  -23.8097   -3.0605   24.7541 F   0  0  0  0  0  0  0  0  0  0  0  0
  -20.3862   -6.2814   24.1971 F   0  0  0  0  0  0  0  0  0  0  0  0
  1  2  1  0  0  0  0
  1  5  2  0  0  0  0
  2  6  2  0  0  0  0
  3  8  2  0  0  0  0
  3 16  1  0  0  0  0
  4  9  1  0  0  0  0
  4 16  2  0  0  0  0
  5 18  1  0  0  0  0
  6 20  1  0  0  0  0
  7 10  2  0  0  0  0
  7 19  1  0  0  0  0
  8 22  1  0  0  0  0
  9 22  2  0  0  0  0
 10 23  1  0  0  0  0
 11 12  2  0  0  0  0
 11 24  1  0  0  0  0
 12 25  1  0  0  0  0
 13 21  1  0  0  0  0
 13 23  2  0  0  0  0
 14 25  2  0  0  0  0
 14 26  1  0  0  0  0
 15 28  2  0  0  0  0
 15 64  1  0  0  0  0
 16 27  1  0  0  0  0
 17 27  1  0  0  0  0
 17 29  2  0  0  0  0
 17 31  1  0  0  0  0
 18 20  2  0  0  0  0
 18 36  1  0  0  0  0
 19 21  2  0  0  0  0
 19 37  1  0  0  0  0
 20 45  1  0  0  0  0
 21 38  1  0  0  0  0
 22 78  1  0  0  0  0
 23 79  1  0  0  0  0
 24 26  2  0  0  0  0
 24 78  1  0  0  0  0
 25 80  1  0  0  0  0
 26 81  1  0  0  0  0
 27 61  2  0  0  0  0
 28 54  1  0  0  0  0
 28 62  1  0  0  0  0
 29 63  1  0  0  0  0
 29 67  1  0  0  0  0
 30 55  1  0  0  0  0
 30 62  1  0  0  0  0
 30 64  2  0  0  0  0
 31 68  1  0  0  0  0
 31 73  2  0  0  0  0
 32 46  1  0  0  0  0
 32 69  1  0  0  0  0
 32 74  2  0  0  0  0
 33 58  1  0  0  0  0
 33 65  1  0  0  0  0
 33 75  2  0  0  0  0
 34 59  1  0  0  0  0
 34 70  1  0  0  0  0
 34 76  2  0  0  0  0
 35 66  1  0  0  0  0
 35 71  1  0  0  0  0
 35 77  2  0  0  0  0
 36 39  1  0  0  0  0
 37 46  1  0  0  0  0
 38 65  1  0  0  0  0
 39 41  1  0  0  0  0
 40 42  1  0  0  0  0
 40 43  1  0  0  0  0
 41 45  1  0  0  0  0
 42 47  1  0  0  0  0
 43 66  1  0  0  0  0
 44 47  1  0  0  0  0
 44 66  1  0  0  0  0
 45 69  1  0  0  0  0
 46 65  1  0  0  0  0
 47 63  1  0  0  0  0
 48 59  1  0  0  0  0
 49 60  1  0  0  0  0
 50 60  1  0  0  0  0
 51 60  1  0  0  0  0
 52 62  1  0  0  0  0
 53 72  1  0  0  0  0
 54 56  1  0  0  0  0
 55 79  1  0  0  0  0
 56 57  1  0  0  0  0
 57 71  1  0  0  0  0
 58 60  1  0  0  0  0
 58 70  1  0  0  0  0
 59 72  1  0  0  0  0
 61 63  1  0  0  0  0
M  CHG  2  64   1  72   1
M  ISO  4  35 100  55 101  71 100  79 101
M  END
> <Batch ID>
0039

> <Smiles>
CNC(C)C(=O)NC(C(=O)N1Cc2cc([101O:1][101CH2:1]c3ncc(CCC[100NH:0][100C:0](=O)N4CCCC(n5nc(-c6ccc(Oc7ccc(F)cc7F)cc6)c(C(N)=O)c5N)C4)n3C)ccc2CC1C(=O)NC1CCCc2ccccc21)C(C)(C)C

> <Shape>
0.263

> <Color>
0.203

> <Negative vol penalty>
0.000

$$$$

  -OEChem-04052317043D

 85 94  0     1  0  0  0  0  0999 V2000
  -16.8660  -29.5601   24.5845 C   0  0  0  0  0  0  0  0  0  0  0  0
  -17.8001  -28.5385   24.7225 C   0  0  0  0  0  0  0  0  0  0  0  0
  -23.3141  -10.1260   21.9934 C   0  0  0  0  0  0  0  0  0  0  0  0
  -24.8453  -10.7598   23.7515 C   0  0  0  0  0  0  0  0  0  0  0  0
  -16.9591  -30.4483   23.5138 C   0  0  0  0  0  0  0  0  0  0  0  0
  -18.8273  -28.4037   23.7892 C   0  0  0  0  0  0  0  0  0  0  0  0
  -24.5562  -26.5258   24.8653 C   0  0  0  0  0  0  0  0  0  0  0  0
  -22.7914   -9.1233   22.8101 C   0  0  0  0  0  0  0  0  0  0  0  0
  -24.3225   -9.7571   24.5682 C   0  0  0  0  0  0  0  0  0  0  0  0
  -25.1837  -25.2908   24.7078 C   0  0  0  0  0  0  0  0  0  0  0  0
  -20.6246   -8.8936   25.3957 C   0  0  0  0  0  0  0  0  0  0  0  0
  -19.2372   -8.7621   25.4534 C   0  0  0  0  0  0  0  0  0  0  0  0
  -26.0122  -25.9931   22.5539 C   0  0  0  0  0  0  0  0  0  0  0  0
  -19.4169   -6.5010   24.6214 C   0  0  0  0  0  0  0  0  0  0  0  0
  -30.5569  -17.8723   22.7301 C   0  0  0  0  0  0  0  0  0  0  0  0
  -24.3411  -10.9442   22.4641 C   0  0  0  0  0  0  0  0  0  0  0  0
  -24.1879  -13.0696   21.0615 C   0  0  0  0  0  0  0  0  0  0  0  0
  -17.9936  -30.3302   22.5722 C   0  0  0  0  0  0  0  0  0  0  0  0
  -24.6431  -27.5014   23.8618 C   0  0  0  0  0  0  0  0  0  0  0  0
  -18.9335  -29.2903   22.7041 C   0  0  0  0  0  0  0  0  0  0  0  0
  -25.3871  -27.2407   22.7022 C   0  0  0  0  0  0  0  0  0  0  0  0
  -23.2956   -8.9389   24.0975 C   0  0  0  0  0  0  0  0  0  0  0  0
  -25.9094  -25.0232   23.5507 C   0  0  0  0  0  0  0  0  0  0  0  0
  -21.4083   -7.8289   24.9507 C   0  0  0  0  0  0  0  0  0  0  0  0
  -18.6334   -7.5658   25.0662 C   0  0  0  0  0  0  0  0  0  0  0  0
  -20.8044   -6.6326   24.5636 C   0  0  0  0  0  0  0  0  0  0  0  0
  -24.8819  -11.9798   21.6207 C   0  0  0  0  0  0  0  0  0  0  0  0
  -30.8987  -19.0450   22.1019 C   0  0  0  0  0  0  0  0  0  0  0  0
  -31.5742  -16.9693   22.3673 C   0  0  0  0  0  0  0  0  0  0  0  0
  -25.1415  -13.7547   20.3489 C   0  0  0  0  0  0  0  0  0  0  0  0
  -22.8050  -13.4303   21.1761 C   0  0  0  0  0  0  0  0  0  0  0  0
  -22.5467  -28.9889   21.9920 C   0  0  0  0  0  0  0  0  0  0  0  0
  -25.1504  -30.7044   21.0976 C   0  0  0  0  0  0  0  0  0  0  0  0
  -28.5460  -30.8741   20.8002 C   0  0  0  0  0  0  0  0  0  0  0  0
  -31.0978  -14.1358   20.8268 C   0  0  0  0  0  0  0  0  0  0  0  0
  -18.0256  -31.2852   21.4053 C   0  0  0  0  0  0  0  0  0  0  0  0
  -23.9828  -28.8384   24.0587 C   0  0  0  0  0  0  0  0  0  0  0  0
  -25.5279  -28.2618   21.6040 C   0  0  0  0  0  0  0  0  0  0  0  0
  -19.3625  -31.3021   20.6686 C   0  0  0  0  0  0  0  0  0  0  0  0
  -29.2416  -13.0860   17.9756 C   0  0  0  0  0  0  0  0  0  0  0  0
  -19.8474  -29.8792   20.4098 C   0  0  0  0  0  0  0  0  0  0  0  0
  -29.5040  -20.7001   23.4143 C   0  0  0  0  0  0  0  0  0  0  0  0
  -29.2528  -20.5443   20.8980 C   0  0  0  0  0  0  0  0  0  0  0  0
  -28.8343  -22.0738   23.3929 C   0  0  0  0  0  0  0  0  0  0  0  0
  -28.5837  -21.9184   20.8829 C   0  0  0  0  0  0  0  0  0  0  0  0
  -27.8512  -12.7818   18.5360 C   0  0  0  0  0  0  0  0  0  0  0  0
  -30.3438  -12.6954   18.9577 C   0  0  0  0  0  0  0  0  0  0  0  0
  -28.8116  -12.9662   20.8689 C   0  0  0  0  0  0  0  0  0  0  0  0
  -20.0767  -29.1266   21.7260 C   0  0  1  0  0  0  0  0  0  0  0  0
  -30.2193  -20.4022   22.0858 C   0  0  0  0  0  0  0  0  0  0  0  0
  -23.7091  -29.5685   22.7474 C   0  0  1  0  0  0  0  0  0  0  0  0
  -27.8700  -22.2163   22.2080 C   0  0  0  0  0  0  0  0  0  0  0  0
  -27.6650  -13.3945   19.9372 C   0  0  2  0  0  0  0  0  0  0  0  0
  -30.3801  -32.3879   19.9991 C   0  0  0  0  0  0  0  0  0  0  0  0
  -24.4676  -29.9989   18.2087 C   0  0  0  0  0  0  0  0  0  0  0  0
  -26.7832  -30.6989   17.5636 C   0  0  0  0  0  0  0  0  0  0  0  0
  -25.2111  -32.3611   18.5579 C   0  0  0  0  0  0  0  0  0  0  0  0
  -32.8107  -19.7041   20.6105 C   0  0  0  0  0  0  0  0  0  0  0  0
  -29.7606  -31.0204   23.4951 C   0  0  0  0  0  0  0  0  0  0  0  0
  -31.7060  -15.5582   22.7674 C   0  0  0  0  0  0  0  0  0  0  0  0
  -27.2491  -23.6118   22.1836 C   0  0  0  0  0  0  0  0  0  1  0  0
  -26.2083  -30.5636   20.0299 C   0  0  1  0  0  0  0  0  0  0  0  0
  -29.5385  -31.9548   21.1894 C   0  0  2  0  0  0  0  0  0  0  0  0
  -25.6635  -30.8855   18.6097 C   0  0  0  0  0  0  0  0  0  0  0  0
  -26.1763  -11.9691   21.2916 N   0  0  0  0  0  0  0  0  0  0  0  0
  -32.4932  -17.5209   21.5704 N   0  0  0  0  0  0  0  0  0  0  0  0
  -32.0547  -18.7831   21.4271 N   0  0  0  0  0  0  0  0  0  0  0  0
  -26.3033  -13.0605   20.5177 N   0  0  0  0  0  0  0  0  0  0  0  0
  -24.8587  -29.5517   21.8405 N   0  0  0  0  0  0  0  0  0  0  0  0
  -30.1089  -13.3104   20.2664 N   0  0  0  0  0  0  0  0  0  0  0  0
  -25.0911  -14.8771   19.6006 N   0  0  0  0  0  0  0  0  0  0  0  0
  -21.9638  -12.6164   21.9470 N   0  0  0  0  0  0  0  0  0  0  0  0
  -21.3249  -29.5374   22.3324 N   0  0  0  0  0  0  0  0  0  0  0  0
  -27.3240  -31.4062   20.4470 N   0  0  0  0  0  0  0  0  0  0  0  0
  -30.7922  -14.6838   22.0666 N   0  0  0  0  0  0  0  0  0  0  0  0
  -30.4532  -31.4582   22.2560 N   0  3  0  0  0  0  0  0  0  0  0  0
  -22.3259  -14.4353   20.5981 O   0  0  0  0  0  0  0  0  0  0  0  0
  -22.7439  -28.1103   21.1608 O   0  0  0  0  0  0  0  0  0  0  0  0
  -24.6082  -31.7987   21.2710 O   0  0  0  0  0  0  0  0  0  0  0  0
  -28.8278  -29.6778   20.8053 O   0  0  0  0  0  0  0  0  0  0  0  0
  -32.1711  -14.3714   20.2616 O   0  0  0  0  0  0  0  0  0  0  0  0
  -22.7856   -7.9607   24.8948 O   0  0  0  0  0  0  0  0  0  0  0  0
  -26.5222  -23.8183   23.3942 O   0  0  0  0  0  0  0  0  0  1  0  0
  -17.3011   -7.4392   25.1232 F   0  0  0  0  0  0  0  0  0  0  0  0
  -21.5520   -5.6057   24.1365 F   0  0  0  0  0  0  0  0  0  0  0  0
  1  2  1  0  0  0  0
  1  5  2  0  0  0  0
  2  6  2  0  0  0  0
  3  8  2  0  0  0  0
  3 16  1  0  0  0  0
  4  9  1  0  0  0  0
  4 16  2  0  0  0  0
  5 18  1  0  0  0  0
  6 20  1  0  0  0  0
  7 10  2  0  0  0  0
  7 19  1  0  0  0  0
  8 22  1  0  0  0  0
  9 22  2  0  0  0  0
 10 23  1  0  0  0  0
 11 12  2  0  0  0  0
 11 24  1  0  0  0  0
 12 25  1  0  0  0  0
 13 21  1  0  0  0  0
 13 23  2  0  0  0  0
 14 25  2  0  0  0  0
 14 26  1  0  0  0  0
 15 28  2  0  0  0  0
 15 29  1  0  0  0  0
 16 27  1  0  0  0  0
 17 27  1  0  0  0  0
 17 30  2  0  0  0  0
 17 31  1  0  0  0  0
 18 20  2  0  0  0  0
 18 36  1  0  0  0  0
 19 21  2  0  0  0  0
 19 37  1  0  0  0  0
 20 49  1  0  0  0  0
 21 38  1  0  0  0  0
 22 82  1  0  0  0  0
 23 83  1  0  0  0  0
 24 26  2  0  0  0  0
 24 82  1  0  0  0  0
 25 84  1  0  0  0  0
 26 85  1  0  0  0  0
 27 65  2  0  0  0  0
 28 50  1  0  0  0  0
 28 67  1  0  0  0  0
 29 60  1  0  0  0  0
 29 66  2  0  0  0  0
 30 68  1  0  0  0  0
 30 71  1  0  0  0  0
 31 72  1  0  0  0  0
 31 77  2  0  0  0  0
 32 51  1  0  0  0  0
 32 73  1  0  0  0  0
 32 78  2  0  0  0  0
 33 62  1  0  0  0  0
 33 69  1  0  0  0  0
 33 79  2  0  0  0  0
 34 63  1  0  0  0  0
 34 74  1  0  0  0  0
 34 80  2  0  0  0  0
 35 70  1  0  0  0  0
 35 75  1  0  0  0  0
 35 81  2  0  0  0  0
 36 39  1  0  0  0  0
 37 51  1  0  0  0  0
 38 69  1  0  0  0  0
 39 41  1  0  0  0  0
 40 46  1  0  0  0  0
 40 47  1  0  0  0  0
 41 49  1  0  0  0  0
 42 44  1  0  0  0  0
 42 50  1  0  0  0  0
 43 45  1  0  0  0  0
 43 50  1  0  0  0  0
 44 52  1  0  0  0  0
 45 52  1  0  0  0  0
 46 53  1  0  0  0  0
 47 70  1  0  0  0  0
 48 53  1  0  0  0  0
 48 70  1  0  0  0  0
 49 73  1  0  0  0  0
 51 69  1  0  0  0  0
 52 61  1  0  0  0  0
 53 68  1  0  0  0  0
 54 63  1  0  0  0  0
 55 64  1  0  0  0  0
 56 64  1  0  0  0  0
 57 64  1  0  0  0  0
 58 67  1  0  0  0  0
 59 76  1  0  0  0  0
 60 75  1  0  0  0  0
 61 83  1  0  0  0  0
 62 64  1  0  0  0  0
 62 74  1  0  0  0  0
 63 76  1  0  0  0  0
 65 68  1  0  0  0  0
 66 67  1  0  0  0  0
M  CHG  1  76   1
M  ISO  4  35 100  61 101  75 100  83 101
M  END
> <Batch ID>
0039

> <Smiles>
CNC(C)C(=O)NC(C(=O)N1Cc2cc([101O:1][101CH2:1]C3CCC(c4cc(C[100NH:0][100C:0](=O)N5CCCC(n6nc(-c7ccc(Oc8ccc(F)cc8F)cc7)c(C(N)=O)c6N)C5)nn4C)CC3)ccc2CC1C(=O)NC1CCCc2ccccc21)C(C)(C)C

> <Shape>
0.252

> <Color>
0.161

> <Negative vol penalty>
0.000

$$$$

  -OEChem-04052317043D

 84 92  0     1  0  0  0  0  0999 V2000
  -29.2465  -32.7744   21.2863 C   0  0  0  0  0  0  0  0  0  0  0  0
  -29.0256  -31.4194   21.5110 C   0  0  0  0  0  0  0  0  0  0  0  0
  -22.9724   -9.9898   20.0667 C   0  0  0  0  0  0  0  0  0  0  0  0
  -24.1877   -9.3194   22.0442 C   0  0  0  0  0  0  0  0  0  0  0  0
  -28.2387  -33.6985   21.5589 C   0  0  0  0  0  0  0  0  0  0  0  0
  -27.7970  -30.9877   22.0096 C   0  0  0  0  0  0  0  0  0  0  0  0
  -26.0307  -26.9182   19.5674 C   0  0  0  0  0  0  0  0  0  0  0  0
  -28.4158  -19.5837   20.4718 C   0  0  0  0  0  0  0  0  0  0  0  0
  -28.0346  -20.8641   20.0709 C   0  0  0  0  0  0  0  0  0  0  0  0
  -22.2513   -8.7965   20.1053 C   0  0  0  0  0  0  0  0  0  0  0  0
  -23.4665   -8.1260   22.0829 C   0  0  0  0  0  0  0  0  0  0  0  0
  -26.5901  -25.6847   19.8980 C   0  0  0  0  0  0  0  0  0  0  0  0
  -20.4027   -7.1002   23.0735 C   0  0  0  0  0  0  0  0  0  0  0  0
  -19.9020   -6.6871   24.3081 C   0  0  0  0  0  0  0  0  0  0  0  0
  -24.6896  -25.2068   21.3048 C   0  0  0  0  0  0  0  0  0  0  0  0
  -29.0064  -20.4422   22.6516 C   0  0  0  0  0  0  0  0  0  0  0  0
  -21.1914   -4.6501   24.1494 C   0  0  0  0  0  0  0  0  0  0  0  0
  -23.9407  -10.2512   21.0361 C   0  0  0  0  0  0  0  0  0  0  0  0
  -24.3494  -12.7014   21.6167 C   0  0  0  0  0  0  0  0  0  0  0  0
  -26.9938  -33.2770   22.0520 C   0  0  0  0  0  0  0  0  0  0  0  0
  -24.7997  -27.3106   20.1125 C   0  0  0  0  0  0  0  0  0  0  0  0
  -26.7720  -31.9072   22.2904 C   0  0  0  0  0  0  0  0  0  0  0  0
  -24.1156  -26.4447   20.9775 C   0  0  0  0  0  0  0  0  0  0  0  0
  -28.9017  -19.3727   21.7623 C   0  0  0  0  0  0  0  0  0  0  0  0
  -28.1393  -21.9336   20.9602 C   0  0  0  0  0  0  0  0  0  0  0  0
  -28.6252  -21.7226   22.2506 C   0  0  0  0  0  0  0  0  0  0  0  0
  -22.4983   -7.8646   21.1134 C   0  0  0  0  0  0  0  0  0  0  0  0
  -25.9209  -24.8300   20.7691 C   0  0  0  0  0  0  0  0  0  0  0  0
  -21.2977   -6.2883   22.3768 C   0  0  0  0  0  0  0  0  0  0  0  0
  -20.2963   -5.4621   24.8461 C   0  0  0  0  0  0  0  0  0  0  0  0
  -21.6920   -5.0632   22.9148 C   0  0  0  0  0  0  0  0  0  0  0  0
  -24.6865  -11.4834   20.9964 C   0  0  0  0  0  0  0  0  0  0  0  0
  -25.3720  -13.5536   21.2782 C   0  0  0  0  0  0  0  0  0  0  0  0
  -23.2136  -13.0328   22.4265 C   0  0  0  0  0  0  0  0  0  0  0  0
  -23.8318  -29.6903   21.9843 C   0  0  0  0  0  0  0  0  0  0  0  0
  -20.8927  -28.4687   21.3582 C   0  0  0  0  0  0  0  0  0  0  0  0
  -19.0108  -25.7739   20.4400 C   0  0  0  0  0  0  0  0  0  0  0  0
  -30.8128  -14.6078   20.6211 C   0  0  0  0  0  0  0  0  0  0  0  0
  -25.9514  -34.3176   22.3763 C   0  0  0  0  0  0  0  0  0  0  0  0
  -24.1970  -28.6331   19.7249 C   0  0  0  0  0  0  0  0  0  0  0  0
  -22.7817  -26.8102   21.5738 C   0  0  0  0  0  0  0  0  0  0  0  0
  -24.5484  -33.7412   22.5490 C   0  0  0  0  0  0  0  0  0  0  0  0
  -29.1156  -13.0325   17.9166 C   0  0  0  0  0  0  0  0  0  0  0  0
  -24.5862  -32.5015   23.4370 C   0  0  0  0  0  0  0  0  0  0  0  0
  -27.7876  -12.5844   18.5294 C   0  0  0  0  0  0  0  0  0  0  0  0
  -30.2682  -12.9017   18.9097 C   0  0  0  0  0  0  0  0  0  0  0  0
  -28.7227  -13.1279   20.8161 C   0  0  0  0  0  0  0  0  0  0  0  0
  -25.4441  -31.3975   22.8070 C   0  0  1  0  0  0  0  0  0  0  0  0
  -23.1834  -29.1487   20.7417 C   0  0  1  0  0  0  0  0  0  0  0  0
  -27.5210  -13.2943   19.8704 C   0  0  2  0  0  0  0  0  0  0  0  0
  -27.4916  -23.0142   24.0739 C   0  0  0  0  0  0  0  0  0  0  0  0
  -16.6329  -25.0721   20.0519 C   0  0  0  0  0  0  0  0  0  0  0  0
  -20.4401  -28.3437   24.3731 C   0  0  0  0  0  0  0  0  0  0  0  0
  -18.5162  -26.7984   23.9499 C   0  0  0  0  0  0  0  0  0  0  0  0
  -18.4650  -29.1256   23.0532 C   0  0  0  0  0  0  0  0  0  0  0  0
  -19.5430  -25.1272   17.6015 C   0  0  0  0  0  0  0  0  0  0  0  0
  -29.3097  -18.0037   22.1906 C   0  0  0  0  0  0  0  0  0  0  0  0
  -27.7242  -23.3020   20.5058 C   0  0  0  0  0  0  0  0  0  1  0  0
  -30.7896  -17.6657   21.9223 C   0  0  0  0  0  0  0  0  0  0  0  0
  -31.2162  -16.2821   22.4081 C   0  0  0  0  0  0  0  0  0  0  0  0
  -28.7465  -22.8524   23.2199 C   0  0  1  0  0  0  0  0  0  0  0  0
  -20.0102  -27.4248   21.9989 C   0  0  1  0  0  0  0  0  0  0  0  0
  -17.9000  -25.6228   19.4164 C   0  0  2  0  0  0  0  0  0  0  0  0
  -19.3839  -27.9168   23.3342 C   0  0  0  0  0  0  0  0  0  0  0  0
  -25.8334  -11.5517   20.3153 N   0  0  0  0  0  0  0  0  0  0  0  0
  -26.2259  -12.8229   20.5055 N   0  0  0  0  0  0  0  0  0  0  0  0
  -22.2367  -28.1167   21.1693 N   0  0  0  0  0  0  0  0  0  0  0  0
  -29.9526  -13.5980   20.1593 N   0  0  0  0  0  0  0  0  0  0  0  0
  -25.6150  -14.8493   21.5690 N   0  0  0  0  0  0  0  0  0  0  0  0
  -22.2579  -12.0385   22.6758 N   0  0  0  0  0  0  0  0  0  0  0  0
  -24.7128  -30.7293   21.7520 N   0  0  0  0  0  0  0  0  0  0  0  0
  -19.0328  -27.0396   20.9866 N   0  0  0  0  0  0  0  0  0  0  0  0
  -30.4367  -15.2213   21.8098 N   0  0  0  0  0  0  0  0  0  0  0  0
  -18.3212  -24.6958   18.3281 N   0  3  0  0  0  0  0  0  0  0  0  0
  -23.0427  -14.1814   22.9010 O   0  0  0  0  0  0  0  0  0  0  0  0
  -23.5523  -29.2028   23.0733 O   0  0  0  0  0  0  0  0  0  0  0  0
  -20.4059  -29.5538   21.0308 O   0  0  0  0  0  0  0  0  0  0  0  0
  -19.7795  -24.8595   20.7288 O   0  0  0  0  0  0  0  0  0  0  0  0
  -31.8370  -14.9419   20.0159 O   0  0  0  0  0  0  0  0  0  0  0  0
  -21.7945   -6.7002   21.1516 O   0  0  0  0  0  0  0  0  0  0  0  0
  -26.4650  -23.6257   21.0940 O   0  0  0  0  0  0  0  0  0  1  0  0
  -19.8166   -5.0662   26.0324 F   0  0  0  0  0  0  0  0  0  0  0  0
  -22.5525   -4.2794   22.2507 F   0  0  0  0  0  0  0  0  0  0  0  0
  -29.8023  -22.7097   24.0840 F   0  0  0  0  0  0  0  0  0  0  0  0
  1  2  1  0  0  0  0
  1  5  2  0  0  0  0
  2  6  2  0  0  0  0
  3 10  2  0  0  0  0
  3 18  1  0  0  0  0
  4 11  1  0  0  0  0
  4 18  2  0  0  0  0
  5 20  1  0  0  0  0
  6 22  1  0  0  0  0
  7 12  2  0  0  0  0
  7 21  1  0  0  0  0
  8  9  2  0  0  0  0
  8 24  1  0  0  0  0
  9 25  1  0  0  0  0
 10 27  1  0  0  0  0
 11 27  2  0  0  0  0
 12 28  1  0  0  0  0
 13 14  2  0  0  0  0
 13 29  1  0  0  0  0
 14 30  1  0  0  0  0
 15 23  1  0  0  0  0
 15 28  2  0  0  0  0
 16 24  2  0  0  0  0
 16 26  1  0  0  0  0
 17 30  2  0  0  0  0
 17 31  1  0  0  0  0
 18 32  1  0  0  0  0
 19 32  1  0  0  0  0
 19 33  2  0  0  0  0
 19 34  1  0  0  0  0
 20 22  2  0  0  0  0
 20 39  1  0  0  0  0
 21 23  2  0  0  0  0
 21 40  1  0  0  0  0
 22 48  1  0  0  0  0
 23 41  1  0  0  0  0
 24 57  1  0  0  0  0
 25 26  2  0  0  0  0
 25 58  1  0  0  0  0
 26 61  1  0  0  0  0
 27 80  1  0  0  0  0
 28 81  1  0  0  0  0
 29 31  2  0  0  0  0
 29 80  1  0  0  0  0
 30 82  1  0  0  0  0
 31 83  1  0  0  0  0
 32 65  2  0  0  0  0
 33 66  1  0  0  0  0
 33 69  1  0  0  0  0
 34 70  1  0  0  0  0
 34 75  2  0  0  0  0
 35 49  1  0  0  0  0
 35 71  1  0  0  0  0
 35 76  2  0  0  0  0
 36 62  1  0  0  0  0
 36 67  1  0  0  0  0
 36 77  2  0  0  0  0
 37 63  1  0  0  0  0
 37 72  1  0  0  0  0
 37 78  2  0  0  0  0
 38 68  1  0  0  0  0
 38 73  1  0  0  0  0
 38 79  2  0  0  0  0
 39 42  1  0  0  0  0
 40 49  1  0  0  0  0
 41 67  1  0  0  0  0
 42 44  1  0  0  0  0
 43 45  1  0  0  0  0
 43 46  1  0  0  0  0
 44 48  1  0  0  0  0
 45 50  1  0  0  0  0
 46 68  1  0  0  0  0
 47 50  1  0  0  0  0
 47 68  1  0  0  0  0
 48 71  1  0  0  0  0
 49 67  1  0  0  0  0
 50 66  1  0  0  0  0
 51 61  1  0  0  0  0
 52 63  1  0  0  0  0
 53 64  1  0  0  0  0
 54 64  1  0  0  0  0
 55 64  1  0  0  0  0
 56 74  1  0  0  0  0
 57 59  1  0  0  0  0
 58 81  1  0  0  0  0
 59 60  1  0  0  0  0
 60 73  1  0  0  0  0
 61 84  1  0  0  0  0
 62 64  1  0  0  0  0
 62 72  1  0  0  0  0
 63 74  1  0  0  0  0
 65 66  1  0  0  0  0
M  CHG  1  74   1
M  ISO  4  38 100  58 101  73 100  81 101
M  END
> <Batch ID>
0039

> <Smiles>
CNC(C)C(=O)NC(C(=O)N1Cc2cc([101O:1][101CH2:1]c3ccc(CCC[100NH:0][100C:0](=O)N4CCCC(n5nc(-c6ccc(Oc7ccc(F)cc7F)cc6)c(C(N)=O)c5N)C4)cc3C(C)F)ccc2CC1C(=O)NC1CCCc2ccccc21)C(C)(C)C

> <Shape>
0.364

> <Color>
0.156

> <Negative vol penalty>
0.000

$$$$

  -OEChem-04052317043D

 85 93  0     1  0  0  0  0  0999 V2000
  -30.2869  -23.5924   13.9928 C   0  0  0  0  0  0  0  0  0  0  0  0
  -29.2371  -23.2357   14.8331 C   0  0  0  0  0  0  0  0  0  0  0  0
  -23.2686   -9.7819   19.9119 C   0  0  0  0  0  0  0  0  0  0  0  0
  -23.9189   -9.8995   22.2358 C   0  0  0  0  0  0  0  0  0  0  0  0
  -31.2954  -24.4350   14.4582 C   0  0  0  0  0  0  0  0  0  0  0  0
  -29.1958  -23.7207   16.1398 C   0  0  0  0  0  0  0  0  0  0  0  0
  -24.5908  -25.3643   17.4576 C   0  0  0  0  0  0  0  0  0  0  0  0
  -26.0822  -19.6107   18.5549 C   0  0  0  0  0  0  0  0  0  0  0  0
  -22.6055   -8.5798   20.1583 C   0  0  0  0  0  0  0  0  0  0  0  0
  -23.2557   -8.6973   22.4822 C   0  0  0  0  0  0  0  0  0  0  0  0
  -23.6423  -24.3993   17.7935 C   0  0  0  0  0  0  0  0  0  0  0  0
  -20.0746   -7.6623   22.9614 C   0  0  0  0  0  0  0  0  0  0  0  0
  -19.2697   -7.5891   24.0982 C   0  0  0  0  0  0  0  0  0  0  0  0
  -24.7171  -19.8286   18.4063 C   0  0  0  0  0  0  0  0  0  0  0  0
  -24.0555  -24.8162   20.1333 C   0  0  0  0  0  0  0  0  0  0  0  0
  -20.6219   -5.7719   24.9386 C   0  0  0  0  0  0  0  0  0  0  0  0
  -23.9254  -10.4417   20.9507 C   0  0  0  0  0  0  0  0  0  0  0  0
  -24.0760  -12.9826   20.7809 C   0  0  0  0  0  0  0  0  0  0  0  0
  -31.2615  -24.9383   15.7683 C   0  0  0  0  0  0  0  0  0  0  0  0
  -25.2878  -26.0560   18.4587 C   0  0  0  0  0  0  0  0  0  0  0  0
  -30.2056  -24.5697   16.6237 C   0  0  0  0  0  0  0  0  0  0  0  0
  -25.0105  -25.7914   19.8075 C   0  0  0  0  0  0  0  0  0  0  0  0
  -26.7391  -20.0934   19.6813 C   0  0  0  0  0  0  0  0  0  0  0  0
  -22.5990   -8.0375   21.4434 C   0  0  0  0  0  0  0  0  0  0  0  0
  -23.3766  -24.1231   19.1315 C   0  0  0  0  0  0  0  0  0  0  0  0
  -21.1531   -6.7902   22.8131 C   0  0  0  0  0  0  0  0  0  0  0  0
  -19.5434   -6.6439   25.0868 C   0  0  0  0  0  0  0  0  0  0  0  0
  -21.4268   -5.8450   23.8017 C   0  0  0  0  0  0  0  0  0  0  0  0
  -24.6111  -11.6833   20.6967 C   0  0  0  0  0  0  0  0  0  0  0  0
  -24.0597  -20.5294   19.4046 C   0  0  0  0  0  0  0  0  0  0  0  0
  -25.9913  -20.7825   20.6224 C   0  0  0  0  0  0  0  0  0  0  0  0
  -25.1225  -13.8072   20.4473 C   0  0  0  0  0  0  0  0  0  0  0  0
  -22.7514  -13.4064   21.1297 C   0  0  0  0  0  0  0  0  0  0  0  0
  -28.3427  -26.3077   19.2999 C   0  0  0  0  0  0  0  0  0  0  0  0
  -27.1864  -28.5213   21.3699 C   0  0  0  0  0  0  0  0  0  0  0  0
  -24.5317  -29.7122   23.1535 C   0  0  0  0  0  0  0  0  0  0  0  0
  -30.4964  -15.2573   20.8522 C   0  0  0  0  0  0  0  0  0  0  0  0
  -32.3991  -25.8080   16.2415 C   0  0  0  0  0  0  0  0  0  0  0  0
  -26.2886  -27.1130   18.0800 C   0  0  0  0  0  0  0  0  0  0  0  0
  -25.7168  -26.5205   20.9202 C   0  0  0  0  0  0  0  0  0  0  0  0
  -32.0847  -26.5796   17.5206 C   0  0  0  0  0  0  0  0  0  0  0  0
  -29.6582  -12.7385   18.4796 C   0  0  0  0  0  0  0  0  0  0  0  0
  -31.4422  -25.6601   18.5544 C   0  0  0  0  0  0  0  0  0  0  0  0
  -28.2293  -12.3426   18.8558 C   0  0  0  0  0  0  0  0  0  0  0  0
  -30.4990  -13.0572   19.7139 C   0  0  0  0  0  0  0  0  0  0  0  0
  -28.4844  -13.6675   20.9955 C   0  0  0  0  0  0  0  0  0  0  0  0
  -30.1127  -25.0952   18.0398 C   0  0  1  0  0  0  0  0  0  0  0  0
  -27.3088  -27.3913   19.1796 C   0  0  1  0  0  0  0  0  0  0  0  0
  -27.5821  -13.3908   19.7807 C   0  0  2  0  0  0  0  0  0  0  0  0
  -26.6431  -21.3211   21.8537 C   0  0  0  0  0  0  0  0  0  0  0  0
  -23.9030  -31.5122   24.7851 C   0  0  0  0  0  0  0  0  0  0  0  0
  -20.8366  -22.1241   18.0446 C   0  0  0  0  0  0  0  0  0  0  0  0
  -28.5918  -26.9863   23.6012 C   0  0  0  0  0  0  0  0  0  0  0  0
  -27.1811  -28.2323   25.2521 C   0  0  0  0  0  0  0  0  0  0  0  0
  -28.7642  -29.4749   23.7781 C   0  0  0  0  0  0  0  0  0  0  0  0
  -22.5373  -30.8625   21.2938 C   0  0  0  0  0  0  0  0  0  0  0  0
  -28.2018  -19.8642   19.8454 C   0  0  0  0  0  0  0  0  0  0  0  0
  -22.5761  -20.7829   19.2769 C   0  0  0  0  0  0  0  0  0  0  0  0
  -28.5072  -18.7382   20.8466 C   0  0  0  0  0  0  0  0  0  0  0  0
  -30.0139  -18.5381   21.0347 C   0  0  0  0  0  0  0  0  0  0  0  0
  -30.3384  -17.4334   22.0350 C   0  0  0  0  0  0  0  0  0  0  0  0
  -26.6586  -28.4900   22.7839 C   0  0  1  0  0  0  0  0  0  0  0  0
  -23.9775  -31.1158   23.3188 C   0  0  2  0  0  0  0  0  0  0  0  0
  -22.2734  -22.0979   18.5505 C   0  0  2  0  0  0  0  0  0  1  0  0
  -27.7868  -28.2806   23.8331 C   0  0  0  0  0  0  0  0  0  0  0  0
  -25.8976  -11.6777   20.3375 N   0  0  0  0  0  0  0  0  0  0  0  0
  -24.6639  -21.0137   20.5128 N   0  0  0  0  0  0  0  0  0  0  0  0
  -26.1796  -12.9837   20.1930 N   0  0  0  0  0  0  0  0  0  0  0  0
  -26.6912  -27.5406   20.4989 N   0  0  0  0  0  0  0  0  0  0  0  0
  -29.8302  -14.0588   20.5478 N   0  0  0  0  0  0  0  0  0  0  0  0
  -25.2324  -15.1492   20.3494 N   0  0  0  0  0  0  0  0  0  0  0  0
  -21.7984  -12.4283   21.4451 N   0  0  0  0  0  0  0  0  0  0  0  0
  -29.0670  -26.0903   18.1433 N   0  0  0  0  0  0  0  0  0  0  0  0
  -25.8973  -29.7215   22.9629 N   0  0  0  0  0  0  0  0  0  0  0  0
  -29.7889  -16.1548   21.6427 N   0  0  0  0  0  0  0  0  0  0  0  0
  -22.6078  -31.2036   22.7380 N   0  3  0  0  0  0  0  0  0  0  0  0
  -22.4183  -14.6156   21.1448 O   0  0  0  0  0  0  0  0  0  0  0  0
  -28.4747  -25.7140   20.3637 O   0  0  0  0  0  0  0  0  0  0  0  0
  -28.0024  -29.3887   21.0481 O   0  0  0  0  0  0  0  0  0  0  0  0
  -23.8245  -28.7078   23.1934 O   0  0  0  0  0  0  0  0  0  0  0  0
  -31.6351  -15.5113   20.4451 O   0  0  0  0  0  0  0  0  0  0  0  0
  -21.9517   -6.8646   21.6842 O   0  0  0  0  0  0  0  0  0  0  0  0
  -22.4517  -23.1811   19.4621 O   0  0  0  0  0  0  0  0  0  1  0  0
  -18.7713   -6.5748   26.1792 F   0  0  0  0  0  0  0  0  0  0  0  0
  -22.4623   -5.0054   23.6654 F   0  0  0  0  0  0  0  0  0  0  0  0
  1  2  1  0  0  0  0
  1  5  2  0  0  0  0
  2  6  2  0  0  0  0
  3  9  2  0  0  0  0
  3 17  1  0  0  0  0
  4 10  1  0  0  0  0
  4 17  2  0  0  0  0
  5 19  1  0  0  0  0
  6 21  1  0  0  0  0
  7 11  2  0  0  0  0
  7 20  1  0  0  0  0
  8 14  2  0  0  0  0
  8 23  1  0  0  0  0
  9 24  1  0  0  0  0
 10 24  2  0  0  0  0
 11 25  1  0  0  0  0
 12 13  2  0  0  0  0
 12 26  1  0  0  0  0
 13 27  1  0  0  0  0
 14 30  1  0  0  0  0
 15 22  1  0  0  0  0
 15 25  2  0  0  0  0
 16 27  2  0  0  0  0
 16 28  1  0  0  0  0
 17 29  1  0  0  0  0
 18 29  1  0  0  0  0
 18 32  2  0  0  0  0
 18 33  1  0  0  0  0
 19 21  2  0  0  0  0
 19 38  1  0  0  0  0
 20 22  2  0  0  0  0
 20 39  1  0  0  0  0
 21 47  1  0  0  0  0
 22 40  1  0  0  0  0
 23 31  2  0  0  0  0
 23 57  1  0  0  0  0
 24 82  1  0  0  0  0
 25 83  1  0  0  0  0
 26 28  2  0  0  0  0
 26 82  1  0  0  0  0
 27 84  1  0  0  0  0
 28 85  1  0  0  0  0
 29 66  2  0  0  0  0
 30 58  1  0  0  0  0
 30 67  2  0  0  0  0
 31 50  1  0  0  0  0
 31 67  1  0  0  0  0
 32 68  1  0  0  0  0
 32 71  1  0  0  0  0
 33 72  1  0  0  0  0
 33 77  2  0  0  0  0
 34 48  1  0  0  0  0
 34 73  1  0  0  0  0
 34 78  2  0  0  0  0
 35 62  1  0  0  0  0
 35 69  1  0  0  0  0
 35 79  2  0  0  0  0
 36 63  1  0  0  0  0
 36 74  1  0  0  0  0
 36 80  2  0  0  0  0
 37 70  1  0  0  0  0
 37 75  1  0  0  0  0
 37 81  2  0  0  0  0
 38 41  1  0  0  0  0
 39 48  1  0  0  0  0
 40 69  1  0  0  0  0
 41 43  1  0  0  0  0
 42 44  1  0  0  0  0
 42 45  1  0  0  0  0
 43 47  1  0  0  0  0
 44 49  1  0  0  0  0
 45 70  1  0  0  0  0
 46 49  1  0  0  0  0
 46 70  1  0  0  0  0
 47 73  1  0  0  0  0
 48 69  1  0  0  0  0
 49 68  1  0  0  0  0
 51 63  1  0  0  0  0
 52 64  1  0  0  0  0
 53 65  1  0  0  0  0
 54 65  1  0  0  0  0
 55 65  1  0  0  0  0
 56 76  1  0  0  0  0
 57 59  1  0  0  0  0
 58 64  1  0  0  0  0
 59 60  1  0  0  0  0
 60 61  1  0  0  0  0
 61 75  1  0  0  0  0
 62 65  1  0  0  0  0
 62 74  1  0  0  0  0
 63 76  1  0  0  0  0
 64 83  1  0  0  0  0
 66 68  1  0  0  0  0
M  CHG  1  76   1
M  ISO  4  37 100  64 101  75 100  83 101
M  END
> <Batch ID>
0039

> <Smiles>
CNC(C)C(=O)NC(C(=O)N1Cc2cc([101O:1][101CH:1](C)Cc3ccc(CCCC[100NH:0][100C:0](=O)N4CCCC(n5nc(-c6ccc(Oc7ccc(F)cc7F)cc6)c(C(N)=O)c5N)C4)c(C)n3)ccc2CC1C(=O)NC1CCCc2ccccc21)C(C)(C)C

> <Shape>
0.302

> <Color>
0.210

> <Negative vol penalty>
0.000

$$$$

  -OEChem-04052317043D

 90 98  0     1  0  0  0  0  0999 V2000
  -17.5868  -15.4778   15.8000 C   0  0  0  0  0  0  0  0  0  0  0  0
  -18.0610  -16.2320   16.8684 C   0  0  0  0  0  0  0  0  0  0  0  0
  -28.4508  -26.3985   18.9801 C   0  0  0  0  0  0  0  0  0  0  0  0
  -26.4610  -25.3438   19.8551 C   0  0  0  0  0  0  0  0  0  0  0  0
  -17.9959  -14.1537   15.6469 C   0  0  0  0  0  0  0  0  0  0  0  0
  -18.9439  -15.6623   17.7851 C   0  0  0  0  0  0  0  0  0  0  0  0
  -22.8141  -18.7258   18.9171 C   0  0  0  0  0  0  0  0  0  0  0  0
  -19.4655  -24.9536   24.8117 C   0  0  0  0  0  0  0  0  0  0  0  0
  -29.0403  -25.1458   18.8107 C   0  0  0  0  0  0  0  0  0  0  0  0
  -27.0506  -24.0911   19.6857 C   0  0  0  0  0  0  0  0  0  0  0  0
  -22.5636  -19.7633   19.8141 C   0  0  0  0  0  0  0  0  0  0  0  0
  -20.3454  -23.8735   24.8797 C   0  0  0  0  0  0  0  0  0  0  0  0
  -28.1674  -20.6350   19.8203 C   0  0  0  0  0  0  0  0  0  0  0  0
  -28.0509  -19.7172   20.8641 C   0  0  0  0  0  0  0  0  0  0  0  0
  -23.5568  -18.4627   21.5864 C   0  0  0  0  0  0  0  0  0  0  0  0
  -29.2013  -21.2474   22.3380 C   0  0  0  0  0  0  0  0  0  0  0  0
  -27.1611  -26.4976   19.5023 C   0  0  0  0  0  0  0  0  0  0  0  0
  -25.7678  -28.4956   18.7446 C   0  0  0  0  0  0  0  0  0  0  0  0
  -18.8917  -13.5704   16.5568 C   0  0  0  0  0  0  0  0  0  0  0  0
  -23.4290  -17.5426   19.3511 C   0  0  0  0  0  0  0  0  0  0  0  0
  -19.3643  -14.3288   17.6449 C   0  0  0  0  0  0  0  0  0  0  0  0
  -23.8163  -17.4127   20.6924 C   0  0  0  0  0  0  0  0  0  0  0  0
  -19.4978  -25.8114   23.7123 C   0  0  0  0  0  0  0  0  0  0  0  0
  -21.2902  -24.5091   22.7489 C   0  0  0  0  0  0  0  0  0  0  0  0
  -28.3403  -23.9921   19.1635 C   0  0  0  0  0  0  0  0  0  0  0  0
  -22.9323  -19.6307   21.1496 C   0  0  0  0  0  0  0  0  0  0  0  0
  -21.2578  -23.6512   23.8483 C   0  0  0  0  0  0  0  0  0  0  0  0
  -28.8010  -21.8590   20.0353 C   0  0  0  0  0  0  0  0  0  0  0  0
  -28.5678  -20.0233   22.1230 C   0  0  0  0  0  0  0  0  0  0  0  0
  -29.3179  -22.1652   21.2941 C   0  0  0  0  0  0  0  0  0  0  0  0
  -20.4102  -25.5892   22.6809 C   0  0  0  0  0  0  0  0  0  0  0  0
  -26.5518  -27.7914   19.6780 C   0  0  0  0  0  0  0  0  0  0  0  0
  -25.4319  -29.6614   19.3885 C   0  0  0  0  0  0  0  0  0  0  0  0
  -25.3779  -28.1287   17.4146 C   0  0  0  0  0  0  0  0  0  0  0  0
  -22.5758  -14.4827   19.4657 C   0  0  0  0  0  0  0  0  0  0  0  0
  -25.6471  -14.0655   20.4223 C   0  0  0  0  0  0  0  0  0  0  0  0
  -28.4434  -15.4016   21.8516 C   0  0  0  0  0  0  0  0  0  0  0  0
  -23.6776  -32.3776   23.9371 C   0  0  0  0  0  0  0  0  0  0  0  0
  -19.2684  -12.1211   16.3768 C   0  0  0  0  0  0  0  0  0  0  0  0
  -23.7164  -16.4434   18.3654 C   0  0  0  0  0  0  0  0  0  0  0  0
  -24.4977  -16.1709   21.2044 C   0  0  0  0  0  0  0  0  0  0  0  0
  -20.4984  -11.7071   17.1805 C   0  0  0  0  0  0  0  0  0  0  0  0
  -27.1556  -31.6512   23.7078 C   0  0  0  0  0  0  0  0  0  0  0  0
  -20.3981  -12.2217   18.6130 C   0  0  0  0  0  0  0  0  0  0  0  0
  -27.2428  -30.6362   22.5667 C   0  0  0  0  0  0  0  0  0  0  0  0
  -25.8938  -31.4525   24.5447 C   0  0  0  0  0  0  0  0  0  0  0  0
  -24.7228  -30.4267   22.6341 C   0  0  0  0  0  0  0  0  0  0  0  0
  -20.3424  -13.7537   18.6462 C   0  0  1  0  0  0  0  0  0  0  0  0
  -23.8831  -15.0779   19.0249 C   0  0  1  0  0  0  0  0  0  0  0  0
  -25.9505  -30.6228   21.7282 C   0  0  2  0  0  0  0  0  0  0  0  0
  -21.6286  -23.6089   20.4333 C   0  0  0  0  0  0  0  0  0  0  0  0
  -30.8260  -15.5315   22.6286 C   0  0  0  0  0  0  0  0  0  0  0  0
  -24.5568  -12.5702   22.8483 C   0  0  0  0  0  0  0  0  0  0  0  0
  -26.7972  -12.8383   23.9332 C   0  0  0  0  0  0  0  0  0  0  0  0
  -26.5871  -11.5398   21.8136 C   0  0  0  0  0  0  0  0  0  0  0  0
  -29.3638  -16.4251   19.2316 C   0  0  0  0  0  0  0  0  0  0  0  0
  -18.5369  -26.9564   23.6834 C   0  0  0  0  0  0  0  0  0  0  0  0
  -22.2788  -24.2466   21.6557 C   0  0  0  0  0  0  0  0  0  0  0  0
  -19.1566  -28.3101   24.0730 C   0  0  0  0  0  0  0  0  0  0  0  0
  -18.1277  -29.4456   24.1026 C   0  0  0  0  0  0  0  0  0  0  0  0
  -18.7177  -30.7866   24.5503 C   0  0  0  0  0  0  0  0  0  0  0  0
  -19.7953  -31.3221   23.6039 C   0  0  0  0  0  0  0  0  0  0  0  0
  -20.3695  -32.6481   24.1139 C   0  0  0  0  0  0  0  0  0  0  0  0
  -21.4568  -33.2040   23.1995 C   0  0  0  0  0  0  0  0  0  0  0  0
  -22.4547  -20.2785   23.3875 C   0  0  0  0  0  0  0  0  0  1  0  0
  -21.5209  -21.2937   24.0176 C   0  0  0  0  0  0  0  0  0  0  0  0
  -26.3608  -14.0572   21.7526 C   0  0  1  0  0  0  0  0  0  0  0  0
  -29.9018  -15.3716   21.4315 C   0  0  2  0  0  0  0  0  0  0  0  0
  -26.0609  -12.7741   22.5780 C   0  0  0  0  0  0  0  0  0  0  0  0
  -26.7051  -28.4545   20.8273 N   0  0  0  0  0  0  0  0  0  0  0  0
  -26.0129  -29.5876   20.6203 N   0  0  0  0  0  0  0  0  0  0  0  0
  -24.7513  -15.1216   20.2033 N   0  0  0  0  0  0  0  0  0  0  0  0
  -24.7041  -31.4512   23.6900 N   0  0  0  0  0  0  0  0  0  0  0  0
  -24.6994  -30.7323   19.0155 N   0  0  0  0  0  0  0  0  0  0  0  0
  -25.8097  -26.8954   16.9080 N   0  0  0  0  0  0  0  0  0  0  0  0
  -21.6622  -14.3119   18.4432 N   0  0  0  0  0  0  0  0  0  0  0  0
  -27.7750  -14.2614   21.4584 N   0  0  0  0  0  0  0  0  0  0  0  0
  -22.5886  -32.3126   23.0766 N   0  0  0  0  0  0  0  0  0  0  0  0
  -30.1861  -16.4724   20.4680 N   0  3  0  0  0  0  0  0  0  0  0  0
  -24.6812  -28.8798   16.6906 O   0  0  0  0  0  0  0  0  0  0  0  0
  -22.4089  -14.1981   20.6459 O   0  0  0  0  0  0  0  0  0  0  0  0
  -25.8814  -13.1720   19.6048 O   0  0  0  0  0  0  0  0  0  0  0  0
  -27.9475  -16.3408   22.4702 O   0  0  0  0  0  0  0  0  0  0  0  0
  -23.7303  -33.2051   24.8533 O   0  0  0  0  0  0  0  0  0  0  0  0
  -28.9151  -22.7695   18.9981 O   0  0  0  0  0  0  0  0  0  0  0  0
  -22.6884  -20.6416   22.0274 O   0  0  0  0  0  0  0  0  0  1  0  0
  -22.1130  -22.5843   23.9340 O   0  0  0  0  0  0  0  0  0  0  0  0
  -28.4545  -19.1425   23.1257 F   0  0  0  0  0  0  0  0  0  0  0  0
  -29.9265  -23.3399   21.5070 F   0  0  0  0  0  0  0  0  0  0  0  0
  -20.4519  -26.6596   21.3196 Cl  0  0  0  0  0  0  0  0  0  0  0  0
  1  2  1  0  0  0  0
  1  5  2  0  0  0  0
  2  6  2  0  0  0  0
  3  9  2  0  0  0  0
  3 17  1  0  0  0  0
  4 10  1  0  0  0  0
  4 17  2  0  0  0  0
  5 19  1  0  0  0  0
  6 21  1  0  0  0  0
  7 11  2  0  0  0  0
  7 20  1  0  0  0  0
  8 12  1  0  0  0  0
  8 23  2  0  0  0  0
  9 25  1  0  0  0  0
 10 25  2  0  0  0  0
 11 26  1  0  0  0  0
 12 27  2  0  0  0  0
 13 14  2  0  0  0  0
 13 28  1  0  0  0  0
 14 29  1  0  0  0  0
 15 22  1  0  0  0  0
 15 26  2  0  0  0  0
 16 29  2  0  0  0  0
 16 30  1  0  0  0  0
 17 32  1  0  0  0  0
 18 32  1  0  0  0  0
 18 33  2  0  0  0  0
 18 34  1  0  0  0  0
 19 21  2  0  0  0  0
 19 39  1  0  0  0  0
 20 22  2  0  0  0  0
 20 40  1  0  0  0  0
 21 48  1  0  0  0  0
 22 41  1  0  0  0  0
 23 31  1  0  0  0  0
 23 57  1  0  0  0  0
 24 27  1  0  0  0  0
 24 31  2  0  0  0  0
 24 58  1  0  0  0  0
 25 85  1  0  0  0  0
 26 86  1  0  0  0  0
 27 87  1  0  0  0  0
 28 30  2  0  0  0  0
 28 85  1  0  0  0  0
 29 88  1  0  0  0  0
 30 89  1  0  0  0  0
 31 90  1  0  0  0  0
 32 70  2  0  0  0  0
 33 71  1  0  0  0  0
 33 74  1  0  0  0  0
 34 75  1  0  0  0  0
 34 80  2  0  0  0  0
 35 49  1  0  0  0  0
 35 76  1  0  0  0  0
 35 81  2  0  0  0  0
 36 67  1  0  0  0  0
 36 72  1  0  0  0  0
 36 82  2  0  0  0  0
 37 68  1  0  0  0  0
 37 77  1  0  0  0  0
 37 83  2  0  0  0  0
 38 73  1  0  0  0  0
 38 78  1  0  0  0  0
 38 84  2  0  0  0  0
 39 42  1  0  0  0  0
 40 49  1  0  0  0  0
 41 72  1  0  0  0  0
 42 44  1  0  0  0  0
 43 45  1  0  0  0  0
 43 46  1  0  0  0  0
 44 48  1  0  0  0  0
 45 50  1  0  0  0  0
 46 73  1  0  0  0  0
 47 50  1  0  0  0  0
 47 73  1  0  0  0  0
 48 76  1  0  0  0  0
 49 72  1  0  0  0  0
 50 71  1  0  0  0  0
 51 58  1  0  0  0  0
 52 68  1  0  0  0  0
 53 69  1  0  0  0  0
 54 69  1  0  0  0  0
 55 69  1  0  0  0  0
 56 79  1  0  0  0  0
 57 59  1  0  0  0  0
 59 60  1  0  0  0  0
 60 61  1  0  0  0  0
 61 62  1  0  0  0  0
 62 63  1  0  0  0  0
 63 64  1  0  0  0  0
 64 78  1  0  0  0  0
 65 66  1  0  0  0  0
 65 86  1  0  0  0  0
 66 87  1  0  0  0  0
 67 69  1  0  0  0  0
 67 77  1  0  0  0  0
 68 79  1  0  0  0  0
 70 71  1  0  0  0  0
M  CHG  1  79   1
M  ISO  4  38 100  65 101  78 100  86 101
M  END
> <Batch ID>
0039

> <Smiles>
CCc1c(OC[101CH2:1][101O:1]c2ccc3c(c2)CN(C(=O)C(NC(=O)C(C)NC)C(C)(C)C)C(C(=O)NC2CCCc4ccccc42)C3)ccc(CCCCCCC[100NH:0][100C:0](=O)N2CCCC(n3nc(-c4ccc(Oc5ccc(F)cc5F)cc4)c(C(N)=O)c3N)C2)c1Cl

> <Shape>
0.222

> <Color>
0.048

> <Negative vol penalty>
0.000

$$$$

  -OEChem-04052317043D

 84 92  0     1  0  0  0  0  0999 V2000
  -27.6184  -34.7138   21.6232 C   0  0  0  0  0  0  0  0  0  0  0  0
  -28.0288  -33.3874   21.5364 C   0  0  0  0  0  0  0  0  0  0  0  0
  -22.9068  -10.1957   19.9940 C   0  0  0  0  0  0  0  0  0  0  0  0
  -24.0231   -9.5288   22.0302 C   0  0  0  0  0  0  0  0  0  0  0  0
  -26.3179  -35.0151   22.0255 C   0  0  0  0  0  0  0  0  0  0  0  0
  -27.1392  -32.3614   21.8531 C   0  0  0  0  0  0  0  0  0  0  0  0
  -26.8065  -26.8372   19.2304 C   0  0  0  0  0  0  0  0  0  0  0  0
  -22.1242   -9.0422   20.0452 C   0  0  0  0  0  0  0  0  0  0  0  0
  -23.2405   -8.3753   22.0815 C   0  0  0  0  0  0  0  0  0  0  0  0
  -27.3024  -25.5893   19.6056 C   0  0  0  0  0  0  0  0  0  0  0  0
  -23.1758   -5.3406   20.5925 C   0  0  0  0  0  0  0  0  0  0  0  0
  -23.8159   -4.1355   20.8817 C   0  0  0  0  0  0  0  0  0  0  0  0
  -25.1707  -25.0467   20.5959 C   0  0  0  0  0  0  0  0  0  0  0  0
  -22.4294   -3.8696   22.8423 C   0  0  0  0  0  0  0  0  0  0  0  0
  -29.1509  -20.3708   22.4750 C   0  0  0  0  0  0  0  0  0  0  0  0
  -23.8562  -10.4390   20.9865 C   0  0  0  0  0  0  0  0  0  0  0  0
  -24.3721  -12.8829   21.5052 C   0  0  0  0  0  0  0  0  0  0  0  0
  -25.4089  -33.9920   22.3379 C   0  0  0  0  0  0  0  0  0  0  0  0
  -25.4902  -27.2040   19.5453 C   0  0  0  0  0  0  0  0  0  0  0  0
  -25.8257  -32.6493   22.2612 C   0  0  0  0  0  0  0  0  0  0  0  0
  -24.6598  -26.2988   20.2213 C   0  0  0  0  0  0  0  0  0  0  0  0
  -29.2453  -19.3077   21.6003 C   0  0  0  0  0  0  0  0  0  0  0  0
  -22.2910   -8.1320   21.0889 C   0  0  0  0  0  0  0  0  0  0  0  0
  -26.4854  -24.6950   20.2910 C   0  0  0  0  0  0  0  0  0  0  0  0
  -22.1625   -5.8103   21.4282 C   0  0  0  0  0  0  0  0  0  0  0  0
  -23.4427   -3.4000   22.0066 C   0  0  0  0  0  0  0  0  0  0  0  0
  -21.7893   -5.0748   22.5531 C   0  0  0  0  0  0  0  0  0  0  0  0
  -24.6653  -11.6301   20.9339 C   0  0  0  0  0  0  0  0  0  0  0  0
  -29.0139  -19.6046   20.2727 C   0  0  0  0  0  0  0  0  0  0  0  0
  -25.4473  -13.6711   21.1749 C   0  0  0  0  0  0  0  0  0  0  0  0
  -28.6504  -21.7920   20.7730 C   0  0  0  0  0  0  0  0  0  0  0  0
  -23.2299  -13.2971   22.2665 C   0  0  0  0  0  0  0  0  0  0  0  0
  -24.1591  -29.4938   21.3027 C   0  0  0  0  0  0  0  0  0  0  0  0
  -21.4065  -28.3039   20.0659 C   0  0  0  0  0  0  0  0  0  0  0  0
  -19.7602  -25.6557   18.6790 C   0  0  0  0  0  0  0  0  0  0  0  0
  -30.9532  -14.4276   20.6664 C   0  0  0  0  0  0  0  0  0  0  0  0
  -24.0280  -34.3680   22.8135 C   0  0  0  0  0  0  0  0  0  0  0  0
  -24.9621  -28.5434   19.1100 C   0  0  0  0  0  0  0  0  0  0  0  0
  -23.2328  -26.6364   20.5653 C   0  0  0  0  0  0  0  0  0  0  0  0
  -23.0329  -33.2112   22.7705 C   0  0  0  0  0  0  0  0  0  0  0  0
  -29.2631  -12.8537   17.9565 C   0  0  0  0  0  0  0  0  0  0  0  0
  -23.6511  -31.9526   23.3711 C   0  0  0  0  0  0  0  0  0  0  0  0
  -27.8952  -12.4931   18.5385 C   0  0  0  0  0  0  0  0  0  0  0  0
  -30.3756  -12.6969   18.9908 C   0  0  0  0  0  0  0  0  0  0  0  0
  -28.7846  -13.0621   20.8372 C   0  0  0  0  0  0  0  0  0  0  0  0
  -24.8823  -31.5077   22.5725 C   0  0  1  0  0  0  0  0  0  0  0  0
  -23.7670  -29.0112   19.9348 C   0  0  1  0  0  0  0  0  0  0  0  0
  -27.6234  -13.2584   19.8475 C   0  0  2  0  0  0  0  0  0  0  0  0
  -27.7751  -17.0037   17.7025 C   0  0  0  0  0  0  0  0  0  0  0  0
  -17.5079  -24.9736   17.8076 C   0  0  0  0  0  0  0  0  0  0  0  0
  -20.3825  -28.0380   22.9279 C   0  0  0  0  0  0  0  0  0  0  0  0
  -18.5897  -26.5149   22.0709 C   0  0  0  0  0  0  0  0  0  0  0  0
  -18.6920  -28.8816   21.2892 C   0  0  0  0  0  0  0  0  0  0  0  0
  -20.8351  -25.1424   15.9697 C   0  0  0  0  0  0  0  0  0  0  0  0
  -29.5754  -17.9424   22.0822 C   0  0  0  0  0  0  0  0  0  0  0  0
  -29.0891  -18.5331   19.2356 C   0  0  0  0  0  0  0  0  0  0  0  0
  -28.3188  -23.1803   20.3105 C   0  0  0  0  0  0  0  0  0  1  0  0
  -27.6965  -18.0708   18.7827 C   0  0  0  0  0  0  0  0  0  0  0  0
  -31.0465  -17.5230   21.8720 C   0  0  0  0  0  0  0  0  0  0  0  0
  -31.3858  -16.1360   22.4138 C   0  0  0  0  0  0  0  0  0  0  0  0
  -20.4262  -27.2315   20.4756 C   0  0  1  0  0  0  0  0  0  0  0  0
  -18.8689  -25.5530   17.4544 C   0  0  2  0  0  0  0  0  0  0  0  0
  -19.5500  -27.6606   21.6862 C   0  0  0  0  0  0  0  0  0  0  0  0
  -28.8543  -21.6308   22.0944 N   0  0  0  0  0  0  0  0  0  0  0  0
  -25.8351  -11.6185   20.2894 N   0  0  0  0  0  0  0  0  0  0  0  0
  -28.7128  -20.8403   19.8223 N   0  0  0  0  0  0  0  0  0  0  0  0
  -26.2864  -12.8736   20.4536 N   0  0  0  0  0  0  0  0  0  0  0  0
  -22.7646  -27.9606   20.1238 N   0  0  0  0  0  0  0  0  0  0  0  0
  -30.0571  -13.4481   20.2074 N   0  0  0  0  0  0  0  0  0  0  0  0
  -25.7474  -14.9615   21.4339 N   0  0  0  0  0  0  0  0  0  0  0  0
  -22.2168  -12.3608   22.5143 N   0  0  0  0  0  0  0  0  0  0  0  0
  -24.4795  -30.8370   21.3549 N   0  0  0  0  0  0  0  0  0  0  0  0
  -19.6655  -26.8944   19.2772 N   0  0  0  0  0  0  0  0  0  0  0  0
  -30.5719  -15.0972   21.8226 N   0  0  0  0  0  0  0  0  0  0  0  0
  -19.4999  -24.6778   16.4264 N   0  3  0  0  0  0  0  0  0  0  0  0
  -23.1035  -14.4675   22.6997 O   0  0  0  0  0  0  0  0  0  0  0  0
  -24.1687  -28.7063   22.2415 O   0  0  0  0  0  0  0  0  0  0  0  0
  -20.9825  -29.4033   19.7010 O   0  0  0  0  0  0  0  0  0  0  0  0
  -20.4668  -24.7285   19.0682 O   0  0  0  0  0  0  0  0  0  0  0  0
  -32.0118  -14.6899   20.0855 O   0  0  0  0  0  0  0  0  0  0  0  0
  -21.5274   -7.0065   21.1393 O   0  0  0  0  0  0  0  0  0  0  0  0
  -26.9671  -23.4766   20.6590 O   0  0  0  0  0  0  0  0  0  1  0  0
  -24.0564   -2.2421   22.2833 F   0  0  0  0  0  0  0  0  0  0  0  0
  -20.8158   -5.5203   23.3591 F   0  0  0  0  0  0  0  0  0  0  0  0
  1  2  1  0  0  0  0
  1  5  2  0  0  0  0
  2  6  2  0  0  0  0
  3  8  2  0  0  0  0
  3 16  1  0  0  0  0
  4  9  1  0  0  0  0
  4 16  2  0  0  0  0
  5 18  1  0  0  0  0
  6 20  1  0  0  0  0
  7 10  2  0  0  0  0
  7 19  1  0  0  0  0
  8 23  1  0  0  0  0
  9 23  2  0  0  0  0
 10 24  1  0  0  0  0
 11 12  2  0  0  0  0
 11 25  1  0  0  0  0
 12 26  1  0  0  0  0
 13 21  1  0  0  0  0
 13 24  2  0  0  0  0
 14 26  2  0  0  0  0
 14 27  1  0  0  0  0
 15 22  1  0  0  0  0
 15 64  2  0  0  0  0
 16 28  1  0  0  0  0
 17 28  1  0  0  0  0
 17 30  2  0  0  0  0
 17 32  1  0  0  0  0
 18 20  2  0  0  0  0
 18 37  1  0  0  0  0
 19 21  2  0  0  0  0
 19 38  1  0  0  0  0
 20 46  1  0  0  0  0
 21 39  1  0  0  0  0
 22 29  2  0  0  0  0
 22 55  1  0  0  0  0
 23 81  1  0  0  0  0
 24 82  1  0  0  0  0
 25 27  2  0  0  0  0
 25 81  1  0  0  0  0
 26 83  1  0  0  0  0
 27 84  1  0  0  0  0
 28 65  2  0  0  0  0
 29 56  1  0  0  0  0
 29 66  1  0  0  0  0
 30 67  1  0  0  0  0
 30 70  1  0  0  0  0
 31 57  1  0  0  0  0
 31 64  1  0  0  0  0
 31 66  2  0  0  0  0
 32 71  1  0  0  0  0
 32 76  2  0  0  0  0
 33 47  1  0  0  0  0
 33 72  1  0  0  0  0
 33 77  2  0  0  0  0
 34 61  1  0  0  0  0
 34 68  1  0  0  0  0
 34 78  2  0  0  0  0
 35 62  1  0  0  0  0
 35 73  1  0  0  0  0
 35 79  2  0  0  0  0
 36 69  1  0  0  0  0
 36 74  1  0  0  0  0
 36 80  2  0  0  0  0
 37 40  1  0  0  0  0
 38 47  1  0  0  0  0
 39 68  1  0  0  0  0
 40 42  1  0  0  0  0
 41 43  1  0  0  0  0
 41 44  1  0  0  0  0
 42 46  1  0  0  0  0
 43 48  1  0  0  0  0
 44 69  1  0  0  0  0
 45 48  1  0  0  0  0
 45 69  1  0  0  0  0
 46 72  1  0  0  0  0
 47 68  1  0  0  0  0
 48 67  1  0  0  0  0
 49 58  1  0  0  0  0
 50 62  1  0  0  0  0
 51 63  1  0  0  0  0
 52 63  1  0  0  0  0
 53 63  1  0  0  0  0
 54 75  1  0  0  0  0
 55 59  1  0  0  0  0
 56 58  1  0  0  0  0
 57 82  1  0  0  0  0
 59 60  1  0  0  0  0
 60 74  1  0  0  0  0
 61 63  1  0  0  0  0
 61 73  1  0  0  0  0
 62 75  1  0  0  0  0
 65 67  1  0  0  0  0
M  CHG  1  75   1
M  ISO  4  36 100  57 101  74 100  82 101
M  END
> <Batch ID>
0039

> <Smiles>
CCCc1nc([101CH2:1][101O:1]c2ccc3c(c2)CN(C(=O)C(NC(=O)C(C)NC)C(C)(C)C)C(C(=O)NC2CCCc4ccccc42)C3)ncc1CCC[100NH:0][100C:0](=O)N1CCCC(n2nc(-c3ccc(Oc4ccc(F)cc4F)cc3)c(C(N)=O)c2N)C1

> <Shape>
0.360

> <Color>
0.153

> <Negative vol penalty>
0.000

$$$$

  -OEChem-04052317043D

 84 92  0     1  0  0  0  0  0999 V2000
  -16.8959  -30.2515   23.3657 C   0  0  0  0  0  0  0  0  0  0  0  0
  -18.1509  -30.6853   22.9508 C   0  0  0  0  0  0  0  0  0  0  0  0
  -25.9185  -16.1913   20.1907 C   0  0  0  0  0  0  0  0  0  0  0  0
  -27.8271  -15.4769   21.4883 C   0  0  0  0  0  0  0  0  0  0  0  0
  -16.7083  -28.9221   23.7419 C   0  0  0  0  0  0  0  0  0  0  0  0
  -19.2194  -29.7902   22.9129 C   0  0  0  0  0  0  0  0  0  0  0  0
  -25.1918  -28.3792   19.2175 C   0  0  0  0  0  0  0  0  0  0  0  0
  -25.5016  -14.8654   20.0737 C   0  0  0  0  0  0  0  0  0  0  0  0
  -27.4101  -14.1509   21.3715 C   0  0  0  0  0  0  0  0  0  0  0  0
  -26.5545  -28.1608   19.4153 C   0  0  0  0  0  0  0  0  0  0  0  0
  -23.9106  -12.5765   21.9875 C   0  0  0  0  0  0  0  0  0  0  0  0
  -22.5598  -12.3006   22.1992 C   0  0  0  0  0  0  0  0  0  0  0  0
  -26.0943  -25.8693   20.0124 C   0  0  0  0  0  0  0  0  0  0  0  0
  -22.3864  -11.4266   19.9536 C   0  0  0  0  0  0  0  0  0  0  0  0
  -32.2966  -25.3052   19.6942 C   0  0  0  0  0  0  0  0  0  0  0  0
  -27.0813  -16.4971   20.8979 C   0  0  0  0  0  0  0  0  0  0  0  0
  -27.1666  -18.7808   22.0315 C   0  0  0  0  0  0  0  0  0  0  0  0
  -17.7728  -28.0079   23.6994 C   0  0  0  0  0  0  0  0  0  0  0  0
  -24.2675  -27.3455   19.4265 C   0  0  0  0  0  0  0  0  0  0  0  0
  -19.0462  -28.4477   23.2901 C   0  0  0  0  0  0  0  0  0  0  0  0
  -24.7207  -26.0765   19.8140 C   0  0  0  0  0  0  0  0  0  0  0  0
  -32.8793  -25.3007   20.9451 C   0  0  0  0  0  0  0  0  0  0  0  0
  -26.2474  -13.8452   20.6641 C   0  0  0  0  0  0  0  0  0  0  0  0
  -27.0057  -26.9065   19.8156 C   0  0  0  0  0  0  0  0  0  0  0  0
  -24.4993  -12.2775   20.7588 C   0  0  0  0  0  0  0  0  0  0  0  0
  -21.7977  -11.7257   21.1823 C   0  0  0  0  0  0  0  0  0  0  0  0
  -23.7372  -11.7025   19.7419 C   0  0  0  0  0  0  0  0  0  0  0  0
  -27.5128  -17.8665   21.0185 C   0  0  0  0  0  0  0  0  0  0  0  0
  -32.0038  -25.3249   22.0116 C   0  0  0  0  0  0  0  0  0  0  0  0
  -27.8296  -19.9351   21.6934 C   0  0  0  0  0  0  0  0  0  0  0  0
  -30.2159  -25.3530   20.6082 C   0  0  0  0  0  0  0  0  0  0  0  0
  -26.3212  -18.6026   23.1757 C   0  0  0  0  0  0  0  0  0  0  0  0
  -21.8123  -26.8957   21.3946 C   0  0  0  0  0  0  0  0  0  0  0  0
  -21.3868  -24.2118   19.6233 C   0  0  0  0  0  0  0  0  0  0  0  0
  -22.7489  -21.8457   17.5756 C   0  0  0  0  0  0  0  0  0  0  0  0
  -32.7627  -21.0102   18.4746 C   0  0  0  0  0  0  0  0  0  0  0  0
  -17.5328  -26.5922   24.1606 C   0  0  0  0  0  0  0  0  0  0  0  0
  -22.8035  -27.5900   19.1829 C   0  0  0  0  0  0  0  0  0  0  0  0
  -23.7712  -24.9278   20.0321 C   0  0  0  0  0  0  0  0  0  0  0  0
  -18.6287  -25.6187   23.7346 C   0  0  0  0  0  0  0  0  0  0  0  0
  -29.5019  -22.3177   17.8963 C   0  0  0  0  0  0  0  0  0  0  0  0
  -20.0066  -26.2112   24.0124 C   0  0  0  0  0  0  0  0  0  0  0  0
  -28.5911  -21.4077   18.7223 C   0  0  0  0  0  0  0  0  0  0  0  0
  -30.6615  -21.5421   17.2752 C   0  0  0  0  0  0  0  0  0  0  0  0
  -30.5502  -19.8429   19.0568 C   0  0  0  0  0  0  0  0  0  0  0  0
  -20.2242  -27.5009   23.2119 C   0  0  1  0  0  0  0  0  0  0  0  0
  -21.9023  -26.6063   19.9229 C   0  0  1  0  0  0  0  0  0  0  0  0
  -29.3976  -20.5901   19.7491 C   0  0  2  0  0  0  0  0  0  0  0  0
  -32.5208  -25.3222   23.4124 C   0  0  0  0  0  0  0  0  0  0  0  0
  -22.1618  -19.7555   16.3171 C   0  0  0  0  0  0  0  0  0  0  0  0
  -21.4137  -22.6345   22.2351 C   0  0  0  0  0  0  0  0  0  0  0  0
  -21.7813  -20.5530   20.8932 C   0  0  0  0  0  0  0  0  0  0  0  0
  -19.6948  -21.8840   20.5808 C   0  0  0  0  0  0  0  0  0  0  0  0
  -23.4393  -23.0787   14.9752 C   0  0  0  0  0  0  0  0  0  0  0  0
  -34.3554  -25.2718   21.1058 C   0  0  0  0  0  0  0  0  0  0  0  0
  -28.7276  -25.3815   20.4200 C   0  0  0  0  0  0  0  0  0  1  0  0
  -34.8778  -23.8766   21.4900 C   0  0  0  0  0  0  0  0  0  0  0  0
  -34.5691  -22.8326   20.4148 C   0  0  0  0  0  0  0  0  0  0  0  0
  -35.0613  -21.4436   20.8319 C   0  0  0  0  0  0  0  0  0  0  0  0
  -34.7806  -20.3806   19.7749 C   0  0  0  0  0  0  0  0  0  0  0  0
  -21.8856  -22.7891   19.7014 C   0  0  1  0  0  0  0  0  0  0  0  0
  -22.2815  -21.2701   16.2509 C   0  0  2  0  0  0  0  0  0  0  0  0
  -21.2118  -21.9871   20.8505 C   0  0  0  0  0  0  0  0  0  0  0  0
  -30.9635  -25.3312   19.4883 N   0  0  0  0  0  0  0  0  0  0  0  0
  -28.3320  -18.3946   20.1053 N   0  0  0  0  0  0  0  0  0  0  0  0
  -30.6614  -25.3517   21.8790 N   0  0  0  0  0  0  0  0  0  0  0  0
  -28.5061  -19.6532   20.5431 N   0  0  0  0  0  0  0  0  0  0  0  0
  -22.3489  -25.2184   19.7872 N   0  0  0  0  0  0  0  0  0  0  0  0
  -31.3862  -20.7897   18.3021 N   0  0  0  0  0  0  0  0  0  0  0  0
  -27.8942  -21.1537   22.2707 N   0  0  0  0  0  0  0  0  0  0  0  0
  -25.7184  -17.3528   23.3729 N   0  0  0  0  0  0  0  0  0  0  0  0
  -20.5359  -27.1931   21.8325 N   0  0  0  0  0  0  0  0  0  0  0  0
  -21.6878  -22.2138   18.3754 N   0  0  0  0  0  0  0  0  0  0  0  0
  -33.3714  -20.2606   19.4737 N   0  0  0  0  0  0  0  0  0  0  0  0
  -23.2428  -21.6187   15.1668 N   0  3  0  0  0  0  0  0  0  0  0  0
  -26.0938  -19.5292   23.9901 O   0  0  0  0  0  0  0  0  0  0  0  0
  -22.8257  -26.8511   22.0822 O   0  0  0  0  0  0  0  0  0  0  0  0
  -20.1890  -24.4222   19.4171 O   0  0  0  0  0  0  0  0  0  0  0  0
  -23.9366  -21.9542   17.8728 O   0  0  0  0  0  0  0  0  0  0  0  0
  -33.4007  -21.8194   17.7925 O   0  0  0  0  0  0  0  0  0  0  0  0
  -25.8407  -12.5513   20.5505 O   0  0  0  0  0  0  0  0  0  0  0  0
  -28.3352  -26.6908   20.0101 O   0  0  0  0  0  0  0  0  0  1  0  0
  -20.5009  -11.4594   21.3862 F   0  0  0  0  0  0  0  0  0  0  0  0
  -24.2975  -11.4119   18.5597 F   0  0  0  0  0  0  0  0  0  0  0  0
  1  2  1  0  0  0  0
  1  5  2  0  0  0  0
  2  6  2  0  0  0  0
  3  8  2  0  0  0  0
  3 16  1  0  0  0  0
  4  9  1  0  0  0  0
  4 16  2  0  0  0  0
  5 18  1  0  0  0  0
  6 20  1  0  0  0  0
  7 10  2  0  0  0  0
  7 19  1  0  0  0  0
  8 23  1  0  0  0  0
  9 23  2  0  0  0  0
 10 24  1  0  0  0  0
 11 12  2  0  0  0  0
 11 25  1  0  0  0  0
 12 26  1  0  0  0  0
 13 21  1  0  0  0  0
 13 24  2  0  0  0  0
 14 26  2  0  0  0  0
 14 27  1  0  0  0  0
 15 22  1  0  0  0  0
 15 64  2  0  0  0  0
 16 28  1  0  0  0  0
 17 28  1  0  0  0  0
 17 30  2  0  0  0  0
 17 32  1  0  0  0  0
 18 20  2  0  0  0  0
 18 37  1  0  0  0  0
 19 21  2  0  0  0  0
 19 38  1  0  0  0  0
 20 46  1  0  0  0  0
 21 39  1  0  0  0  0
 22 29  2  0  0  0  0
 22 55  1  0  0  0  0
 23 81  1  0  0  0  0
 24 82  1  0  0  0  0
 25 27  2  0  0  0  0
 25 81  1  0  0  0  0
 26 83  1  0  0  0  0
 27 84  1  0  0  0  0
 28 65  2  0  0  0  0
 29 49  1  0  0  0  0
 29 66  1  0  0  0  0
 30 67  1  0  0  0  0
 30 70  1  0  0  0  0
 31 56  1  0  0  0  0
 31 64  1  0  0  0  0
 31 66  2  0  0  0  0
 32 71  1  0  0  0  0
 32 76  2  0  0  0  0
 33 47  1  0  0  0  0
 33 72  1  0  0  0  0
 33 77  2  0  0  0  0
 34 61  1  0  0  0  0
 34 68  1  0  0  0  0
 34 78  2  0  0  0  0
 35 62  1  0  0  0  0
 35 73  1  0  0  0  0
 35 79  2  0  0  0  0
 36 69  1  0  0  0  0
 36 74  1  0  0  0  0
 36 80  2  0  0  0  0
 37 40  1  0  0  0  0
 38 47  1  0  0  0  0
 39 68  1  0  0  0  0
 40 42  1  0  0  0  0
 41 43  1  0  0  0  0
 41 44  1  0  0  0  0
 42 46  1  0  0  0  0
 43 48  1  0  0  0  0
 44 69  1  0  0  0  0
 45 48  1  0  0  0  0
 45 69  1  0  0  0  0
 46 72  1  0  0  0  0
 47 68  1  0  0  0  0
 48 67  1  0  0  0  0
 50 62  1  0  0  0  0
 51 63  1  0  0  0  0
 52 63  1  0  0  0  0
 53 63  1  0  0  0  0
 54 75  1  0  0  0  0
 55 57  1  0  0  0  0
 56 82  1  0  0  0  0
 57 58  1  0  0  0  0
 58 59  1  0  0  0  0
 59 60  1  0  0  0  0
 60 74  1  0  0  0  0
 61 63  1  0  0  0  0
 61 73  1  0  0  0  0
 62 75  1  0  0  0  0
 65 67  1  0  0  0  0
M  CHG  1  75   1
M  ISO  4  36 100  56 101  74 100  82 101
M  END
> <Batch ID>
0039

> <Smiles>
CNC(C)C(=O)NC(C(=O)N1Cc2cc([101O:1][101CH2:1]c3ncc(CCCCC[100NH:0][100C:0](=O)N4CCCC(n5nc(-c6ccc(Oc7ccc(F)cc7F)cc6)c(C(N)=O)c5N)C4)c(C)n3)ccc2CC1C(=O)NC1CCCc2ccccc21)C(C)(C)C

> <Shape>
0.198

> <Color>
0.071

> <Negative vol penalty>
0.000

$$$$

  -OEChem-04052317043D

 88 96  0     1  0  0  0  0  0999 V2000
  -28.3317  -16.3252   15.2854 C   0  0  0  0  0  0  0  0  0  0  0  0
  -27.3908  -16.5227   16.2910 C   0  0  0  0  0  0  0  0  0  0  0  0
  -23.0211   -9.7415   19.9495 C   0  0  0  0  0  0  0  0  0  0  0  0
  -23.7603   -9.7391   22.2497 C   0  0  0  0  0  0  0  0  0  0  0  0
  -29.5936  -16.9090   15.3886 C   0  0  0  0  0  0  0  0  0  0  0  0
  -27.7118  -17.3034   17.4009 C   0  0  0  0  0  0  0  0  0  0  0  0
  -23.9433  -20.9791   20.5304 C   0  0  0  0  0  0  0  0  0  0  0  0
  -22.3057   -8.5661   20.1781 C   0  0  0  0  0  0  0  0  0  0  0  0
  -23.0449   -8.5636   22.4783 C   0  0  0  0  0  0  0  0  0  0  0  0
  -23.2372  -20.8053   21.7199 C   0  0  0  0  0  0  0  0  0  0  0  0
  -22.9629   -5.2604   20.4325 C   0  0  0  0  0  0  0  0  0  0  0  0
  -23.0652   -4.2450   19.4816 C   0  0  0  0  0  0  0  0  0  0  0  0
  -25.0147  -21.9008   22.9281 C   0  0  0  0  0  0  0  0  0  0  0  0
  -20.6803   -4.3526   19.1102 C   0  0  0  0  0  0  0  0  0  0  0  0
  -23.7484  -10.3280   20.9853 C   0  0  0  0  0  0  0  0  0  0  0  0
  -24.0245  -12.8626   20.9002 C   0  0  0  0  0  0  0  0  0  0  0  0
  -29.9269  -17.7052   16.4957 C   0  0  0  0  0  0  0  0  0  0  0  0
  -25.1975  -21.6065   20.5323 C   0  0  0  0  0  0  0  0  0  0  0  0
  -28.9798  -17.8973   17.5197 C   0  0  0  0  0  0  0  0  0  0  0  0
  -25.7335  -22.0837   21.7369 C   0  0  0  0  0  0  0  0  0  0  0  0
  -22.3176   -7.9772   21.4425 C   0  0  0  0  0  0  0  0  0  0  0  0
  -23.7742  -21.2635   22.9194 C   0  0  0  0  0  0  0  0  0  0  0  0
  -21.7193   -5.8218   20.7223 C   0  0  0  0  0  0  0  0  0  0  0  0
  -21.9239   -3.7911   18.8205 C   0  0  0  0  0  0  0  0  0  0  0  0
  -20.5780   -5.3679   20.0611 C   0  0  0  0  0  0  0  0  0  0  0  0
  -24.4880  -11.5419   20.7496 C   0  0  0  0  0  0  0  0  0  0  0  0
  -25.3983  -19.5902   27.3828 C   0  0  0  0  0  0  0  0  0  0  0  0
  -25.9919  -18.4018   27.0186 C   0  0  0  0  0  0  0  0  0  0  0  0
  -24.1627  -17.8769   25.7503 C   0  0  0  0  0  0  0  0  0  0  0  0
  -23.5689  -19.0651   26.1152 C   0  0  0  0  0  0  0  0  0  0  0  0
  -25.0996  -13.6451   20.5564 C   0  0  0  0  0  0  0  0  0  0  0  0
  -22.7372  -13.3394   21.3139 C   0  0  0  0  0  0  0  0  0  0  0  0
  -28.1492  -20.7218   19.7525 C   0  0  0  0  0  0  0  0  0  0  0  0
  -28.8163  -23.8459   20.3158 C   0  0  0  0  0  0  0  0  0  0  0  0
  -27.9654  -26.7520   21.8897 C   0  0  0  0  0  0  0  0  0  0  0  0
  -30.5527  -14.8054   20.8077 C   0  0  0  0  0  0  0  0  0  0  0  0
  -31.3197  -18.2767   16.5859 C   0  0  0  0  0  0  0  0  0  0  0  0
  -25.9344  -21.8102   19.2370 C   0  0  0  0  0  0  0  0  0  0  0  0
  -27.0670  -22.7818   21.7900 C   0  0  0  0  0  0  0  0  0  0  0  0
  -31.4528  -19.3973   17.6139 C   0  0  0  0  0  0  0  0  0  0  0  0
  -29.4995  -12.4227   18.3808 C   0  0  0  0  0  0  0  0  0  0  0  0
  -30.7830  -19.0007   18.9256 C   0  0  0  0  0  0  0  0  0  0  0  0
  -28.0666  -12.0857   18.7969 C   0  0  0  0  0  0  0  0  0  0  0  0
  -30.3999  -12.6521   19.5927 C   0  0  0  0  0  0  0  0  0  0  0  0
  -28.4673  -13.3151   20.9710 C   0  0  0  0  0  0  0  0  0  0  0  0
  -29.2819  -18.7579   18.7272 C   0  0  1  0  0  0  0  0  0  0  0  0
  -27.4356  -22.0035   19.4276 C   0  0  1  0  0  0  0  0  0  0  0  0
  -27.5086  -13.1301   19.7824 C   0  0  2  0  0  0  0  0  0  0  0  0
  -26.0802  -20.5528   28.2938 C   0  0  0  0  0  0  0  0  0  0  0  0
  -24.1614  -15.5481   24.8213 C   0  0  0  0  0  0  0  0  0  0  0  0
  -28.7234  -29.1255   22.1884 C   0  0  0  0  0  0  0  0  0  0  0  0
  -30.9993  -22.9054   22.2289 C   0  0  0  0  0  0  0  0  0  0  0  0
  -31.0617  -25.2188   23.1842 C   0  0  0  0  0  0  0  0  0  0  0  0
  -31.6408  -24.8453   20.7868 C   0  0  0  0  0  0  0  0  0  0  0  0
  -25.4749  -27.8194   20.6994 C   0  0  0  0  0  0  0  0  0  0  0  0
  -23.4807  -16.9147   24.8390 C   0  0  0  0  0  0  0  0  0  0  0  0
  -27.3438  -18.0229   27.5190 C   0  0  0  0  0  0  0  0  0  0  0  0
  -22.1993  -19.4483   25.6096 C   0  0  0  0  0  0  0  0  0  0  0  0
  -28.1676  -17.1649   26.5408 C   0  0  0  0  0  0  0  0  0  0  0  0
  -28.4781  -17.8933   25.2293 C   0  0  0  0  0  0  0  0  0  0  0  0
  -29.3191  -17.0194   24.2954 C   0  0  0  0  0  0  0  0  0  0  0  0
  -29.6626  -17.7622   23.0009 C   0  0  0  0  0  0  0  0  0  0  0  0
  -30.5508  -16.9410   22.0721 C   0  0  0  0  0  0  0  0  0  0  0  0
  -22.2329  -19.9552   24.1718 C   0  0  0  0  0  0  0  0  0  1  0  0
  -29.2306  -24.6495   21.5247 C   0  0  1  0  0  0  0  0  0  0  0  0
  -27.8512  -28.1774   21.3802 C   0  0  2  0  0  0  0  0  0  0  0  0
  -30.7088  -24.3899   21.9308 C   0  0  0  0  0  0  0  0  0  0  0  0
  -25.7586  -11.4847   20.3417 N   0  0  0  0  0  0  0  0  0  0  0  0
  -24.1761  -19.9433   26.9377 N   0  0  0  0  0  0  0  0  0  0  0  0
  -25.3847  -17.5238   26.1957 N   0  0  0  0  0  0  0  0  0  0  0  0
  -26.1026  -12.7793   20.2330 N   0  0  0  0  0  0  0  0  0  0  0  0
  -27.7520  -22.9515   20.4979 N   0  0  0  0  0  0  0  0  0  0  0  0
  -29.8146  -13.6543   20.4865 N   0  0  0  0  0  0  0  0  0  0  0  0
  -25.2755  -14.9825   20.5021 N   0  0  0  0  0  0  0  0  0  0  0  0
  -21.7467  -12.3997   21.6304 N   0  0  0  0  0  0  0  0  0  0  0  0
  -28.5732  -20.0168   18.6422 N   0  0  0  0  0  0  0  0  0  0  0  0
  -28.9331  -26.0427   21.2103 N   0  0  0  0  0  0  0  0  0  0  0  0
  -29.9218  -15.7073   21.6559 N   0  0  0  0  0  0  0  0  0  0  0  0
  -26.4397  -28.6474   21.4679 N   0  3  0  0  0  0  0  0  0  0  0  0
  -22.4680  -14.5626   21.3846 O   0  0  0  0  0  0  0  0  0  0  0  0
  -28.3051  -20.3972   20.9238 O   0  0  0  0  0  0  0  0  0  0  0  0
  -29.4103  -24.0110   19.2474 O   0  0  0  0  0  0  0  0  0  0  0  0
  -27.2685  -26.3129   22.8019 O   0  0  0  0  0  0  0  0  0  0  0  0
  -31.6876  -15.0165   20.3668 O   0  0  0  0  0  0  0  0  0  0  0  0
  -21.6195   -6.8303   21.6660 O   0  0  0  0  0  0  0  0  0  0  0  0
  -23.0874  -21.0945   24.0820 O   0  0  0  0  0  0  0  0  0  1  0  0
  -22.0225   -2.8171   17.9063 F   0  0  0  0  0  0  0  0  0  0  0  0
  -19.3807   -5.9043   20.3345 F   0  0  0  0  0  0  0  0  0  0  0  0
  1  2  1  0  0  0  0
  1  5  2  0  0  0  0
  2  6  2  0  0  0  0
  3  8  2  0  0  0  0
  3 15  1  0  0  0  0
  4  9  1  0  0  0  0
  4 15  2  0  0  0  0
  5 17  1  0  0  0  0
  6 19  1  0  0  0  0
  7 10  2  0  0  0  0
  7 18  1  0  0  0  0
  8 21  1  0  0  0  0
  9 21  2  0  0  0  0
 10 22  1  0  0  0  0
 11 12  2  0  0  0  0
 11 23  1  0  0  0  0
 12 24  1  0  0  0  0
 13 20  1  0  0  0  0
 13 22  2  0  0  0  0
 14 24  2  0  0  0  0
 14 25  1  0  0  0  0
 15 26  1  0  0  0  0
 16 26  1  0  0  0  0
 16 31  2  0  0  0  0
 16 32  1  0  0  0  0
 17 19  2  0  0  0  0
 17 37  1  0  0  0  0
 18 20  2  0  0  0  0
 18 38  1  0  0  0  0
 19 46  1  0  0  0  0
 20 39  1  0  0  0  0
 21 85  1  0  0  0  0
 22 86  1  0  0  0  0
 23 25  2  0  0  0  0
 23 85  1  0  0  0  0
 24 87  1  0  0  0  0
 25 88  1  0  0  0  0
 26 68  2  0  0  0  0
 27 28  1  0  0  0  0
 27 49  1  0  0  0  0
 27 69  2  0  0  0  0
 28 57  1  0  0  0  0
 28 70  2  0  0  0  0
 29 30  2  0  0  0  0
 29 56  1  0  0  0  0
 29 70  1  0  0  0  0
 30 58  1  0  0  0  0
 30 69  1  0  0  0  0
 31 71  1  0  0  0  0
 31 74  1  0  0  0  0
 32 75  1  0  0  0  0
 32 80  2  0  0  0  0
 33 47  1  0  0  0  0
 33 76  1  0  0  0  0
 33 81  2  0  0  0  0
 34 65  1  0  0  0  0
 34 72  1  0  0  0  0
 34 82  2  0  0  0  0
 35 66  1  0  0  0  0
 35 77  1  0  0  0  0
 35 83  2  0  0  0  0
 36 73  1  0  0  0  0
 36 78  1  0  0  0  0
 36 84  2  0  0  0  0
 37 40  1  0  0  0  0
 38 47  1  0  0  0  0
 39 72  1  0  0  0  0
 40 42  1  0  0  0  0
 41 43  1  0  0  0  0
 41 44  1  0  0  0  0
 42 46  1  0  0  0  0
 43 48  1  0  0  0  0
 44 73  1  0  0  0  0
 45 48  1  0  0  0  0
 45 73  1  0  0  0  0
 46 76  1  0  0  0  0
 47 72  1  0  0  0  0
 48 71  1  0  0  0  0
 50 56  1  0  0  0  0
 51 66  1  0  0  0  0
 52 67  1  0  0  0  0
 53 67  1  0  0  0  0
 54 67  1  0  0  0  0
 55 79  1  0  0  0  0
 57 59  1  0  0  0  0
 58 64  1  0  0  0  0
 59 60  1  0  0  0  0
 60 61  1  0  0  0  0
 61 62  1  0  0  0  0
 62 63  1  0  0  0  0
 63 78  1  0  0  0  0
 64 86  1  0  0  0  0
 65 67  1  0  0  0  0
 65 77  1  0  0  0  0
 66 79  1  0  0  0  0
 68 71  1  0  0  0  0
M  CHG  1  79   1
M  ISO  4  36 100  64 101  78 100  86 101
M  END
> <Batch ID>
0039

> <Smiles>
CCc1nc(CCCCCC[100NH:0][100C:0](=O)N2CCCC(n3nc(-c4ccc(Oc5ccc(F)cc5F)cc4)c(C(N)=O)c3N)C2)c(C)nc1C[101CH2:1][101O:1]c1ccc2c(c1)CN(C(=O)C(NC(=O)C(C)NC)C(C)(C)C)C(C(=O)NC1CCCc3ccccc31)C2

> <Shape>
0.229

> <Color>
0.185

> <Negative vol penalty>
0.000

$$$$

  -OEChem-04052317043D

 81 89  0     1  0  0  0  0  0999 V2000
  -28.0353  -23.3016   18.6679 C   0  0  0  0  0  0  0  0  0  0  0  0
  -26.9166  -24.1139   18.8147 C   0  0  0  0  0  0  0  0  0  0  0  0
  -28.0754  -14.8261   21.1686 C   0  0  0  0  0  0  0  0  0  0  0  0
  -25.7940  -15.5509   20.8413 C   0  0  0  0  0  0  0  0  0  0  0  0
  -29.1356  -23.4795   19.5040 C   0  0  0  0  0  0  0  0  0  0  0  0
  -26.9024  -25.1121   19.7895 C   0  0  0  0  0  0  0  0  0  0  0  0
  -23.0668  -28.1929   19.7778 C   0  0  0  0  0  0  0  0  0  0  0  0
  -21.0950  -22.4351   23.8022 C   0  0  0  0  0  0  0  0  0  0  0  0
  -27.6962  -13.5110   20.8998 C   0  0  0  0  0  0  0  0  0  0  0  0
  -25.4148  -14.2357   20.5725 C   0  0  0  0  0  0  0  0  0  0  0  0
  -21.7894  -27.8078   20.1826 C   0  0  0  0  0  0  0  0  0  0  0  0
  -24.7438  -11.4273   22.3313 C   0  0  0  0  0  0  0  0  0  0  0  0
  -23.5818  -10.9510   22.9383 C   0  0  0  0  0  0  0  0  0  0  0  0
  -20.0525  -23.3540   23.8475 C   0  0  0  0  0  0  0  0  0  0  0  0
  -22.1119  -28.9612   22.2766 C   0  0  0  0  0  0  0  0  0  0  0  0
  -22.6140  -10.5402   20.7630 C   0  0  0  0  0  0  0  0  0  0  0  0
  -27.1243  -15.8460   21.1394 C   0  0  0  0  0  0  0  0  0  0  0  0
  -28.4564  -17.9795   20.7134 C   0  0  0  0  0  0  0  0  0  0  0  0
  -29.1291  -24.4724   20.4976 C   0  0  0  0  0  0  0  0  0  0  0  0
  -23.8818  -28.9572   20.6252 C   0  0  0  0  0  0  0  0  0  0  0  0
  -28.0124  -25.3230   20.6273 C   0  0  0  0  0  0  0  0  0  0  0  0
  -23.3982  -29.3569   21.8792 C   0  0  0  0  0  0  0  0  0  0  0  0
  -22.3929  -22.8757   23.5686 C   0  0  0  0  0  0  0  0  0  0  0  0
  -26.3659  -13.2158   20.6017 C   0  0  0  0  0  0  0  0  0  0  0  0
  -21.3129  -28.1895   21.4333 C   0  0  0  0  0  0  0  0  0  0  0  0
  -24.8409  -11.4602   20.9402 C   0  0  0  0  0  0  0  0  0  0  0  0
  -22.5169  -10.5074   22.1542 C   0  0  0  0  0  0  0  0  0  0  0  0
  -23.7760  -11.0166   20.1561 C   0  0  0  0  0  0  0  0  0  0  0  0
  -27.5153  -17.2047   21.4175 C   0  0  0  0  0  0  0  0  0  0  0  0
  -20.3580  -24.6916   23.6545 C   0  0  0  0  0  0  0  0  0  0  0  0
  -22.5937  -24.2347   23.3878 C   0  0  0  0  0  0  0  0  0  0  0  0
  -28.4651  -19.1872   21.3676 C   0  0  0  0  0  0  0  0  0  0  0  0
  -29.2516  -17.6382   19.5703 C   0  0  0  0  0  0  0  0  0  0  0  0
  -26.6985  -28.5122   22.0294 C   0  0  0  0  0  0  0  0  0  0  0  0
  -24.3471  -21.9352   24.7739 C   0  0  0  0  0  0  0  0  0  0  0  0
  -26.3120  -31.6108   22.9078 C   0  0  0  0  0  0  0  0  0  0  0  0
  -24.1804  -34.2064   23.5125 C   0  0  0  0  0  0  0  0  0  0  0  0
  -30.3500  -24.6265   21.3699 C   0  0  0  0  0  0  0  0  0  0  0  0
  -25.2470  -29.3871   20.1629 C   0  0  0  0  0  0  0  0  0  0  0  0
  -24.2259  -30.1946   22.8181 C   0  0  0  0  0  0  0  0  0  0  0  0
  -30.0705  -25.4048   22.6515 C   0  0  0  0  0  0  0  0  0  0  0  0
  -27.7227  -21.1309   25.6675 C   0  0  0  0  0  0  0  0  0  0  0  0
  -29.3309  -26.6938   22.3259 C   0  0  0  0  0  0  0  0  0  0  0  0
  -28.1280  -20.0825   24.6322 C   0  0  0  0  0  0  0  0  0  0  0  0
  -26.2506  -21.0016   26.0463 C   0  0  0  0  0  0  0  0  0  0  0  0
  -25.7200  -20.0057   23.8444 C   0  0  0  0  0  0  0  0  0  0  0  0
  -27.9623  -26.3952   21.7008 C   0  0  1  0  0  0  0  0  0  0  0  0
  -26.1870  -29.7307   21.3144 C   0  0  1  0  0  0  0  0  0  0  0  0
  -27.1922  -20.1208   23.4111 C   0  0  2  0  0  0  0  0  0  0  0  0
  -23.9670  -24.7656   23.1366 C   0  0  0  0  0  0  0  0  0  0  0  0
  -23.4567  -36.5507   24.0398 C   0  0  0  0  0  0  0  0  0  0  0  0
  -26.7894  -30.7234   25.7878 C   0  0  0  0  0  0  0  0  0  0  0  0
  -25.8308  -32.9083   26.5464 C   0  0  0  0  0  0  0  0  0  0  0  0
  -27.9042  -32.8722   25.1599 C   0  0  0  0  0  0  0  0  0  0  0  0
  -24.2295  -34.9873   20.6583 C   0  0  0  0  0  0  0  0  0  0  0  0
  -23.5138  -21.8960   23.5176 C   0  0  0  0  0  0  0  0  0  0  0  0
  -19.2522  -25.7157   23.6988 C   0  0  0  0  0  0  0  0  0  0  0  0
  -18.6040  -25.9815   22.3384 C   0  0  0  0  0  0  0  0  0  0  0  0
  -19.5651  -26.5808   21.3184 C   0  0  0  0  0  0  0  0  0  1  0  0
  -25.6842  -32.3181   24.0845 C   0  0  1  0  0  0  0  0  0  0  0  0
  -24.2066  -35.6566   23.0646 C   0  0  2  0  0  0  0  0  0  0  0  0
  -26.5370  -32.1881   25.3780 C   0  0  0  0  0  0  0  0  0  0  0  0
  -26.9661  -17.8646   22.4407 N   0  0  0  0  0  0  0  0  0  0  0  0
  -21.6062  -25.1573   23.4250 N   0  0  0  0  0  0  0  0  0  0  0  0
  -27.5640  -19.0669   22.3843 N   0  0  0  0  0  0  0  0  0  0  0  0
  -25.5565  -30.5845   22.3232 N   0  0  0  0  0  0  0  0  0  0  0  0
  -25.3964  -21.0198   24.8576 N   0  0  0  0  0  0  0  0  0  0  0  0
  -29.1555  -20.3297   21.1665 N   0  0  0  0  0  0  0  0  0  0  0  0
  -28.7290  -17.8883   18.2941 N   0  0  0  0  0  0  0  0  0  0  0  0
  -27.3847  -27.6298   21.2170 N   0  0  0  0  0  0  0  0  0  0  0  0
  -25.4521  -33.6937   23.6575 N   0  0  0  0  0  0  0  0  0  0  0  0
  -23.5772  -35.7951   21.7208 N   0  3  0  0  0  0  0  0  0  0  0  0
  -30.3850  -17.1114   19.6771 O   0  0  0  0  0  0  0  0  0  0  0  0
  -26.4875  -28.3829   23.2296 O   0  0  0  0  0  0  0  0  0  0  0  0
  -24.0739  -22.7575   25.6521 O   0  0  0  0  0  0  0  0  0  0  0  0
  -27.4284  -31.9609   22.5172 O   0  0  0  0  0  0  0  0  0  0  0  0
  -23.1363  -33.5912   23.7172 O   0  0  0  0  0  0  0  0  0  0  0  0
  -25.9955  -11.9326   20.3391 O   0  0  0  0  0  0  0  0  0  0  0  0
  -20.0668  -27.8143   21.8312 O   0  0  0  0  0  0  0  0  0  1  0  0
  -21.4017  -10.0485   22.7372 F   0  0  0  0  0  0  0  0  0  0  0  0
  -23.8639  -11.0446   18.8192 F   0  0  0  0  0  0  0  0  0  0  0  0
  1  2  1  0  0  0  0
  1  5  2  0  0  0  0
  2  6  2  0  0  0  0
  3  9  2  0  0  0  0
  3 17  1  0  0  0  0
  4 10  1  0  0  0  0
  4 17  2  0  0  0  0
  5 19  1  0  0  0  0
  6 21  1  0  0  0  0
  7 11  2  0  0  0  0
  7 20  1  0  0  0  0
  8 14  2  0  0  0  0
  8 23  1  0  0  0  0
  9 24  1  0  0  0  0
 10 24  2  0  0  0  0
 11 25  1  0  0  0  0
 12 13  2  0  0  0  0
 12 26  1  0  0  0  0
 13 27  1  0  0  0  0
 14 30  1  0  0  0  0
 15 22  1  0  0  0  0
 15 25  2  0  0  0  0
 16 27  2  0  0  0  0
 16 28  1  0  0  0  0
 17 29  1  0  0  0  0
 18 29  1  0  0  0  0
 18 32  2  0  0  0  0
 18 33  1  0  0  0  0
 19 21  2  0  0  0  0
 19 38  1  0  0  0  0
 20 22  2  0  0  0  0
 20 39  1  0  0  0  0
 21 47  1  0  0  0  0
 22 40  1  0  0  0  0
 23 31  2  0  0  0  0
 23 56  1  0  0  0  0
 24 78  1  0  0  0  0
 25 79  1  0  0  0  0
 26 28  2  0  0  0  0
 26 78  1  0  0  0  0
 27 80  1  0  0  0  0
 28 81  1  0  0  0  0
 29 63  2  0  0  0  0
 30 57  1  0  0  0  0
 30 64  2  0  0  0  0
 31 50  1  0  0  0  0
 31 64  1  0  0  0  0
 32 65  1  0  0  0  0
 32 68  1  0  0  0  0
 33 69  1  0  0  0  0
 33 73  2  0  0  0  0
 34 48  1  0  0  0  0
 34 70  1  0  0  0  0
 34 74  2  0  0  0  0
 35 56  1  0  0  0  0
 35 67  1  0  0  0  0
 35 75  2  0  0  0  0
 36 60  1  0  0  0  0
 36 66  1  0  0  0  0
 36 76  2  0  0  0  0
 37 61  1  0  0  0  0
 37 71  1  0  0  0  0
 37 77  2  0  0  0  0
 38 41  1  0  0  0  0
 39 48  1  0  0  0  0
 40 66  1  0  0  0  0
 41 43  1  0  0  0  0
 42 44  1  0  0  0  0
 42 45  1  0  0  0  0
 43 47  1  0  0  0  0
 44 49  1  0  0  0  0
 45 67  1  0  0  0  0
 46 49  1  0  0  0  0
 46 67  1  0  0  0  0
 47 70  1  0  0  0  0
 48 66  1  0  0  0  0
 49 65  1  0  0  0  0
 51 61  1  0  0  0  0
 52 62  1  0  0  0  0
 53 62  1  0  0  0  0
 54 62  1  0  0  0  0
 55 72  1  0  0  0  0
 57 58  1  0  0  0  0
 58 59  1  0  0  0  0
 59 79  1  0  0  0  0
 60 62  1  0  0  0  0
 60 71  1  0  0  0  0
 61 72  1  0  0  0  0
 63 65  1  0  0  0  0
M  CHG  1  72   1
M  ISO  4  35 100  56 100  59 101  79 101
M  END
> <Batch ID>
0039

> <Smiles>
CNC(C)C(=O)NC(C(=O)N1Cc2cc([101O:1][101CH2:1]CCc3ccc([100CH2:0][100C:0](=O)N4CCCC(n5nc(-c6ccc(Oc7ccc(F)cc7F)cc6)c(C(N)=O)c5N)C4)c(C)n3)ccc2CC1C(=O)NC1CCCc2ccccc21)C(C)(C)C

> <Shape>
0.277

> <Color>
0.074

> <Negative vol penalty>
0.000

$$$$

  -OEChem-04052317043D

 88 96  0     1  0  0  0  0  0999 V2000
  -24.1740  -17.1667   14.2004 C   0  0  0  0  0  0  0  0  0  0  0  0
  -24.1311  -18.5093   14.5624 C   0  0  0  0  0  0  0  0  0  0  0  0
  -28.0466  -17.6368   20.5793 C   0  0  0  0  0  0  0  0  0  0  0  0
  -29.9910  -17.9815   21.9712 C   0  0  0  0  0  0  0  0  0  0  0  0
  -23.3867  -16.2374   14.8789 C   0  0  0  0  0  0  0  0  0  0  0  0
  -23.2998  -18.9235   15.6026 C   0  0  0  0  0  0  0  0  0  0  0  0
  -25.6045  -22.1319   18.7712 C   0  0  0  0  0  0  0  0  0  0  0  0
  -24.3138  -31.0987   21.9009 C   0  0  0  0  0  0  0  0  0  0  0  0
  -23.5427  -30.8639   20.7626 C   0  0  0  0  0  0  0  0  0  0  0  0
  -28.1375  -16.2614   20.7929 C   0  0  0  0  0  0  0  0  0  0  0  0
  -30.0818  -16.6061   22.1850 C   0  0  0  0  0  0  0  0  0  0  0  0
  -25.7317  -23.4564   18.3551 C   0  0  0  0  0  0  0  0  0  0  0  0
  -28.0727  -12.6273   20.6812 C   0  0  0  0  0  0  0  0  0  0  0  0
  -27.9265  -11.7869   19.5776 C   0  0  0  0  0  0  0  0  0  0  0  0
  -23.8325  -24.0596   19.7145 C   0  0  0  0  0  0  0  0  0  0  0  0
  -29.8341  -12.8338   18.5277 C   0  0  0  0  0  0  0  0  0  0  0  0
  -28.9734  -18.4969   21.1683 C   0  0  0  0  0  0  0  0  0  0  0  0
  -28.1634  -20.8526   21.7179 C   0  0  0  0  0  0  0  0  0  0  0  0
  -22.5527  -16.6389   15.9343 C   0  0  0  0  0  0  0  0  0  0  0  0
  -24.5818  -21.7586   19.6551 C   0  0  0  0  0  0  0  0  0  0  0  0
  -22.4996  -17.9989   16.2950 C   0  0  0  0  0  0  0  0  0  0  0  0
  -23.6960  -22.7302   20.1423 C   0  0  0  0  0  0  0  0  0  0  0  0
  -25.4415  -30.3172   22.1528 C   0  0  0  0  0  0  0  0  0  0  0  0
  -23.8991  -29.8477   19.8761 C   0  0  0  0  0  0  0  0  0  0  0  0
  -25.7979  -29.3010   21.2663 C   0  0  0  0  0  0  0  0  0  0  0  0
  -25.0267  -29.0662   20.1280 C   0  0  0  0  0  0  0  0  0  0  0  0
  -29.1550  -15.7461   21.5958 C   0  0  0  0  0  0  0  0  0  0  0  0
  -24.8439  -24.4200   18.8245 C   0  0  0  0  0  0  0  0  0  0  0  0
  -29.0995  -13.5710   20.7081 C   0  0  0  0  0  0  0  0  0  0  0  0
  -28.8072  -11.8901   18.5009 C   0  0  0  0  0  0  0  0  0  0  0  0
  -29.9802  -13.6742   19.6313 C   0  0  0  0  0  0  0  0  0  0  0  0
  -28.8804  -19.9177   20.9475 C   0  0  0  0  0  0  0  0  0  0  0  0
  -28.3941  -22.0567   21.0988 C   0  0  0  0  0  0  0  0  0  0  0  0
  -27.3606  -20.6507   22.8885 C   0  0  0  0  0  0  0  0  0  0  0  0
  -22.0898  -19.7915   19.4999 C   0  0  0  0  0  0  0  0  0  0  0  0
  -21.7932  -20.5468   22.6406 C   0  0  0  0  0  0  0  0  0  0  0  0
  -22.4187  -22.7635   25.1589 C   0  0  0  0  0  0  0  0  0  0  0  0
  -31.8588  -25.6938   18.6673 C   0  0  0  0  0  0  0  0  0  0  0  0
  -21.6844  -15.6053   16.6069 C   0  0  0  0  0  0  0  0  0  0  0  0
  -24.4745  -20.3306   20.1153 C   0  0  0  0  0  0  0  0  0  0  0  0
  -22.5934  -22.3848   21.1085 C   0  0  0  0  0  0  0  0  0  0  0  0
  -21.1119  -16.0679   17.9443 C   0  0  0  0  0  0  0  0  0  0  0  0
  -30.5105  -23.1069   16.6261 C   0  0  0  0  0  0  0  0  0  0  0  0
  -20.5392  -17.4763   17.8213 C   0  0  0  0  0  0  0  0  0  0  0  0
  -29.9130  -22.1213   17.6319 C   0  0  0  0  0  0  0  0  0  0  0  0
  -31.7993  -23.7364   17.1503 C   0  0  0  0  0  0  0  0  0  0  0  0
  -31.0866  -23.3842   19.4830 C   0  0  0  0  0  0  0  0  0  0  0  0
  -21.6292  -18.4832   17.4343 C   0  0  1  0  0  0  0  0  0  0  0  0
  -23.0801  -19.9675   20.6162 C   0  0  1  0  0  0  0  0  0  0  0  0
  -29.7557  -22.7654   19.0225 C   0  0  2  0  0  0  0  0  0  0  0  0
  -26.2501  -30.5899   23.3788 C   0  0  0  0  0  0  0  0  0  0  0  0
  -22.1228  -30.6225   16.5370 C   0  0  0  0  0  0  0  0  0  0  0  0
  -22.0194  -23.1245   27.6099 C   0  0  0  0  0  0  0  0  0  0  0  0
  -18.9001  -21.3180   22.0531 C   0  0  0  0  0  0  0  0  0  0  0  0
  -18.8522  -22.5314   24.2426 C   0  0  0  0  0  0  0  0  0  0  0  0
  -19.2323  -20.0665   24.1927 C   0  0  0  0  0  0  0  0  0  0  0  0
  -25.3193  -22.7880   25.7462 C   0  0  0  0  0  0  0  0  0  0  0  0
  -23.0549  -29.6159   18.6656 C   0  0  0  0  0  0  0  0  0  0  0  0
  -27.0084  -28.4653   21.5383 C   0  0  0  0  0  0  0  0  0  0  0  0
  -25.4100  -27.9659   19.1684 C   0  0  0  0  0  0  0  0  0  0  0  0
  -22.9546  -30.8700   17.7855 C   0  0  0  0  0  0  0  0  0  0  0  0
  -28.2015  -28.8764   20.6651 C   0  0  0  0  0  0  0  0  0  0  0  0
  -29.4219  -27.9906   20.9240 C   0  0  0  0  0  0  0  0  0  0  0  0
  -30.6188  -28.4330   20.0772 C   0  0  0  0  0  0  0  0  0  0  0  0
  -31.8498  -27.5612   20.3019 C   0  0  0  0  0  0  0  0  0  0  0  0
  -24.5422  -26.7232   19.3347 C   0  0  0  0  0  0  0  0  0  1  0  0
  -21.0706  -21.6200   23.4184 C   0  0  1  0  0  0  0  0  0  0  0  0
  -22.9683  -22.5672   26.5603 C   0  0  2  0  0  0  0  0  0  0  0  0
  -19.5333  -21.3905   23.4570 C   0  0  0  0  0  0  0  0  0  0  0  0
  -29.5188  -20.4796   19.9175 N   0  0  0  0  0  0  0  0  0  0  0  0
  -29.2035  -21.7806   20.0364 N   0  0  0  0  0  0  0  0  0  0  0  0
  -22.5257  -20.9740   21.5240 N   0  0  0  0  0  0  0  0  0  0  0  0
  -31.5817  -24.3308   18.4713 N   0  0  0  0  0  0  0  0  0  0  0  0
  -27.9815  -23.3142   21.3649 N   0  0  0  0  0  0  0  0  0  0  0  0
  -27.2295  -19.3494   23.3925 N   0  0  0  0  0  0  0  0  0  0  0  0
  -22.4406  -18.8169   18.5852 N   0  0  0  0  0  0  0  0  0  0  0  0
  -21.7011  -21.6658   24.7333 N   0  0  0  0  0  0  0  0  0  0  0  0
  -31.6190  -26.1785   19.9472 N   0  0  0  0  0  0  0  0  0  0  0  0
  -24.2826  -23.2551   26.7023 N   0  3  0  0  0  0  0  0  0  0  0  0
  -26.7633  -21.5937   23.4608 O   0  0  0  0  0  0  0  0  0  0  0  0
  -21.0815  -20.4872   19.4714 O   0  0  0  0  0  0  0  0  0  0  0  0
  -21.7167  -19.3738   23.0143 O   0  0  0  0  0  0  0  0  0  0  0  0
  -22.6042  -23.7897   24.5084 O   0  0  0  0  0  0  0  0  0  0  0  0
  -32.2833  -26.4259   17.7667 O   0  0  0  0  0  0  0  0  0  0  0  0
  -29.2439  -14.4041   21.8048 O   0  0  0  0  0  0  0  0  0  0  0  0
  -24.9654  -25.7134   18.4194 O   0  0  0  0  0  0  0  0  0  1  0  0
  -28.6676  -11.0820   17.4418 F   0  0  0  0  0  0  0  0  0  0  0  0
  -30.9694  -14.5781   19.6519 F   0  0  0  0  0  0  0  0  0  0  0  0
  1  2  1  0  0  0  0
  1  5  2  0  0  0  0
  2  6  2  0  0  0  0
  3 10  2  0  0  0  0
  3 17  1  0  0  0  0
  4 11  1  0  0  0  0
  4 17  2  0  0  0  0
  5 19  1  0  0  0  0
  6 21  1  0  0  0  0
  7 12  2  0  0  0  0
  7 20  1  0  0  0  0
  8  9  2  0  0  0  0
  8 23  1  0  0  0  0
  9 24  1  0  0  0  0
 10 27  1  0  0  0  0
 11 27  2  0  0  0  0
 12 28  1  0  0  0  0
 13 14  2  0  0  0  0
 13 29  1  0  0  0  0
 14 30  1  0  0  0  0
 15 22  1  0  0  0  0
 15 28  2  0  0  0  0
 16 30  2  0  0  0  0
 16 31  1  0  0  0  0
 17 32  1  0  0  0  0
 18 32  1  0  0  0  0
 18 33  2  0  0  0  0
 18 34  1  0  0  0  0
 19 21  2  0  0  0  0
 19 39  1  0  0  0  0
 20 22  2  0  0  0  0
 20 40  1  0  0  0  0
 21 48  1  0  0  0  0
 22 41  1  0  0  0  0
 23 25  2  0  0  0  0
 23 51  1  0  0  0  0
 24 26  2  0  0  0  0
 24 58  1  0  0  0  0
 25 26  1  0  0  0  0
 25 59  1  0  0  0  0
 26 60  1  0  0  0  0
 27 85  1  0  0  0  0
 28 86  1  0  0  0  0
 29 31  2  0  0  0  0
 29 85  1  0  0  0  0
 30 87  1  0  0  0  0
 31 88  1  0  0  0  0
 32 70  2  0  0  0  0
 33 71  1  0  0  0  0
 33 74  1  0  0  0  0
 34 75  1  0  0  0  0
 34 80  2  0  0  0  0
 35 49  1  0  0  0  0
 35 76  1  0  0  0  0
 35 81  2  0  0  0  0
 36 67  1  0  0  0  0
 36 72  1  0  0  0  0
 36 82  2  0  0  0  0
 37 68  1  0  0  0  0
 37 77  1  0  0  0  0
 37 83  2  0  0  0  0
 38 73  1  0  0  0  0
 38 78  1  0  0  0  0
 38 84  2  0  0  0  0
 39 42  1  0  0  0  0
 40 49  1  0  0  0  0
 41 72  1  0  0  0  0
 42 44  1  0  0  0  0
 43 45  1  0  0  0  0
 43 46  1  0  0  0  0
 44 48  1  0  0  0  0
 45 50  1  0  0  0  0
 46 73  1  0  0  0  0
 47 50  1  0  0  0  0
 47 73  1  0  0  0  0
 48 76  1  0  0  0  0
 49 72  1  0  0  0  0
 50 71  1  0  0  0  0
 52 61  1  0  0  0  0
 53 68  1  0  0  0  0
 54 69  1  0  0  0  0
 55 69  1  0  0  0  0
 56 69  1  0  0  0  0
 57 79  1  0  0  0  0
 58 61  1  0  0  0  0
 59 62  1  0  0  0  0
 60 66  1  0  0  0  0
 62 63  1  0  0  0  0
 63 64  1  0  0  0  0
 64 65  1  0  0  0  0
 65 78  1  0  0  0  0
 66 86  1  0  0  0  0
 67 69  1  0  0  0  0
 67 77  1  0  0  0  0
 68 79  1  0  0  0  0
 70 71  1  0  0  0  0
M  CHG  1  79   1
M  ISO  4  38 100  66 101  78 100  86 101
M  END
> <Batch ID>
0039

> <Smiles>
CCCc1ccc(C)c(CCCCC[100NH:0][100C:0](=O)N2CCCC(n3nc(-c4ccc(Oc5ccc(F)cc5F)cc4)c(C(N)=O)c3N)C2)c1C[101CH2:1][101O:1]c1ccc2c(c1)CN(C(=O)C(NC(=O)C(C)NC)C(C)(C)C)C(C(=O)NC1CCCc3ccccc31)C2

> <Shape>
0.211

> <Color>
0.056

> <Negative vol penalty>
0.000

$$$$

  -OEChem-04052317043D

 86 94  0     1  0  0  0  0  0999 V2000
  -27.6422  -10.2082   21.1903 C   0  0  0  0  0  0  0  0  0  0  0  0
  -28.3330  -11.3857   20.9224 C   0  0  0  0  0  0  0  0  0  0  0  0
  -19.5496  -28.1248   23.4490 C   0  0  0  0  0  0  0  0  0  0  0  0
  -20.1768  -26.1506   22.2054 C   0  0  0  0  0  0  0  0  0  0  0  0
  -26.2509  -10.1824   21.1037 C   0  0  0  0  0  0  0  0  0  0  0  0
  -27.6328  -12.5379   20.5666 C   0  0  0  0  0  0  0  0  0  0  0  0
  -29.0803  -18.3143   21.9961 C   0  0  0  0  0  0  0  0  0  0  0  0
  -18.2044  -27.7804   23.3173 C   0  0  0  0  0  0  0  0  0  0  0  0
  -18.8315  -25.8062   22.0738 C   0  0  0  0  0  0  0  0  0  0  0  0
  -29.7311  -19.3217   21.2851 C   0  0  0  0  0  0  0  0  0  0  0  0
  -15.5807  -24.2171   21.7204 C   0  0  0  0  0  0  0  0  0  0  0  0
  -15.2248  -22.8885   21.9525 C   0  0  0  0  0  0  0  0  0  0  0  0
  -27.5952  -20.2162   20.6092 C   0  0  0  0  0  0  0  0  0  0  0  0
  -31.9005  -24.4541   20.4192 C   0  0  0  0  0  0  0  0  0  0  0  0
  -29.9382  -24.2830   19.0202 C   0  0  0  0  0  0  0  0  0  0  0  0
  -16.0692  -23.0569   24.2100 C   0  0  0  0  0  0  0  0  0  0  0  0
  -20.5359  -27.3099   22.8930 C   0  0  0  0  0  0  0  0  0  0  0  0
  -22.8020  -27.2909   24.0643 C   0  0  0  0  0  0  0  0  0  0  0  0
  -25.5327  -11.3374   20.7560 C   0  0  0  0  0  0  0  0  0  0  0  0
  -27.6798  -18.2439   22.0100 C   0  0  0  0  0  0  0  0  0  0  0  0
  -26.2307  -12.5272   20.4739 C   0  0  0  0  0  0  0  0  0  0  0  0
  -26.9290  -19.2085   21.3232 C   0  0  0  0  0  0  0  0  0  0  0  0
  -31.1283  -23.7393   19.5035 C   0  0  0  0  0  0  0  0  0  0  0  0
  -31.4825  -25.7127   20.8516 C   0  0  0  0  0  0  0  0  0  0  0  0
  -29.5202  -25.5417   19.4526 C   0  0  0  0  0  0  0  0  0  0  0  0
  -30.2924  -26.2565   20.3683 C   0  0  0  0  0  0  0  0  0  0  0  0
  -17.8453  -26.6211   22.6297 C   0  0  0  0  0  0  0  0  0  0  0  0
  -28.9886  -20.2711   20.5891 C   0  0  0  0  0  0  0  0  0  0  0  0
  -16.1808  -24.9656   22.7330 C   0  0  0  0  0  0  0  0  0  0  0  0
  -15.4691  -22.3084   23.1973 C   0  0  0  0  0  0  0  0  0  0  0  0
  -16.4250  -24.3854   23.9778 C   0  0  0  0  0  0  0  0  0  0  0  0
  -21.9256  -27.6654   23.0282 C   0  0  0  0  0  0  0  0  0  0  0  0
  -23.9978  -27.8790   23.7320 C   0  0  0  0  0  0  0  0  0  0  0  0
  -22.5570  -26.4834   25.2235 C   0  0  0  0  0  0  0  0  0  0  0  0
  -25.5315  -16.1108   21.0413 C   0  0  0  0  0  0  0  0  0  0  0  0
  -23.4464  -18.1343   22.4836 C   0  0  0  0  0  0  0  0  0  0  0  0
  -22.7561  -21.2969   23.5646 C   0  0  0  0  0  0  0  0  0  0  0  0
  -26.3638  -29.6471   18.5236 C   0  0  0  0  0  0  0  0  0  0  0  0
  -24.0325  -11.2486   20.6291 C   0  0  0  0  0  0  0  0  0  0  0  0
  -26.9925  -17.1668   22.8037 C   0  0  0  0  0  0  0  0  0  0  0  0
  -25.4229  -19.1890   21.3232 C   0  0  0  0  0  0  0  0  0  0  0  0
  -23.3412  -12.6095   20.6108 C   0  0  0  0  0  0  0  0  0  0  0  0
  -25.7953  -31.6553   21.4082 C   0  0  0  0  0  0  0  0  0  0  0  0
  -24.0596  -13.5605   19.6588 C   0  0  0  0  0  0  0  0  0  0  0  0
  -24.8182  -30.8266   22.2439 C   0  0  0  0  0  0  0  0  0  0  0  0
  -25.5183  -31.5156   19.9129 C   0  0  0  0  0  0  0  0  0  0  0  0
  -24.4981  -29.2983   20.2539 C   0  0  0  0  0  0  0  0  0  0  0  0
  -25.5051  -13.8041   20.1089 C   0  0  1  0  0  0  0  0  0  0  0  0
  -25.5705  -16.8881   22.3265 C   0  0  1  0  0  0  0  0  0  0  0  0
  -24.7729  -29.3628   21.7660 C   0  0  2  0  0  0  0  0  0  0  0  0
  -33.7442  -26.6911   21.3141 C   0  0  0  0  0  0  0  0  0  0  0  0
  -29.2420  -27.5643   22.2318 C   0  0  0  0  0  0  0  0  0  0  0  0
  -20.9565  -22.6518   24.6705 C   0  0  0  0  0  0  0  0  0  0  0  0
  -21.8814  -18.1884   19.8649 C   0  0  0  0  0  0  0  0  0  0  0  0
  -20.6935  -20.2288   20.6978 C   0  0  0  0  0  0  0  0  0  0  0  0
  -20.4665  -18.0681   21.9235 C   0  0  0  0  0  0  0  0  0  0  0  0
  -24.5000  -21.9497   25.8650 C   0  0  0  0  0  0  0  0  0  0  0  0
  -31.5803  -22.3771   19.0362 C   0  0  0  0  0  0  0  0  0  0  0  0
  -32.3282  -26.4581   21.8318 C   0  0  0  0  0  0  0  0  0  0  0  0
  -28.2419  -26.1018   18.9197 C   0  0  0  0  0  0  0  0  0  0  0  0
  -29.8447  -27.6061   20.8317 C   0  0  0  0  0  0  0  0  0  0  0  0
  -28.4225  -27.1414   17.7975 C   0  0  0  0  0  0  0  0  0  0  0  0
  -27.1143  -27.6749   17.2174 C   0  0  0  0  0  0  0  0  0  0  0  0
  -31.0481  -21.2546   19.9205 C   0  0  0  0  0  0  0  0  0  1  0  0
  -22.6488  -19.3387   22.0452 C   0  0  1  0  0  0  0  0  0  0  0  0
  -22.2076  -21.8137   24.8824 C   0  0  2  0  0  0  0  0  0  0  0  0
  -21.4509  -18.9555   21.1311 C   0  0  0  0  0  0  0  0  0  0  0  0
  -22.5145  -28.4322   22.1067 N   0  0  0  0  0  0  0  0  0  0  0  0
  -23.7737  -28.5445   22.5627 N   0  0  0  0  0  0  0  0  0  0  0  0
  -24.7973  -18.1124   22.1088 N   0  0  0  0  0  0  0  0  0  0  0  0
  -25.4901  -30.1035   19.5243 N   0  0  0  0  0  0  0  0  0  0  0  0
  -25.2087  -27.8869   24.3288 N   0  0  0  0  0  0  0  0  0  0  0  0
  -21.2716  -25.9574   25.4118 N   0  0  0  0  0  0  0  0  0  0  0  0
  -25.5398  -14.7397   21.2126 N   0  0  0  0  0  0  0  0  0  0  0  0
  -22.2683  -20.0424   23.2652 N   0  0  0  0  0  0  0  0  0  0  0  0
  -26.2765  -28.2939   18.2202 N   0  0  0  0  0  0  0  0  0  0  0  0
  -23.2256  -22.6551   25.5728 N   0  3  0  0  0  0  0  0  0  0  0  0
  -23.4471  -26.2493   26.0758 O   0  0  0  0  0  0  0  0  0  0  0  0
  -25.4949  -16.7106   19.9733 O   0  0  0  0  0  0  0  0  0  0  0  0
  -22.8931  -17.2491   23.1407 O   0  0  0  0  0  0  0  0  0  0  0  0
  -23.5362  -21.9430   22.8685 O   0  0  0  0  0  0  0  0  0  0  0  0
  -27.1662  -30.3894   17.9473 O   0  0  0  0  0  0  0  0  0  0  0  0
  -16.5328  -26.2847   22.5012 O   0  0  0  0  0  0  0  0  0  0  0  0
  -29.6213  -21.2550   19.8938 O   0  0  0  0  0  0  0  0  0  1  0  0
  -15.1259  -21.0330   23.4206 F   0  0  0  0  0  0  0  0  0  0  0  0
  -17.0002  -25.0998   24.9549 F   0  0  0  0  0  0  0  0  0  0  0  0
  1  2  1  0  0  0  0
  1  5  2  0  0  0  0
  2  6  2  0  0  0  0
  3  8  2  0  0  0  0
  3 17  1  0  0  0  0
  4  9  1  0  0  0  0
  4 17  2  0  0  0  0
  5 19  1  0  0  0  0
  6 21  1  0  0  0  0
  7 10  2  0  0  0  0
  7 20  1  0  0  0  0
  8 27  1  0  0  0  0
  9 27  2  0  0  0  0
 10 28  1  0  0  0  0
 11 12  2  0  0  0  0
 11 29  1  0  0  0  0
 12 30  1  0  0  0  0
 13 22  1  0  0  0  0
 13 28  2  0  0  0  0
 14 23  2  0  0  0  0
 14 24  1  0  0  0  0
 15 23  1  0  0  0  0
 15 25  2  0  0  0  0
 16 30  2  0  0  0  0
 16 31  1  0  0  0  0
 17 32  1  0  0  0  0
 18 32  1  0  0  0  0
 18 33  2  0  0  0  0
 18 34  1  0  0  0  0
 19 21  2  0  0  0  0
 19 39  1  0  0  0  0
 20 22  2  0  0  0  0
 20 40  1  0  0  0  0
 21 48  1  0  0  0  0
 22 41  1  0  0  0  0
 23 58  1  0  0  0  0
 24 26  2  0  0  0  0
 24 59  1  0  0  0  0
 25 26  1  0  0  0  0
 25 60  1  0  0  0  0
 26 61  1  0  0  0  0
 27 83  1  0  0  0  0
 28 84  1  0  0  0  0
 29 31  2  0  0  0  0
 29 83  1  0  0  0  0
 30 85  1  0  0  0  0
 31 86  1  0  0  0  0
 32 68  2  0  0  0  0
 33 69  1  0  0  0  0
 33 72  1  0  0  0  0
 34 73  1  0  0  0  0
 34 78  2  0  0  0  0
 35 49  1  0  0  0  0
 35 74  1  0  0  0  0
 35 79  2  0  0  0  0
 36 65  1  0  0  0  0
 36 70  1  0  0  0  0
 36 80  2  0  0  0  0
 37 66  1  0  0  0  0
 37 75  1  0  0  0  0
 37 81  2  0  0  0  0
 38 71  1  0  0  0  0
 38 76  1  0  0  0  0
 38 82  2  0  0  0  0
 39 42  1  0  0  0  0
 40 49  1  0  0  0  0
 41 70  1  0  0  0  0
 42 44  1  0  0  0  0
 43 45  1  0  0  0  0
 43 46  1  0  0  0  0
 44 48  1  0  0  0  0
 45 50  1  0  0  0  0
 46 71  1  0  0  0  0
 47 50  1  0  0  0  0
 47 71  1  0  0  0  0
 48 74  1  0  0  0  0
 49 70  1  0  0  0  0
 50 69  1  0  0  0  0
 51 59  1  0  0  0  0
 52 61  1  0  0  0  0
 53 66  1  0  0  0  0
 54 67  1  0  0  0  0
 55 67  1  0  0  0  0
 56 67  1  0  0  0  0
 57 77  1  0  0  0  0
 58 64  1  0  0  0  0
 60 62  1  0  0  0  0
 62 63  1  0  0  0  0
 63 76  1  0  0  0  0
 64 84  1  0  0  0  0
 65 67  1  0  0  0  0
 65 75  1  0  0  0  0
 66 77  1  0  0  0  0
 68 69  1  0  0  0  0
M  CHG  1  77   1
M  ISO  4  38 100  64 101  76 100  84 101
M  END
> <Batch ID>
0039

> <Smiles>
CCc1cc(C[101CH2:1][101O:1]c2ccc3c(c2)CN(C(=O)C(NC(=O)C(C)NC)C(C)(C)C)C(C(=O)NC2CCCc4ccccc42)C3)cc(CCC[100NH:0][100C:0](=O)N2CCCC(n3nc(-c4ccc(Oc5ccc(F)cc5F)cc4)c(C(N)=O)c3N)C2)c1CC

> <Shape>
0.213

> <Color>
0.060

> <Negative vol penalty>
0.000

$$$$

  -OEChem-04052317043D

 84 92  0     1  0  0  0  0  0999 V2000
  -17.6024  -31.5756   19.9608 C   0  0  0  0  0  0  0  0  0  0  0  0
  -18.9375  -31.5606   19.5700 C   0  0  0  0  0  0  0  0  0  0  0  0
  -28.5103  -10.9284   21.1157 C   0  0  0  0  0  0  0  0  0  0  0  0
  -26.7205  -12.1088   20.0020 C   0  0  0  0  0  0  0  0  0  0  0  0
  -17.2555  -31.2303   21.2663 C   0  0  0  0  0  0  0  0  0  0  0  0
  -19.9266  -31.2012   20.4848 C   0  0  0  0  0  0  0  0  0  0  0  0
  -25.1023  -28.1488   19.3012 C   0  0  0  0  0  0  0  0  0  0  0  0
  -27.7559   -9.7556   21.0851 C   0  0  0  0  0  0  0  0  0  0  0  0
  -25.9661  -10.9360   19.9714 C   0  0  0  0  0  0  0  0  0  0  0  0
  -26.4147  -28.5719   19.0957 C   0  0  0  0  0  0  0  0  0  0  0  0
  -24.0570   -9.1452   22.1113 C   0  0  0  0  0  0  0  0  0  0  0  0
  -22.7120   -9.2303   22.4710 C   0  0  0  0  0  0  0  0  0  0  0  0
  -26.9093  -28.1465   21.4181 C   0  0  0  0  0  0  0  0  0  0  0  0
  -22.0763   -8.4241   20.2839 C   0  0  0  0  0  0  0  0  0  0  0  0
  -31.2882  -24.0521   19.4556 C   0  0  0  0  0  0  0  0  0  0  0  0
  -27.9926  -12.1051   20.5742 C   0  0  0  0  0  0  0  0  0  0  0  0
  -29.6779  -13.7708   19.6294 C   0  0  0  0  0  0  0  0  0  0  0  0
  -18.2399  -30.8571   22.1949 C   0  0  0  0  0  0  0  0  0  0  0  0
  -24.6799  -27.7309   20.5714 C   0  0  0  0  0  0  0  0  0  0  0  0
  -19.5926  -30.8518   21.8043 C   0  0  0  0  0  0  0  0  0  0  0  0
  -25.5916  -27.7161   21.6366 C   0  0  0  0  0  0  0  0  0  0  0  0
  -30.0420  -23.5102   19.2154 C   0  0  0  0  0  0  0  0  0  0  0  0
  -26.4838   -9.7594   20.5129 C   0  0  0  0  0  0  0  0  0  0  0  0
  -27.3176  -28.5736   20.1548 C   0  0  0  0  0  0  0  0  0  0  0  0
  -24.4117   -8.6997   20.8379 C   0  0  0  0  0  0  0  0  0  0  0  0
  -21.7217   -8.8697   21.5573 C   0  0  0  0  0  0  0  0  0  0  0  0
  -23.4213   -8.3391   19.9243 C   0  0  0  0  0  0  0  0  0  0  0  0
  -28.7712  -13.3170   20.6060 C   0  0  0  0  0  0  0  0  0  0  0  0
  -29.0755  -24.4000   18.7930 C   0  0  0  0  0  0  0  0  0  0  0  0
  -30.1516  -14.9602   20.1269 C   0  0  0  0  0  0  0  0  0  0  0  0
  -30.5529  -26.1252   18.8823 C   0  0  0  0  0  0  0  0  0  0  0  0
  -30.0580  -13.1709   18.3839 C   0  0  0  0  0  0  0  0  0  0  0  0
  -22.5031  -28.7408   22.6561 C   0  0  0  0  0  0  0  0  0  0  0  0
  -29.1736  -19.8926   22.5772 C   0  0  0  0  0  0  0  0  0  0  0  0
  -23.3584  -26.0535   24.2589 C   0  0  0  0  0  0  0  0  0  0  0  0
  -25.7216  -23.6649   24.8566 C   0  0  0  0  0  0  0  0  0  0  0  0
  -17.8210  -30.5377   23.6081 C   0  0  0  0  0  0  0  0  0  0  0  0
  -23.2680  -27.2521   20.7706 C   0  0  0  0  0  0  0  0  0  0  0  0
  -25.1935  -27.2578   23.0149 C   0  0  0  0  0  0  0  0  0  0  0  0
  -18.8940  -29.8068   24.4110 C   0  0  0  0  0  0  0  0  0  0  0  0
  -29.6739  -17.0496   24.7001 C   0  0  0  0  0  0  0  0  0  0  0  0
  -20.2497  -30.4818   24.2286 C   0  0  0  0  0  0  0  0  0  0  0  0
  -29.5280  -15.8618   23.7498 C   0  0  0  0  0  0  0  0  0  0  0  0
  -28.7364  -18.1901   24.3164 C   0  0  0  0  0  0  0  0  0  0  0  0
  -28.7419  -17.4651   21.9508 C   0  0  0  0  0  0  0  0  0  0  0  0
  -20.6920  -30.4436   22.7608 C   0  0  1  0  0  0  0  0  0  0  0  0
  -22.8083  -27.3347   22.2230 C   0  0  1  0  0  0  0  0  0  0  0  0
  -29.6935  -16.3027   22.2846 C   0  0  2  0  0  0  0  0  0  0  0  0
  -26.6382  -24.9881   18.8124 C   0  0  0  0  0  0  0  0  0  0  0  0
  -26.7248  -21.5660   25.7977 C   0  0  0  0  0  0  0  0  0  0  0  0
  -23.8560  -27.8173   26.6985 C   0  0  0  0  0  0  0  0  0  0  0  0
  -25.1495  -25.9291   27.7131 C   0  0  0  0  0  0  0  0  0  0  0  0
  -22.7259  -25.6426   27.1965 C   0  0  0  0  0  0  0  0  0  0  0  0
  -24.7337  -22.0382   22.5901 C   0  0  0  0  0  0  0  0  0  0  0  0
  -29.7840  -22.0604   19.4072 C   0  0  0  0  0  0  0  0  0  0  0  0
  -27.6895  -23.9266   18.5023 C   0  0  0  0  0  0  0  0  0  0  0  0
  -30.8398  -27.5935   18.6945 C   0  0  0  0  0  0  0  0  0  0  0  0
  -29.3421  -20.2003   21.1106 C   0  0  0  0  0  0  0  0  0  0  0  0
  -29.6262  -21.6832   20.8930 C   0  0  0  0  0  0  0  0  0  0  0  0
  -30.9193  -28.3782   20.0058 C   0  0  0  0  0  0  0  0  0  0  0  0
  -29.6058  -28.3971   20.7788 C   0  0  0  0  0  0  0  0  0  1  0  0
  -24.3972  -25.7150   25.3008 C   0  0  1  0  0  0  0  0  0  0  0  0
  -25.6302  -22.1509   24.9187 C   0  0  2  0  0  0  0  0  0  0  0  0
  -24.0394  -26.2865   26.7018 C   0  0  0  0  0  0  0  0  0  0  0  0
  -31.5798  -25.3600   19.2987 N   0  0  0  0  0  0  0  0  0  0  0  0
  -28.6732  -14.1501   21.6454 N   0  0  0  0  0  0  0  0  0  0  0  0
  -29.2970  -25.7189   18.6154 N   0  0  0  0  0  0  0  0  0  0  0  0
  -29.5246  -15.1393   21.3248 N   0  0  0  0  0  0  0  0  0  0  0  0
  -23.8003  -26.8049   23.1608 N   0  0  0  0  0  0  0  0  0  0  0  0
  -28.9084  -18.5645   22.9116 N   0  0  0  0  0  0  0  0  0  0  0  0
  -31.0393  -15.8597   19.6523 N   0  0  0  0  0  0  0  0  0  0  0  0
  -29.4749  -11.9477   18.0260 N   0  0  0  0  0  0  0  0  0  0  0  0
  -21.1990  -29.1317   22.4197 N   0  0  0  0  0  0  0  0  0  0  0  0
  -24.5502  -24.2645   25.2685 N   0  0  0  0  0  0  0  0  0  0  0  0
  -25.7619  -21.5676   23.5536 N   0  3  0  0  0  0  0  0  0  0  0  0
  -30.9022  -13.6957   17.6188 O   0  0  0  0  0  0  0  0  0  0  0  0
  -23.3851  -29.4201   23.1682 O   0  0  0  0  0  0  0  0  0  0  0  0
  -29.2778  -20.8062   23.3999 O   0  0  0  0  0  0  0  0  0  0  0  0
  -22.1994  -25.6594   24.4103 O   0  0  0  0  0  0  0  0  0  0  0  0
  -26.7323  -24.2565   24.4838 O   0  0  0  0  0  0  0  0  0  0  0  0
  -25.7474   -8.6151   20.4827 O   0  0  0  0  0  0  0  0  0  0  0  0
  -28.5991  -28.9867   19.9571 O   0  0  0  0  0  0  0  0  0  1  0  0
  -20.4301   -8.9500   21.9033 F   0  0  0  0  0  0  0  0  0  0  0  0
  -23.7559   -7.9092   18.6999 F   0  0  0  0  0  0  0  0  0  0  0  0
  1  2  1  0  0  0  0
  1  5  2  0  0  0  0
  2  6  2  0  0  0  0
  3  8  2  0  0  0  0
  3 16  1  0  0  0  0
  4  9  1  0  0  0  0
  4 16  2  0  0  0  0
  5 18  1  0  0  0  0
  6 20  1  0  0  0  0
  7 10  2  0  0  0  0
  7 19  1  0  0  0  0
  8 23  1  0  0  0  0
  9 23  2  0  0  0  0
 10 24  1  0  0  0  0
 11 12  2  0  0  0  0
 11 25  1  0  0  0  0
 12 26  1  0  0  0  0
 13 21  1  0  0  0  0
 13 24  2  0  0  0  0
 14 26  2  0  0  0  0
 14 27  1  0  0  0  0
 15 22  1  0  0  0  0
 15 65  2  0  0  0  0
 16 28  1  0  0  0  0
 17 28  1  0  0  0  0
 17 30  2  0  0  0  0
 17 32  1  0  0  0  0
 18 20  2  0  0  0  0
 18 37  1  0  0  0  0
 19 21  2  0  0  0  0
 19 38  1  0  0  0  0
 20 46  1  0  0  0  0
 21 39  1  0  0  0  0
 22 29  2  0  0  0  0
 22 55  1  0  0  0  0
 23 81  1  0  0  0  0
 24 82  1  0  0  0  0
 25 27  2  0  0  0  0
 25 81  1  0  0  0  0
 26 83  1  0  0  0  0
 27 84  1  0  0  0  0
 28 66  2  0  0  0  0
 29 56  1  0  0  0  0
 29 67  1  0  0  0  0
 30 68  1  0  0  0  0
 30 71  1  0  0  0  0
 31 57  1  0  0  0  0
 31 65  1  0  0  0  0
 31 67  2  0  0  0  0
 32 72  1  0  0  0  0
 32 76  2  0  0  0  0
 33 47  1  0  0  0  0
 33 73  1  0  0  0  0
 33 77  2  0  0  0  0
 34 58  1  0  0  0  0
 34 70  1  0  0  0  0
 34 78  2  0  0  0  0
 35 62  1  0  0  0  0
 35 69  1  0  0  0  0
 35 79  2  0  0  0  0
 36 63  1  0  0  0  0
 36 74  1  0  0  0  0
 36 80  2  0  0  0  0
 37 40  1  0  0  0  0
 38 47  1  0  0  0  0
 39 69  1  0  0  0  0
 40 42  1  0  0  0  0
 41 43  1  0  0  0  0
 41 44  1  0  0  0  0
 42 46  1  0  0  0  0
 43 48  1  0  0  0  0
 44 70  1  0  0  0  0
 45 48  1  0  0  0  0
 45 70  1  0  0  0  0
 46 73  1  0  0  0  0
 47 69  1  0  0  0  0
 48 68  1  0  0  0  0
 49 56  1  0  0  0  0
 50 63  1  0  0  0  0
 51 64  1  0  0  0  0
 52 64  1  0  0  0  0
 53 64  1  0  0  0  0
 54 75  1  0  0  0  0
 55 59  1  0  0  0  0
 57 60  1  0  0  0  0
 58 59  1  0  0  0  0
 60 61  1  0  0  0  0
 61 82  1  0  0  0  0
 62 64  1  0  0  0  0
 62 74  1  0  0  0  0
 63 75  1  0  0  0  0
 66 68  1  0  0  0  0
M  CHG  1  75   1
M  ISO  4  34 100  58 100  61 101  82 101
M  END
> <Batch ID>
0039

> <Smiles>
CCc1nc(CC[101CH2:1][101O:1]c2ccc3c(c2)CN(C(=O)C(NC(=O)C(C)NC)C(C)(C)C)C(C(=O)NC2CCCc4ccccc42)C3)ncc1CC[100CH2:0][100C:0](=O)N1CCCC(n2nc(-c3ccc(Oc4ccc(F)cc4F)cc3)c(C(N)=O)c2N)C1

> <Shape>
0.237

> <Color>
0.080

> <Negative vol penalty>
0.000

$$$$

  -OEChem-04052317043D

 84 92  0     1  0  0  0  0  0999 V2000
  -20.0680  -16.9042   20.5569 C   0  0  0  0  0  0  0  0  0  0  0  0
  -21.2701  -17.3262   21.1158 C   0  0  0  0  0  0  0  0  0  0  0  0
  -24.1123  -13.4762   20.7323 C   0  0  0  0  0  0  0  0  0  0  0  0
  -26.4773  -12.9966   20.6145 C   0  0  0  0  0  0  0  0  0  0  0  0
  -19.3617  -17.7514   19.7040 C   0  0  0  0  0  0  0  0  0  0  0  0
  -21.7671  -18.5953   20.8212 C   0  0  0  0  0  0  0  0  0  0  0  0
  -24.8982  -22.2853   24.5744 C   0  0  0  0  0  0  0  0  0  0  0  0
  -23.8278  -12.1310   20.4977 C   0  0  0  0  0  0  0  0  0  0  0  0
  -26.1928  -11.6513   20.3801 C   0  0  0  0  0  0  0  0  0  0  0  0
  -26.2615  -22.5395   24.7177 C   0  0  0  0  0  0  0  0  0  0  0  0
  -22.4837   -8.7599   20.2890 C   0  0  0  0  0  0  0  0  0  0  0  0
  -21.5074   -8.1558   21.0812 C   0  0  0  0  0  0  0  0  0  0  0  0
  -26.0446  -24.4737   23.2926 C   0  0  0  0  0  0  0  0  0  0  0  0
  -22.8091   -8.6436   23.0572 C   0  0  0  0  0  0  0  0  0  0  0  0
  -25.4371  -13.9091   20.7906 C   0  0  0  0  0  0  0  0  0  0  0  0
  -25.9206  -15.9231   22.2797 C   0  0  0  0  0  0  0  0  0  0  0  0
  -19.8455  -19.0351   19.4064 C   0  0  0  0  0  0  0  0  0  0  0  0
  -24.0986  -23.1186   23.7789 C   0  0  0  0  0  0  0  0  0  0  0  0
  -21.0673  -19.4599   19.9625 C   0  0  0  0  0  0  0  0  0  0  0  0
  -24.6709  -24.2294   23.1429 C   0  0  0  0  0  0  0  0  0  0  0  0
  -24.8680  -11.2186   20.3217 C   0  0  0  0  0  0  0  0  0  0  0  0
  -26.8355  -23.6321   24.0745 C   0  0  0  0  0  0  0  0  0  0  0  0
  -23.6227   -9.3057   20.8809 C   0  0  0  0  0  0  0  0  0  0  0  0
  -21.6701   -8.0977   22.4653 C   0  0  0  0  0  0  0  0  0  0  0  0
  -23.7854   -9.2476   22.2650 C   0  0  0  0  0  0  0  0  0  0  0  0
  -25.7316  -15.2986   21.0323 C   0  0  0  0  0  0  0  0  0  0  0  0
  -30.8586  -25.8755   19.4981 C   0  0  0  0  0  0  0  0  0  0  0  0
  -31.3703  -25.5354   20.7281 C   0  0  0  0  0  0  0  0  0  0  0  0
  -26.1727  -17.2375   21.9710 C   0  0  0  0  0  0  0  0  0  0  0  0
  -29.7882  -27.0591   20.9066 C   0  0  0  0  0  0  0  0  0  0  0  0
  -25.8726  -15.3650   23.5995 C   0  0  0  0  0  0  0  0  0  0  0  0
  -22.3539  -22.7126   21.1531 C   0  0  0  0  0  0  0  0  0  0  0  0
  -28.8837  -20.9517   18.9488 C   0  0  0  0  0  0  0  0  0  0  0  0
  -21.4686  -25.7781   21.7374 C   0  0  0  0  0  0  0  0  0  0  0  0
  -22.2000  -28.7780   23.1907 C   0  0  0  0  0  0  0  0  0  0  0  0
  -19.0707  -19.8973   18.4416 C   0  0  0  0  0  0  0  0  0  0  0  0
  -22.6244  -22.8462   23.6561 C   0  0  0  0  0  0  0  0  0  0  0  0
  -23.8521  -25.1662   22.2940 C   0  0  0  0  0  0  0  0  0  0  0  0
  -19.4778  -21.3681   18.4769 C   0  0  0  0  0  0  0  0  0  0  0  0
  -25.7202  -19.7521   17.6146 C   0  0  0  0  0  0  0  0  0  0  0  0
  -20.9972  -21.5021   18.4557 C   0  0  0  0  0  0  0  0  0  0  0  0
  -25.4751  -18.5139   18.4759 C   0  0  0  0  0  0  0  0  0  0  0  0
  -27.2058  -19.9486   17.3240 C   0  0  0  0  0  0  0  0  0  0  0  0
  -27.8136  -18.7698   19.4134 C   0  0  0  0  0  0  0  0  0  0  0  0
  -21.6267  -20.8388   19.6866 C   0  0  1  0  0  0  0  0  0  0  0  0
  -22.0048  -23.4641   22.4065 C   0  0  1  0  0  0  0  0  0  0  0  0
  -26.3299  -18.5531   19.7548 C   0  0  2  0  0  0  0  0  0  0  0  0
  -32.4222  -24.5827   21.1262 C   0  0  0  0  0  0  0  0  0  0  0  0
  -28.8623  -28.0095   21.5566 C   0  0  0  0  0  0  0  0  0  0  0  0
  -21.3027  -31.1057   23.4633 C   0  0  0  0  0  0  0  0  0  0  0  0
  -22.3058  -26.4331   18.8773 C   0  0  0  0  0  0  0  0  0  0  0  0
  -22.2942  -28.8572   19.5031 C   0  0  0  0  0  0  0  0  0  0  0  0
  -20.1851  -27.5305   19.6208 C   0  0  0  0  0  0  0  0  0  0  0  0
  -22.0570  -28.5029   26.1340 C   0  0  0  0  0  0  0  0  0  0  0  0
  -31.2389  -25.3582   18.1741 C   0  0  0  0  0  0  0  0  0  0  0  0
  -29.0457  -22.1140   18.0020 C   0  0  0  0  0  0  0  0  0  0  0  0
  -30.2292  -24.3310   17.6167 C   0  0  0  0  0  0  0  0  0  0  0  0
  -30.0500  -23.1256   18.5449 C   0  0  0  0  0  0  0  0  0  0  0  0
  -30.1788  -25.1284   23.8224 C   0  0  0  0  0  0  0  0  0  0  0  0
  -30.8525  -26.3080   23.1178 C   0  0  0  0  0  0  0  0  0  0  0  0
  -28.6878  -25.0188   23.5251 C   0  0  0  0  0  0  0  0  0  1  0  0
  -21.9947  -27.1367   21.3419 C   0  0  1  0  0  0  0  0  0  0  0  0
  -21.3685  -29.7071   24.0568 C   0  0  2  0  0  0  0  0  0  0  0  0
  -21.7110  -27.4708   19.8501 C   0  0  0  0  0  0  0  0  0  0  0  0
  -25.8531  -16.1466   20.0075 N   0  0  0  0  0  0  0  0  0  0  0  0
  -29.8743  -26.8247   19.6160 N   0  0  0  0  0  0  0  0  0  0  0  0
  -30.6752  -26.3021   21.6204 N   0  0  0  0  0  0  0  0  0  0  0  0
  -26.1211  -17.3174   20.6104 N   0  0  0  0  0  0  0  0  0  0  0  0
  -22.4164  -24.8541   22.1996 N   0  0  0  0  0  0  0  0  0  0  0  0
  -27.9885  -19.9527   18.5657 N   0  0  0  0  0  0  0  0  0  0  0  0
  -26.4312  -18.3212   22.7334 N   0  0  0  0  0  0  0  0  0  0  0  0
  -25.6012  -13.9968   23.7369 N   0  0  0  0  0  0  0  0  0  0  0  0
  -21.4785  -21.6875   20.8494 N   0  0  0  0  0  0  0  0  0  0  0  0
  -21.4200  -28.0879   22.2870 N   0  0  0  0  0  0  0  0  0  0  0  0
  -21.9544  -29.8036   25.4237 N   0  3  0  0  0  0  0  0  0  0  0  0
  -26.0485  -16.0622   24.6273 O   0  0  0  0  0  0  0  0  0  0  0  0
  -23.3435  -23.0396   20.5084 O   0  0  0  0  0  0  0  0  0  0  0  0
  -29.5322  -20.9352   19.9983 O   0  0  0  0  0  0  0  0  0  0  0  0
  -20.2602  -25.5476   21.6465 O   0  0  0  0  0  0  0  0  0  0  0  0
  -23.4198  -28.6776   23.3021 O   0  0  0  0  0  0  0  0  0  0  0  0
  -24.5907   -9.9058   20.0931 O   0  0  0  0  0  0  0  0  0  0  0  0
  -28.1660  -23.8821   24.2122 O   0  0  0  0  0  0  0  0  0  1  0  0
  -20.7317   -7.5190   23.2261 F   0  0  0  0  0  0  0  0  0  0  0  0
  -24.8770   -9.7714   22.8394 F   0  0  0  0  0  0  0  0  0  0  0  0
  1  2  1  0  0  0  0
  1  5  2  0  0  0  0
  2  6  2  0  0  0  0
  3  8  2  0  0  0  0
  3 15  1  0  0  0  0
  4  9  1  0  0  0  0
  4 15  2  0  0  0  0
  5 17  1  0  0  0  0
  6 19  1  0  0  0  0
  7 10  2  0  0  0  0
  7 18  1  0  0  0  0
  8 21  1  0  0  0  0
  9 21  2  0  0  0  0
 10 22  1  0  0  0  0
 11 12  2  0  0  0  0
 11 23  1  0  0  0  0
 12 24  1  0  0  0  0
 13 20  1  0  0  0  0
 13 22  2  0  0  0  0
 14 24  2  0  0  0  0
 14 25  1  0  0  0  0
 15 26  1  0  0  0  0
 16 26  1  0  0  0  0
 16 29  2  0  0  0  0
 16 31  1  0  0  0  0
 17 19  2  0  0  0  0
 17 36  1  0  0  0  0
 18 20  2  0  0  0  0
 18 37  1  0  0  0  0
 19 45  1  0  0  0  0
 20 38  1  0  0  0  0
 21 81  1  0  0  0  0
 22 82  1  0  0  0  0
 23 25  2  0  0  0  0
 23 81  1  0  0  0  0
 24 83  1  0  0  0  0
 25 84  1  0  0  0  0
 26 65  2  0  0  0  0
 27 28  2  0  0  0  0
 27 55  1  0  0  0  0
 27 66  1  0  0  0  0
 28 48  1  0  0  0  0
 28 67  1  0  0  0  0
 29 68  1  0  0  0  0
 29 71  1  0  0  0  0
 30 49  1  0  0  0  0
 30 66  2  0  0  0  0
 30 67  1  0  0  0  0
 31 72  1  0  0  0  0
 31 76  2  0  0  0  0
 32 46  1  0  0  0  0
 32 73  1  0  0  0  0
 32 77  2  0  0  0  0
 33 56  1  0  0  0  0
 33 70  1  0  0  0  0
 33 78  2  0  0  0  0
 34 62  1  0  0  0  0
 34 69  1  0  0  0  0
 34 79  2  0  0  0  0
 35 63  1  0  0  0  0
 35 74  1  0  0  0  0
 35 80  2  0  0  0  0
 36 39  1  0  0  0  0
 37 46  1  0  0  0  0
 38 69  1  0  0  0  0
 39 41  1  0  0  0  0
 40 42  1  0  0  0  0
 40 43  1  0  0  0  0
 41 45  1  0  0  0  0
 42 47  1  0  0  0  0
 43 70  1  0  0  0  0
 44 47  1  0  0  0  0
 44 70  1  0  0  0  0
 45 73  1  0  0  0  0
 46 69  1  0  0  0  0
 47 68  1  0  0  0  0
 50 63  1  0  0  0  0
 51 64  1  0  0  0  0
 52 64  1  0  0  0  0
 53 64  1  0  0  0  0
 54 75  1  0  0  0  0
 55 57  1  0  0  0  0
 56 58  1  0  0  0  0
 57 58  1  0  0  0  0
 59 60  1  0  0  0  0
 59 61  1  0  0  0  0
 60 67  1  0  0  0  0
 61 82  1  0  0  0  0
 62 64  1  0  0  0  0
 62 74  1  0  0  0  0
 63 75  1  0  0  0  0
 65 68  1  0  0  0  0
M  CHG  1  75   1
M  ISO  4  33 100  56 100  61 101  82 101
M  END
> <Batch ID>
0039

> <Smiles>
CNC(C)C(=O)NC(C(=O)N1Cc2cc([101O:1][101CH2:1]CCn3c(C)nc(CCC[100CH2:0][100C:0](=O)N4CCCC(n5nc(-c6ccc(Oc7ccc(F)cc7F)cc6)c(C(N)=O)c5N)C4)c3C)ccc2CC1C(=O)NC1CCCc2ccccc21)C(C)(C)C

> <Shape>
0.188

> <Color>
0.072

> <Negative vol penalty>
0.000

$$$$

  -OEChem-04052317043D

 87 95  0     1  0  0  0  0  0999 V2000
  -22.8651  -35.6708   24.0919 C   0  0  0  0  0  0  0  0  0  0  0  0
  -23.9244  -34.8915   23.6379 C   0  0  0  0  0  0  0  0  0  0  0  0
  -24.9752  -16.5085   21.4562 C   0  0  0  0  0  0  0  0  0  0  0  0
  -25.1192  -15.8177   19.1455 C   0  0  0  0  0  0  0  0  0  0  0  0
  -21.7197  -35.0600   24.6007 C   0  0  0  0  0  0  0  0  0  0  0  0
  -23.8392  -33.5008   23.6935 C   0  0  0  0  0  0  0  0  0  0  0  0
  -26.1877  -29.5056   19.6898 C   0  0  0  0  0  0  0  0  0  0  0  0
  -23.8503  -15.7017   21.6273 C   0  0  0  0  0  0  0  0  0  0  0  0
  -23.9943  -15.0108   19.3166 C   0  0  0  0  0  0  0  0  0  0  0  0
  -27.3565  -28.7456   19.6990 C   0  0  0  0  0  0  0  0  0  0  0  0
  -21.1554  -13.5456   22.7691 C   0  0  0  0  0  0  0  0  0  0  0  0
  -21.0933  -12.7543   23.9161 C   0  0  0  0  0  0  0  0  0  0  0  0
  -26.1207  -26.8668   20.5720 C   0  0  0  0  0  0  0  0  0  0  0  0
  -34.6612  -24.0954   19.2235 C   0  0  0  0  0  0  0  0  0  0  0  0
  -32.9364  -23.7835   21.3939 C   0  0  0  0  0  0  0  0  0  0  0  0
  -23.1241  -11.6282   23.2490 C   0  0  0  0  0  0  0  0  0  0  0  0
  -25.6096  -16.5666   20.2152 C   0  0  0  0  0  0  0  0  0  0  0  0
  -28.1172  -17.0352   20.2305 C   0  0  0  0  0  0  0  0  0  0  0  0
  -21.6166  -33.6610   24.6536 C   0  0  0  0  0  0  0  0  0  0  0  0
  -24.9767  -28.9544   20.1327 C   0  0  0  0  0  0  0  0  0  0  0  0
  -22.6919  -32.8707   24.2047 C   0  0  0  0  0  0  0  0  0  0  0  0
  -24.9375  -27.6211   20.5650 C   0  0  0  0  0  0  0  0  0  0  0  0
  -34.3138  -25.1991   20.0024 C   0  0  0  0  0  0  0  0  0  0  0  0
  -34.1461  -22.8357   19.5297 C   0  0  0  0  0  0  0  0  0  0  0  0
  -33.4515  -25.0432   21.0876 C   0  0  0  0  0  0  0  0  0  0  0  0
  -23.3599  -14.9528   20.5575 C   0  0  0  0  0  0  0  0  0  0  0  0
  -27.3237  -27.4269   20.1428 C   0  0  0  0  0  0  0  0  0  0  0  0
  -22.2018  -13.3783   21.8621 C   0  0  0  0  0  0  0  0  0  0  0  0
  -22.0777  -11.7956   24.1560 C   0  0  0  0  0  0  0  0  0  0  0  0
  -23.1861  -12.4196   22.1020 C   0  0  0  0  0  0  0  0  0  0  0  0
  -33.2837  -22.6798   20.6149 C   0  0  0  0  0  0  0  0  0  0  0  0
  -26.7713  -17.4003   20.0377 C   0  0  0  0  0  0  0  0  0  0  0  0
  -28.8274  -18.1727   19.9338 C   0  0  0  0  0  0  0  0  0  0  0  0
  -28.6754  -15.7800   20.6411 C   0  0  0  0  0  0  0  0  0  0  0  0
  -22.9398  -29.6108   22.4829 C   0  0  0  0  0  0  0  0  0  0  0  0
  -21.1577  -27.3057   21.0572 C   0  0  0  0  0  0  0  0  0  0  0  0
  -21.0591  -24.5407   19.0592 C   0  0  0  0  0  0  0  0  0  0  0  0
  -29.7843  -22.6017   16.6758 C   0  0  0  0  0  0  0  0  0  0  0  0
  -20.3777  -33.0467   25.2557 C   0  0  0  0  0  0  0  0  0  0  0  0
  -23.7195  -29.7790   20.0913 C   0  0  0  0  0  0  0  0  0  0  0  0
  -23.6589  -26.9760   21.0314 C   0  0  0  0  0  0  0  0  0  0  0  0
  -20.2149  -31.5635   24.9332 C   0  0  0  0  0  0  0  0  0  0  0  0
  -27.2668  -22.9237   19.1729 C   0  0  0  0  0  0  0  0  0  0  0  0
  -21.5298  -30.8220   25.1526 C   0  0  0  0  0  0  0  0  0  0  0  0
  -27.0203  -21.4854   19.6315 C   0  0  0  0  0  0  0  0  0  0  0  0
  -27.5521  -22.9973   17.6745 C   0  0  0  0  0  0  0  0  0  0  0  0
  -28.3955  -20.6816   17.6664 C   0  0  0  0  0  0  0  0  0  0  0  0
  -22.6272  -31.3589   24.2257 C   0  0  1  0  0  0  0  0  0  0  0  0
  -22.6432  -29.2761   21.0485 C   0  0  1  0  0  0  0  0  0  0  0  0
  -28.1586  -20.5503   19.1806 C   0  0  2  0  0  0  0  0  0  0  0  0
  -34.8752  -26.5388   19.6552 C   0  0  0  0  0  0  0  0  0  0  0  0
  -19.4632  -22.8546   18.1065 C   0  0  0  0  0  0  0  0  0  0  0  0
  -21.0041  -25.9209   23.7717 C   0  0  0  0  0  0  0  0  0  0  0  0
  -20.2534  -23.8442   22.5918 C   0  0  0  0  0  0  0  0  0  0  0  0
  -18.8659  -25.9139   22.4745 C   0  0  0  0  0  0  0  0  0  0  0  0
  -21.7186  -25.3148   16.2798 C   0  0  0  0  0  0  0  0  0  0  0  0
  -34.5426  -21.6788   18.6705 C   0  0  0  0  0  0  0  0  0  0  0  0
  -33.0597  -26.2223   21.9422 C   0  0  0  0  0  0  0  0  0  0  0  0
  -33.4328  -21.2822   17.6862 C   0  0  0  0  0  0  0  0  0  0  0  0
  -32.0222  -27.1424   21.2895 C   0  0  0  0  0  0  0  0  0  0  0  0
  -33.1003  -22.4240   16.7211 C   0  0  0  0  0  0  0  0  0  0  0  0
  -30.6833  -26.4488   21.0342 C   0  0  0  0  0  0  0  0  0  0  0  0
  -32.0087  -22.0497   15.7237 C   0  0  0  0  0  0  0  0  0  0  0  0
  -29.6924  -27.3807   20.3499 C   0  0  0  0  0  0  0  0  0  1  0  0
  -21.0424  -25.8065   21.1926 C   0  0  1  0  0  0  0  0  0  0  0  0
  -20.1727  -24.1807   17.8806 C   0  0  2  0  0  0  0  0  0  0  0  0
  -20.3161  -25.3838   22.5008 C   0  0  0  0  0  0  0  0  0  0  0  0
  -26.6322  -18.6705   19.6487 N   0  0  0  0  0  0  0  0  0  0  0  0
  -27.8999  -19.1135   19.5948 N   0  0  0  0  0  0  0  0  0  0  0  0
  -22.4575  -27.8253   20.9781 N   0  0  0  0  0  0  0  0  0  0  0  0
  -28.6424  -22.0883   17.3128 N   0  0  0  0  0  0  0  0  0  0  0  0
  -30.1486  -18.4501   19.9325 N   0  0  0  0  0  0  0  0  0  0  0  0
  -27.8031  -14.7154   20.9058 N   0  0  0  0  0  0  0  0  0  0  0  0
  -22.4550  -30.8406   22.8855 N   0  0  0  0  0  0  0  0  0  0  0  0
  -20.3976  -25.3347   19.9720 N   0  0  0  0  0  0  0  0  0  0  0  0
  -30.7730  -21.6733   16.3735 N   0  0  0  0  0  0  0  0  0  0  0  0
  -20.9846  -24.0732   16.6356 N   0  3  0  0  0  0  0  0  0  0  0  0
  -29.9102  -15.6124   20.7852 O   0  0  0  0  0  0  0  0  0  0  0  0
  -23.5610  -28.8118   23.1738 O   0  0  0  0  0  0  0  0  0  0  0  0
  -20.1320  -27.9897   21.0156 O   0  0  0  0  0  0  0  0  0  0  0  0
  -22.2209  -24.1530   19.1618 O   0  0  0  0  0  0  0  0  0  0  0  0
  -29.9154  -23.7995   16.4020 O   0  0  0  0  0  0  0  0  0  0  0  0
  -22.2624  -14.1652   20.7242 O   0  0  0  0  0  0  0  0  0  0  0  0
  -28.4632  -26.6831   20.1535 O   0  0  0  0  0  0  0  0  0  1  0  0
  -22.0188  -11.0368   25.2583 F   0  0  0  0  0  0  0  0  0  0  0  0
  -24.1945  -12.2550   21.2348 F   0  0  0  0  0  0  0  0  0  0  0  0
  -32.6266  -21.1370   21.0238 Cl  0  0  0  0  0  0  0  0  0  0  0  0
  1  2  1  0  0  0  0
  1  5  2  0  0  0  0
  2  6  2  0  0  0  0
  3  8  2  0  0  0  0
  3 17  1  0  0  0  0
  4  9  1  0  0  0  0
  4 17  2  0  0  0  0
  5 19  1  0  0  0  0
  6 21  1  0  0  0  0
  7 10  2  0  0  0  0
  7 20  1  0  0  0  0
  8 26  1  0  0  0  0
  9 26  2  0  0  0  0
 10 27  1  0  0  0  0
 11 12  2  0  0  0  0
 11 28  1  0  0  0  0
 12 29  1  0  0  0  0
 13 22  1  0  0  0  0
 13 27  2  0  0  0  0
 14 23  1  0  0  0  0
 14 24  2  0  0  0  0
 15 25  1  0  0  0  0
 15 31  2  0  0  0  0
 16 29  2  0  0  0  0
 16 30  1  0  0  0  0
 17 32  1  0  0  0  0
 18 32  1  0  0  0  0
 18 33  2  0  0  0  0
 18 34  1  0  0  0  0
 19 21  2  0  0  0  0
 19 39  1  0  0  0  0
 20 22  2  0  0  0  0
 20 40  1  0  0  0  0
 21 48  1  0  0  0  0
 22 41  1  0  0  0  0
 23 25  2  0  0  0  0
 23 51  1  0  0  0  0
 24 31  1  0  0  0  0
 24 57  1  0  0  0  0
 25 58  1  0  0  0  0
 26 83  1  0  0  0  0
 27 84  1  0  0  0  0
 28 30  2  0  0  0  0
 28 83  1  0  0  0  0
 29 85  1  0  0  0  0
 30 86  1  0  0  0  0
 31 87  1  0  0  0  0
 32 68  2  0  0  0  0
 33 69  1  0  0  0  0
 33 72  1  0  0  0  0
 34 73  1  0  0  0  0
 34 78  2  0  0  0  0
 35 49  1  0  0  0  0
 35 74  1  0  0  0  0
 35 79  2  0  0  0  0
 36 65  1  0  0  0  0
 36 70  1  0  0  0  0
 36 80  2  0  0  0  0
 37 66  1  0  0  0  0
 37 75  1  0  0  0  0
 37 81  2  0  0  0  0
 38 71  1  0  0  0  0
 38 76  1  0  0  0  0
 38 82  2  0  0  0  0
 39 42  1  0  0  0  0
 40 49  1  0  0  0  0
 41 70  1  0  0  0  0
 42 44  1  0  0  0  0
 43 45  1  0  0  0  0
 43 46  1  0  0  0  0
 44 48  1  0  0  0  0
 45 50  1  0  0  0  0
 46 71  1  0  0  0  0
 47 50  1  0  0  0  0
 47 71  1  0  0  0  0
 48 74  1  0  0  0  0
 49 70  1  0  0  0  0
 50 69  1  0  0  0  0
 52 66  1  0  0  0  0
 53 67  1  0  0  0  0
 54 67  1  0  0  0  0
 55 67  1  0  0  0  0
 56 77  1  0  0  0  0
 57 59  1  0  0  0  0
 58 60  1  0  0  0  0
 59 61  1  0  0  0  0
 60 62  1  0  0  0  0
 61 63  1  0  0  0  0
 62 64  1  0  0  0  0
 63 76  1  0  0  0  0
 64 84  1  0  0  0  0
 65 67  1  0  0  0  0
 65 75  1  0  0  0  0
 66 77  1  0  0  0  0
 68 69  1  0  0  0  0
M  CHG  1  77   1
M  ISO  4  38 100  64 101  76 100  84 101
M  END
> <Batch ID>
0039

> <Smiles>
CNC(C)C(=O)NC(C(=O)N1Cc2cc([101O:1][101CH2:1]CCCc3cc(Cl)c(CCCC[100NH:0][100C:0](=O)N4CCCC(n5nc(-c6ccc(Oc7ccc(F)cc7F)cc6)c(C(N)=O)c5N)C4)cc3C)ccc2CC1C(=O)NC1CCCc2ccccc21)C(C)(C)C

> <Shape>
0.212

> <Color>
0.088

> <Negative vol penalty>
0.000

$$$$

  -OEChem-04052317043D

 82 90  0     1  0  0  0  0  0999 V2000
  -16.6768  -28.9228   24.1769 C   0  0  0  0  0  0  0  0  0  0  0  0
  -17.1421  -28.0596   23.1902 C   0  0  0  0  0  0  0  0  0  0  0  0
  -28.0433  -11.8549   23.0690 C   0  0  0  0  0  0  0  0  0  0  0  0
  -26.7367  -12.9337   21.3468 C   0  0  0  0  0  0  0  0  0  0  0  0
  -17.3418  -30.1236   24.4212 C   0  0  0  0  0  0  0  0  0  0  0  0
  -18.2721  -28.3972   22.4462 C   0  0  0  0  0  0  0  0  0  0  0  0
  -22.5381  -24.5697   20.2882 C   0  0  0  0  0  0  0  0  0  0  0  0
  -26.9076  -11.1703   23.5018 C   0  0  0  0  0  0  0  0  0  0  0  0
  -25.6010  -12.2491   21.7796 C   0  0  0  0  0  0  0  0  0  0  0  0
  -22.7325  -23.9927   19.0339 C   0  0  0  0  0  0  0  0  0  0  0  0
  -24.2891   -9.1512   21.4595 C   0  0  0  0  0  0  0  0  0  0  0  0
  -23.4752   -8.5695   20.4876 C   0  0  0  0  0  0  0  0  0  0  0  0
  -24.2860  -25.7508   18.4728 C   0  0  0  0  0  0  0  0  0  0  0  0
  -28.7533  -21.2633   17.8400 C   0  0  0  0  0  0  0  0  0  0  0  0
  -21.6205   -9.9300   21.2264 C   0  0  0  0  0  0  0  0  0  0  0  0
  -26.1509  -21.7141   18.5257 C   0  0  0  0  0  0  0  0  0  0  0  0
  -27.9578  -12.7366   21.9916 C   0  0  0  0  0  0  0  0  0  0  0  0
  -30.0598  -13.0227   20.5748 C   0  0  0  0  0  0  0  0  0  0  0  0
  -18.4862  -30.4718   23.6864 C   0  0  0  0  0  0  0  0  0  0  0  0
  -23.2090  -25.7495   20.6407 C   0  0  0  0  0  0  0  0  0  0  0  0
  -18.9522  -29.6045   22.6799 C   0  0  0  0  0  0  0  0  0  0  0  0
  -24.1003  -26.3393   19.7330 C   0  0  0  0  0  0  0  0  0  0  0  0
  -27.7901  -21.3509   16.8411 C   0  0  0  0  0  0  0  0  0  0  0  0
  -26.4618  -21.5804   17.1821 C   0  0  0  0  0  0  0  0  0  0  0  0
  -25.6865  -11.3674   22.8571 C   0  0  0  0  0  0  0  0  0  0  0  0
  -23.6044  -24.5849   18.1249 C   0  0  0  0  0  0  0  0  0  0  0  0
  -23.7687  -10.1223   22.3151 C   0  0  0  0  0  0  0  0  0  0  0  0
  -22.1409   -8.9589   20.3710 C   0  0  0  0  0  0  0  0  0  0  0  0
  -22.4344  -10.5117   22.1985 C   0  0  0  0  0  0  0  0  0  0  0  0
  -29.1304  -13.4445   21.5444 C   0  0  0  0  0  0  0  0  0  0  0  0
  -28.3399  -21.4113   19.1541 C   0  0  0  0  0  0  0  0  0  0  0  0
  -30.9791  -14.0414   20.5143 C   0  0  0  0  0  0  0  0  0  0  0  0
  -30.0894  -11.8179   19.7981 C   0  0  0  0  0  0  0  0  0  0  0  0
  -22.3063  -28.6947   21.4247 C   0  0  0  0  0  0  0  0  0  0  0  0
  -30.5926  -19.8812   21.8780 C   0  0  0  0  0  0  0  0  0  0  0  0
  -25.4726  -29.0910   22.0076 C   0  0  0  0  0  0  0  0  0  0  0  0
  -28.6784  -28.0944   21.3940 C   0  0  0  0  0  0  0  0  0  0  0  0
  -19.1437  -31.8024   23.9541 C   0  0  0  0  0  0  0  0  0  0  0  0
  -23.0087  -26.3446   22.0075 C   0  0  0  0  0  0  0  0  0  0  0  0
  -24.8603  -27.5951   20.0703 C   0  0  0  0  0  0  0  0  0  0  0  0
  -20.5527  -31.9125   23.3772 C   0  0  0  0  0  0  0  0  0  0  0  0
  -32.9320  -17.4960   23.1732 C   0  0  0  0  0  0  0  0  0  0  0  0
  -20.5820  -31.4047   21.9391 C   0  0  0  0  0  0  0  0  0  0  0  0
  -32.2930  -16.1486   22.8395 C   0  0  0  0  0  0  0  0  0  0  0  0
  -31.8780  -18.5448   23.5139 C   0  0  0  0  0  0  0  0  0  0  0  0
  -30.1971  -17.3800   22.1213 C   0  0  0  0  0  0  0  0  0  0  0  0
  -20.1892  -29.9241   21.8688 C   0  0  1  0  0  0  0  0  0  0  0  0
  -23.3525  -27.8297   22.0688 C   0  0  1  0  0  0  0  0  0  0  0  0
  -31.2255  -16.3001   21.7413 C   0  0  2  0  0  0  0  0  0  0  0  0
  -28.2031  -21.1962   15.4149 C   0  0  0  0  0  0  0  0  0  0  0  0
  -31.0564  -28.6331   21.9874 C   0  0  0  0  0  0  0  0  0  0  0  0
  -25.3810  -31.5183   20.1610 C   0  0  0  0  0  0  0  0  0  0  0  0
  -27.8801  -31.4318   20.0380 C   0  0  0  0  0  0  0  0  0  0  0  0
  -26.7540  -31.8310   22.2278 C   0  0  0  0  0  0  0  0  0  0  0  0
  -29.1143  -25.4136   22.5695 C   0  0  0  0  0  0  0  0  0  0  0  0
  -25.3769  -21.6838   16.1400 C   0  0  0  0  0  0  0  0  0  0  0  0
  -29.3464  -21.3228   20.2523 C   0  0  0  0  0  0  0  0  0  0  0  0
  -29.5453  -19.9016   20.7931 C   0  0  0  0  0  0  0  0  0  0  0  0
  -25.3670  -23.0184   15.3915 C   0  0  0  0  0  0  0  0  0  0  0  0
  -25.0723  -24.2130   16.2911 C   0  0  0  0  0  0  0  0  0  1  0  0
  -26.6638  -29.5276   21.1894 C   0  0  1  0  0  0  0  0  0  0  0  0
  -29.8358  -27.7927   22.3287 C   0  0  2  0  0  0  0  0  0  0  0  0
  -26.6541  -31.0546   20.8967 C   0  0  0  0  0  0  0  0  0  0  0  0
  -27.0590  -21.6351   19.5241 N   0  0  0  0  0  0  0  0  0  0  0  0
  -29.4318  -14.6380   22.0627 N   0  0  0  0  0  0  0  0  0  0  0  0
  -30.5609  -14.9749   21.4165 N   0  0  0  0  0  0  0  0  0  0  0  0
  -24.6258  -28.1425   21.4168 N   0  0  0  0  0  0  0  0  0  0  0  0
  -30.8701  -18.6426   22.4566 N   0  0  0  0  0  0  0  0  0  0  0  0
  -32.0963  -14.2207   19.7780 N   0  0  0  0  0  0  0  0  0  0  0  0
  -29.0675  -10.8771   19.9852 N   0  0  0  0  0  0  0  0  0  0  0  0
  -21.2957  -29.0875   22.2813 N   0  0  0  0  0  0  0  0  0  0  0  0
  -27.8452  -29.0647   21.9094 N   0  0  0  0  0  0  0  0  0  0  0  0
  -30.2147  -26.3543   22.2364 N   0  3  0  0  0  0  0  0  0  0  0  0
  -31.0043  -11.5751   18.9749 O   0  0  0  0  0  0  0  0  0  0  0  0
  -22.4091  -28.9855   20.2387 O   0  0  0  0  0  0  0  0  0  0  0  0
  -31.1484  -20.9351   22.1981 O   0  0  0  0  0  0  0  0  0  0  0  0
  -25.3037  -29.5684   23.1324 O   0  0  0  0  0  0  0  0  0  0  0  0
  -28.5304  -27.5288   20.3129 O   0  0  0  0  0  0  0  0  0  0  0  0
  -24.5782  -10.6994   23.2790 O   0  0  0  0  0  0  0  0  0  0  0  0
  -23.7955  -24.0242   16.8998 O   0  0  0  0  0  0  0  0  0  1  0  0
  -21.3599   -8.4013   19.4365 F   0  0  0  0  0  0  0  0  0  0  0  0
  -21.9291  -11.4450   23.0167 F   0  0  0  0  0  0  0  0  0  0  0  0
  1  2  1  0  0  0  0
  1  5  2  0  0  0  0
  2  6  2  0  0  0  0
  3  8  2  0  0  0  0
  3 17  1  0  0  0  0
  4  9  1  0  0  0  0
  4 17  2  0  0  0  0
  5 19  1  0  0  0  0
  6 21  1  0  0  0  0
  7 10  2  0  0  0  0
  7 20  1  0  0  0  0
  8 25  1  0  0  0  0
  9 25  2  0  0  0  0
 10 26  1  0  0  0  0
 11 12  2  0  0  0  0
 11 27  1  0  0  0  0
 12 28  1  0  0  0  0
 13 22  1  0  0  0  0
 13 26  2  0  0  0  0
 14 23  1  0  0  0  0
 14 31  2  0  0  0  0
 15 28  2  0  0  0  0
 15 29  1  0  0  0  0
 16 24  1  0  0  0  0
 16 64  2  0  0  0  0
 17 30  1  0  0  0  0
 18 30  1  0  0  0  0
 18 32  2  0  0  0  0
 18 33  1  0  0  0  0
 19 21  2  0  0  0  0
 19 38  1  0  0  0  0
 20 22  2  0  0  0  0
 20 39  1  0  0  0  0
 21 47  1  0  0  0  0
 22 40  1  0  0  0  0
 23 24  2  0  0  0  0
 23 50  1  0  0  0  0
 24 56  1  0  0  0  0
 25 79  1  0  0  0  0
 26 80  1  0  0  0  0
 27 29  2  0  0  0  0
 27 79  1  0  0  0  0
 28 81  1  0  0  0  0
 29 82  1  0  0  0  0
 30 65  2  0  0  0  0
 31 57  1  0  0  0  0
 31 64  1  0  0  0  0
 32 66  1  0  0  0  0
 32 69  1  0  0  0  0
 33 70  1  0  0  0  0
 33 74  2  0  0  0  0
 34 48  1  0  0  0  0
 34 71  1  0  0  0  0
 34 75  2  0  0  0  0
 35 58  1  0  0  0  0
 35 68  1  0  0  0  0
 35 76  2  0  0  0  0
 36 61  1  0  0  0  0
 36 67  1  0  0  0  0
 36 77  2  0  0  0  0
 37 62  1  0  0  0  0
 37 72  1  0  0  0  0
 37 78  2  0  0  0  0
 38 41  1  0  0  0  0
 39 48  1  0  0  0  0
 40 67  1  0  0  0  0
 41 43  1  0  0  0  0
 42 44  1  0  0  0  0
 42 45  1  0  0  0  0
 43 47  1  0  0  0  0
 44 49  1  0  0  0  0
 45 68  1  0  0  0  0
 46 49  1  0  0  0  0
 46 68  1  0  0  0  0
 47 71  1  0  0  0  0
 48 67  1  0  0  0  0
 49 66  1  0  0  0  0
 51 62  1  0  0  0  0
 52 63  1  0  0  0  0
 53 63  1  0  0  0  0
 54 63  1  0  0  0  0
 55 73  1  0  0  0  0
 56 59  1  0  0  0  0
 57 58  1  0  0  0  0
 59 60  1  0  0  0  0
 60 80  1  0  0  0  0
 61 63  1  0  0  0  0
 61 72  1  0  0  0  0
 62 73  1  0  0  0  0
 65 66  1  0  0  0  0
M  CHG  1  73   1
M  ISO  4  35 100  58 100  60 101  80 101
M  END
> <Batch ID>
0039

> <Smiles>
CNC(C)C(=O)NC(C(=O)N1Cc2cc([101O:1][101CH2:1]CCc3cnc(C[100CH2:0][100C:0](=O)N4CCCC(n5nc(-c6ccc(Oc7ccc(F)cc7F)cc6)c(C(N)=O)c5N)C4)cc3C)ccc2CC1C(=O)NC1CCCc2ccccc21)C(C)(C)C

> <Shape>
0.259

> <Color>
0.079

> <Negative vol penalty>
0.000

$$$$

  -OEChem-04052317043D

 83 91  0     1  0  0  0  0  0999 V2000
  -16.7609  -23.7321   24.9513 C   0  0  0  0  0  0  0  0  0  0  0  0
  -17.6134  -23.2489   23.9638 C   0  0  0  0  0  0  0  0  0  0  0  0
  -25.5227  -13.7019   20.5290 C   0  0  0  0  0  0  0  0  0  0  0  0
  -24.5582  -14.6818   22.5156 C   0  0  0  0  0  0  0  0  0  0  0  0
  -16.6015  -25.1067   25.1214 C   0  0  0  0  0  0  0  0  0  0  0  0
  -18.3062  -24.1401   23.1452 C   0  0  0  0  0  0  0  0  0  0  0  0
  -23.9372  -23.4138   20.8494 C   0  0  0  0  0  0  0  0  0  0  0  0
  -25.2578  -12.4271   21.0292 C   0  0  0  0  0  0  0  0  0  0  0  0
  -24.2932  -13.4070   23.0158 C   0  0  0  0  0  0  0  0  0  0  0  0
  -24.3943  -22.9883   19.6028 C   0  0  0  0  0  0  0  0  0  0  0  0
  -22.5948  -10.3612   21.3001 C   0  0  0  0  0  0  0  0  0  0  0  0
  -22.0350   -9.4265   20.4292 C   0  0  0  0  0  0  0  0  0  0  0  0
  -24.6016  -25.2870   18.9010 C   0  0  0  0  0  0  0  0  0  0  0  0
  -23.9461   -7.9835   20.7497 C   0  0  0  0  0  0  0  0  0  0  0  0
  -29.4248  -24.3527   17.5005 C   0  0  0  0  0  0  0  0  0  0  0  0
  -25.1729  -14.8293   21.2722 C   0  0  0  0  0  0  0  0  0  0  0  0
  -24.6021  -16.9384   19.9557 C   0  0  0  0  0  0  0  0  0  0  0  0
  -17.3001  -26.0153   24.3109 C   0  0  0  0  0  0  0  0  0  0  0  0
  -23.7983  -24.7811   21.1278 C   0  0  0  0  0  0  0  0  0  0  0  0
  -18.1550  -25.5281   23.3038 C   0  0  0  0  0  0  0  0  0  0  0  0
  -24.1450  -25.7272   20.1528 C   0  0  0  0  0  0  0  0  0  0  0  0
  -24.6431  -12.2796   22.2726 C   0  0  0  0  0  0  0  0  0  0  0  0
  -24.7238  -23.9249   18.6274 C   0  0  0  0  0  0  0  0  0  0  0  0
  -23.8302  -10.1071   21.8958 C   0  0  0  0  0  0  0  0  0  0  0  0
  -22.7106   -8.2377   20.1539 C   0  0  0  0  0  0  0  0  0  0  0  0
  -24.5058   -8.9182   21.6206 C   0  0  0  0  0  0  0  0  0  0  0  0
  -25.4468  -16.1465   20.7563 C   0  0  0  0  0  0  0  0  0  0  0  0
  -28.7698  -23.1109   17.6038 C   0  0  0  0  0  0  0  0  0  0  0  0
  -30.1865  -24.4350   18.6405 C   0  0  0  0  0  0  0  0  0  0  0  0
  -25.3177  -18.0900   19.7361 C   0  0  0  0  0  0  0  0  0  0  0  0
  -23.2880  -16.6583   19.4553 C   0  0  0  0  0  0  0  0  0  0  0  0
  -21.3635  -26.6812   21.8794 C   0  0  0  0  0  0  0  0  0  0  0  0
  -23.7104  -28.8874   22.2629 C   0  0  0  0  0  0  0  0  0  0  0  0
  -28.3998  -22.1954   21.7172 C   0  0  0  0  0  0  0  0  0  0  0  0
  -26.8698  -29.9207   21.4900 C   0  0  0  0  0  0  0  0  0  0  0  0
  -17.0592  -27.4919   24.5012 C   0  0  0  0  0  0  0  0  0  0  0  0
  -23.3294  -25.2243   22.4865 C   0  0  0  0  0  0  0  0  0  0  0  0
  -24.0331  -27.2073   20.4086 C   0  0  0  0  0  0  0  0  0  0  0  0
  -18.1166  -28.3718   23.8393 C   0  0  0  0  0  0  0  0  0  0  0  0
  -30.1593  -19.1953   20.6540 C   0  0  0  0  0  0  0  0  0  0  0  0
  -18.3937  -27.8951   22.4170 C   0  0  0  0  0  0  0  0  0  0  0  0
  -29.0135  -18.1896   20.5499 C   0  0  0  0  0  0  0  0  0  0  0  0
  -29.9422  -20.1766   21.8029 C   0  0  0  0  0  0  0  0  0  0  0  0
  -27.4892  -19.8964   21.6344 C   0  0  0  0  0  0  0  0  0  0  0  0
  -18.9429  -26.4633   22.4123 C   0  0  1  0  0  0  0  0  0  0  0  0
  -22.7376  -26.6305   22.4851 C   0  0  1  0  0  0  0  0  0  0  0  0
  -27.6549  -18.9074   20.4685 C   0  0  2  0  0  0  0  0  0  0  0  0
  -31.0984  -25.4887   19.1219 C   0  0  0  0  0  0  0  0  0  0  0  0
  -28.4958  -31.7816   21.9265 C   0  0  0  0  0  0  0  0  0  0  0  0
  -30.3363  -22.7591   23.1545 C   0  0  0  0  0  0  0  0  0  0  0  0
  -29.1181  -24.5334   21.8833 C   0  0  0  0  0  0  0  0  0  0  0  0
  -22.1542  -30.6911   20.3564 C   0  0  0  0  0  0  0  0  0  0  0  0
  -24.2229  -32.0757   20.0888 C   0  0  0  0  0  0  0  0  0  0  0  0
  -23.1454  -31.8665   22.3289 C   0  0  0  0  0  0  0  0  0  0  0  0
  -28.8326  -28.0745   22.7138 C   0  0  0  0  0  0  0  0  0  0  0  0
  -27.7991  -22.4998   16.6250 C   0  0  0  0  0  0  0  0  0  0  0  0
  -26.9845  -23.5306   15.8406 C   0  0  0  0  0  0  0  0  0  0  0  0
  -30.5237  -22.8976   20.5993 C   0  0  0  0  0  0  0  0  0  0  0  0
  -26.0727  -24.3767   16.7216 C   0  0  0  0  0  0  0  0  0  1  0  0
  -24.3924  -29.8902   21.3638 C   0  0  1  0  0  0  0  0  0  0  0  0
  -28.0123  -30.4075   22.3631 C   0  0  2  0  0  0  0  0  0  0  0  0
  -29.6153  -23.0793   21.8396 C   0  0  0  0  0  0  0  0  0  0  0  0
  -23.4791  -31.1030   21.0287 C   0  0  0  0  0  0  0  0  0  0  0  0
  -26.6102  -16.7443   21.0269 N   0  0  0  0  0  0  0  0  0  0  0  0
  -29.0877  -22.4516   18.7211 N   0  0  0  0  0  0  0  0  0  0  0  0
  -29.9509  -23.2822   19.3303 N   0  0  0  0  0  0  0  0  0  0  0  0
  -26.5016  -17.9241   20.3927 N   0  0  0  0  0  0  0  0  0  0  0  0
  -23.5638  -27.5906   21.7504 N   0  0  0  0  0  0  0  0  0  0  0  0
  -28.6261  -20.8188   21.7043 N   0  0  0  0  0  0  0  0  0  0  0  0
  -25.0435  -19.2182   19.0473 N   0  0  0  0  0  0  0  0  0  0  0  0
  -22.6994  -15.4273   19.7759 N   0  0  0  0  0  0  0  0  0  0  0  0
  -20.3419  -26.4574   22.7826 N   0  0  0  0  0  0  0  0  0  0  0  0
  -25.6422  -30.2482   22.0258 N   0  0  0  0  0  0  0  0  0  0  0  0
  -29.1603  -29.4601   22.2897 N   0  3  0  0  0  0  0  0  0  0  0  0
  -22.6611  -17.4685   18.7314 O   0  0  0  0  0  0  0  0  0  0  0  0
  -21.2392  -26.9082   20.6816 O   0  0  0  0  0  0  0  0  0  0  0  0
  -23.3284  -29.2399   23.3816 O   0  0  0  0  0  0  0  0  0  0  0  0
  -27.2838  -22.7146   21.6330 O   0  0  0  0  0  0  0  0  0  0  0  0
  -27.0485  -29.3142   20.4361 O   0  0  0  0  0  0  0  0  0  0  0  0
  -24.3842  -11.0357   22.7609 O   0  0  0  0  0  0  0  0  0  0  0  0
  -25.1695  -23.5123   17.4097 O   0  0  0  0  0  0  0  0  0  1  0  0
  -22.1723   -7.3395   19.3187 F   0  0  0  0  0  0  0  0  0  0  0  0
  -25.6924   -8.6680   22.1908 F   0  0  0  0  0  0  0  0  0  0  0  0
  1  2  1  0  0  0  0
  1  5  2  0  0  0  0
  2  6  2  0  0  0  0
  3  8  2  0  0  0  0
  3 16  1  0  0  0  0
  4  9  1  0  0  0  0
  4 16  2  0  0  0  0
  5 18  1  0  0  0  0
  6 20  1  0  0  0  0
  7 10  2  0  0  0  0
  7 19  1  0  0  0  0
  8 22  1  0  0  0  0
  9 22  2  0  0  0  0
 10 23  1  0  0  0  0
 11 12  2  0  0  0  0
 11 24  1  0  0  0  0
 12 25  1  0  0  0  0
 13 21  1  0  0  0  0
 13 23  2  0  0  0  0
 14 25  2  0  0  0  0
 14 26  1  0  0  0  0
 15 28  1  0  0  0  0
 15 29  2  0  0  0  0
 16 27  1  0  0  0  0
 17 27  1  0  0  0  0
 17 30  2  0  0  0  0
 17 31  1  0  0  0  0
 18 20  2  0  0  0  0
 18 36  1  0  0  0  0
 19 21  2  0  0  0  0
 19 37  1  0  0  0  0
 20 45  1  0  0  0  0
 21 38  1  0  0  0  0
 22 80  1  0  0  0  0
 23 81  1  0  0  0  0
 24 26  2  0  0  0  0
 24 80  1  0  0  0  0
 25 82  1  0  0  0  0
 26 83  1  0  0  0  0
 27 64  2  0  0  0  0
 28 56  1  0  0  0  0
 28 65  2  0  0  0  0
 29 48  1  0  0  0  0
 29 66  1  0  0  0  0
 30 67  1  0  0  0  0
 30 70  1  0  0  0  0
 31 71  1  0  0  0  0
 31 75  2  0  0  0  0
 32 46  1  0  0  0  0
 32 72  1  0  0  0  0
 32 76  2  0  0  0  0
 33 60  1  0  0  0  0
 33 68  1  0  0  0  0
 33 77  2  0  0  0  0
 34 62  1  0  0  0  0
 34 69  1  0  0  0  0
 34 78  2  0  0  0  0
 35 61  1  0  0  0  0
 35 73  1  0  0  0  0
 35 79  2  0  0  0  0
 36 39  1  0  0  0  0
 37 46  1  0  0  0  0
 38 68  1  0  0  0  0
 39 41  1  0  0  0  0
 40 42  1  0  0  0  0
 40 43  1  0  0  0  0
 41 45  1  0  0  0  0
 42 47  1  0  0  0  0
 43 69  1  0  0  0  0
 44 47  1  0  0  0  0
 44 69  1  0  0  0  0
 45 72  1  0  0  0  0
 46 68  1  0  0  0  0
 47 67  1  0  0  0  0
 49 61  1  0  0  0  0
 50 62  1  0  0  0  0
 51 62  1  0  0  0  0
 52 63  1  0  0  0  0
 53 63  1  0  0  0  0
 54 63  1  0  0  0  0
 55 74  1  0  0  0  0
 56 57  1  0  0  0  0
 57 59  1  0  0  0  0
 58 62  1  0  0  0  0
 58 66  1  0  0  0  0
 59 81  1  0  0  0  0
 60 63  1  0  0  0  0
 60 73  1  0  0  0  0
 61 74  1  0  0  0  0
 64 67  1  0  0  0  0
 65 66  1  0  0  0  0
M  CHG  1  74   1
M  ISO  4  34 100  59 101  62 100  81 101
M  END
> <Batch ID>
0039

> <Smiles>
CNC(C)C(=O)NC(C(=O)N1Cc2cc([101O:1][101CH2:1]CCc3cc(C)n(C[100C:0](C)(C)[100C:0](=O)N4CCCC(n5nc(-c6ccc(Oc7ccc(F)cc7F)cc6)c(C(N)=O)c5N)C4)n3)ccc2CC1C(=O)NC1CCCc2ccccc21)C(C)(C)C

> <Shape>
0.246

> <Color>
0.051

> <Negative vol penalty>
0.000

$$$$

  -OEChem-04052317043D

 90 98  0     1  0  0  0  0  0999 V2000
  -20.7511  -23.3758   19.4164 C   0  0  0  0  0  0  0  0  0  0  0  0
  -22.1073  -23.0790   19.3258 C   0  0  0  0  0  0  0  0  0  0  0  0
  -21.2810  -30.0890   21.7950 C   0  0  0  0  0  0  0  0  0  0  0  0
  -22.0797  -28.0617   22.8386 C   0  0  0  0  0  0  0  0  0  0  0  0
  -19.9223  -22.6031   20.2287 C   0  0  0  0  0  0  0  0  0  0  0  0
  -22.6356  -22.0098   20.0485 C   0  0  0  0  0  0  0  0  0  0  0  0
  -27.1740  -18.2803   18.3164 C   0  0  0  0  0  0  0  0  0  0  0  0
  -20.0145  -29.8688   22.3364 C   0  0  0  0  0  0  0  0  0  0  0  0
  -20.8132  -27.8415   23.3800 C   0  0  0  0  0  0  0  0  0  0  0  0
  -28.5357  -18.2587   18.6145 C   0  0  0  0  0  0  0  0  0  0  0  0
  -17.6983  -26.5551   24.7412 C   0  0  0  0  0  0  0  0  0  0  0  0
  -17.1743  -25.2649   24.6609 C   0  0  0  0  0  0  0  0  0  0  0  0
  -28.1217  -16.6466   20.3606 C   0  0  0  0  0  0  0  0  0  0  0  0
  -32.9026  -18.3983   22.7911 C   0  0  0  0  0  0  0  0  0  0  0  0
  -33.1027  -18.8839   20.4329 C   0  0  0  0  0  0  0  0  0  0  0  0
  -17.3019  -25.3632   22.2502 C   0  0  0  0  0  0  0  0  0  0  0  0
  -22.3136  -29.1855   22.0461 C   0  0  0  0  0  0  0  0  0  0  0  0
  -24.6831  -30.1302   22.0699 C   0  0  0  0  0  0  0  0  0  0  0  0
  -20.4389  -21.5180   20.9541 C   0  0  0  0  0  0  0  0  0  0  0  0
  -26.2729  -17.4921   19.0466 C   0  0  0  0  0  0  0  0  0  0  0  0
  -21.8131  -21.2227   20.8723 C   0  0  0  0  0  0  0  0  0  0  0  0
  -26.7494  -16.6581   20.0681 C   0  0  0  0  0  0  0  0  0  0  0  0
  -32.7719  -18.0006   21.4606 C   0  0  0  0  0  0  0  0  0  0  0  0
  -33.3640  -19.6794   23.0941 C   0  0  0  0  0  0  0  0  0  0  0  0
  -33.5642  -20.1649   20.7358 C   0  0  0  0  0  0  0  0  0  0  0  0
  -33.6949  -20.5626   22.0664 C   0  0  0  0  0  0  0  0  0  0  0  0
  -19.7806  -28.7450   23.1289 C   0  0  0  0  0  0  0  0  0  0  0  0
  -29.0094  -17.4440   19.6386 C   0  0  0  0  0  0  0  0  0  0  0  0
  -18.0241  -27.2494   23.5760 C   0  0  0  0  0  0  0  0  0  0  0  0
  -16.9762  -24.6689   23.4154 C   0  0  0  0  0  0  0  0  0  0  0  0
  -17.8259  -26.6534   22.3306 C   0  0  0  0  0  0  0  0  0  0  0  0
  -23.6219  -29.4122   21.4867 C   0  0  0  0  0  0  0  0  0  0  0  0
  -25.6975  -30.0538   21.1471 C   0  0  0  0  0  0  0  0  0  0  0  0
  -24.7462  -30.8058   23.3330 C   0  0  0  0  0  0  0  0  0  0  0  0
  -23.7740  -18.0912   20.9175 C   0  0  0  0  0  0  0  0  0  0  0  0
  -26.8730  -26.0789   16.7963 C   0  0  0  0  0  0  0  0  0  0  0  0
  -23.4754  -14.8613   20.8934 C   0  0  0  0  0  0  0  0  0  0  0  0
  -24.9623  -11.8172   20.4815 C   0  0  0  0  0  0  0  0  0  0  0  0
  -19.5128  -20.7407   21.8557 C   0  0  0  0  0  0  0  0  0  0  0  0
  -24.8105  -17.5066   18.6949 C   0  0  0  0  0  0  0  0  0  0  0  0
  -25.8260  -15.7775   20.8684 C   0  0  0  0  0  0  0  0  0  0  0  0
  -20.0807  -19.3942   22.2971 C   0  0  0  0  0  0  0  0  0  0  0  0
  -26.4759  -29.6236   16.4538 C   0  0  0  0  0  0  0  0  0  0  0  0
  -21.5255  -19.5503   22.7607 C   0  0  0  0  0  0  0  0  0  0  0  0
  -25.7700  -30.0322   17.7460 C   0  0  0  0  0  0  0  0  0  0  0  0
  -26.0167  -28.2492   15.9772 C   0  0  0  0  0  0  0  0  0  0  0  0
  -25.4625  -27.5763   18.2928 C   0  0  0  0  0  0  0  0  0  0  0  0
  -22.4189  -20.0557   21.6215 C   0  0  1  0  0  0  0  0  0  0  0  0
  -23.9154  -17.0505   19.8430 C   0  0  1  0  0  0  0  0  0  0  0  0
  -25.9203  -28.9457   18.8254 C   0  0  2  0  0  0  0  0  0  0  0  0
  -33.4960  -20.0802   24.5271 C   0  0  0  0  0  0  0  0  0  0  0  0
  -34.1900  -21.9359   22.3915 C   0  0  0  0  0  0  0  0  0  0  0  0
  -24.4706   -9.3577   20.5615 C   0  0  0  0  0  0  0  0  0  0  0  0
  -26.7523  -21.9423   18.7400 C   0  0  0  0  0  0  0  0  0  0  0  0
  -23.4687  -14.9643   23.9428 C   0  0  0  0  0  0  0  0  0  0  0  0
  -23.9333  -12.5042   23.9575 C   0  0  0  0  0  0  0  0  0  0  0  0
  -21.8209  -13.3668   22.9494 C   0  0  0  0  0  0  0  0  0  0  0  0
  -25.6949  -11.4603   17.6363 C   0  0  0  0  0  0  0  0  0  0  0  0
  -29.1304  -21.4915   16.8646 C   0  0  0  0  0  0  0  0  0  0  0  0
  -32.2719  -16.6147   21.1328 C   0  0  0  0  0  0  0  0  0  0  0  0
  -33.9119  -21.0918   19.6170 C   0  0  0  0  0  0  0  0  0  0  0  0
  -26.9742  -25.0992   17.9382 C   0  0  0  0  0  0  0  0  0  0  0  0
  -32.8354  -22.1477   19.3113 C   0  0  0  0  0  0  0  0  0  0  0  0
  -27.7894  -23.8849   17.4995 C   0  0  0  0  0  0  0  0  0  0  0  0
  -31.4731  -21.5306   18.9804 C   0  0  0  0  0  0  0  0  0  0  0  0
  -30.4519  -22.6109   18.6538 C   0  0  0  0  0  0  0  0  0  0  0  0
  -30.7543  -16.5636   20.9938 C   0  0  0  0  0  0  0  0  0  1  0  0
  -24.0108  -13.7318   21.7399 C   0  0  1  0  0  0  0  0  0  0  0  0
  -24.5504  -10.5950   19.6809 C   0  0  2  0  0  0  0  0  0  0  0  0
  -27.9731  -22.8429   18.6071 C   0  0  2  0  0  0  0  0  0  0  0  0
  -23.3258  -13.6597   23.1338 C   0  0  0  0  0  0  0  0  0  0  0  0
  -23.9333  -28.9162   20.2862 N   0  0  0  0  0  0  0  0  0  0  0  0
  -25.2015  -29.3234   20.1076 N   0  0  0  0  0  0  0  0  0  0  0  0
  -24.4040  -15.8316   20.4908 N   0  0  0  0  0  0  0  0  0  0  0  0
  -26.1543  -27.2498   17.0381 N   0  0  0  0  0  0  0  0  0  0  0  0
  -26.9564  -30.5409   21.1315 N   0  0  0  0  0  0  0  0  0  0  0  0
  -23.6140  -30.7857   24.1588 N   0  0  0  0  0  0  0  0  0  0  0  0
  -22.7339  -18.9769   20.7096 N   0  0  0  0  0  0  0  0  0  0  0  0
  -23.8682  -12.5196   20.9406 N   0  0  0  0  0  0  0  0  0  0  0  0
  -25.5332  -10.3340   18.5915 N   0  3  0  0  0  0  0  0  0  0  0  0
  -29.1640  -21.9692   18.2961 N   0  3  1  0  0  0  0  0  0  0  0  0
  -25.7707  -31.4234   23.7107 O   0  0  0  0  0  0  0  0  0  0  0  0
  -24.5502  -18.0899   21.8658 O   0  0  0  0  0  0  0  0  0  0  0  0
  -27.4195  -25.8110   15.7231 O   0  0  0  0  0  0  0  0  0  0  0  0
  -22.2788  -14.8781   20.5942 O   0  0  0  0  0  0  0  0  0  0  0  0
  -26.1372  -12.1167   20.6828 O   0  0  0  0  0  0  0  0  0  0  0  0
  -18.5449  -28.5299   23.6575 O   0  0  0  0  0  0  0  0  0  0  0  0
  -30.3381  -17.4215   19.9321 O   0  0  0  0  0  0  0  0  0  1  0  0
  -16.4744  -23.4294   23.3385 F   0  0  0  0  0  0  0  0  0  0  0  0
  -18.1380  -27.3150   21.2078 F   0  0  0  0  0  0  0  0  0  0  0  0
  1  2  1  0  0  0  0
  1  5  2  0  0  0  0
  2  6  2  0  0  0  0
  3  8  2  0  0  0  0
  3 17  1  0  0  0  0
  4  9  1  0  0  0  0
  4 17  2  0  0  0  0
  5 19  1  0  0  0  0
  6 21  1  0  0  0  0
  7 10  2  0  0  0  0
  7 20  1  0  0  0  0
  8 27  1  0  0  0  0
  9 27  2  0  0  0  0
 10 28  1  0  0  0  0
 11 12  2  0  0  0  0
 11 29  1  0  0  0  0
 12 30  1  0  0  0  0
 13 22  1  0  0  0  0
 13 28  2  0  0  0  0
 14 23  1  0  0  0  0
 14 24  2  0  0  0  0
 15 23  2  0  0  0  0
 15 25  1  0  0  0  0
 16 30  2  0  0  0  0
 16 31  1  0  0  0  0
 17 32  1  0  0  0  0
 18 32  1  0  0  0  0
 18 33  2  0  0  0  0
 18 34  1  0  0  0  0
 19 21  2  0  0  0  0
 19 39  1  0  0  0  0
 20 22  2  0  0  0  0
 20 40  1  0  0  0  0
 21 48  1  0  0  0  0
 22 41  1  0  0  0  0
 23 60  1  0  0  0  0
 24 26  1  0  0  0  0
 24 51  1  0  0  0  0
 25 26  2  0  0  0  0
 25 61  1  0  0  0  0
 26 52  1  0  0  0  0
 27 87  1  0  0  0  0
 28 88  1  0  0  0  0
 29 31  2  0  0  0  0
 29 87  1  0  0  0  0
 30 89  1  0  0  0  0
 31 90  1  0  0  0  0
 32 72  2  0  0  0  0
 33 73  1  0  0  0  0
 33 76  1  0  0  0  0
 34 77  1  0  0  0  0
 34 82  2  0  0  0  0
 35 49  1  0  0  0  0
 35 78  1  0  0  0  0
 35 83  2  0  0  0  0
 36 62  1  0  0  0  0
 36 75  1  0  0  0  0
 36 84  2  0  0  0  0
 37 68  1  0  0  0  0
 37 74  1  0  0  0  0
 37 85  2  0  0  0  0
 38 69  1  0  0  0  0
 38 79  1  0  0  0  0
 38 86  2  0  0  0  0
 39 42  1  0  0  0  0
 40 49  1  0  0  0  0
 41 74  1  0  0  0  0
 42 44  1  0  0  0  0
 43 45  1  0  0  0  0
 43 46  1  0  0  0  0
 44 48  1  0  0  0  0
 45 50  1  0  0  0  0
 46 75  1  0  0  0  0
 47 50  1  0  0  0  0
 47 75  1  0  0  0  0
 48 78  1  0  0  0  0
 49 74  1  0  0  0  0
 50 73  1  0  0  0  0
 53 69  1  0  0  0  0
 54 70  1  0  0  0  0
 55 71  1  0  0  0  0
 56 71  1  0  0  0  0
 57 71  1  0  0  0  0
 58 80  1  0  0  0  0
 59 81  1  0  0  0  0
 60 67  1  0  0  0  0
 61 63  1  0  0  0  0
 62 64  1  0  0  0  0
 63 65  1  0  0  0  0
 64 70  1  0  0  0  0
 65 66  1  0  0  0  0
 66 81  1  0  0  0  0
 67 88  1  0  0  0  0
 68 71  1  0  0  0  0
 68 79  1  0  0  0  0
 69 80  1  0  0  0  0
 70 81  1  0  0  0  0
 72 73  1  0  0  0  0
M  CHG  2  80   1  81   1
M  ISO  4  36 100  62 100  67 101  88 101
M  END
> <Batch ID>
0039

> <Smiles>
CNC(C)C(=O)NC(C(=O)N1Cc2cc([101O:1][101CH2:1]Cc3cc(C)c(C)c(CCCCN(C)C(C)C[100CH2:0][100C:0](=O)N4CCCC(n5nc(-c6ccc(Oc7ccc(F)cc7F)cc6)c(C(N)=O)c5N)C4)c3)ccc2CC1C(=O)NC1CCCc2ccccc21)C(C)(C)C

> <Shape>
0.209

> <Color>
0.065

> <Negative vol penalty>
0.000

$$$$

  -OEChem-04052317043D

 85 93  0     1  0  0  0  0  0999 V2000
  -30.3582  -34.8913   21.0493 C   0  0  0  0  0  0  0  0  0  0  0  0
  -30.6137  -33.5248   20.9978 C   0  0  0  0  0  0  0  0  0  0  0  0
  -24.4925   -9.1525   21.4535 C   0  0  0  0  0  0  0  0  0  0  0  0
  -22.6150  -10.3191   20.4783 C   0  0  0  0  0  0  0  0  0  0  0  0
  -29.1551  -35.3548   21.5800 C   0  0  0  0  0  0  0  0  0  0  0  0
  -29.6667  -32.6209   21.4780 C   0  0  0  0  0  0  0  0  0  0  0  0
  -28.4403  -27.0466   19.2579 C   0  0  0  0  0  0  0  0  0  0  0  0
  -23.7026   -8.0139   21.6123 C   0  0  0  0  0  0  0  0  0  0  0  0
  -21.8251   -9.1805   20.6370 C   0  0  0  0  0  0  0  0  0  0  0  0
  -28.8447  -25.7711   19.6496 C   0  0  0  0  0  0  0  0  0  0  0  0
  -21.3298   -6.9072   23.7499 C   0  0  0  0  0  0  0  0  0  0  0  0
  -21.4015   -6.2344   24.9697 C   0  0  0  0  0  0  0  0  0  0  0  0
  -26.8044  -25.5184   20.9116 C   0  0  0  0  0  0  0  0  0  0  0  0
  -22.1513   -4.2422   23.8269 C   0  0  0  0  0  0  0  0  0  0  0  0
  -23.9487  -10.3052   20.8866 C   0  0  0  0  0  0  0  0  0  0  0  0
  -25.5535  -11.8206   19.6077 C   0  0  0  0  0  0  0  0  0  0  0  0
  -28.1888  -34.4558   22.0581 C   0  0  0  0  0  0  0  0  0  0  0  0
  -27.2178  -27.5727   19.6997 C   0  0  0  0  0  0  0  0  0  0  0  0
  -28.4501  -33.0729   22.0168 C   0  0  0  0  0  0  0  0  0  0  0  0
  -26.3856  -26.7998   20.5220 C   0  0  0  0  0  0  0  0  0  0  0  0
  -22.3689   -8.0279   21.2040 C   0  0  0  0  0  0  0  0  0  0  0  0
  -28.0280  -25.0080   20.4789 C   0  0  0  0  0  0  0  0  0  0  0  0
  -21.6688   -6.2474   22.5686 C   0  0  0  0  0  0  0  0  0  0  0  0
  -21.8123   -4.9020   25.0082 C   0  0  0  0  0  0  0  0  0  0  0  0
  -22.0796   -4.9150   22.6071 C   0  0  0  0  0  0  0  0  0  0  0  0
  -24.7640  -11.4818   20.7229 C   0  0  0  0  0  0  0  0  0  0  0  0
  -25.5612  -21.6046   19.0687 C   0  0  0  0  0  0  0  0  0  0  0  0
  -27.1783  -19.8593   20.2795 C   0  0  0  0  0  0  0  0  0  0  0  0
  -25.1103  -20.3570   19.4398 C   0  0  0  0  0  0  0  0  0  0  0  0
  -27.6295  -21.1066   19.9078 C   0  0  0  0  0  0  0  0  0  0  0  0
  -26.1250  -13.0234   19.9442 C   0  0  0  0  0  0  0  0  0  0  0  0
  -25.7525  -11.1115   18.3775 C   0  0  0  0  0  0  0  0  0  0  0  0
  -26.3578  -30.0798   21.4544 C   0  0  0  0  0  0  0  0  0  0  0  0
  -23.3657  -29.1448   20.6204 C   0  0  0  0  0  0  0  0  0  0  0  0
  -21.2945  -26.6319   19.5996 C   0  0  0  0  0  0  0  0  0  0  0  0
  -24.5092  -17.3959   23.7021 C   0  0  0  0  0  0  0  0  0  0  0  0
  -26.9231  -35.0062   22.6662 C   0  0  0  0  0  0  0  0  0  0  0  0
  -26.7839  -28.9397   19.2465 C   0  0  0  0  0  0  0  0  0  0  0  0
  -25.0545  -27.3107   21.0073 C   0  0  0  0  0  0  0  0  0  0  0  0
  -25.8145  -33.9667   22.8102 C   0  0  0  0  0  0  0  0  0  0  0  0
  -27.5572  -15.5561   23.7422 C   0  0  0  0  0  0  0  0  0  0  0  0
  -26.3659  -32.6780   23.4118 C   0  0  0  0  0  0  0  0  0  0  0  0
  -27.2582  -14.3339   22.8723 C   0  0  0  0  0  0  0  0  0  0  0  0
  -26.3419  -15.9719   24.5681 C   0  0  0  0  0  0  0  0  0  0  0  0
  -24.8100  -14.9684   22.9190 C   0  0  0  0  0  0  0  0  0  0  0  0
  -27.4372  -32.0601   22.5051 C   0  0  1  0  0  0  0  0  0  0  0  0
  -25.7538  -29.5775   20.1736 C   0  0  1  0  0  0  0  0  0  0  0  0
  -25.9887  -14.5452   22.0257 C   0  0  2  0  0  0  0  0  0  0  0  0
  -24.6655  -22.5856   18.3929 C   0  0  0  0  0  0  0  0  0  0  0  0
  -28.0737  -18.8781   20.9556 C   0  0  0  0  0  0  0  0  0  0  0  0
  -18.8939  -26.1632   19.0386 C   0  0  0  0  0  0  0  0  0  0  0  0
  -22.6756  -29.1349   23.5926 C   0  0  0  0  0  0  0  0  0  0  0  0
  -20.6422  -27.7809   23.0446 C   0  0  0  0  0  0  0  0  0  0  0  0
  -20.8960  -30.0804   22.1115 C   0  0  0  0  0  0  0  0  0  0  0  0
  -21.9718  -25.8702   16.8211 C   0  0  0  0  0  0  0  0  0  0  0  0
  -23.7057  -19.9299   19.1822 C   0  0  0  0  0  0  0  0  0  0  0  0
  -29.0523  -21.5384   20.1674 C   0  0  0  0  0  0  0  0  0  0  0  0
  -23.1806  -18.9719   20.2635 C   0  0  0  0  0  0  0  0  0  0  0  0
  -23.1645  -19.6306   21.6461 C   0  0  0  0  0  0  0  0  0  0  0  0
  -22.6341  -18.7008   22.7325 C   0  0  0  0  0  0  0  0  0  0  0  0
  -29.2510  -23.0357   19.9589 C   0  0  0  0  0  0  0  0  0  1  0  0
  -22.3357  -28.2096   21.2063 C   0  0  1  0  0  0  0  0  0  0  0  0
  -20.2550  -26.5694   18.4952 C   0  0  2  0  0  0  0  0  0  0  0  0
  -21.6633  -28.7923   22.4814 C   0  0  0  0  0  0  0  0  0  0  0  0
  -24.8260  -12.3955   21.6953 N   0  0  0  0  0  0  0  0  0  0  0  0
  -25.9107  -19.4620   20.0521 N   0  0  0  0  0  0  0  0  0  0  0  0
  -26.8290  -22.0017   19.2958 N   0  0  0  0  0  0  0  0  0  0  0  0
  -25.6614  -13.3202   21.1921 N   0  0  0  0  0  0  0  0  0  0  0  0
  -24.6773  -28.6556   20.5419 N   0  0  0  0  0  0  0  0  0  0  0  0
  -25.1725  -16.1577   23.7057 N   0  0  0  0  0  0  0  0  0  0  0  0
  -26.9739  -13.8454   19.2915 N   0  0  0  0  0  0  0  0  0  0  0  0
  -25.0892   -9.8903   18.1955 N   0  0  0  0  0  0  0  0  0  0  0  0
  -26.8212  -31.3798   21.3861 N   0  0  0  0  0  0  0  0  0  0  0  0
  -21.4037  -27.9012   20.1271 N   0  0  0  0  0  0  0  0  0  0  0  0
  -23.4145  -17.4893   22.8515 N   0  0  0  0  0  0  0  0  0  0  0  0
  -20.6609  -25.5802   17.4571 N   0  3  0  0  0  0  0  0  0  0  0  0
  -26.5092  -11.5399   17.4735 O   0  0  0  0  0  0  0  0  0  0  0  0
  -26.3991  -29.3429   22.4327 O   0  0  0  0  0  0  0  0  0  0  0  0
  -23.0180  -30.2655   20.2398 O   0  0  0  0  0  0  0  0  0  0  0  0
  -21.9422  -25.6518   19.9610 O   0  0  0  0  0  0  0  0  0  0  0  0
  -24.8694  -18.3492   24.4009 O   0  0  0  0  0  0  0  0  0  0  0  0
  -21.5979   -6.9169   21.3585 O   0  0  0  0  0  0  0  0  0  0  0  0
  -28.4206  -23.7630   20.8633 O   0  0  0  0  0  0  0  0  0  1  0  0
  -21.8826   -4.2566   26.1798 F   0  0  0  0  0  0  0  0  0  0  0  0
  -22.4076   -4.2762   21.4756 F   0  0  0  0  0  0  0  0  0  0  0  0
  1  2  1  0  0  0  0
  1  5  2  0  0  0  0
  2  6  2  0  0  0  0
  3  8  2  0  0  0  0
  3 15  1  0  0  0  0
  4  9  1  0  0  0  0
  4 15  2  0  0  0  0
  5 17  1  0  0  0  0
  6 19  1  0  0  0  0
  7 10  2  0  0  0  0
  7 18  1  0  0  0  0
  8 21  1  0  0  0  0
  9 21  2  0  0  0  0
 10 22  1  0  0  0  0
 11 12  2  0  0  0  0
 11 23  1  0  0  0  0
 12 24  1  0  0  0  0
 13 20  1  0  0  0  0
 13 22  2  0  0  0  0
 14 24  2  0  0  0  0
 14 25  1  0  0  0  0
 15 26  1  0  0  0  0
 16 26  1  0  0  0  0
 16 31  2  0  0  0  0
 16 32  1  0  0  0  0
 17 19  2  0  0  0  0
 17 37  1  0  0  0  0
 18 20  2  0  0  0  0
 18 38  1  0  0  0  0
 19 46  1  0  0  0  0
 20 39  1  0  0  0  0
 21 82  1  0  0  0  0
 22 83  1  0  0  0  0
 23 25  2  0  0  0  0
 23 82  1  0  0  0  0
 24 84  1  0  0  0  0
 25 85  1  0  0  0  0
 26 65  2  0  0  0  0
 27 29  1  0  0  0  0
 27 49  1  0  0  0  0
 27 67  2  0  0  0  0
 28 30  2  0  0  0  0
 28 50  1  0  0  0  0
 28 66  1  0  0  0  0
 29 56  1  0  0  0  0
 29 66  2  0  0  0  0
 30 57  1  0  0  0  0
 30 67  1  0  0  0  0
 31 68  1  0  0  0  0
 31 71  1  0  0  0  0
 32 72  1  0  0  0  0
 32 77  2  0  0  0  0
 33 47  1  0  0  0  0
 33 73  1  0  0  0  0
 33 78  2  0  0  0  0
 34 62  1  0  0  0  0
 34 69  1  0  0  0  0
 34 79  2  0  0  0  0
 35 63  1  0  0  0  0
 35 74  1  0  0  0  0
 35 80  2  0  0  0  0
 36 70  1  0  0  0  0
 36 75  1  0  0  0  0
 36 81  2  0  0  0  0
 37 40  1  0  0  0  0
 38 47  1  0  0  0  0
 39 69  1  0  0  0  0
 40 42  1  0  0  0  0
 41 43  1  0  0  0  0
 41 44  1  0  0  0  0
 42 46  1  0  0  0  0
 43 48  1  0  0  0  0
 44 70  1  0  0  0  0
 45 48  1  0  0  0  0
 45 70  1  0  0  0  0
 46 73  1  0  0  0  0
 47 69  1  0  0  0  0
 48 68  1  0  0  0  0
 51 63  1  0  0  0  0
 52 64  1  0  0  0  0
 53 64  1  0  0  0  0
 54 64  1  0  0  0  0
 55 76  1  0  0  0  0
 56 58  1  0  0  0  0
 57 61  1  0  0  0  0
 58 59  1  0  0  0  0
 59 60  1  0  0  0  0
 60 75  1  0  0  0  0
 61 83  1  0  0  0  0
 62 64  1  0  0  0  0
 62 74  1  0  0  0  0
 63 76  1  0  0  0  0
 65 68  1  0  0  0  0
M  CHG  1  76   1
M  ISO  4  36 100  61 101  75 100  83 101
M  END
> <Batch ID>
0039

> <Smiles>
CNC(C)C(=O)NC(C(=O)N1Cc2cc([101O:1][101CH2:1]Cc3nc(C)c(CCCC[100NH:0][100C:0](=O)N4CCCC(n5nc(-c6ccc(Oc7ccc(F)cc7F)cc6)c(C(N)=O)c5N)C4)nc3C)ccc2CC1C(=O)NC1CCCc2ccccc21)C(C)(C)C

> <Shape>
0.265

> <Color>
0.093

> <Negative vol penalty>
0.000

$$$$

  -OEChem-04052317043D

 86 94  0     1  0  0  0  0  0999 V2000
  -26.6880  -25.9769   17.2189 C   0  0  0  0  0  0  0  0  0  0  0  0
  -26.8568  -24.6679   17.6584 C   0  0  0  0  0  0  0  0  0  0  0  0
  -23.2889   -9.7990   19.9123 C   0  0  0  0  0  0  0  0  0  0  0  0
  -23.7365   -9.9411   22.2822 C   0  0  0  0  0  0  0  0  0  0  0  0
  -27.7956  -26.8116   17.0765 C   0  0  0  0  0  0  0  0  0  0  0  0
  -28.1338  -24.1924   17.9548 C   0  0  0  0  0  0  0  0  0  0  0  0
  -28.2747  -21.5742   22.2873 C   0  0  0  0  0  0  0  0  0  0  0  0
  -22.5627   -8.6263   20.1197 C   0  0  0  0  0  0  0  0  0  0  0  0
  -23.0102   -8.7685   22.4897 C   0  0  0  0  0  0  0  0  0  0  0  0
  -27.8019  -20.2630   22.2545 C   0  0  0  0  0  0  0  0  0  0  0  0
  -20.8931   -5.3988   19.9812 C   0  0  0  0  0  0  0  0  0  0  0  0
  -21.1195   -4.3316   19.1120 C   0  0  0  0  0  0  0  0  0  0  0  0
  -30.0708  -19.4545   22.1228 C   0  0  0  0  0  0  0  0  0  0  0  0
  -29.3334  -15.4103   23.7549 C   0  0  0  0  0  0  0  0  0  0  0  0
  -23.4417   -4.2825   19.7771 C   0  0  0  0  0  0  0  0  0  0  0  0
  -27.9412  -16.0045   25.5893 C   0  0  0  0  0  0  0  0  0  0  0  0
  -23.8758  -10.4564   20.9935 C   0  0  0  0  0  0  0  0  0  0  0  0
  -24.1346  -12.9863   20.7938 C   0  0  0  0  0  0  0  0  0  0  0  0
  -29.0857  -26.3491   17.3805 C   0  0  0  0  0  0  0  0  0  0  0  0
  -29.6509  -21.8362   22.2269 C   0  0  0  0  0  0  0  0  0  0  0  0
  -29.2599  -25.0212   17.8151 C   0  0  0  0  0  0  0  0  0  0  0  0
  -30.5587  -20.7698   22.1575 C   0  0  0  0  0  0  0  0  0  0  0  0
  -28.1046  -15.8648   24.2205 C   0  0  0  0  0  0  0  0  0  0  0  0
  -30.3469  -15.1137   24.6595 C   0  0  0  0  0  0  0  0  0  0  0  0
  -22.4233   -8.1111   21.4084 C   0  0  0  0  0  0  0  0  0  0  0  0
  -28.6998  -19.2031   22.1694 C   0  0  0  0  0  0  0  0  0  0  0  0
  -21.9410   -5.9079   20.7483 C   0  0  0  0  0  0  0  0  0  0  0  0
  -22.3938   -3.7734   19.0100 C   0  0  0  0  0  0  0  0  0  0  0  0
  -23.2153   -5.3498   20.6462 C   0  0  0  0  0  0  0  0  0  0  0  0
  -24.6266  -11.6674   20.7798 C   0  0  0  0  0  0  0  0  0  0  0  0
  -30.0831  -15.2873   26.0086 C   0  0  0  0  0  0  0  0  0  0  0  0
  -25.2361  -13.7665   20.5398 C   0  0  0  0  0  0  0  0  0  0  0  0
  -22.8011  -13.4636   21.0166 C   0  0  0  0  0  0  0  0  0  0  0  0
  -31.5537  -23.3805   20.2024 C   0  0  0  0  0  0  0  0  0  0  0  0
  -33.8005  -22.7762   22.4627 C   0  0  0  0  0  0  0  0  0  0  0  0
  -34.8356  -20.8370   25.0732 C   0  0  0  0  0  0  0  0  0  0  0  0
  -31.1063  -12.9260   21.3677 C   0  0  0  0  0  0  0  0  0  0  0  0
  -30.2577  -27.2737   17.1658 C   0  0  0  0  0  0  0  0  0  0  0  0
  -30.1461  -23.2551   22.2902 C   0  0  0  0  0  0  0  0  0  0  0  0
  -32.0468  -20.9968   22.1107 C   0  0  0  0  0  0  0  0  0  0  0  0
  -31.5357  -26.8083   17.8590 C   0  0  0  0  0  0  0  0  0  0  0  0
  -29.4612  -13.6631   18.2973 C   0  0  0  0  0  0  0  0  0  0  0  0
  -31.7717  -25.3233   17.6024 C   0  0  0  0  0  0  0  0  0  0  0  0
  -27.9912  -13.3542   18.5867 C   0  0  0  0  0  0  0  0  0  0  0  0
  -30.3939  -12.6844   19.0075 C   0  0  0  0  0  0  0  0  0  0  0  0
  -28.7051  -12.2555   20.7504 C   0  0  0  0  0  0  0  0  0  0  0  0
  -30.6263  -24.4764   18.1702 C   0  0  1  0  0  0  0  0  0  0  0  0
  -31.5441  -23.4268   21.7042 C   0  0  1  0  0  0  0  0  0  0  0  0
  -27.7277  -13.2500   20.1009 C   0  0  2  0  0  0  0  0  0  0  0  0
  -31.3046  -17.4138   27.8394 C   0  0  0  0  0  0  0  0  0  0  0  0
  -29.7630  -13.1675   28.2103 C   0  0  0  0  0  0  0  0  0  0  0  0
  -36.7316  -20.5648   26.6945 C   0  0  0  0  0  0  0  0  0  0  0  0
  -35.5039  -21.5323   20.2580 C   0  0  0  0  0  0  0  0  0  0  0  0
  -36.8992  -20.4584   22.0380 C   0  0  0  0  0  0  0  0  0  0  0  0
  -36.7731  -22.9451   21.8853 C   0  0  0  0  0  0  0  0  0  0  0  0
  -33.0653  -21.2975   27.3997 C   0  0  0  0  0  0  0  0  0  0  0  0
  -26.9842  -16.1964   23.2651 C   0  0  0  0  0  0  0  0  0  0  0  0
  -31.6653  -14.6247   24.1674 C   0  0  0  0  0  0  0  0  0  0  0  0
  -32.0649  -16.1987   27.3209 C   0  0  0  0  0  0  0  0  0  0  0  0
  -30.5499  -14.4628   28.3714 C   0  0  0  0  0  0  0  0  0  0  0  0
  -31.6649  -13.1414   23.7761 C   0  0  0  0  0  0  0  0  0  0  0  0
  -27.0160  -17.6537   22.8175 C   0  0  0  0  0  0  0  0  0  1  0  0
  -31.1345  -14.9852   27.0259 C   0  0  0  0  0  0  0  0  0  0  0  0
  -34.7718  -21.6522   22.7310 C   0  0  1  0  0  0  0  0  0  0  0  0
  -35.3718  -21.1991   26.4464 C   0  0  2  0  0  0  0  0  0  0  0  0
  -35.9589  -21.6424   21.7270 C   0  0  0  0  0  0  0  0  0  0  0  0
  -28.9021  -15.7265   26.4986 N   0  0  0  0  0  0  0  0  0  0  0  0
  -25.9386  -11.6091   20.5360 N   0  0  0  0  0  0  0  0  0  0  0  0
  -26.2802  -12.9011   20.3944 N   0  0  0  0  0  0  0  0  0  0  0  0
  -32.4815  -22.4023   22.1689 N   0  0  0  0  0  0  0  0  0  0  0  0
  -30.0927  -12.6338   20.4402 N   0  0  0  0  0  0  0  0  0  0  0  0
  -25.4037  -15.1014   20.4288 N   0  0  0  0  0  0  0  0  0  0  0  0
  -21.7885  -12.5265   21.2632 N   0  0  0  0  0  0  0  0  0  0  0  0
  -30.7607  -24.3415   19.6049 N   0  0  0  0  0  0  0  0  0  0  0  0
  -35.1717  -21.7829   24.1279 N   0  0  0  0  0  0  0  0  0  0  0  0
  -30.7349  -12.8611   22.7050 N   0  0  0  0  0  0  0  0  0  0  0  0
  -34.4352  -20.7329   27.5077 N   0  3  0  0  0  0  0  0  0  0  0  0
  -22.5128  -14.6839   20.9812 O   0  0  0  0  0  0  0  0  0  0  0  0
  -32.2315  -22.5363   19.6282 O   0  0  0  0  0  0  0  0  0  0  0  0
  -34.1957  -23.9434   22.5190 O   0  0  0  0  0  0  0  0  0  0  0  0
  -34.1869  -19.8152   24.8596 O   0  0  0  0  0  0  0  0  0  0  0  0
  -32.2557  -13.2281   21.0289 O   0  0  0  0  0  0  0  0  0  0  0  0
  -21.7145   -6.9669   21.6113 O   0  0  0  0  0  0  0  0  0  0  0  0
  -28.2410  -17.9223   22.1366 O   0  0  0  0  0  0  0  0  0  1  0  0
  -22.6107   -2.7476   18.1764 F   0  0  0  0  0  0  0  0  0  0  0  0
  -24.2257   -5.8338   21.3815 F   0  0  0  0  0  0  0  0  0  0  0  0
  1  2  1  0  0  0  0
  1  5  2  0  0  0  0
  2  6  2  0  0  0  0
  3  8  2  0  0  0  0
  3 17  1  0  0  0  0
  4  9  1  0  0  0  0
  4 17  2  0  0  0  0
  5 19  1  0  0  0  0
  6 21  1  0  0  0  0
  7 10  2  0  0  0  0
  7 20  1  0  0  0  0
  8 25  1  0  0  0  0
  9 25  2  0  0  0  0
 10 26  1  0  0  0  0
 11 12  2  0  0  0  0
 11 27  1  0  0  0  0
 12 28  1  0  0  0  0
 13 22  1  0  0  0  0
 13 26  2  0  0  0  0
 14 23  2  0  0  0  0
 14 24  1  0  0  0  0
 15 28  2  0  0  0  0
 15 29  1  0  0  0  0
 16 23  1  0  0  0  0
 16 67  2  0  0  0  0
 17 30  1  0  0  0  0
 18 30  1  0  0  0  0
 18 32  2  0  0  0  0
 18 33  1  0  0  0  0
 19 21  2  0  0  0  0
 19 38  1  0  0  0  0
 20 22  2  0  0  0  0
 20 39  1  0  0  0  0
 21 47  1  0  0  0  0
 22 40  1  0  0  0  0
 23 57  1  0  0  0  0
 24 31  2  0  0  0  0
 24 58  1  0  0  0  0
 25 83  1  0  0  0  0
 26 84  1  0  0  0  0
 27 29  2  0  0  0  0
 27 83  1  0  0  0  0
 28 85  1  0  0  0  0
 29 86  1  0  0  0  0
 30 68  2  0  0  0  0
 31 63  1  0  0  0  0
 31 67  1  0  0  0  0
 32 69  1  0  0  0  0
 32 72  1  0  0  0  0
 33 73  1  0  0  0  0
 33 78  2  0  0  0  0
 34 48  1  0  0  0  0
 34 74  1  0  0  0  0
 34 79  2  0  0  0  0
 35 64  1  0  0  0  0
 35 70  1  0  0  0  0
 35 80  2  0  0  0  0
 36 65  1  0  0  0  0
 36 75  1  0  0  0  0
 36 81  2  0  0  0  0
 37 71  1  0  0  0  0
 37 76  1  0  0  0  0
 37 82  2  0  0  0  0
 38 41  1  0  0  0  0
 39 48  1  0  0  0  0
 40 70  1  0  0  0  0
 41 43  1  0  0  0  0
 42 44  1  0  0  0  0
 42 45  1  0  0  0  0
 43 47  1  0  0  0  0
 44 49  1  0  0  0  0
 45 71  1  0  0  0  0
 46 49  1  0  0  0  0
 46 71  1  0  0  0  0
 47 74  1  0  0  0  0
 48 70  1  0  0  0  0
 49 69  1  0  0  0  0
 50 59  1  0  0  0  0
 51 60  1  0  0  0  0
 52 65  1  0  0  0  0
 53 66  1  0  0  0  0
 54 66  1  0  0  0  0
 55 66  1  0  0  0  0
 56 77  1  0  0  0  0
 57 62  1  0  0  0  0
 58 61  1  0  0  0  0
 59 63  1  0  0  0  0
 60 63  1  0  0  0  0
 61 76  1  0  0  0  0
 62 84  1  0  0  0  0
 64 66  1  0  0  0  0
 64 75  1  0  0  0  0
 65 77  1  0  0  0  0
 68 69  1  0  0  0  0
M  CHG  1  77   1
M  ISO  4  37 100  62 101  76 100  84 101
M  END
> <Batch ID>
0039

> <Smiles>
CCC(CC)c1ncc(C[101CH2:1][101O:1]c2ccc3c(c2)CN(C(=O)C(NC(=O)C(C)NC)C(C)(C)C)C(C(=O)NC2CCCc4ccccc42)C3)cc1CC[100NH:0][100C:0](=O)N1CCCC(n2nc(-c3ccc(Oc4ccc(F)cc4F)cc3)c(C(N)=O)c2N)C1

> <Shape>
0.176

> <Color>
0.170

> <Negative vol penalty>
0.000

$$$$

  -OEChem-04052317043D

 84 92  0     1  0  0  0  0  0999 V2000
  -17.3906  -30.8117   24.0128 C   0  0  0  0  0  0  0  0  0  0  0  0
  -18.7381  -30.9892   24.3054 C   0  0  0  0  0  0  0  0  0  0  0  0
  -26.4251  -18.8932   19.5883 C   0  0  0  0  0  0  0  0  0  0  0  0
  -27.5408  -18.2163   21.6215 C   0  0  0  0  0  0  0  0  0  0  0  0
  -16.9732  -29.6680   23.3353 C   0  0  0  0  0  0  0  0  0  0  0  0
  -19.6701  -30.0290   23.9102 C   0  0  0  0  0  0  0  0  0  0  0  0
  -25.6619  -29.6591   24.9540 C   0  0  0  0  0  0  0  0  0  0  0  0
  -25.9124  -17.6045   19.4405 C   0  0  0  0  0  0  0  0  0  0  0  0
  -27.0282  -16.9275   21.4738 C   0  0  0  0  0  0  0  0  0  0  0  0
  -26.5076  -29.0881   25.9039 C   0  0  0  0  0  0  0  0  0  0  0  0
  -27.7154  -14.1673   19.6463 C   0  0  0  0  0  0  0  0  0  0  0  0
  -28.5860  -13.0964   19.8484 C   0  0  0  0  0  0  0  0  0  0  0  0
  -26.8232  -27.1775   24.4654 C   0  0  0  0  0  0  0  0  0  0  0  0
  -31.6306  -25.9594   26.8020 C   0  0  0  0  0  0  0  0  0  0  0  0
  -27.1806  -12.2922   21.6415 C   0  0  0  0  0  0  0  0  0  0  0  0
  -31.5819  -27.5365   24.5758 C   0  0  0  0  0  0  0  0  0  0  0  0
  -27.2393  -19.1992   20.6787 C   0  0  0  0  0  0  0  0  0  0  0  0
  -27.1768  -21.6080   21.5160 C   0  0  0  0  0  0  0  0  0  0  0  0
  -17.8996  -28.6879   22.9429 C   0  0  0  0  0  0  0  0  0  0  0  0
  -25.3813  -28.9876   23.7553 C   0  0  0  0  0  0  0  0  0  0  0  0
  -19.2716  -28.8794   23.2044 C   0  0  0  0  0  0  0  0  0  0  0  0
  -25.9756  -27.7433   23.5008 C   0  0  0  0  0  0  0  0  0  0  0  0
  -32.4287  -25.6270   25.7131 C   0  0  0  0  0  0  0  0  0  0  0  0
  -32.4097  -26.4254   24.5749 C   0  0  0  0  0  0  0  0  0  0  0  0
  -26.2139  -16.6216   20.3833 C   0  0  0  0  0  0  0  0  0  0  0  0
  -27.0862  -27.8457   25.6609 C   0  0  0  0  0  0  0  0  0  0  0  0
  -26.5774  -14.3007   20.4419 C   0  0  0  0  0  0  0  0  0  0  0  0
  -28.3186  -12.1588   20.8460 C   0  0  0  0  0  0  0  0  0  0  0  0
  -26.3100  -13.3631   21.4395 C   0  0  0  0  0  0  0  0  0  0  0  0
  -27.7697  -20.5301   20.8316 C   0  0  0  0  0  0  0  0  0  0  0  0
  -30.8378  -27.0914   26.7033 C   0  0  0  0  0  0  0  0  0  0  0  0
  -28.0707  -22.6406   21.3703 C   0  0  0  0  0  0  0  0  0  0  0  0
  -25.9297  -21.6703   22.2206 C   0  0  0  0  0  0  0  0  0  0  0  0
  -22.7516  -27.8326   22.3937 C   0  0  0  0  0  0  0  0  0  0  0  0
  -24.7564  -27.2680   19.9069 C   0  0  0  0  0  0  0  0  0  0  0  0
  -27.9488  -26.7433   18.8206 C   0  0  0  0  0  0  0  0  0  0  0  0
  -33.2973  -24.5965   21.4186 C   0  0  0  0  0  0  0  0  0  0  0  0
  -17.3941  -27.4731   22.2052 C   0  0  0  0  0  0  0  0  0  0  0  0
  -24.4881  -29.6293   22.7293 C   0  0  0  0  0  0  0  0  0  0  0  0
  -25.7227  -26.9907   22.2209 C   0  0  0  0  0  0  0  0  0  0  0  0
  -18.3841  -26.3130   22.2216 C   0  0  0  0  0  0  0  0  0  0  0  0
  -32.1521  -23.0693   18.4131 C   0  0  0  0  0  0  0  0  0  0  0  0
  -19.7648  -26.8020   21.8101 C   0  0  0  0  0  0  0  0  0  0  0  0
  -30.8650  -22.3568   18.8323 C   0  0  0  0  0  0  0  0  0  0  0  0
  -33.2103  -23.0163   19.5128 C   0  0  0  0  0  0  0  0  0  0  0  0
  -31.4741  -22.7956   21.2479 C   0  0  0  0  0  0  0  0  0  0  0  0
  -20.2995  -27.8338   22.8113 C   0  0  1  0  0  0  0  0  0  0  0  0
  -23.8649  -28.6231   21.7666 C   0  0  1  0  0  0  0  0  0  0  0  0
  -30.3572  -22.8707   20.1929 C   0  0  2  0  0  0  0  0  0  0  0  0
  -33.3602  -21.9004   26.1006 C   0  0  0  0  0  0  0  0  0  0  0  0
  -30.7120  -28.3689   28.8675 C   0  0  0  0  0  0  0  0  0  0  0  0
  -29.8290  -26.4086   17.1927 C   0  0  0  0  0  0  0  0  0  0  0  0
  -23.8029  -24.3701   19.9588 C   0  0  0  0  0  0  0  0  0  0  0  0
  -25.7864  -23.7654   18.5557 C   0  0  0  0  0  0  0  0  0  0  0  0
  -24.0672  -25.3405   17.6690 C   0  0  0  0  0  0  0  0  0  0  0  0
  -28.4035  -29.6568   18.5685 C   0  0  0  0  0  0  0  0  0  0  0  0
  -33.2948  -24.4134   25.7878 C   0  0  0  0  0  0  0  0  0  0  0  0
  -33.2438  -26.1152   23.3807 C   0  0  0  0  0  0  0  0  0  0  0  0
  -32.4804  -23.1398   26.0584 C   0  0  0  0  0  0  0  0  0  0  0  0
  -28.6615  -28.1765   27.4116 C   0  0  0  0  0  0  0  0  0  1  0  0
  -29.9515  -27.4857   27.8744 C   0  0  1  0  0  0  0  0  0  0  0  0
  -25.6420  -26.1198   19.4870 C   0  0  1  0  0  0  0  0  0  0  0  0
  -28.7342  -27.3492   17.6715 C   0  0  2  0  0  0  0  0  0  0  0  0
  -24.8281  -24.9120   18.9427 C   0  0  0  0  0  0  0  0  0  0  0  0
  -30.7926  -27.8914   25.6144 N   0  0  0  0  0  0  0  0  0  0  0  0
  -28.9489  -20.8485   20.2911 N   0  0  0  0  0  0  0  0  0  0  0  0
  -29.1042  -22.1381   20.6357 N   0  0  0  0  0  0  0  0  0  0  0  0
  -24.8371  -27.6568   21.2516 N   0  0  0  0  0  0  0  0  0  0  0  0
  -32.6654  -23.5189   20.7763 N   0  0  0  0  0  0  0  0  0  0  0  0
  -28.0655  -23.9204   21.8000 N   0  0  0  0  0  0  0  0  0  0  0  0
  -25.1336  -20.5180   22.2730 N   0  0  0  0  0  0  0  0  0  0  0  0
  -21.5081  -28.4246   22.2802 N   0  0  0  0  0  0  0  0  0  0  0  0
  -26.6015  -26.6708   18.5362 N   0  0  0  0  0  0  0  0  0  0  0  0
  -32.7126  -25.0147   22.6077 N   0  0  0  0  0  0  0  0  0  0  0  0
  -29.3673  -28.6301   18.0954 N   0  3  0  0  0  0  0  0  0  0  0  0
  -25.5254  -22.7215   22.7730 O   0  0  0  0  0  0  0  0  0  0  0  0
  -23.0018  -26.7640   22.9388 O   0  0  0  0  0  0  0  0  0  0  0  0
  -24.0254  -27.8051   19.0709 O   0  0  0  0  0  0  0  0  0  0  0  0
  -28.4781  -26.3680   19.8645 O   0  0  0  0  0  0  0  0  0  0  0  0
  -34.3046  -25.1487   20.9631 O   0  0  0  0  0  0  0  0  0  0  0  0
  -25.7136  -15.3640   20.2395 O   0  0  0  0  0  0  0  0  0  0  0  0
  -27.9116  -27.2858   26.5867 O   0  0  0  0  0  0  0  0  0  1  0  0
  -29.1539  -11.1297   21.0389 F   0  0  0  0  0  0  0  0  0  0  0  0
  -25.2177  -13.4854   22.2061 F   0  0  0  0  0  0  0  0  0  0  0  0
  1  2  1  0  0  0  0
  1  5  2  0  0  0  0
  2  6  2  0  0  0  0
  3  8  2  0  0  0  0
  3 17  1  0  0  0  0
  4  9  1  0  0  0  0
  4 17  2  0  0  0  0
  5 19  1  0  0  0  0
  6 21  1  0  0  0  0
  7 10  2  0  0  0  0
  7 20  1  0  0  0  0
  8 25  1  0  0  0  0
  9 25  2  0  0  0  0
 10 26  1  0  0  0  0
 11 12  2  0  0  0  0
 11 27  1  0  0  0  0
 12 28  1  0  0  0  0
 13 22  1  0  0  0  0
 13 26  2  0  0  0  0
 14 23  1  0  0  0  0
 14 31  2  0  0  0  0
 15 28  2  0  0  0  0
 15 29  1  0  0  0  0
 16 24  1  0  0  0  0
 16 65  2  0  0  0  0
 17 30  1  0  0  0  0
 18 30  1  0  0  0  0
 18 32  2  0  0  0  0
 18 33  1  0  0  0  0
 19 21  2  0  0  0  0
 19 38  1  0  0  0  0
 20 22  2  0  0  0  0
 20 39  1  0  0  0  0
 21 47  1  0  0  0  0
 22 40  1  0  0  0  0
 23 24  2  0  0  0  0
 23 57  1  0  0  0  0
 24 58  1  0  0  0  0
 25 81  1  0  0  0  0
 26 82  1  0  0  0  0
 27 29  2  0  0  0  0
 27 81  1  0  0  0  0
 28 83  1  0  0  0  0
 29 84  1  0  0  0  0
 30 66  2  0  0  0  0
 31 61  1  0  0  0  0
 31 65  1  0  0  0  0
 32 67  1  0  0  0  0
 32 70  1  0  0  0  0
 33 71  1  0  0  0  0
 33 76  2  0  0  0  0
 34 48  1  0  0  0  0
 34 72  1  0  0  0  0
 34 77  2  0  0  0  0
 35 62  1  0  0  0  0
 35 68  1  0  0  0  0
 35 78  2  0  0  0  0
 36 63  1  0  0  0  0
 36 73  1  0  0  0  0
 36 79  2  0  0  0  0
 37 69  1  0  0  0  0
 37 74  1  0  0  0  0
 37 80  2  0  0  0  0
 38 41  1  0  0  0  0
 39 48  1  0  0  0  0
 40 68  1  0  0  0  0
 41 43  1  0  0  0  0
 42 44  1  0  0  0  0
 42 45  1  0  0  0  0
 43 47  1  0  0  0  0
 44 49  1  0  0  0  0
 45 69  1  0  0  0  0
 46 49  1  0  0  0  0
 46 69  1  0  0  0  0
 47 72  1  0  0  0  0
 48 68  1  0  0  0  0
 49 67  1  0  0  0  0
 50 59  1  0  0  0  0
 51 61  1  0  0  0  0
 52 63  1  0  0  0  0
 53 64  1  0  0  0  0
 54 64  1  0  0  0  0
 55 64  1  0  0  0  0
 56 75  1  0  0  0  0
 57 59  1  0  0  0  0
 58 74  1  0  0  0  0
 60 61  1  0  0  0  0
 60 82  1  0  0  0  0
 62 64  1  0  0  0  0
 62 73  1  0  0  0  0
 63 75  1  0  0  0  0
 66 67  1  0  0  0  0
M  CHG  1  75   1
M  ISO  4  37 100  60 101  74 100  82 101
M  END
> <Batch ID>
0039

> <Smiles>
CCCc1cc(C(C)[101CH2:1][101O:1]c2ccc3c(c2)CN(C(=O)C(NC(=O)C(C)NC)C(C)(C)C)C(C(=O)NC2CCCc4ccccc42)C3)ncc1C[100NH:0][100C:0](=O)N1CCCC(n2nc(-c3ccc(Oc4ccc(F)cc4F)cc3)c(C(N)=O)c2N)C1

> <Shape>
0.212

> <Color>
0.079

> <Negative vol penalty>
0.000

$$$$

  -OEChem-04052317043D

 83 91  0     1  0  0  0  0  0999 V2000
  -27.1318  -33.3766   27.0382 C   0  0  0  0  0  0  0  0  0  0  0  0
  -26.2438  -32.3702   27.4044 C   0  0  0  0  0  0  0  0  0  0  0  0
  -27.6761  -17.0458   18.9967 C   0  0  0  0  0  0  0  0  0  0  0  0
  -27.6427  -17.2453   21.4042 C   0  0  0  0  0  0  0  0  0  0  0  0
  -27.2974  -33.7031   25.6929 C   0  0  0  0  0  0  0  0  0  0  0  0
  -25.5201  -31.6903   26.4253 C   0  0  0  0  0  0  0  0  0  0  0  0
  -23.8799  -25.7902   26.4912 C   0  0  0  0  0  0  0  0  0  0  0  0
  -28.3372  -18.2706   18.9043 C   0  0  0  0  0  0  0  0  0  0  0  0
  -28.3038  -18.4701   21.3119 C   0  0  0  0  0  0  0  0  0  0  0  0
  -22.6897  -25.1513   26.8362 C   0  0  0  0  0  0  0  0  0  0  0  0
  -31.4857  -19.4379   19.3010 C   0  0  0  0  0  0  0  0  0  0  0  0
  -32.5752  -19.5227   18.4342 C   0  0  0  0  0  0  0  0  0  0  0  0
  -22.0414  -25.1176   24.5129 C   0  0  0  0  0  0  0  0  0  0  0  0
  -31.4474  -21.2571   17.1863 C   0  0  0  0  0  0  0  0  0  0  0  0
  -19.7750  -18.0647   27.0538 C   0  0  0  0  0  0  0  0  0  0  0  0
  -18.9987  -18.4366   25.0251 C   0  0  0  0  0  0  0  0  0  0  0  0
  -27.3288  -16.5332   20.2466 C   0  0  0  0  0  0  0  0  0  0  0  0
  -27.2299  -13.9928   20.4566 C   0  0  0  0  0  0  0  0  0  0  0  0
  -26.5825  -33.0203   24.6962 C   0  0  0  0  0  0  0  0  0  0  0  0
  -24.1554  -26.1079   25.1535 C   0  0  0  0  0  0  0  0  0  0  0  0
  -25.6753  -32.0089   25.0655 C   0  0  0  0  0  0  0  0  0  0  0  0
  -23.2370  -25.7582   24.1533 C   0  0  0  0  0  0  0  0  0  0  0  0
  -28.6510  -18.9827   20.0619 C   0  0  0  0  0  0  0  0  0  0  0  0
  -21.7690  -24.8175   25.8474 C   0  0  0  0  0  0  0  0  0  0  0  0
  -30.3769  -20.2626   19.1104 C   0  0  0  0  0  0  0  0  0  0  0  0
  -32.5561  -20.4323   17.3769 C   0  0  0  0  0  0  0  0  0  0  0  0
  -30.3578  -21.1722   18.0531 C   0  0  0  0  0  0  0  0  0  0  0  0
  -26.6454  -15.2683   20.3426 C   0  0  0  0  0  0  0  0  0  0  0  0
  -18.9785  -19.1848   27.0177 C   0  0  0  0  0  0  0  0  0  0  0  0
  -26.1628  -13.1299   20.5141 C   0  0  0  0  0  0  0  0  0  0  0  0
  -28.6138  -13.6210   20.5062 C   0  0  0  0  0  0  0  0  0  0  0  0
  -24.6422  -28.8047   23.5428 C   0  0  0  0  0  0  0  0  0  0  0  0
  -25.3173  -26.7708   21.1077 C   0  0  0  0  0  0  0  0  0  0  0  0
  -24.9244  -23.6758   19.7245 C   0  0  0  0  0  0  0  0  0  0  0  0
  -20.4673  -13.7981   22.2362 C   0  0  0  0  0  0  0  0  0  0  0  0
  -26.7598  -33.4407   23.2587 C   0  0  0  0  0  0  0  0  0  0  0  0
  -25.4558  -26.7732   24.7947 C   0  0  0  0  0  0  0  0  0  0  0  0
  -23.4943  -26.0590   22.7001 C   0  0  0  0  0  0  0  0  0  0  0  0
  -26.2336  -32.4174   22.2555 C   0  0  0  0  0  0  0  0  0  0  0  0
  -21.6267  -12.6826   19.0601 C   0  0  0  0  0  0  0  0  0  0  0  0
  -24.8476  -31.9307   22.6666 C   0  0  0  0  0  0  0  0  0  0  0  0
  -23.0971  -13.1037   19.0389 C   0  0  0  0  0  0  0  0  0  0  0  0
  -20.7553  -13.7113   19.7774 C   0  0  0  0  0  0  0  0  0  0  0  0
  -22.6748  -14.4835   21.1165 C   0  0  0  0  0  0  0  0  0  0  0  0
  -24.8906  -31.2318   24.0309 C   0  0  1  0  0  0  0  0  0  0  0  0
  -25.4015  -27.5107   23.4603 C   0  0  1  0  0  0  0  0  0  0  0  0
  -23.6014  -13.4507   20.4526 C   0  0  2  0  0  0  0  0  0  0  0  0
  -25.5652  -22.3222   17.7109 C   0  0  0  0  0  0  0  0  0  0  0  0
  -23.2640  -28.2884   19.4370 C   0  0  0  0  0  0  0  0  0  0  0  0
  -23.2513  -26.3660   17.8332 C   0  0  0  0  0  0  0  0  0  0  0  0
  -25.3501  -27.6609   18.2086 C   0  0  0  0  0  0  0  0  0  0  0  0
  -26.3459  -21.6747   21.3780 C   0  0  0  0  0  0  0  0  0  0  0  0
  -18.6155  -20.1089   28.1527 C   0  0  0  0  0  0  0  0  0  0  0  0
  -19.5889  -21.2790   28.3339 C   0  0  0  0  0  0  0  0  0  0  0  0
  -19.6249  -22.2199   27.1287 C   0  0  0  0  0  0  0  0  0  0  0  0
  -19.5902  -15.1932   25.1221 C   0  0  0  0  0  0  0  0  0  0  0  0
  -20.4805  -16.4322   25.2874 C   0  0  0  0  0  0  0  0  0  0  0  0
  -20.3366  -13.9258   24.7113 C   0  0  0  0  0  0  0  0  0  0  0  0
  -20.6303  -23.3458   27.3284 C   0  0  0  0  0  0  0  0  0  1  0  0
  -24.5136  -26.1048   20.0171 C   0  0  1  0  0  0  0  0  0  0  0  0
  -25.9284  -22.6994   19.1387 C   0  0  2  0  0  0  0  0  0  0  0  0
  -24.0887  -27.1009   18.9015 C   0  0  0  0  0  0  0  0  0  0  0  0
  -18.4981  -19.4107   25.7520 N   0  0  0  0  0  0  0  0  0  0  0  0
  -25.3105  -15.2244   20.3282 N   0  0  0  0  0  0  0  0  0  0  0  0
  -19.7781  -17.5960   25.7703 N   0  0  0  0  0  0  0  0  0  0  0  0
  -25.0474  -13.9107   20.4338 N   0  0  0  0  0  0  0  0  0  0  0  0
  -24.7772  -26.7162   22.4004 N   0  0  0  0  0  0  0  0  0  0  0  0
  -21.2870  -13.9948   21.1126 N   0  0  0  0  0  0  0  0  0  0  0  0
  -26.0792  -11.7871   20.6249 N   0  0  0  0  0  0  0  0  0  0  0  0
  -29.5805  -14.6333   20.4350 N   0  0  0  0  0  0  0  0  0  0  0  0
  -25.4193  -29.8914   23.8956 N   0  0  0  0  0  0  0  0  0  0  0  0
  -25.3188  -24.9844   19.5428 N   0  0  0  0  0  0  0  0  0  0  0  0
  -21.0511  -14.0845   23.4642 N   0  0  0  0  0  0  0  0  0  0  0  0
  -25.9773  -21.4541   19.9559 N   0  3  0  0  0  0  0  0  0  0  0  0
  -28.9824  -12.4252   20.5940 O   0  0  0  0  0  0  0  0  0  0  0  0
  -23.4406  -28.8165   23.3027 O   0  0  0  0  0  0  0  0  0  0  0  0
  -26.3883  -27.3131   20.8243 O   0  0  0  0  0  0  0  0  0  0  0  0
  -23.8916  -23.3138   20.2838 O   0  0  0  0  0  0  0  0  0  0  0  0
  -19.3033  -13.3920   22.1517 O   0  0  0  0  0  0  0  0  0  0  0  0
  -29.2963  -20.1777   19.9722 O   0  0  0  0  0  0  0  0  0  0  0  0
  -20.6062  -24.1944   26.1814 O   0  0  0  0  0  0  0  0  0  1  0  0
  -33.6031  -20.5148   16.5455 F   0  0  0  0  0  0  0  0  0  0  0  0
  -29.2960  -21.9679   17.8656 F   0  0  0  0  0  0  0  0  0  0  0  0
  1  2  1  0  0  0  0
  1  5  2  0  0  0  0
  2  6  2  0  0  0  0
  3  8  2  0  0  0  0
  3 17  1  0  0  0  0
  4  9  1  0  0  0  0
  4 17  2  0  0  0  0
  5 19  1  0  0  0  0
  6 21  1  0  0  0  0
  7 10  2  0  0  0  0
  7 20  1  0  0  0  0
  8 23  1  0  0  0  0
  9 23  2  0  0  0  0
 10 24  1  0  0  0  0
 11 12  2  0  0  0  0
 11 25  1  0  0  0  0
 12 26  1  0  0  0  0
 13 22  1  0  0  0  0
 13 24  2  0  0  0  0
 14 26  2  0  0  0  0
 14 27  1  0  0  0  0
 15 29  2  0  0  0  0
 15 65  1  0  0  0  0
 16 63  2  0  0  0  0
 16 65  1  0  0  0  0
 17 28  1  0  0  0  0
 18 28  1  0  0  0  0
 18 30  2  0  0  0  0
 18 31  1  0  0  0  0
 19 21  2  0  0  0  0
 19 36  1  0  0  0  0
 20 22  2  0  0  0  0
 20 37  1  0  0  0  0
 21 45  1  0  0  0  0
 22 38  1  0  0  0  0
 23 80  1  0  0  0  0
 24 81  1  0  0  0  0
 25 27  2  0  0  0  0
 25 80  1  0  0  0  0
 26 82  1  0  0  0  0
 27 83  1  0  0  0  0
 28 64  2  0  0  0  0
 29 53  1  0  0  0  0
 29 63  1  0  0  0  0
 30 66  1  0  0  0  0
 30 69  1  0  0  0  0
 31 70  1  0  0  0  0
 31 75  2  0  0  0  0
 32 46  1  0  0  0  0
 32 71  1  0  0  0  0
 32 76  2  0  0  0  0
 33 60  1  0  0  0  0
 33 67  1  0  0  0  0
 33 77  2  0  0  0  0
 34 61  1  0  0  0  0
 34 72  1  0  0  0  0
 34 78  2  0  0  0  0
 35 68  1  0  0  0  0
 35 73  1  0  0  0  0
 35 79  2  0  0  0  0
 36 39  1  0  0  0  0
 37 46  1  0  0  0  0
 38 67  1  0  0  0  0
 39 41  1  0  0  0  0
 40 42  1  0  0  0  0
 40 43  1  0  0  0  0
 41 45  1  0  0  0  0
 42 47  1  0  0  0  0
 43 68  1  0  0  0  0
 44 47  1  0  0  0  0
 44 68  1  0  0  0  0
 45 71  1  0  0  0  0
 46 67  1  0  0  0  0
 47 66  1  0  0  0  0
 48 61  1  0  0  0  0
 49 62  1  0  0  0  0
 50 62  1  0  0  0  0
 51 62  1  0  0  0  0
 52 74  1  0  0  0  0
 53 54  1  0  0  0  0
 54 55  1  0  0  0  0
 55 59  1  0  0  0  0
 56 57  1  0  0  0  0
 56 58  1  0  0  0  0
 57 65  1  0  0  0  0
 58 73  1  0  0  0  0
 59 81  1  0  0  0  0
 60 62  1  0  0  0  0
 60 72  1  0  0  0  0
 61 74  1  0  0  0  0
 64 66  1  0  0  0  0
M  CHG  1  74   1
M  ISO  4  35 100  59 101  73 100  81 101
M  END
> <Batch ID>
0039

> <Smiles>
CNC(C)C(=O)NC(C(=O)N1Cc2cc([101O:1][101CH2:1]CCCc3cn(CCC[100NH:0][100C:0](=O)N4CCCC(n5nc(-c6ccc(Oc7ccc(F)cc7F)cc6)c(C(N)=O)c5N)C4)cn3)ccc2CC1C(=O)NC1CCCc2ccccc21)C(C)(C)C

> <Shape>
0.186

> <Color>
0.075

> <Negative vol penalty>
0.000

$$$$
