
  -OEChem-04052317073D

 83 91  0     1  0  0  0  0  0999 V2000
  -30.6705  -34.2744   18.3601 C   0  0  0  0  0  0  0  0  0  0  0  0
  -30.8457  -32.9453   18.7317 C   0  0  0  0  0  0  0  0  0  0  0  0
  -23.1679   -9.9636   21.5434 C   0  0  0  0  0  0  0  0  0  0  0  0
  -23.8722  -10.9310   23.6423 C   0  0  0  0  0  0  0  0  0  0  0  0
  -29.5910  -35.0006   18.8612 C   0  0  0  0  0  0  0  0  0  0  0  0
  -29.9421  -32.3419   19.6057 C   0  0  0  0  0  0  0  0  0  0  0  0
  -28.1024  -26.5009   19.5448 C   0  0  0  0  0  0  0  0  0  0  0  0
  -22.4482   -8.9887   22.2342 C   0  0  0  0  0  0  0  0  0  0  0  0
  -23.1524   -9.9562   24.3331 C   0  0  0  0  0  0  0  0  0  0  0  0
  -28.4989  -25.3849   20.2804 C   0  0  0  0  0  0  0  0  0  0  0  0
  -23.0986   -6.0988   23.8621 C   0  0  0  0  0  0  0  0  0  0  0  0
  -23.2144   -4.7787   23.4268 C   0  0  0  0  0  0  0  0  0  0  0  0
  -26.6730  -25.7540   21.8131 C   0  0  0  0  0  0  0  0  0  0  0  0
  -29.2794  -20.6788   22.2825 C   0  0  0  0  0  0  0  0  0  0  0  0
  -20.8356   -4.7071   23.0110 C   0  0  0  0  0  0  0  0  0  0  0  0
  -30.0993  -22.0820   23.8408 C   0  0  0  0  0  0  0  0  0  0  0  0
  -23.8799  -10.9347   22.2474 C   0  0  0  0  0  0  0  0  0  0  0  0
  -24.1594  -13.2010   21.1101 C   0  0  0  0  0  0  0  0  0  0  0  0
  -28.6682  -34.4030   19.7342 C   0  0  0  0  0  0  0  0  0  0  0  0
  -26.9929  -27.2595   19.9447 C   0  0  0  0  0  0  0  0  0  0  0  0
  -28.8500  -33.0612   20.1200 C   0  0  0  0  0  0  0  0  0  0  0  0
  -26.2630  -26.8777   21.0794 C   0  0  0  0  0  0  0  0  0  0  0  0
  -29.5597  -22.0364   22.5743 C   0  0  0  0  0  0  0  0  0  0  0  0
  -22.4404   -8.9850   23.6291 C   0  0  0  0  0  0  0  0  0  0  0  0
  -27.7859  -25.0130   21.4164 C   0  0  0  0  0  0  0  0  0  0  0  0
  -21.8512   -6.7231   23.8718 C   0  0  0  0  0  0  0  0  0  0  0  0
  -22.0829   -4.0828   23.0013 C   0  0  0  0  0  0  0  0  0  0  0  0
  -20.7197   -6.0272   23.4463 C   0  0  0  0  0  0  0  0  0  0  0  0
  -24.6241  -11.9417   21.5344 C   0  0  0  0  0  0  0  0  0  0  0  0
  -29.6560  -19.9359   23.3796 C   0  0  0  0  0  0  0  0  0  0  0  0
  -25.2403  -13.7729   20.4848 C   0  0  0  0  0  0  0  0  0  0  0  0
  -22.8664  -13.8002   21.2672 C   0  0  0  0  0  0  0  0  0  0  0  0
  -26.5475  -30.2691   20.8653 C   0  0  0  0  0  0  0  0  0  0  0  0
  -23.4181  -29.4180   20.7930 C   0  0  0  0  0  0  0  0  0  0  0  0
  -21.0883  -26.9291   20.9480 C   0  0  0  0  0  0  0  0  0  0  0  0
  -31.1502  -12.9639   21.0044 C   0  0  0  0  0  0  0  0  0  0  0  0
  -27.5436  -35.2421   20.2871 C   0  0  0  0  0  0  0  0  0  0  0  0
  -26.5621  -28.4449   19.1252 C   0  0  0  0  0  0  0  0  0  0  0  0
  -25.0524  -27.6467   21.5394 C   0  0  0  0  0  0  0  0  0  0  0  0
  -26.4207  -34.4192   20.9134 C   0  0  0  0  0  0  0  0  0  0  0  0
  -29.1950  -12.6269   18.0480 C   0  0  0  0  0  0  0  0  0  0  0  0
  -26.9947  -33.3434   21.8300 C   0  0  0  0  0  0  0  0  0  0  0  0
  -27.7599  -12.5267   18.5680 C   0  0  0  0  0  0  0  0  0  0  0  0
  -30.1821  -11.9223   18.9761 C   0  0  0  0  0  0  0  0  0  0  0  0
  -28.6849  -12.2502   20.9061 C   0  0  0  0  0  0  0  0  0  0  0  0
  -27.8772  -32.3643   21.0464 C   0  0  1  0  0  0  0  0  0  0  0  0
  -25.7245  -29.4452   19.9158 C   0  0  1  0  0  0  0  0  0  0  0  0
  -27.6603  -12.9941   20.0325 C   0  0  2  0  0  0  0  0  0  0  0  0
  -18.6087  -26.5460   20.8975 C   0  0  0  0  0  0  0  0  0  0  0  0
  -23.2057  -30.4302   23.6636 C   0  0  0  0  0  0  0  0  0  0  0  0
  -21.0459  -29.1810   23.8705 C   0  0  0  0  0  0  0  0  0  0  0  0
  -21.2646  -31.0226   22.2022 C   0  0  0  0  0  0  0  0  0  0  0  0
  -30.6601  -20.4316   25.6245 C   0  0  0  0  0  0  0  0  0  0  0  0
  -21.2797  -25.2534   18.5161 C   0  0  0  0  0  0  0  0  0  0  0  0
  -29.3150  -23.2094   21.6712 C   0  0  0  0  0  0  0  0  0  1  0  0
  -29.5834  -18.4779   23.6075 C   0  0  0  0  0  0  0  0  0  0  0  0
  -30.8570  -17.7396   23.1500 C   0  0  0  0  0  0  0  0  0  0  0  0
  -30.7538  -16.2263   23.3510 C   0  0  0  0  0  0  0  0  0  0  0  0
  -32.0448  -15.5204   22.9261 C   0  0  0  0  0  0  0  0  0  0  0  0
  -31.9702  -14.0072   23.1016 C   0  0  0  0  0  0  0  0  0  0  0  0
  -22.4477  -28.8272   21.7870 C   0  0  1  0  0  0  0  0  0  0  0  0
  -19.8857  -26.6193   20.0749 C   0  0  2  0  0  0  0  0  0  0  0  0
  -22.0149  -29.8517   22.8735 C   0  0  0  0  0  0  0  0  0  0  0  0
  -25.9006  -11.7257   21.2062 N   0  0  0  0  0  0  0  0  0  0  0  0
  -30.1528  -20.7994   24.3208 N   0  0  0  0  0  0  0  0  0  0  0  0
  -26.2473  -12.8570   20.5690 N   0  0  0  0  0  0  0  0  0  0  0  0
  -24.6747  -28.8018   20.7083 N   0  0  0  0  0  0  0  0  0  0  0  0
  -30.0371  -12.4120   20.3491 N   0  0  0  0  0  0  0  0  0  0  0  0
  -25.4181  -14.9649   19.8765 N   0  0  0  0  0  0  0  0  0  0  0  0
  -21.8704  -13.0747   21.9350 N   0  0  0  0  0  0  0  0  0  0  0  0
  -27.0590  -31.4258   20.3087 N   0  0  0  0  0  0  0  0  0  0  0  0
  -21.3428  -28.2831   21.0049 N   0  0  0  0  0  0  0  0  0  0  0  0
  -30.9248  -13.4097   22.3010 N   0  0  0  0  0  0  0  0  0  0  0  0
  -20.0726  -25.3143   19.3799 N   0  3  0  0  0  0  0  0  0  0  0  0
  -22.5972  -14.9385   20.8141 O   0  0  0  0  0  0  0  0  0  0  0  0
  -26.7054  -29.8846   22.0181 O   0  0  0  0  0  0  0  0  0  0  0  0
  -23.0715  -30.3860   20.1116 O   0  0  0  0  0  0  0  0  0  0  0  0
  -21.7347  -26.0576   21.5251 O   0  0  0  0  0  0  0  0  0  0  0  0
  -32.2611  -13.0577   20.4715 O   0  0  0  0  0  0  0  0  0  0  0  0
  -21.7380   -8.0340   24.3035 O   0  0  0  0  0  0  0  0  0  0  0  0
  -28.1711  -23.9245   22.1366 O   0  0  0  0  0  0  0  0  0  1  0  0
  -22.1946   -2.8156   22.5819 F   0  0  0  0  0  0  0  0  0  0  0  0
  -19.5189   -6.6220   23.4523 F   0  0  0  0  0  0  0  0  0  0  0  0
  1  2  1  0  0  0  0
  1  5  2  0  0  0  0
  2  6  2  0  0  0  0
  3  8  2  0  0  0  0
  3 17  1  0  0  0  0
  4  9  1  0  0  0  0
  4 17  2  0  0  0  0
  5 19  1  0  0  0  0
  6 21  1  0  0  0  0
  7 10  2  0  0  0  0
  7 20  1  0  0  0  0
  8 24  1  0  0  0  0
  9 24  2  0  0  0  0
 10 25  1  0  0  0  0
 11 12  2  0  0  0  0
 11 26  1  0  0  0  0
 12 27  1  0  0  0  0
 13 22  1  0  0  0  0
 13 25  2  0  0  0  0
 14 23  1  0  0  0  0
 14 30  2  0  0  0  0
 15 27  2  0  0  0  0
 15 28  1  0  0  0  0
 16 23  2  0  0  0  0
 16 65  1  0  0  0  0
 17 29  1  0  0  0  0
 18 29  1  0  0  0  0
 18 31  2  0  0  0  0
 18 32  1  0  0  0  0
 19 21  2  0  0  0  0
 19 37  1  0  0  0  0
 20 22  2  0  0  0  0
 20 38  1  0  0  0  0
 21 46  1  0  0  0  0
 22 39  1  0  0  0  0
 23 55  1  0  0  0  0
 24 80  1  0  0  0  0
 25 81  1  0  0  0  0
 26 28  2  0  0  0  0
 26 80  1  0  0  0  0
 27 82  1  0  0  0  0
 28 83  1  0  0  0  0
 29 64  2  0  0  0  0
 30 56  1  0  0  0  0
 30 65  1  0  0  0  0
 31 66  1  0  0  0  0
 31 69  1  0  0  0  0
 32 70  1  0  0  0  0
 32 75  2  0  0  0  0
 33 47  1  0  0  0  0
 33 71  1  0  0  0  0
 33 76  2  0  0  0  0
 34 61  1  0  0  0  0
 34 67  1  0  0  0  0
 34 77  2  0  0  0  0
 35 62  1  0  0  0  0
 35 72  1  0  0  0  0
 35 78  2  0  0  0  0
 36 68  1  0  0  0  0
 36 73  1  0  0  0  0
 36 79  2  0  0  0  0
 37 40  1  0  0  0  0
 38 47  1  0  0  0  0
 39 67  1  0  0  0  0
 40 42  1  0  0  0  0
 41 43  1  0  0  0  0
 41 44  1  0  0  0  0
 42 46  1  0  0  0  0
 43 48  1  0  0  0  0
 44 68  1  0  0  0  0
 45 48  1  0  0  0  0
 45 68  1  0  0  0  0
 46 71  1  0  0  0  0
 47 67  1  0  0  0  0
 48 66  1  0  0  0  0
 49 62  1  0  0  0  0
 50 63  1  0  0  0  0
 51 63  1  0  0  0  0
 52 63  1  0  0  0  0
 53 65  1  0  0  0  0
 54 74  1  0  0  0  0
 55 81  1  0  0  0  0
 56 57  1  0  0  0  0
 57 58  1  0  0  0  0
 58 59  1  0  0  0  0
 59 60  1  0  0  0  0
 60 73  1  0  0  0  0
 61 63  1  0  0  0  0
 61 72  1  0  0  0  0
 62 74  1  0  0  0  0
 64 66  1  0  0  0  0
M  CHG  1  74   1
M  ISO  4  36 100  55 101  73 100  81 101
M  END
> <Batch ID>
0040

> <Smiles>
CNC(C)C(=O)NC(C(=O)N1Cc2cc([101O:1][101CH2:1]c3cc(CCCCC[100NH:0][100C:0](=O)N4CCCC(n5nc(-c6ccc(Oc7ccc(F)cc7F)cc6)c(C(N)=O)c5N)C4)n(C)c3)ccc2CC1C(=O)NC1CCCc2ccccc21)C(C)(C)C

> <Shape>
0.276

> <Color>
0.156

> <Negative vol penalty>
0.000

$$$$

  -OEChem-04052317073D

 83 91  0     1  0  0  0  0  0999 V2000
  -27.7419  -23.6099   18.2575 C   0  0  0  0  0  0  0  0  0  0  0  0
  -26.5580  -23.9984   18.8763 C   0  0  0  0  0  0  0  0  0  0  0  0
  -27.1495  -16.6735   21.8959 C   0  0  0  0  0  0  0  0  0  0  0  0
  -25.4178  -18.0670   20.9491 C   0  0  0  0  0  0  0  0  0  0  0  0
  -28.9601  -24.1227   18.7012 C   0  0  0  0  0  0  0  0  0  0  0  0
  -26.5918  -24.8993   19.9401 C   0  0  0  0  0  0  0  0  0  0  0  0
  -23.0464  -28.4946   19.5545 C   0  0  0  0  0  0  0  0  0  0  0  0
  -26.5235  -15.5413   21.3746 C   0  0  0  0  0  0  0  0  0  0  0  0
  -24.7918  -16.9348   20.4278 C   0  0  0  0  0  0  0  0  0  0  0  0
  -21.7429  -28.1434   19.9027 C   0  0  0  0  0  0  0  0  0  0  0  0
  -25.5759  -12.3177   19.9870 C   0  0  0  0  0  0  0  0  0  0  0  0
  -26.3770  -11.3673   19.3541 C   0  0  0  0  0  0  0  0  0  0  0  0
  -22.0429  -29.1891   22.0558 C   0  0  0  0  0  0  0  0  0  0  0  0
  -27.0838  -13.0306   17.7507 C   0  0  0  0  0  0  0  0  0  0  0  0
  -21.9288  -23.7658   23.2856 C   0  0  0  0  0  0  0  0  0  0  0  0
  -26.5967  -17.9364   21.6831 C   0  0  0  0  0  0  0  0  0  0  0  0
  -28.2228  -19.9000   21.5965 C   0  0  0  0  0  0  0  0  0  0  0  0
  -29.0080  -25.0378   19.7647 C   0  0  0  0  0  0  0  0  0  0  0  0
  -23.8630  -29.1873   20.4599 C   0  0  0  0  0  0  0  0  0  0  0  0
  -27.8119  -25.4239   20.3994 C   0  0  0  0  0  0  0  0  0  0  0  0
  -23.3555  -29.5502   21.7156 C   0  0  0  0  0  0  0  0  0  0  0  0
  -25.3446  -15.6719   20.6406 C   0  0  0  0  0  0  0  0  0  0  0  0
  -21.2419  -28.4881   21.1546 C   0  0  0  0  0  0  0  0  0  0  0  0
  -25.5288  -13.6246   19.5017 C   0  0  0  0  0  0  0  0  0  0  0  0
  -27.1309  -11.7237   18.2360 C   0  0  0  0  0  0  0  0  0  0  0  0
  -26.2827  -13.9811   18.3836 C   0  0  0  0  0  0  0  0  0  0  0  0
  -27.2426  -19.1063   22.2218 C   0  0  0  0  0  0  0  0  0  0  0  0
  -21.1592  -23.8810   24.4588 C   0  0  0  0  0  0  0  0  0  0  0  0
  -21.1745  -24.3834   22.3182 C   0  0  0  0  0  0  0  0  0  0  0  0
  -28.5082  -20.8803   22.5152 C   0  0  0  0  0  0  0  0  0  0  0  0
  -28.8218  -19.7634   20.3010 C   0  0  0  0  0  0  0  0  0  0  0  0
  -26.6142  -28.5682   21.9264 C   0  0  0  0  0  0  0  0  0  0  0  0
  -26.3200  -31.6378   22.9329 C   0  0  0  0  0  0  0  0  0  0  0  0
  -24.2722  -34.2875   23.5907 C   0  0  0  0  0  0  0  0  0  0  0  0
  -25.3845  -23.2728   27.0285 C   0  0  0  0  0  0  0  0  0  0  0  0
  -30.3525  -25.5286   20.2401 C   0  0  0  0  0  0  0  0  0  0  0  0
  -25.2578  -29.5823   20.0589 C   0  0  0  0  0  0  0  0  0  0  0  0
  -24.1846  -30.3117   22.7162 C   0  0  0  0  0  0  0  0  0  0  0  0
  -30.2694  -26.7664   21.1296 C   0  0  0  0  0  0  0  0  0  0  0  0
  -28.5677  -21.6907   27.2302 C   0  0  0  0  0  0  0  0  0  0  0  0
  -29.1846  -26.5916   22.1876 C   0  0  0  0  0  0  0  0  0  0  0  0
  -28.6775  -20.9205   25.9130 C   0  0  0  0  0  0  0  0  0  0  0  0
  -27.1386  -21.6877   27.7682 C   0  0  0  0  0  0  0  0  0  0  0  0
  -26.2268  -21.3901   25.4980 C   0  0  0  0  0  0  0  0  0  0  0  0
  -27.8054  -26.4181   21.5403 C   0  0  1  0  0  0  0  0  0  0  0  0
  -26.1732  -29.8367   21.2525 C   0  0  1  0  0  0  0  0  0  0  0  0
  -27.6386  -21.4126   24.8875 C   0  0  2  0  0  0  0  0  0  0  0  0
  -21.4278  -24.5956   20.8813 C   0  0  0  0  0  0  0  0  0  0  0  0
  -24.3170  -36.6489   24.4386 C   0  0  0  0  0  0  0  0  0  0  0  0
  -26.6708  -30.6054   25.7826 C   0  0  0  0  0  0  0  0  0  0  0  0
  -25.7737  -32.7912   26.6107 C   0  0  0  0  0  0  0  0  0  0  0  0
  -27.8872  -32.7336   25.2869 C   0  0  0  0  0  0  0  0  0  0  0  0
  -23.1876  -35.3440   21.0478 C   0  0  0  0  0  0  0  0  0  0  0  0
  -21.4946  -23.3852   25.8043 C   0  0  0  0  0  0  0  0  0  0  0  0
  -22.2704  -24.3850   26.6982 C   0  0  0  0  0  0  0  0  0  0  0  0
  -18.5790  -26.8945   22.9991 C   0  0  0  0  0  0  0  0  0  0  0  0
  -18.8879  -25.5567   22.3233 C   0  0  0  0  0  0  0  0  0  0  0  0
  -23.6330  -24.7902   26.1402 C   0  0  0  0  0  0  0  0  0  0  0  0
  -19.7122  -27.9070   22.8804 C   0  0  0  0  0  0  0  0  0  1  0  0
  -25.6828  -32.3169   24.1211 C   0  0  1  0  0  0  0  0  0  0  0  0
  -24.3686  -35.7539   23.2102 C   0  0  2  0  0  0  0  0  0  0  0  0
  -26.4884  -32.0957   25.4324 C   0  0  0  0  0  0  0  0  0  0  0  0
  -26.9266  -19.5445   23.4434 N   0  0  0  0  0  0  0  0  0  0  0  0
  -20.0047  -24.5216   24.2573 N   0  0  0  0  0  0  0  0  0  0  0  0
  -20.0432  -24.8146   22.9462 N   0  0  0  0  0  0  0  0  0  0  0  0
  -27.7128  -20.6240   23.5931 N   0  0  0  0  0  0  0  0  0  0  0  0
  -25.5444  -30.6695   22.2797 N   0  0  0  0  0  0  0  0  0  0  0  0
  -26.2032  -22.1666   26.7475 N   0  0  0  0  0  0  0  0  0  0  0  0
  -29.3595  -21.9279   22.4981 N   0  0  0  0  0  0  0  0  0  0  0  0
  -28.4133  -18.6998   19.4849 N   0  0  0  0  0  0  0  0  0  0  0  0
  -27.2914  -27.6959   21.0958 N   0  0  0  0  0  0  0  0  0  0  0  0
  -25.5178  -33.7183   23.7504 N   0  0  0  0  0  0  0  0  0  0  0  0
  -24.5315  -23.6654   26.0043 N   0  0  0  0  0  0  0  0  0  0  0  0
  -23.2441  -36.1297   22.3073 N   0  3  0  0  0  0  0  0  0  0  0  0
  -29.7054  -20.5513   19.8862 O   0  0  0  0  0  0  0  0  0  0  0  0
  -26.3603  -28.3944   23.1126 O   0  0  0  0  0  0  0  0  0  0  0  0
  -27.4610  -31.9599   22.5924 O   0  0  0  0  0  0  0  0  0  0  0  0
  -23.1991  -33.7061   23.7357 O   0  0  0  0  0  0  0  0  0  0  0  0
  -25.4155  -23.8699   28.1099 O   0  0  0  0  0  0  0  0  0  0  0  0
  -24.7336  -14.5673   20.1316 O   0  0  0  0  0  0  0  0  0  0  0  0
  -19.9702  -28.1459   21.4974 O   0  0  0  0  0  0  0  0  0  1  0  0
  -27.9013  -10.8112   17.6293 F   0  0  0  0  0  0  0  0  0  0  0  0
  -26.2424  -15.2353   17.9135 F   0  0  0  0  0  0  0  0  0  0  0  0
  1  2  1  0  0  0  0
  1  5  2  0  0  0  0
  2  6  2  0  0  0  0
  3  8  2  0  0  0  0
  3 16  1  0  0  0  0
  4  9  1  0  0  0  0
  4 16  2  0  0  0  0
  5 18  1  0  0  0  0
  6 20  1  0  0  0  0
  7 10  2  0  0  0  0
  7 19  1  0  0  0  0
  8 22  1  0  0  0  0
  9 22  2  0  0  0  0
 10 23  1  0  0  0  0
 11 12  2  0  0  0  0
 11 24  1  0  0  0  0
 12 25  1  0  0  0  0
 13 21  1  0  0  0  0
 13 23  2  0  0  0  0
 14 25  2  0  0  0  0
 14 26  1  0  0  0  0
 15 28  1  0  0  0  0
 15 29  2  0  0  0  0
 16 27  1  0  0  0  0
 17 27  1  0  0  0  0
 17 30  2  0  0  0  0
 17 31  1  0  0  0  0
 18 20  2  0  0  0  0
 18 36  1  0  0  0  0
 19 21  2  0  0  0  0
 19 37  1  0  0  0  0
 20 45  1  0  0  0  0
 21 38  1  0  0  0  0
 22 80  1  0  0  0  0
 23 81  1  0  0  0  0
 24 26  2  0  0  0  0
 24 80  1  0  0  0  0
 25 82  1  0  0  0  0
 26 83  1  0  0  0  0
 27 63  2  0  0  0  0
 28 54  1  0  0  0  0
 28 64  2  0  0  0  0
 29 48  1  0  0  0  0
 29 65  1  0  0  0  0
 30 66  1  0  0  0  0
 30 69  1  0  0  0  0
 31 70  1  0  0  0  0
 31 75  2  0  0  0  0
 32 46  1  0  0  0  0
 32 71  1  0  0  0  0
 32 76  2  0  0  0  0
 33 60  1  0  0  0  0
 33 67  1  0  0  0  0
 33 77  2  0  0  0  0
 34 61  1  0  0  0  0
 34 72  1  0  0  0  0
 34 78  2  0  0  0  0
 35 68  1  0  0  0  0
 35 73  1  0  0  0  0
 35 79  2  0  0  0  0
 36 39  1  0  0  0  0
 37 46  1  0  0  0  0
 38 67  1  0  0  0  0
 39 41  1  0  0  0  0
 40 42  1  0  0  0  0
 40 43  1  0  0  0  0
 41 45  1  0  0  0  0
 42 47  1  0  0  0  0
 43 68  1  0  0  0  0
 44 47  1  0  0  0  0
 44 68  1  0  0  0  0
 45 71  1  0  0  0  0
 46 67  1  0  0  0  0
 47 66  1  0  0  0  0
 49 61  1  0  0  0  0
 50 62  1  0  0  0  0
 51 62  1  0  0  0  0
 52 62  1  0  0  0  0
 53 74  1  0  0  0  0
 54 55  1  0  0  0  0
 55 58  1  0  0  0  0
 56 57  1  0  0  0  0
 56 59  1  0  0  0  0
 57 65  1  0  0  0  0
 58 73  1  0  0  0  0
 59 81  1  0  0  0  0
 60 62  1  0  0  0  0
 60 72  1  0  0  0  0
 61 74  1  0  0  0  0
 63 66  1  0  0  0  0
 64 65  1  0  0  0  0
M  CHG  1  74   1
M  ISO  4  35 100  59 101  73 100  81 101
M  END
> <Batch ID>
0040

> <Smiles>
CNC(C)C(=O)NC(C(=O)N1Cc2cc([101O:1][101CH2:1]CCn3nc(CCC[100NH:0][100C:0](=O)N4CCCC(n5nc(-c6ccc(Oc7ccc(F)cc7F)cc6)c(C(N)=O)c5N)C4)cc3C)ccc2CC1C(=O)NC1CCCc2ccccc21)C(C)(C)C

> <Shape>
0.262

> <Color>
0.068

> <Negative vol penalty>
0.000

$$$$

  -OEChem-04052317073D

 84 92  0     1  0  0  0  0  0999 V2000
  -33.2444  -17.1290   32.6554 C   0  0  0  0  0  0  0  0  0  0  0  0
  -32.5306  -17.2111   31.4641 C   0  0  0  0  0  0  0  0  0  0  0  0
  -23.0968   -9.8496   19.9384 C   0  0  0  0  0  0  0  0  0  0  0  0
  -23.8434   -9.8761   22.2360 C   0  0  0  0  0  0  0  0  0  0  0  0
  -34.4375  -16.4092   32.7036 C   0  0  0  0  0  0  0  0  0  0  0  0
  -33.0101  -16.5744   30.3200 C   0  0  0  0  0  0  0  0  0  0  0  0
  -29.3832  -14.0715   27.8249 C   0  0  0  0  0  0  0  0  0  0  0  0
  -22.3597   -8.6927   20.1913 C   0  0  0  0  0  0  0  0  0  0  0  0
  -23.1063   -8.7192   22.4889 C   0  0  0  0  0  0  0  0  0  0  0  0
  -28.5179  -14.8258   27.0337 C   0  0  0  0  0  0  0  0  0  0  0  0
  -19.9932   -5.9364   20.3230 C   0  0  0  0  0  0  0  0  0  0  0  0
  -18.6907   -5.8761   19.8275 C   0  0  0  0  0  0  0  0  0  0  0  0
  -29.7798  -14.2060   25.0734 C   0  0  0  0  0  0  0  0  0  0  0  0
  -27.5141  -17.8128   22.6576 C   0  0  0  0  0  0  0  0  0  0  0  0
  -18.1043   -7.8231   21.1324 C   0  0  0  0  0  0  0  0  0  0  0  0
  -23.8388  -10.4412   20.9608 C   0  0  0  0  0  0  0  0  0  0  0  0
  -24.1635  -12.9679   20.8271 C   0  0  0  0  0  0  0  0  0  0  0  0
  -34.9270  -15.7553   31.5619 C   0  0  0  0  0  0  0  0  0  0  0  0
  -30.4615  -13.3864   27.2467 C   0  0  0  0  0  0  0  0  0  0  0  0
  -34.2116  -15.8464   30.3526 C   0  0  0  0  0  0  0  0  0  0  0  0
  -30.6558  -13.4416   25.8591 C   0  0  0  0  0  0  0  0  0  0  0  0
  -28.2955  -18.7805   22.0360 C   0  0  0  0  0  0  0  0  0  0  0  0
  -22.3644   -8.1276   21.4665 C   0  0  0  0  0  0  0  0  0  0  0  0
  -28.7178  -14.8955   25.6581 C   0  0  0  0  0  0  0  0  0  0  0  0
  -20.3513   -6.9399   21.2233 C   0  0  0  0  0  0  0  0  0  0  0  0
  -17.7463   -6.8195   20.2322 C   0  0  0  0  0  0  0  0  0  0  0  0
  -19.4068   -7.8833   21.6279 C   0  0  0  0  0  0  0  0  0  0  0  0
  -28.4081  -20.0449   22.6033 C   0  0  0  0  0  0  0  0  0  0  0  0
  -24.6009  -11.6359   20.7001 C   0  0  0  0  0  0  0  0  0  0  0  0
  -26.8709  -18.1570   23.8356 C   0  0  0  0  0  0  0  0  0  0  0  0
  -27.7246  -20.2893   23.7836 C   0  0  0  0  0  0  0  0  0  0  0  0
  -25.2524  -13.7229   20.4654 C   0  0  0  0  0  0  0  0  0  0  0  0
  -22.8870  -13.4773   21.2355 C   0  0  0  0  0  0  0  0  0  0  0  0
  -33.6238  -13.5283   27.5359 C   0  0  0  0  0  0  0  0  0  0  0  0
  -33.5274  -10.9288   25.5979 C   0  0  0  0  0  0  0  0  0  0  0  0
  -31.8275   -9.1261   23.2511 C   0  0  0  0  0  0  0  0  0  0  0  0
  -30.7277  -14.7819   20.6788 C   0  0  0  0  0  0  0  0  0  0  0  0
  -36.2456  -15.0287   31.6508 C   0  0  0  0  0  0  0  0  0  0  0  0
  -31.3701  -12.5554   28.1106 C   0  0  0  0  0  0  0  0  0  0  0  0
  -31.7865  -12.7081   25.1869 C   0  0  0  0  0  0  0  0  0  0  0  0
  -36.4928  -14.0708   30.4883 C   0  0  0  0  0  0  0  0  0  0  0  0
  -29.6207  -12.3747   18.3004 C   0  0  0  0  0  0  0  0  0  0  0  0
  -36.1650  -14.7467   29.1607 C   0  0  0  0  0  0  0  0  0  0  0  0
  -28.1829  -12.0735   18.7269 C   0  0  0  0  0  0  0  0  0  0  0  0
  -30.5293  -12.6094   19.5051 C   0  0  0  0  0  0  0  0  0  0  0  0
  -28.6145  -13.3355   20.8762 C   0  0  0  0  0  0  0  0  0  0  0  0
  -34.6866  -15.1488   29.0965 C   0  0  1  0  0  0  0  0  0  0  0  0
  -32.7387  -12.3154   27.4807 C   0  0  1  0  0  0  0  0  0  0  0  0
  -27.6484  -13.1468   19.6942 C   0  0  2  0  0  0  0  0  0  0  0  0
  -27.7961  -21.6232   24.4538 C   0  0  0  0  0  0  0  0  0  0  0  0
  -32.0199   -7.0683   21.8278 C   0  0  0  0  0  0  0  0  0  0  0  0
  -35.4601  -12.3935   23.7459 C   0  0  0  0  0  0  0  0  0  0  0  0
  -34.8736  -10.7512   21.9495 C   0  0  0  0  0  0  0  0  0  0  0  0
  -35.9527   -9.9611   24.0552 C   0  0  0  0  0  0  0  0  0  0  0  0
  -29.4388   -7.9004   24.4964 C   0  0  0  0  0  0  0  0  0  0  0  0
  -28.9940  -18.4206   20.7650 C   0  0  0  0  0  0  0  0  0  0  0  0
  -26.0144  -17.1318   24.5382 C   0  0  0  0  0  0  0  0  0  0  0  0
  -30.4881  -18.0866   20.9340 C   0  0  0  0  0  0  0  0  0  0  0  0
  -30.7712  -16.9404   21.9027 C   0  0  0  0  0  0  0  0  0  0  0  0
  -26.8070  -16.3069   25.5464 C   0  0  0  0  0  0  0  0  0  1  0  0
  -33.5377  -10.7077   24.1046 C   0  0  1  0  0  0  0  0  0  0  0  0
  -31.5240   -7.6425   23.1458 C   0  0  2  0  0  0  0  0  0  0  0  0
  -34.9357  -10.9689   23.4764 C   0  0  0  0  0  0  0  0  0  0  0  0
  -25.8688  -11.5464   20.2896 N   0  0  0  0  0  0  0  0  0  0  0  0
  -26.9563  -19.3746   24.4166 N   0  0  0  0  0  0  0  0  0  0  0  0
  -26.2374  -12.8318   20.1555 N   0  0  0  0  0  0  0  0  0  0  0  0
  -32.6514  -11.9141   26.0751 N   0  0  0  0  0  0  0  0  0  0  0  0
  -29.9664  -13.6395   20.3815 N   0  0  0  0  0  0  0  0  0  0  0  0
  -25.4538  -15.0553   20.3853 N   0  0  0  0  0  0  0  0  0  0  0  0
  -21.8796  -12.5631   21.5726 N   0  0  0  0  0  0  0  0  0  0  0  0
  -33.8606  -13.9942   28.8151 N   0  0  0  0  0  0  0  0  0  0  0  0
  -33.0281   -9.3579   23.8883 N   0  0  0  0  0  0  0  0  0  0  0  0
  -30.1171  -15.7116   21.5116 N   0  0  0  0  0  0  0  0  0  0  0  0
  -30.0555   -7.4063   23.2384 N   0  3  0  0  0  0  0  0  0  0  0  0
  -22.6418  -14.7065   21.2839 O   0  0  0  0  0  0  0  0  0  0  0  0
  -34.0608  -14.0052   26.4951 O   0  0  0  0  0  0  0  0  0  0  0  0
  -34.2641  -10.2474   26.3152 O   0  0  0  0  0  0  0  0  0  0  0  0
  -31.0765   -9.9927   22.8088 O   0  0  0  0  0  0  0  0  0  0  0  0
  -31.8649  -14.9626   20.2306 O   0  0  0  0  0  0  0  0  0  0  0  0
  -21.6450   -6.9989   21.7136 O   0  0  0  0  0  0  0  0  0  0  0  0
  -27.8751  -15.6316   24.8836 O   0  0  0  0  0  0  0  0  0  1  0  0
  -16.4959   -6.7624   19.7552 F   0  0  0  0  0  0  0  0  0  0  0  0
  -19.7452   -8.8504   22.4916 F   0  0  0  0  0  0  0  0  0  0  0  0
  -29.3697  -21.2681   21.8569 Cl  0  0  0  0  0  0  0  0  0  0  0  0
  1  2  1  0  0  0  0
  1  5  2  0  0  0  0
  2  6  2  0  0  0  0
  3  8  2  0  0  0  0
  3 16  1  0  0  0  0
  4  9  1  0  0  0  0
  4 16  2  0  0  0  0
  5 18  1  0  0  0  0
  6 20  1  0  0  0  0
  7 10  2  0  0  0  0
  7 19  1  0  0  0  0
  8 23  1  0  0  0  0
  9 23  2  0  0  0  0
 10 24  1  0  0  0  0
 11 12  2  0  0  0  0
 11 25  1  0  0  0  0
 12 26  1  0  0  0  0
 13 21  1  0  0  0  0
 13 24  2  0  0  0  0
 14 22  2  0  0  0  0
 14 30  1  0  0  0  0
 15 26  2  0  0  0  0
 15 27  1  0  0  0  0
 16 29  1  0  0  0  0
 17 29  1  0  0  0  0
 17 32  2  0  0  0  0
 17 33  1  0  0  0  0
 18 20  2  0  0  0  0
 18 38  1  0  0  0  0
 19 21  2  0  0  0  0
 19 39  1  0  0  0  0
 20 47  1  0  0  0  0
 21 40  1  0  0  0  0
 22 28  1  0  0  0  0
 22 56  1  0  0  0  0
 23 80  1  0  0  0  0
 24 81  1  0  0  0  0
 25 27  2  0  0  0  0
 25 80  1  0  0  0  0
 26 82  1  0  0  0  0
 27 83  1  0  0  0  0
 28 31  2  0  0  0  0
 28 84  1  0  0  0  0
 29 64  2  0  0  0  0
 30 57  1  0  0  0  0
 30 65  2  0  0  0  0
 31 50  1  0  0  0  0
 31 65  1  0  0  0  0
 32 66  1  0  0  0  0
 32 69  1  0  0  0  0
 33 70  1  0  0  0  0
 33 75  2  0  0  0  0
 34 48  1  0  0  0  0
 34 71  1  0  0  0  0
 34 76  2  0  0  0  0
 35 61  1  0  0  0  0
 35 67  1  0  0  0  0
 35 77  2  0  0  0  0
 36 62  1  0  0  0  0
 36 72  1  0  0  0  0
 36 78  2  0  0  0  0
 37 68  1  0  0  0  0
 37 73  1  0  0  0  0
 37 79  2  0  0  0  0
 38 41  1  0  0  0  0
 39 48  1  0  0  0  0
 40 67  1  0  0  0  0
 41 43  1  0  0  0  0
 42 44  1  0  0  0  0
 42 45  1  0  0  0  0
 43 47  1  0  0  0  0
 44 49  1  0  0  0  0
 45 68  1  0  0  0  0
 46 49  1  0  0  0  0
 46 68  1  0  0  0  0
 47 71  1  0  0  0  0
 48 67  1  0  0  0  0
 49 66  1  0  0  0  0
 51 62  1  0  0  0  0
 52 63  1  0  0  0  0
 53 63  1  0  0  0  0
 54 63  1  0  0  0  0
 55 74  1  0  0  0  0
 56 58  1  0  0  0  0
 57 60  1  0  0  0  0
 58 59  1  0  0  0  0
 59 73  1  0  0  0  0
 60 81  1  0  0  0  0
 61 63  1  0  0  0  0
 61 72  1  0  0  0  0
 62 74  1  0  0  0  0
 64 66  1  0  0  0  0
M  CHG  1  74   1
M  ISO  4  37 100  60 101  73 100  81 101
M  END
> <Batch ID>
0040

> <Smiles>
CNC(C)C(=O)NC(C(=O)N1Cc2cc([101O:1][101CH2:1]Cc3cc(CCC[100NH:0][100C:0](=O)N4CCCC(n5nc(-c6ccc(Oc7ccc(F)cc7F)cc6)c(C(N)=O)c5N)C4)c(Cl)c(C)n3)ccc2CC1C(=O)NC1CCCc2ccccc21)C(C)(C)C

> <Shape>
0.160

> <Color>
0.195

> <Negative vol penalty>
0.000

$$$$

  -OEChem-04052317073D

 87 95  0     1  0  0  0  0  0999 V2000
  -28.1626  -25.4035   16.0121 C   0  0  0  0  0  0  0  0  0  0  0  0
  -26.9595  -25.5604   16.6928 C   0  0  0  0  0  0  0  0  0  0  0  0
  -26.7404  -17.4944   21.4922 C   0  0  0  0  0  0  0  0  0  0  0  0
  -24.5252  -18.4173   21.2125 C   0  0  0  0  0  0  0  0  0  0  0  0
  -29.3564  -25.8114   16.6057 C   0  0  0  0  0  0  0  0  0  0  0  0
  -26.9496  -26.1244   17.9680 C   0  0  0  0  0  0  0  0  0  0  0  0
  -23.2727  -29.5584   18.5453 C   0  0  0  0  0  0  0  0  0  0  0  0
  -26.1868  -16.2345   21.7196 C   0  0  0  0  0  0  0  0  0  0  0  0
  -23.9716  -17.1573   21.4398 C   0  0  0  0  0  0  0  0  0  0  0  0
  -21.9807  -29.0785   18.7554 C   0  0  0  0  0  0  0  0  0  0  0  0
  -24.8823  -13.7175   19.8769 C   0  0  0  0  0  0  0  0  0  0  0  0
  -25.4614  -12.6280   19.2263 C   0  0  0  0  0  0  0  0  0  0  0  0
  -22.2219  -29.4825   21.1214 C   0  0  0  0  0  0  0  0  0  0  0  0
  -25.9515  -11.6126   21.3631 C   0  0  0  0  0  0  0  0  0  0  0  0
  -20.3711  -25.9121   24.3230 C   0  0  0  0  0  0  0  0  0  0  0  0
  -25.9096  -18.5859   21.2387 C   0  0  0  0  0  0  0  0  0  0  0  0
  -26.8657  -20.4369   19.7665 C   0  0  0  0  0  0  0  0  0  0  0  0
  -29.3601  -26.3895   17.8849 C   0  0  0  0  0  0  0  0  0  0  0  0
  -24.0544  -29.9944   19.6248 C   0  0  0  0  0  0  0  0  0  0  0  0
  -28.1448  -26.5392   18.5798 C   0  0  0  0  0  0  0  0  0  0  0  0
  -23.5226  -29.9698   20.9220 C   0  0  0  0  0  0  0  0  0  0  0  0
  -21.3496  -24.9760   24.5524 C   0  0  0  0  0  0  0  0  0  0  0  0
  -24.8024  -16.0659   21.6934 C   0  0  0  0  0  0  0  0  0  0  0  0
  -21.4561  -29.0378   20.0439 C   0  0  0  0  0  0  0  0  0  0  0  0
  -24.8379  -13.7546   21.2706 C   0  0  0  0  0  0  0  0  0  0  0  0
  -25.9960  -11.5756   19.9694 C   0  0  0  0  0  0  0  0  0  0  0  0
  -25.3725  -12.7022   22.0137 C   0  0  0  0  0  0  0  0  0  0  0  0
  -26.4808  -19.8877   21.0043 C   0  0  0  0  0  0  0  0  0  0  0  0
  -21.1494  -24.0053   23.5527 C   0  0  0  0  0  0  0  0  0  0  0  0
  -27.3454  -21.6853   20.0791 C   0  0  0  0  0  0  0  0  0  0  0  0
  -26.7957  -19.8692   18.4518 C   0  0  0  0  0  0  0  0  0  0  0  0
  -26.8146  -29.0805   20.9091 C   0  0  0  0  0  0  0  0  0  0  0  0
  -26.3946  -31.7284   22.7351 C   0  0  0  0  0  0  0  0  0  0  0  0
  -24.2413  -34.0122   24.0748 C   0  0  0  0  0  0  0  0  0  0  0  0
  -26.3110  -25.4275   24.6373 C   0  0  0  0  0  0  0  0  0  0  0  0
  -30.6808  -26.7717   18.5050 C   0  0  0  0  0  0  0  0  0  0  0  0
  -25.4365  -30.5342   19.3782 C   0  0  0  0  0  0  0  0  0  0  0  0
  -24.3134  -30.4453   22.1123 C   0  0  0  0  0  0  0  0  0  0  0  0
  -30.5428  -27.7039   19.7059 C   0  0  0  0  0  0  0  0  0  0  0  0
  -29.4580  -24.1054   23.6247 C   0  0  0  0  0  0  0  0  0  0  0  0
  -29.4564  -27.2000   20.6507 C   0  0  0  0  0  0  0  0  0  0  0  0
  -29.0866  -22.9241   22.7266 C   0  0  0  0  0  0  0  0  0  0  0  0
  -28.4865  -24.2530   24.7936 C   0  0  0  0  0  0  0  0  0  0  0  0
  -26.6929  -23.1502   23.5127 C   0  0  0  0  0  0  0  0  0  0  0  0
  -28.0904  -27.1695   19.9546 C   0  0  1  0  0  0  0  0  0  0  0  0
  -26.3312  -30.4719   20.6123 C   0  0  1  0  0  0  0  0  0  0  0  0
  -27.6113  -22.9949   22.2885 C   0  0  2  0  0  0  0  0  0  0  0  0
  -19.8767  -20.3485   27.2995 C   0  0  0  0  0  0  0  0  0  0  0  0
  -24.1886  -36.0377   25.5554 C   0  0  0  0  0  0  0  0  0  0  0  0
  -26.7602  -29.9451   25.1838 C   0  0  0  0  0  0  0  0  0  0  0  0
  -25.7730  -31.7755   26.5778 C   0  0  0  0  0  0  0  0  0  0  0  0
  -27.8985  -32.1669   25.3321 C   0  0  0  0  0  0  0  0  0  0  0  0
  -23.1390  -35.7067   21.9133 C   0  0  0  0  0  0  0  0  0  0  0  0
  -22.3731  -24.9952   25.6111 C   0  0  0  0  0  0  0  0  0  0  0  0
  -21.9203  -22.7703   23.3258 C   0  0  0  0  0  0  0  0  0  0  0  0
  -20.2267  -20.2772   25.8216 C   0  0  0  0  0  0  0  0  0  0  0  0
  -23.2579  -26.2666   25.6464 C   0  0  0  0  0  0  0  0  0  0  0  0
  -21.2383  -21.4911   23.8509 C   0  0  0  0  0  0  0  0  0  0  0  0
  -20.9234  -21.5537   25.3488 C   0  0  0  0  0  0  0  0  0  0  0  0
  -18.8404  -26.8976   21.3126 C   0  0  0  0  0  0  0  0  0  0  0  0
  -18.4899  -26.1411   22.5958 C   0  0  0  0  0  0  0  0  0  0  0  0
  -24.0814  -26.4864   24.3791 C   0  0  0  0  0  0  0  0  0  0  0  0
  -19.9350  -27.9405   21.5061 C   0  0  0  0  0  0  0  0  0  1  0  0
  -25.7217  -32.0216   24.0543 C   0  0  1  0  0  0  0  0  0  0  0  0
  -24.2849  -35.5287   24.1255 C   0  0  2  0  0  0  0  0  0  0  0  0
  -26.5239  -31.4664   25.2650 C   0  0  0  0  0  0  0  0  0  0  0  0
  -26.6975  -20.7191   22.0270 N   0  0  0  0  0  0  0  0  0  0  0  0
  -20.1241  -24.2976   22.7482 N   0  0  0  0  0  0  0  0  0  0  0  0
  -19.6712  -25.4625   23.2421 N   0  0  0  0  0  0  0  0  0  0  0  0
  -27.2238  -21.8034   21.4324 N   0  0  0  0  0  0  0  0  0  0  0  0
  -25.6622  -30.9583   21.8206 N   0  0  0  0  0  0  0  0  0  0  0  0
  -27.1051  -24.3160   24.3101 N   0  0  0  0  0  0  0  0  0  0  0  0
  -27.8553  -22.6827   19.3256 N   0  0  0  0  0  0  0  0  0  0  0  0
  -26.2756  -18.5756   18.3094 N   0  0  0  0  0  0  0  0  0  0  0  0
  -27.5318  -28.5024   19.8791 N   0  0  0  0  0  0  0  0  0  0  0  0
  -25.5065  -33.4641   24.0911 N   0  0  0  0  0  0  0  0  0  0  0  0
  -25.0161  -25.4108   24.1336 N   0  0  0  0  0  0  0  0  0  0  0  0
  -23.1546  -36.1058   23.3442 N   0  3  0  0  0  0  0  0  0  0  0  0
  -27.1982  -20.4844   17.4354 O   0  0  0  0  0  0  0  0  0  0  0  0
  -26.5574  -28.5699   21.9930 O   0  0  0  0  0  0  0  0  0  0  0  0
  -27.5253  -32.1725   22.5211 O   0  0  0  0  0  0  0  0  0  0  0  0
  -23.1900  -33.3771   24.0294 O   0  0  0  0  0  0  0  0  0  0  0  0
  -26.7270  -26.3678   25.3227 O   0  0  0  0  0  0  0  0  0  0  0  0
  -24.2619  -14.8366   21.9150 O   0  0  0  0  0  0  0  0  0  0  0  0
  -20.1955  -28.5694   20.2519 O   0  0  0  0  0  0  0  0  0  1  0  0
  -26.5506  -10.5286   19.3445 F   0  0  0  0  0  0  0  0  0  0  0  0
  -25.3317  -12.7316   23.3528 F   0  0  0  0  0  0  0  0  0  0  0  0
  1  2  1  0  0  0  0
  1  5  2  0  0  0  0
  2  6  2  0  0  0  0
  3  8  2  0  0  0  0
  3 16  1  0  0  0  0
  4  9  1  0  0  0  0
  4 16  2  0  0  0  0
  5 18  1  0  0  0  0
  6 20  1  0  0  0  0
  7 10  2  0  0  0  0
  7 19  1  0  0  0  0
  8 23  1  0  0  0  0
  9 23  2  0  0  0  0
 10 24  1  0  0  0  0
 11 12  2  0  0  0  0
 11 25  1  0  0  0  0
 12 26  1  0  0  0  0
 13 21  1  0  0  0  0
 13 24  2  0  0  0  0
 14 26  2  0  0  0  0
 14 27  1  0  0  0  0
 15 22  2  0  0  0  0
 15 69  1  0  0  0  0
 16 28  1  0  0  0  0
 17 28  1  0  0  0  0
 17 30  2  0  0  0  0
 17 31  1  0  0  0  0
 18 20  2  0  0  0  0
 18 36  1  0  0  0  0
 19 21  2  0  0  0  0
 19 37  1  0  0  0  0
 20 45  1  0  0  0  0
 21 38  1  0  0  0  0
 22 29  1  0  0  0  0
 22 54  1  0  0  0  0
 23 84  1  0  0  0  0
 24 85  1  0  0  0  0
 25 27  2  0  0  0  0
 25 84  1  0  0  0  0
 26 86  1  0  0  0  0
 27 87  1  0  0  0  0
 28 67  2  0  0  0  0
 29 55  1  0  0  0  0
 29 68  2  0  0  0  0
 30 70  1  0  0  0  0
 30 73  1  0  0  0  0
 31 74  1  0  0  0  0
 31 79  2  0  0  0  0
 32 46  1  0  0  0  0
 32 75  1  0  0  0  0
 32 80  2  0  0  0  0
 33 64  1  0  0  0  0
 33 71  1  0  0  0  0
 33 81  2  0  0  0  0
 34 65  1  0  0  0  0
 34 76  1  0  0  0  0
 34 82  2  0  0  0  0
 35 72  1  0  0  0  0
 35 77  1  0  0  0  0
 35 83  2  0  0  0  0
 36 39  1  0  0  0  0
 37 46  1  0  0  0  0
 38 71  1  0  0  0  0
 39 41  1  0  0  0  0
 40 42  1  0  0  0  0
 40 43  1  0  0  0  0
 41 45  1  0  0  0  0
 42 47  1  0  0  0  0
 43 72  1  0  0  0  0
 44 47  1  0  0  0  0
 44 72  1  0  0  0  0
 45 75  1  0  0  0  0
 46 71  1  0  0  0  0
 47 70  1  0  0  0  0
 48 56  1  0  0  0  0
 49 65  1  0  0  0  0
 50 66  1  0  0  0  0
 51 66  1  0  0  0  0
 52 66  1  0  0  0  0
 53 78  1  0  0  0  0
 54 57  1  0  0  0  0
 55 58  1  0  0  0  0
 56 59  1  0  0  0  0
 57 62  1  0  0  0  0
 58 59  1  0  0  0  0
 60 61  1  0  0  0  0
 60 63  1  0  0  0  0
 61 69  1  0  0  0  0
 62 77  1  0  0  0  0
 63 85  1  0  0  0  0
 64 66  1  0  0  0  0
 64 76  1  0  0  0  0
 65 78  1  0  0  0  0
 67 70  1  0  0  0  0
 68 69  1  0  0  0  0
M  CHG  1  78   1
M  ISO  4  35 100  63 101  77 100  85 101
M  END
> <Batch ID>
0040

> <Smiles>
CCCCCc1nn(CC[101CH2:1][101O:1]c2ccc3c(c2)CN(C(=O)C(NC(=O)C(C)NC)C(C)(C)C)C(C(=O)NC2CCCc4ccccc42)C3)cc1CCC[100NH:0][100C:0](=O)N1CCCC(n2nc(-c3ccc(Oc4ccc(F)cc4F)cc3)c(C(N)=O)c2N)C1

> <Shape>
0.245

> <Color>
0.075

> <Negative vol penalty>
0.000

$$$$

  -OEChem-04052317073D

 86 94  0     1  0  0  0  0  0999 V2000
  -21.8535   -8.3260   20.9623 C   0  0  0  0  0  0  0  0  0  0  0  0
  -22.0527   -9.5824   21.5254 C   0  0  0  0  0  0  0  0  0  0  0  0
  -28.8381  -26.8969   18.8294 C   0  0  0  0  0  0  0  0  0  0  0  0
  -26.7213  -25.7860   19.1789 C   0  0  0  0  0  0  0  0  0  0  0  0
  -22.9494   -7.5337   20.6231 C   0  0  0  0  0  0  0  0  0  0  0  0
  -23.3480  -10.0469   21.7505 C   0  0  0  0  0  0  0  0  0  0  0  0
  -23.9650  -14.8602   20.3027 C   0  0  0  0  0  0  0  0  0  0  0  0
  -29.4586  -25.6599   18.6552 C   0  0  0  0  0  0  0  0  0  0  0  0
  -27.3418  -24.5489   19.0047 C   0  0  0  0  0  0  0  0  0  0  0  0
  -23.4706  -15.8490   21.1522 C   0  0  0  0  0  0  0  0  0  0  0  0
  -28.4340  -21.0824   19.0091 C   0  0  0  0  0  0  0  0  0  0  0  0
  -28.1180  -20.0659   19.9104 C   0  0  0  0  0  0  0  0  0  0  0  0
  -25.6940  -16.2111   22.0149 C   0  0  0  0  0  0  0  0  0  0  0  0
  -28.9400  -21.4248   21.7311 C   0  0  0  0  0  0  0  0  0  0  0  0
  -27.4695  -26.9600   19.0913 C   0  0  0  0  0  0  0  0  0  0  0  0
  -26.7606  -29.2936   18.3436 C   0  0  0  0  0  0  0  0  0  0  0  0
  -24.2590   -7.9926   20.8352 C   0  0  0  0  0  0  0  0  0  0  0  0
  -25.3282  -14.5314   20.3107 C   0  0  0  0  0  0  0  0  0  0  0  0
  -24.4625   -9.2595   21.4150 C   0  0  0  0  0  0  0  0  0  0  0  0
  -26.2037  -15.2196   21.1627 C   0  0  0  0  0  0  0  0  0  0  0  0
  -28.7104  -24.4859   18.7428 C   0  0  0  0  0  0  0  0  0  0  0  0
  -24.3346  -16.5226   22.0106 C   0  0  0  0  0  0  0  0  0  0  0  0
  -29.0031  -22.2701   19.4687 C   0  0  0  0  0  0  0  0  0  0  0  0
  -28.3710  -20.2371   21.2715 C   0  0  0  0  0  0  0  0  0  0  0  0
  -29.2560  -22.4413   20.8297 C   0  0  0  0  0  0  0  0  0  0  0  0
  -26.8280  -28.2375   19.2719 C   0  0  0  0  0  0  0  0  0  0  0  0
  -24.0248  -20.5214   21.1474 C   0  0  0  0  0  0  0  0  0  0  0  0
  -23.4900  -20.9667   22.3334 C   0  0  0  0  0  0  0  0  0  0  0  0
  -26.0495  -30.2746   18.9906 C   0  0  0  0  0  0  0  0  0  0  0  0
  -23.8284  -18.7893   22.3689 C   0  0  0  0  0  0  0  0  0  1  0  0
  -27.2929  -29.3802   17.0151 C   0  0  0  0  0  0  0  0  0  0  0  0
  -26.9992  -11.9092   20.9709 C   0  0  0  0  0  0  0  0  0  0  0  0
  -29.4907  -13.7046   19.9263 C   0  0  0  0  0  0  0  0  0  0  0  0
  -30.7998  -16.8103   19.3898 C   0  0  0  0  0  0  0  0  0  0  0  0
  -22.0311  -30.1444   23.4275 C   0  0  0  0  0  0  0  0  0  0  0  0
  -25.4116   -7.0810   20.4960 C   0  0  0  0  0  0  0  0  0  0  0  0
  -25.8502  -13.4809   19.3692 C   0  0  0  0  0  0  0  0  0  0  0  0
  -27.6790  -14.9182   21.1953 C   0  0  0  0  0  0  0  0  0  0  0  0
  -26.7557   -7.8007   20.4210 C   0  0  0  0  0  0  0  0  0  0  0  0
  -25.1047  -31.9406   23.3750 C   0  0  0  0  0  0  0  0  0  0  0  0
  -26.9353   -8.7228   21.6228 C   0  0  0  0  0  0  0  0  0  0  0  0
  -25.8888  -31.2905   22.2337 C   0  0  0  0  0  0  0  0  0  0  0  0
  -24.2734  -30.9161   24.1438 C   0  0  0  0  0  0  0  0  0  0  0  0
  -24.1582  -29.4468   22.1685 C   0  0  0  0  0  0  0  0  0  0  0  0
  -25.8527   -9.8085   21.6517 C   0  0  1  0  0  0  0  0  0  0  0  0
  -27.1705  -12.8699   19.8284 C   0  0  1  0  0  0  0  0  0  0  0  0
  -24.9685  -30.4493   21.3290 C   0  0  2  0  0  0  0  0  0  0  0  0
  -24.3669  -21.3011   19.9470 C   0  0  0  0  0  0  0  0  0  0  0  0
  -32.4322  -18.5441   18.5984 C   0  0  0  0  0  0  0  0  0  0  0  0
  -30.8973  -13.0572   22.5554 C   0  0  0  0  0  0  0  0  0  0  0  0
  -32.4783  -14.9427   22.0933 C   0  0  0  0  0  0  0  0  0  0  0  0
  -32.3749  -12.9945   20.5387 C   0  0  0  0  0  0  0  0  0  0  0  0
  -22.8529  -19.7832   24.4534 C   0  0  0  0  0  0  0  0  0  0  0  0
  -29.5403  -16.9424   16.7150 C   0  0  0  0  0  0  0  0  0  0  0  0
  -23.0942  -22.3111   22.7901 C   0  0  0  0  0  0  0  0  0  0  0  0
  -21.5703  -22.5776   22.7944 C   0  0  0  0  0  0  0  0  0  0  0  0
  -21.2231  -23.9983   23.2529 C   0  0  0  0  0  0  0  0  0  0  0  0
  -19.7115  -24.2371   23.2153 C   0  0  0  0  0  0  0  0  0  0  0  0
  -19.3009  -25.6194   23.7315 C   0  0  0  0  0  0  0  0  0  0  0  0
  -19.8515  -26.7728   22.8884 C   0  0  0  0  0  0  0  0  0  0  0  0
  -19.3838  -28.1270   23.4325 C   0  0  0  0  0  0  0  0  0  0  0  0
  -19.8559  -29.3015   22.5804 C   0  0  0  0  0  0  0  0  0  0  0  0
  -30.4689  -14.6552   20.5732 C   0  0  1  0  0  0  0  0  0  0  0  0
  -31.5026  -17.4131   18.1869 C   0  0  2  0  0  0  0  0  0  0  0  0
  -31.5268  -13.9170   21.4411 C   0  0  0  0  0  0  0  0  0  0  0  0
  -26.2094  -28.5209   20.4212 N   0  0  0  0  0  0  0  0  0  0  0  0
  -24.2330  -19.1652   21.1760 N   0  0  0  0  0  0  0  0  0  0  0  0
  -23.3700  -19.8458   23.1057 N   0  0  0  0  0  0  0  0  0  0  0  0
  -25.7465  -29.7663   20.2194 N   0  0  0  0  0  0  0  0  0  0  0  0
  -28.1401  -13.8786   20.2604 N   0  0  0  0  0  0  0  0  0  0  0  0
  -23.4215  -30.1530   23.2284 N   0  0  0  0  0  0  0  0  0  0  0  0
  -25.6604  -31.5138   18.6227 N   0  0  0  0  0  0  0  0  0  0  0  0
  -26.4920  -28.9575   15.9455 N   0  0  0  0  0  0  0  0  0  0  0  0
  -26.1559  -10.8502   20.6939 N   0  0  0  0  0  0  0  0  0  0  0  0
  -31.0354  -15.4556   19.4931 N   0  0  0  0  0  0  0  0  0  0  0  0
  -21.2968  -29.4017   22.5110 N   0  0  0  0  0  0  0  0  0  0  0  0
  -30.5045  -17.9530   17.2207 N   0  3  0  0  0  0  0  0  0  0  0  0
  -28.4509  -29.8040   16.7849 O   0  0  0  0  0  0  0  0  0  0  0  0
  -27.5896  -12.1129   22.0253 O   0  0  0  0  0  0  0  0  0  0  0  0
  -29.9086  -12.8441   19.1474 O   0  0  0  0  0  0  0  0  0  0  0  0
  -30.1138  -17.4753   20.1629 O   0  0  0  0  0  0  0  0  0  0  0  0
  -21.4841  -30.7577   24.3503 O   0  0  0  0  0  0  0  0  0  0  0  0
  -29.3155  -23.2786   18.5726 O   0  0  0  0  0  0  0  0  0  0  0  0
  -23.8546  -17.4877   22.8412 O   0  0  0  0  0  0  0  0  0  1  0  0
  -28.0660  -19.2615   22.1371 F   0  0  0  0  0  0  0  0  0  0  0  0
  -29.8015  -23.5806   21.2773 F   0  0  0  0  0  0  0  0  0  0  0  0
  1  2  1  0  0  0  0
  1  5  2  0  0  0  0
  2  6  2  0  0  0  0
  3  8  2  0  0  0  0
  3 15  1  0  0  0  0
  4  9  1  0  0  0  0
  4 15  2  0  0  0  0
  5 17  1  0  0  0  0
  6 19  1  0  0  0  0
  7 10  2  0  0  0  0
  7 18  1  0  0  0  0
  8 21  1  0  0  0  0
  9 21  2  0  0  0  0
 10 22  1  0  0  0  0
 11 12  2  0  0  0  0
 11 23  1  0  0  0  0
 12 24  1  0  0  0  0
 13 20  1  0  0  0  0
 13 22  2  0  0  0  0
 14 24  2  0  0  0  0
 14 25  1  0  0  0  0
 15 26  1  0  0  0  0
 16 26  1  0  0  0  0
 16 29  2  0  0  0  0
 16 31  1  0  0  0  0
 17 19  2  0  0  0  0
 17 36  1  0  0  0  0
 18 20  2  0  0  0  0
 18 37  1  0  0  0  0
 19 45  1  0  0  0  0
 20 38  1  0  0  0  0
 21 83  1  0  0  0  0
 22 84  1  0  0  0  0
 23 25  2  0  0  0  0
 23 83  1  0  0  0  0
 24 85  1  0  0  0  0
 25 86  1  0  0  0  0
 26 66  2  0  0  0  0
 27 28  2  0  0  0  0
 27 48  1  0  0  0  0
 27 67  1  0  0  0  0
 28 55  1  0  0  0  0
 28 68  1  0  0  0  0
 29 69  1  0  0  0  0
 29 72  1  0  0  0  0
 30 67  2  0  0  0  0
 30 68  1  0  0  0  0
 30 84  1  0  0  0  0
 31 73  1  0  0  0  0
 31 78  2  0  0  0  0
 32 46  1  0  0  0  0
 32 74  1  0  0  0  0
 32 79  2  0  0  0  0
 33 63  1  0  0  0  0
 33 70  1  0  0  0  0
 33 80  2  0  0  0  0
 34 64  1  0  0  0  0
 34 75  1  0  0  0  0
 34 81  2  0  0  0  0
 35 71  1  0  0  0  0
 35 76  1  0  0  0  0
 35 82  2  0  0  0  0
 36 39  1  0  0  0  0
 37 46  1  0  0  0  0
 38 70  1  0  0  0  0
 39 41  1  0  0  0  0
 40 42  1  0  0  0  0
 40 43  1  0  0  0  0
 41 45  1  0  0  0  0
 42 47  1  0  0  0  0
 43 71  1  0  0  0  0
 44 47  1  0  0  0  0
 44 71  1  0  0  0  0
 45 74  1  0  0  0  0
 46 70  1  0  0  0  0
 47 69  1  0  0  0  0
 49 64  1  0  0  0  0
 50 65  1  0  0  0  0
 51 65  1  0  0  0  0
 52 65  1  0  0  0  0
 53 68  1  0  0  0  0
 54 77  1  0  0  0  0
 55 56  1  0  0  0  0
 56 57  1  0  0  0  0
 57 58  1  0  0  0  0
 58 59  1  0  0  0  0
 59 60  1  0  0  0  0
 60 61  1  0  0  0  0
 61 62  1  0  0  0  0
 62 76  1  0  0  0  0
 63 65  1  0  0  0  0
 63 75  1  0  0  0  0
 64 77  1  0  0  0  0
 66 69  1  0  0  0  0
M  CHG  1  77   1
M  ISO  4  30 101  35 100  76 100  84 101
M  END
> <Batch ID>
0040

> <Smiles>
CNC(C)C(=O)NC(C(=O)N1Cc2cc([101O:1][101c:1]3nc(C)c(CCCCCCCC[100NH:0][100C:0](=O)N4CCCC(n5nc(-c6ccc(Oc7ccc(F)cc7F)cc6)c(C(N)=O)c5N)C4)n3C)ccc2CC1C(=O)NC1CCCc2ccccc21)C(C)(C)C

> <Shape>
0.278

> <Color>
0.071

> <Negative vol penalty>
0.000

$$$$

  -OEChem-04052317073D

 84 92  0     1  0  0  0  0  0999 V2000
  -28.2018  -34.6710   25.3917 C   0  0  0  0  0  0  0  0  0  0  0  0
  -28.3973  -33.4253   24.8040 C   0  0  0  0  0  0  0  0  0  0  0  0
  -25.1657  -13.5315   21.3723 C   0  0  0  0  0  0  0  0  0  0  0  0
  -26.3680  -12.4906   19.5535 C   0  0  0  0  0  0  0  0  0  0  0  0
  -26.9422  -35.0227   25.8749 C   0  0  0  0  0  0  0  0  0  0  0  0
  -27.3333  -32.5300   24.7000 C   0  0  0  0  0  0  0  0  0  0  0  0
  -27.0741  -30.3414   20.1407 C   0  0  0  0  0  0  0  0  0  0  0  0
  -24.4872  -12.3359   21.6080 C   0  0  0  0  0  0  0  0  0  0  0  0
  -25.6894  -11.2949   19.7893 C   0  0  0  0  0  0  0  0  0  0  0  0
  -27.9654  -29.3009   19.8823 C   0  0  0  0  0  0  0  0  0  0  0  0
  -25.1084   -9.3750   23.1181 C   0  0  0  0  0  0  0  0  0  0  0  0
  -24.9875   -8.9482   24.4405 C   0  0  0  0  0  0  0  0  0  0  0  0
  -26.2201  -27.7000   20.3408 C   0  0  0  0  0  0  0  0  0  0  0  0
  -22.5806   -9.0264   24.2456 C   0  0  0  0  0  0  0  0  0  0  0  0
  -26.1062  -13.6089   20.3450 C   0  0  0  0  0  0  0  0  0  0  0  0
  -28.0265  -15.2563   20.6704 C   0  0  0  0  0  0  0  0  0  0  0  0
  -25.8599  -34.1350   25.7682 C   0  0  0  0  0  0  0  0  0  0  0  0
  -25.7498  -30.0684   20.5123 C   0  0  0  0  0  0  0  0  0  0  0  0
  -26.0582  -32.8696   25.1835 C   0  0  0  0  0  0  0  0  0  0  0  0
  -25.3133  -28.7389   20.6008 C   0  0  0  0  0  0  0  0  0  0  0  0
  -24.7490  -11.2176   20.8166 C   0  0  0  0  0  0  0  0  0  0  0  0
  -27.5392  -27.9799   19.9851 C   0  0  0  0  0  0  0  0  0  0  0  0
  -23.9655   -9.6277   22.3594 C   0  0  0  0  0  0  0  0  0  0  0  0
  -23.7236   -8.7738   25.0042 C   0  0  0  0  0  0  0  0  0  0  0  0
  -22.7016   -9.4533   22.9232 C   0  0  0  0  0  0  0  0  0  0  0  0
  -26.8070  -14.8439   20.1006 C   0  0  0  0  0  0  0  0  0  0  0  0
  -31.2496  -24.2741   19.3166 C   0  0  0  0  0  0  0  0  0  0  0  0
  -28.7518  -23.3316   19.3225 C   0  0  0  0  0  0  0  0  0  0  0  0
  -30.9910  -22.9442   19.0675 C   0  0  0  0  0  0  0  0  0  0  0  0
  -29.0102  -24.6614   19.5724 C   0  0  0  0  0  0  0  0  0  0  0  0
  -28.2629  -16.4917   20.1185 C   0  0  0  0  0  0  0  0  0  0  0  0
  -28.8702  -14.5830   21.6140 C   0  0  0  0  0  0  0  0  0  0  0  0
  -23.9747  -30.6563   23.0827 C   0  0  0  0  0  0  0  0  0  0  0  0
  -21.6047  -29.4119   21.2505 C   0  0  0  0  0  0  0  0  0  0  0  0
  -20.7124  -27.4050   18.6385 C   0  0  0  0  0  0  0  0  0  0  0  0
  -28.3820  -19.9098   15.7086 C   0  0  0  0  0  0  0  0  0  0  0  0
  -24.5280  -34.5412   26.3476 C   0  0  0  0  0  0  0  0  0  0  0  0
  -24.7935  -31.2023   20.7617 C   0  0  0  0  0  0  0  0  0  0  0  0
  -23.8964  -28.3928   20.9764 C   0  0  0  0  0  0  0  0  0  0  0  0
  -23.3644  -33.6812   25.8611 C   0  0  0  0  0  0  0  0  0  0  0  0
  -25.2621  -19.5004   17.3745 C   0  0  0  0  0  0  0  0  0  0  0  0
  -23.7269  -32.2014   25.9347 C   0  0  0  0  0  0  0  0  0  0  0  0
  -25.4847  -18.2833   18.2740 C   0  0  0  0  0  0  0  0  0  0  0  0
  -25.9902  -19.3566   16.0399 C   0  0  0  0  0  0  0  0  0  0  0  0
  -27.6536  -17.8434   17.0487 C   0  0  0  0  0  0  0  0  0  0  0  0
  -24.9230  -31.8808   25.0301 C   0  0  1  0  0  0  0  0  0  0  0  0
  -23.6070  -30.8026   21.6332 C   0  0  1  0  0  0  0  0  0  0  0  0
  -26.9845  -17.9669   18.4283 C   0  0  2  0  0  0  0  0  0  0  0  0
  -32.6406  -24.8093   19.3148 C   0  0  0  0  0  0  0  0  0  0  0  0
  -27.3608  -22.7962   19.3240 C   0  0  0  0  0  0  0  0  0  0  0  0
  -18.6987  -26.5559   17.4050 C   0  0  0  0  0  0  0  0  0  0  0  0
  -21.0204  -27.4802   23.5390 C   0  0  0  0  0  0  0  0  0  0  0  0
  -19.7008  -26.0855   21.9323 C   0  0  0  0  0  0  0  0  0  0  0  0
  -18.9893  -28.4248   22.4268 C   0  0  0  0  0  0  0  0  0  0  0  0
  -21.5998  -28.6442   16.1016 C   0  0  0  0  0  0  0  0  0  0  0  0
  -32.0906  -21.9784   18.7848 C   0  0  0  0  0  0  0  0  0  0  0  0
  -27.9033  -25.6332   19.8583 C   0  0  0  0  0  0  0  0  0  1  0  0
  -31.6546  -20.8659   17.8180 C   0  0  0  0  0  0  0  0  0  0  0  0
  -31.2394  -21.4287   16.4554 C   0  0  0  0  0  0  0  0  0  0  0  0
  -30.8152  -20.3394   15.4757 C   0  0  0  0  0  0  0  0  0  0  0  0
  -21.0495  -28.0278   21.0161 C   0  0  1  0  0  0  0  0  0  0  0  0
  -19.7712  -27.6322   17.4694 C   0  0  2  0  0  0  0  0  0  0  0  0
  -20.2173  -27.5107   22.2233 C   0  0  0  0  0  0  0  0  0  0  0  0
  -26.3037  -15.7442   19.2520 N   0  0  0  0  0  0  0  0  0  0  0  0
  -29.7375  -22.4492   19.0656 N   0  0  0  0  0  0  0  0  0  0  0  0
  -30.2638  -25.1565   19.5739 N   0  0  0  0  0  0  0  0  0  0  0  0
  -27.2114  -16.7347   19.2845 N   0  0  0  0  0  0  0  0  0  0  0  0
  -23.0008  -29.5364   21.2166 N   0  0  0  0  0  0  0  0  0  0  0  0
  -27.4081  -19.0587   16.2565 N   0  0  0  0  0  0  0  0  0  0  0  0
  -29.2654  -17.3829   20.2702 N   0  0  0  0  0  0  0  0  0  0  0  0
  -28.4781  -13.3202   22.0786 N   0  0  0  0  0  0  0  0  0  0  0  0
  -24.5038  -31.8013   23.6472 N   0  0  0  0  0  0  0  0  0  0  0  0
  -20.3064  -28.0931   19.7623 N   0  0  0  0  0  0  0  0  0  0  0  0
  -29.7015  -19.5588   15.9666 N   0  0  0  0  0  0  0  0  0  0  0  0
  -20.5275  -27.6194   16.1853 N   0  3  0  0  0  0  0  0  0  0  0  0
  -29.9318  -15.0934   22.0453 O   0  0  0  0  0  0  0  0  0  0  0  0
  -23.7906  -29.5846   23.6476 O   0  0  0  0  0  0  0  0  0  0  0  0
  -20.8280  -30.3494   21.4491 O   0  0  0  0  0  0  0  0  0  0  0  0
  -21.7062  -26.6858   18.5635 O   0  0  0  0  0  0  0  0  0  0  0  0
  -28.0967  -20.9114   15.0435 O   0  0  0  0  0  0  0  0  0  0  0  0
  -24.0872  -10.0507   21.0465 O   0  0  0  0  0  0  0  0  0  0  0  0
  -28.4073  -26.9625   19.7341 O   0  0  0  0  0  0  0  0  0  1  0  0
  -23.6075   -8.3624   26.2737 F   0  0  0  0  0  0  0  0  0  0  0  0
  -21.5999   -9.6933   22.1989 F   0  0  0  0  0  0  0  0  0  0  0  0
  1  2  1  0  0  0  0
  1  5  2  0  0  0  0
  2  6  2  0  0  0  0
  3  8  2  0  0  0  0
  3 15  1  0  0  0  0
  4  9  1  0  0  0  0
  4 15  2  0  0  0  0
  5 17  1  0  0  0  0
  6 19  1  0  0  0  0
  7 10  2  0  0  0  0
  7 18  1  0  0  0  0
  8 21  1  0  0  0  0
  9 21  2  0  0  0  0
 10 22  1  0  0  0  0
 11 12  2  0  0  0  0
 11 23  1  0  0  0  0
 12 24  1  0  0  0  0
 13 20  1  0  0  0  0
 13 22  2  0  0  0  0
 14 24  2  0  0  0  0
 14 25  1  0  0  0  0
 15 26  1  0  0  0  0
 16 26  1  0  0  0  0
 16 31  2  0  0  0  0
 16 32  1  0  0  0  0
 17 19  2  0  0  0  0
 17 37  1  0  0  0  0
 18 20  2  0  0  0  0
 18 38  1  0  0  0  0
 19 46  1  0  0  0  0
 20 39  1  0  0  0  0
 21 81  1  0  0  0  0
 22 82  1  0  0  0  0
 23 25  2  0  0  0  0
 23 81  1  0  0  0  0
 24 83  1  0  0  0  0
 25 84  1  0  0  0  0
 26 64  2  0  0  0  0
 27 29  1  0  0  0  0
 27 49  1  0  0  0  0
 27 66  2  0  0  0  0
 28 30  2  0  0  0  0
 28 50  1  0  0  0  0
 28 65  1  0  0  0  0
 29 56  1  0  0  0  0
 29 65  2  0  0  0  0
 30 57  1  0  0  0  0
 30 66  1  0  0  0  0
 31 67  1  0  0  0  0
 31 70  1  0  0  0  0
 32 71  1  0  0  0  0
 32 76  2  0  0  0  0
 33 47  1  0  0  0  0
 33 72  1  0  0  0  0
 33 77  2  0  0  0  0
 34 61  1  0  0  0  0
 34 68  1  0  0  0  0
 34 78  2  0  0  0  0
 35 62  1  0  0  0  0
 35 73  1  0  0  0  0
 35 79  2  0  0  0  0
 36 69  1  0  0  0  0
 36 74  1  0  0  0  0
 36 80  2  0  0  0  0
 37 40  1  0  0  0  0
 38 47  1  0  0  0  0
 39 68  1  0  0  0  0
 40 42  1  0  0  0  0
 41 43  1  0  0  0  0
 41 44  1  0  0  0  0
 42 46  1  0  0  0  0
 43 48  1  0  0  0  0
 44 69  1  0  0  0  0
 45 48  1  0  0  0  0
 45 69  1  0  0  0  0
 46 72  1  0  0  0  0
 47 68  1  0  0  0  0
 48 67  1  0  0  0  0
 51 62  1  0  0  0  0
 52 63  1  0  0  0  0
 53 63  1  0  0  0  0
 54 63  1  0  0  0  0
 55 75  1  0  0  0  0
 56 58  1  0  0  0  0
 57 82  1  0  0  0  0
 58 59  1  0  0  0  0
 59 60  1  0  0  0  0
 60 74  1  0  0  0  0
 61 63  1  0  0  0  0
 61 73  1  0  0  0  0
 62 75  1  0  0  0  0
 64 67  1  0  0  0  0
M  CHG  1  75   1
M  ISO  4  36 100  57 101  74 100  82 101
M  END
> <Batch ID>
0040

> <Smiles>
CNC(C)C(=O)NC(C(=O)N1Cc2cc([101O:1][101CH2:1]c3nc(C)c(CCCC[100NH:0][100C:0](=O)N4CCCC(n5nc(-c6ccc(Oc7ccc(F)cc7F)cc6)c(C(N)=O)c5N)C4)nc3C)ccc2CC1C(=O)NC1CCCc2ccccc21)C(C)(C)C

> <Shape>
0.276

> <Color>
0.096

> <Negative vol penalty>
0.000

$$$$

  -OEChem-04052317073D

 87 95  0     1  0  0  0  0  0999 V2000
  -17.7640  -28.7969   22.6534 C   0  0  0  0  0  0  0  0  0  0  0  0
  -18.1083  -28.0072   21.5610 C   0  0  0  0  0  0  0  0  0  0  0  0
  -30.0668  -23.6256   19.3203 C   0  0  0  0  0  0  0  0  0  0  0  0
  -28.6507  -23.6374   21.2777 C   0  0  0  0  0  0  0  0  0  0  0  0
  -18.5458  -28.7676   23.8074 C   0  0  0  0  0  0  0  0  0  0  0  0
  -19.2354  -27.1884   21.6218 C   0  0  0  0  0  0  0  0  0  0  0  0
  -19.9310  -21.6838   19.0293 C   0  0  0  0  0  0  0  0  0  0  0  0
  -29.8415  -24.9914   19.1490 C   0  0  0  0  0  0  0  0  0  0  0  0
  -28.4254  -25.0033   21.1065 C   0  0  0  0  0  0  0  0  0  0  0  0
  -20.5474  -21.2747   17.8476 C   0  0  0  0  0  0  0  0  0  0  0  0
  -26.5054  -26.9860   19.1537 C   0  0  0  0  0  0  0  0  0  0  0  0
  -25.1952  -27.4474   19.2794 C   0  0  0  0  0  0  0  0  0  0  0  0
  -22.5503  -20.7443   19.0831 C   0  0  0  0  0  0  0  0  0  0  0  0
  -25.8748  -28.8804   21.1020 C   0  0  0  0  0  0  0  0  0  0  0  0
  -29.4713  -22.9486   20.3846 C   0  0  0  0  0  0  0  0  0  0  0  0
  -30.7311  -20.9322   21.3092 C   0  0  0  0  0  0  0  0  0  0  0  0
  -19.6775  -27.9408   23.8859 C   0  0  0  0  0  0  0  0  0  0  0  0
  -20.6244  -21.6364   20.2472 C   0  0  0  0  0  0  0  0  0  0  0  0
  -20.0339  -27.1490   22.7775 C   0  0  0  0  0  0  0  0  0  0  0  0
  -21.9395  -21.1510   20.2792 C   0  0  0  0  0  0  0  0  0  0  0  0
  -29.0208  -25.6803   20.0421 C   0  0  0  0  0  0  0  0  0  0  0  0
  -21.8582  -20.8076   17.8739 C   0  0  0  0  0  0  0  0  0  0  0  0
  -27.5004  -27.4717   20.0021 C   0  0  0  0  0  0  0  0  0  0  0  0
  -24.8798  -28.3947   20.2536 C   0  0  0  0  0  0  0  0  0  0  0  0
  -27.1851  -28.4189   20.9763 C   0  0  0  0  0  0  0  0  0  0  0  0
  -29.7032  -21.5375   20.5617 C   0  0  0  0  0  0  0  0  0  0  0  0
  -20.3469  -16.3363   17.9627 C   0  0  0  0  0  0  0  0  0  0  0  0
  -22.2618  -15.6443   16.2359 C   0  0  0  0  0  0  0  0  0  0  0  0
  -20.9116  -15.0802   17.9933 C   0  0  0  0  0  0  0  0  0  0  0  0
  -21.6966  -16.9001   16.2047 C   0  0  0  0  0  0  0  0  0  0  0  0
  -30.5146  -19.5839   21.1617 C   0  0  0  0  0  0  0  0  0  0  0  0
  -31.7872  -21.5348   22.0690 C   0  0  0  0  0  0  0  0  0  0  0  0
  -21.5369  -23.7954   22.3943 C   0  0  0  0  0  0  0  0  0  0  0  0
  -22.4493  -21.1718   24.0697 C   0  0  0  0  0  0  0  0  0  0  0  0
  -23.3887  -17.8912   24.0303 C   0  0  0  0  0  0  0  0  0  0  0  0
  -26.1963  -15.8869   20.8516 C   0  0  0  0  0  0  0  0  0  0  0  0
  -20.5186  -27.9783   25.1372 C   0  0  0  0  0  0  0  0  0  0  0  0
  -19.9363  -22.0562   21.5171 C   0  0  0  0  0  0  0  0  0  0  0  0
  -22.7206  -21.0612   21.5638 C   0  0  0  0  0  0  0  0  0  0  0  0
  -21.4840  -26.8020   25.2577 C   0  0  0  0  0  0  0  0  0  0  0  0
  -28.0807  -16.7816   17.8942 C   0  0  0  0  0  0  0  0  0  0  0  0
  -22.2173  -26.5760   23.9394 C   0  0  0  0  0  0  0  0  0  0  0  0
  -28.7959  -18.0505   18.3616 C   0  0  0  0  0  0  0  0  0  0  0  0
  -26.6670  -16.7024   18.4629 C   0  0  0  0  0  0  0  0  0  0  0  0
  -27.3089  -18.0587   20.4180 C   0  0  0  0  0  0  0  0  0  0  0  0
  -21.2350  -26.2292   22.8141 C   0  0  1  0  0  0  0  0  0  0  0  0
  -20.9109  -22.4487   22.6232 C   0  0  1  0  0  0  0  0  0  0  0  0
  -28.7513  -18.1863   19.8952 C   0  0  2  0  0  0  0  0  0  0  0  0
  -19.2778  -16.7316   18.9230 C   0  0  0  0  0  0  0  0  0  0  0  0
  -23.3310  -15.2487   15.2759 C   0  0  0  0  0  0  0  0  0  0  0  0
  -24.1085  -16.0298   25.5517 C   0  0  0  0  0  0  0  0  0  0  0  0
  -25.2131  -22.4418   24.3120 C   0  0  0  0  0  0  0  0  0  0  0  0
  -26.1091  -20.1991   24.9719 C   0  0  0  0  0  0  0  0  0  0  0  0
  -24.3935  -21.3220   26.3926 C   0  0  0  0  0  0  0  0  0  0  0  0
  -21.0708  -16.2162   23.2683 C   0  0  0  0  0  0  0  0  0  0  0  0
  -20.4794  -14.0579   18.9882 C   0  0  0  0  0  0  0  0  0  0  0  0
  -22.1329  -17.9338   15.1973 C   0  0  0  0  0  0  0  0  0  0  0  0
  -21.6287  -13.1260   19.4024 C   0  0  0  0  0  0  0  0  0  0  0  0
  -23.4751  -18.5892   15.5293 C   0  0  0  0  0  0  0  0  0  0  0  0
  -22.7696  -13.8936   20.0737 C   0  0  0  0  0  0  0  0  0  0  0  0
  -23.9244  -12.9589   20.4455 C   0  0  0  0  0  0  0  0  0  0  0  0
  -25.0740  -13.6914   21.1295 C   0  0  0  0  0  0  0  0  0  0  0  0
  -23.4529  -19.3864   16.8283 C   0  0  0  0  0  0  0  0  0  1  0  0
  -23.7106  -20.3475   24.1619 C   0  0  1  0  0  0  0  0  0  0  0  0
  -22.9341  -16.7032   24.8589 C   0  0  2  0  0  0  0  0  0  0  0  0
  -24.8428  -21.0810   24.9349 C   0  0  0  0  0  0  0  0  0  0  0  0
  -28.8940  -20.6469   19.9822 N   0  0  0  0  0  0  0  0  0  0  0  0
  -21.8794  -14.7118   17.1307 N   0  0  0  0  0  0  0  0  0  0  0  0
  -20.7290  -17.2687   17.0676 N   0  0  0  0  0  0  0  0  0  0  0  0
  -29.4133  -19.4682   20.3655 N   0  0  0  0  0  0  0  0  0  0  0  0
  -22.0064  -21.4894   22.7779 N   0  0  0  0  0  0  0  0  0  0  0  0
  -26.6963  -16.8195   19.9276 N   0  0  0  0  0  0  0  0  0  0  0  0
  -31.1608  -18.4980   21.6366 N   0  0  0  0  0  0  0  0  0  0  0  0
  -31.8633  -22.9335   22.1147 N   0  0  0  0  0  0  0  0  0  0  0  0
  -20.8130  -24.8488   22.9192 N   0  0  0  0  0  0  0  0  0  0  0  0
  -23.3206  -19.0684   24.7451 N   0  0  0  0  0  0  0  0  0  0  0  0
  -25.6259  -14.7436   20.3054 N   0  0  0  0  0  0  0  0  0  0  0  0
  -22.2588  -15.6957   23.9928 N   0  3  0  0  0  0  0  0  0  0  0  0
  -32.6478  -20.8530   22.6756 O   0  0  0  0  0  0  0  0  0  0  0  0
  -22.5989  -23.8727   21.7878 O   0  0  0  0  0  0  0  0  0  0  0  0
  -21.8741  -21.5151   25.1056 O   0  0  0  0  0  0  0  0  0  0  0  0
  -23.7700  -17.7849   22.8668 O   0  0  0  0  0  0  0  0  0  0  0  0
  -26.2585  -16.0578   22.0739 O   0  0  0  0  0  0  0  0  0  0  0  0
  -28.8009  -27.0131   19.8755 O   0  0  0  0  0  0  0  0  0  0  0  0
  -22.4625  -20.4082   16.7218 O   0  0  0  0  0  0  0  0  0  1  0  0
  -23.6219  -28.8389   20.3732 F   0  0  0  0  0  0  0  0  0  0  0  0
  -28.1369  -28.8901   21.7935 F   0  0  0  0  0  0  0  0  0  0  0  0
  1  2  1  0  0  0  0
  1  5  2  0  0  0  0
  2  6  2  0  0  0  0
  3  8  2  0  0  0  0
  3 15  1  0  0  0  0
  4  9  1  0  0  0  0
  4 15  2  0  0  0  0
  5 17  1  0  0  0  0
  6 19  1  0  0  0  0
  7 10  2  0  0  0  0
  7 18  1  0  0  0  0
  8 21  1  0  0  0  0
  9 21  2  0  0  0  0
 10 22  1  0  0  0  0
 11 12  2  0  0  0  0
 11 23  1  0  0  0  0
 12 24  1  0  0  0  0
 13 20  1  0  0  0  0
 13 22  2  0  0  0  0
 14 24  2  0  0  0  0
 14 25  1  0  0  0  0
 15 26  1  0  0  0  0
 16 26  1  0  0  0  0
 16 31  2  0  0  0  0
 16 32  1  0  0  0  0
 17 19  2  0  0  0  0
 17 37  1  0  0  0  0
 18 20  2  0  0  0  0
 18 38  1  0  0  0  0
 19 46  1  0  0  0  0
 20 39  1  0  0  0  0
 21 84  1  0  0  0  0
 22 85  1  0  0  0  0
 23 25  2  0  0  0  0
 23 84  1  0  0  0  0
 24 86  1  0  0  0  0
 25 87  1  0  0  0  0
 26 67  2  0  0  0  0
 27 29  1  0  0  0  0
 27 49  1  0  0  0  0
 27 69  2  0  0  0  0
 28 30  2  0  0  0  0
 28 50  1  0  0  0  0
 28 68  1  0  0  0  0
 29 56  1  0  0  0  0
 29 68  2  0  0  0  0
 30 57  1  0  0  0  0
 30 69  1  0  0  0  0
 31 70  1  0  0  0  0
 31 73  1  0  0  0  0
 32 74  1  0  0  0  0
 32 79  2  0  0  0  0
 33 47  1  0  0  0  0
 33 75  1  0  0  0  0
 33 80  2  0  0  0  0
 34 64  1  0  0  0  0
 34 71  1  0  0  0  0
 34 81  2  0  0  0  0
 35 65  1  0  0  0  0
 35 76  1  0  0  0  0
 35 82  2  0  0  0  0
 36 72  1  0  0  0  0
 36 77  1  0  0  0  0
 36 83  2  0  0  0  0
 37 40  1  0  0  0  0
 38 47  1  0  0  0  0
 39 71  1  0  0  0  0
 40 42  1  0  0  0  0
 41 43  1  0  0  0  0
 41 44  1  0  0  0  0
 42 46  1  0  0  0  0
 43 48  1  0  0  0  0
 44 72  1  0  0  0  0
 45 48  1  0  0  0  0
 45 72  1  0  0  0  0
 46 75  1  0  0  0  0
 47 71  1  0  0  0  0
 48 70  1  0  0  0  0
 51 65  1  0  0  0  0
 52 66  1  0  0  0  0
 53 66  1  0  0  0  0
 54 66  1  0  0  0  0
 55 78  1  0  0  0  0
 56 58  1  0  0  0  0
 57 59  1  0  0  0  0
 58 60  1  0  0  0  0
 59 63  1  0  0  0  0
 60 61  1  0  0  0  0
 61 62  1  0  0  0  0
 62 77  1  0  0  0  0
 63 85  1  0  0  0  0
 64 66  1  0  0  0  0
 64 76  1  0  0  0  0
 65 78  1  0  0  0  0
 67 70  1  0  0  0  0
M  CHG  1  78   1
M  ISO  4  36 100  63 101  77 100  85 101
M  END
> <Batch ID>
0040

> <Smiles>
CNC(C)C(=O)NC(C(=O)N1Cc2cc([101O:1][101CH2:1]CCc3nc(C)c(CCCCC[100NH:0][100C:0](=O)N4CCCC(n5nc(-c6ccc(Oc7ccc(F)cc7F)cc6)c(C(N)=O)c5N)C4)nc3C)ccc2CC1C(=O)NC1CCCc2ccccc21)C(C)(C)C

> <Shape>
0.182

> <Color>
0.075

> <Negative vol penalty>
0.000

$$$$

  -OEChem-04052317073D

 86 94  0     1  0  0  0  0  0999 V2000
  -19.6284  -23.9896   23.0614 C   0  0  0  0  0  0  0  0  0  0  0  0
  -20.8133  -24.2456   22.3789 C   0  0  0  0  0  0  0  0  0  0  0  0
  -23.0259  -14.7479   18.1903 C   0  0  0  0  0  0  0  0  0  0  0  0
  -22.3736  -15.4323   20.4137 C   0  0  0  0  0  0  0  0  0  0  0  0
  -18.7567  -25.0362   23.3592 C   0  0  0  0  0  0  0  0  0  0  0  0
  -21.1267  -25.5483   21.9927 C   0  0  0  0  0  0  0  0  0  0  0  0
  -25.9468  -26.7571   22.9675 C   0  0  0  0  0  0  0  0  0  0  0  0
  -21.7843  -14.1374   18.0139 C   0  0  0  0  0  0  0  0  0  0  0  0
  -21.1319  -14.8218   20.2372 C   0  0  0  0  0  0  0  0  0  0  0  0
  -26.9151  -26.2716   22.0897 C   0  0  0  0  0  0  0  0  0  0  0  0
  -20.2693  -11.2614   18.9399 C   0  0  0  0  0  0  0  0  0  0  0  0
  -20.2496   -9.9846   18.3785 C   0  0  0  0  0  0  0  0  0  0  0  0
  -26.9862  -28.4179   20.9907 C   0  0  0  0  0  0  0  0  0  0  0  0
  -18.9002  -10.8087   16.5517 C   0  0  0  0  0  0  0  0  0  0  0  0
  -23.3206  -15.3953   19.3902 C   0  0  0  0  0  0  0  0  0  0  0  0
  -24.9487  -17.3553   19.2656 C   0  0  0  0  0  0  0  0  0  0  0  0
  -19.0642  -26.3538   22.9850 C   0  0  0  0  0  0  0  0  0  0  0  0
  -25.4823  -28.0755   22.8565 C   0  0  0  0  0  0  0  0  0  0  0  0
  -20.2577  -26.6133   22.2846 C   0  0  0  0  0  0  0  0  0  0  0  0
  -26.0138  -28.9185   21.8701 C   0  0  0  0  0  0  0  0  0  0  0  0
  -20.8372  -14.1743   19.0373 C   0  0  0  0  0  0  0  0  0  0  0  0
  -27.4328  -27.1012   21.0993 C   0  0  0  0  0  0  0  0  0  0  0  0
  -19.6043  -12.3118   18.3073 C   0  0  0  0  0  0  0  0  0  0  0  0
  -19.5651   -9.7583   17.1844 C   0  0  0  0  0  0  0  0  0  0  0  0
  -18.9198  -12.0854   17.1132 C   0  0  0  0  0  0  0  0  0  0  0  0
  -24.6033  -16.0257   19.5733 C   0  0  0  0  0  0  0  0  0  0  0  0
  -26.2709  -17.4580   19.6229 C   0  0  0  0  0  0  0  0  0  0  0  0
  -24.1461  -18.4038   18.7069 C   0  0  0  0  0  0  0  0  0  0  0  0
  -22.6633  -29.4179   22.2607 C   0  0  0  0  0  0  0  0  0  0  0  0
  -24.2701  -32.1603   22.9083 C   0  0  0  0  0  0  0  0  0  0  0  0
  -27.2588  -33.8014   23.0555 C   0  0  0  0  0  0  0  0  0  0  0  0
  -30.4314  -16.4881   23.2139 C   0  0  0  0  0  0  0  0  0  0  0  0
  -18.0684  -27.4454   23.2872 C   0  0  0  0  0  0  0  0  0  0  0  0
  -24.4569  -28.5921   23.8282 C   0  0  0  0  0  0  0  0  0  0  0  0
  -25.5634  -30.3480   21.7216 C   0  0  0  0  0  0  0  0  0  0  0  0
  -18.6522  -28.8512   23.1727 C   0  0  0  0  0  0  0  0  0  0  0  0
  -29.6184  -13.8929   20.9158 C   0  0  0  0  0  0  0  0  0  0  0  0
  -19.4602  -28.9906   21.8865 C   0  0  0  0  0  0  0  0  0  0  0  0
  -30.6186  -21.5795   22.4709 C   0  0  0  0  0  0  0  0  0  0  0  0
  -31.9598  -20.4640   20.6450 C   0  0  0  0  0  0  0  0  0  0  0  0
  -29.8765  -22.4050   21.4214 C   0  0  0  0  0  0  0  0  0  0  0  0
  -31.2174  -21.2893   19.5956 C   0  0  0  0  0  0  0  0  0  0  0  0
  -28.2674  -14.3230   20.3414 C   0  0  0  0  0  0  0  0  0  0  0  0
  -29.7436  -14.2538   22.3944 C   0  0  0  0  0  0  0  0  0  0  0  0
  -28.1327  -16.1009   22.1358 C   0  0  0  0  0  0  0  0  0  0  0  0
  -20.6446  -28.0166   21.8707 C   0  0  1  0  0  0  0  0  0  0  0  0
  -23.6835  -29.7952   23.2973 C   0  0  1  0  0  0  0  0  0  0  0  0
  -31.1059  -20.2418   21.8996 C   0  0  0  0  0  0  0  0  0  0  0  0
  -30.7308  -22.6271   20.1669 C   0  0  0  0  0  0  0  0  0  0  0  0
  -27.9813  -15.8084   20.6332 C   0  0  2  0  0  0  0  0  0  0  0  0
  -26.6054  -22.6516   17.7849 C   0  0  0  0  0  0  0  0  0  0  0  0
  -28.2498  -36.0458   23.5825 C   0  0  0  0  0  0  0  0  0  0  0  0
  -31.2302  -25.4869   19.9109 C   0  0  0  0  0  0  0  0  0  0  0  0
  -23.2917  -33.2210   20.2198 C   0  0  0  0  0  0  0  0  0  0  0  0
  -25.0368  -35.0099   20.3693 C   0  0  0  0  0  0  0  0  0  0  0  0
  -23.2291  -34.8871   22.0839 C   0  0  0  0  0  0  0  0  0  0  0  0
  -28.8769  -32.6954   25.2730 C   0  0  0  0  0  0  0  0  0  0  0  0
  -31.8881  -19.4586   22.9522 C   0  0  0  0  0  0  0  0  0  0  0  0
  -30.9814  -18.7860   23.9731 C   0  0  0  0  0  0  0  0  0  0  0  0
  -28.0027  -23.2335   17.8100 C   0  0  0  0  0  0  0  0  0  0  0  0
  -28.7925  -25.2751   20.4118 C   0  0  0  0  0  0  0  0  0  1  0  0
  -25.0667  -33.1506   22.0935 C   0  0  1  0  0  0  0  0  0  0  0  0
  -27.8747  -34.6779   24.1310 C   0  0  2  0  0  0  0  0  0  0  0  0
  -29.9497  -23.4112   19.1140 C   0  0  2  0  0  0  0  0  0  0  0  0
  -29.8973  -24.9306   19.3998 C   0  0  2  0  0  0  0  0  0  0  0  0
  -24.1634  -34.0397   21.1929 C   0  0  0  0  0  0  0  0  0  0  0  0
  -25.6238  -15.3334   20.0864 N   0  0  0  0  0  0  0  0  0  0  0  0
  -26.6235  -16.2313   20.1038 N   0  0  0  0  0  0  0  0  0  0  0  0
  -24.5544  -30.8046   22.6917 N   0  0  0  0  0  0  0  0  0  0  0  0
  -29.4617  -15.6761   22.6028 N   0  0  0  0  0  0  0  0  0  0  0  0
  -27.1548  -18.4769   19.5694 N   0  0  0  0  0  0  0  0  0  0  0  0
  -22.8071  -18.1279   18.3981 N   0  0  0  0  0  0  0  0  0  0  0  0
  -21.7182  -28.5129   22.7047 N   0  0  0  0  0  0  0  0  0  0  0  0
  -25.8833  -33.8978   23.0437 N   0  0  0  0  0  0  0  0  0  0  0  0
  -30.0862  -17.8252   23.3677 N   0  0  0  0  0  0  0  0  0  0  0  0
  -29.1040  -34.0382   24.6795 N   0  3  0  0  0  0  0  0  0  0  0  0
  -24.6073  -19.5466   18.4727 O   0  0  0  0  0  0  0  0  0  0  0  0
  -22.7279  -29.9124   21.1413 O   0  0  0  0  0  0  0  0  0  0  0  0
  -23.4317  -32.5747   23.7126 O   0  0  0  0  0  0  0  0  0  0  0  0
  -27.9308  -33.1039   22.2988 O   0  0  0  0  0  0  0  0  0  0  0  0
  -31.5260  -16.0547   23.5893 O   0  0  0  0  0  0  0  0  0  0  0  0
  -19.6254  -13.5789   18.8654 O   0  0  0  0  0  0  0  0  0  0  0  0
  -28.3775  -26.6297   20.2407 O   0  0  0  0  0  0  0  0  0  1  0  0
  -28.6261  -22.8865   19.0372 O   0  0  0  0  0  0  0  0  0  0  0  0
  -19.5476   -8.5325   16.6447 F   0  0  0  0  0  0  0  0  0  0  0  0
  -18.2802  -13.0908   16.5001 F   0  0  0  0  0  0  0  0  0  0  0  0
  1  2  1  0  0  0  0
  1  5  2  0  0  0  0
  2  6  2  0  0  0  0
  3  8  2  0  0  0  0
  3 15  1  0  0  0  0
  4  9  1  0  0  0  0
  4 15  2  0  0  0  0
  5 17  1  0  0  0  0
  6 19  1  0  0  0  0
  7 10  2  0  0  0  0
  7 18  1  0  0  0  0
  8 21  1  0  0  0  0
  9 21  2  0  0  0  0
 10 22  1  0  0  0  0
 11 12  2  0  0  0  0
 11 23  1  0  0  0  0
 12 24  1  0  0  0  0
 13 20  1  0  0  0  0
 13 22  2  0  0  0  0
 14 24  2  0  0  0  0
 14 25  1  0  0  0  0
 15 26  1  0  0  0  0
 16 26  1  0  0  0  0
 16 27  2  0  0  0  0
 16 28  1  0  0  0  0
 17 19  2  0  0  0  0
 17 33  1  0  0  0  0
 18 20  2  0  0  0  0
 18 34  1  0  0  0  0
 19 46  1  0  0  0  0
 20 35  1  0  0  0  0
 21 82  1  0  0  0  0
 22 83  1  0  0  0  0
 23 25  2  0  0  0  0
 23 82  1  0  0  0  0
 24 85  1  0  0  0  0
 25 86  1  0  0  0  0
 26 67  2  0  0  0  0
 27 68  1  0  0  0  0
 27 71  1  0  0  0  0
 28 72  1  0  0  0  0
 28 77  2  0  0  0  0
 29 47  1  0  0  0  0
 29 73  1  0  0  0  0
 29 78  2  0  0  0  0
 30 62  1  0  0  0  0
 30 69  1  0  0  0  0
 30 79  2  0  0  0  0
 31 63  1  0  0  0  0
 31 74  1  0  0  0  0
 31 80  2  0  0  0  0
 32 70  1  0  0  0  0
 32 75  1  0  0  0  0
 32 81  2  0  0  0  0
 33 36  1  0  0  0  0
 34 47  1  0  0  0  0
 35 69  1  0  0  0  0
 36 38  1  0  0  0  0
 37 43  1  0  0  0  0
 37 44  1  0  0  0  0
 38 46  1  0  0  0  0
 39 41  1  0  0  0  0
 39 48  1  0  0  0  0
 40 42  1  0  0  0  0
 40 48  1  0  0  0  0
 41 49  1  0  0  0  0
 42 49  1  0  0  0  0
 43 50  1  0  0  0  0
 44 70  1  0  0  0  0
 45 50  1  0  0  0  0
 45 70  1  0  0  0  0
 46 73  1  0  0  0  0
 47 69  1  0  0  0  0
 48 58  1  0  0  0  0
 49 64  1  0  0  0  0
 50 68  1  0  0  0  0
 51 60  1  0  0  0  0
 52 63  1  0  0  0  0
 53 65  1  0  0  0  0
 54 66  1  0  0  0  0
 55 66  1  0  0  0  0
 56 66  1  0  0  0  0
 57 76  1  0  0  0  0
 58 59  1  0  0  0  0
 59 75  1  0  0  0  0
 60 84  1  0  0  0  0
 61 65  1  0  0  0  0
 61 83  1  0  0  0  0
 62 66  1  0  0  0  0
 62 74  1  0  0  0  0
 63 76  1  0  0  0  0
 64 65  1  0  0  0  0
 64 84  1  0  0  0  0
 67 68  1  0  0  0  0
M  CHG  1  76   1
M  ISO  4  32 100  61 101  75 100  83 101
M  END
> <Batch ID>
0040

> <Smiles>
CCOC(C1CCC(CC[100NH:0][100C:0](=O)N2CCCC(n3nc(-c4ccc(Oc5ccc(F)cc5F)cc4)c(C(N)=O)c3N)C2)CC1)C(C)[101CH2:1][101O:1]c1ccc2c(c1)CN(C(=O)C(NC(=O)C(C)NC)C(C)(C)C)C(C(=O)NC1CCCc3ccccc31)C2

> <Shape>
0.219

> <Color>
0.101

> <Negative vol penalty>
0.000

$$$$

  -OEChem-04052317073D

 83 91  0     1  0  0  0  0  0999 V2000
  -35.0360  -30.1254   13.4167 C   0  0  0  0  0  0  0  0  0  0  0  0
  -34.0346  -29.2199   13.7521 C   0  0  0  0  0  0  0  0  0  0  0  0
  -23.0744   -9.8813   19.9226 C   0  0  0  0  0  0  0  0  0  0  0  0
  -23.8537   -9.8440   22.2092 C   0  0  0  0  0  0  0  0  0  0  0  0
  -36.1608  -29.6913   12.7165 C   0  0  0  0  0  0  0  0  0  0  0  0
  -34.1568  -27.8799   13.3865 C   0  0  0  0  0  0  0  0  0  0  0  0
  -32.9260  -24.7198   17.1473 C   0  0  0  0  0  0  0  0  0  0  0  0
  -22.3352   -8.7216   20.1556 C   0  0  0  0  0  0  0  0  0  0  0  0
  -23.1144   -8.6843   22.4422 C   0  0  0  0  0  0  0  0  0  0  0  0
  -31.5681  -24.5213   17.3935 C   0  0  0  0  0  0  0  0  0  0  0  0
  -19.4010   -7.8893   21.6154 C   0  0  0  0  0  0  0  0  0  0  0  0
  -18.0902   -7.8498   21.1403 C   0  0  0  0  0  0  0  0  0  0  0  0
  -31.6568  -22.4428   16.1722 C   0  0  0  0  0  0  0  0  0  0  0  0
  -18.6428   -5.9349   19.7746 C   0  0  0  0  0  0  0  0  0  0  0  0
  -23.8337  -10.4424   20.9494 C   0  0  0  0  0  0  0  0  0  0  0  0
  -24.1692  -12.9703   20.8772 C   0  0  0  0  0  0  0  0  0  0  0  0
  -36.3014  -28.3434   12.3505 C   0  0  0  0  0  0  0  0  0  0  0  0
  -33.6582  -23.7851   16.4012 C   0  0  0  0  0  0  0  0  0  0  0  0
  -35.2839  -27.4276   12.6795 C   0  0  0  0  0  0  0  0  0  0  0  0
  -33.0244  -22.6306   15.9202 C   0  0  0  0  0  0  0  0  0  0  0  0
  -28.4099  -20.8565   20.3280 C   0  0  0  0  0  0  0  0  0  0  0  0
  -22.3551   -8.1231   21.4154 C   0  0  0  0  0  0  0  0  0  0  0  0
  -30.9326  -23.3841   16.9034 C   0  0  0  0  0  0  0  0  0  0  0  0
  -20.3328   -6.9516   21.1700 C   0  0  0  0  0  0  0  0  0  0  0  0
  -17.7110   -6.8726   20.2200 C   0  0  0  0  0  0  0  0  0  0  0  0
  -19.9537   -5.9745   20.2496 C   0  0  0  0  0  0  0  0  0  0  0  0
  -24.5981  -11.6400   20.7091 C   0  0  0  0  0  0  0  0  0  0  0  0
  -28.2246  -21.4731   19.0761 C   0  0  0  0  0  0  0  0  0  0  0  0
  -28.7141  -19.5516   20.0263 C   0  0  0  0  0  0  0  0  0  0  0  0
  -25.2566  -13.7294   20.5199 C   0  0  0  0  0  0  0  0  0  0  0  0
  -22.9012  -13.4746   21.3172 C   0  0  0  0  0  0  0  0  0  0  0  0
  -35.2534  -23.8633   13.6529 C   0  0  0  0  0  0  0  0  0  0  0  0
  -36.1023  -20.8518   14.5091 C   0  0  0  0  0  0  0  0  0  0  0  0
  -35.3906  -18.0430   16.3122 C   0  0  0  0  0  0  0  0  0  0  0  0
  -30.7395  -14.7571   20.6825 C   0  0  0  0  0  0  0  0  0  0  0  0
  -37.5130  -27.9304   11.5529 C   0  0  0  0  0  0  0  0  0  0  0  0
  -35.1283  -24.0007   16.1672 C   0  0  0  0  0  0  0  0  0  0  0  0
  -33.7702  -21.5868   15.1310 C   0  0  0  0  0  0  0  0  0  0  0  0
  -37.7418  -26.4213   11.5301 C   0  0  0  0  0  0  0  0  0  0  0  0
  -29.5868  -12.4184   18.2579 C   0  0  0  0  0  0  0  0  0  0  0  0
  -36.4374  -25.6880   11.2341 C   0  0  0  0  0  0  0  0  0  0  0  0
  -28.1537  -12.1127   18.6970 C   0  0  0  0  0  0  0  0  0  0  0  0
  -30.5136  -12.6171   19.4552 C   0  0  0  0  0  0  0  0  0  0  0  0
  -28.6222  -13.3158   20.8722 C   0  0  0  0  0  0  0  0  0  0  0  0
  -35.3918  -25.9610   12.3221 C   0  0  1  0  0  0  0  0  0  0  0  0
  -35.6590  -23.2376   14.9575 C   0  0  1  0  0  0  0  0  0  0  0  0
  -27.6384  -13.1627   19.6996 C   0  0  2  0  0  0  0  0  0  0  0  0
  -28.3018  -21.4695   21.6632 C   0  0  0  0  0  0  0  0  0  0  0  0
  -36.2496  -15.7320   16.7797 C   0  0  0  0  0  0  0  0  0  0  0  0
  -35.0831  -19.9248   11.7867 C   0  0  0  0  0  0  0  0  0  0  0  0
  -35.0769  -17.5803   12.6651 C   0  0  0  0  0  0  0  0  0  0  0  0
  -37.2187  -18.8511   12.5220 C   0  0  0  0  0  0  0  0  0  0  0  0
  -28.9504  -18.2960   17.8623 C   0  0  0  0  0  0  0  0  0  0  0  0
  -35.7133  -18.6211   19.1967 C   0  0  0  0  0  0  0  0  0  0  0  0
  -27.8704  -22.9136   18.7970 C   0  0  0  0  0  0  0  0  0  0  0  0
  -29.0160  -18.3965   20.8928 C   0  0  0  0  0  0  0  0  0  0  0  0
  -30.5202  -18.0550   21.0275 C   0  0  0  0  0  0  0  0  0  0  0  0
  -30.8113  -16.8825   21.9617 C   0  0  0  0  0  0  0  0  0  0  0  0
  -29.0773  -23.7314   18.3502 C   0  0  0  0  0  0  0  0  0  1  0  0
  -35.5232  -19.4749   14.2906 C   0  0  1  0  0  0  0  0  0  0  0  0
  -36.2505  -17.1865   17.2239 C   0  0  2  0  0  0  0  0  0  0  0  0
  -35.7107  -18.9782   12.8293 C   0  0  0  0  0  0  0  0  0  0  0  0
  -25.8595  -11.5555   20.2784 N   0  0  0  0  0  0  0  0  0  0  0  0
  -28.3970  -20.6293   18.0552 N   0  0  0  0  0  0  0  0  0  0  0  0
  -28.6938  -19.4692   18.6651 N   0  0  0  0  0  0  0  0  0  0  0  0
  -26.2326  -12.8423   20.1727 N   0  0  0  0  0  0  0  0  0  0  0  0
  -35.2045  -21.8460   14.9231 N   0  0  0  0  0  0  0  0  0  0  0  0
  -29.9684  -13.6264   20.3663 N   0  0  0  0  0  0  0  0  0  0  0  0
  -25.4635  -15.0625   20.4719 N   0  0  0  0  0  0  0  0  0  0  0  0
  -21.8941  -12.5565   21.6446 N   0  0  0  0  0  0  0  0  0  0  0  0
  -35.6722  -25.1714   13.5021 N   0  0  0  0  0  0  0  0  0  0  0  0
  -36.1311  -18.6119   15.2977 N   0  0  0  0  0  0  0  0  0  0  0  0
  -30.1456  -15.6674   21.5480 N   0  0  0  0  0  0  0  0  0  0  0  0
  -35.7443  -17.2506   18.6241 N   0  3  0  0  0  0  0  0  0  0  0  0
  -22.6628  -14.7033   21.4012 O   0  0  0  0  0  0  0  0  0  0  0  0
  -34.6095  -23.2072   12.8426 O   0  0  0  0  0  0  0  0  0  0  0  0
  -37.3081  -21.0368   14.3263 O   0  0  0  0  0  0  0  0  0  0  0  0
  -34.1820  -18.1896   16.4808 O   0  0  0  0  0  0  0  0  0  0  0  0
  -31.8712  -14.9442   20.2229 O   0  0  0  0  0  0  0  0  0  0  0  0
  -21.6337   -6.9917   21.6432 O   0  0  0  0  0  0  0  0  0  0  0  0
  -29.6072  -23.1882   17.1417 O   0  0  0  0  0  0  0  0  0  1  0  0
  -16.4518   -6.8338   19.7651 F   0  0  0  0  0  0  0  0  0  0  0  0
  -20.8441   -5.0703   19.8190 F   0  0  0  0  0  0  0  0  0  0  0  0
  1  2  1  0  0  0  0
  1  5  2  0  0  0  0
  2  6  2  0  0  0  0
  3  8  2  0  0  0  0
  3 15  1  0  0  0  0
  4  9  1  0  0  0  0
  4 15  2  0  0  0  0
  5 17  1  0  0  0  0
  6 19  1  0  0  0  0
  7 10  2  0  0  0  0
  7 18  1  0  0  0  0
  8 22  1  0  0  0  0
  9 22  2  0  0  0  0
 10 23  1  0  0  0  0
 11 12  2  0  0  0  0
 11 24  1  0  0  0  0
 12 25  1  0  0  0  0
 13 20  1  0  0  0  0
 13 23  2  0  0  0  0
 14 25  2  0  0  0  0
 14 26  1  0  0  0  0
 15 27  1  0  0  0  0
 16 27  1  0  0  0  0
 16 30  2  0  0  0  0
 16 31  1  0  0  0  0
 17 19  2  0  0  0  0
 17 36  1  0  0  0  0
 18 20  2  0  0  0  0
 18 37  1  0  0  0  0
 19 45  1  0  0  0  0
 20 38  1  0  0  0  0
 21 28  1  0  0  0  0
 21 29  2  0  0  0  0
 21 48  1  0  0  0  0
 22 80  1  0  0  0  0
 23 81  1  0  0  0  0
 24 26  2  0  0  0  0
 24 80  1  0  0  0  0
 25 82  1  0  0  0  0
 26 83  1  0  0  0  0
 27 63  2  0  0  0  0
 28 55  1  0  0  0  0
 28 64  2  0  0  0  0
 29 56  1  0  0  0  0
 29 65  1  0  0  0  0
 30 66  1  0  0  0  0
 30 69  1  0  0  0  0
 31 70  1  0  0  0  0
 31 75  2  0  0  0  0
 32 46  1  0  0  0  0
 32 71  1  0  0  0  0
 32 76  2  0  0  0  0
 33 60  1  0  0  0  0
 33 67  1  0  0  0  0
 33 77  2  0  0  0  0
 34 61  1  0  0  0  0
 34 72  1  0  0  0  0
 34 78  2  0  0  0  0
 35 68  1  0  0  0  0
 35 73  1  0  0  0  0
 35 79  2  0  0  0  0
 36 39  1  0  0  0  0
 37 46  1  0  0  0  0
 38 67  1  0  0  0  0
 39 41  1  0  0  0  0
 40 42  1  0  0  0  0
 40 43  1  0  0  0  0
 41 45  1  0  0  0  0
 42 47  1  0  0  0  0
 43 68  1  0  0  0  0
 44 47  1  0  0  0  0
 44 68  1  0  0  0  0
 45 71  1  0  0  0  0
 46 67  1  0  0  0  0
 47 66  1  0  0  0  0
 49 61  1  0  0  0  0
 50 62  1  0  0  0  0
 51 62  1  0  0  0  0
 52 62  1  0  0  0  0
 53 65  1  0  0  0  0
 54 74  1  0  0  0  0
 55 59  1  0  0  0  0
 56 57  1  0  0  0  0
 57 58  1  0  0  0  0
 58 73  1  0  0  0  0
 59 81  1  0  0  0  0
 60 62  1  0  0  0  0
 60 72  1  0  0  0  0
 61 74  1  0  0  0  0
 63 66  1  0  0  0  0
 64 65  1  0  0  0  0
M  CHG  1  74   1
M  ISO  4  35 100  59 101  73 100  81 101
M  END
> <Batch ID>
0040

> <Smiles>
CNC(C)C(=O)NC(C(=O)N1Cc2cc([101O:1][101CH2:1]Cc3nn(C)c(CCC[100NH:0][100C:0](=O)N4CCCC(n5nc(-c6ccc(Oc7ccc(F)cc7F)cc6)c(C(N)=O)c5N)C4)c3C)ccc2CC1C(=O)NC1CCCc2ccccc21)C(C)(C)C

> <Shape>
0.212

> <Color>
0.196

> <Negative vol penalty>
0.000

$$$$

  -OEChem-04052317073D

 79 87  0     1  0  0  0  0  0999 V2000
  -16.9160  -30.2986   24.1132 C   0  0  0  0  0  0  0  0  0  0  0  0
  -18.1386  -30.7125   24.6321 C   0  0  0  0  0  0  0  0  0  0  0  0
  -28.7289  -18.1521   22.9629 C   0  0  0  0  0  0  0  0  0  0  0  0
  -30.4947  -17.8946   21.3342 C   0  0  0  0  0  0  0  0  0  0  0  0
  -16.8610  -29.2072   23.2474 C   0  0  0  0  0  0  0  0  0  0  0  0
  -19.3070  -30.0345   24.2862 C   0  0  0  0  0  0  0  0  0  0  0  0
  -26.2896  -31.1635   23.1528 C   0  0  0  0  0  0  0  0  0  0  0  0
  -28.5027  -16.7760   22.9352 C   0  0  0  0  0  0  0  0  0  0  0  0
  -30.2685  -16.5184   21.3065 C   0  0  0  0  0  0  0  0  0  0  0  0
  -27.5368  -30.6844   23.5515 C   0  0  0  0  0  0  0  0  0  0  0  0
  -29.9163  -12.9837   20.5376 C   0  0  0  0  0  0  0  0  0  0  0  0
  -29.8724  -12.3588   19.2914 C   0  0  0  0  0  0  0  0  0  0  0  0
  -27.3307  -28.8618   21.9847 C   0  0  0  0  0  0  0  0  0  0  0  0
  -28.0096  -13.7593   18.6547 C   0  0  0  0  0  0  0  0  0  0  0  0
  -32.3456  -29.7109   20.0920 C   0  0  0  0  0  0  0  0  0  0  0  0
  -31.9427  -28.0446   21.4690 C   0  0  0  0  0  0  0  0  0  0  0  0
  -29.7249  -18.7114   22.1623 C   0  0  0  0  0  0  0  0  0  0  0  0
  -30.8405  -20.8330   23.0350 C   0  0  0  0  0  0  0  0  0  0  0  0
  -18.0305  -28.5214   22.8831 C   0  0  0  0  0  0  0  0  0  0  0  0
  -25.5476  -30.4880   22.1733 C   0  0  0  0  0  0  0  0  0  0  0  0
  -19.2675  -28.9320   23.4157 C   0  0  0  0  0  0  0  0  0  0  0  0
  -26.0755  -29.3358   21.5736 C   0  0  0  0  0  0  0  0  0  0  0  0
  -32.2254  -28.3095   20.1513 C   0  0  0  0  0  0  0  0  0  0  0  0
  -29.2725  -15.9592   22.1070 C   0  0  0  0  0  0  0  0  0  0  0  0
  -28.0562  -29.5317   22.9695 C   0  0  0  0  0  0  0  0  0  0  0  0
  -29.0068  -13.9963   20.8425 C   0  0  0  0  0  0  0  0  0  0  0  0
  -28.9191  -12.7466   18.3499 C   0  0  0  0  0  0  0  0  0  0  0  0
  -28.0534  -14.3842   19.9010 C   0  0  0  0  0  0  0  0  0  0  0  0
  -29.9587  -20.1329   22.1900 C   0  0  0  0  0  0  0  0  0  0  0  0
  -30.6953  -22.1487   22.6684 C   0  0  0  0  0  0  0  0  0  0  0  0
  -31.7129  -20.3384   24.0597 C   0  0  0  0  0  0  0  0  0  0  0  0
  -22.7204  -29.0368   22.1045 C   0  0  0  0  0  0  0  0  0  0  0  0
  -23.3620  -28.7876   18.9345 C   0  0  0  0  0  0  0  0  0  0  0  0
  -25.6999  -28.6988   16.4500 C   0  0  0  0  0  0  0  0  0  0  0  0
  -30.2517  -26.0848   18.7370 C   0  0  0  0  0  0  0  0  0  0  0  0
  -17.9154  -27.3181   21.9812 C   0  0  0  0  0  0  0  0  0  0  0  0
  -24.2157  -31.0327   21.7352 C   0  0  0  0  0  0  0  0  0  0  0  0
  -25.3277  -28.5852   20.5031 C   0  0  0  0  0  0  0  0  0  0  0  0
  -19.2454  -26.8861   21.3692 C   0  0  0  0  0  0  0  0  0  0  0  0
  -27.2744  -24.3757   19.6811 C   0  0  0  0  0  0  0  0  0  0  0  0
  -20.3362  -26.8485   22.4348 C   0  0  0  0  0  0  0  0  0  0  0  0
  -27.7804  -23.1746   20.4819 C   0  0  0  0  0  0  0  0  0  0  0  0
  -28.2036  -24.7091   18.5159 C   0  0  0  0  0  0  0  0  0  0  0  0
  -30.1235  -23.7026   19.6883 C   0  0  0  0  0  0  0  0  0  0  0  0
  -20.5598  -28.2376   23.0447 C   0  0  1  0  0  0  0  0  0  0  0  0
  -23.3191  -29.9766   21.0965 C   0  0  1  0  0  0  0  0  0  0  0  0
  -29.2490  -23.3629   20.9074 C   0  0  2  0  0  0  0  0  0  0  0  0
  -25.9231  -28.4475   13.9631 C   0  0  0  0  0  0  0  0  0  0  0  0
  -22.8480  -25.7912   19.1936 C   0  0  0  0  0  0  0  0  0  0  0  0
  -23.9858  -25.4757   16.9859 C   0  0  0  0  0  0  0  0  0  0  0  0
  -21.9006  -26.8374   17.1291 C   0  0  0  0  0  0  0  0  0  0  0  0
  -26.9406  -31.3716   16.1746 C   0  0  0  0  0  0  0  0  0  0  0  0
  -32.3674  -27.3437   19.0502 C   0  0  0  0  0  0  0  0  0  0  0  0
  -31.6390  -29.5013   23.5586 C   0  0  0  0  0  0  0  0  0  0  0  0
  -30.2276  -30.0225   23.8063 C   0  0  0  0  0  0  0  0  0  1  0  0
  -24.0573  -27.7713   18.0612 C   0  0  1  0  0  0  0  0  0  0  0  0
  -25.7841  -29.4252   15.1197 C   0  0  2  0  0  0  0  0  0  0  0  0
  -23.2114  -26.4818   17.8640 C   0  0  0  0  0  0  0  0  0  0  0  0
  -32.1547  -30.2954   21.2777 N   0  0  0  0  0  0  0  0  0  0  0  0
  -29.3019  -20.9372   21.3500 N   0  0  0  0  0  0  0  0  0  0  0  0
  -31.9116  -29.2562   22.0944 N   0  0  0  0  0  0  0  0  0  0  0  0
  -29.7712  -22.1564   21.6654 N   0  0  0  0  0  0  0  0  0  0  0  0
  -24.0268  -29.1539   20.1134 N   0  0  0  0  0  0  0  0  0  0  0  0
  -29.5805  -24.8766   18.9872 N   0  0  0  0  0  0  0  0  0  0  0  0
  -31.2693  -23.2882   23.1094 N   0  0  0  0  0  0  0  0  0  0  0  0
  -31.7386  -18.9590   24.3068 N   0  0  0  0  0  0  0  0  0  0  0  0
  -21.3395  -29.0637   22.1480 N   0  0  0  0  0  0  0  0  0  0  0  0
  -24.3931  -28.4612   16.8203 N   0  0  0  0  0  0  0  0  0  0  0  0
  -31.5511  -26.1629   19.2232 N   0  0  0  0  0  0  0  0  0  0  0  0
  -26.9588  -30.3422   15.1036 N   0  3  0  0  0  0  0  0  0  0  0  0
  -32.4357  -21.0988   24.7473 O   0  0  0  0  0  0  0  0  0  0  0  0
  -23.4567  -28.3380   22.7909 O   0  0  0  0  0  0  0  0  0  0  0  0
  -22.2726  -29.2451   18.5802 O   0  0  0  0  0  0  0  0  0  0  0  0
  -26.6940  -28.3714   17.0943 O   0  0  0  0  0  0  0  0  0  0  0  0
  -29.7298  -27.0263   18.1303 O   0  0  0  0  0  0  0  0  0  0  0  0
  -29.0521  -14.6163   22.0799 O   0  0  0  0  0  0  0  0  0  0  0  0
  -29.2730  -29.0616   23.3572 O   0  0  0  0  0  0  0  0  0  1  0  0
  -28.8780  -12.1475   17.1526 F   0  0  0  0  0  0  0  0  0  0  0  0
  -27.1778  -15.3573   20.1877 F   0  0  0  0  0  0  0  0  0  0  0  0
  1  2  1  0  0  0  0
  1  5  2  0  0  0  0
  2  6  2  0  0  0  0
  3  8  2  0  0  0  0
  3 17  1  0  0  0  0
  4  9  1  0  0  0  0
  4 17  2  0  0  0  0
  5 19  1  0  0  0  0
  6 21  1  0  0  0  0
  7 10  2  0  0  0  0
  7 20  1  0  0  0  0
  8 24  1  0  0  0  0
  9 24  2  0  0  0  0
 10 25  1  0  0  0  0
 11 12  2  0  0  0  0
 11 26  1  0  0  0  0
 12 27  1  0  0  0  0
 13 22  1  0  0  0  0
 13 25  2  0  0  0  0
 14 27  2  0  0  0  0
 14 28  1  0  0  0  0
 15 23  1  0  0  0  0
 15 59  2  0  0  0  0
 16 23  2  0  0  0  0
 16 61  1  0  0  0  0
 17 29  1  0  0  0  0
 18 29  1  0  0  0  0
 18 30  2  0  0  0  0
 18 31  1  0  0  0  0
 19 21  2  0  0  0  0
 19 36  1  0  0  0  0
 20 22  2  0  0  0  0
 20 37  1  0  0  0  0
 21 45  1  0  0  0  0
 22 38  1  0  0  0  0
 23 53  1  0  0  0  0
 24 76  1  0  0  0  0
 25 77  1  0  0  0  0
 26 28  2  0  0  0  0
 26 76  1  0  0  0  0
 27 78  1  0  0  0  0
 28 79  1  0  0  0  0
 29 60  2  0  0  0  0
 30 62  1  0  0  0  0
 30 65  1  0  0  0  0
 31 66  1  0  0  0  0
 31 71  2  0  0  0  0
 32 46  1  0  0  0  0
 32 67  1  0  0  0  0
 32 72  2  0  0  0  0
 33 56  1  0  0  0  0
 33 63  1  0  0  0  0
 33 73  2  0  0  0  0
 34 57  1  0  0  0  0
 34 68  1  0  0  0  0
 34 74  2  0  0  0  0
 35 64  1  0  0  0  0
 35 69  1  0  0  0  0
 35 75  2  0  0  0  0
 36 39  1  0  0  0  0
 37 46  1  0  0  0  0
 38 63  1  0  0  0  0
 39 41  1  0  0  0  0
 40 42  1  0  0  0  0
 40 43  1  0  0  0  0
 41 45  1  0  0  0  0
 42 47  1  0  0  0  0
 43 64  1  0  0  0  0
 44 47  1  0  0  0  0
 44 64  1  0  0  0  0
 45 67  1  0  0  0  0
 46 63  1  0  0  0  0
 47 62  1  0  0  0  0
 48 57  1  0  0  0  0
 49 58  1  0  0  0  0
 50 58  1  0  0  0  0
 51 58  1  0  0  0  0
 52 70  1  0  0  0  0
 53 69  1  0  0  0  0
 54 55  1  0  0  0  0
 54 61  1  0  0  0  0
 55 77  1  0  0  0  0
 56 58  1  0  0  0  0
 56 68  1  0  0  0  0
 57 70  1  0  0  0  0
 59 61  1  0  0  0  0
 60 62  1  0  0  0  0
M  CHG  1  70   1
M  ISO  4  35 100  55 101  69 100  77 101
M  END
> <Batch ID>
0040

> <Smiles>
CNC(C)C(=O)NC(C(=O)N1Cc2cc([101O:1][101CH2:1]Cn3cc(C[100NH:0][100C:0](=O)N4CCCC(n5nc(-c6ccc(Oc7ccc(F)cc7F)cc6)c(C(N)=O)c5N)C4)cn3)ccc2CC1C(=O)NC1CCCc2ccccc21)C(C)(C)C

> <Shape>
0.280

> <Color>
0.098

> <Negative vol penalty>
0.000

$$$$

  -OEChem-04052317073D

 86 94  0     1  0  0  0  0  0999 V2000
  -18.9611  -28.4671   21.4780 C   0  0  0  0  0  0  0  0  0  0  0  0
  -20.3294  -28.2202   21.5235 C   0  0  0  0  0  0  0  0  0  0  0  0
  -26.8035  -12.6201   21.7344 C   0  0  0  0  0  0  0  0  0  0  0  0
  -26.1226  -14.0650   19.9218 C   0  0  0  0  0  0  0  0  0  0  0  0
  -18.1076  -27.8229   22.3727 C   0  0  0  0  0  0  0  0  0  0  0  0
  -20.8452  -27.3297   22.4645 C   0  0  0  0  0  0  0  0  0  0  0  0
  -24.2528  -24.1568   20.4731 C   0  0  0  0  0  0  0  0  0  0  0  0
  -25.5112  -12.1000   21.8054 C   0  0  0  0  0  0  0  0  0  0  0  0
  -24.8303  -13.5450   19.9927 C   0  0  0  0  0  0  0  0  0  0  0  0
  -25.5357  -24.6564   20.2533 C   0  0  0  0  0  0  0  0  0  0  0  0
  -22.4825  -10.1335   22.2234 C   0  0  0  0  0  0  0  0  0  0  0  0
  -22.3455   -8.7501   22.3375 C   0  0  0  0  0  0  0  0  0  0  0  0
  -26.2888  -23.6005   22.2873 C   0  0  0  0  0  0  0  0  0  0  0  0
  -32.7397  -25.8609   20.9572 C   0  0  0  0  0  0  0  0  0  0  0  0
  -23.4987   -8.4625   20.2341 C   0  0  0  0  0  0  0  0  0  0  0  0
  -27.1092  -13.6026   20.7927 C   0  0  0  0  0  0  0  0  0  0  0  0
  -29.5115  -13.6620   19.9364 C   0  0  0  0  0  0  0  0  0  0  0  0
  -18.6120  -26.9168   23.3188 C   0  0  0  0  0  0  0  0  0  0  0  0
  -23.9752  -23.3831   21.6093 C   0  0  0  0  0  0  0  0  0  0  0  0
  -19.9978  -26.6739   23.3736 C   0  0  0  0  0  0  0  0  0  0  0  0
  -25.0021  -23.0902   22.5179 C   0  0  0  0  0  0  0  0  0  0  0  0
  -32.7165  -24.7477   20.1245 C   0  0  0  0  0  0  0  0  0  0  0  0
  -31.5705  -26.5796   21.1805 C   0  0  0  0  0  0  0  0  0  0  0  0
  -24.5246  -12.5624   20.9345 C   0  0  0  0  0  0  0  0  0  0  0  0
  -26.5533  -24.3807   21.1620 C   0  0  0  0  0  0  0  0  0  0  0  0
  -23.1276  -10.6814   21.1147 C   0  0  0  0  0  0  0  0  0  0  0  0
  -22.8536   -7.9146   21.3428 C   0  0  0  0  0  0  0  0  0  0  0  0
  -23.6357   -9.8459   20.1200 C   0  0  0  0  0  0  0  0  0  0  0  0
  -28.4439  -14.1406   20.7193 C   0  0  0  0  0  0  0  0  0  0  0  0
  -31.5083  -24.3974   19.5436 C   0  0  0  0  0  0  0  0  0  0  0  0
  -30.4137  -26.1474   20.5522 C   0  0  0  0  0  0  0  0  0  0  0  0
  -30.5532  -14.5109   20.2207 C   0  0  0  0  0  0  0  0  0  0  0  0
  -29.5575  -12.5496   19.0330 C   0  0  0  0  0  0  0  0  0  0  0  0
  -22.0556  -23.6979   24.1232 C   0  0  0  0  0  0  0  0  0  0  0  0
  -23.0722  -20.6895   24.7852 C   0  0  0  0  0  0  0  0  0  0  0  0
  -25.4742  -18.2945   24.4092 C   0  0  0  0  0  0  0  0  0  0  0  0
  -30.7881  -20.1659   22.1743 C   0  0  0  0  0  0  0  0  0  0  0  0
  -17.6558  -26.2804   24.2962 C   0  0  0  0  0  0  0  0  0  0  0  0
  -22.5924  -22.8294   21.8181 C   0  0  0  0  0  0  0  0  0  0  0  0
  -24.7608  -22.2475   23.7427 C   0  0  0  0  0  0  0  0  0  0  0  0
  -18.2386  -25.0671   25.0163 C   0  0  0  0  0  0  0  0  0  0  0  0
  -32.2593  -17.3086   23.7068 C   0  0  0  0  0  0  0  0  0  0  0  0
  -19.6441  -25.3722   25.5245 C   0  0  0  0  0  0  0  0  0  0  0  0
  -31.5446  -16.1295   23.0443 C   0  0  0  0  0  0  0  0  0  0  0  0
  -31.3172  -18.4912   23.9213 C   0  0  0  0  0  0  0  0  0  0  0  0
  -29.8894  -17.7631   22.0492 C   0  0  0  0  0  0  0  0  0  0  0  0
  -20.5924  -25.6959   24.3636 C   0  0  1  0  0  0  0  0  0  0  0  0
  -22.3014  -22.4823   23.2749 C   0  0  1  0  0  0  0  0  0  0  0  0
  -30.8124  -16.5667   21.7613 C   0  0  2  0  0  0  0  0  0  0  0  0
  -33.9656  -23.9734   19.8813 C   0  0  0  0  0  0  0  0  0  0  0  0
  -31.6761  -28.6058   24.4651 C   0  0  0  0  0  0  0  0  0  0  0  0
  -26.5659  -16.0425   24.5934 C   0  0  0  0  0  0  0  0  0  0  0  0
  -23.8542  -21.6980   27.5567 C   0  0  0  0  0  0  0  0  0  0  0  0
  -25.2439  -19.6347   27.8391 C   0  0  0  0  0  0  0  0  0  0  0  0
  -22.7756  -19.4418   27.5336 C   0  0  0  0  0  0  0  0  0  0  0  0
  -24.2256  -17.3549   21.8958 C   0  0  0  0  0  0  0  0  0  0  0  0
  -31.5887  -27.7735   22.0714 C   0  0  0  0  0  0  0  0  0  0  0  0
  -31.4230  -23.2117   18.6392 C   0  0  0  0  0  0  0  0  0  0  0  0
  -29.1150  -26.8882   20.7592 C   0  0  0  0  0  0  0  0  0  0  0  0
  -31.6227  -27.3864   23.5584 C   0  0  0  0  0  0  0  0  0  0  0  0
  -31.3548  -21.8576   19.3707 C   0  0  0  0  0  0  0  0  0  0  0  0
  -30.1827  -21.7249   20.3408 C   0  0  0  0  0  0  0  0  0  0  0  0
  -27.9121  -26.1042   20.2460 C   0  0  0  0  0  0  0  0  0  1  0  0
  -24.2208  -20.0965   25.5651 C   0  0  1  0  0  0  0  0  0  0  0  0
  -25.3818  -16.8237   24.0452 C   0  0  2  0  0  0  0  0  0  0  0  0
  -24.0280  -20.2353   27.1016 C   0  0  0  0  0  0  0  0  0  0  0  0
  -28.7767  -15.2104   21.4464 N   0  0  0  0  0  0  0  0  0  0  0  0
  -30.3522  -25.0709   19.7367 N   0  0  0  0  0  0  0  0  0  0  0  0
  -30.0653  -15.4110   21.1217 N   0  0  0  0  0  0  0  0  0  0  0  0
  -23.3906  -21.7343   23.9061 N   0  0  0  0  0  0  0  0  0  0  0  0
  -30.6560  -18.8569   22.6664 N   0  0  0  0  0  0  0  0  0  0  0  0
  -31.8298  -14.5675   19.7854 N   0  0  0  0  0  0  0  0  0  0  0  0
  -28.3976  -11.7825   18.8582 N   0  0  0  0  0  0  0  0  0  0  0  0
  -21.0020  -24.4812   23.6919 N   0  0  0  0  0  0  0  0  0  0  0  0
  -24.3608  -18.7200   25.1024 N   0  0  0  0  0  0  0  0  0  0  0  0
  -30.1350  -20.4268   20.9760 N   0  0  0  0  0  0  0  0  0  0  0  0
  -25.3540  -16.6573   22.5644 N   0  3  0  0  0  0  0  0  0  0  0  0
  -30.6010  -12.2350   18.4120 O   0  0  0  0  0  0  0  0  0  0  0  0
  -22.7680  -23.9087   25.0977 O   0  0  0  0  0  0  0  0  0  0  0  0
  -21.9357  -20.2374   24.9447 O   0  0  0  0  0  0  0  0  0  0  0  0
  -26.4394  -18.9950   24.1118 O   0  0  0  0  0  0  0  0  0  0  0  0
  -31.4443  -21.0359   22.7569 O   0  0  0  0  0  0  0  0  0  0  0  0
  -23.2635  -12.0550   21.0033 O   0  0  0  0  0  0  0  0  0  0  0  0
  -27.8063  -24.8676   20.9502 O   0  0  0  0  0  0  0  0  0  1  0  0
  -22.7234   -6.5861   21.4533 F   0  0  0  0  0  0  0  0  0  0  0  0
  -24.2575  -10.3664   19.0531 F   0  0  0  0  0  0  0  0  0  0  0  0
  1  2  1  0  0  0  0
  1  5  2  0  0  0  0
  2  6  2  0  0  0  0
  3  8  2  0  0  0  0
  3 16  1  0  0  0  0
  4  9  1  0  0  0  0
  4 16  2  0  0  0  0
  5 18  1  0  0  0  0
  6 20  1  0  0  0  0
  7 10  2  0  0  0  0
  7 19  1  0  0  0  0
  8 24  1  0  0  0  0
  9 24  2  0  0  0  0
 10 25  1  0  0  0  0
 11 12  2  0  0  0  0
 11 26  1  0  0  0  0
 12 27  1  0  0  0  0
 13 21  1  0  0  0  0
 13 25  2  0  0  0  0
 14 22  2  0  0  0  0
 14 23  1  0  0  0  0
 15 27  2  0  0  0  0
 15 28  1  0  0  0  0
 16 29  1  0  0  0  0
 17 29  1  0  0  0  0
 17 32  2  0  0  0  0
 17 33  1  0  0  0  0
 18 20  2  0  0  0  0
 18 38  1  0  0  0  0
 19 21  2  0  0  0  0
 19 39  1  0  0  0  0
 20 47  1  0  0  0  0
 21 40  1  0  0  0  0
 22 30  1  0  0  0  0
 22 50  1  0  0  0  0
 23 31  2  0  0  0  0
 23 57  1  0  0  0  0
 24 83  1  0  0  0  0
 25 84  1  0  0  0  0
 26 28  2  0  0  0  0
 26 83  1  0  0  0  0
 27 85  1  0  0  0  0
 28 86  1  0  0  0  0
 29 67  2  0  0  0  0
 30 58  1  0  0  0  0
 30 68  2  0  0  0  0
 31 59  1  0  0  0  0
 31 68  1  0  0  0  0
 32 69  1  0  0  0  0
 32 72  1  0  0  0  0
 33 73  1  0  0  0  0
 33 78  2  0  0  0  0
 34 48  1  0  0  0  0
 34 74  1  0  0  0  0
 34 79  2  0  0  0  0
 35 64  1  0  0  0  0
 35 70  1  0  0  0  0
 35 80  2  0  0  0  0
 36 65  1  0  0  0  0
 36 75  1  0  0  0  0
 36 81  2  0  0  0  0
 37 71  1  0  0  0  0
 37 76  1  0  0  0  0
 37 82  2  0  0  0  0
 38 41  1  0  0  0  0
 39 48  1  0  0  0  0
 40 70  1  0  0  0  0
 41 43  1  0  0  0  0
 42 44  1  0  0  0  0
 42 45  1  0  0  0  0
 43 47  1  0  0  0  0
 44 49  1  0  0  0  0
 45 71  1  0  0  0  0
 46 49  1  0  0  0  0
 46 71  1  0  0  0  0
 47 74  1  0  0  0  0
 48 70  1  0  0  0  0
 49 69  1  0  0  0  0
 51 60  1  0  0  0  0
 52 65  1  0  0  0  0
 53 66  1  0  0  0  0
 54 66  1  0  0  0  0
 55 66  1  0  0  0  0
 56 77  1  0  0  0  0
 57 60  1  0  0  0  0
 58 61  1  0  0  0  0
 59 63  1  0  0  0  0
 61 62  1  0  0  0  0
 62 76  1  0  0  0  0
 63 84  1  0  0  0  0
 64 66  1  0  0  0  0
 64 75  1  0  0  0  0
 65 77  1  0  0  0  0
 67 69  1  0  0  0  0
M  CHG  1  77   1
M  ISO  4  37 100  63 101  76 100  84 101
M  END
> <Batch ID>
0040

> <Smiles>
CCCc1cc(C)c(CCC[100NH:0][100C:0](=O)N2CCCC(n3nc(-c4ccc(Oc5ccc(F)cc5F)cc4)c(C(N)=O)c3N)C2)nc1C[101CH2:1][101O:1]c1ccc2c(c1)CN(C(=O)C(NC(=O)C(C)NC)C(C)(C)C)C(C(=O)NC1CCCc3ccccc31)C2

> <Shape>
0.213

> <Color>
0.080

> <Negative vol penalty>
0.000

$$$$

  -OEChem-04052317073D

 81 89  0     1  0  0  0  0  0999 V2000
  -20.2882  -21.4941   25.0328 C   0  0  0  0  0  0  0  0  0  0  0  0
  -21.6518  -21.2669   24.8769 C   0  0  0  0  0  0  0  0  0  0  0  0
  -24.2869  -13.9267   20.8881 C   0  0  0  0  0  0  0  0  0  0  0  0
  -26.4869  -13.5346   19.9699 C   0  0  0  0  0  0  0  0  0  0  0  0
  -19.6373  -22.4130   24.2107 C   0  0  0  0  0  0  0  0  0  0  0  0
  -22.3652  -21.9578   23.8981 C   0  0  0  0  0  0  0  0  0  0  0  0
  -28.8510  -24.7177   22.6201 C   0  0  0  0  0  0  0  0  0  0  0  0
  -23.9196  -12.6202   20.5660 C   0  0  0  0  0  0  0  0  0  0  0  0
  -26.1197  -12.2281   19.6478 C   0  0  0  0  0  0  0  0  0  0  0  0
  -29.8617  -24.6936   21.6600 C   0  0  0  0  0  0  0  0  0  0  0  0
  -24.3859   -9.5184   21.8287 C   0  0  0  0  0  0  0  0  0  0  0  0
  -23.6999   -8.7812   22.7938 C   0  0  0  0  0  0  0  0  0  0  0  0
  -28.6481  -26.3156   20.3503 C   0  0  0  0  0  0  0  0  0  0  0  0
  -21.8332   -8.5359   21.2798 C   0  0  0  0  0  0  0  0  0  0  0  0
  -32.2186  -22.9492   18.3517 C   0  0  0  0  0  0  0  0  0  0  0  0
  -25.5705  -14.3839   20.5900 C   0  0  0  0  0  0  0  0  0  0  0  0
  -26.5317  -16.1821   22.1231 C   0  0  0  0  0  0  0  0  0  0  0  0
  -20.3450  -23.1227   23.2277 C   0  0  0  0  0  0  0  0  0  0  0  0
  -27.7242  -25.5342   22.4468 C   0  0  0  0  0  0  0  0  0  0  0  0
  -21.7229  -22.8861   23.0612 C   0  0  0  0  0  0  0  0  0  0  0  0
  -27.6257  -26.3502   21.3108 C   0  0  0  0  0  0  0  0  0  0  0  0
  -24.8360  -11.7709   19.9458 C   0  0  0  0  0  0  0  0  0  0  0  0
  -29.7590  -25.4904   20.5235 C   0  0  0  0  0  0  0  0  0  0  0  0
  -23.7954   -9.7644   20.5891 C   0  0  0  0  0  0  0  0  0  0  0  0
  -22.4236   -8.2899   22.5194 C   0  0  0  0  0  0  0  0  0  0  0  0
  -22.5191   -9.2731   20.3146 C   0  0  0  0  0  0  0  0  0  0  0  0
  -25.9503  -15.7336   20.9220 C   0  0  0  0  0  0  0  0  0  0  0  0
  -31.3469  -23.5378   17.4622 C   0  0  0  0  0  0  0  0  0  0  0  0
  -31.3942  -20.8896   17.7970 C   0  0  0  0  0  0  0  0  0  0  0  0
  -30.5219  -21.4781   16.9080 C   0  0  0  0  0  0  0  0  0  0  0  0
  -26.6974  -17.5333   21.9408 C   0  0  0  0  0  0  0  0  0  0  0  0
  -26.8901  -15.4433   23.2985 C   0  0  0  0  0  0  0  0  0  0  0  0
  -24.6023  -25.0151   22.1502 C   0  0  0  0  0  0  0  0  0  0  0  0
  -24.4483  -28.2532   22.2651 C   0  0  0  0  0  0  0  0  0  0  0  0
  -26.0168  -31.2469   21.7914 C   0  0  0  0  0  0  0  0  0  0  0  0
  -27.2991  -20.9454   17.0575 C   0  0  0  0  0  0  0  0  0  0  0  0
  -19.5889  -24.0712   22.3314 C   0  0  0  0  0  0  0  0  0  0  0  0
  -26.6553  -25.5688   23.5046 C   0  0  0  0  0  0  0  0  0  0  0  0
  -26.4460  -27.2595   21.0874 C   0  0  0  0  0  0  0  0  0  0  0  0
  -20.4911  -25.0371   21.5677 C   0  0  0  0  0  0  0  0  0  0  0  0
  -24.8170  -21.2530   19.5915 C   0  0  0  0  0  0  0  0  0  0  0  0
  -21.6679  -24.2910   20.9471 C   0  0  0  0  0  0  0  0  0  0  0  0
  -24.8785  -19.9138   20.3282 C   0  0  0  0  0  0  0  0  0  0  0  0
  -25.0527  -21.0837   18.0923 C   0  0  0  0  0  0  0  0  0  0  0  0
  -26.3511  -19.0241   18.4739 C   0  0  0  0  0  0  0  0  0  0  0  0
  -22.5361  -23.6343   22.0272 C   0  0  1  0  0  0  0  0  0  0  0  0
  -25.3081  -26.0524   22.9770 C   0  0  1  0  0  0  0  0  0  0  0  0
  -26.1750  -19.1505   19.9969 C   0  0  2  0  0  0  0  0  0  0  0  0
  -31.4274  -19.4120   17.9906 C   0  0  0  0  0  0  0  0  0  0  0  0
  -25.6226  -33.7213   21.9314 C   0  0  0  0  0  0  0  0  0  0  0  0
  -22.8610  -28.1452   19.6615 C   0  0  0  0  0  0  0  0  0  0  0  0
  -23.3183  -30.5886   19.3627 C   0  0  0  0  0  0  0  0  0  0  0  0
  -22.0101  -29.7983   21.3342 C   0  0  0  0  0  0  0  0  0  0  0  0
  -28.1260  -31.5842   23.8399 C   0  0  0  0  0  0  0  0  0  0  0  0
  -31.3319  -25.0363   17.2825 C   0  0  0  0  0  0  0  0  0  0  0  0
  -29.5708  -20.6646   16.0985 C   0  0  0  0  0  0  0  0  0  0  0  0
  -30.3597  -25.7247   18.2344 C   0  0  0  0  0  0  0  0  0  1  0  0
  -24.4989  -29.3629   21.2428 C   0  0  1  0  0  0  0  0  0  0  0  0
  -26.1126  -32.4835   22.6666 C   0  0  2  0  0  0  0  0  0  0  0  0
  -23.1935  -29.4553   20.4033 C   0  0  0  0  0  0  0  0  0  0  0  0
  -32.2579  -21.6145   18.5351 N   0  0  0  0  0  0  0  0  0  0  0  0
  -25.7593  -16.7199   20.0418 N   0  0  0  0  0  0  0  0  0  0  0  0
  -30.4828  -22.8127   16.7244 N   0  0  0  0  0  0  0  0  0  0  0  0
  -26.2233  -17.8016   20.6905 N   0  0  0  0  0  0  0  0  0  0  0  0
  -25.4241  -27.2533   22.1472 N   0  0  0  0  0  0  0  0  0  0  0  0
  -26.2986  -20.3537   17.8462 N   0  0  0  0  0  0  0  0  0  0  0  0
  -27.2008  -18.5062   22.7298 N   0  0  0  0  0  0  0  0  0  0  0  0
  -26.6515  -14.0624   23.3182 N   0  0  0  0  0  0  0  0  0  0  0  0
  -23.3819  -24.6206   22.6646 N   0  0  0  0  0  0  0  0  0  0  0  0
  -24.8242  -30.5805   21.9777 N   0  0  0  0  0  0  0  0  0  0  0  0
  -28.4507  -20.1885   16.8792 N   0  0  0  0  0  0  0  0  0  0  0  0
  -27.5243  -32.7136   23.0853 N   0  3  0  0  0  0  0  0  0  0  0  0
  -27.3916  -15.9942   24.3077 O   0  0  0  0  0  0  0  0  0  0  0  0
  -25.1254  -24.6042   21.1211 O   0  0  0  0  0  0  0  0  0  0  0  0
  -23.5795  -28.2766   23.1405 O   0  0  0  0  0  0  0  0  0  0  0  0
  -26.9090  -30.9083   21.0168 O   0  0  0  0  0  0  0  0  0  0  0  0
  -27.1774  -22.0674   16.5543 O   0  0  0  0  0  0  0  0  0  0  0  0
  -24.4780  -10.4959   19.6316 O   0  0  0  0  0  0  0  0  0  0  0  0
  -30.7438  -25.4682   19.5846 O   0  0  0  0  0  0  0  0  0  1  0  0
  -21.7657   -7.5806   23.4458 F   0  0  0  0  0  0  0  0  0  0  0  0
  -21.9473   -9.5053   19.1252 F   0  0  0  0  0  0  0  0  0  0  0  0
  1  2  1  0  0  0  0
  1  5  2  0  0  0  0
  2  6  2  0  0  0  0
  3  8  2  0  0  0  0
  3 16  1  0  0  0  0
  4  9  1  0  0  0  0
  4 16  2  0  0  0  0
  5 18  1  0  0  0  0
  6 20  1  0  0  0  0
  7 10  2  0  0  0  0
  7 19  1  0  0  0  0
  8 22  1  0  0  0  0
  9 22  2  0  0  0  0
 10 23  1  0  0  0  0
 11 12  2  0  0  0  0
 11 24  1  0  0  0  0
 12 25  1  0  0  0  0
 13 21  1  0  0  0  0
 13 23  2  0  0  0  0
 14 25  2  0  0  0  0
 14 26  1  0  0  0  0
 15 28  1  0  0  0  0
 15 61  2  0  0  0  0
 16 27  1  0  0  0  0
 17 27  1  0  0  0  0
 17 31  2  0  0  0  0
 17 32  1  0  0  0  0
 18 20  2  0  0  0  0
 18 37  1  0  0  0  0
 19 21  2  0  0  0  0
 19 38  1  0  0  0  0
 20 46  1  0  0  0  0
 21 39  1  0  0  0  0
 22 78  1  0  0  0  0
 23 79  1  0  0  0  0
 24 26  2  0  0  0  0
 24 78  1  0  0  0  0
 25 80  1  0  0  0  0
 26 81  1  0  0  0  0
 27 62  2  0  0  0  0
 28 55  1  0  0  0  0
 28 63  2  0  0  0  0
 29 30  2  0  0  0  0
 29 49  1  0  0  0  0
 29 61  1  0  0  0  0
 30 56  1  0  0  0  0
 30 63  1  0  0  0  0
 31 64  1  0  0  0  0
 31 67  1  0  0  0  0
 32 68  1  0  0  0  0
 32 73  2  0  0  0  0
 33 47  1  0  0  0  0
 33 69  1  0  0  0  0
 33 74  2  0  0  0  0
 34 58  1  0  0  0  0
 34 65  1  0  0  0  0
 34 75  2  0  0  0  0
 35 59  1  0  0  0  0
 35 70  1  0  0  0  0
 35 76  2  0  0  0  0
 36 66  1  0  0  0  0
 36 71  1  0  0  0  0
 36 77  2  0  0  0  0
 37 40  1  0  0  0  0
 38 47  1  0  0  0  0
 39 65  1  0  0  0  0
 40 42  1  0  0  0  0
 41 43  1  0  0  0  0
 41 44  1  0  0  0  0
 42 46  1  0  0  0  0
 43 48  1  0  0  0  0
 44 66  1  0  0  0  0
 45 48  1  0  0  0  0
 45 66  1  0  0  0  0
 46 69  1  0  0  0  0
 47 65  1  0  0  0  0
 48 64  1  0  0  0  0
 50 59  1  0  0  0  0
 51 60  1  0  0  0  0
 52 60  1  0  0  0  0
 53 60  1  0  0  0  0
 54 72  1  0  0  0  0
 55 57  1  0  0  0  0
 56 71  1  0  0  0  0
 57 79  1  0  0  0  0
 58 60  1  0  0  0  0
 58 70  1  0  0  0  0
 59 72  1  0  0  0  0
 62 64  1  0  0  0  0
M  CHG  1  72   1
M  ISO  4  36 100  57 101  71 100  79 101
M  END
> <Batch ID>
0040

> <Smiles>
CNC(C)C(=O)NC(C(=O)N1Cc2cc([101O:1][101CH2:1]Cc3cnc(C)c(C[100NH:0][100C:0](=O)N4CCCC(n5nc(-c6ccc(Oc7ccc(F)cc7F)cc6)c(C(N)=O)c5N)C4)n3)ccc2CC1C(=O)NC1CCCc2ccccc21)C(C)(C)C

> <Shape>
0.196

> <Color>
0.063

> <Negative vol penalty>
0.000

$$$$

  -OEChem-04052317073D

 87 95  0     1  0  0  0  0  0999 V2000
  -16.9332  -25.8388   23.1084 C   0  0  0  0  0  0  0  0  0  0  0  0
  -17.9505  -25.8080   22.1599 C   0  0  0  0  0  0  0  0  0  0  0  0
  -27.0183  -16.1177   21.7973 C   0  0  0  0  0  0  0  0  0  0  0  0
  -25.0577  -17.3496   21.1074 C   0  0  0  0  0  0  0  0  0  0  0  0
  -16.6370  -27.0282   23.7728 C   0  0  0  0  0  0  0  0  0  0  0  0
  -18.6715  -26.9669   21.8746 C   0  0  0  0  0  0  0  0  0  0  0  0
  -23.6595  -26.1349   21.6051 C   0  0  0  0  0  0  0  0  0  0  0  0
  -26.2556  -14.9532   21.8855 C   0  0  0  0  0  0  0  0  0  0  0  0
  -24.2950  -16.1850   21.1955 C   0  0  0  0  0  0  0  0  0  0  0  0
  -24.1457  -25.5531   20.4351 C   0  0  0  0  0  0  0  0  0  0  0  0
  -24.9001  -11.5806   21.9436 C   0  0  0  0  0  0  0  0  0  0  0  0
  -25.4348  -10.4125   21.4003 C   0  0  0  0  0  0  0  0  0  0  0  0
  -24.8398  -27.7259   19.6501 C   0  0  0  0  0  0  0  0  0  0  0  0
  -25.5289  -11.4660   19.2281 C   0  0  0  0  0  0  0  0  0  0  0  0
  -30.0541  -26.7088   17.7652 C   0  0  0  0  0  0  0  0  0  0  0  0
  -26.4193  -17.3160   21.4083 C   0  0  0  0  0  0  0  0  0  0  0  0
  -27.9028  -18.9969   20.1911 C   0  0  0  0  0  0  0  0  0  0  0  0
  -17.3612  -28.2000   23.5025 C   0  0  0  0  0  0  0  0  0  0  0  0
  -23.7502  -27.5204   21.8019 C   0  0  0  0  0  0  0  0  0  0  0  0
  -18.3838  -28.1735   22.5351 C   0  0  0  0  0  0  0  0  0  0  0  0
  -24.3563  -28.3226   20.8246 C   0  0  0  0  0  0  0  0  0  0  0  0
  -24.8940  -14.9868   21.5846 C   0  0  0  0  0  0  0  0  0  0  0  0
  -24.7333  -26.3490   19.4561 C   0  0  0  0  0  0  0  0  0  0  0  0
  -24.6797  -12.6914   21.1292 C   0  0  0  0  0  0  0  0  0  0  0  0
  -25.7493  -10.3552   20.0426 C   0  0  0  0  0  0  0  0  0  0  0  0
  -24.9941  -12.6341   19.7714 C   0  0  0  0  0  0  0  0  0  0  0  0
  -27.2065  -18.5194   21.3176 C   0  0  0  0  0  0  0  0  0  0  0  0
  -29.6560  -25.8690   18.7819 C   0  0  0  0  0  0  0  0  0  0  0  0
  -28.3344  -25.9485   16.4637 C   0  0  0  0  0  0  0  0  0  0  0  0
  -27.9366  -25.1081   17.4801 C   0  0  0  0  0  0  0  0  0  0  0  0
  -28.4857  -20.1651   20.6175 C   0  0  0  0  0  0  0  0  0  0  0  0
  -28.0127  -18.4347   18.8768 C   0  0  0  0  0  0  0  0  0  0  0  0
  -21.6487  -29.8714   22.2024 C   0  0  0  0  0  0  0  0  0  0  0  0
  -24.3161  -31.6419   22.7244 C   0  0  0  0  0  0  0  0  0  0  0  0
  -27.6707  -32.0391   22.2388 C   0  0  0  0  0  0  0  0  0  0  0  0
  -28.2203  -25.0181   23.3603 C   0  0  0  0  0  0  0  0  0  0  0  0
  -16.9732  -29.4731   24.2120 C   0  0  0  0  0  0  0  0  0  0  0  0
  -23.2451  -28.1292   23.0812 C   0  0  0  0  0  0  0  0  0  0  0  0
  -24.4963  -29.8123   20.9964 C   0  0  0  0  0  0  0  0  0  0  0  0
  -18.0334  -30.5677   24.1224 C   0  0  0  0  0  0  0  0  0  0  0  0
  -28.9593  -22.1028   25.2659 C   0  0  0  0  0  0  0  0  0  0  0  0
  -18.5418  -30.7026   22.6906 C   0  0  0  0  0  0  0  0  0  0  0  0
  -28.6208  -20.9508   24.3182 C   0  0  0  0  0  0  0  0  0  0  0  0
  -27.9904  -23.2717   25.1021 C   0  0  0  0  0  0  0  0  0  0  0  0
  -27.5127  -22.6199   22.7738 C   0  0  0  0  0  0  0  0  0  0  0  0
  -19.2049  -29.4040   22.2159 C   0  0  1  0  0  0  0  0  0  0  0  0
  -22.9263  -29.6154   22.9506 C   0  0  1  0  0  0  0  0  0  0  0  0
  -28.4960  -21.4402   22.8628 C   0  0  2  0  0  0  0  0  0  0  0  0
  -26.9640  -23.8983   10.5855 C   0  0  0  0  0  0  0  0  0  0  0  0
  -29.5641  -33.6033   22.7542 C   0  0  0  0  0  0  0  0  0  0  0  0
  -23.3073  -33.5653   20.5813 C   0  0  0  0  0  0  0  0  0  0  0  0
  -25.6122  -34.5361   20.4664 C   0  0  0  0  0  0  0  0  0  0  0  0
  -24.3080  -34.6717   22.5885 C   0  0  0  0  0  0  0  0  0  0  0  0
  -29.1338  -29.9561   23.7485 C   0  0  0  0  0  0  0  0  0  0  0  0
  -30.4018  -25.8357   20.0697 C   0  0  0  0  0  0  0  0  0  0  0  0
  -27.6027  -25.9994   15.1660 C   0  0  0  0  0  0  0  0  0  0  0  0
  -26.7412  -24.1993   17.3274 C   0  0  0  0  0  0  0  0  0  0  0  0
  -27.6268  -23.7800   11.9487 C   0  0  0  0  0  0  0  0  0  0  0  0
  -29.8911  -26.8310   21.1320 C   0  0  0  0  0  0  0  0  0  0  0  0
  -27.9412  -24.8387   14.2205 C   0  0  0  0  0  0  0  0  0  0  0  0
  -27.2397  -24.9433   12.8626 C   0  0  0  0  0  0  0  0  0  0  0  0
  -28.4206  -26.6525   21.5035 C   0  0  0  0  0  0  0  0  0  0  0  0
  -25.6870  -24.4424   18.4019 C   0  0  0  0  0  0  0  0  0  1  0  0
  -25.2535  -32.4446   21.8550 C   0  0  1  0  0  0  0  0  0  0  0  0
  -28.7958  -32.3699   23.2027 C   0  0  2  0  0  0  0  0  0  0  0  0
  -24.6160  -33.7766   21.3684 C   0  0  0  0  0  0  0  0  0  0  0  0
  -29.4004  -26.7637   16.5878 N   0  0  0  0  0  0  0  0  0  0  0  0
  -27.3344  -19.3189   22.3799 N   0  0  0  0  0  0  0  0  0  0  0  0
  -28.5901  -25.0535   18.6575 N   0  0  0  0  0  0  0  0  0  0  0  0
  -28.1179  -20.3105   21.9228 N   0  0  0  0  0  0  0  0  0  0  0  0
  -23.9814  -30.3613   22.2617 N   0  0  0  0  0  0  0  0  0  0  0  0
  -27.9193  -23.6887   23.6996 N   0  0  0  0  0  0  0  0  0  0  0  0
  -29.2721  -21.0719   19.9996 N   0  0  0  0  0  0  0  0  0  0  0  0
  -27.3505  -17.2290   18.6083 N   0  0  0  0  0  0  0  0  0  0  0  0
  -20.5355  -29.2833   22.7720 N   0  0  0  0  0  0  0  0  0  0  0  0
  -26.4798  -32.6159   22.6265 N   0  0  0  0  0  0  0  0  0  0  0  0
  -28.1347  -25.3282   22.0086 N   0  0  0  0  0  0  0  0  0  0  0  0
  -29.7506  -31.2294   23.2955 N   0  3  0  0  0  0  0  0  0  0  0  0
  -28.6918  -18.9768   17.9721 O   0  0  0  0  0  0  0  0  0  0  0  0
  -21.6709  -30.5532   21.1844 O   0  0  0  0  0  0  0  0  0  0  0  0
  -23.9020  -32.1301   23.7787 O   0  0  0  0  0  0  0  0  0  0  0  0
  -27.8330  -31.3421   21.2396 O   0  0  0  0  0  0  0  0  0  0  0  0
  -28.5466  -25.8647   24.1993 O   0  0  0  0  0  0  0  0  0  0  0  0
  -24.1495  -13.8506   21.6702 O   0  0  0  0  0  0  0  0  0  0  0  0
  -25.2081  -25.7837   18.3129 O   0  0  0  0  0  0  0  0  0  1  0  0
  -26.2642   -9.2339   19.5213 F   0  0  0  0  0  0  0  0  0  0  0  0
  -24.7858  -13.6984   18.9842 F   0  0  0  0  0  0  0  0  0  0  0  0
  1  2  1  0  0  0  0
  1  5  2  0  0  0  0
  2  6  2  0  0  0  0
  3  8  2  0  0  0  0
  3 16  1  0  0  0  0
  4  9  1  0  0  0  0
  4 16  2  0  0  0  0
  5 18  1  0  0  0  0
  6 20  1  0  0  0  0
  7 10  2  0  0  0  0
  7 19  1  0  0  0  0
  8 22  1  0  0  0  0
  9 22  2  0  0  0  0
 10 23  1  0  0  0  0
 11 12  2  0  0  0  0
 11 24  1  0  0  0  0
 12 25  1  0  0  0  0
 13 21  1  0  0  0  0
 13 23  2  0  0  0  0
 14 25  2  0  0  0  0
 14 26  1  0  0  0  0
 15 28  1  0  0  0  0
 15 67  2  0  0  0  0
 16 27  1  0  0  0  0
 17 27  1  0  0  0  0
 17 31  2  0  0  0  0
 17 32  1  0  0  0  0
 18 20  2  0  0  0  0
 18 37  1  0  0  0  0
 19 21  2  0  0  0  0
 19 38  1  0  0  0  0
 20 46  1  0  0  0  0
 21 39  1  0  0  0  0
 22 84  1  0  0  0  0
 23 85  1  0  0  0  0
 24 26  2  0  0  0  0
 24 84  1  0  0  0  0
 25 86  1  0  0  0  0
 26 87  1  0  0  0  0
 27 68  2  0  0  0  0
 28 55  1  0  0  0  0
 28 69  2  0  0  0  0
 29 30  2  0  0  0  0
 29 56  1  0  0  0  0
 29 67  1  0  0  0  0
 30 57  1  0  0  0  0
 30 69  1  0  0  0  0
 31 70  1  0  0  0  0
 31 73  1  0  0  0  0
 32 74  1  0  0  0  0
 32 79  2  0  0  0  0
 33 47  1  0  0  0  0
 33 75  1  0  0  0  0
 33 80  2  0  0  0  0
 34 64  1  0  0  0  0
 34 71  1  0  0  0  0
 34 81  2  0  0  0  0
 35 65  1  0  0  0  0
 35 76  1  0  0  0  0
 35 82  2  0  0  0  0
 36 72  1  0  0  0  0
 36 77  1  0  0  0  0
 36 83  2  0  0  0  0
 37 40  1  0  0  0  0
 38 47  1  0  0  0  0
 39 71  1  0  0  0  0
 40 42  1  0  0  0  0
 41 43  1  0  0  0  0
 41 44  1  0  0  0  0
 42 46  1  0  0  0  0
 43 48  1  0  0  0  0
 44 72  1  0  0  0  0
 45 48  1  0  0  0  0
 45 72  1  0  0  0  0
 46 75  1  0  0  0  0
 47 71  1  0  0  0  0
 48 70  1  0  0  0  0
 49 58  1  0  0  0  0
 50 65  1  0  0  0  0
 51 66  1  0  0  0  0
 52 66  1  0  0  0  0
 53 66  1  0  0  0  0
 54 78  1  0  0  0  0
 55 59  1  0  0  0  0
 56 60  1  0  0  0  0
 57 63  1  0  0  0  0
 58 61  1  0  0  0  0
 59 62  1  0  0  0  0
 60 61  1  0  0  0  0
 62 77  1  0  0  0  0
 63 85  1  0  0  0  0
 64 66  1  0  0  0  0
 64 76  1  0  0  0  0
 65 78  1  0  0  0  0
 68 70  1  0  0  0  0
M  CHG  1  78   1
M  ISO  4  36 100  63 101  77 100  85 101
M  END
> <Batch ID>
0040

> <Smiles>
CCCCCc1ncc(CCC[100NH:0][100C:0](=O)N2CCCC(n3nc(-c4ccc(Oc5ccc(F)cc5F)cc4)c(C(N)=O)c3N)C2)nc1C[101CH2:1][101O:1]c1ccc2c(c1)CN(C(=O)C(NC(=O)C(C)NC)C(C)(C)C)C(C(=O)NC1CCCc3ccccc31)C2

> <Shape>
0.244

> <Color>
0.059

> <Negative vol penalty>
0.000

$$$$

  -OEChem-04052317073D

 86 95  0     1  0  0  0  0  0999 V2000
  -26.3873  -31.5262   24.9017 C   0  0  0  0  0  0  0  0  0  0  0  0
  -25.7125  -30.4237   24.3874 C   0  0  0  0  0  0  0  0  0  0  0  0
  -26.4563  -13.7601   21.3765 C   0  0  0  0  0  0  0  0  0  0  0  0
  -24.2598  -13.8764   20.3772 C   0  0  0  0  0  0  0  0  0  0  0  0
  -27.5656  -31.9644   24.2987 C   0  0  0  0  0  0  0  0  0  0  0  0
  -26.2150  -29.7594   23.2691 C   0  0  0  0  0  0  0  0  0  0  0  0
  -26.1091  -24.7233   23.7907 C   0  0  0  0  0  0  0  0  0  0  0  0
  -26.4463  -12.3723   21.2369 C   0  0  0  0  0  0  0  0  0  0  0  0
  -24.2498  -12.4886   20.2375 C   0  0  0  0  0  0  0  0  0  0  0  0
  -24.8809  -24.0898   23.6062 C   0  0  0  0  0  0  0  0  0  0  0  0
  -23.4932   -8.9457   19.9464 C   0  0  0  0  0  0  0  0  0  0  0  0
  -22.3303   -8.2660   20.3087 C   0  0  0  0  0  0  0  0  0  0  0  0
  -25.5416  -23.4737   21.3694 C   0  0  0  0  0  0  0  0  0  0  0  0
  -22.5391   -9.1101   22.5628 C   0  0  0  0  0  0  0  0  0  0  0  0
  -19.3006  -27.3501   23.5534 C   0  0  0  0  0  0  0  0  0  0  0  0
  -25.3630  -14.5122   20.9467 C   0  0  0  0  0  0  0  0  0  0  0  0
  -25.8455  -16.8908   20.1610 C   0  0  0  0  0  0  0  0  0  0  0  0
  -28.0880  -31.2993   23.1783 C   0  0  0  0  0  0  0  0  0  0  0  0
  -27.0601  -24.7463   22.7604 C   0  0  0  0  0  0  0  0  0  0  0  0
  -27.4007  -30.1899   22.6498 C   0  0  0  0  0  0  0  0  0  0  0  0
  -26.7821  -24.1060   21.5443 C   0  0  0  0  0  0  0  0  0  0  0  0
  -25.3431  -11.7365   20.6674 C   0  0  0  0  0  0  0  0  0  0  0  0
  -24.5959  -23.4674   22.3944 C   0  0  0  0  0  0  0  0  0  0  0  0
  -24.1791   -9.7075   20.8923 C   0  0  0  0  0  0  0  0  0  0  0  0
  -21.8532   -8.3482   21.6169 C   0  0  0  0  0  0  0  0  0  0  0  0
  -23.7021   -9.7898   22.2005 C   0  0  0  0  0  0  0  0  0  0  0  0
  -25.3725  -15.9458   21.0911 C   0  0  0  0  0  0  0  0  0  0  0  0
  -19.5375  -28.2126   22.4747 C   0  0  0  0  0  0  0  0  0  0  0  0
  -19.7455  -26.1202   23.1250 C   0  0  0  0  0  0  0  0  0  0  0  0
  -25.6332  -18.1049   20.7670 C   0  0  0  0  0  0  0  0  0  0  0  0
  -20.7448  -25.2403   21.1051 C   0  0  0  0  0  0  0  0  0  0  0  0
  -20.8089  -24.0103   21.6349 C   0  0  0  0  0  0  0  0  0  0  0  0
  -20.2727  -23.9115   23.0394 C   0  0  0  0  0  0  0  0  0  0  0  0
  -26.4249  -16.6891   18.8651 C   0  0  0  0  0  0  0  0  0  0  0  0
  -28.4647  -27.0313   21.0548 C   0  0  0  0  0  0  0  0  0  0  0  0
  -30.1994  -24.5522   19.8856 C   0  0  0  0  0  0  0  0  0  0  0  0
  -30.4172  -21.2015   19.2755 C   0  0  0  0  0  0  0  0  0  0  0  0
  -21.7343  -19.8357   24.8484 C   0  0  0  0  0  0  0  0  0  0  0  0
  -29.3395  -31.8386   22.5321 C   0  0  0  0  0  0  0  0  0  0  0  0
  -28.3906  -25.4108   22.9847 C   0  0  0  0  0  0  0  0  0  0  0  0
  -27.7770  -24.0847   20.4137 C   0  0  0  0  0  0  0  0  0  0  0  0
  -30.0057  -30.8516   21.5770 C   0  0  0  0  0  0  0  0  0  0  0  0
  -25.3330  -20.1293   25.0935 C   0  0  0  0  0  0  0  0  0  0  0  0
  -28.9690  -30.2199   20.6535 C   0  0  0  0  0  0  0  0  0  0  0  0
  -25.7921  -19.1693   23.9946 C   0  0  0  0  0  0  0  0  0  0  0  0
  -24.1003  -19.5938   25.8159 C   0  0  0  0  0  0  0  0  0  0  0  0
  -23.4065  -18.3210   23.8228 C   0  0  0  0  0  0  0  0  0  0  0  0
  -27.9275  -29.4279   21.4532 C   0  0  1  0  0  0  0  0  0  0  0  0
  -29.0824  -25.8161   21.6868 C   0  0  1  0  0  0  0  0  0  0  0  0
  -24.6360  -18.8164   23.0399 C   0  0  2  0  0  0  0  0  0  0  0  0
  -19.2451  -29.6543   22.4000 C   0  0  0  0  0  0  0  0  0  0  0  0
  -31.9401  -19.4764   18.2743 C   0  0  0  0  0  0  0  0  0  0  0  0
  -29.4093  -25.4814   17.0888 C   0  0  0  0  0  0  0  0  0  0  0  0
  -30.1305  -23.2475   16.2185 C   0  0  0  0  0  0  0  0  0  0  0  0
  -31.7914  -24.7535   17.3120 C   0  0  0  0  0  0  0  0  0  0  0  0
  -30.6522  -19.7500   21.8440 C   0  0  0  0  0  0  0  0  0  0  0  0
  -21.3574  -22.8166   20.9250 C   0  0  0  0  0  0  0  0  0  0  0  0
  -20.3081  -22.5573   23.7107 C   0  0  0  0  0  0  0  0  0  0  0  0
  -20.0972  -22.7040   25.2091 C   0  0  0  0  0  0  0  0  0  0  0  0
  -20.1683  -21.3899   25.9838 C   0  0  0  0  0  0  0  0  0  0  0  0
  -22.8795  -22.8169   20.8821 C   0  0  0  0  0  0  0  0  0  1  0  0
  -30.0488  -23.5932   18.7294 C   0  0  1  0  0  0  0  0  0  0  0  0
  -31.5237  -20.1981   19.5465 C   0  0  2  0  0  0  0  0  0  0  0  0
  -30.3253  -24.2708   17.3576 C   0  0  0  0  0  0  0  0  0  0  0  0
  -24.8958  -16.5110   22.2034 N   0  0  0  0  0  0  0  0  0  0  0  0
  -20.0901  -27.5958   21.4308 N   0  0  0  0  0  0  0  0  0  0  0  0
  -19.7779  -24.9007   23.7277 N   0  0  0  0  0  0  0  0  0  0  0  0
  -20.2197  -26.3034   21.8299 N   0  0  0  0  0  0  0  0  0  0  0  0
  -25.0683  -17.8243   21.9762 N   0  0  0  0  0  0  0  0  0  0  0  0
  -29.0614  -24.7536   20.6794 N   0  0  0  0  0  0  0  0  0  0  0  0
  -23.0310  -19.2954   24.8528 N   0  0  0  0  0  0  0  0  0  0  0  0
  -25.8766  -19.3745   20.3781 N   0  0  0  0  0  0  0  0  0  0  0  0
  -26.5700  -15.3767   18.3951 N   0  0  0  0  0  0  0  0  0  0  0  0
  -28.4702  -28.1510   21.8646 N   0  0  0  0  0  0  0  0  0  0  0  0
  -30.9199  -22.4603   19.0227 N   0  0  0  0  0  0  0  0  0  0  0  0
  -21.4570  -20.7456   25.8613 N   0  0  0  0  0  0  0  0  0  0  0  0
  -31.0697  -19.1811   20.5367 N   0  3  0  0  0  0  0  0  0  0  0  0
  -26.8177  -17.6435   18.1522 O   0  0  0  0  0  0  0  0  0  0  0  0
  -28.0176  -26.9589   19.9161 O   0  0  0  0  0  0  0  0  0  0  0  0
  -31.2887  -25.0969   20.0816 O   0  0  0  0  0  0  0  0  0  0  0  0
  -29.2263  -20.8980   19.2834 O   0  0  0  0  0  0  0  0  0  0  0  0
  -20.8872  -19.5336   24.0008 O   0  0  0  0  0  0  0  0  0  0  0  0
  -25.3331  -10.3824   20.5309 O   0  0  0  0  0  0  0  0  0  0  0  0
  -23.3977  -22.8488   22.2114 O   0  0  0  0  0  0  0  0  0  1  0  0
  -20.7356   -7.6967   21.9642 F   0  0  0  0  0  0  0  0  0  0  0  0
  -24.3561  -10.5211   23.1133 F   0  0  0  0  0  0  0  0  0  0  0  0
  1  2  1  0  0  0  0
  1  5  2  0  0  0  0
  2  6  2  0  0  0  0
  3  8  2  0  0  0  0
  3 16  1  0  0  0  0
  4  9  1  0  0  0  0
  4 16  2  0  0  0  0
  5 18  1  0  0  0  0
  6 20  1  0  0  0  0
  7 10  2  0  0  0  0
  7 19  1  0  0  0  0
  8 22  1  0  0  0  0
  9 22  2  0  0  0  0
 10 23  1  0  0  0  0
 11 12  2  0  0  0  0
 11 24  1  0  0  0  0
 12 25  1  0  0  0  0
 13 21  1  0  0  0  0
 13 23  2  0  0  0  0
 14 25  2  0  0  0  0
 14 26  1  0  0  0  0
 15 28  1  0  0  0  0
 15 29  2  0  0  0  0
 16 27  1  0  0  0  0
 17 27  1  0  0  0  0
 17 30  2  0  0  0  0
 17 34  1  0  0  0  0
 18 20  2  0  0  0  0
 18 39  1  0  0  0  0
 19 21  2  0  0  0  0
 19 40  1  0  0  0  0
 20 48  1  0  0  0  0
 21 41  1  0  0  0  0
 22 83  1  0  0  0  0
 23 84  1  0  0  0  0
 24 26  2  0  0  0  0
 24 83  1  0  0  0  0
 25 85  1  0  0  0  0
 26 86  1  0  0  0  0
 27 65  2  0  0  0  0
 28 51  1  0  0  0  0
 28 66  2  0  0  0  0
 29 67  1  0  0  0  0
 29 68  1  0  0  0  0
 30 69  1  0  0  0  0
 30 72  1  0  0  0  0
 31 32  2  0  0  0  0
 31 68  1  0  0  0  0
 32 33  1  0  0  0  0
 32 57  1  0  0  0  0
 33 58  1  0  0  0  0
 33 67  2  0  0  0  0
 34 73  1  0  0  0  0
 34 78  2  0  0  0  0
 35 49  1  0  0  0  0
 35 74  1  0  0  0  0
 35 79  2  0  0  0  0
 36 62  1  0  0  0  0
 36 70  1  0  0  0  0
 36 80  2  0  0  0  0
 37 63  1  0  0  0  0
 37 75  1  0  0  0  0
 37 81  2  0  0  0  0
 38 71  1  0  0  0  0
 38 76  1  0  0  0  0
 38 82  2  0  0  0  0
 39 42  1  0  0  0  0
 40 49  1  0  0  0  0
 41 70  1  0  0  0  0
 42 44  1  0  0  0  0
 43 45  1  0  0  0  0
 43 46  1  0  0  0  0
 44 48  1  0  0  0  0
 45 50  1  0  0  0  0
 46 71  1  0  0  0  0
 47 50  1  0  0  0  0
 47 71  1  0  0  0  0
 48 74  1  0  0  0  0
 49 70  1  0  0  0  0
 50 69  1  0  0  0  0
 52 63  1  0  0  0  0
 53 64  1  0  0  0  0
 54 64  1  0  0  0  0
 55 64  1  0  0  0  0
 56 77  1  0  0  0  0
 57 61  1  0  0  0  0
 58 59  1  0  0  0  0
 59 60  1  0  0  0  0
 60 76  1  0  0  0  0
 61 84  1  0  0  0  0
 62 64  1  0  0  0  0
 62 75  1  0  0  0  0
 63 77  1  0  0  0  0
 65 69  1  0  0  0  0
 66 68  1  0  0  0  0
M  CHG  1  77   1
M  ISO  4  38 100  61 101  76 100  84 101
M  END
> <Batch ID>
0040

> <Smiles>
CNC(C)C(=O)NC(C(=O)N1Cc2cc([101O:1][101CH2:1]Cc3cn4nc(C)cc4nc3CCC[100NH:0][100C:0](=O)N3CCCC(n4nc(-c5ccc(Oc6ccc(F)cc6F)cc5)c(C(N)=O)c4N)C3)ccc2CC1C(=O)NC1CCCc2ccccc21)C(C)(C)C

> <Shape>
0.213

> <Color>
0.082

> <Negative vol penalty>
0.000

$$$$

  -OEChem-04052317073D

 82 90  0     1  0  0  0  0  0999 V2000
  -27.8627  -37.3237   25.7941 C   0  0  0  0  0  0  0  0  0  0  0  0
  -28.5110  -36.5764   24.8160 C   0  0  0  0  0  0  0  0  0  0  0  0
  -23.6184   -9.8581   22.0392 C   0  0  0  0  0  0  0  0  0  0  0  0
  -24.2862  -11.2512   23.8967 C   0  0  0  0  0  0  0  0  0  0  0  0
  -26.9670  -36.7034   26.6641 C   0  0  0  0  0  0  0  0  0  0  0  0
  -28.2648  -35.2081   24.7081 C   0  0  0  0  0  0  0  0  0  0  0  0
  -27.8597  -29.9763   19.8316 C   0  0  0  0  0  0  0  0  0  0  0  0
  -23.0514   -8.9448   22.9280 C   0  0  0  0  0  0  0  0  0  0  0  0
  -23.7191  -10.3380   24.7855 C   0  0  0  0  0  0  0  0  0  0  0  0
  -28.3671  -28.7038   19.5724 C   0  0  0  0  0  0  0  0  0  0  0  0
  -20.2100   -8.6680   24.7398 C   0  0  0  0  0  0  0  0  0  0  0  0
  -18.9436   -8.1685   24.4359 C   0  0  0  0  0  0  0  0  0  0  0  0
  -26.7398  -27.7545   21.0791 C   0  0  0  0  0  0  0  0  0  0  0  0
  -28.8403  -22.2398   18.6917 C   0  0  0  0  0  0  0  0  0  0  0  0
  -19.8407   -5.9257   24.3845 C   0  0  0  0  0  0  0  0  0  0  0  0
  -29.8409  -22.3171   20.8480 C   0  0  0  0  0  0  0  0  0  0  0  0
  -24.2359  -11.0113   22.5236 C   0  0  0  0  0  0  0  0  0  0  0  0
  -24.1914  -13.0600   21.0042 C   0  0  0  0  0  0  0  0  0  0  0  0
  -26.7024  -35.3287   26.5606 C   0  0  0  0  0  0  0  0  0  0  0  0
  -26.7938  -30.1488   20.7264 C   0  0  0  0  0  0  0  0  0  0  0  0
  -27.3658  -34.5686   25.5784 C   0  0  0  0  0  0  0  0  0  0  0  0
  -26.2190  -29.0299   21.3459 C   0  0  0  0  0  0  0  0  0  0  0  0
  -29.6946  -21.6721   19.6304 C   0  0  0  0  0  0  0  0  0  0  0  0
  -28.1680  -23.4185   18.9949 C   0  0  0  0  0  0  0  0  0  0  0  0
  -23.1017   -9.1848   24.3011 C   0  0  0  0  0  0  0  0  0  0  0  0
  -27.8091  -27.5930   20.1984 C   0  0  0  0  0  0  0  0  0  0  0  0
  -21.2917   -7.7965   24.8661 C   0  0  0  0  0  0  0  0  0  0  0  0
  -18.7590   -6.7973   24.2582 C   0  0  0  0  0  0  0  0  0  0  0  0
  -21.1071   -6.4254   24.6884 C   0  0  0  0  0  0  0  0  0  0  0  0
  -24.8224  -11.9548   21.6060 C   0  0  0  0  0  0  0  0  0  0  0  0
  -28.3825  -23.9852   20.2409 C   0  0  0  0  0  0  0  0  0  0  0  0
  -25.1683  -13.6312   20.2258 C   0  0  0  0  0  0  0  0  0  0  0  0
  -22.8429  -13.5285   21.1371 C   0  0  0  0  0  0  0  0  0  0  0  0
  -26.4065  -31.6784   23.4857 C   0  0  0  0  0  0  0  0  0  0  0  0
  -30.4486  -15.3769   19.6259 C   0  0  0  0  0  0  0  0  0  0  0  0
  -23.3103  -30.7937   23.0943 C   0  0  0  0  0  0  0  0  0  0  0  0
  -21.0683  -28.6398   21.6869 C   0  0  0  0  0  0  0  0  0  0  0  0
  -25.7619  -34.6936   27.5540 C   0  0  0  0  0  0  0  0  0  0  0  0
  -26.2404  -31.5252   20.9748 C   0  0  0  0  0  0  0  0  0  0  0  0
  -25.0601  -29.1593   22.2992 C   0  0  0  0  0  0  0  0  0  0  0  0
  -25.2735  -33.3102   27.1320 C   0  0  0  0  0  0  0  0  0  0  0  0
  -29.7383  -11.9414   18.8963 C   0  0  0  0  0  0  0  0  0  0  0  0
  -26.4406  -32.4580   26.6437 C   0  0  0  0  0  0  0  0  0  0  0  0
  -28.3576  -11.7214   19.5132 C   0  0  0  0  0  0  0  0  0  0  0  0
  -30.5737  -12.9095   19.7281 C   0  0  0  0  0  0  0  0  0  0  0  0
  -28.5318  -14.0098   20.5893 C   0  0  0  0  0  0  0  0  0  0  0  0
  -27.1063  -33.0868   25.4138 C   0  0  1  0  0  0  0  0  0  0  0  0
  -25.4882  -31.6371   22.2972 C   0  0  1  0  0  0  0  0  0  0  0  0
  -27.6441  -13.0618   19.7635 C   0  0  2  0  0  0  0  0  0  0  0  0
  -27.2526  -24.0330   17.9930 C   0  0  0  0  0  0  0  0  0  0  0  0
  -18.6101  -28.1468   21.5808 C   0  0  0  0  0  0  0  0  0  0  0  0
  -23.4376  -29.5701   25.8866 C   0  0  0  0  0  0  0  0  0  0  0  0
  -21.3460  -28.3028   25.3507 C   0  0  0  0  0  0  0  0  0  0  0  0
  -21.3178  -30.7970   25.3809 C   0  0  0  0  0  0  0  0  0  0  0  0
  -20.9883  -29.0804   18.7615 C   0  0  0  0  0  0  0  0  0  0  0  0
  -30.4277  -20.4116   19.3375 C   0  0  0  0  0  0  0  0  0  0  0  0
  -27.6834  -25.2565   20.6235 C   0  0  0  0  0  0  0  0  0  1  0  0
  -29.6427  -16.6230   19.8936 C   0  0  0  0  0  0  0  0  0  0  0  0
  -29.6324  -19.1616   19.7515 C   0  0  0  0  0  0  0  0  0  0  0  0
  -30.4136  -17.8723   19.4790 C   0  0  0  0  0  0  0  0  0  0  0  0
  -22.4835  -29.5934   23.4876 C   0  0  1  0  0  0  0  0  0  0  0  0
  -19.7727  -28.8840   20.9346 C   0  0  2  0  0  0  0  0  0  0  0  0
  -22.1693  -29.5632   25.0100 C   0  0  0  0  0  0  0  0  0  0  0  0
  -29.2046  -23.4631   21.1786 N   0  0  0  0  0  0  0  0  0  0  0  0
  -26.1011  -11.8293   21.2411 N   0  0  0  0  0  0  0  0  0  0  0  0
  -26.2815  -12.8631   20.4015 N   0  0  0  0  0  0  0  0  0  0  0  0
  -24.5586  -30.5267   22.5144 N   0  0  0  0  0  0  0  0  0  0  0  0
  -29.8523  -14.1616   19.9628 N   0  0  0  0  0  0  0  0  0  0  0  0
  -25.1749  -14.7105   19.4149 N   0  0  0  0  0  0  0  0  0  0  0  0
  -21.9706  -12.8240   21.9781 N   0  0  0  0  0  0  0  0  0  0  0  0
  -26.3136  -32.8400   24.2284 N   0  0  0  0  0  0  0  0  0  0  0  0
  -21.3008  -29.6149   22.6337 N   0  0  0  0  0  0  0  0  0  0  0  0
  -19.8975  -28.4202   19.5239 N   0  3  0  0  0  0  0  0  0  0  0  0
  -22.4192  -14.5322   20.5154 O   0  0  0  0  0  0  0  0  0  0  0  0
  -27.1438  -30.7263   23.7130 O   0  0  0  0  0  0  0  0  0  0  0  0
  -31.5732  -15.4824   19.1295 O   0  0  0  0  0  0  0  0  0  0  0  0
  -22.8620  -31.9265   23.2879 O   0  0  0  0  0  0  0  0  0  0  0  0
  -21.7991  -27.6779   21.4602 O   0  0  0  0  0  0  0  0  0  0  0  0
  -22.5482   -8.2939   25.1687 O   0  0  0  0  0  0  0  0  0  0  0  0
  -28.3029  -26.3500   19.9477 O   0  0  0  0  0  0  0  0  0  1  0  0
  -17.5426   -6.3176   23.9678 F   0  0  0  0  0  0  0  0  0  0  0  0
  -22.1423   -5.5830   24.8096 F   0  0  0  0  0  0  0  0  0  0  0  0
  1  2  1  0  0  0  0
  1  5  2  0  0  0  0
  2  6  2  0  0  0  0
  3  8  2  0  0  0  0
  3 17  1  0  0  0  0
  4  9  1  0  0  0  0
  4 17  2  0  0  0  0
  5 19  1  0  0  0  0
  6 21  1  0  0  0  0
  7 10  2  0  0  0  0
  7 20  1  0  0  0  0
  8 25  1  0  0  0  0
  9 25  2  0  0  0  0
 10 26  1  0  0  0  0
 11 12  2  0  0  0  0
 11 27  1  0  0  0  0
 12 28  1  0  0  0  0
 13 22  1  0  0  0  0
 13 26  2  0  0  0  0
 14 23  2  0  0  0  0
 14 24  1  0  0  0  0
 15 28  2  0  0  0  0
 15 29  1  0  0  0  0
 16 23  1  0  0  0  0
 16 64  2  0  0  0  0
 17 30  1  0  0  0  0
 18 30  1  0  0  0  0
 18 32  2  0  0  0  0
 18 33  1  0  0  0  0
 19 21  2  0  0  0  0
 19 38  1  0  0  0  0
 20 22  2  0  0  0  0
 20 39  1  0  0  0  0
 21 47  1  0  0  0  0
 22 40  1  0  0  0  0
 23 56  1  0  0  0  0
 24 31  2  0  0  0  0
 24 50  1  0  0  0  0
 25 79  1  0  0  0  0
 26 80  1  0  0  0  0
 27 29  2  0  0  0  0
 27 79  1  0  0  0  0
 28 81  1  0  0  0  0
 29 82  1  0  0  0  0
 30 65  2  0  0  0  0
 31 57  1  0  0  0  0
 31 64  1  0  0  0  0
 32 66  1  0  0  0  0
 32 69  1  0  0  0  0
 33 70  1  0  0  0  0
 33 74  2  0  0  0  0
 34 48  1  0  0  0  0
 34 71  1  0  0  0  0
 34 75  2  0  0  0  0
 35 58  1  0  0  0  0
 35 68  1  0  0  0  0
 35 76  2  0  0  0  0
 36 61  1  0  0  0  0
 36 67  1  0  0  0  0
 36 77  2  0  0  0  0
 37 62  1  0  0  0  0
 37 72  1  0  0  0  0
 37 78  2  0  0  0  0
 38 41  1  0  0  0  0
 39 48  1  0  0  0  0
 40 67  1  0  0  0  0
 41 43  1  0  0  0  0
 42 44  1  0  0  0  0
 42 45  1  0  0  0  0
 43 47  1  0  0  0  0
 44 49  1  0  0  0  0
 45 68  1  0  0  0  0
 46 49  1  0  0  0  0
 46 68  1  0  0  0  0
 47 71  1  0  0  0  0
 48 67  1  0  0  0  0
 49 66  1  0  0  0  0
 51 62  1  0  0  0  0
 52 63  1  0  0  0  0
 53 63  1  0  0  0  0
 54 63  1  0  0  0  0
 55 73  1  0  0  0  0
 56 59  1  0  0  0  0
 57 80  1  0  0  0  0
 58 60  1  0  0  0  0
 59 60  1  0  0  0  0
 61 63  1  0  0  0  0
 61 72  1  0  0  0  0
 62 73  1  0  0  0  0
 65 66  1  0  0  0  0
M  CHG  1  73   1
M  ISO  4  35 100  57 101  58 100  80 101
M  END
> <Batch ID>
0040

> <Smiles>
CNC(C)C(=O)NC(C(=O)N1Cc2cc([101O:1][101CH2:1]c3ncc(CCC[100CH2:0][100C:0](=O)N4CCCC(n5nc(-c6ccc(Oc7ccc(F)cc7F)cc6)c(C(N)=O)c5N)C4)cc3C)ccc2CC1C(=O)NC1CCCc2ccccc21)C(C)(C)C

> <Shape>
0.330

> <Color>
0.169

> <Negative vol penalty>
0.000

$$$$

  -OEChem-04052317073D

 81 89  0     1  0  0  0  0  0999 V2000
  -27.6218  -10.0233   22.6542 C   0  0  0  0  0  0  0  0  0  0  0  0
  -28.3540  -11.1870   22.4423 C   0  0  0  0  0  0  0  0  0  0  0  0
  -22.2393  -28.5720   20.8728 C   0  0  0  0  0  0  0  0  0  0  0  0
  -23.2034  -27.3869   22.7444 C   0  0  0  0  0  0  0  0  0  0  0  0
  -26.3585   -9.8818   22.0814 C   0  0  0  0  0  0  0  0  0  0  0  0
  -27.8238  -12.2097   21.6565 C   0  0  0  0  0  0  0  0  0  0  0  0
  -28.4663  -16.7849   23.7299 C   0  0  0  0  0  0  0  0  0  0  0  0
  -20.9825  -28.4976   21.4730 C   0  0  0  0  0  0  0  0  0  0  0  0
  -21.9465  -27.3125   23.3447 C   0  0  0  0  0  0  0  0  0  0  0  0
  -29.7299  -17.3633   23.6172 C   0  0  0  0  0  0  0  0  0  0  0  0
  -19.2973  -30.0952   23.9309 C   0  0  0  0  0  0  0  0  0  0  0  0
  -18.5139  -31.2492   23.9398 C   0  0  0  0  0  0  0  0  0  0  0  0
  -28.9411  -18.7141   21.7808 C   0  0  0  0  0  0  0  0  0  0  0  0
  -16.7978  -30.0937   22.6919 C   0  0  0  0  0  0  0  0  0  0  0  0
  -33.4733  -23.1762   19.6671 C   0  0  0  0  0  0  0  0  0  0  0  0
  -23.3498  -28.0166   21.5085 C   0  0  0  0  0  0  0  0  0  0  0  0
  -25.6053  -29.1136   21.0425 C   0  0  0  0  0  0  0  0  0  0  0  0
  -25.8085  -10.9073   21.2962 C   0  0  0  0  0  0  0  0  0  0  0  0
  -27.4319  -17.1595   22.8603 C   0  0  0  0  0  0  0  0  0  0  0  0
  -26.5525  -12.0813   21.0716 C   0  0  0  0  0  0  0  0  0  0  0  0
  -27.6647  -18.1408   21.8862 C   0  0  0  0  0  0  0  0  0  0  0  0
  -32.7894  -22.9473   18.4581 C   0  0  0  0  0  0  0  0  0  0  0  0
  -20.8360  -27.8679   22.7090 C   0  0  0  0  0  0  0  0  0  0  0  0
  -29.9682  -18.3259   22.6407 C   0  0  0  0  0  0  0  0  0  0  0  0
  -18.8311  -28.9404   23.3024 C   0  0  0  0  0  0  0  0  0  0  0  0
  -17.2641  -31.2485   23.3203 C   0  0  0  0  0  0  0  0  0  0  0  0
  -17.5813  -28.9397   22.6830 C   0  0  0  0  0  0  0  0  0  0  0  0
  -24.6483  -28.0926   20.8887 C   0  0  0  0  0  0  0  0  0  0  0  0
  -32.7689  -21.5801   18.3287 C   0  0  0  0  0  0  0  0  0  0  0  0
  -26.6575  -28.7199   20.2524 C   0  0  0  0  0  0  0  0  0  0  0  0
  -25.5482  -30.3108   21.8294 C   0  0  0  0  0  0  0  0  0  0  0  0
  -25.6681  -15.6485   20.6902 C   0  0  0  0  0  0  0  0  0  0  0  0
  -24.0892  -18.4797   20.5709 C   0  0  0  0  0  0  0  0  0  0  0  0
  -24.1479  -21.8534   21.0818 C   0  0  0  0  0  0  0  0  0  0  0  0
  -30.1564  -24.8660   18.5635 C   0  0  0  0  0  0  0  0  0  0  0  0
  -24.4590  -10.6892   20.6590 C   0  0  0  0  0  0  0  0  0  0  0  0
  -26.0672  -16.5456   23.0123 C   0  0  0  0  0  0  0  0  0  0  0  0
  -26.5823  -18.5926   20.9412 C   0  0  0  0  0  0  0  0  0  0  0  0
  -23.8121  -11.9739   20.1477 C   0  0  0  0  0  0  0  0  0  0  0  0
  -26.9929  -25.0253   16.8130 C   0  0  0  0  0  0  0  0  0  0  0  0
  -24.8217  -12.8031   19.3602 C   0  0  0  0  0  0  0  0  0  0  0  0
  -26.1776  -25.9290   17.7398 C   0  0  0  0  0  0  0  0  0  0  0  0
  -27.9016  -24.0931   17.6089 C   0  0  0  0  0  0  0  0  0  0  0  0
  -28.0074  -25.6913   19.4819 C   0  0  0  0  0  0  0  0  0  0  0  0
  -26.0010  -13.2232   20.2457 C   0  0  1  0  0  0  0  0  0  0  0  0
  -25.2292  -16.6296   21.7402 C   0  0  1  0  0  0  0  0  0  0  0  0
  -27.0851  -26.6734   18.7371 C   0  0  2  0  0  0  0  0  0  0  0  0
  -32.2033  -20.7096   17.2806 C   0  0  0  0  0  0  0  0  0  0  0  0
  -22.7199  -23.9048   20.8580 C   0  0  0  0  0  0  0  0  0  0  0  0
  -24.5393  -18.4607   17.5531 C   0  0  0  0  0  0  0  0  0  0  0  0
  -23.9671  -20.8979   17.5226 C   0  0  0  0  0  0  0  0  0  0  0  0
  -22.2681  -19.2288   18.2643 C   0  0  0  0  0  0  0  0  0  0  0  0
  -24.2795  -22.4035   23.9868 C   0  0  0  0  0  0  0  0  0  0  0  0
  -32.2248  -23.9523   17.5420 C   0  0  0  0  0  0  0  0  0  0  0  0
  -33.1204  -19.2247   21.1278 C   0  0  0  0  0  0  0  0  0  0  0  0
  -33.6658  -19.6434   19.7607 C   0  0  0  0  0  0  0  0  0  0  0  0
  -31.6024  -19.3202   21.2275 C   0  0  0  0  0  0  0  0  0  1  0  0
  -24.2320  -19.7504   19.7686 C   0  0  1  0  0  0  0  0  0  0  0  0
  -23.1725  -22.7835   21.7803 C   0  0  2  0  0  0  0  0  0  0  0  0
  -23.7728  -19.5748   18.2935 C   0  0  0  0  0  0  0  0  0  0  0  0
  -33.8592  -22.0450   20.2633 N   0  0  0  0  0  0  0  0  0  0  0  0
  -25.0564  -27.1233   20.0653 N   0  0  0  0  0  0  0  0  0  0  0  0
  -33.4163  -21.0922   19.4255 N   0  0  0  0  0  0  0  0  0  0  0  0
  -26.2813  -27.5334   19.6947 N   0  0  0  0  0  0  0  0  0  0  0  0
  -25.2666  -17.9582   21.1255 N   0  0  0  0  0  0  0  0  0  0  0  0
  -28.7521  -24.8656   18.5255 N   0  0  0  0  0  0  0  0  0  0  0  0
  -27.8585  -29.2764   19.9871 N   0  0  0  0  0  0  0  0  0  0  0  0
  -24.3928  -30.5611   22.5821 N   0  0  0  0  0  0  0  0  0  0  0  0
  -25.6234  -14.3293   21.0991 N   0  0  0  0  0  0  0  0  0  0  0  0
  -23.5045  -20.7804   20.5023 N   0  0  0  0  0  0  0  0  0  0  0  0
  -30.7849  -24.0520   17.6291 N   0  0  0  0  0  0  0  0  0  0  0  0
  -23.8079  -23.3920   22.9832 N   0  3  0  0  0  0  0  0  0  0  0  0
  -26.4872  -31.1422   21.8512 O   0  0  0  0  0  0  0  0  0  0  0  0
  -26.0197  -16.0580   19.5900 O   0  0  0  0  0  0  0  0  0  0  0  0
  -22.9730  -17.9725   20.7067 O   0  0  0  0  0  0  0  0  0  0  0  0
  -25.3590  -22.0602   21.0501 O   0  0  0  0  0  0  0  0  0  0  0  0
  -30.8029  -25.5460   19.3677 O   0  0  0  0  0  0  0  0  0  0  0  0
  -19.6097  -27.7953   23.2951 O   0  0  0  0  0  0  0  0  0  0  0  0
  -31.2008  -18.8916   22.5281 O   0  0  0  0  0  0  0  0  0  1  0  0
  -16.5112  -32.3563   23.3303 F   0  0  0  0  0  0  0  0  0  0  0  0
  -17.1275  -27.8331   22.0786 F   0  0  0  0  0  0  0  0  0  0  0  0
  1  2  1  0  0  0  0
  1  5  2  0  0  0  0
  2  6  2  0  0  0  0
  3  8  2  0  0  0  0
  3 16  1  0  0  0  0
  4  9  1  0  0  0  0
  4 16  2  0  0  0  0
  5 18  1  0  0  0  0
  6 20  1  0  0  0  0
  7 10  2  0  0  0  0
  7 19  1  0  0  0  0
  8 23  1  0  0  0  0
  9 23  2  0  0  0  0
 10 24  1  0  0  0  0
 11 12  2  0  0  0  0
 11 25  1  0  0  0  0
 12 26  1  0  0  0  0
 13 21  1  0  0  0  0
 13 24  2  0  0  0  0
 14 26  2  0  0  0  0
 14 27  1  0  0  0  0
 15 22  1  0  0  0  0
 15 61  2  0  0  0  0
 16 28  1  0  0  0  0
 17 28  1  0  0  0  0
 17 30  2  0  0  0  0
 17 31  1  0  0  0  0
 18 20  2  0  0  0  0
 18 36  1  0  0  0  0
 19 21  2  0  0  0  0
 19 37  1  0  0  0  0
 20 45  1  0  0  0  0
 21 38  1  0  0  0  0
 22 29  2  0  0  0  0
 22 54  1  0  0  0  0
 23 78  1  0  0  0  0
 24 79  1  0  0  0  0
 25 27  2  0  0  0  0
 25 78  1  0  0  0  0
 26 80  1  0  0  0  0
 27 81  1  0  0  0  0
 28 62  2  0  0  0  0
 29 48  1  0  0  0  0
 29 63  1  0  0  0  0
 30 64  1  0  0  0  0
 30 67  1  0  0  0  0
 31 68  1  0  0  0  0
 31 73  2  0  0  0  0
 32 46  1  0  0  0  0
 32 69  1  0  0  0  0
 32 74  2  0  0  0  0
 33 58  1  0  0  0  0
 33 65  1  0  0  0  0
 33 75  2  0  0  0  0
 34 59  1  0  0  0  0
 34 70  1  0  0  0  0
 34 76  2  0  0  0  0
 35 66  1  0  0  0  0
 35 71  1  0  0  0  0
 35 77  2  0  0  0  0
 36 39  1  0  0  0  0
 37 46  1  0  0  0  0
 38 65  1  0  0  0  0
 39 41  1  0  0  0  0
 40 42  1  0  0  0  0
 40 43  1  0  0  0  0
 41 45  1  0  0  0  0
 42 47  1  0  0  0  0
 43 66  1  0  0  0  0
 44 47  1  0  0  0  0
 44 66  1  0  0  0  0
 45 69  1  0  0  0  0
 46 65  1  0  0  0  0
 47 64  1  0  0  0  0
 49 59  1  0  0  0  0
 50 60  1  0  0  0  0
 51 60  1  0  0  0  0
 52 60  1  0  0  0  0
 53 72  1  0  0  0  0
 54 71  1  0  0  0  0
 55 56  1  0  0  0  0
 55 57  1  0  0  0  0
 56 63  1  0  0  0  0
 57 79  1  0  0  0  0
 58 60  1  0  0  0  0
 58 70  1  0  0  0  0
 59 72  1  0  0  0  0
 61 63  1  0  0  0  0
 62 64  1  0  0  0  0
M  CHG  1  72   1
M  ISO  4  35 100  57 101  71 100  79 101
M  END
> <Batch ID>
0040

> <Smiles>
CNC(C)C(=O)NC(C(=O)N1Cc2cc([101O:1][101CH2:1]CCn3ncc(C[100NH:0][100C:0](=O)N4CCCC(n5nc(-c6ccc(Oc7ccc(F)cc7F)cc6)c(C(N)=O)c5N)C4)c3C)ccc2CC1C(=O)NC1CCCc2ccccc21)C(C)(C)C

> <Shape>
0.213

> <Color>
0.065

> <Negative vol penalty>
0.000

$$$$

  -OEChem-04052317073D

 86 94  0     1  0  0  0  0  0999 V2000
  -38.2493  -31.6161   17.2318 C   0  0  0  0  0  0  0  0  0  0  0  0
  -37.0452  -30.9619   16.9916 C   0  0  0  0  0  0  0  0  0  0  0  0
  -22.9945   -9.9168   19.9849 C   0  0  0  0  0  0  0  0  0  0  0  0
  -23.7237   -9.9653   22.2878 C   0  0  0  0  0  0  0  0  0  0  0  0
  -39.4074  -30.8771   17.4701 C   0  0  0  0  0  0  0  0  0  0  0  0
  -36.9988  -29.5682   16.9886 C   0  0  0  0  0  0  0  0  0  0  0  0
  -32.3764  -26.0345   18.8997 C   0  0  0  0  0  0  0  0  0  0  0  0
  -22.2228   -8.7863   20.2531 C   0  0  0  0  0  0  0  0  0  0  0  0
  -22.9519   -8.8348   22.5560 C   0  0  0  0  0  0  0  0  0  0  0  0
  -31.3498  -25.3829   18.2176 C   0  0  0  0  0  0  0  0  0  0  0  0
  -23.1788   -5.4945   22.0854 C   0  0  0  0  0  0  0  0  0  0  0  0
  -23.7625   -4.4747   22.8370 C   0  0  0  0  0  0  0  0  0  0  0  0
  -32.6550  -23.3542   18.2039 C   0  0  0  0  0  0  0  0  0  0  0  0
  -22.0425   -4.7271   24.5149 C   0  0  0  0  0  0  0  0  0  0  0  0
  -28.6184  -20.7325   20.2502 C   0  0  0  0  0  0  0  0  0  0  0  0
  -23.7450  -10.5063   21.0023 C   0  0  0  0  0  0  0  0  0  0  0  0
  -24.1426  -13.0199   20.8243 C   0  0  0  0  0  0  0  0  0  0  0  0
  -39.3732  -29.4738   17.4795 C   0  0  0  0  0  0  0  0  0  0  0  0
  -33.5564  -25.3528   19.2300 C   0  0  0  0  0  0  0  0  0  0  0  0
  -38.1578  -28.8098   17.2259 C   0  0  0  0  0  0  0  0  0  0  0  0
  -33.6940  -23.9988   18.8924 C   0  0  0  0  0  0  0  0  0  0  0  0
  -28.8775  -19.4631   19.7751 C   0  0  0  0  0  0  0  0  0  0  0  0
  -22.2014   -8.2453   21.5386 C   0  0  0  0  0  0  0  0  0  0  0  0
  -31.4902  -24.0433   17.8670 C   0  0  0  0  0  0  0  0  0  0  0  0
  -22.0270   -6.1306   22.5485 C   0  0  0  0  0  0  0  0  0  0  0  0
  -23.1943   -4.0910   24.0518 C   0  0  0  0  0  0  0  0  0  0  0  0
  -21.4589   -5.7469   23.7632 C   0  0  0  0  0  0  0  0  0  0  0  0
  -24.5429  -11.6738   20.7258 C   0  0  0  0  0  0  0  0  0  0  0  0
  -28.8910  -19.3310   18.4015 C   0  0  0  0  0  0  0  0  0  0  0  0
  -25.2554  -13.7367   20.4578 C   0  0  0  0  0  0  0  0  0  0  0  0
  -28.4291  -21.5405   18.1340 C   0  0  0  0  0  0  0  0  0  0  0  0
  -22.8780  -13.5728   21.2126 C   0  0  0  0  0  0  0  0  0  0  0  0
  -36.6266  -25.6889   18.4783 C   0  0  0  0  0  0  0  0  0  0  0  0
  -37.0178  -23.3189   20.6583 C   0  0  0  0  0  0  0  0  0  0  0  0
  -35.6632  -20.6749   22.3380 C   0  0  0  0  0  0  0  0  0  0  0  0
  -30.7567  -14.6440   20.6970 C   0  0  0  0  0  0  0  0  0  0  0  0
  -40.6602  -28.7177   17.6951 C   0  0  0  0  0  0  0  0  0  0  0  0
  -34.6434  -26.0627   19.9894 C   0  0  0  0  0  0  0  0  0  0  0  0
  -34.9326  -23.2163   19.2417 C   0  0  0  0  0  0  0  0  0  0  0  0
  -40.4512  -27.2468   18.0458 C   0  0  0  0  0  0  0  0  0  0  0  0
  -29.6002  -12.2249   18.3546 C   0  0  0  0  0  0  0  0  0  0  0  0
  -39.4278  -26.6146   17.1078 C   0  0  0  0  0  0  0  0  0  0  0  0
  -28.1511  -11.9726   18.7746 C   0  0  0  0  0  0  0  0  0  0  0  0
  -30.5057  -12.4563   19.5622 C   0  0  0  0  0  0  0  0  0  0  0  0
  -28.6017  -13.2621   20.9037 C   0  0  0  0  0  0  0  0  0  0  0  0
  -38.0621  -27.2996   17.2390 C   0  0  1  0  0  0  0  0  0  0  0  0
  -36.0128  -25.4116   19.8215 C   0  0  1  0  0  0  0  0  0  0  0  0
  -27.6399  -13.0786   19.7173 C   0  0  2  0  0  0  0  0  0  0  0  0
  -26.8742  -15.2977   16.1682 C   0  0  0  0  0  0  0  0  0  0  0  0
  -36.2389  -18.9101   24.0266 C   0  0  0  0  0  0  0  0  0  0  0  0
  -38.5469  -21.7730   18.5177 C   0  0  0  0  0  0  0  0  0  0  0  0
  -38.2634  -19.7084   19.9052 C   0  0  0  0  0  0  0  0  0  0  0  0
  -39.5451  -21.6490   20.8074 C   0  0  0  0  0  0  0  0  0  0  0  0
  -33.6206  -21.6625   24.2384 C   0  0  0  0  0  0  0  0  0  0  0  0
  -29.1222  -18.3297   20.7031 C   0  0  0  0  0  0  0  0  0  0  0  0
  -29.1611  -18.0034   17.7738 C   0  0  0  0  0  0  0  0  0  0  0  0
  -28.1777  -22.7084   17.2114 C   0  0  0  0  0  0  0  0  0  0  0  0
  -28.1541  -15.9647   16.6459 C   0  0  0  0  0  0  0  0  0  0  0  0
  -30.6095  -17.9584   20.8887 C   0  0  0  0  0  0  0  0  0  0  0  0
  -27.8766  -17.3404   17.2520 C   0  0  0  0  0  0  0  0  0  0  0  0
  -30.8522  -16.8231   21.8809 C   0  0  0  0  0  0  0  0  0  0  0  0
  -29.1575  -23.8532   17.4450 C   0  0  0  0  0  0  0  0  0  1  0  0
  -37.0300  -21.8102   20.6067 C   0  0  1  0  0  0  0  0  0  0  0  0
  -35.6731  -20.3050   23.8103 C   0  0  2  0  0  0  0  0  0  0  0  0
  -38.3237  -21.2501   19.9508 C   0  0  0  0  0  0  0  0  0  0  0  0
  -28.3888  -21.7981   19.4552 N   0  0  0  0  0  0  0  0  0  0  0  0
  -25.8109  -11.5408   20.3276 N   0  0  0  0  0  0  0  0  0  0  0  0
  -28.6699  -20.3522   17.5480 N   0  0  0  0  0  0  0  0  0  0  0  0
  -26.2170  -12.8125   20.1727 N   0  0  0  0  0  0  0  0  0  0  0  0
  -35.9699  -23.9564   19.9790 N   0  0  0  0  0  0  0  0  0  0  0  0
  -29.9656  -13.5182   20.4147 N   0  0  0  0  0  0  0  0  0  0  0  0
  -25.4953  -15.0612   20.3547 N   0  0  0  0  0  0  0  0  0  0  0  0
  -21.8424  -12.6940   21.5583 N   0  0  0  0  0  0  0  0  0  0  0  0
  -37.3815  -26.8454   18.4327 N   0  0  0  0  0  0  0  0  0  0  0  0
  -36.8073  -21.3532   21.9741 N   0  0  0  0  0  0  0  0  0  0  0  0
  -30.1665  -15.6061   21.5073 N   0  0  0  0  0  0  0  0  0  0  0  0
  -34.2896  -20.3419   24.3629 N   0  3  0  0  0  0  0  0  0  0  0  0
  -22.6675  -14.8092   21.2361 O   0  0  0  0  0  0  0  0  0  0  0  0
  -36.4310  -24.9105   17.5523 O   0  0  0  0  0  0  0  0  0  0  0  0
  -37.9013  -23.9098   21.2844 O   0  0  0  0  0  0  0  0  0  0  0  0
  -34.7353  -20.3875   21.5852 O   0  0  0  0  0  0  0  0  0  0  0  0
  -31.9022  -14.7839   20.2550 O   0  0  0  0  0  0  0  0  0  0  0  0
  -21.4483   -7.1423   21.8007 O   0  0  0  0  0  0  0  0  0  0  0  0
  -30.4900  -23.4050   17.2006 O   0  0  0  0  0  0  0  0  0  1  0  0
  -23.7540   -3.1107   24.7728 F   0  0  0  0  0  0  0  0  0  0  0  0
  -20.3517   -6.3535   24.2127 F   0  0  0  0  0  0  0  0  0  0  0  0
  1  2  1  0  0  0  0
  1  5  2  0  0  0  0
  2  6  2  0  0  0  0
  3  8  2  0  0  0  0
  3 16  1  0  0  0  0
  4  9  1  0  0  0  0
  4 16  2  0  0  0  0
  5 18  1  0  0  0  0
  6 20  1  0  0  0  0
  7 10  2  0  0  0  0
  7 19  1  0  0  0  0
  8 23  1  0  0  0  0
  9 23  2  0  0  0  0
 10 24  1  0  0  0  0
 11 12  2  0  0  0  0
 11 25  1  0  0  0  0
 12 26  1  0  0  0  0
 13 21  1  0  0  0  0
 13 24  2  0  0  0  0
 14 26  2  0  0  0  0
 14 27  1  0  0  0  0
 15 22  1  0  0  0  0
 15 66  2  0  0  0  0
 16 28  1  0  0  0  0
 17 28  1  0  0  0  0
 17 30  2  0  0  0  0
 17 32  1  0  0  0  0
 18 20  2  0  0  0  0
 18 37  1  0  0  0  0
 19 21  2  0  0  0  0
 19 38  1  0  0  0  0
 20 46  1  0  0  0  0
 21 39  1  0  0  0  0
 22 29  2  0  0  0  0
 22 55  1  0  0  0  0
 23 83  1  0  0  0  0
 24 84  1  0  0  0  0
 25 27  2  0  0  0  0
 25 83  1  0  0  0  0
 26 85  1  0  0  0  0
 27 86  1  0  0  0  0
 28 67  2  0  0  0  0
 29 56  1  0  0  0  0
 29 68  1  0  0  0  0
 30 69  1  0  0  0  0
 30 72  1  0  0  0  0
 31 57  1  0  0  0  0
 31 66  1  0  0  0  0
 31 68  2  0  0  0  0
 32 73  1  0  0  0  0
 32 78  2  0  0  0  0
 33 47  1  0  0  0  0
 33 74  1  0  0  0  0
 33 79  2  0  0  0  0
 34 63  1  0  0  0  0
 34 70  1  0  0  0  0
 34 80  2  0  0  0  0
 35 64  1  0  0  0  0
 35 75  1  0  0  0  0
 35 81  2  0  0  0  0
 36 71  1  0  0  0  0
 36 76  1  0  0  0  0
 36 82  2  0  0  0  0
 37 40  1  0  0  0  0
 38 47  1  0  0  0  0
 39 70  1  0  0  0  0
 40 42  1  0  0  0  0
 41 43  1  0  0  0  0
 41 44  1  0  0  0  0
 42 46  1  0  0  0  0
 43 48  1  0  0  0  0
 44 71  1  0  0  0  0
 45 48  1  0  0  0  0
 45 71  1  0  0  0  0
 46 74  1  0  0  0  0
 47 70  1  0  0  0  0
 48 69  1  0  0  0  0
 49 58  1  0  0  0  0
 50 64  1  0  0  0  0
 51 65  1  0  0  0  0
 52 65  1  0  0  0  0
 53 65  1  0  0  0  0
 54 77  1  0  0  0  0
 55 59  1  0  0  0  0
 56 60  1  0  0  0  0
 57 62  1  0  0  0  0
 58 60  1  0  0  0  0
 59 61  1  0  0  0  0
 61 76  1  0  0  0  0
 62 84  1  0  0  0  0
 63 65  1  0  0  0  0
 63 75  1  0  0  0  0
 64 77  1  0  0  0  0
 67 69  1  0  0  0  0
M  CHG  1  77   1
M  ISO  4  36 100  62 101  76 100  84 101
M  END
> <Batch ID>
0040

> <Smiles>
CCCCc1nc(C[101CH2:1][101O:1]c2ccc3c(c2)CN(C(=O)C(NC(=O)C(C)NC)C(C)(C)C)C(C(=O)NC2CCCc4ccccc42)C3)ncc1CCC[100NH:0][100C:0](=O)N1CCCC(n2nc(-c3ccc(Oc4ccc(F)cc4F)cc3)c(C(N)=O)c2N)C1

> <Shape>
0.239

> <Color>
0.197

> <Negative vol penalty>
0.000

$$$$

  -OEChem-04052317073D

 86 94  0     1  0  0  0  0  0999 V2000
  -25.1477  -31.5194   19.8325 C   0  0  0  0  0  0  0  0  0  0  0  0
  -25.0300  -30.1457   19.6467 C   0  0  0  0  0  0  0  0  0  0  0  0
  -26.4877  -12.4421   21.7369 C   0  0  0  0  0  0  0  0  0  0  0  0
  -25.8334  -13.7578   19.8191 C   0  0  0  0  0  0  0  0  0  0  0  0
  -24.7085  -32.1010   21.0211 C   0  0  0  0  0  0  0  0  0  0  0  0
  -24.4740  -29.3527   20.6499 C   0  0  0  0  0  0  0  0  0  0  0  0
  -21.1525  -25.9827   18.8455 C   0  0  0  0  0  0  0  0  0  0  0  0
  -25.2440  -11.8107   21.7281 C   0  0  0  0  0  0  0  0  0  0  0  0
  -24.5897  -13.1263   19.8102 C   0  0  0  0  0  0  0  0  0  0  0  0
  -21.6712  -24.8393   18.2392 C   0  0  0  0  0  0  0  0  0  0  0  0
  -23.7150   -9.3440   19.9930 C   0  0  0  0  0  0  0  0  0  0  0  0
  -23.6905   -7.9581   20.1489 C   0  0  0  0  0  0  0  0  0  0  0  0
  -21.2742  -23.5920   20.2655 C   0  0  0  0  0  0  0  0  0  0  0  0
  -22.3493   -8.2061   22.1431 C   0  0  0  0  0  0  0  0  0  0  0  0
  -26.0877  -22.0828   18.9724 C   0  0  0  0  0  0  0  0  0  0  0  0
  -26.7824  -13.4157   20.7825 C   0  0  0  0  0  0  0  0  0  0  0  0
  -29.2321  -13.6618   20.1145 C   0  0  0  0  0  0  0  0  0  0  0  0
  -24.1381  -31.3161   22.0354 C   0  0  0  0  0  0  0  0  0  0  0  0
  -20.7002  -25.9418   20.1722 C   0  0  0  0  0  0  0  0  0  0  0  0
  -24.0280  -29.9242   21.8537 C   0  0  0  0  0  0  0  0  0  0  0  0
  -20.7479  -24.7356   20.8855 C   0  0  0  0  0  0  0  0  0  0  0  0
  -24.2950  -12.1528   20.7647 C   0  0  0  0  0  0  0  0  0  0  0  0
  -21.7347  -23.6445   18.9501 C   0  0  0  0  0  0  0  0  0  0  0  0
  -23.0567  -10.1610   20.9122 C   0  0  0  0  0  0  0  0  0  0  0  0
  -23.0076   -7.3891   21.2239 C   0  0  0  0  0  0  0  0  0  0  0  0
  -22.3739   -9.5920   21.9872 C   0  0  0  0  0  0  0  0  0  0  0  0
  -28.0668  -14.0687   20.7915 C   0  0  0  0  0  0  0  0  0  0  0  0
  -26.6372  -21.8974   20.2246 C   0  0  0  0  0  0  0  0  0  0  0  0
  -24.9058  -21.4117   18.7337 C   0  0  0  0  0  0  0  0  0  0  0  0
  -30.1695  -14.6100   20.4442 C   0  0  0  0  0  0  0  0  0  0  0  0
  -24.9323  -20.5185   20.8238 C   0  0  0  0  0  0  0  0  0  0  0  0
  -29.4479  -12.5281   19.2637 C   0  0  0  0  0  0  0  0  0  0  0  0
  -21.5404  -27.3898   22.8742 C   0  0  0  0  0  0  0  0  0  0  0  0
  -18.9167  -25.8814   24.0418 C   0  0  0  0  0  0  0  0  0  0  0  0
  -16.7048  -23.2957   23.7799 C   0  0  0  0  0  0  0  0  0  0  0  0
  -29.7523  -20.3261   22.1772 C   0  0  0  0  0  0  0  0  0  0  0  0
  -23.7211  -31.9835   23.3220 C   0  0  0  0  0  0  0  0  0  0  0  0
  -20.1188  -27.1773   20.8031 C   0  0  0  0  0  0  0  0  0  0  0  0
  -20.2565  -24.6340   22.3056 C   0  0  0  0  0  0  0  0  0  0  0  0
  -22.8003  -31.1234   24.1838 C   0  0  0  0  0  0  0  0  0  0  0  0
  -31.3367  -17.6662   23.9353 C   0  0  0  0  0  0  0  0  0  0  0  0
  -23.3413  -29.7009   24.2877 C   0  0  0  0  0  0  0  0  0  0  0  0
  -30.7835  -16.4059   23.2679 C   0  0  0  0  0  0  0  0  0  0  0  0
  -30.2812  -18.7659   24.0272 C   0  0  0  0  0  0  0  0  0  0  0  0
  -29.0790  -17.8495   22.0807 C   0  0  0  0  0  0  0  0  0  0  0  0
  -23.4077  -29.0339   22.9085 C   0  0  1  0  0  0  0  0  0  0  0  0
  -20.1621  -27.1466   22.3277 C   0  0  1  0  0  0  0  0  0  0  0  0
  -30.1228  -16.7318   21.9149 C   0  0  2  0  0  0  0  0  0  0  0  0
  -24.1546  -15.0693   24.0391 C   0  0  0  0  0  0  0  0  0  0  0  0
  -14.6904  -22.3053   24.9019 C   0  0  0  0  0  0  0  0  0  0  0  0
  -20.7029  -24.7420   26.2374 C   0  0  0  0  0  0  0  0  0  0  0  0
  -18.9103  -23.0646   26.7288 C   0  0  0  0  0  0  0  0  0  0  0  0
  -18.4496  -25.4996   27.0140 C   0  0  0  0  0  0  0  0  0  0  0  0
  -15.0306  -23.6773   21.3695 C   0  0  0  0  0  0  0  0  0  0  0  0
  -27.9149  -22.5832   20.5757 C   0  0  0  0  0  0  0  0  0  0  0  0
  -24.2278  -21.5538   17.3927 C   0  0  0  0  0  0  0  0  0  0  0  0
  -24.2882  -19.6525   21.8529 C   0  0  0  0  0  0  0  0  0  0  0  0
  -24.8842  -15.9867   23.0707 C   0  0  0  0  0  0  0  0  0  0  0  0
  -24.9352  -18.2673   21.9858 C   0  0  0  0  0  0  0  0  0  0  0  0
  -24.2186  -17.3612   22.9919 C   0  0  0  0  0  0  0  0  0  0  0  0
  -29.1648  -21.7615   20.2397 C   0  0  0  0  0  0  0  0  0  0  0  0
  -23.2421  -22.7168   17.3617 C   0  0  0  0  0  0  0  0  0  1  0  0
  -18.6510  -24.5409   24.6833 C   0  0  1  0  0  0  0  0  0  0  0  0
  -15.1879  -23.2591   23.8269 C   0  0  2  0  0  0  0  0  0  0  0  0
  -19.1896  -24.4638   26.1398 C   0  0  0  0  0  0  0  0  0  0  0  0
  -28.2451  -15.1882   21.4979 N   0  0  0  0  0  0  0  0  0  0  0  0
  -26.0842  -21.1194   21.1781 N   0  0  0  0  0  0  0  0  0  0  0  0
  -24.2982  -20.6181   19.6400 N   0  0  0  0  0  0  0  0  0  0  0  0
  -29.5335  -15.4927   21.2668 N   0  0  0  0  0  0  0  0  0  0  0  0
  -19.7025  -25.8709   22.8806 N   0  0  0  0  0  0  0  0  0  0  0  0
  -29.6949  -19.0280   22.7105 N   0  0  0  0  0  0  0  0  0  0  0  0
  -31.4675  -14.7665   20.1078 N   0  0  0  0  0  0  0  0  0  0  0  0
  -28.3771  -11.6544   19.0305 N   0  0  0  0  0  0  0  0  0  0  0  0
  -22.0913  -28.5986   22.4937 N   0  0  0  0  0  0  0  0  0  0  0  0
  -17.2157  -24.3085   24.5638 N   0  0  0  0  0  0  0  0  0  0  0  0
  -29.1786  -20.4866   20.9218 N   0  0  0  0  0  0  0  0  0  0  0  0
  -14.6396  -22.8150   22.5143 N   0  3  0  0  0  0  0  0  0  0  0  0
  -30.5618  -12.2878   18.7394 O   0  0  0  0  0  0  0  0  0  0  0  0
  -22.0647  -26.5441   23.5895 O   0  0  0  0  0  0  0  0  0  0  0  0
  -18.4384  -26.8995   24.5481 O   0  0  0  0  0  0  0  0  0  0  0  0
  -17.3700  -22.5027   23.1173 O   0  0  0  0  0  0  0  0  0  0  0  0
  -30.2808  -21.2709   22.7730 O   0  0  0  0  0  0  0  0  0  0  0  0
  -23.0814  -11.5367   20.7557 O   0  0  0  0  0  0  0  0  0  0  0  0
  -22.2411  -22.5272   18.3609 O   0  0  0  0  0  0  0  0  0  1  0  0
  -22.9829   -6.0582   21.3726 F   0  0  0  0  0  0  0  0  0  0  0  0
  -21.7386  -10.3717   22.8729 F   0  0  0  0  0  0  0  0  0  0  0  0
  1  2  1  0  0  0  0
  1  5  2  0  0  0  0
  2  6  2  0  0  0  0
  3  8  2  0  0  0  0
  3 16  1  0  0  0  0
  4  9  1  0  0  0  0
  4 16  2  0  0  0  0
  5 18  1  0  0  0  0
  6 20  1  0  0  0  0
  7 10  2  0  0  0  0
  7 19  1  0  0  0  0
  8 22  1  0  0  0  0
  9 22  2  0  0  0  0
 10 23  1  0  0  0  0
 11 12  2  0  0  0  0
 11 24  1  0  0  0  0
 12 25  1  0  0  0  0
 13 21  1  0  0  0  0
 13 23  2  0  0  0  0
 14 25  2  0  0  0  0
 14 26  1  0  0  0  0
 15 28  1  0  0  0  0
 15 29  2  0  0  0  0
 16 27  1  0  0  0  0
 17 27  1  0  0  0  0
 17 30  2  0  0  0  0
 17 32  1  0  0  0  0
 18 20  2  0  0  0  0
 18 37  1  0  0  0  0
 19 21  2  0  0  0  0
 19 38  1  0  0  0  0
 20 46  1  0  0  0  0
 21 39  1  0  0  0  0
 22 83  1  0  0  0  0
 23 84  1  0  0  0  0
 24 26  2  0  0  0  0
 24 83  1  0  0  0  0
 25 85  1  0  0  0  0
 26 86  1  0  0  0  0
 27 66  2  0  0  0  0
 28 55  1  0  0  0  0
 28 67  2  0  0  0  0
 29 56  1  0  0  0  0
 29 68  1  0  0  0  0
 30 69  1  0  0  0  0
 30 72  1  0  0  0  0
 31 57  1  0  0  0  0
 31 67  1  0  0  0  0
 31 68  2  0  0  0  0
 32 73  1  0  0  0  0
 32 78  2  0  0  0  0
 33 47  1  0  0  0  0
 33 74  1  0  0  0  0
 33 79  2  0  0  0  0
 34 63  1  0  0  0  0
 34 70  1  0  0  0  0
 34 80  2  0  0  0  0
 35 64  1  0  0  0  0
 35 75  1  0  0  0  0
 35 81  2  0  0  0  0
 36 71  1  0  0  0  0
 36 76  1  0  0  0  0
 36 82  2  0  0  0  0
 37 40  1  0  0  0  0
 38 47  1  0  0  0  0
 39 70  1  0  0  0  0
 40 42  1  0  0  0  0
 41 43  1  0  0  0  0
 41 44  1  0  0  0  0
 42 46  1  0  0  0  0
 43 48  1  0  0  0  0
 44 71  1  0  0  0  0
 45 48  1  0  0  0  0
 45 71  1  0  0  0  0
 46 74  1  0  0  0  0
 47 70  1  0  0  0  0
 48 69  1  0  0  0  0
 49 58  1  0  0  0  0
 50 64  1  0  0  0  0
 51 65  1  0  0  0  0
 52 65  1  0  0  0  0
 53 65  1  0  0  0  0
 54 77  1  0  0  0  0
 55 61  1  0  0  0  0
 56 62  1  0  0  0  0
 57 59  1  0  0  0  0
 58 60  1  0  0  0  0
 59 60  1  0  0  0  0
 61 76  1  0  0  0  0
 62 84  1  0  0  0  0
 63 65  1  0  0  0  0
 63 75  1  0  0  0  0
 64 77  1  0  0  0  0
 66 69  1  0  0  0  0
M  CHG  1  77   1
M  ISO  4  36 100  62 101  76 100  84 101
M  END
> <Batch ID>
0040

> <Smiles>
CCCCCc1nc(CC[100NH:0][100C:0](=O)N2CCCC(n3nc(-c4ccc(Oc5ccc(F)cc5F)cc4)c(C(N)=O)c3N)C2)cc(C[101CH2:1][101O:1]c2ccc3c(c2)CN(C(=O)C(NC(=O)C(C)NC)C(C)(C)C)C(C(=O)NC2CCCc4ccccc42)C3)n1

> <Shape>
0.234

> <Color>
0.066

> <Negative vol penalty>
0.000

$$$$

  -OEChem-04052317073D

 84 92  0     1  0  0  0  0  0999 V2000
  -27.3394  -35.9708   21.1670 C   0  0  0  0  0  0  0  0  0  0  0  0
  -28.1488  -34.8435   21.2651 C   0  0  0  0  0  0  0  0  0  0  0  0
  -23.5691   -9.6677   21.4023 C   0  0  0  0  0  0  0  0  0  0  0  0
  -24.2351  -10.6829   23.4911 C   0  0  0  0  0  0  0  0  0  0  0  0
  -25.9848  -35.8848   21.4859 C   0  0  0  0  0  0  0  0  0  0  0  0
  -27.6042  -33.6298   21.6831 C   0  0  0  0  0  0  0  0  0  0  0  0
  -29.2011  -28.0302   19.7856 C   0  0  0  0  0  0  0  0  0  0  0  0
  -22.9952   -8.6059   22.1013 C   0  0  0  0  0  0  0  0  0  0  0  0
  -23.6611   -9.6210   24.1901 C   0  0  0  0  0  0  0  0  0  0  0  0
  -30.0342  -27.0561   20.3340 C   0  0  0  0  0  0  0  0  0  0  0  0
  -20.5663   -8.6463   25.1351 C   0  0  0  0  0  0  0  0  0  0  0  0
  -19.7812   -8.9531   26.2464 C   0  0  0  0  0  0  0  0  0  0  0  0
  -28.1144  -25.9770   21.3183 C   0  0  0  0  0  0  0  0  0  0  0  0
  -21.2674   -7.6669   27.6514 C   0  0  0  0  0  0  0  0  0  0  0  0
  -32.9509  -22.9026   21.3958 C   0  0  0  0  0  0  0  0  0  0  0  0
  -24.1892  -10.7062   22.0972 C   0  0  0  0  0  0  0  0  0  0  0  0
  -24.1584  -13.0046   20.9909 C   0  0  0  0  0  0  0  0  0  0  0  0
  -25.4213  -34.6671   21.8988 C   0  0  0  0  0  0  0  0  0  0  0  0
  -27.8173  -27.9911   20.0088 C   0  0  0  0  0  0  0  0  0  0  0  0
  -26.2411  -33.5277   22.0091 C   0  0  0  0  0  0  0  0  0  0  0  0
  -27.2656  -26.9503   20.7694 C   0  0  0  0  0  0  0  0  0  0  0  0
  -23.0411   -8.5826   23.4952 C   0  0  0  0  0  0  0  0  0  0  0  0
  -29.4912  -26.0309   21.1029 C   0  0  0  0  0  0  0  0  0  0  0  0
  -21.7020   -7.8497   25.2819 C   0  0  0  0  0  0  0  0  0  0  0  0
  -20.1317   -8.4634   27.5045 C   0  0  0  0  0  0  0  0  0  0  0  0
  -22.0525   -7.3601   26.5400 C   0  0  0  0  0  0  0  0  0  0  0  0
  -24.7828  -11.8030   21.3756 C   0  0  0  0  0  0  0  0  0  0  0  0
  -32.4152  -24.0433   22.0233 C   0  0  0  0  0  0  0  0  0  0  0  0
  -33.4947  -22.1697   22.4222 C   0  0  0  0  0  0  0  0  0  0  0  0
  -25.1404  -13.7079   20.3370 C   0  0  0  0  0  0  0  0  0  0  0  0
  -22.8111  -13.4457   21.2056 C   0  0  0  0  0  0  0  0  0  0  0  0
  -25.7163  -29.9191   21.4134 C   0  0  0  0  0  0  0  0  0  0  0  0
  -30.4297  -15.5116   20.0930 C   0  0  0  0  0  0  0  0  0  0  0  0
  -23.5683  -27.7826   20.2542 C   0  0  0  0  0  0  0  0  0  0  0  0
  -22.9346  -24.6096   19.1691 C   0  0  0  0  0  0  0  0  0  0  0  0
  -23.9620  -34.6341   22.2782 C   0  0  0  0  0  0  0  0  0  0  0  0
  -26.9292  -29.0344   19.3880 C   0  0  0  0  0  0  0  0  0  0  0  0
  -25.7840  -26.8517   21.0218 C   0  0  0  0  0  0  0  0  0  0  0  0
  -23.3839  -33.2233   22.3534 C   0  0  0  0  0  0  0  0  0  0  0  0
  -29.7090  -12.2783   18.7269 C   0  0  0  0  0  0  0  0  0  0  0  0
  -24.3203  -32.3034   23.1304 C   0  0  0  0  0  0  0  0  0  0  0  0
  -28.3251  -11.9523   19.2871 C   0  0  0  0  0  0  0  0  0  0  0  0
  -30.5449  -13.0686   19.7288 C   0  0  0  0  0  0  0  0  0  0  0  0
  -28.5039  -13.9961   20.7756 C   0  0  0  0  0  0  0  0  0  0  0  0
  -25.6822  -32.1875   22.4351 C   0  0  1  0  0  0  0  0  0  0  0  0
  -25.5926  -29.1862   20.1075 C   0  0  1  0  0  0  0  0  0  0  0  0
  -27.6158  -13.2247   19.7833 C   0  0  2  0  0  0  0  0  0  0  0  0
  -21.0759  -23.1517   18.3224 C   0  0  0  0  0  0  0  0  0  0  0  0
  -29.4351  -19.2063   20.4310 C   0  0  0  0  0  0  0  0  0  0  0  0
  -22.4787  -27.5272   23.0928 C   0  0  0  0  0  0  0  0  0  0  0  0
  -21.3171  -25.4259   22.3833 C   0  0  0  0  0  0  0  0  0  0  0  0
  -20.7298  -27.5981   21.3065 C   0  0  0  0  0  0  0  0  0  0  0  0
  -33.6425  -22.5311   24.9045 C   0  0  0  0  0  0  0  0  0  0  0  0
  -24.3050  -24.1650   16.5839 C   0  0  0  0  0  0  0  0  0  0  0  0
  -31.6999  -25.1922   21.3754 C   0  0  0  0  0  0  0  0  0  1  0  0
  -34.2016  -20.8759   22.4196 C   0  0  0  0  0  0  0  0  0  0  0  0
  -29.6275  -16.6886   20.5882 C   0  0  0  0  0  0  0  0  0  0  0  0
  -33.2932  -19.6356   22.5887 C   0  0  0  0  0  0  0  0  0  0  0  0
  -32.2858  -19.4831   21.4435 C   0  0  0  0  0  0  0  0  0  0  0  0
  -31.4207  -18.2328   21.6320 C   0  0  0  0  0  0  0  0  0  0  0  0
  -22.9458  -26.5067   20.7677 C   0  0  1  0  0  0  0  0  0  0  0  0
  -22.2090  -24.0913   17.9405 C   0  0  2  0  0  0  0  0  0  0  0  0
  -30.3975  -18.0149   20.4986 C   0  0  2  0  0  0  0  0  0  0  0  0
  -21.8960  -26.7672   21.8846 C   0  0  0  0  0  0  0  0  0  0  0  0
  -26.0624  -11.7428   20.9974 N   0  0  0  0  0  0  0  0  0  0  0  0
  -32.6016  -24.0397   23.3459 N   0  0  0  0  0  0  0  0  0  0  0  0
  -33.2605  -22.8877   23.5579 N   0  0  0  0  0  0  0  0  0  0  0  0
  -26.2500  -12.9154   20.3682 N   0  0  0  0  0  0  0  0  0  0  0  0
  -24.9580  -27.8991   20.3987 N   0  0  0  0  0  0  0  0  0  0  0  0
  -29.8274  -14.2573   20.1930 N   0  0  0  0  0  0  0  0  0  0  0  0
  -25.1543  -14.9205   19.7440 N   0  0  0  0  0  0  0  0  0  0  0  0
  -21.9330  -12.5994   21.8961 N   0  0  0  0  0  0  0  0  0  0  0  0
  -25.5965  -31.2912   21.3021 N   0  0  0  0  0  0  0  0  0  0  0  0
  -22.4154  -25.8124   19.5993 N   0  0  0  0  0  0  0  0  0  0  0  0
  -23.1530  -23.3534   17.0544 N   0  3  0  0  0  0  0  0  0  0  0  0
  -22.3937  -14.5505   20.7828 O   0  0  0  0  0  0  0  0  0  0  0  0
  -25.9050  -29.2864   22.4458 O   0  0  0  0  0  0  0  0  0  0  0  0
  -31.5565  -15.7037   19.6287 O   0  0  0  0  0  0  0  0  0  0  0  0
  -22.8489  -28.6411   19.7373 O   0  0  0  0  0  0  0  0  0  0  0  0
  -23.8661  -24.0060   19.6968 O   0  0  0  0  0  0  0  0  0  0  0  0
  -22.4809   -7.5467   24.1777 O   0  0  0  0  0  0  0  0  0  0  0  0
  -30.3022  -25.0792   21.6399 O   0  0  0  0  0  0  0  0  0  1  0  0
  -19.3785   -8.7594   28.5719 F   0  0  0  0  0  0  0  0  0  0  0  0
  -23.1430   -6.5953   26.6875 F   0  0  0  0  0  0  0  0  0  0  0  0
  1  2  1  0  0  0  0
  1  5  2  0  0  0  0
  2  6  2  0  0  0  0
  3  8  2  0  0  0  0
  3 16  1  0  0  0  0
  4  9  1  0  0  0  0
  4 16  2  0  0  0  0
  5 18  1  0  0  0  0
  6 20  1  0  0  0  0
  7 10  2  0  0  0  0
  7 19  1  0  0  0  0
  8 22  1  0  0  0  0
  9 22  2  0  0  0  0
 10 23  1  0  0  0  0
 11 12  2  0  0  0  0
 11 24  1  0  0  0  0
 12 25  1  0  0  0  0
 13 21  1  0  0  0  0
 13 23  2  0  0  0  0
 14 25  2  0  0  0  0
 14 26  1  0  0  0  0
 15 28  1  0  0  0  0
 15 29  2  0  0  0  0
 16 27  1  0  0  0  0
 17 27  1  0  0  0  0
 17 30  2  0  0  0  0
 17 31  1  0  0  0  0
 18 20  2  0  0  0  0
 18 36  1  0  0  0  0
 19 21  2  0  0  0  0
 19 37  1  0  0  0  0
 20 45  1  0  0  0  0
 21 38  1  0  0  0  0
 22 81  1  0  0  0  0
 23 82  1  0  0  0  0
 24 26  2  0  0  0  0
 24 81  1  0  0  0  0
 25 83  1  0  0  0  0
 26 84  1  0  0  0  0
 27 65  2  0  0  0  0
 28 55  1  0  0  0  0
 28 66  2  0  0  0  0
 29 56  1  0  0  0  0
 29 67  1  0  0  0  0
 30 68  1  0  0  0  0
 30 71  1  0  0  0  0
 31 72  1  0  0  0  0
 31 76  2  0  0  0  0
 32 46  1  0  0  0  0
 32 73  1  0  0  0  0
 32 77  2  0  0  0  0
 33 57  1  0  0  0  0
 33 70  1  0  0  0  0
 33 78  2  0  0  0  0
 34 61  1  0  0  0  0
 34 69  1  0  0  0  0
 34 79  2  0  0  0  0
 35 62  1  0  0  0  0
 35 74  1  0  0  0  0
 35 80  2  0  0  0  0
 36 39  1  0  0  0  0
 37 46  1  0  0  0  0
 38 69  1  0  0  0  0
 39 41  1  0  0  0  0
 40 42  1  0  0  0  0
 40 43  1  0  0  0  0
 41 45  1  0  0  0  0
 42 47  1  0  0  0  0
 43 70  1  0  0  0  0
 44 47  1  0  0  0  0
 44 70  1  0  0  0  0
 45 73  1  0  0  0  0
 46 69  1  0  0  0  0
 47 68  1  0  0  0  0
 48 62  1  0  0  0  0
 49 63  1  0  0  0  0
 50 64  1  0  0  0  0
 51 64  1  0  0  0  0
 52 64  1  0  0  0  0
 53 67  1  0  0  0  0
 54 75  1  0  0  0  0
 55 82  1  0  0  0  0
 56 58  1  0  0  0  0
 57 63  1  0  0  0  0
 58 59  1  0  0  0  0
 59 60  1  0  0  0  0
 60 63  1  0  0  0  0
 61 64  1  0  0  0  0
 61 74  1  0  0  0  0
 62 75  1  0  0  0  0
 65 68  1  0  0  0  0
 66 67  1  0  0  0  0
M  CHG  1  75   1
M  ISO  4  33 100  55 101  57 100  82 101
M  END
> <Batch ID>
0040

> <Smiles>
CNC(C)C(=O)NC(C(=O)N1Cc2cc([101O:1][101CH2:1]c3cc(CCCCC(C)[100CH2:0][100C:0](=O)N4CCCC(n5nc(-c6ccc(Oc7ccc(F)cc7F)cc6)c(C(N)=O)c5N)C4)n(C)n3)ccc2CC1C(=O)NC1CCCc2ccccc21)C(C)(C)C

> <Shape>
0.254

> <Color>
0.136

> <Negative vol penalty>
0.000

$$$$

  -OEChem-04052317073D

 85 93  0     1  0  0  0  0  0999 V2000
  -21.4886  -23.0771   19.3912 C   0  0  0  0  0  0  0  0  0  0  0  0
  -22.5712  -22.5317   18.7087 C   0  0  0  0  0  0  0  0  0  0  0  0
  -26.4534  -28.0261   18.7980 C   0  0  0  0  0  0  0  0  0  0  0  0
  -26.3500  -27.4711   21.1471 C   0  0  0  0  0  0  0  0  0  0  0  0
  -21.0717  -22.5155   20.5974 C   0  0  0  0  0  0  0  0  0  0  0  0
  -23.2383  -21.4249   19.2325 C   0  0  0  0  0  0  0  0  0  0  0  0
  -25.7930  -16.8359   16.0828 C   0  0  0  0  0  0  0  0  0  0  0  0
  -25.4162  -28.9429   18.9689 C   0  0  0  0  0  0  0  0  0  0  0  0
  -25.3128  -28.3880   21.3181 C   0  0  0  0  0  0  0  0  0  0  0  0
  -27.1084  -16.5808   15.6976 C   0  0  0  0  0  0  0  0  0  0  0  0
  -24.9768  -31.7356   21.6358 C   0  0  0  0  0  0  0  0  0  0  0  0
  -25.0422  -32.5877   22.7382 C   0  0  0  0  0  0  0  0  0  0  0  0
  -27.3955  -15.1703   17.6333 C   0  0  0  0  0  0  0  0  0  0  0  0
  -22.9482  -31.6976   23.5505 C   0  0  0  0  0  0  0  0  0  0  0  0
  -31.7775  -16.2213   21.2095 C   0  0  0  0  0  0  0  0  0  0  0  0
  -26.9203  -27.2901   19.8871 C   0  0  0  0  0  0  0  0  0  0  0  0
  -29.3723  -26.5886   19.8302 C   0  0  0  0  0  0  0  0  0  0  0  0
  -21.7280  -21.3953   21.1314 C   0  0  0  0  0  0  0  0  0  0  0  0
  -25.2715  -16.2678   17.2541 C   0  0  0  0  0  0  0  0  0  0  0  0
  -22.8307  -20.8486   20.4476 C   0  0  0  0  0  0  0  0  0  0  0  0
  -26.0724  -15.4177   18.0299 C   0  0  0  0  0  0  0  0  0  0  0  0
  -32.0312  -17.5729   21.3231 C   0  0  0  0  0  0  0  0  0  0  0  0
  -24.8459  -29.1239   20.2289 C   0  0  0  0  0  0  0  0  0  0  0  0
  -27.9108  -15.7503   16.4743 C   0  0  0  0  0  0  0  0  0  0  0  0
  -23.8970  -30.8645   21.4907 C   0  0  0  0  0  0  0  0  0  0  0  0
  -24.0279  -32.5687   23.6955 C   0  0  0  0  0  0  0  0  0  0  0  0
  -22.8827  -30.8455   22.4480 C   0  0  0  0  0  0  0  0  0  0  0  0
  -27.9913  -26.3425   19.7110 C   0  0  0  0  0  0  0  0  0  0  0  0
  -32.4871  -18.1932   20.1779 C   0  0  0  0  0  0  0  0  0  0  0  0
  -29.9609  -25.3751   19.5703 C   0  0  0  0  0  0  0  0  0  0  0  0
  -32.4003  -16.2370   19.0234 C   0  0  0  0  0  0  0  0  0  0  0  0
  -30.0613  -27.8052   20.1476 C   0  0  0  0  0  0  0  0  0  0  0  0
  -24.1217  -17.4175   19.9854 C   0  0  0  0  0  0  0  0  0  0  0  0
  -23.4214  -14.3010   20.5505 C   0  0  0  0  0  0  0  0  0  0  0  0
  -24.0915  -11.0176   19.9043 C   0  0  0  0  0  0  0  0  0  0  0  0
  -28.0402  -19.7246   20.0534 C   0  0  0  0  0  0  0  0  0  0  0  0
  -21.2707  -20.8520   22.4619 C   0  0  0  0  0  0  0  0  0  0  0  0
  -23.8423  -16.5314   17.6417 C   0  0  0  0  0  0  0  0  0  0  0  0
  -25.5539  -14.7670   19.2854 C   0  0  0  0  0  0  0  0  0  0  0  0
  -21.7965  -19.4504   22.7607 C   0  0  0  0  0  0  0  0  0  0  0  0
  -29.2671  -21.3252   17.1192 C   0  0  0  0  0  0  0  0  0  0  0  0
  -23.2885  -19.3636   22.4553 C   0  0  0  0  0  0  0  0  0  0  0  0
  -29.2039  -22.8148   17.4615 C   0  0  0  0  0  0  0  0  0  0  0  0
  -28.0922  -20.5575   17.7210 C   0  0  0  0  0  0  0  0  0  0  0  0
  -27.8492  -22.2288   19.5159 C   0  0  0  0  0  0  0  0  0  0  0  0
  -23.5644  -19.6330   20.9711 C   0  0  1  0  0  0  0  0  0  0  0  0
  -23.5758  -16.3112   19.1276 C   0  0  1  0  0  0  0  0  0  0  0  0
  -29.0434  -23.0354   18.9777 C   0  0  2  0  0  0  0  0  0  0  0  0
  -32.7946  -19.6543   20.1824 C   0  0  0  0  0  0  0  0  0  0  0  0
  -23.3792   -8.6985   20.5458 C   0  0  0  0  0  0  0  0  0  0  0  0
  -24.9291  -14.5704   23.1894 C   0  0  0  0  0  0  0  0  0  0  0  0
  -25.0073  -12.0714   23.3196 C   0  0  0  0  0  0  0  0  0  0  0  0
  -22.8093  -13.2509   23.3291 C   0  0  0  0  0  0  0  0  0  0  0  0
  -23.2748  -10.3768   17.1328 C   0  0  0  0  0  0  0  0  0  0  0  0
  -31.8196  -18.2898   22.6064 C   0  0  0  0  0  0  0  0  0  0  0  0
  -32.6068  -15.4871   17.7317 C   0  0  0  0  0  0  0  0  0  0  0  0
  -30.5228  -19.1189   22.6099 C   0  0  0  0  0  0  0  0  0  0  0  0
  -31.5082  -15.7317   16.6950 C   0  0  0  0  0  0  0  0  0  0  0  0
  -29.2816  -18.2407   22.4257 C   0  0  0  0  0  0  0  0  0  0  0  0
  -27.9863  -19.0458   22.4399 C   0  0  0  0  0  0  0  0  0  0  0  0
  -30.1359  -15.2419   17.1425 C   0  0  0  0  0  0  0  0  0  1  0  0
  -24.1474  -13.1404   21.1869 C   0  0  1  0  0  0  0  0  0  0  0  0
  -23.1800   -9.8499   19.5725 C   0  0  2  0  0  0  0  0  0  0  0  0
  -24.2340  -13.2719   22.7337 C   0  0  0  0  0  0  0  0  0  0  0  0
  -31.9516  -15.5191   20.0707 N   0  0  0  0  0  0  0  0  0  0  0  0
  -27.7188  -25.0726   19.3995 N   0  0  0  0  0  0  0  0  0  0  0  0
  -32.6839  -17.5534   19.0064 N   0  0  0  0  0  0  0  0  0  0  0  0
  -28.9367  -24.5098   19.3206 N   0  0  0  0  0  0  0  0  0  0  0  0
  -24.1520  -15.0606   19.6258 N   0  0  0  0  0  0  0  0  0  0  0  0
  -27.9966  -20.8085   19.1611 N   0  0  0  0  0  0  0  0  0  0  0  0
  -31.2496  -24.9746   19.5331 N   0  0  0  0  0  0  0  0  0  0  0  0
  -29.3033  -28.9597   20.3862 N   0  0  0  0  0  0  0  0  0  0  0  0
  -23.2428  -18.4664   20.1774 N   0  0  0  0  0  0  0  0  0  0  0  0
  -23.4697  -11.9332   20.7268 N   0  0  0  0  0  0  0  0  0  0  0  0
  -27.9497  -20.0509   21.4010 N   0  0  0  0  0  0  0  0  0  0  0  0
  -23.4550   -9.3534   18.1945 N   0  3  0  0  0  0  0  0  0  0  0  0
  -31.3129  -27.8705   20.2013 O   0  0  0  0  0  0  0  0  0  0  0  0
  -25.2557  -17.3255   20.4406 O   0  0  0  0  0  0  0  0  0  0  0  0
  -22.2469  -14.5209   20.8570 O   0  0  0  0  0  0  0  0  0  0  0  0
  -25.2413  -11.1067   19.4796 O   0  0  0  0  0  0  0  0  0  0  0  0
  -28.1568  -18.5533   19.6773 O   0  0  0  0  0  0  0  0  0  0  0  0
  -23.8339  -30.0186   20.3961 O   0  0  0  0  0  0  0  0  0  0  0  0
  -29.1953  -15.5002   16.1009 O   0  0  0  0  0  0  0  0  0  1  0  0
  -24.0917  -33.3860   24.7549 F   0  0  0  0  0  0  0  0  0  0  0  0
  -21.8435  -30.0101   22.3147 F   0  0  0  0  0  0  0  0  0  0  0  0
  1  2  1  0  0  0  0
  1  5  2  0  0  0  0
  2  6  2  0  0  0  0
  3  8  2  0  0  0  0
  3 16  1  0  0  0  0
  4  9  1  0  0  0  0
  4 16  2  0  0  0  0
  5 18  1  0  0  0  0
  6 20  1  0  0  0  0
  7 10  2  0  0  0  0
  7 19  1  0  0  0  0
  8 23  1  0  0  0  0
  9 23  2  0  0  0  0
 10 24  1  0  0  0  0
 11 12  2  0  0  0  0
 11 25  1  0  0  0  0
 12 26  1  0  0  0  0
 13 21  1  0  0  0  0
 13 24  2  0  0  0  0
 14 26  2  0  0  0  0
 14 27  1  0  0  0  0
 15 22  1  0  0  0  0
 15 65  2  0  0  0  0
 16 28  1  0  0  0  0
 17 28  1  0  0  0  0
 17 30  2  0  0  0  0
 17 32  1  0  0  0  0
 18 20  2  0  0  0  0
 18 37  1  0  0  0  0
 19 21  2  0  0  0  0
 19 38  1  0  0  0  0
 20 46  1  0  0  0  0
 21 39  1  0  0  0  0
 22 29  2  0  0  0  0
 22 55  1  0  0  0  0
 23 82  1  0  0  0  0
 24 83  1  0  0  0  0
 25 27  2  0  0  0  0
 25 82  1  0  0  0  0
 26 84  1  0  0  0  0
 27 85  1  0  0  0  0
 28 66  2  0  0  0  0
 29 49  1  0  0  0  0
 29 67  1  0  0  0  0
 30 68  1  0  0  0  0
 30 71  1  0  0  0  0
 31 56  1  0  0  0  0
 31 65  1  0  0  0  0
 31 67  2  0  0  0  0
 32 72  1  0  0  0  0
 32 77  2  0  0  0  0
 33 47  1  0  0  0  0
 33 73  1  0  0  0  0
 33 78  2  0  0  0  0
 34 62  1  0  0  0  0
 34 69  1  0  0  0  0
 34 79  2  0  0  0  0
 35 63  1  0  0  0  0
 35 74  1  0  0  0  0
 35 80  2  0  0  0  0
 36 70  1  0  0  0  0
 36 75  1  0  0  0  0
 36 81  2  0  0  0  0
 37 40  1  0  0  0  0
 38 47  1  0  0  0  0
 39 69  1  0  0  0  0
 40 42  1  0  0  0  0
 41 43  1  0  0  0  0
 41 44  1  0  0  0  0
 42 46  1  0  0  0  0
 43 48  1  0  0  0  0
 44 70  1  0  0  0  0
 45 48  1  0  0  0  0
 45 70  1  0  0  0  0
 46 73  1  0  0  0  0
 47 69  1  0  0  0  0
 48 68  1  0  0  0  0
 50 63  1  0  0  0  0
 51 64  1  0  0  0  0
 52 64  1  0  0  0  0
 53 64  1  0  0  0  0
 54 76  1  0  0  0  0
 55 57  1  0  0  0  0
 56 58  1  0  0  0  0
 57 59  1  0  0  0  0
 58 61  1  0  0  0  0
 59 60  1  0  0  0  0
 60 75  1  0  0  0  0
 61 83  1  0  0  0  0
 62 64  1  0  0  0  0
 62 74  1  0  0  0  0
 63 76  1  0  0  0  0
 66 68  1  0  0  0  0
M  CHG  1  76   1
M  ISO  4  36 100  61 101  75 100  83 101
M  END
> <Batch ID>
0040

> <Smiles>
CNC(C)C(=O)NC(C(=O)N1Cc2cc([101O:1][101CH2:1]CCc3ncc(CCCC[100NH:0][100C:0](=O)N4CCCC(n5nc(-c6ccc(Oc7ccc(F)cc7F)cc6)c(C(N)=O)c5N)C4)c(C)n3)ccc2CC1C(=O)NC1CCCc2ccccc21)C(C)(C)C

> <Shape>
0.216

> <Color>
0.063

> <Negative vol penalty>
0.000

$$$$

  -OEChem-04052317073D

 83 91  0     1  0  0  0  0  0999 V2000
  -16.9034  -24.9961   23.9273 C   0  0  0  0  0  0  0  0  0  0  0  0
  -17.5705  -24.3084   22.9186 C   0  0  0  0  0  0  0  0  0  0  0  0
  -25.7298  -12.5847   22.2693 C   0  0  0  0  0  0  0  0  0  0  0  0
  -25.7474  -13.6921   20.1221 C   0  0  0  0  0  0  0  0  0  0  0  0
  -17.2129  -26.3316   24.1814 C   0  0  0  0  0  0  0  0  0  0  0  0
  -18.5468  -24.9563   22.1626 C   0  0  0  0  0  0  0  0  0  0  0  0
  -23.6646  -22.4939   19.8713 C   0  0  0  0  0  0  0  0  0  0  0  0
  -24.6443  -11.8099   21.8608 C   0  0  0  0  0  0  0  0  0  0  0  0
  -24.6619  -12.9172   19.7136 C   0  0  0  0  0  0  0  0  0  0  0  0
  -23.9865  -22.0090   18.6044 C   0  0  0  0  0  0  0  0  0  0  0  0
  -22.0975   -9.2876   21.2551 C   0  0  0  0  0  0  0  0  0  0  0  0
  -22.1341   -7.9216   21.5346 C   0  0  0  0  0  0  0  0  0  0  0  0
  -24.9782  -24.1366   18.0486 C   0  0  0  0  0  0  0  0  0  0  0  0
  -24.1526   -7.7074   20.2243 C   0  0  0  0  0  0  0  0  0  0  0  0
  -28.7603  -21.7512   17.6240 C   0  0  0  0  0  0  0  0  0  0  0  0
  -26.2814  -13.5259   21.3999 C   0  0  0  0  0  0  0  0  0  0  0  0
  -28.7687  -14.0212   21.6748 C   0  0  0  0  0  0  0  0  0  0  0  0
  -18.2003  -26.9933   23.4345 C   0  0  0  0  0  0  0  0  0  0  0  0
  -23.9879  -23.8095   20.2331 C   0  0  0  0  0  0  0  0  0  0  0  0
  -18.8688  -26.3023   22.4060 C   0  0  0  0  0  0  0  0  0  0  0  0
  -24.6615  -24.6350   19.3216 C   0  0  0  0  0  0  0  0  0  0  0  0
  -29.4211  -20.8909   18.4665 C   0  0  0  0  0  0  0  0  0  0  0  0
  -24.1103  -11.9761   20.5830 C   0  0  0  0  0  0  0  0  0  0  0  0
  -24.6408  -22.8313   17.6918 C   0  0  0  0  0  0  0  0  0  0  0  0
  -23.0884   -9.8636   20.4600 C   0  0  0  0  0  0  0  0  0  0  0  0
  -23.1616   -7.1314   21.0193 C   0  0  0  0  0  0  0  0  0  0  0  0
  -24.1160   -9.0735   19.9447 C   0  0  0  0  0  0  0  0  0  0  0  0
  -27.4024  -14.3269   21.8215 C   0  0  0  0  0  0  0  0  0  0  0  0
  -29.3166  -19.6348   17.8396 C   0  0  0  0  0  0  0  0  0  0  0  0
  -29.4222  -15.0931   22.2320 C   0  0  0  0  0  0  0  0  0  0  0  0
  -29.3915  -12.8711   21.0872 C   0  0  0  0  0  0  0  0  0  0  0  0
  -22.3176  -26.3773   21.0818 C   0  0  0  0  0  0  0  0  0  0  0  0
  -25.2598  -27.6325   21.6207 C   0  0  0  0  0  0  0  0  0  0  0  0
  -28.6033  -27.5753   20.9389 C   0  0  0  0  0  0  0  0  0  0  0  0
  -27.8775  -20.8143   23.0881 C   0  0  0  0  0  0  0  0  0  0  0  0
  -18.4670  -28.4511   23.7143 C   0  0  0  0  0  0  0  0  0  0  0  0
  -23.6576  -24.3089   21.6130 C   0  0  0  0  0  0  0  0  0  0  0  0
  -25.0488  -26.0486   19.6681 C   0  0  0  0  0  0  0  0  0  0  0  0
  -19.7779  -28.9561   23.1170 C   0  0  0  0  0  0  0  0  0  0  0  0
  -28.8936  -18.4762   25.5736 C   0  0  0  0  0  0  0  0  0  0  0  0
  -19.9183  -28.4938   21.6701 C   0  0  0  0  0  0  0  0  0  0  0  0
  -28.7499  -17.1201   24.8806 C   0  0  0  0  0  0  0  0  0  0  0  0
  -27.7918  -19.4455   25.1510 C   0  0  0  0  0  0  0  0  0  0  0  0
  -27.5108  -18.2738   23.0011 C   0  0  0  0  0  0  0  0  0  0  0  0
  -19.9515  -26.9633   21.5807 C   0  0  1  0  0  0  0  0  0  0  0  0
  -23.5759  -25.8301   21.6942 C   0  0  1  0  0  0  0  0  0  0  0  0
  -28.6317  -17.2807   23.3530 C   0  0  2  0  0  0  0  0  0  0  0  0
  -29.8502  -18.3441   18.3089 C   0  0  0  0  0  0  0  0  0  0  0  0
  -31.0313  -28.1763   21.1403 C   0  0  0  0  0  0  0  0  0  0  0  0
  -24.4595  -29.9603   19.8176 C   0  0  0  0  0  0  0  0  0  0  0  0
  -26.8811  -30.5744   19.6532 C   0  0  0  0  0  0  0  0  0  0  0  0
  -25.7327  -30.6181   21.8672 C   0  0  0  0  0  0  0  0  0  0  0  0
  -29.0543  -25.5339   23.0337 C   0  0  0  0  0  0  0  0  0  0  0  0
  -30.0855  -21.2214   19.7385 C   0  0  0  0  0  0  0  0  0  0  0  0
  -29.4050  -22.3426   20.5632 C   0  0  0  0  0  0  0  0  0  0  0  0
  -26.2001  -20.7414   15.1951 C   0  0  0  0  0  0  0  0  0  0  0  0
  -27.5314  -21.4701   15.3913 C   0  0  0  0  0  0  0  0  0  0  0  0
  -27.9536  -22.0470   20.9355 C   0  0  0  0  0  0  0  0  0  0  0  0
  -25.2163  -20.9625   16.3381 C   0  0  0  0  0  0  0  0  0  1  0  0
  -26.2658  -28.3932   20.7912 C   0  0  1  0  0  0  0  0  0  0  0  0
  -29.8175  -27.5965   21.8497 C   0  0  2  0  0  0  0  0  0  0  0  0
  -25.8259  -29.8605   20.5248 C   0  0  0  0  0  0  0  0  0  0  0  0
  -27.1986  -15.5010   22.4248 N   0  0  0  0  0  0  0  0  0  0  0  0
  -28.6424  -19.6878   16.6878 N   0  0  0  0  0  0  0  0  0  0  0  0
  -28.3172  -20.9877   16.5843 N   0  0  0  0  0  0  0  0  0  0  0  0
  -28.4456  -15.9425   22.6621 N   0  0  0  0  0  0  0  0  0  0  0  0
  -24.6985  -26.4928   21.0273 N   0  0  0  0  0  0  0  0  0  0  0  0
  -27.7336  -19.5539   23.6913 N   0  0  0  0  0  0  0  0  0  0  0  0
  -30.7311  -15.3825   22.3911 N   0  0  0  0  0  0  0  0  0  0  0  0
  -28.5720  -11.8630   20.5615 N   0  0  0  0  0  0  0  0  0  0  0  0
  -21.2551  -26.4629   21.9611 N   0  0  0  0  0  0  0  0  0  0  0  0
  -27.5437  -28.2690   21.4841 N   0  0  0  0  0  0  0  0  0  0  0  0
  -27.8162  -20.8274   21.7000 N   0  0  0  0  0  0  0  0  0  0  0  0
  -30.1515  -26.2157   22.3000 N   0  3  0  0  0  0  0  0  0  0  0  0
  -30.6376  -12.7337   21.0450 O   0  0  0  0  0  0  0  0  0  0  0  0
  -22.3116  -26.6995   19.8995 O   0  0  0  0  0  0  0  0  0  0  0  0
  -24.9875  -28.0305   22.7560 O   0  0  0  0  0  0  0  0  0  0  0  0
  -28.5967  -27.0038   19.8508 O   0  0  0  0  0  0  0  0  0  0  0  0
  -28.0533  -21.8504   23.7382 O   0  0  0  0  0  0  0  0  0  0  0  0
  -23.0512  -11.2201   20.1840 O   0  0  0  0  0  0  0  0  0  0  0  0
  -24.9556  -22.3607   16.4544 O   0  0  0  0  0  0  0  0  0  1  0  0
  -23.1974   -5.8199   21.2892 F   0  0  0  0  0  0  0  0  0  0  0  0
  -25.0714   -9.6213   19.1813 F   0  0  0  0  0  0  0  0  0  0  0  0
  1  2  1  0  0  0  0
  1  5  2  0  0  0  0
  2  6  2  0  0  0  0
  3  8  2  0  0  0  0
  3 16  1  0  0  0  0
  4  9  1  0  0  0  0
  4 16  2  0  0  0  0
  5 18  1  0  0  0  0
  6 20  1  0  0  0  0
  7 10  2  0  0  0  0
  7 19  1  0  0  0  0
  8 23  1  0  0  0  0
  9 23  2  0  0  0  0
 10 24  1  0  0  0  0
 11 12  2  0  0  0  0
 11 25  1  0  0  0  0
 12 26  1  0  0  0  0
 13 21  1  0  0  0  0
 13 24  2  0  0  0  0
 14 26  2  0  0  0  0
 14 27  1  0  0  0  0
 15 22  2  0  0  0  0
 15 65  1  0  0  0  0
 16 28  1  0  0  0  0
 17 28  1  0  0  0  0
 17 30  2  0  0  0  0
 17 31  1  0  0  0  0
 18 20  2  0  0  0  0
 18 36  1  0  0  0  0
 19 21  2  0  0  0  0
 19 37  1  0  0  0  0
 20 45  1  0  0  0  0
 21 38  1  0  0  0  0
 22 29  1  0  0  0  0
 22 54  1  0  0  0  0
 23 80  1  0  0  0  0
 24 81  1  0  0  0  0
 25 27  2  0  0  0  0
 25 80  1  0  0  0  0
 26 82  1  0  0  0  0
 27 83  1  0  0  0  0
 28 63  2  0  0  0  0
 29 48  1  0  0  0  0
 29 64  2  0  0  0  0
 30 66  1  0  0  0  0
 30 69  1  0  0  0  0
 31 70  1  0  0  0  0
 31 75  2  0  0  0  0
 32 46  1  0  0  0  0
 32 71  1  0  0  0  0
 32 76  2  0  0  0  0
 33 60  1  0  0  0  0
 33 67  1  0  0  0  0
 33 77  2  0  0  0  0
 34 61  1  0  0  0  0
 34 72  1  0  0  0  0
 34 78  2  0  0  0  0
 35 68  1  0  0  0  0
 35 73  1  0  0  0  0
 35 79  2  0  0  0  0
 36 39  1  0  0  0  0
 37 46  1  0  0  0  0
 38 67  1  0  0  0  0
 39 41  1  0  0  0  0
 40 42  1  0  0  0  0
 40 43  1  0  0  0  0
 41 45  1  0  0  0  0
 42 47  1  0  0  0  0
 43 68  1  0  0  0  0
 44 47  1  0  0  0  0
 44 68  1  0  0  0  0
 45 71  1  0  0  0  0
 46 67  1  0  0  0  0
 47 66  1  0  0  0  0
 49 61  1  0  0  0  0
 50 62  1  0  0  0  0
 51 62  1  0  0  0  0
 52 62  1  0  0  0  0
 53 74  1  0  0  0  0
 54 55  1  0  0  0  0
 55 58  1  0  0  0  0
 56 57  1  0  0  0  0
 56 59  1  0  0  0  0
 57 65  1  0  0  0  0
 58 73  1  0  0  0  0
 59 81  1  0  0  0  0
 60 62  1  0  0  0  0
 60 72  1  0  0  0  0
 61 74  1  0  0  0  0
 63 66  1  0  0  0  0
 64 65  1  0  0  0  0
M  CHG  1  74   1
M  ISO  4  35 100  59 101  73 100  81 101
M  END
> <Batch ID>
0040

> <Smiles>
CNC(C)C(=O)NC(C(=O)N1Cc2cc([101O:1][101CH2:1]CCn3cc(CCC[100NH:0][100C:0](=O)N4CCCC(n5nc(-c6ccc(Oc7ccc(F)cc7F)cc6)c(C(N)=O)c5N)C4)c(C)n3)ccc2CC1C(=O)NC1CCCc2ccccc21)C(C)(C)C

> <Shape>
0.234

> <Color>
0.063

> <Negative vol penalty>
0.000

$$$$

  -OEChem-04052317073D

 83 91  0     1  0  0  0  0  0999 V2000
  -16.6977  -10.7522   24.5252 C   0  0  0  0  0  0  0  0  0  0  0  0
  -17.6966  -11.7161   24.4328 C   0  0  0  0  0  0  0  0  0  0  0  0
  -23.0741   -9.8697   19.9414 C   0  0  0  0  0  0  0  0  0  0  0  0
  -23.8384   -9.8746   22.2334 C   0  0  0  0  0  0  0  0  0  0  0  0
  -15.9982  -10.3632   23.3835 C   0  0  0  0  0  0  0  0  0  0  0  0
  -17.9975  -12.2907   23.1984 C   0  0  0  0  0  0  0  0  0  0  0  0
  -19.7581  -18.0629   22.1558 C   0  0  0  0  0  0  0  0  0  0  0  0
  -22.3312   -8.7160   20.1916 C   0  0  0  0  0  0  0  0  0  0  0  0
  -23.0954   -8.7209   22.4836 C   0  0  0  0  0  0  0  0  0  0  0  0
  -21.0113  -18.6393   21.9536 C   0  0  0  0  0  0  0  0  0  0  0  0
  -19.8687   -7.9213   23.0914 C   0  0  0  0  0  0  0  0  0  0  0  0
  -19.1140   -7.8799   24.2637 C   0  0  0  0  0  0  0  0  0  0  0  0
  -20.6833  -18.5006   19.5677 C   0  0  0  0  0  0  0  0  0  0  0  0
  -20.3576   -5.9421   24.9958 C   0  0  0  0  0  0  0  0  0  0  0  0
  -26.5833  -20.5928   20.7007 C   0  0  0  0  0  0  0  0  0  0  0  0
  -23.8278  -10.4490   20.9623 C   0  0  0  0  0  0  0  0  0  0  0  0
  -24.1685  -12.9744   20.8442 C   0  0  0  0  0  0  0  0  0  0  0  0
  -16.2841  -10.9403   22.1362 C   0  0  0  0  0  0  0  0  0  0  0  0
  -18.9613  -17.6904   21.0637 C   0  0  0  0  0  0  0  0  0  0  0  0
  -17.3022  -11.9080   22.0388 C   0  0  0  0  0  0  0  0  0  0  0  0
  -19.4193  -17.9220   19.7588 C   0  0  0  0  0  0  0  0  0  0  0  0
  -27.3257  -19.8884   19.7847 C   0  0  0  0  0  0  0  0  0  0  0  0
  -22.3418   -8.1417   21.4627 C   0  0  0  0  0  0  0  0  0  0  0  0
  -21.4754  -18.8556   20.6593 C   0  0  0  0  0  0  0  0  0  0  0  0
  -20.8678   -6.9731   22.8713 C   0  0  0  0  0  0  0  0  0  0  0  0
  -19.3584   -6.8903   25.2159 C   0  0  0  0  0  0  0  0  0  0  0  0
  -21.1122   -5.9835   23.8235 C   0  0  0  0  0  0  0  0  0  0  0  0
  -24.5959  -11.6404   20.7043 C   0  0  0  0  0  0  0  0  0  0  0  0
  -26.4138  -19.5749   18.7590 C   0  0  0  0  0  0  0  0  0  0  0  0
  -25.2596  -13.7247   20.4796 C   0  0  0  0  0  0  0  0  0  0  0  0
  -22.8986  -13.4893   21.2661 C   0  0  0  0  0  0  0  0  0  0  0  0
  -17.7692  -14.9467   19.9891 C   0  0  0  0  0  0  0  0  0  0  0  0
  -16.2619  -16.8825   17.8671 C   0  0  0  0  0  0  0  0  0  0  0  0
  -16.1932  -19.8628   16.2058 C   0  0  0  0  0  0  0  0  0  0  0  0
  -30.7433  -14.7456   20.6585 C   0  0  0  0  0  0  0  0  0  0  0  0
  -15.5336  -10.4534   20.9219 C   0  0  0  0  0  0  0  0  0  0  0  0
  -17.6005  -17.0943   21.2988 C   0  0  0  0  0  0  0  0  0  0  0  0
  -18.5939  -17.5587   18.5525 C   0  0  0  0  0  0  0  0  0  0  0  0
  -15.6573  -11.3820   19.7166 C   0  0  0  0  0  0  0  0  0  0  0  0
  -29.6021  -12.3631   18.2715 C   0  0  0  0  0  0  0  0  0  0  0  0
  -17.1103  -11.7974   19.5096 C   0  0  0  0  0  0  0  0  0  0  0  0
  -28.1656  -12.0684   18.7069 C   0  0  0  0  0  0  0  0  0  0  0  0
  -30.5214  -12.5831   19.4709 C   0  0  0  0  0  0  0  0  0  0  0  0
  -28.6220  -13.3120   20.8618 C   0  0  0  0  0  0  0  0  0  0  0  0
  -17.6406  -12.5724   20.7219 C   0  0  1  0  0  0  0  0  0  0  0  0
  -17.0910  -16.2818   20.1124 C   0  0  1  0  0  0  0  0  0  0  0  0
  -27.6457  -13.1382   19.6859 C   0  0  2  0  0  0  0  0  0  0  0  0
  -26.6733  -18.8240   17.5182 C   0  0  0  0  0  0  0  0  0  0  0  0
  -14.8582  -21.1420   14.5091 C   0  0  0  0  0  0  0  0  0  0  0  0
  -17.4207  -15.1410   15.6458 C   0  0  0  0  0  0  0  0  0  0  0  0
  -16.8700  -16.9661   14.0229 C   0  0  0  0  0  0  0  0  0  0  0  0
  -15.0445  -15.8368   15.2936 C   0  0  0  0  0  0  0  0  0  0  0  0
  -15.6256  -22.0429   18.1251 C   0  0  0  0  0  0  0  0  0  0  0  0
  -28.7551  -19.5443   19.8688 C   0  0  0  0  0  0  0  0  0  0  0  0
  -29.0340  -18.3681   20.8292 C   0  0  0  0  0  0  0  0  0  0  0  0
  -30.5276  -18.0477   20.9398 C   0  0  0  0  0  0  0  0  0  0  0  0
  -24.1288  -21.3287   20.8239 C   0  0  0  0  0  0  0  0  0  0  0  0
  -30.8107  -16.8949   21.8975 C   0  0  0  0  0  0  0  0  0  0  0  0
  -23.1655  -20.3282   21.4534 C   0  0  0  0  0  0  0  0  0  1  0  0
  -16.5912  -17.4319   16.5001 C   0  0  1  0  0  0  0  0  0  0  0  0
  -15.0781  -20.8698   15.9891 C   0  0  2  0  0  0  0  0  0  0  0  0
  -16.4982  -16.3491   15.3881 C   0  0  0  0  0  0  0  0  0  0  0  0
  -25.8600  -11.5455   20.2835 N   0  0  0  0  0  0  0  0  0  0  0  0
  -25.1858  -20.0418   19.0004 N   0  0  0  0  0  0  0  0  0  0  0  0
  -25.3209  -20.6557   20.1882 N   0  0  0  0  0  0  0  0  0  0  0  0
  -26.2362  -12.8294   20.1558 N   0  0  0  0  0  0  0  0  0  0  0  0
  -17.2730  -16.9728   18.8342 N   0  0  0  0  0  0  0  0  0  0  0  0
  -29.9722  -13.6105   20.3589 N   0  0  0  0  0  0  0  0  0  0  0  0
  -25.4694  -15.0563   20.4076 N   0  0  0  0  0  0  0  0  0  0  0  0
  -21.8877  -12.5794   21.6044 N   0  0  0  0  0  0  0  0  0  0  0  0
  -17.1545  -13.9354   20.7025 N   0  0  0  0  0  0  0  0  0  0  0  0
  -15.7082  -18.5752   16.2961 N   0  0  0  0  0  0  0  0  0  0  0  0
  -30.1454  -15.6733   21.5027 N   0  0  0  0  0  0  0  0  0  0  0  0
  -15.4068  -22.1591   16.6604 N   0  3  0  0  0  0  0  0  0  0  0  0
  -22.6620  -14.7198   21.3252 O   0  0  0  0  0  0  0  0  0  0  0  0
  -18.7749  -14.8415   19.2968 O   0  0  0  0  0  0  0  0  0  0  0  0
  -15.1461  -16.3978   18.0714 O   0  0  0  0  0  0  0  0  0  0  0  0
  -17.3766  -20.1857   16.2832 O   0  0  0  0  0  0  0  0  0  0  0  0
  -31.8784  -14.9220   20.2029 O   0  0  0  0  0  0  0  0  0  0  0  0
  -21.6167   -7.0160   21.7072 O   0  0  0  0  0  0  0  0  0  0  0  0
  -22.6985  -19.4174   20.4591 O   0  0  0  0  0  0  0  0  0  1  0  0
  -18.6347   -6.8516   26.3424 F   0  0  0  0  0  0  0  0  0  0  0  0
  -22.0715   -5.0706   23.6181 F   0  0  0  0  0  0  0  0  0  0  0  0
  1  2  1  0  0  0  0
  1  5  2  0  0  0  0
  2  6  2  0  0  0  0
  3  8  2  0  0  0  0
  3 16  1  0  0  0  0
  4  9  1  0  0  0  0
  4 16  2  0  0  0  0
  5 18  1  0  0  0  0
  6 20  1  0  0  0  0
  7 10  2  0  0  0  0
  7 19  1  0  0  0  0
  8 23  1  0  0  0  0
  9 23  2  0  0  0  0
 10 24  1  0  0  0  0
 11 12  2  0  0  0  0
 11 25  1  0  0  0  0
 12 26  1  0  0  0  0
 13 21  1  0  0  0  0
 13 24  2  0  0  0  0
 14 26  2  0  0  0  0
 14 27  1  0  0  0  0
 15 22  2  0  0  0  0
 15 65  1  0  0  0  0
 16 28  1  0  0  0  0
 17 28  1  0  0  0  0
 17 30  2  0  0  0  0
 17 31  1  0  0  0  0
 18 20  2  0  0  0  0
 18 36  1  0  0  0  0
 19 21  2  0  0  0  0
 19 37  1  0  0  0  0
 20 45  1  0  0  0  0
 21 38  1  0  0  0  0
 22 29  1  0  0  0  0
 22 54  1  0  0  0  0
 23 80  1  0  0  0  0
 24 81  1  0  0  0  0
 25 27  2  0  0  0  0
 25 80  1  0  0  0  0
 26 82  1  0  0  0  0
 27 83  1  0  0  0  0
 28 63  2  0  0  0  0
 29 48  1  0  0  0  0
 29 64  2  0  0  0  0
 30 66  1  0  0  0  0
 30 69  1  0  0  0  0
 31 70  1  0  0  0  0
 31 75  2  0  0  0  0
 32 46  1  0  0  0  0
 32 71  1  0  0  0  0
 32 76  2  0  0  0  0
 33 60  1  0  0  0  0
 33 67  1  0  0  0  0
 33 77  2  0  0  0  0
 34 61  1  0  0  0  0
 34 72  1  0  0  0  0
 34 78  2  0  0  0  0
 35 68  1  0  0  0  0
 35 73  1  0  0  0  0
 35 79  2  0  0  0  0
 36 39  1  0  0  0  0
 37 46  1  0  0  0  0
 38 67  1  0  0  0  0
 39 41  1  0  0  0  0
 40 42  1  0  0  0  0
 40 43  1  0  0  0  0
 41 45  1  0  0  0  0
 42 47  1  0  0  0  0
 43 68  1  0  0  0  0
 44 47  1  0  0  0  0
 44 68  1  0  0  0  0
 45 71  1  0  0  0  0
 46 67  1  0  0  0  0
 47 66  1  0  0  0  0
 49 61  1  0  0  0  0
 50 62  1  0  0  0  0
 51 62  1  0  0  0  0
 52 62  1  0  0  0  0
 53 74  1  0  0  0  0
 54 55  1  0  0  0  0
 55 56  1  0  0  0  0
 56 58  1  0  0  0  0
 57 59  1  0  0  0  0
 57 65  1  0  0  0  0
 58 73  1  0  0  0  0
 59 81  1  0  0  0  0
 60 62  1  0  0  0  0
 60 72  1  0  0  0  0
 61 74  1  0  0  0  0
 63 66  1  0  0  0  0
 64 65  1  0  0  0  0
M  CHG  1  74   1
M  ISO  4  35 100  59 101  73 100  81 101
M  END
> <Batch ID>
0040

> <Smiles>
CNC(C)C(=O)NC(C(=O)N1Cc2cc([101O:1][101CH2:1]Cn3cc(CCCC[100NH:0][100C:0](=O)N4CCCC(n5nc(-c6ccc(Oc7ccc(F)cc7F)cc6)c(C(N)=O)c5N)C4)c(C)n3)ccc2CC1C(=O)NC1CCCc2ccccc21)C(C)(C)C

> <Shape>
0.188

> <Color>
0.196

> <Negative vol penalty>
0.000

$$$$

  -OEChem-04052317073D

 83 91  0     1  0  0  0  0  0999 V2000
  -16.6860  -29.7831   24.5679 C   0  0  0  0  0  0  0  0  0  0  0  0
  -17.3201  -28.5569   24.7404 C   0  0  0  0  0  0  0  0  0  0  0  0
  -23.0571  -10.0243   21.5389 C   0  0  0  0  0  0  0  0  0  0  0  0
  -23.6832  -11.1740   23.5695 C   0  0  0  0  0  0  0  0  0  0  0  0
  -17.0837  -30.6333   23.5369 C   0  0  0  0  0  0  0  0  0  0  0  0
  -18.3516  -28.1797   23.8813 C   0  0  0  0  0  0  0  0  0  0  0  0
  -24.4830  -24.4761   23.8081 C   0  0  0  0  0  0  0  0  0  0  0  0
  -22.2695   -9.1436   22.2803 C   0  0  0  0  0  0  0  0  0  0  0  0
  -22.8956  -10.2934   24.3109 C   0  0  0  0  0  0  0  0  0  0  0  0
  -25.1151  -23.4532   23.1025 C   0  0  0  0  0  0  0  0  0  0  0  0
  -22.7353   -6.4115   24.2150 C   0  0  0  0  0  0  0  0  0  0  0  0
  -22.8288   -5.0520   23.9173 C   0  0  0  0  0  0  0  0  0  0  0  0
  -25.7709  -25.0372   21.4055 C   0  0  0  0  0  0  0  0  0  0  0  0
  -20.4738   -5.0079   23.3793 C   0  0  0  0  0  0  0  0  0  0  0  0
  -23.7640  -11.0395   22.1835 C   0  0  0  0  0  0  0  0  0  0  0  0
  -24.1794  -13.1731   20.8483 C   0  0  0  0  0  0  0  0  0  0  0  0
  -18.1271  -30.2705   22.6707 C   0  0  0  0  0  0  0  0  0  0  0  0
  -24.4808  -25.7875   23.3114 C   0  0  0  0  0  0  0  0  0  0  0  0
  -18.7627  -29.0252   22.8369 C   0  0  0  0  0  0  0  0  0  0  0  0
  -25.1403  -26.0755   22.1080 C   0  0  0  0  0  0  0  0  0  0  0  0
  -22.1887   -9.2782   23.6663 C   0  0  0  0  0  0  0  0  0  0  0  0
  -25.7567  -23.7331   21.8996 C   0  0  0  0  0  0  0  0  0  0  0  0
  -21.5111   -7.0692   24.0949 C   0  0  0  0  0  0  0  0  0  0  0  0
  -21.6981   -4.3502   23.4994 C   0  0  0  0  0  0  0  0  0  0  0  0
  -20.3804   -6.3675   23.6771 C   0  0  0  0  0  0  0  0  0  0  0  0
  -24.5782  -11.9492   21.4182 C   0  0  0  0  0  0  0  0  0  0  0  0
  -28.5621  -20.1788   19.1714 C   0  0  0  0  0  0  0  0  0  0  0  0
  -26.9504  -19.1168   21.0159 C   0  0  0  0  0  0  0  0  0  0  0  0
  -28.4328  -18.8135   19.3012 C   0  0  0  0  0  0  0  0  0  0  0  0
  -27.0803  -20.4821   20.8867 C   0  0  0  0  0  0  0  0  0  0  0  0
  -25.3104  -13.6491   20.2311 C   0  0  0  0  0  0  0  0  0  0  0  0
  -22.9011  -13.8219   20.8746 C   0  0  0  0  0  0  0  0  0  0  0  0
  -22.2298  -27.8308   22.3833 C   0  0  0  0  0  0  0  0  0  0  0  0
  -24.7345  -29.8784   22.1461 C   0  0  0  0  0  0  0  0  0  0  0  0
  -28.0957  -30.3099   21.7426 C   0  0  0  0  0  0  0  0  0  0  0  0
  -30.7993  -14.6575   20.2362 C   0  0  0  0  0  0  0  0  0  0  0  0
  -18.4903  -31.2020   21.5415 C   0  0  0  0  0  0  0  0  0  0  0  0
  -23.8174  -26.8846   24.0979 C   0  0  0  0  0  0  0  0  0  0  0  0
  -25.1842  -27.4705   21.5419 C   0  0  0  0  0  0  0  0  0  0  0  0
  -19.8430  -30.8907   20.9062 C   0  0  0  0  0  0  0  0  0  0  0  0
  -29.7382  -11.3960   19.2804 C   0  0  0  0  0  0  0  0  0  0  0  0
  -19.9747  -29.3951   20.6369 C   0  0  0  0  0  0  0  0  0  0  0  0
  -28.2709  -11.3482   19.7099 C   0  0  0  0  0  0  0  0  0  0  0  0
  -30.5900  -12.1894   20.2689 C   0  0  0  0  0  0  0  0  0  0  0  0
  -28.6316  -13.5022   20.9863 C   0  0  0  0  0  0  0  0  0  0  0  0
  -19.9024  -28.5913   21.9408 C   0  0  1  0  0  0  0  0  0  0  0  0
  -23.4365  -28.0878   23.2409 C   0  0  1  0  0  0  0  0  0  0  0  0
  -27.7227  -12.7602   19.9914 C   0  0  2  0  0  0  0  0  0  0  0  0
  -29.4590  -20.7806   18.1442 C   0  0  0  0  0  0  0  0  0  0  0  0
  -26.0535  -18.5147   22.0427 C   0  0  0  0  0  0  0  0  0  0  0  0
  -29.8429  -32.1010   21.5509 C   0  0  0  0  0  0  0  0  0  0  0  0
  -23.8494  -30.4315   19.2789 C   0  0  0  0  0  0  0  0  0  0  0  0
  -26.1002  -31.4416   18.8528 C   0  0  0  0  0  0  0  0  0  0  0  0
  -24.5821  -32.4548   20.5532 C   0  0  0  0  0  0  0  0  0  0  0  0
  -29.5048  -29.3566   24.1643 C   0  0  0  0  0  0  0  0  0  0  0  0
  -29.1841  -17.8745   18.4205 C   0  0  0  0  0  0  0  0  0  0  0  0
  -26.3250  -21.4272   21.7742 C   0  0  0  0  0  0  0  0  0  1  0  0
  -30.6573  -17.6618   18.8227 C   0  0  0  0  0  0  0  0  0  0  0  0
  -30.8510  -17.1387   20.2444 C   0  0  0  0  0  0  0  0  0  0  0  0
  -25.7121  -30.2501   21.0575 C   0  0  1  0  0  0  0  0  0  0  0  0
  -29.0984  -31.1677   22.4930 C   0  0  2  0  0  0  0  0  0  0  0  0
  -25.0586  -31.1178   19.9450 C   0  0  0  0  0  0  0  0  0  0  0  0
  -25.8621  -11.6652   21.1837 N   0  0  0  0  0  0  0  0  0  0  0  0
  -27.6244  -18.2580   20.2255 N   0  0  0  0  0  0  0  0  0  0  0  0
  -27.8885  -21.0376   19.9621 N   0  0  0  0  0  0  0  0  0  0  0  0
  -26.2799  -12.7175   20.4596 N   0  0  0  0  0  0  0  0  0  0  0  0
  -24.5157  -28.5078   22.3447 N   0  0  0  0  0  0  0  0  0  0  0  0
  -30.0169  -13.5191   20.4909 N   0  0  0  0  0  0  0  0  0  0  0  0
  -25.5601  -14.7695   19.5206 N   0  0  0  0  0  0  0  0  0  0  0  0
  -21.8475  -13.1948   21.5536 N   0  0  0  0  0  0  0  0  0  0  0  0
  -21.1614  -28.6654   22.6507 N   0  0  0  0  0  0  0  0  0  0  0  0
  -26.8432  -30.8861   21.7243 N   0  0  0  0  0  0  0  0  0  0  0  0
  -30.1775  -15.8786   20.4665 N   0  0  0  0  0  0  0  0  0  0  0  0
  -30.0970  -30.3081   23.1892 N   0  3  0  0  0  0  0  0  0  0  0  0
  -22.6948  -14.9170   20.2987 O   0  0  0  0  0  0  0  0  0  0  0  0
  -22.2659  -26.9421   21.5402 O   0  0  0  0  0  0  0  0  0  0  0  0
  -24.1906  -30.7711   22.8010 O   0  0  0  0  0  0  0  0  0  0  0  0
  -28.3946  -29.2377   21.2213 O   0  0  0  0  0  0  0  0  0  0  0  0
  -31.9638  -14.5907   19.8283 O   0  0  0  0  0  0  0  0  0  0  0  0
  -21.4201   -8.4191   24.3901 O   0  0  0  0  0  0  0  0  0  0  0  0
  -26.3738  -22.7364   21.2085 O   0  0  0  0  0  0  0  0  0  1  0  0
  -21.7883   -3.0451   23.2121 F   0  0  0  0  0  0  0  0  0  0  0  0
  -19.2018   -6.9942   23.5587 F   0  0  0  0  0  0  0  0  0  0  0  0
  1  2  1  0  0  0  0
  1  5  2  0  0  0  0
  2  6  2  0  0  0  0
  3  8  2  0  0  0  0
  3 15  1  0  0  0  0
  4  9  1  0  0  0  0
  4 15  2  0  0  0  0
  5 17  1  0  0  0  0
  6 19  1  0  0  0  0
  7 10  2  0  0  0  0
  7 18  1  0  0  0  0
  8 21  1  0  0  0  0
  9 21  2  0  0  0  0
 10 22  1  0  0  0  0
 11 12  2  0  0  0  0
 11 23  1  0  0  0  0
 12 24  1  0  0  0  0
 13 20  1  0  0  0  0
 13 22  2  0  0  0  0
 14 24  2  0  0  0  0
 14 25  1  0  0  0  0
 15 26  1  0  0  0  0
 16 26  1  0  0  0  0
 16 31  2  0  0  0  0
 16 32  1  0  0  0  0
 17 19  2  0  0  0  0
 17 37  1  0  0  0  0
 18 20  2  0  0  0  0
 18 38  1  0  0  0  0
 19 46  1  0  0  0  0
 20 39  1  0  0  0  0
 21 80  1  0  0  0  0
 22 81  1  0  0  0  0
 23 25  2  0  0  0  0
 23 80  1  0  0  0  0
 24 82  1  0  0  0  0
 25 83  1  0  0  0  0
 26 63  2  0  0  0  0
 27 29  1  0  0  0  0
 27 49  1  0  0  0  0
 27 65  2  0  0  0  0
 28 30  2  0  0  0  0
 28 50  1  0  0  0  0
 28 64  1  0  0  0  0
 29 56  1  0  0  0  0
 29 64  2  0  0  0  0
 30 57  1  0  0  0  0
 30 65  1  0  0  0  0
 31 66  1  0  0  0  0
 31 69  1  0  0  0  0
 32 70  1  0  0  0  0
 32 75  2  0  0  0  0
 33 47  1  0  0  0  0
 33 71  1  0  0  0  0
 33 76  2  0  0  0  0
 34 60  1  0  0  0  0
 34 67  1  0  0  0  0
 34 77  2  0  0  0  0
 35 61  1  0  0  0  0
 35 72  1  0  0  0  0
 35 78  2  0  0  0  0
 36 68  1  0  0  0  0
 36 73  1  0  0  0  0
 36 79  2  0  0  0  0
 37 40  1  0  0  0  0
 38 47  1  0  0  0  0
 39 67  1  0  0  0  0
 40 42  1  0  0  0  0
 41 43  1  0  0  0  0
 41 44  1  0  0  0  0
 42 46  1  0  0  0  0
 43 48  1  0  0  0  0
 44 68  1  0  0  0  0
 45 48  1  0  0  0  0
 45 68  1  0  0  0  0
 46 71  1  0  0  0  0
 47 67  1  0  0  0  0
 48 66  1  0  0  0  0
 51 61  1  0  0  0  0
 52 62  1  0  0  0  0
 53 62  1  0  0  0  0
 54 62  1  0  0  0  0
 55 74  1  0  0  0  0
 56 58  1  0  0  0  0
 57 81  1  0  0  0  0
 58 59  1  0  0  0  0
 59 73  1  0  0  0  0
 60 62  1  0  0  0  0
 60 72  1  0  0  0  0
 61 74  1  0  0  0  0
 63 66  1  0  0  0  0
M  CHG  1  74   1
M  ISO  4  36 100  57 101  73 100  81 101
M  END
> <Batch ID>
0040

> <Smiles>
CNC(C)C(=O)NC(C(=O)N1Cc2cc([101O:1][101CH2:1]c3nc(C)c(CCC[100NH:0][100C:0](=O)N4CCCC(n5nc(-c6ccc(Oc7ccc(F)cc7F)cc6)c(C(N)=O)c5N)C4)nc3C)ccc2CC1C(=O)NC1CCCc2ccccc21)C(C)(C)C

> <Shape>
0.296

> <Color>
0.161

> <Negative vol penalty>
0.000

$$$$

  -OEChem-04052317073D

 87 95  0     1  0  0  0  0  0999 V2000
  -33.0413  -15.7658   38.9246 C   0  0  0  0  0  0  0  0  0  0  0  0
  -32.4788  -15.2826   37.7475 C   0  0  0  0  0  0  0  0  0  0  0  0
  -23.2884   -9.7997   19.9124 C   0  0  0  0  0  0  0  0  0  0  0  0
  -23.7385   -9.9397   22.2820 C   0  0  0  0  0  0  0  0  0  0  0  0
  -32.5229  -16.9129   39.5239 C   0  0  0  0  0  0  0  0  0  0  0  0
  -31.3968  -15.9457   37.1696 C   0  0  0  0  0  0  0  0  0  0  0  0
  -31.8986  -16.4835   32.1592 C   0  0  0  0  0  0  0  0  0  0  0  0
  -22.5619   -8.6272   20.1197 C   0  0  0  0  0  0  0  0  0  0  0  0
  -23.0120   -8.7672   22.4893 C   0  0  0  0  0  0  0  0  0  0  0  0
  -31.6276  -15.3675   31.3688 C   0  0  0  0  0  0  0  0  0  0  0  0
  -19.7648   -7.8564   22.7055 C   0  0  0  0  0  0  0  0  0  0  0  0
  -18.8622   -7.8345   23.7687 C   0  0  0  0  0  0  0  0  0  0  0  0
  -29.4409  -16.2574   30.8729 C   0  0  0  0  0  0  0  0  0  0  0  0
  -29.4772  -11.7538   25.9259 C   0  0  0  0  0  0  0  0  0  0  0  0
  -20.0675   -5.9870   24.7541 C   0  0  0  0  0  0  0  0  0  0  0  0
  -31.2661  -10.9895   27.2941 C   0  0  0  0  0  0  0  0  0  0  0  0
  -23.8768  -10.4560   20.9935 C   0  0  0  0  0  0  0  0  0  0  0  0
  -24.1364  -12.9860   20.7956 C   0  0  0  0  0  0  0  0  0  0  0  0
  -31.4401  -17.5959   38.9479 C   0  0  0  0  0  0  0  0  0  0  0  0
  -30.9371  -17.4913   32.3215 C   0  0  0  0  0  0  0  0  0  0  0  0
  -30.8625  -17.1023   37.7625 C   0  0  0  0  0  0  0  0  0  0  0  0
  -29.7032  -17.3863   31.6639 C   0  0  0  0  0  0  0  0  0  0  0  0
  -30.7397  -11.1802   26.0267 C   0  0  0  0  0  0  0  0  0  0  0  0
  -28.7893  -12.1142   27.0793 C   0  0  0  0  0  0  0  0  0  0  0  0
  -22.4236   -8.1110   21.4081 C   0  0  0  0  0  0  0  0  0  0  0  0
  -30.3975  -15.2529   30.7278 C   0  0  0  0  0  0  0  0  0  0  0  0
  -20.8188   -6.9435   22.6666 C   0  0  0  0  0  0  0  0  0  0  0  0
  -19.0135   -6.8999   24.7930 C   0  0  0  0  0  0  0  0  0  0  0  0
  -20.9701   -6.0088   23.6909 C   0  0  0  0  0  0  0  0  0  0  0  0
  -24.6279  -11.6669   20.7800 C   0  0  0  0  0  0  0  0  0  0  0  0
  -29.4029  -11.8815   28.2996 C   0  0  0  0  0  0  0  0  0  0  0  0
  -25.2380  -13.7658   20.5411 C   0  0  0  0  0  0  0  0  0  0  0  0
  -22.8034  -13.4637   21.0201 C   0  0  0  0  0  0  0  0  0  0  0  0
  -29.3386  -18.6892   34.7940 C   0  0  0  0  0  0  0  0  0  0  0  0
  -28.2876  -20.8183   32.5838 C   0  0  0  0  0  0  0  0  0  0  0  0
  -27.6868  -21.5269   29.3000 C   0  0  0  0  0  0  0  0  0  0  0  0
  -31.1088  -12.9222   21.3621 C   0  0  0  0  0  0  0  0  0  0  0  0
  -30.8839  -18.8048   39.6578 C   0  0  0  0  0  0  0  0  0  0  0  0
  -31.2550  -18.7016   33.1560 C   0  0  0  0  0  0  0  0  0  0  0  0
  -28.6447  -18.4504   31.7894 C   0  0  0  0  0  0  0  0  0  0  0  0
  -29.9753  -19.6620   38.7802 C   0  0  0  0  0  0  0  0  0  0  0  0
  -29.4607  -13.6624   18.2941 C   0  0  0  0  0  0  0  0  0  0  0  0
  -28.9804  -18.7858   38.0258 C   0  0  0  0  0  0  0  0  0  0  0  0
  -27.9909  -13.3539   18.5847 C   0  0  0  0  0  0  0  0  0  0  0  0
  -30.3937  -12.6828   19.0024 C   0  0  0  0  0  0  0  0  0  0  0  0
  -28.7066  -12.2531   20.7468 C   0  0  0  0  0  0  0  0  0  0  0  0
  -29.7038  -17.8079   37.0920 C   0  0  1  0  0  0  0  0  0  0  0  0
  -30.0094  -19.4201   33.6655 C   0  0  1  0  0  0  0  0  0  0  0  0
  -27.7289  -13.2486   20.0991 C   0  0  2  0  0  0  0  0  0  0  0  0
  -26.7904  -23.3334   27.8066 C   0  0  0  0  0  0  0  0  0  0  0  0
  -26.1987  -15.9623   25.1475 C   0  0  0  0  0  0  0  0  0  0  0  0
  -25.0475  -13.7495   25.3436 C   0  0  0  0  0  0  0  0  0  0  0  0
  -25.4446  -20.1043   33.4309 C   0  0  0  0  0  0  0  0  0  0  0  0
  -24.6218  -21.1781   31.3242 C   0  0  0  0  0  0  0  0  0  0  0  0
  -25.8317  -22.5418   33.0268 C   0  0  0  0  0  0  0  0  0  0  0  0
  -30.2622  -21.7781   27.8636 C   0  0  0  0  0  0  0  0  0  0  0  0
  -31.5011  -10.7829   24.8124 C   0  0  0  0  0  0  0  0  0  0  0  0
  -27.4370  -12.7309   26.9783 C   0  0  0  0  0  0  0  0  0  0  0  0
  -28.7036  -12.2513   29.5850 C   0  0  0  0  0  0  0  0  0  0  0  0
  -32.4141  -11.8861   24.2372 C   0  0  0  0  0  0  0  0  0  0  0  0
  -27.4528  -14.0281   26.1471 C   0  0  0  0  0  0  0  0  0  0  0  0
  -31.6700  -13.1353   23.7702 C   0  0  0  0  0  0  0  0  0  0  0  0
  -28.7679  -13.7478   29.8703 C   0  0  0  0  0  0  0  0  0  1  0  0
  -27.1217  -20.8781   31.6268 C   0  0  1  0  0  0  0  0  0  0  0  0
  -28.0321  -22.7372   28.4512 C   0  0  2  0  0  0  0  0  0  0  0  0
  -26.0706  -14.6876   25.9854 C   0  0  0  0  0  0  0  0  0  0  0  0
  -25.7739  -21.1544   32.3512 C   0  0  0  0  0  0  0  0  0  0  0  0
  -30.6280  -11.3266   28.4372 N   0  0  0  0  0  0  0  0  0  0  0  0
  -25.9396  -11.6082   20.5348 N   0  0  0  0  0  0  0  0  0  0  0  0
  -26.2816  -12.9001   20.3939 N   0  0  0  0  0  0  0  0  0  0  0  0
  -29.0007  -19.6116   32.6215 N   0  0  0  0  0  0  0  0  0  0  0  0
  -30.0941  -12.6311   20.4354 N   0  0  0  0  0  0  0  0  0  0  0  0
  -25.4061  -15.1008   20.4310 N   0  0  0  0  0  0  0  0  0  0  0  0
  -21.7907  -12.5268   21.2671 N   0  0  0  0  0  0  0  0  0  0  0  0
  -30.1493  -18.4882   35.8948 N   0  0  0  0  0  0  0  0  0  0  0  0
  -27.4724  -21.8716   30.6177 N   0  0  0  0  0  0  0  0  0  0  0  0
  -30.7387  -12.8564   22.6998 N   0  0  0  0  0  0  0  0  0  0  0  0
  -28.9859  -22.3573   27.3710 N   0  3  0  0  0  0  0  0  0  0  0  0
  -22.5156  -14.6841   20.9860 O   0  0  0  0  0  0  0  0  0  0  0  0
  -28.1714  -18.3353   34.6754 O   0  0  0  0  0  0  0  0  0  0  0  0
  -28.5602  -21.8082   33.2675 O   0  0  0  0  0  0  0  0  0  0  0  0
  -27.6111  -20.3900   28.8394 O   0  0  0  0  0  0  0  0  0  0  0  0
  -32.2579  -13.2239   21.0223 O   0  0  0  0  0  0  0  0  0  0  0  0
  -21.7146   -6.9670   21.6108 O   0  0  0  0  0  0  0  0  0  0  0  0
  -30.1301  -14.1643   29.9561 O   0  0  0  0  0  0  0  0  0  1  0  0
  -18.1475   -6.8800   25.8146 F   0  0  0  0  0  0  0  0  0  0  0  0
  -21.9814   -5.1301   23.6595 F   0  0  0  0  0  0  0  0  0  0  0  0
  1  2  1  0  0  0  0
  1  5  2  0  0  0  0
  2  6  2  0  0  0  0
  3  8  2  0  0  0  0
  3 17  1  0  0  0  0
  4  9  1  0  0  0  0
  4 17  2  0  0  0  0
  5 19  1  0  0  0  0
  6 21  1  0  0  0  0
  7 10  2  0  0  0  0
  7 20  1  0  0  0  0
  8 25  1  0  0  0  0
  9 25  2  0  0  0  0
 10 26  1  0  0  0  0
 11 12  2  0  0  0  0
 11 27  1  0  0  0  0
 12 28  1  0  0  0  0
 13 22  1  0  0  0  0
 13 26  2  0  0  0  0
 14 23  2  0  0  0  0
 14 24  1  0  0  0  0
 15 28  2  0  0  0  0
 15 29  1  0  0  0  0
 16 23  1  0  0  0  0
 16 68  2  0  0  0  0
 17 30  1  0  0  0  0
 18 30  1  0  0  0  0
 18 32  2  0  0  0  0
 18 33  1  0  0  0  0
 19 21  2  0  0  0  0
 19 38  1  0  0  0  0
 20 22  2  0  0  0  0
 20 39  1  0  0  0  0
 21 47  1  0  0  0  0
 22 40  1  0  0  0  0
 23 57  1  0  0  0  0
 24 31  2  0  0  0  0
 24 58  1  0  0  0  0
 25 84  1  0  0  0  0
 26 85  1  0  0  0  0
 27 29  2  0  0  0  0
 27 84  1  0  0  0  0
 28 86  1  0  0  0  0
 29 87  1  0  0  0  0
 30 69  2  0  0  0  0
 31 59  1  0  0  0  0
 31 68  1  0  0  0  0
 32 70  1  0  0  0  0
 32 73  1  0  0  0  0
 33 74  1  0  0  0  0
 33 79  2  0  0  0  0
 34 48  1  0  0  0  0
 34 75  1  0  0  0  0
 34 80  2  0  0  0  0
 35 64  1  0  0  0  0
 35 71  1  0  0  0  0
 35 81  2  0  0  0  0
 36 65  1  0  0  0  0
 36 76  1  0  0  0  0
 36 82  2  0  0  0  0
 37 72  1  0  0  0  0
 37 77  1  0  0  0  0
 37 83  2  0  0  0  0
 38 41  1  0  0  0  0
 39 48  1  0  0  0  0
 40 71  1  0  0  0  0
 41 43  1  0  0  0  0
 42 44  1  0  0  0  0
 42 45  1  0  0  0  0
 43 47  1  0  0  0  0
 44 49  1  0  0  0  0
 45 72  1  0  0  0  0
 46 49  1  0  0  0  0
 46 72  1  0  0  0  0
 47 75  1  0  0  0  0
 48 71  1  0  0  0  0
 49 70  1  0  0  0  0
 50 65  1  0  0  0  0
 51 66  1  0  0  0  0
 52 66  1  0  0  0  0
 53 67  1  0  0  0  0
 54 67  1  0  0  0  0
 55 67  1  0  0  0  0
 56 78  1  0  0  0  0
 57 60  1  0  0  0  0
 58 61  1  0  0  0  0
 59 63  1  0  0  0  0
 60 62  1  0  0  0  0
 61 66  1  0  0  0  0
 62 77  1  0  0  0  0
 63 85  1  0  0  0  0
 64 67  1  0  0  0  0
 64 76  1  0  0  0  0
 65 78  1  0  0  0  0
 69 70  1  0  0  0  0
M  CHG  1  78   1
M  ISO  4  37 100  63 101  77 100  85 101
M  END
> <Batch ID>
0040

> <Smiles>
CNC(C)C(=O)NC(C(=O)N1Cc2cc([101O:1][101CH2:1]Cc3ncc(CCC[100NH:0][100C:0](=O)N4CCCC(n5nc(-c6ccc(Oc7ccc(F)cc7F)cc6)c(C(N)=O)c5N)C4)cc3CCC(C)C)ccc2CC1C(=O)NC1CCCc2ccccc21)C(C)(C)C

> <Shape>
0.132

> <Color>
0.174

> <Negative vol penalty>
0.000

$$$$

  -OEChem-04052317073D

 84 92  0     1  0  0  0  0  0999 V2000
  -28.2018  -34.6710   25.3917 C   0  0  0  0  0  0  0  0  0  0  0  0
  -28.3973  -33.4253   24.8040 C   0  0  0  0  0  0  0  0  0  0  0  0
  -25.1657  -13.5315   21.3723 C   0  0  0  0  0  0  0  0  0  0  0  0
  -26.3680  -12.4906   19.5535 C   0  0  0  0  0  0  0  0  0  0  0  0
  -26.9422  -35.0227   25.8749 C   0  0  0  0  0  0  0  0  0  0  0  0
  -27.3333  -32.5300   24.7000 C   0  0  0  0  0  0  0  0  0  0  0  0
  -27.0741  -30.3414   20.1407 C   0  0  0  0  0  0  0  0  0  0  0  0
  -24.4872  -12.3359   21.6080 C   0  0  0  0  0  0  0  0  0  0  0  0
  -25.6894  -11.2949   19.7893 C   0  0  0  0  0  0  0  0  0  0  0  0
  -27.9654  -29.3009   19.8823 C   0  0  0  0  0  0  0  0  0  0  0  0
  -25.1084   -9.3750   23.1181 C   0  0  0  0  0  0  0  0  0  0  0  0
  -24.9875   -8.9482   24.4405 C   0  0  0  0  0  0  0  0  0  0  0  0
  -26.2201  -27.7000   20.3408 C   0  0  0  0  0  0  0  0  0  0  0  0
  -22.5806   -9.0264   24.2456 C   0  0  0  0  0  0  0  0  0  0  0  0
  -26.1062  -13.6089   20.3450 C   0  0  0  0  0  0  0  0  0  0  0  0
  -28.0265  -15.2563   20.6704 C   0  0  0  0  0  0  0  0  0  0  0  0
  -25.8599  -34.1350   25.7682 C   0  0  0  0  0  0  0  0  0  0  0  0
  -25.7498  -30.0684   20.5123 C   0  0  0  0  0  0  0  0  0  0  0  0
  -26.0582  -32.8696   25.1835 C   0  0  0  0  0  0  0  0  0  0  0  0
  -25.3133  -28.7389   20.6008 C   0  0  0  0  0  0  0  0  0  0  0  0
  -24.7490  -11.2176   20.8166 C   0  0  0  0  0  0  0  0  0  0  0  0
  -27.5392  -27.9799   19.9851 C   0  0  0  0  0  0  0  0  0  0  0  0
  -23.9655   -9.6277   22.3594 C   0  0  0  0  0  0  0  0  0  0  0  0
  -23.7236   -8.7738   25.0042 C   0  0  0  0  0  0  0  0  0  0  0  0
  -22.7016   -9.4533   22.9232 C   0  0  0  0  0  0  0  0  0  0  0  0
  -26.8070  -14.8439   20.1006 C   0  0  0  0  0  0  0  0  0  0  0  0
  -31.2496  -24.2741   19.3166 C   0  0  0  0  0  0  0  0  0  0  0  0
  -28.7518  -23.3316   19.3225 C   0  0  0  0  0  0  0  0  0  0  0  0
  -30.9910  -22.9442   19.0675 C   0  0  0  0  0  0  0  0  0  0  0  0
  -29.0102  -24.6614   19.5724 C   0  0  0  0  0  0  0  0  0  0  0  0
  -28.2629  -16.4917   20.1185 C   0  0  0  0  0  0  0  0  0  0  0  0
  -28.8702  -14.5830   21.6140 C   0  0  0  0  0  0  0  0  0  0  0  0
  -23.9747  -30.6563   23.0827 C   0  0  0  0  0  0  0  0  0  0  0  0
  -21.6047  -29.4119   21.2505 C   0  0  0  0  0  0  0  0  0  0  0  0
  -20.7124  -27.4050   18.6385 C   0  0  0  0  0  0  0  0  0  0  0  0
  -28.3820  -19.9098   15.7086 C   0  0  0  0  0  0  0  0  0  0  0  0
  -24.5280  -34.5412   26.3476 C   0  0  0  0  0  0  0  0  0  0  0  0
  -24.7935  -31.2023   20.7617 C   0  0  0  0  0  0  0  0  0  0  0  0
  -23.8964  -28.3928   20.9764 C   0  0  0  0  0  0  0  0  0  0  0  0
  -23.3644  -33.6812   25.8611 C   0  0  0  0  0  0  0  0  0  0  0  0
  -25.2621  -19.5004   17.3745 C   0  0  0  0  0  0  0  0  0  0  0  0
  -23.7269  -32.2014   25.9347 C   0  0  0  0  0  0  0  0  0  0  0  0
  -25.4847  -18.2833   18.2740 C   0  0  0  0  0  0  0  0  0  0  0  0
  -25.9902  -19.3566   16.0399 C   0  0  0  0  0  0  0  0  0  0  0  0
  -27.6536  -17.8434   17.0487 C   0  0  0  0  0  0  0  0  0  0  0  0
  -24.9230  -31.8808   25.0301 C   0  0  1  0  0  0  0  0  0  0  0  0
  -23.6070  -30.8026   21.6332 C   0  0  1  0  0  0  0  0  0  0  0  0
  -26.9845  -17.9669   18.4283 C   0  0  2  0  0  0  0  0  0  0  0  0
  -32.6406  -24.8093   19.3148 C   0  0  0  0  0  0  0  0  0  0  0  0
  -27.3608  -22.7962   19.3240 C   0  0  0  0  0  0  0  0  0  0  0  0
  -18.6987  -26.5559   17.4050 C   0  0  0  0  0  0  0  0  0  0  0  0
  -21.0204  -27.4802   23.5390 C   0  0  0  0  0  0  0  0  0  0  0  0
  -19.7008  -26.0855   21.9323 C   0  0  0  0  0  0  0  0  0  0  0  0
  -18.9893  -28.4248   22.4268 C   0  0  0  0  0  0  0  0  0  0  0  0
  -21.5998  -28.6442   16.1016 C   0  0  0  0  0  0  0  0  0  0  0  0
  -32.0906  -21.9784   18.7848 C   0  0  0  0  0  0  0  0  0  0  0  0
  -27.9033  -25.6332   19.8583 C   0  0  0  0  0  0  0  0  0  1  0  0
  -31.6546  -20.8659   17.8180 C   0  0  0  0  0  0  0  0  0  0  0  0
  -31.2394  -21.4287   16.4554 C   0  0  0  0  0  0  0  0  0  0  0  0
  -30.8152  -20.3394   15.4757 C   0  0  0  0  0  0  0  0  0  0  0  0
  -21.0495  -28.0278   21.0161 C   0  0  1  0  0  0  0  0  0  0  0  0
  -19.7712  -27.6322   17.4694 C   0  0  2  0  0  0  0  0  0  0  0  0
  -20.2173  -27.5107   22.2233 C   0  0  0  0  0  0  0  0  0  0  0  0
  -26.3037  -15.7442   19.2520 N   0  0  0  0  0  0  0  0  0  0  0  0
  -29.7375  -22.4492   19.0656 N   0  0  0  0  0  0  0  0  0  0  0  0
  -30.2638  -25.1565   19.5739 N   0  0  0  0  0  0  0  0  0  0  0  0
  -27.2114  -16.7347   19.2845 N   0  0  0  0  0  0  0  0  0  0  0  0
  -23.0008  -29.5364   21.2166 N   0  0  0  0  0  0  0  0  0  0  0  0
  -27.4081  -19.0587   16.2565 N   0  0  0  0  0  0  0  0  0  0  0  0
  -29.2654  -17.3829   20.2702 N   0  0  0  0  0  0  0  0  0  0  0  0
  -28.4781  -13.3202   22.0786 N   0  0  0  0  0  0  0  0  0  0  0  0
  -24.5038  -31.8013   23.6472 N   0  0  0  0  0  0  0  0  0  0  0  0
  -20.3064  -28.0931   19.7623 N   0  0  0  0  0  0  0  0  0  0  0  0
  -29.7015  -19.5588   15.9666 N   0  0  0  0  0  0  0  0  0  0  0  0
  -20.5275  -27.6194   16.1853 N   0  3  0  0  0  0  0  0  0  0  0  0
  -29.9318  -15.0934   22.0453 O   0  0  0  0  0  0  0  0  0  0  0  0
  -23.7906  -29.5846   23.6476 O   0  0  0  0  0  0  0  0  0  0  0  0
  -20.8280  -30.3494   21.4491 O   0  0  0  0  0  0  0  0  0  0  0  0
  -21.7062  -26.6858   18.5635 O   0  0  0  0  0  0  0  0  0  0  0  0
  -28.0967  -20.9114   15.0435 O   0  0  0  0  0  0  0  0  0  0  0  0
  -24.0872  -10.0507   21.0465 O   0  0  0  0  0  0  0  0  0  0  0  0
  -28.4073  -26.9625   19.7341 O   0  0  0  0  0  0  0  0  0  1  0  0
  -23.6075   -8.3624   26.2737 F   0  0  0  0  0  0  0  0  0  0  0  0
  -21.5999   -9.6933   22.1989 F   0  0  0  0  0  0  0  0  0  0  0  0
  1  2  1  0  0  0  0
  1  5  2  0  0  0  0
  2  6  2  0  0  0  0
  3  8  2  0  0  0  0
  3 15  1  0  0  0  0
  4  9  1  0  0  0  0
  4 15  2  0  0  0  0
  5 17  1  0  0  0  0
  6 19  1  0  0  0  0
  7 10  2  0  0  0  0
  7 18  1  0  0  0  0
  8 21  1  0  0  0  0
  9 21  2  0  0  0  0
 10 22  1  0  0  0  0
 11 12  2  0  0  0  0
 11 23  1  0  0  0  0
 12 24  1  0  0  0  0
 13 20  1  0  0  0  0
 13 22  2  0  0  0  0
 14 24  2  0  0  0  0
 14 25  1  0  0  0  0
 15 26  1  0  0  0  0
 16 26  1  0  0  0  0
 16 31  2  0  0  0  0
 16 32  1  0  0  0  0
 17 19  2  0  0  0  0
 17 37  1  0  0  0  0
 18 20  2  0  0  0  0
 18 38  1  0  0  0  0
 19 46  1  0  0  0  0
 20 39  1  0  0  0  0
 21 81  1  0  0  0  0
 22 82  1  0  0  0  0
 23 25  2  0  0  0  0
 23 81  1  0  0  0  0
 24 83  1  0  0  0  0
 25 84  1  0  0  0  0
 26 64  2  0  0  0  0
 27 29  1  0  0  0  0
 27 49  1  0  0  0  0
 27 66  2  0  0  0  0
 28 30  2  0  0  0  0
 28 50  1  0  0  0  0
 28 65  1  0  0  0  0
 29 56  1  0  0  0  0
 29 65  2  0  0  0  0
 30 57  1  0  0  0  0
 30 66  1  0  0  0  0
 31 67  1  0  0  0  0
 31 70  1  0  0  0  0
 32 71  1  0  0  0  0
 32 76  2  0  0  0  0
 33 47  1  0  0  0  0
 33 72  1  0  0  0  0
 33 77  2  0  0  0  0
 34 61  1  0  0  0  0
 34 68  1  0  0  0  0
 34 78  2  0  0  0  0
 35 62  1  0  0  0  0
 35 73  1  0  0  0  0
 35 79  2  0  0  0  0
 36 69  1  0  0  0  0
 36 74  1  0  0  0  0
 36 80  2  0  0  0  0
 37 40  1  0  0  0  0
 38 47  1  0  0  0  0
 39 68  1  0  0  0  0
 40 42  1  0  0  0  0
 41 43  1  0  0  0  0
 41 44  1  0  0  0  0
 42 46  1  0  0  0  0
 43 48  1  0  0  0  0
 44 69  1  0  0  0  0
 45 48  1  0  0  0  0
 45 69  1  0  0  0  0
 46 72  1  0  0  0  0
 47 68  1  0  0  0  0
 48 67  1  0  0  0  0
 51 62  1  0  0  0  0
 52 63  1  0  0  0  0
 53 63  1  0  0  0  0
 54 63  1  0  0  0  0
 55 75  1  0  0  0  0
 56 58  1  0  0  0  0
 57 82  1  0  0  0  0
 58 59  1  0  0  0  0
 59 60  1  0  0  0  0
 60 74  1  0  0  0  0
 61 63  1  0  0  0  0
 61 73  1  0  0  0  0
 62 75  1  0  0  0  0
 64 67  1  0  0  0  0
M  CHG  1  75   1
M  ISO  4  36 100  57 101  74 100  82 101
M  END
> <Batch ID>
0040

> <Smiles>
CNC(C)C(=O)NC(C(=O)N1Cc2cc([101O:1][101CH2:1]c3nc(C)c(CCCC[100NH:0][100C:0](=O)N4CCCC(n5nc(-c6ccc(Oc7ccc(F)cc7F)cc6)c(C(N)=O)c5N)C4)nc3C)ccc2CC1C(=O)NC1CCCc2ccccc21)C(C)(C)C

> <Shape>
0.276

> <Color>
0.096

> <Negative vol penalty>
0.000

$$$$

  -OEChem-04052317073D

 85 93  0     1  0  0  0  0  0999 V2000
  -27.9413  -34.2952   24.3390 C   0  0  0  0  0  0  0  0  0  0  0  0
  -28.1145  -32.9212   24.4711 C   0  0  0  0  0  0  0  0  0  0  0  0
  -22.8814  -10.1769   22.2561 C   0  0  0  0  0  0  0  0  0  0  0  0
  -22.9111   -9.8215   19.8666 C   0  0  0  0  0  0  0  0  0  0  0  0
  -26.6872  -34.8105   24.0143 C   0  0  0  0  0  0  0  0  0  0  0  0
  -27.0333  -32.0617   24.2798 C   0  0  0  0  0  0  0  0  0  0  0  0
  -28.2261  -28.0412   21.4412 C   0  0  0  0  0  0  0  0  0  0  0  0
  -22.5524   -8.8356   22.4516 C   0  0  0  0  0  0  0  0  0  0  0  0
  -22.5822   -8.4801   20.0620 C   0  0  0  0  0  0  0  0  0  0  0  0
  -28.9276  -27.0088   22.0623 C   0  0  0  0  0  0  0  0  0  0  0  0
  -19.7927   -6.8941   22.2545 C   0  0  0  0  0  0  0  0  0  0  0  0
  -18.7796   -6.6025   23.1678 C   0  0  0  0  0  0  0  0  0  0  0  0
  -26.8740  -25.7660   22.3023 C   0  0  0  0  0  0  0  0  0  0  0  0
  -28.6734  -21.7353   22.5828 C   0  0  0  0  0  0  0  0  0  0  0  0
  -20.3354   -5.2973   24.4767 C   0  0  0  0  0  0  0  0  0  0  0  0
  -30.2481  -21.9136   20.8094 C   0  0  0  0  0  0  0  0  0  0  0  0
  -23.0607  -10.6699   20.9636 C   0  0  0  0  0  0  0  0  0  0  0  0
  -24.6906  -12.6137   20.6939 C   0  0  0  0  0  0  0  0  0  0  0  0
  -25.5922  -33.9563   23.8094 C   0  0  0  0  0  0  0  0  0  0  0  0
  -26.8393  -27.9483   21.2554 C   0  0  0  0  0  0  0  0  0  0  0  0
  -25.7630  -32.5661   23.9534 C   0  0  0  0  0  0  0  0  0  0  0  0
  -26.1577  -26.7975   21.6762 C   0  0  0  0  0  0  0  0  0  0  0  0
  -29.8573  -22.2721   22.0894 C   0  0  0  0  0  0  0  0  0  0  0  0
  -27.9269  -20.8686   21.7922 C   0  0  0  0  0  0  0  0  0  0  0  0
  -22.4028   -7.9872   21.3545 C   0  0  0  0  0  0  0  0  0  0  0  0
  -28.2511  -25.8722   22.4956 C   0  0  0  0  0  0  0  0  0  0  0  0
  -21.0771   -6.3872   22.4522 C   0  0  0  0  0  0  0  0  0  0  0  0
  -19.0509   -5.8041   24.2790 C   0  0  0  0  0  0  0  0  0  0  0  0
  -21.3484   -5.5888   23.5633 C   0  0  0  0  0  0  0  0  0  0  0  0
  -23.4000  -12.0555   20.7610 C   0  0  0  0  0  0  0  0  0  0  0  0
  -28.4041  -20.5731   20.5254 C   0  0  0  0  0  0  0  0  0  0  0  0
  -24.4746  -13.9548   20.4908 C   0  0  0  0  0  0  0  0  0  0  0  0
  -25.9704  -11.9768   20.8050 C   0  0  0  0  0  0  0  0  0  0  0  0
  -24.3250  -29.6132   22.2608 C   0  0  0  0  0  0  0  0  0  0  0  0
  -22.7085  -27.6415   20.2553 C   0  0  0  0  0  0  0  0  0  0  0  0
  -22.5821  -24.6569   18.6053 C   0  0  0  0  0  0  0  0  0  0  0  0
  -21.7986  -18.1173   17.9107 C   0  0  0  0  0  0  0  0  0  0  0  0
  -24.2450  -34.5629   23.5065 C   0  0  0  0  0  0  0  0  0  0  0  0
  -26.1013  -29.0591   20.5597 C   0  0  0  0  0  0  0  0  0  0  0  0
  -24.6724  -26.6400   21.4822 C   0  0  0  0  0  0  0  0  0  0  0  0
  -23.2363  -33.5601   22.9521 C   0  0  0  0  0  0  0  0  0  0  0  0
  -20.2240  -16.6832   20.7638 C   0  0  0  0  0  0  0  0  0  0  0  0
  -23.2463  -32.2794   23.7806 C   0  0  0  0  0  0  0  0  0  0  0  0
  -21.0122  -15.3951   21.0078 C   0  0  0  0  0  0  0  0  0  0  0  0
  -20.0718  -16.9780   19.2732 C   0  0  0  0  0  0  0  0  0  0  0  0
  -22.1245  -15.7150   18.7585 C   0  0  0  0  0  0  0  0  0  0  0  0
  -24.6201  -31.5999   23.7293 C   0  0  1  0  0  0  0  0  0  0  0  0
  -24.6109  -29.0817   20.8848 C   0  0  1  0  0  0  0  0  0  0  0  0
  -22.3523  -15.4053   20.2480 C   0  0  2  0  0  0  0  0  0  0  0  0
  -26.6584  -20.2885   22.3153 C   0  0  0  0  0  0  0  0  0  0  0  0
  -21.1178  -23.3138   17.0725 C   0  0  0  0  0  0  0  0  0  0  0  0
  -20.8888  -26.9489   22.6047 C   0  0  0  0  0  0  0  0  0  0  0  0
  -20.0912  -24.9598   21.3103 C   0  0  0  0  0  0  0  0  0  0  0  0
  -19.7045  -27.2593   20.4240 C   0  0  0  0  0  0  0  0  0  0  0  0
  -24.6402  -24.6238   16.4787 C   0  0  0  0  0  0  0  0  0  0  0  0
  -30.6903  -23.2165   22.9216 C   0  0  0  0  0  0  0  0  0  0  0  0
  -27.6436  -19.6488   19.6315 C   0  0  0  0  0  0  0  0  0  0  0  0
  -26.4269  -20.3325   18.9919 C   0  0  0  0  0  0  0  0  0  0  0  0
  -25.6336  -19.3663   18.1096 C   0  0  0  0  0  0  0  0  0  0  0  0
  -24.4454  -20.0685   17.4459 C   0  0  0  0  0  0  0  0  0  0  0  0
  -23.6249  -19.1287   16.5686 C   0  0  0  0  0  0  0  0  0  0  0  0
  -30.2938  -24.6743   22.7158 C   0  0  0  0  0  0  0  0  0  1  0  0
  -22.0410  -26.2941   20.3889 C   0  0  1  0  0  0  0  0  0  0  0  0
  -22.2574  -24.3169   17.1619 C   0  0  2  0  0  0  0  0  0  0  0  0
  -20.7091  -26.3690   21.1875 C   0  0  0  0  0  0  0  0  0  0  0  0
  -29.5495  -21.0749   20.0118 N   0  0  0  0  0  0  0  0  0  0  0  0
  -22.4355  -12.9675   20.6128 N   0  0  0  0  0  0  0  0  0  0  0  0
  -23.1205  -14.1123   20.4506 N   0  0  0  0  0  0  0  0  0  0  0  0
  -23.9943  -27.7561   20.8024 N   0  0  0  0  0  0  0  0  0  0  0  0
  -21.3789  -16.9748   18.6117 N   0  0  0  0  0  0  0  0  0  0  0  0
  -25.3128  -15.0029   20.3446 N   0  0  0  0  0  0  0  0  0  0  0  0
  -26.0114  -10.5912   21.0124 N   0  0  0  0  0  0  0  0  0  0  0  0
  -24.7896  -30.8966   22.4759 N   0  0  0  0  0  0  0  0  0  0  0  0
  -21.8966  -25.7740   19.0335 N   0  0  0  0  0  0  0  0  0  0  0  0
  -23.0528  -18.0328   17.3185 N   0  0  0  0  0  0  0  0  0  0  0  0
  -23.4507  -23.7338   16.4859 N   0  3  0  0  0  0  0  0  0  0  0  0
  -27.0454  -12.6198   20.7392 O   0  0  0  0  0  0  0  0  0  0  0  0
  -23.7259  -28.9114   23.0671 O   0  0  0  0  0  0  0  0  0  0  0  0
  -22.1138  -28.5566   19.6803 O   0  0  0  0  0  0  0  0  0  0  0  0
  -23.3628  -23.9954   19.2860 O   0  0  0  0  0  0  0  0  0  0  0  0
  -21.1092  -19.1391   17.8237 O   0  0  0  0  0  0  0  0  0  0  0  0
  -22.0820   -6.6782   21.5449 O   0  0  0  0  0  0  0  0  0  0  0  0
  -28.9333  -24.8633   23.1027 O   0  0  0  0  0  0  0  0  0  1  0  0
  -18.0784   -5.5255   25.1568 F   0  0  0  0  0  0  0  0  0  0  0  0
  -22.5807   -5.1000   23.7592 F   0  0  0  0  0  0  0  0  0  0  0  0
  1  2  1  0  0  0  0
  1  5  2  0  0  0  0
  2  6  2  0  0  0  0
  3  8  2  0  0  0  0
  3 17  1  0  0  0  0
  4  9  1  0  0  0  0
  4 17  2  0  0  0  0
  5 19  1  0  0  0  0
  6 21  1  0  0  0  0
  7 10  2  0  0  0  0
  7 20  1  0  0  0  0
  8 25  1  0  0  0  0
  9 25  2  0  0  0  0
 10 26  1  0  0  0  0
 11 12  2  0  0  0  0
 11 27  1  0  0  0  0
 12 28  1  0  0  0  0
 13 22  1  0  0  0  0
 13 26  2  0  0  0  0
 14 23  2  0  0  0  0
 14 24  1  0  0  0  0
 15 28  2  0  0  0  0
 15 29  1  0  0  0  0
 16 23  1  0  0  0  0
 16 66  2  0  0  0  0
 17 30  1  0  0  0  0
 18 30  1  0  0  0  0
 18 32  2  0  0  0  0
 18 33  1  0  0  0  0
 19 21  2  0  0  0  0
 19 38  1  0  0  0  0
 20 22  2  0  0  0  0
 20 39  1  0  0  0  0
 21 47  1  0  0  0  0
 22 40  1  0  0  0  0
 23 56  1  0  0  0  0
 24 31  2  0  0  0  0
 24 50  1  0  0  0  0
 25 82  1  0  0  0  0
 26 83  1  0  0  0  0
 27 29  2  0  0  0  0
 27 82  1  0  0  0  0
 28 84  1  0  0  0  0
 29 85  1  0  0  0  0
 30 67  2  0  0  0  0
 31 57  1  0  0  0  0
 31 66  1  0  0  0  0
 32 68  1  0  0  0  0
 32 71  1  0  0  0  0
 33 72  1  0  0  0  0
 33 77  2  0  0  0  0
 34 48  1  0  0  0  0
 34 73  1  0  0  0  0
 34 78  2  0  0  0  0
 35 63  1  0  0  0  0
 35 69  1  0  0  0  0
 35 79  2  0  0  0  0
 36 64  1  0  0  0  0
 36 74  1  0  0  0  0
 36 80  2  0  0  0  0
 37 70  1  0  0  0  0
 37 75  1  0  0  0  0
 37 81  2  0  0  0  0
 38 41  1  0  0  0  0
 39 48  1  0  0  0  0
 40 69  1  0  0  0  0
 41 43  1  0  0  0  0
 42 44  1  0  0  0  0
 42 45  1  0  0  0  0
 43 47  1  0  0  0  0
 44 49  1  0  0  0  0
 45 70  1  0  0  0  0
 46 49  1  0  0  0  0
 46 70  1  0  0  0  0
 47 73  1  0  0  0  0
 48 69  1  0  0  0  0
 49 68  1  0  0  0  0
 51 64  1  0  0  0  0
 52 65  1  0  0  0  0
 53 65  1  0  0  0  0
 54 65  1  0  0  0  0
 55 76  1  0  0  0  0
 56 62  1  0  0  0  0
 57 58  1  0  0  0  0
 58 59  1  0  0  0  0
 59 60  1  0  0  0  0
 60 61  1  0  0  0  0
 61 75  1  0  0  0  0
 62 83  1  0  0  0  0
 63 65  1  0  0  0  0
 63 74  1  0  0  0  0
 64 76  1  0  0  0  0
 67 68  1  0  0  0  0
M  CHG  1  76   1
M  ISO  4  37 100  62 101  75 100  83 101
M  END
> <Batch ID>
0040

> <Smiles>
CNC(C)C(=O)NC(C(=O)N1Cc2cc([101O:1][101CH2:1]Cc3cnc(CCCCC[100NH:0][100C:0](=O)N4CCCC(n5nc(-c6ccc(Oc7ccc(F)cc7F)cc6)c(C(N)=O)c5N)C4)c(C)c3)ccc2CC1C(=O)NC1CCCc2ccccc21)C(C)(C)C

> <Shape>
0.251

> <Color>
0.109

> <Negative vol penalty>
0.000

$$$$

  -OEChem-04052317073D

 83 91  0     1  0  0  0  0  0999 V2000
  -27.2663  -23.7936   17.5194 C   0  0  0  0  0  0  0  0  0  0  0  0
  -26.2666  -24.7417   17.7059 C   0  0  0  0  0  0  0  0  0  0  0  0
  -26.9145  -15.0023   20.0067 C   0  0  0  0  0  0  0  0  0  0  0  0
  -24.7127  -14.6417   19.0796 C   0  0  0  0  0  0  0  0  0  0  0  0
  -28.2940  -23.6771   18.4529 C   0  0  0  0  0  0  0  0  0  0  0  0
  -26.3007  -25.5815   18.8197 C   0  0  0  0  0  0  0  0  0  0  0  0
  -22.9658  -29.1939   18.9980 C   0  0  0  0  0  0  0  0  0  0  0  0
  -26.9623  -13.6686   20.4120 C   0  0  0  0  0  0  0  0  0  0  0  0
  -24.7606  -13.3078   19.4849 C   0  0  0  0  0  0  0  0  0  0  0  0
  -21.6132  -28.9596   19.2416 C   0  0  0  0  0  0  0  0  0  0  0  0
  -27.5594  -10.6555   18.9987 C   0  0  0  0  0  0  0  0  0  0  0  0
  -28.7350   -9.9456   18.7547 C   0  0  0  0  0  0  0  0  0  0  0  0
  -21.8922  -29.7399   21.5071 C   0  0  0  0  0  0  0  0  0  0  0  0
  -28.9911   -9.5552   21.1252 C   0  0  0  0  0  0  0  0  0  0  0  0
  -17.2251  -28.3563   22.9310 C   0  0  0  0  0  0  0  0  0  0  0  0
  -25.7896  -15.4889   19.3405 C   0  0  0  0  0  0  0  0  0  0  0  0
  -26.1703  -17.3977   17.6915 C   0  0  0  0  0  0  0  0  0  0  0  0
  -28.3332  -24.5079   19.5848 C   0  0  0  0  0  0  0  0  0  0  0  0
  -23.7955  -29.6935   20.0121 C   0  0  0  0  0  0  0  0  0  0  0  0
  -27.3427  -25.4955   19.7607 C   0  0  0  0  0  0  0  0  0  0  0  0
  -23.2545  -29.9820   21.2731 C   0  0  0  0  0  0  0  0  0  0  0  0
  -17.5709  -27.4868   21.9256 C   0  0  0  0  0  0  0  0  0  0  0  0
  -25.8854  -12.8213   20.1511 C   0  0  0  0  0  0  0  0  0  0  0  0
  -21.0768  -29.2299   20.4971 C   0  0  0  0  0  0  0  0  0  0  0  0
  -27.0996  -10.8153   20.3059 C   0  0  0  0  0  0  0  0  0  0  0  0
  -29.4509   -9.3955   19.8180 C   0  0  0  0  0  0  0  0  0  0  0  0
  -27.8155  -10.2652   21.3691 C   0  0  0  0  0  0  0  0  0  0  0  0
  -25.7394  -16.8668   18.9220 C   0  0  0  0  0  0  0  0  0  0  0  0
  -17.7900  -26.2603   22.5809 C   0  0  0  0  0  0  0  0  0  0  0  0
  -25.9087  -18.7427   17.7874 C   0  0  0  0  0  0  0  0  0  0  0  0
  -26.7548  -16.7345   16.5627 C   0  0  0  0  0  0  0  0  0  0  0  0
  -26.3692  -28.6194   21.5373 C   0  0  0  0  0  0  0  0  0  0  0  0
  -21.9345  -21.7124   21.0527 C   0  0  0  0  0  0  0  0  0  0  0  0
  -26.3471  -31.5842   22.8533 C   0  0  0  0  0  0  0  0  0  0  0  0
  -24.5609  -34.3688   23.6913 C   0  0  0  0  0  0  0  0  0  0  0  0
  -29.4728  -24.3441   20.5594 C   0  0  0  0  0  0  0  0  0  0  0  0
  -25.2467  -29.9660   19.7254 C   0  0  0  0  0  0  0  0  0  0  0  0
  -24.0983  -30.5385   22.3896 C   0  0  0  0  0  0  0  0  0  0  0  0
  -29.1844  -24.9669   21.9214 C   0  0  0  0  0  0  0  0  0  0  0  0
  -25.5273  -22.2726   20.9839 C   0  0  0  0  0  0  0  0  0  0  0  0
  -28.6723  -26.3886   21.7449 C   0  0  0  0  0  0  0  0  0  0  0  0
  -26.0274  -20.9728   20.3551 C   0  0  0  0  0  0  0  0  0  0  0  0
  -24.3162  -22.0323   21.8815 C   0  0  0  0  0  0  0  0  0  0  0  0
  -23.6853  -20.0332   20.5663 C   0  0  0  0  0  0  0  0  0  0  0  0
  -27.3425  -26.3992   20.9804 C   0  0  1  0  0  0  0  0  0  0  0  0
  -26.1097  -29.9918   20.9832 C   0  0  1  0  0  0  0  0  0  0  0  0
  -24.8877  -20.2366   19.6294 C   0  0  2  0  0  0  0  0  0  0  0  0
  -15.5847  -27.6901   25.8852 C   0  0  0  0  0  0  0  0  0  0  0  0
  -24.8085  -36.6112   24.7902 C   0  0  0  0  0  0  0  0  0  0  0  0
  -26.4098  -30.2340   25.5888 C   0  0  0  0  0  0  0  0  0  0  0  0
  -25.7049  -32.4120   26.6026 C   0  0  0  0  0  0  0  0  0  0  0  0
  -27.8768  -32.2493   25.3863 C   0  0  0  0  0  0  0  0  0  0  0  0
  -23.7540  -35.7950   21.2268 C   0  0  0  0  0  0  0  0  0  0  0  0
  -17.6868  -27.7914   20.4518 C   0  0  0  0  0  0  0  0  0  0  0  0
  -18.1867  -24.9742   21.9812 C   0  0  0  0  0  0  0  0  0  0  0  0
  -21.5665  -23.0074   21.7319 C   0  0  0  0  0  0  0  0  0  0  0  0
  -19.6803  -24.6481   22.1949 C   0  0  0  0  0  0  0  0  0  0  0  0
  -20.0888  -23.3289   21.5321 C   0  0  0  0  0  0  0  0  0  0  0  0
  -16.9657  -28.1092   25.4111 C   0  0  0  0  0  0  0  0  0  0  0  0
  -19.1361  -27.9468   20.0040 C   0  0  0  0  0  0  0  0  0  1  0  0
  -25.7156  -32.2069   24.0750 C   0  0  1  0  0  0  0  0  0  0  0  0
  -24.8381  -35.8458   23.4764 C   0  0  2  0  0  0  0  0  0  0  0  0
  -26.4110  -31.7632   25.3929 C   0  0  0  0  0  0  0  0  0  0  0  0
  -25.2419  -17.7984   19.7397 N   0  0  0  0  0  0  0  0  0  0  0  0
  -17.5995  -26.3395   23.9006 N   0  0  0  0  0  0  0  0  0  0  0  0
  -17.2572  -27.6263   24.0826 N   0  0  0  0  0  0  0  0  0  0  0  0
  -25.3587  -18.9283   19.0216 N   0  0  0  0  0  0  0  0  0  0  0  0
  -25.5129  -30.7819   22.0620 N   0  0  0  0  0  0  0  0  0  0  0  0
  -23.2643  -21.3047   21.1615 N   0  0  0  0  0  0  0  0  0  0  0  0
  -26.0978  -19.7728   16.9356 N   0  0  0  0  0  0  0  0  0  0  0  0
  -26.9538  -15.3489   16.6312 N   0  0  0  0  0  0  0  0  0  0  0  0
  -26.9977  -27.7648   20.6518 N   0  0  0  0  0  0  0  0  0  0  0  0
  -25.7257  -33.6483   23.8499 N   0  0  0  0  0  0  0  0  0  0  0  0
  -23.8179  -36.4370   22.5650 N   0  3  0  0  0  0  0  0  0  0  0  0
  -27.1057  -17.3548   15.5304 O   0  0  0  0  0  0  0  0  0  0  0  0
  -26.0261  -28.3559   22.6838 O   0  0  0  0  0  0  0  0  0  0  0  0
  -21.0655  -21.0848   20.4419 O   0  0  0  0  0  0  0  0  0  0  0  0
  -27.5349  -31.8073   22.6063 O   0  0  0  0  0  0  0  0  0  0  0  0
  -23.4244  -33.9016   23.7196 O   0  0  0  0  0  0  0  0  0  0  0  0
  -25.9318  -11.5197   20.5463 O   0  0  0  0  0  0  0  0  0  0  0  0
  -19.7570  -29.0015   20.7377 O   0  0  0  0  0  0  0  0  0  1  0  0
  -30.5790   -8.7125   19.5835 F   0  0  0  0  0  0  0  0  0  0  0  0
  -27.3781  -10.4144   22.6270 F   0  0  0  0  0  0  0  0  0  0  0  0
  1  2  1  0  0  0  0
  1  5  2  0  0  0  0
  2  6  2  0  0  0  0
  3  8  2  0  0  0  0
  3 16  1  0  0  0  0
  4  9  1  0  0  0  0
  4 16  2  0  0  0  0
  5 18  1  0  0  0  0
  6 20  1  0  0  0  0
  7 10  2  0  0  0  0
  7 19  1  0  0  0  0
  8 23  1  0  0  0  0
  9 23  2  0  0  0  0
 10 24  1  0  0  0  0
 11 12  2  0  0  0  0
 11 25  1  0  0  0  0
 12 26  1  0  0  0  0
 13 21  1  0  0  0  0
 13 24  2  0  0  0  0
 14 26  2  0  0  0  0
 14 27  1  0  0  0  0
 15 22  2  0  0  0  0
 15 66  1  0  0  0  0
 16 28  1  0  0  0  0
 17 28  1  0  0  0  0
 17 30  2  0  0  0  0
 17 31  1  0  0  0  0
 18 20  2  0  0  0  0
 18 36  1  0  0  0  0
 19 21  2  0  0  0  0
 19 37  1  0  0  0  0
 20 45  1  0  0  0  0
 21 38  1  0  0  0  0
 22 29  1  0  0  0  0
 22 54  1  0  0  0  0
 23 80  1  0  0  0  0
 24 81  1  0  0  0  0
 25 27  2  0  0  0  0
 25 80  1  0  0  0  0
 26 82  1  0  0  0  0
 27 83  1  0  0  0  0
 28 64  2  0  0  0  0
 29 55  1  0  0  0  0
 29 65  2  0  0  0  0
 30 67  1  0  0  0  0
 30 70  1  0  0  0  0
 31 71  1  0  0  0  0
 31 75  2  0  0  0  0
 32 46  1  0  0  0  0
 32 72  1  0  0  0  0
 32 76  2  0  0  0  0
 33 56  1  0  0  0  0
 33 69  1  0  0  0  0
 33 77  2  0  0  0  0
 34 61  1  0  0  0  0
 34 68  1  0  0  0  0
 34 78  2  0  0  0  0
 35 62  1  0  0  0  0
 35 73  1  0  0  0  0
 35 79  2  0  0  0  0
 36 39  1  0  0  0  0
 37 46  1  0  0  0  0
 38 68  1  0  0  0  0
 39 41  1  0  0  0  0
 40 42  1  0  0  0  0
 40 43  1  0  0  0  0
 41 45  1  0  0  0  0
 42 47  1  0  0  0  0
 43 69  1  0  0  0  0
 44 47  1  0  0  0  0
 44 69  1  0  0  0  0
 45 72  1  0  0  0  0
 46 68  1  0  0  0  0
 47 67  1  0  0  0  0
 48 59  1  0  0  0  0
 49 62  1  0  0  0  0
 50 63  1  0  0  0  0
 51 63  1  0  0  0  0
 52 63  1  0  0  0  0
 53 74  1  0  0  0  0
 54 60  1  0  0  0  0
 55 57  1  0  0  0  0
 56 58  1  0  0  0  0
 57 58  1  0  0  0  0
 59 66  1  0  0  0  0
 60 81  1  0  0  0  0
 61 63  1  0  0  0  0
 61 73  1  0  0  0  0
 62 74  1  0  0  0  0
 64 67  1  0  0  0  0
 65 66  1  0  0  0  0
M  CHG  1  74   1
M  ISO  4  33 100  56 100  60 101  81 101
M  END
> <Batch ID>
0040

> <Smiles>
CCn1cc(C[101CH2:1][101O:1]c2ccc3c(c2)CN(C(=O)C(NC(=O)C(C)NC)C(C)(C)C)C(C(=O)NC2CCCc4ccccc42)C3)c(CCC[100CH2:0][100C:0](=O)N2CCCC(n3nc(-c4ccc(Oc5ccc(F)cc5F)cc4)c(C(N)=O)c3N)C2)n1

> <Shape>
0.236

> <Color>
0.072

> <Negative vol penalty>
0.000

$$$$

  -OEChem-04052317073D

 85 93  0     1  0  0  0  0  0999 V2000
  -23.9387  -23.7687   14.0221 C   0  0  0  0  0  0  0  0  0  0  0  0
  -23.3198  -24.7056   14.8433 C   0  0  0  0  0  0  0  0  0  0  0  0
  -25.7872  -12.5042   19.6569 C   0  0  0  0  0  0  0  0  0  0  0  0
  -23.7772  -12.8720   20.9459 C   0  0  0  0  0  0  0  0  0  0  0  0
  -24.9843  -22.9912   14.5182 C   0  0  0  0  0  0  0  0  0  0  0  0
  -23.7454  -24.8649   16.1616 C   0  0  0  0  0  0  0  0  0  0  0  0
  -23.9104  -30.0770   19.3728 C   0  0  0  0  0  0  0  0  0  0  0  0
  -25.7479  -11.1485   19.9824 C   0  0  0  0  0  0  0  0  0  0  0  0
  -23.7379  -11.5162   21.2713 C   0  0  0  0  0  0  0  0  0  0  0  0
  -23.0410  -30.6270   20.3137 C   0  0  0  0  0  0  0  0  0  0  0  0
  -25.2817   -9.4280   23.4363 C   0  0  0  0  0  0  0  0  0  0  0  0
  -25.0224   -9.0874   24.7639 C   0  0  0  0  0  0  0  0  0  0  0  0
  -24.3878  -29.7033   22.0891 C   0  0  0  0  0  0  0  0  0  0  0  0
  -20.5232  -27.2616   23.5980 C   0  0  0  0  0  0  0  0  0  0  0  0
  -23.0505   -7.8771   24.0683 C   0  0  0  0  0  0  0  0  0  0  0  0
  -18.5341  -27.6169   21.7640 C   0  0  0  0  0  0  0  0  0  0  0  0
  -24.8019  -13.3660   20.1387 C   0  0  0  0  0  0  0  0  0  0  0  0
  -24.2445  -15.3926   18.6930 C   0  0  0  0  0  0  0  0  0  0  0  0
  -25.4293  -23.1477   15.8404 C   0  0  0  0  0  0  0  0  0  0  0  0
  -25.0209  -29.3256   19.7834 C   0  0  0  0  0  0  0  0  0  0  0  0
  -24.7970  -24.0878   16.6763 C   0  0  0  0  0  0  0  0  0  0  0  0
  -25.2712  -29.1471   21.1515 C   0  0  0  0  0  0  0  0  0  0  0  0
  -20.0951  -26.1791   22.8375 C   0  0  0  0  0  0  0  0  0  0  0  0
  -19.0822  -26.3517   21.9009 C   0  0  0  0  0  0  0  0  0  0  0  0
  -24.7233  -10.6544   20.7895 C   0  0  0  0  0  0  0  0  0  0  0  0
  -23.2779  -30.4378   21.6720 C   0  0  0  0  0  0  0  0  0  0  0  0
  -24.4253   -8.9932   22.4247 C   0  0  0  0  0  0  0  0  0  0  0  0
  -23.9068   -8.3120   25.0799 C   0  0  0  0  0  0  0  0  0  0  0  0
  -23.3097   -8.2177   22.7407 C   0  0  0  0  0  0  0  0  0  0  0  0
  -24.8422  -14.7667   19.8033 C   0  0  0  0  0  0  0  0  0  0  0  0
  -19.9108  -28.4861   23.3850 C   0  0  0  0  0  0  0  0  0  0  0  0
  -24.5731  -16.7193   18.8286 C   0  0  0  0  0  0  0  0  0  0  0  0
  -23.4620  -14.8254   17.6339 C   0  0  0  0  0  0  0  0  0  0  0  0
  -25.9683  -26.3186   19.3790 C   0  0  0  0  0  0  0  0  0  0  0  0
  -28.6477  -27.3722   20.8734 C   0  0  0  0  0  0  0  0  0  0  0  0
  -30.0918  -29.6433   22.9718 C   0  0  0  0  0  0  0  0  0  0  0  0
  -25.1336  -21.2979   21.9698 C   0  0  0  0  0  0  0  0  0  0  0  0
  -26.5318  -22.2514   16.3462 C   0  0  0  0  0  0  0  0  0  0  0  0
  -25.9641  -28.7616   18.7565 C   0  0  0  0  0  0  0  0  0  0  0  0
  -26.4606  -28.3657   21.6447 C   0  0  0  0  0  0  0  0  0  0  0  0
  -27.1713  -22.7441   17.6417 C   0  0  0  0  0  0  0  0  0  0  0  0
  -27.8515  -18.9983   21.9341 C   0  0  0  0  0  0  0  0  0  0  0  0
  -26.0977  -23.1519   18.6456 C   0  0  0  0  0  0  0  0  0  0  0  0
  -27.2599  -17.7427   21.2910 C   0  0  0  0  0  0  0  0  0  0  0  0
  -26.8337  -19.7106   22.8222 C   0  0  0  0  0  0  0  0  0  0  0  0
  -24.9620  -18.7750   21.5202 C   0  0  0  0  0  0  0  0  0  0  0  0
  -25.2467  -24.3072   18.1045 C   0  0  1  0  0  0  0  0  0  0  0  0
  -26.7775  -27.5805   19.2771 C   0  0  1  0  0  0  0  0  0  0  0  0
  -25.9338  -18.0532   20.5711 C   0  0  2  0  0  0  0  0  0  0  0  0
  -18.5856  -25.2267   21.0608 C   0  0  0  0  0  0  0  0  0  0  0  0
  -32.2901  -30.2247   24.0334 C   0  0  0  0  0  0  0  0  0  0  0  0
  -28.2989  -25.0732   22.8490 C   0  0  0  0  0  0  0  0  0  0  0  0
  -29.9001  -26.2387   24.3807 C   0  0  0  0  0  0  0  0  0  0  0  0
  -30.6589  -25.4806   22.1286 C   0  0  0  0  0  0  0  0  0  0  0  0
  -30.1599  -32.2921   21.6534 C   0  0  0  0  0  0  0  0  0  0  0  0
  -20.7350  -24.8460   23.0426 C   0  0  0  0  0  0  0  0  0  0  0  0
  -20.3489  -29.6823   24.1917 C   0  0  0  0  0  0  0  0  0  0  0  0
  -21.7432  -24.5095   21.9335 C   0  0  0  0  0  0  0  0  0  0  0  0
  -20.1916  -31.0138   23.4541 C   0  0  0  0  0  0  0  0  0  0  0  0
  -22.3649  -23.1244   22.1354 C   0  0  0  0  0  0  0  0  0  0  0  0
  -23.3603  -22.7628   21.0378 C   0  0  0  0  0  0  0  0  0  0  0  0
  -21.0640  -31.1209   22.2087 C   0  0  0  0  0  0  0  0  0  1  0  0
  -29.1042  -27.4661   22.3093 C   0  0  1  0  0  0  0  0  0  0  0  0
  -31.3654  -30.4603   22.8493 C   0  0  2  0  0  0  0  0  0  0  0  0
  -29.4669  -26.0778   22.9079 C   0  0  0  0  0  0  0  0  0  0  0  0
  -18.9237  -28.6924   22.4845 N   0  0  0  0  0  0  0  0  0  0  0  0
  -25.5009  -15.6252   20.5864 N   0  0  0  0  0  0  0  0  0  0  0  0
  -25.3190  -16.8041   19.9673 N   0  0  0  0  0  0  0  0  0  0  0  0
  -27.3502  -27.8287   20.6017 N   0  0  0  0  0  0  0  0  0  0  0  0
  -25.5997  -19.9774   22.0792 N   0  0  0  0  0  0  0  0  0  0  0  0
  -24.2940  -17.8099   18.0836 N   0  0  0  0  0  0  0  0  0  0  0  0
  -23.2194  -13.4451   17.6478 N   0  0  0  0  0  0  0  0  0  0  0  0
  -25.9610  -25.5601   18.2239 N   0  0  0  0  0  0  0  0  0  0  0  0
  -30.1999  -28.4293   22.3271 N   0  0  0  0  0  0  0  0  0  0  0  0
  -23.9607  -21.4636   21.2435 N   0  0  0  0  0  0  0  0  0  0  0  0
  -31.0440  -31.9142   22.7858 N   0  3  0  0  0  0  0  0  0  0  0  0
  -23.0058  -15.5195   16.6938 O   0  0  0  0  0  0  0  0  0  0  0  0
  -25.3945  -26.0519   20.4284 O   0  0  0  0  0  0  0  0  0  0  0  0
  -29.4167  -26.9173   20.0229 O   0  0  0  0  0  0  0  0  0  0  0  0
  -29.1016  -30.0407   23.5818 O   0  0  0  0  0  0  0  0  0  0  0  0
  -25.7222  -22.2587   22.4771 O   0  0  0  0  0  0  0  0  0  0  0  0
  -24.6845   -9.3315   21.1071 O   0  0  0  0  0  0  0  0  0  0  0  0
  -22.4305  -30.9729   22.5926 O   0  0  0  0  0  0  0  0  0  1  0  0
  -23.6588   -7.9837   26.3546 F   0  0  0  0  0  0  0  0  0  0  0  0
  -22.4841   -7.7961   21.7731 F   0  0  0  0  0  0  0  0  0  0  0  0
  1  2  1  0  0  0  0
  1  5  2  0  0  0  0
  2  6  2  0  0  0  0
  3  8  2  0  0  0  0
  3 17  1  0  0  0  0
  4  9  1  0  0  0  0
  4 17  2  0  0  0  0
  5 19  1  0  0  0  0
  6 21  1  0  0  0  0
  7 10  2  0  0  0  0
  7 20  1  0  0  0  0
  8 25  1  0  0  0  0
  9 25  2  0  0  0  0
 10 26  1  0  0  0  0
 11 12  2  0  0  0  0
 11 27  1  0  0  0  0
 12 28  1  0  0  0  0
 13 22  1  0  0  0  0
 13 26  2  0  0  0  0
 14 23  2  0  0  0  0
 14 31  1  0  0  0  0
 15 28  2  0  0  0  0
 15 29  1  0  0  0  0
 16 24  2  0  0  0  0
 16 66  1  0  0  0  0
 17 30  1  0  0  0  0
 18 30  1  0  0  0  0
 18 32  2  0  0  0  0
 18 33  1  0  0  0  0
 19 21  2  0  0  0  0
 19 38  1  0  0  0  0
 20 22  2  0  0  0  0
 20 39  1  0  0  0  0
 21 47  1  0  0  0  0
 22 40  1  0  0  0  0
 23 24  1  0  0  0  0
 23 56  1  0  0  0  0
 24 50  1  0  0  0  0
 25 82  1  0  0  0  0
 26 83  1  0  0  0  0
 27 29  2  0  0  0  0
 27 82  1  0  0  0  0
 28 84  1  0  0  0  0
 29 85  1  0  0  0  0
 30 67  2  0  0  0  0
 31 57  1  0  0  0  0
 31 66  2  0  0  0  0
 32 68  1  0  0  0  0
 32 71  1  0  0  0  0
 33 72  1  0  0  0  0
 33 77  2  0  0  0  0
 34 48  1  0  0  0  0
 34 73  1  0  0  0  0
 34 78  2  0  0  0  0
 35 63  1  0  0  0  0
 35 69  1  0  0  0  0
 35 79  2  0  0  0  0
 36 64  1  0  0  0  0
 36 74  1  0  0  0  0
 36 80  2  0  0  0  0
 37 70  1  0  0  0  0
 37 75  1  0  0  0  0
 37 81  2  0  0  0  0
 38 41  1  0  0  0  0
 39 48  1  0  0  0  0
 40 69  1  0  0  0  0
 41 43  1  0  0  0  0
 42 44  1  0  0  0  0
 42 45  1  0  0  0  0
 43 47  1  0  0  0  0
 44 49  1  0  0  0  0
 45 70  1  0  0  0  0
 46 49  1  0  0  0  0
 46 70  1  0  0  0  0
 47 73  1  0  0  0  0
 48 69  1  0  0  0  0
 49 68  1  0  0  0  0
 51 64  1  0  0  0  0
 52 65  1  0  0  0  0
 53 65  1  0  0  0  0
 54 65  1  0  0  0  0
 55 76  1  0  0  0  0
 56 58  1  0  0  0  0
 57 59  1  0  0  0  0
 58 60  1  0  0  0  0
 59 62  1  0  0  0  0
 60 61  1  0  0  0  0
 61 75  1  0  0  0  0
 62 83  1  0  0  0  0
 63 65  1  0  0  0  0
 63 74  1  0  0  0  0
 64 76  1  0  0  0  0
 67 68  1  0  0  0  0
M  CHG  1  76   1
M  ISO  4  37 100  62 101  75 100  83 101
M  END
> <Batch ID>
0040

> <Smiles>
CNC(C)C(=O)NC(C(=O)N1Cc2cc([101O:1][101CH2:1]CCc3cc(CCCC[100NH:0][100C:0](=O)N4CCCC(n5nc(-c6ccc(Oc7ccc(F)cc7F)cc6)c(C(N)=O)c5N)C4)c(C)cn3)ccc2CC1C(=O)NC1CCCc2ccccc21)C(C)(C)C

> <Shape>
0.205

> <Color>
0.082

> <Negative vol penalty>
0.000

$$$$

  -OEChem-04052317073D

 87 95  0     1  0  0  0  0  0999 V2000
  -18.7345  -31.5233   26.4683 C   0  0  0  0  0  0  0  0  0  0  0  0
  -19.6656  -30.4988   26.6054 C   0  0  0  0  0  0  0  0  0  0  0  0
  -30.8090  -19.7735   19.1075 C   0  0  0  0  0  0  0  0  0  0  0  0
  -29.0157  -20.2076   20.6672 C   0  0  0  0  0  0  0  0  0  0  0  0
  -17.8236  -31.4992   25.4130 C   0  0  0  0  0  0  0  0  0  0  0  0
  -19.6856  -29.4490   25.6879 C   0  0  0  0  0  0  0  0  0  0  0  0
  -24.6083  -26.4124   23.6749 C   0  0  0  0  0  0  0  0  0  0  0  0
  -30.6225  -21.0349   18.5420 C   0  0  0  0  0  0  0  0  0  0  0  0
  -28.8293  -21.4690   20.1017 C   0  0  0  0  0  0  0  0  0  0  0  0
  -25.1713  -25.1906   24.0410 C   0  0  0  0  0  0  0  0  0  0  0  0
  -30.2995  -24.5080   20.2559 C   0  0  0  0  0  0  0  0  0  0  0  0
  -30.1392  -25.5882   21.1237 C   0  0  0  0  0  0  0  0  0  0  0  0
  -23.9924  -24.1125   22.2335 C   0  0  0  0  0  0  0  0  0  0  0  0
  -27.9605  -26.0263   20.1758 C   0  0  0  0  0  0  0  0  0  0  0  0
  -20.9423  -20.5008   25.3583 C   0  0  0  0  0  0  0  0  0  0  0  0
  -30.0055  -19.3598   20.1700 C   0  0  0  0  0  0  0  0  0  0  0  0
  -31.0474  -17.7219   21.8251 C   0  0  0  0  0  0  0  0  0  0  0  0
  -17.8387  -30.4535   24.4766 C   0  0  0  0  0  0  0  0  0  0  0  0
  -23.7231  -26.4916   22.5902 C   0  0  0  0  0  0  0  0  0  0  0  0
  -18.7732  -29.4102   24.6199 C   0  0  0  0  0  0  0  0  0  0  0  0
  -23.4215  -25.3369   21.8540 C   0  0  0  0  0  0  0  0  0  0  0  0
  -21.8716  -18.6293   23.6719 C   0  0  0  0  0  0  0  0  0  0  0  0
  -29.6327  -21.8827   19.0391 C   0  0  0  0  0  0  0  0  0  0  0  0
  -24.8612  -24.0399   23.3221 C   0  0  0  0  0  0  0  0  0  0  0  0
  -29.2903  -24.1869   19.3480 C   0  0  0  0  0  0  0  0  0  0  0  0
  -28.9697  -26.3473   21.0836 C   0  0  0  0  0  0  0  0  0  0  0  0
  -28.1208  -24.9461   19.3080 C   0  0  0  0  0  0  0  0  0  0  0  0
  -30.1972  -18.0567   20.7542 C   0  0  0  0  0  0  0  0  0  0  0  0
  -20.5215  -18.8382   23.8664 C   0  0  0  0  0  0  0  0  0  0  0  0
  -22.7130  -19.4451   24.4005 C   0  0  0  0  0  0  0  0  0  0  0  0
  -30.8682  -16.3710   21.9964 C   0  0  0  0  0  0  0  0  0  0  0  0
  -31.9209  -18.5574   22.5963 C   0  0  0  0  0  0  0  0  0  0  0  0
  -20.6747  -27.3207   22.2385 C   0  0  0  0  0  0  0  0  0  0  0  0
  -21.3472  -26.9671   19.0849 C   0  0  0  0  0  0  0  0  0  0  0  0
  -23.3059  -25.5390   16.6826 C   0  0  0  0  0  0  0  0  0  0  0  0
  -26.3509  -12.6605   20.7012 C   0  0  0  0  0  0  0  0  0  0  0  0
  -16.8036  -30.4463   23.3798 C   0  0  0  0  0  0  0  0  0  0  0  0
  -23.1451  -27.8217   22.1914 C   0  0  0  0  0  0  0  0  0  0  0  0
  -22.4928  -25.3720   20.6688 C   0  0  0  0  0  0  0  0  0  0  0  0
  -17.1352  -29.4917   22.2356 C   0  0  0  0  0  0  0  0  0  0  0  0
  -29.7185  -12.4093   19.5728 C   0  0  0  0  0  0  0  0  0  0  0  0
  -17.5727  -28.1361   22.7811 C   0  0  0  0  0  0  0  0  0  0  0  0
  -30.2997  -13.7980   19.8443 C   0  0  0  0  0  0  0  0  0  0  0  0
  -28.2587  -12.4851   19.1308 C   0  0  0  0  0  0  0  0  0  0  0  0
  -27.9560  -14.6272   20.3112 C   0  0  0  0  0  0  0  0  0  0  0  0
  -18.8425  -28.2670   23.6307 C   0  0  1  0  0  0  0  0  0  0  0  0
  -21.8548  -27.6956   21.3873 C   0  0  1  0  0  0  0  0  0  0  0  0
  -29.4096  -14.5987   20.8137 C   0  0  2  0  0  0  0  0  0  0  0  0
  -19.3549  -18.4567   21.6800 C   0  0  0  0  0  0  0  0  0  0  0  0
  -24.2130  -25.0772   14.3889 C   0  0  0  0  0  0  0  0  0  0  0  0
  -18.9561  -25.0793   18.9149 C   0  0  0  0  0  0  0  0  0  0  0  0
  -19.8432  -24.2654   16.7197 C   0  0  0  0  0  0  0  0  0  0  0  0
  -19.1801  -26.6554   16.9861 C   0  0  0  0  0  0  0  0  0  0  0  0
  -25.2663  -27.7468   16.8869 C   0  0  0  0  0  0  0  0  0  0  0  0
  -22.3865  -17.5924   22.7378 C   0  0  0  0  0  0  0  0  0  0  0  0
  -19.5151  -18.0151   23.1316 C   0  0  0  0  0  0  0  0  0  0  0  0
  -24.2091  -19.3094   24.2710 C   0  0  0  0  0  0  0  0  0  0  0  0
  -22.8894  -16.3394   23.4738 C   0  0  0  0  0  0  0  0  0  0  0  0
  -24.9662  -20.6245   24.4686 C   0  0  0  0  0  0  0  0  0  0  0  0
  -23.4537  -15.2967   22.5065 C   0  0  0  0  0  0  0  0  0  0  0  0
  -23.9137  -14.0400   23.2513 C   0  0  0  0  0  0  0  0  0  0  0  0
  -24.4946  -12.9844   22.3162 C   0  0  0  0  0  0  0  0  0  0  0  0
  -24.6396  -21.6737   23.4123 C   0  0  0  0  0  0  0  0  0  1  0  0
  -21.2909  -25.8231   18.1015 C   0  0  1  0  0  0  0  0  0  0  0  0
  -24.0001  -26.1277   15.4677 C   0  0  2  0  0  0  0  0  0  0  0  0
  -19.8336  -25.4545   17.7040 C   0  0  0  0  0  0  0  0  0  0  0  0
  -20.0201  -19.7687   24.7050 N   0  0  0  0  0  0  0  0  0  0  0  0
  -22.2809  -20.3948   25.2559 N   0  0  0  0  0  0  0  0  0  0  0  0
  -29.5278  -17.0033   20.2785 N   0  0  0  0  0  0  0  0  0  0  0  0
  -29.9574  -15.9934   21.0541 N   0  0  0  0  0  0  0  0  0  0  0  0
  -21.9481  -26.6951   20.3222 N   0  0  0  0  0  0  0  0  0  0  0  0
  -27.4686  -13.2561   20.0938 N   0  0  0  0  0  0  0  0  0  0  0  0
  -31.4026  -15.4811   22.8596 N   0  0  0  0  0  0  0  0  0  0  0  0
  -31.9839  -19.9231   22.2875 N   0  0  0  0  0  0  0  0  0  0  0  0
  -20.0069  -28.4015   22.7819 N   0  0  0  0  0  0  0  0  0  0  0  0
  -22.1373  -26.2088   16.9776 N   0  0  0  0  0  0  0  0  0  0  0  0
  -25.6616  -13.4584   21.6061 N   0  0  0  0  0  0  0  0  0  0  0  0
  -25.3284  -26.6852   15.8495 N   0  3  0  0  0  0  0  0  0  0  0  0
  -32.6370  -18.1033   23.5207 O   0  0  0  0  0  0  0  0  0  0  0  0
  -20.3902  -26.1384   22.3898 O   0  0  0  0  0  0  0  0  0  0  0  0
  -20.8819  -28.0636   18.7643 O   0  0  0  0  0  0  0  0  0  0  0  0
  -23.7535  -24.5786   17.3053 O   0  0  0  0  0  0  0  0  0  0  0  0
  -25.9970  -11.5015   20.4594 O   0  0  0  0  0  0  0  0  0  0  0  0
  -29.4507  -23.1137   18.4877 O   0  0  0  0  0  0  0  0  0  0  0  0
  -25.4088  -22.8460   23.6778 O   0  0  0  0  0  0  0  0  0  1  0  0
  -28.8152  -27.3837   21.9180 F   0  0  0  0  0  0  0  0  0  0  0  0
  -27.1473  -24.6417   18.4388 F   0  0  0  0  0  0  0  0  0  0  0  0
  1  2  1  0  0  0  0
  1  5  2  0  0  0  0
  2  6  2  0  0  0  0
  3  8  2  0  0  0  0
  3 16  1  0  0  0  0
  4  9  1  0  0  0  0
  4 16  2  0  0  0  0
  5 18  1  0  0  0  0
  6 20  1  0  0  0  0
  7 10  2  0  0  0  0
  7 19  1  0  0  0  0
  8 23  1  0  0  0  0
  9 23  2  0  0  0  0
 10 24  1  0  0  0  0
 11 12  2  0  0  0  0
 11 25  1  0  0  0  0
 12 26  1  0  0  0  0
 13 21  1  0  0  0  0
 13 24  2  0  0  0  0
 14 26  2  0  0  0  0
 14 27  1  0  0  0  0
 15 67  2  0  0  0  0
 15 68  1  0  0  0  0
 16 28  1  0  0  0  0
 17 28  1  0  0  0  0
 17 31  2  0  0  0  0
 17 32  1  0  0  0  0
 18 20  2  0  0  0  0
 18 37  1  0  0  0  0
 19 21  2  0  0  0  0
 19 38  1  0  0  0  0
 20 46  1  0  0  0  0
 21 39  1  0  0  0  0
 22 29  2  0  0  0  0
 22 30  1  0  0  0  0
 22 55  1  0  0  0  0
 23 84  1  0  0  0  0
 24 85  1  0  0  0  0
 25 27  2  0  0  0  0
 25 84  1  0  0  0  0
 26 86  1  0  0  0  0
 27 87  1  0  0  0  0
 28 69  2  0  0  0  0
 29 56  1  0  0  0  0
 29 67  1  0  0  0  0
 30 57  1  0  0  0  0
 30 68  2  0  0  0  0
 31 70  1  0  0  0  0
 31 73  1  0  0  0  0
 32 74  1  0  0  0  0
 32 79  2  0  0  0  0
 33 47  1  0  0  0  0
 33 75  1  0  0  0  0
 33 80  2  0  0  0  0
 34 64  1  0  0  0  0
 34 71  1  0  0  0  0
 34 81  2  0  0  0  0
 35 65  1  0  0  0  0
 35 76  1  0  0  0  0
 35 82  2  0  0  0  0
 36 72  1  0  0  0  0
 36 77  1  0  0  0  0
 36 83  2  0  0  0  0
 37 40  1  0  0  0  0
 38 47  1  0  0  0  0
 39 71  1  0  0  0  0
 40 42  1  0  0  0  0
 41 43  1  0  0  0  0
 41 44  1  0  0  0  0
 42 46  1  0  0  0  0
 43 48  1  0  0  0  0
 44 72  1  0  0  0  0
 45 48  1  0  0  0  0
 45 72  1  0  0  0  0
 46 75  1  0  0  0  0
 47 71  1  0  0  0  0
 48 70  1  0  0  0  0
 49 56  1  0  0  0  0
 50 65  1  0  0  0  0
 51 66  1  0  0  0  0
 52 66  1  0  0  0  0
 53 66  1  0  0  0  0
 54 78  1  0  0  0  0
 55 58  1  0  0  0  0
 57 59  1  0  0  0  0
 58 60  1  0  0  0  0
 59 63  1  0  0  0  0
 60 61  1  0  0  0  0
 61 62  1  0  0  0  0
 62 77  1  0  0  0  0
 63 85  1  0  0  0  0
 64 66  1  0  0  0  0
 64 76  1  0  0  0  0
 65 78  1  0  0  0  0
 69 70  1  0  0  0  0
M  CHG  1  78   1
M  ISO  4  36 100  63 101  77 100  85 101
M  END
> <Batch ID>
0040

> <Smiles>
CCc1ncnc(CC[101CH2:1][101O:1]c2ccc3c(c2)CN(C(=O)C(NC(=O)C(C)NC)C(C)(C)C)C(C(=O)NC2CCCc4ccccc42)C3)c1CCCCC[100NH:0][100C:0](=O)N1CCCC(n2nc(-c3ccc(Oc4ccc(F)cc4F)cc3)c(C(N)=O)c2N)C1

> <Shape>
0.205

> <Color>
0.063

> <Negative vol penalty>
0.000

$$$$

  -OEChem-04052317073D

 84 92  0     1  0  0  0  0  0999 V2000
  -24.4806  -31.7382   18.4804 C   0  0  0  0  0  0  0  0  0  0  0  0
  -24.5271  -30.4264   18.0194 C   0  0  0  0  0  0  0  0  0  0  0  0
  -23.1432   -9.8146   20.0047 C   0  0  0  0  0  0  0  0  0  0  0  0
  -23.8538   -9.9553   22.3096 C   0  0  0  0  0  0  0  0  0  0  0  0
  -25.4529  -32.1991   19.3670 C   0  0  0  0  0  0  0  0  0  0  0  0
  -25.5467  -29.5751   18.4438 C   0  0  0  0  0  0  0  0  0  0  0  0
  -25.1295  -23.5494   19.4549 C   0  0  0  0  0  0  0  0  0  0  0  0
  -22.4233   -8.6562   20.2973 C   0  0  0  0  0  0  0  0  0  0  0  0
  -23.1339   -8.7969   22.6022 C   0  0  0  0  0  0  0  0  0  0  0  0
  -25.4680  -22.4423   18.6781 C   0  0  0  0  0  0  0  0  0  0  0  0
  -19.9146   -7.9460   23.1794 C   0  0  0  0  0  0  0  0  0  0  0  0
  -19.1342   -7.9445   24.3355 C   0  0  0  0  0  0  0  0  0  0  0  0
  -27.5913  -22.3019   19.8144 C   0  0  0  0  0  0  0  0  0  0  0  0
  -30.4122  -17.1434   17.1071 C   0  0  0  0  0  0  0  0  0  0  0  0
  -20.4079   -6.0791   25.1929 C   0  0  0  0  0  0  0  0  0  0  0  0
  -32.1555  -18.0091   19.0195 C   0  0  0  0  0  0  0  0  0  0  0  0
  -23.8585  -10.4641   21.0108 C   0  0  0  0  0  0  0  0  0  0  0  0
  -24.1393  -12.9882   20.7711 C   0  0  0  0  0  0  0  0  0  0  0  0
  -26.4794  -31.3502   19.8101 C   0  0  0  0  0  0  0  0  0  0  0  0
  -26.0253  -24.0485   20.4113 C   0  0  0  0  0  0  0  0  0  0  0  0
  -26.5344  -30.0255   19.3361 C   0  0  0  0  0  0  0  0  0  0  0  0
  -27.2607  -23.4139   20.6038 C   0  0  0  0  0  0  0  0  0  0  0  0
  -29.9358  -17.4451   18.3780 C   0  0  0  0  0  0  0  0  0  0  0  0
  -30.8175  -17.8869   19.3582 C   0  0  0  0  0  0  0  0  0  0  0  0
  -22.4186   -8.1474   21.5961 C   0  0  0  0  0  0  0  0  0  0  0  0
  -26.7003  -21.8201   18.8557 C   0  0  0  0  0  0  0  0  0  0  0  0
  -20.9417   -7.0140   23.0300 C   0  0  0  0  0  0  0  0  0  0  0  0
  -19.3809   -7.0111   25.3422 C   0  0  0  0  0  0  0  0  0  0  0  0
  -21.1883   -6.0806   24.0368 C   0  0  0  0  0  0  0  0  0  0  0  0
  -24.6027  -11.6604   20.7091 C   0  0  0  0  0  0  0  0  0  0  0  0
  -31.7683  -17.2991   16.8691 C   0  0  0  0  0  0  0  0  0  0  0  0
  -25.2198  -13.7470   20.3925 C   0  0  0  0  0  0  0  0  0  0  0  0
  -22.8477  -13.4908   21.1381 C   0  0  0  0  0  0  0  0  0  0  0  0
  -27.5542  -26.8037   20.8303 C   0  0  0  0  0  0  0  0  0  0  0  0
  -28.4579  -25.4291   23.6261 C   0  0  0  0  0  0  0  0  0  0  0  0
  -28.9987  -22.5680   25.4061 C   0  0  0  0  0  0  0  0  0  0  0  0
  -30.6710  -14.9170   20.6390 C   0  0  0  0  0  0  0  0  0  0  0  0
  -27.5351  -31.9073   20.7319 C   0  0  0  0  0  0  0  0  0  0  0  0
  -25.6341  -25.2273   21.2598 C   0  0  0  0  0  0  0  0  0  0  0  0
  -28.2495  -23.8983   21.6314 C   0  0  0  0  0  0  0  0  0  0  0  0
  -28.3675  -30.8319   21.4252 C   0  0  0  0  0  0  0  0  0  0  0  0
  -29.6446  -12.3880   18.3527 C   0  0  0  0  0  0  0  0  0  0  0  0
  -28.8157  -29.7741   20.4216 C   0  0  0  0  0  0  0  0  0  0  0  0
  -28.2061  -12.0787   18.7710 C   0  0  0  0  0  0  0  0  0  0  0  0
  -30.5302  -12.6920   19.5590 C   0  0  0  0  0  0  0  0  0  0  0  0
  -28.5816  -13.4412   20.8689 C   0  0  0  0  0  0  0  0  0  0  0  0
  -27.6105  -29.0645   19.7928 C   0  0  1  0  0  0  0  0  0  0  0  0
  -26.8334  -25.9648   21.8474 C   0  0  1  0  0  0  0  0  0  0  0  0
  -27.6374  -13.1829   19.6823 C   0  0  2  0  0  0  0  0  0  0  0  0
  -32.7503  -15.5269   15.3921 C   0  0  0  0  0  0  0  0  0  0  0  0
  -29.7718  -21.7627   27.6536 C   0  0  0  0  0  0  0  0  0  0  0  0
  -31.3441  -26.0446   22.8511 C   0  0  0  0  0  0  0  0  0  0  0  0
  -32.0880  -24.4189   24.6038 C   0  0  0  0  0  0  0  0  0  0  0  0
  -30.8004  -26.4529   25.2578 C   0  0  0  0  0  0  0  0  0  0  0  0
  -26.4066  -21.2490   25.9541 C   0  0  0  0  0  0  0  0  0  0  0  0
  -28.4649  -17.2867   18.6695 C   0  0  0  0  0  0  0  0  0  0  0  0
  -30.3609  -18.2232   20.7353 C   0  0  0  0  0  0  0  0  0  0  0  0
  -32.3149  -16.9843   15.5167 C   0  0  0  0  0  0  0  0  0  0  0  0
  -27.5983  -18.4079   18.0921 C   0  0  0  0  0  0  0  0  0  0  0  0
  -30.6566  -17.1273   21.7675 C   0  0  0  0  0  0  0  0  0  0  0  0
  -27.9052  -19.7765   18.6889 C   0  0  0  0  0  0  0  0  0  1  0  0
  -29.6137  -24.5642   24.0676 C   0  0  1  0  0  0  0  0  0  0  0  0
  -28.5733  -22.1557   26.8038 C   0  0  2  0  0  0  0  0  0  0  0  0
  -30.9440  -25.3619   24.1743 C   0  0  0  0  0  0  0  0  0  0  0  0
  -32.6554  -17.7256   17.7958 N   0  0  0  0  0  0  0  0  0  0  0  0
  -25.8782  -11.5769   20.3215 N   0  0  0  0  0  0  0  0  0  0  0  0
  -26.2254  -12.8619   20.1364 N   0  0  0  0  0  0  0  0  0  0  0  0
  -27.8235  -25.0581   22.4320 N   0  0  0  0  0  0  0  0  0  0  0  0
  -29.9353  -13.7486   20.3811 N   0  0  0  0  0  0  0  0  0  0  0  0
  -25.3983  -15.0782   20.2570 N   0  0  0  0  0  0  0  0  0  0  0  0
  -21.8520  -12.5734   21.5003 N   0  0  0  0  0  0  0  0  0  0  0  0
  -27.0624  -28.0895   20.7112 N   0  0  0  0  0  0  0  0  0  0  0  0
  -29.1961  -23.9295   25.3131 N   0  0  0  0  0  0  0  0  0  0  0  0
  -30.0310  -15.8705   21.4212 N   0  0  0  0  0  0  0  0  0  0  0  0
  -27.6413  -20.9946   26.7402 N   0  3  0  0  0  0  0  0  0  0  0  0
  -22.5795  -14.7162   21.1289 O   0  0  0  0  0  0  0  0  0  0  0  0
  -28.4883  -26.3206   20.2013 O   0  0  0  0  0  0  0  0  0  0  0  0
  -28.1254  -26.3940   24.3189 O   0  0  0  0  0  0  0  0  0  0  0  0
  -29.1450  -21.7624   24.4895 O   0  0  0  0  0  0  0  0  0  0  0  0
  -31.8116  -15.0993   20.1999 O   0  0  0  0  0  0  0  0  0  0  0  0
  -21.7161   -7.0173   21.8820 O   0  0  0  0  0  0  0  0  0  0  0  0
  -27.0335  -20.7397   18.0983 O   0  0  0  0  0  0  0  0  0  1  0  0
  -18.6323   -7.0108   26.4530 F   0  0  0  0  0  0  0  0  0  0  0  0
  -22.1743   -5.1835   23.8994 F   0  0  0  0  0  0  0  0  0  0  0  0
  1  2  1  0  0  0  0
  1  5  2  0  0  0  0
  2  6  2  0  0  0  0
  3  8  2  0  0  0  0
  3 17  1  0  0  0  0
  4  9  1  0  0  0  0
  4 17  2  0  0  0  0
  5 19  1  0  0  0  0
  6 21  1  0  0  0  0
  7 10  2  0  0  0  0
  7 20  1  0  0  0  0
  8 25  1  0  0  0  0
  9 25  2  0  0  0  0
 10 26  1  0  0  0  0
 11 12  2  0  0  0  0
 11 27  1  0  0  0  0
 12 28  1  0  0  0  0
 13 22  1  0  0  0  0
 13 26  2  0  0  0  0
 14 23  2  0  0  0  0
 14 31  1  0  0  0  0
 15 28  2  0  0  0  0
 15 29  1  0  0  0  0
 16 24  2  0  0  0  0
 16 65  1  0  0  0  0
 17 30  1  0  0  0  0
 18 30  1  0  0  0  0
 18 32  2  0  0  0  0
 18 33  1  0  0  0  0
 19 21  2  0  0  0  0
 19 38  1  0  0  0  0
 20 22  2  0  0  0  0
 20 39  1  0  0  0  0
 21 47  1  0  0  0  0
 22 40  1  0  0  0  0
 23 24  1  0  0  0  0
 23 56  1  0  0  0  0
 24 57  1  0  0  0  0
 25 81  1  0  0  0  0
 26 82  1  0  0  0  0
 27 29  2  0  0  0  0
 27 81  1  0  0  0  0
 28 83  1  0  0  0  0
 29 84  1  0  0  0  0
 30 66  2  0  0  0  0
 31 58  1  0  0  0  0
 31 65  2  0  0  0  0
 32 67  1  0  0  0  0
 32 70  1  0  0  0  0
 33 71  1  0  0  0  0
 33 76  2  0  0  0  0
 34 48  1  0  0  0  0
 34 72  1  0  0  0  0
 34 77  2  0  0  0  0
 35 62  1  0  0  0  0
 35 68  1  0  0  0  0
 35 78  2  0  0  0  0
 36 63  1  0  0  0  0
 36 73  1  0  0  0  0
 36 79  2  0  0  0  0
 37 69  1  0  0  0  0
 37 74  1  0  0  0  0
 37 80  2  0  0  0  0
 38 41  1  0  0  0  0
 39 48  1  0  0  0  0
 40 68  1  0  0  0  0
 41 43  1  0  0  0  0
 42 44  1  0  0  0  0
 42 45  1  0  0  0  0
 43 47  1  0  0  0  0
 44 49  1  0  0  0  0
 45 69  1  0  0  0  0
 46 49  1  0  0  0  0
 46 69  1  0  0  0  0
 47 72  1  0  0  0  0
 48 68  1  0  0  0  0
 49 67  1  0  0  0  0
 50 58  1  0  0  0  0
 51 63  1  0  0  0  0
 52 64  1  0  0  0  0
 53 64  1  0  0  0  0
 54 64  1  0  0  0  0
 55 75  1  0  0  0  0
 56 59  1  0  0  0  0
 57 60  1  0  0  0  0
 59 61  1  0  0  0  0
 60 74  1  0  0  0  0
 61 82  1  0  0  0  0
 62 64  1  0  0  0  0
 62 73  1  0  0  0  0
 63 75  1  0  0  0  0
 66 67  1  0  0  0  0
M  CHG  1  75   1
M  ISO  4  37 100  61 101  74 100  82 101
M  END
> <Batch ID>
0040

> <Smiles>
CCc1cc(CC[101CH2:1][101O:1]c2ccc3c(c2)CN(C(=O)C(NC(=O)C(C)NC)C(C)(C)C)C(C(=O)NC2CCCc4ccccc42)C3)c(CC[100NH:0][100C:0](=O)N2CCCC(n3nc(-c4ccc(Oc5ccc(F)cc5F)cc4)c(C(N)=O)c3N)C2)cn1

> <Shape>
0.242

> <Color>
0.209

> <Negative vol penalty>
0.000

$$$$

  -OEChem-04052317073D

 85 93  0     1  0  0  0  0  0999 V2000
  -18.9629  -26.7525   17.9514 C   0  0  0  0  0  0  0  0  0  0  0  0
  -19.2116  -25.4669   17.4816 C   0  0  0  0  0  0  0  0  0  0  0  0
  -27.8950  -23.5418   20.8148 C   0  0  0  0  0  0  0  0  0  0  0  0
  -28.0155  -23.0019   18.4630 C   0  0  0  0  0  0  0  0  0  0  0  0
  -19.4090  -27.1292   19.2175 C   0  0  0  0  0  0  0  0  0  0  0  0
  -19.9075  -24.5575   18.2773 C   0  0  0  0  0  0  0  0  0  0  0  0
  -20.2803  -17.5525   19.7290 C   0  0  0  0  0  0  0  0  0  0  0  0
  -27.8688  -24.9007   20.5015 C   0  0  0  0  0  0  0  0  0  0  0  0
  -27.9892  -24.3609   18.1497 C   0  0  0  0  0  0  0  0  0  0  0  0
  -21.2086  -16.5145   19.7969 C   0  0  0  0  0  0  0  0  0  0  0  0
  -25.6052  -27.1612   19.4064 C   0  0  0  0  0  0  0  0  0  0  0  0
  -24.6759  -27.9617   20.0706 C   0  0  0  0  0  0  0  0  0  0  0  0
  -21.8622  -17.2514   21.9990 C   0  0  0  0  0  0  0  0  0  0  0  0
  -25.9321  -11.4564   20.6688 C   0  0  0  0  0  0  0  0  0  0  0  0
  -23.6196  -12.1259   20.4661 C   0  0  0  0  0  0  0  0  0  0  0  0
  -25.3808  -13.7378   20.0957 C   0  0  0  0  0  0  0  0  0  0  0  0
  -26.4735  -29.3029   20.9692 C   0  0  0  0  0  0  0  0  0  0  0  0
  -27.9685  -22.5923   19.7955 C   0  0  0  0  0  0  0  0  0  0  0  0
  -26.8921  -20.3266   20.2596 C   0  0  0  0  0  0  0  0  0  0  0  0
  -20.1024  -26.2209   20.0330 C   0  0  0  0  0  0  0  0  0  0  0  0
  -20.1434  -18.4557   20.7928 C   0  0  0  0  0  0  0  0  0  0  0  0
  -20.3645  -24.9228   19.5549 C   0  0  0  0  0  0  0  0  0  0  0  0
  -20.9296  -18.2984   21.9431 C   0  0  0  0  0  0  0  0  0  0  0  0
  -24.5742  -11.1423   20.7248 C   0  0  0  0  0  0  0  0  0  0  0  0
  -26.3354  -12.7542   20.3543 C   0  0  0  0  0  0  0  0  0  0  0  0
  -24.0229  -13.4237   20.1516 C   0  0  0  0  0  0  0  0  0  0  0  0
  -27.9158  -25.3103   19.1690 C   0  0  0  0  0  0  0  0  0  0  0  0
  -22.0018  -16.3656   20.9309 C   0  0  0  0  0  0  0  0  0  0  0  0
  -26.9686  -27.4315   19.5236 C   0  0  0  0  0  0  0  0  0  0  0  0
  -25.1100  -29.0326   20.8520 C   0  0  0  0  0  0  0  0  0  0  0  0
  -27.4027  -28.5023   20.3049 C   0  0  0  0  0  0  0  0  0  0  0  0
  -27.9962  -21.1884   20.1185 C   0  0  0  0  0  0  0  0  0  0  0  0
  -27.4452  -19.1075   20.5669 C   0  0  0  0  0  0  0  0  0  0  0  0
  -25.4917  -20.6032   20.1248 C   0  0  0  0  0  0  0  0  0  0  0  0
  -20.5435  -21.5899   21.1400 C   0  0  0  0  0  0  0  0  0  0  0  0
  -19.3247  -21.0247   24.0926 C   0  0  0  0  0  0  0  0  0  0  0  0
  -18.7735  -18.8015   26.6225 C   0  0  0  0  0  0  0  0  0  0  0  0
  -31.2896  -15.1532   19.7131 C   0  0  0  0  0  0  0  0  0  0  0  0
  -20.6062  -26.6888   21.3754 C   0  0  0  0  0  0  0  0  0  0  0  0
  -19.1186  -19.5540   20.7150 C   0  0  0  0  0  0  0  0  0  0  0  0
  -20.8070  -19.2291   23.1209 C   0  0  0  0  0  0  0  0  0  0  0  0
  -21.0093  -25.5479   22.3060 C   0  0  0  0  0  0  0  0  0  0  0  0
  -32.1815  -17.8674   21.8378 C   0  0  0  0  0  0  0  0  0  0  0  0
  -21.8688  -24.5306   21.5622 C   0  0  0  0  0  0  0  0  0  0  0  0
  -31.0850  -18.9040   21.5868 C   0  0  0  0  0  0  0  0  0  0  0  0
  -32.5466  -17.1118   20.5619 C   0  0  0  0  0  0  0  0  0  0  0  0
  -30.3102  -17.5253   19.6126 C   0  0  0  0  0  0  0  0  0  0  0  0
  -21.0945  -23.9001   20.3983 C   0  0  1  0  0  0  0  0  0  0  0  0
  -19.4245  -20.7237   21.6453 C   0  0  1  0  0  0  0  0  0  0  0  0
  -29.8687  -18.2742   20.8817 C   0  0  2  0  0  0  0  0  0  0  0  0
  -23.4054   -7.9276   24.4157 C   0  0  0  0  0  0  0  0  0  0  0  0
  -17.7881  -18.6419   28.9248 C   0  0  0  0  0  0  0  0  0  0  0  0
  -21.7791  -22.4298   25.2378 C   0  0  0  0  0  0  0  0  0  0  0  0
  -21.2319  -21.4213   27.4630 C   0  0  0  0  0  0  0  0  0  0  0  0
  -19.6266  -22.9936   26.3796 C   0  0  0  0  0  0  0  0  0  0  0  0
  -16.7715  -16.8027   25.7531 C   0  0  0  0  0  0  0  0  0  0  0  0
  -24.1437   -9.7544   21.0607 C   0  0  0  0  0  0  0  0  0  0  0  0
  -27.7872  -13.0905   20.2940 C   0  0  0  0  0  0  0  0  0  0  0  0
  -22.9957  -14.4814   19.8735 C   0  0  0  0  0  0  0  0  0  1  0  0
  -23.5515   -8.1235   22.9151 C   0  0  0  0  0  0  0  0  0  0  0  0
  -23.9542   -9.5581   22.5737 C   0  0  0  0  0  0  0  0  0  0  0  0
  -28.4298  -12.8972   18.9063 C   0  0  0  0  0  0  0  0  0  0  0  0
  -29.9037  -13.2907   18.8358 C   0  0  0  0  0  0  0  0  0  0  0  0
  -19.9063  -20.6639   25.4381 C   0  0  1  0  0  0  0  0  0  0  0  0
  -17.5298  -18.4872   27.4341 C   0  0  2  0  0  0  0  0  0  0  0  0
  -20.6399  -21.8606   26.1068 C   0  0  0  0  0  0  0  0  0  0  0  0
  -29.1626  -20.5694   20.3199 N   0  0  0  0  0  0  0  0  0  0  0  0
  -28.7944  -19.3056   20.5907 N   0  0  0  0  0  0  0  0  0  0  0  0
  -19.7952  -20.2911   22.9943 N   0  0  0  0  0  0  0  0  0  0  0  0
  -31.3493  -16.5376   19.9433 N   0  0  0  0  0  0  0  0  0  0  0  0
  -26.9041  -17.8962   20.8166 N   0  0  0  0  0  0  0  0  0  0  0  0
  -25.0964  -21.9094   19.8055 N   0  0  0  0  0  0  0  0  0  0  0  0
  -20.1734  -22.8973   20.8885 N   0  0  0  0  0  0  0  0  0  0  0  0
  -18.8050  -20.1220   26.2268 N   0  0  0  0  0  0  0  0  0  0  0  0
  -30.1168  -14.6905   19.1289 N   0  0  0  0  0  0  0  0  0  0  0  0
  -17.0831  -17.0889   27.1771 N   0  3  0  0  0  0  0  0  0  0  0  0
  -24.6161  -19.7221   20.2990 O   0  0  0  0  0  0  0  0  0  0  0  0
  -21.6604  -21.1082   20.9909 O   0  0  0  0  0  0  0  0  0  0  0  0
  -18.4787  -21.9194   24.0197 O   0  0  0  0  0  0  0  0  0  0  0  0
  -19.6330  -17.9606   26.3682 O   0  0  0  0  0  0  0  0  0  0  0  0
  -32.2109  -14.3856   20.0113 O   0  0  0  0  0  0  0  0  0  0  0  0
  -27.8899  -26.6363   18.8629 O   0  0  0  0  0  0  0  0  0  0  0  0
  -22.9091  -15.3537   20.9995 O   0  0  0  0  0  0  0  0  0  1  0  0
  -24.2174  -29.8021   21.4885 F   0  0  0  0  0  0  0  0  0  0  0  0
  -28.7112  -28.7676   20.4204 F   0  0  0  0  0  0  0  0  0  0  0  0
  1  2  1  0  0  0  0
  1  5  2  0  0  0  0
  2  6  2  0  0  0  0
  3  8  2  0  0  0  0
  3 18  1  0  0  0  0
  4  9  1  0  0  0  0
  4 18  2  0  0  0  0
  5 20  1  0  0  0  0
  6 22  1  0  0  0  0
  7 10  2  0  0  0  0
  7 21  1  0  0  0  0
  8 27  1  0  0  0  0
  9 27  2  0  0  0  0
 10 28  1  0  0  0  0
 11 12  2  0  0  0  0
 11 29  1  0  0  0  0
 12 30  1  0  0  0  0
 13 23  1  0  0  0  0
 13 28  2  0  0  0  0
 14 24  1  0  0  0  0
 14 25  2  0  0  0  0
 15 24  2  0  0  0  0
 15 26  1  0  0  0  0
 16 25  1  0  0  0  0
 16 26  2  0  0  0  0
 17 30  2  0  0  0  0
 17 31  1  0  0  0  0
 18 32  1  0  0  0  0
 19 32  1  0  0  0  0
 19 33  2  0  0  0  0
 19 34  1  0  0  0  0
 20 22  2  0  0  0  0
 20 39  1  0  0  0  0
 21 23  2  0  0  0  0
 21 40  1  0  0  0  0
 22 48  1  0  0  0  0
 23 41  1  0  0  0  0
 24 57  1  0  0  0  0
 25 58  1  0  0  0  0
 26 59  1  0  0  0  0
 27 82  1  0  0  0  0
 28 83  1  0  0  0  0
 29 31  2  0  0  0  0
 29 82  1  0  0  0  0
 30 84  1  0  0  0  0
 31 85  1  0  0  0  0
 32 67  2  0  0  0  0
 33 68  1  0  0  0  0
 33 71  1  0  0  0  0
 34 72  1  0  0  0  0
 34 77  2  0  0  0  0
 35 49  1  0  0  0  0
 35 73  1  0  0  0  0
 35 78  2  0  0  0  0
 36 64  1  0  0  0  0
 36 69  1  0  0  0  0
 36 79  2  0  0  0  0
 37 65  1  0  0  0  0
 37 74  1  0  0  0  0
 37 80  2  0  0  0  0
 38 70  1  0  0  0  0
 38 75  1  0  0  0  0
 38 81  2  0  0  0  0
 39 42  1  0  0  0  0
 40 49  1  0  0  0  0
 41 69  1  0  0  0  0
 42 44  1  0  0  0  0
 43 45  1  0  0  0  0
 43 46  1  0  0  0  0
 44 48  1  0  0  0  0
 45 50  1  0  0  0  0
 46 70  1  0  0  0  0
 47 50  1  0  0  0  0
 47 70  1  0  0  0  0
 48 73  1  0  0  0  0
 49 69  1  0  0  0  0
 50 68  1  0  0  0  0
 51 60  1  0  0  0  0
 52 65  1  0  0  0  0
 53 66  1  0  0  0  0
 54 66  1  0  0  0  0
 55 66  1  0  0  0  0
 56 76  1  0  0  0  0
 57 61  1  0  0  0  0
 58 62  1  0  0  0  0
 59 83  1  0  0  0  0
 60 61  1  0  0  0  0
 62 63  1  0  0  0  0
 63 75  1  0  0  0  0
 64 66  1  0  0  0  0
 64 74  1  0  0  0  0
 65 76  1  0  0  0  0
 67 68  1  0  0  0  0
M  CHG  1  76   1
M  ISO  4  38 100  59 101  75 100  83 101
M  END
> <Batch ID>
0040

> <Smiles>
CCCCc1cc(CCC[100NH:0][100C:0](=O)N2CCCC(n3nc(-c4ccc(Oc5ccc(F)cc5F)cc4)c(C(N)=O)c3N)C2)cc([101CH2:1][101O:1]c2ccc3c(c2)CN(C(=O)C(NC(=O)C(C)NC)C(C)(C)C)C(C(=O)NC2CCCc4ccccc42)C3)c1

> <Shape>
0.202

> <Color>
0.078

> <Negative vol penalty>
0.000

$$$$

  -OEChem-04052317073D

 82 90  0     1  0  0  0  0  0999 V2000
  -25.7049  -29.5961   23.4323 C   0  0  0  0  0  0  0  0  0  0  0  0
  -25.5877  -28.2657   23.8220 C   0  0  0  0  0  0  0  0  0  0  0  0
  -21.0644  -23.4926   21.1460 C   0  0  0  0  0  0  0  0  0  0  0  0
  -21.9744  -22.8927   23.3022 C   0  0  0  0  0  0  0  0  0  0  0  0
  -25.9932  -29.9095   22.1047 C   0  0  0  0  0  0  0  0  0  0  0  0
  -25.7577  -27.2481   22.8840 C   0  0  0  0  0  0  0  0  0  0  0  0
  -28.1979  -20.5376   22.3074 C   0  0  0  0  0  0  0  0  0  0  0  0
  -20.9573  -24.8201   21.5605 C   0  0  0  0  0  0  0  0  0  0  0  0
  -21.8673  -24.2203   23.7167 C   0  0  0  0  0  0  0  0  0  0  0  0
  -27.8023  -19.2839   21.8432 C   0  0  0  0  0  0  0  0  0  0  0  0
  -18.8653  -26.6750   23.4599 C   0  0  0  0  0  0  0  0  0  0  0  0
  -17.6796  -27.3500   23.1700 C   0  0  0  0  0  0  0  0  0  0  0  0
  -28.3760  -19.9422   19.5945 C   0  0  0  0  0  0  0  0  0  0  0  0
  -25.9986  -13.2111   19.0691 C   0  0  0  0  0  0  0  0  0  0  0  0
  -27.6618  -14.8580   19.6220 C   0  0  0  0  0  0  0  0  0  0  0  0
  -18.9201  -28.9772   21.8852 C   0  0  0  0  0  0  0  0  0  0  0  0
  -21.5729  -22.5289   22.0169 C   0  0  0  0  0  0  0  0  0  0  0  0
  -22.4340  -20.6622   20.5064 C   0  0  0  0  0  0  0  0  0  0  0  0
  -26.1764  -28.8950   21.1519 C   0  0  0  0  0  0  0  0  0  0  0  0
  -28.6760  -21.5085   21.4156 C   0  0  0  0  0  0  0  0  0  0  0  0
  -26.0474  -27.5483   21.5421 C   0  0  0  0  0  0  0  0  0  0  0  0
  -28.7794  -21.2066   20.0502 C   0  0  0  0  0  0  0  0  0  0  0  0
  -27.3092  -13.6692   18.9930 C   0  0  0  0  0  0  0  0  0  0  0  0
  -21.3588  -25.1840   22.8459 C   0  0  0  0  0  0  0  0  0  0  0  0
  -27.8886  -18.9870   20.4862 C   0  0  0  0  0  0  0  0  0  0  0  0
  -20.0784  -27.1511   22.9625 C   0  0  0  0  0  0  0  0  0  0  0  0
  -17.7070  -28.5011   22.3827 C   0  0  0  0  0  0  0  0  0  0  0  0
  -20.1058  -28.3021   22.1752 C   0  0  0  0  0  0  0  0  0  0  0  0
  -21.6832  -21.1573   21.5894 C   0  0  0  0  0  0  0  0  0  0  0  0
  -25.0856  -13.9726   19.7807 C   0  0  0  0  0  0  0  0  0  0  0  0
  -26.6743  -15.5459   20.3088 C   0  0  0  0  0  0  0  0  0  0  0  0
  -22.2077  -19.3076   20.5225 C   0  0  0  0  0  0  0  0  0  0  0  0
  -23.2620  -21.3640   19.5696 C   0  0  0  0  0  0  0  0  0  0  0  0
  -27.7250  -24.4124   20.5399 C   0  0  0  0  0  0  0  0  0  0  0  0
  -30.5248  -24.4101   18.9016 C   0  0  0  0  0  0  0  0  0  0  0  0
  -33.0125  -22.6047   17.4189 C   0  0  0  0  0  0  0  0  0  0  0  0
  -21.7433  -14.4835   23.2900 C   0  0  0  0  0  0  0  0  0  0  0  0
  -26.4399  -29.2839   19.7188 C   0  0  0  0  0  0  0  0  0  0  0  0
  -29.1238  -22.8469   21.9359 C   0  0  0  0  0  0  0  0  0  0  0  0
  -29.3049  -22.2069   19.0545 C   0  0  0  0  0  0  0  0  0  0  0  0
  -26.9758  -28.1374   18.8652 C   0  0  0  0  0  0  0  0  0  0  0  0
  -18.8558  -16.5605   23.1311 C   0  0  0  0  0  0  0  0  0  0  0  0
  -26.1576  -26.8711   19.0977 C   0  0  0  0  0  0  0  0  0  0  0  0
  -19.3969  -17.9017   22.6328 C   0  0  0  0  0  0  0  0  0  0  0  0
  -19.8420  -15.8673   24.0687 C   0  0  0  0  0  0  0  0  0  0  0  0
  -21.7422  -17.0380   23.0235 C   0  0  0  0  0  0  0  0  0  0  0  0
  -26.2494  -26.4156   20.5591 C   0  0  1  0  0  0  0  0  0  0  0  0
  -29.1120  -23.9371   20.8688 C   0  0  1  0  0  0  0  0  0  0  0  0
  -20.8066  -17.7487   22.0306 C   0  0  2  0  0  0  0  0  0  0  0  0
  -28.3327  -12.8881   18.2408 C   0  0  0  0  0  0  0  0  0  0  0  0
  -35.1469  -22.8817   16.1286 C   0  0  0  0  0  0  0  0  0  0  0  0
  -28.9207  -25.1240   16.4061 C   0  0  0  0  0  0  0  0  0  0  0  0
  -30.9018  -24.4591   15.0273 C   0  0  0  0  0  0  0  0  0  0  0  0
  -31.0864  -26.3524   16.6410 C   0  0  0  0  0  0  0  0  0  0  0  0
  -34.5880  -21.2115   19.5012 C   0  0  0  0  0  0  0  0  0  0  0  0
  -23.6705  -13.5110   19.8849 C   0  0  0  0  0  0  0  0  0  0  0  0
  -27.0189  -16.8335   20.9978 C   0  0  0  0  0  0  0  0  0  1  0  0
  -23.3841  -12.6022   21.0963 C   0  0  0  0  0  0  0  0  0  0  0  0
  -23.7144  -13.2330   22.4473 C   0  0  0  0  0  0  0  0  0  0  0  0
  -30.9535  -23.9849   17.5180 C   0  0  1  0  0  0  0  0  0  0  0  0
  -34.5242  -22.7124   17.5057 C   0  0  2  0  0  0  0  0  0  0  0  0
  -30.4538  -24.9617   16.4163 C   0  0  0  0  0  0  0  0  0  0  0  0
  -21.0288  -20.1955   22.2457 N   0  0  0  0  0  0  0  0  0  0  0  0
  -25.3908  -15.1324   20.4047 N   0  0  0  0  0  0  0  0  0  0  0  0
  -21.3676  -19.0825   21.5731 N   0  0  0  0  0  0  0  0  0  0  0  0
  -29.7243  -23.5037   19.6112 N   0  0  0  0  0  0  0  0  0  0  0  0
  -21.1587  -15.7522   23.4371 N   0  0  0  0  0  0  0  0  0  0  0  0
  -22.6473  -18.2989   19.7403 N   0  0  0  0  0  0  0  0  0  0  0  0
  -24.6186  -21.5376   19.8761 N   0  0  0  0  0  0  0  0  0  0  0  0
  -27.5122  -25.7520   20.8033 N   0  0  0  0  0  0  0  0  0  0  0  0
  -32.4035  -23.8326   17.5687 N   0  0  0  0  0  0  0  0  0  0  0  0
  -22.9894  -14.4630   22.6754 N   0  0  0  0  0  0  0  0  0  0  0  0
  -35.0957  -21.4871   18.1325 N   0  3  0  0  0  0  0  0  0  0  0  0
  -22.8087  -21.8378   18.5003 O   0  0  0  0  0  0  0  0  0  0  0  0
  -26.9089  -23.6225   20.0797 O   0  0  0  0  0  0  0  0  0  0  0  0
  -30.8927  -25.5031   19.3395 O   0  0  0  0  0  0  0  0  0  0  0  0
  -32.4303  -21.5384   17.2329 O   0  0  0  0  0  0  0  0  0  0  0  0
  -21.1931  -13.4454   23.6727 O   0  0  0  0  0  0  0  0  0  0  0  0
  -21.2546  -26.4793   23.2506 O   0  0  0  0  0  0  0  0  0  0  0  0
  -27.5026  -17.7643   20.0304 O   0  0  0  0  0  0  0  0  0  1  0  0
  -16.5681  -29.1484   22.1031 F   0  0  0  0  0  0  0  0  0  0  0  0
  -21.2681  -28.7636   21.6936 F   0  0  0  0  0  0  0  0  0  0  0  0
  1  2  1  0  0  0  0
  1  5  2  0  0  0  0
  2  6  2  0  0  0  0
  3  8  2  0  0  0  0
  3 17  1  0  0  0  0
  4  9  1  0  0  0  0
  4 17  2  0  0  0  0
  5 19  1  0  0  0  0
  6 21  1  0  0  0  0
  7 10  2  0  0  0  0
  7 20  1  0  0  0  0
  8 24  1  0  0  0  0
  9 24  2  0  0  0  0
 10 25  1  0  0  0  0
 11 12  2  0  0  0  0
 11 26  1  0  0  0  0
 12 27  1  0  0  0  0
 13 22  1  0  0  0  0
 13 25  2  0  0  0  0
 14 23  1  0  0  0  0
 14 30  2  0  0  0  0
 15 23  2  0  0  0  0
 15 31  1  0  0  0  0
 16 27  2  0  0  0  0
 16 28  1  0  0  0  0
 17 29  1  0  0  0  0
 18 29  1  0  0  0  0
 18 32  2  0  0  0  0
 18 33  1  0  0  0  0
 19 21  2  0  0  0  0
 19 38  1  0  0  0  0
 20 22  2  0  0  0  0
 20 39  1  0  0  0  0
 21 47  1  0  0  0  0
 22 40  1  0  0  0  0
 23 50  1  0  0  0  0
 24 79  1  0  0  0  0
 25 80  1  0  0  0  0
 26 28  2  0  0  0  0
 26 79  1  0  0  0  0
 27 81  1  0  0  0  0
 28 82  1  0  0  0  0
 29 63  2  0  0  0  0
 30 56  1  0  0  0  0
 30 64  1  0  0  0  0
 31 57  1  0  0  0  0
 31 64  2  0  0  0  0
 32 65  1  0  0  0  0
 32 68  1  0  0  0  0
 33 69  1  0  0  0  0
 33 74  2  0  0  0  0
 34 48  1  0  0  0  0
 34 70  1  0  0  0  0
 34 75  2  0  0  0  0
 35 60  1  0  0  0  0
 35 66  1  0  0  0  0
 35 76  2  0  0  0  0
 36 61  1  0  0  0  0
 36 71  1  0  0  0  0
 36 77  2  0  0  0  0
 37 67  1  0  0  0  0
 37 72  1  0  0  0  0
 37 78  2  0  0  0  0
 38 41  1  0  0  0  0
 39 48  1  0  0  0  0
 40 66  1  0  0  0  0
 41 43  1  0  0  0  0
 42 44  1  0  0  0  0
 42 45  1  0  0  0  0
 43 47  1  0  0  0  0
 44 49  1  0  0  0  0
 45 67  1  0  0  0  0
 46 49  1  0  0  0  0
 46 67  1  0  0  0  0
 47 70  1  0  0  0  0
 48 66  1  0  0  0  0
 49 65  1  0  0  0  0
 51 61  1  0  0  0  0
 52 62  1  0  0  0  0
 53 62  1  0  0  0  0
 54 62  1  0  0  0  0
 55 73  1  0  0  0  0
 56 58  1  0  0  0  0
 57 80  1  0  0  0  0
 58 59  1  0  0  0  0
 59 72  1  0  0  0  0
 60 62  1  0  0  0  0
 60 71  1  0  0  0  0
 61 73  1  0  0  0  0
 63 65  1  0  0  0  0
M  CHG  1  73   1
M  ISO  4  37 100  57 101  72 100  80 101
M  END
> <Batch ID>
0040

> <Smiles>
CNC(C)C(=O)NC(C(=O)N1Cc2cc([101O:1][101CH2:1]c3cc(C)cc(CCC[100NH:0][100C:0](=O)N4CCCC(n5nc(-c6ccc(Oc7ccc(F)cc7F)cc6)c(C(N)=O)c5N)C4)n3)ccc2CC1C(=O)NC1CCCc2ccccc21)C(C)(C)C

> <Shape>
0.212

> <Color>
0.069

> <Negative vol penalty>
0.000

$$$$

  -OEChem-04052317073D

 90 98  0     1  0  0  0  0  0999 V2000
  -30.2371  -32.5073   24.8196 C   0  0  0  0  0  0  0  0  0  0  0  0
  -30.3351  -31.2319   24.2726 C   0  0  0  0  0  0  0  0  0  0  0  0
  -26.8453  -13.9776   21.5669 C   0  0  0  0  0  0  0  0  0  0  0  0
  -26.6950  -13.9360   19.1560 C   0  0  0  0  0  0  0  0  0  0  0  0
  -28.9906  -33.0137   25.1856 C   0  0  0  0  0  0  0  0  0  0  0  0
  -29.1867  -30.4617   24.0922 C   0  0  0  0  0  0  0  0  0  0  0  0
  -29.0595  -28.1941   19.5660 C   0  0  0  0  0  0  0  0  0  0  0  0
  -26.0826  -12.8117   21.6346 C   0  0  0  0  0  0  0  0  0  0  0  0
  -25.9323  -12.7700   19.2237 C   0  0  0  0  0  0  0  0  0  0  0  0
  -29.8423  -27.0519   19.4039 C   0  0  0  0  0  0  0  0  0  0  0  0
  -26.5650   -9.4917   21.2129 C   0  0  0  0  0  0  0  0  0  0  0  0
  -26.9953   -8.4849   22.0771 C   0  0  0  0  0  0  0  0  0  0  0  0
  -27.8903  -25.6741   19.7367 C   0  0  0  0  0  0  0  0  0  0  0  0
  -29.4701  -21.5184   16.3484 C   0  0  0  0  0  0  0  0  0  0  0  0
  -24.9121   -8.6368   23.2914 C   0  0  0  0  0  0  0  0  0  0  0  0
  -27.1514  -14.5398   20.3276 C   0  0  0  0  0  0  0  0  0  0  0  0
  -29.3404  -15.8400   20.1678 C   0  0  0  0  0  0  0  0  0  0  0  0
  -27.8253  -32.2531   25.0007 C   0  0  0  0  0  0  0  0  0  0  0  0
  -27.6859  -28.0845   19.8260 C   0  0  0  0  0  0  0  0  0  0  0  0
  -27.9237  -30.9579   24.4573 C   0  0  0  0  0  0  0  0  0  0  0  0
  -27.0918  -26.8166   19.8992 C   0  0  0  0  0  0  0  0  0  0  0  0
  -30.6333  -22.0352   16.9080 C   0  0  0  0  0  0  0  0  0  0  0  0
  -30.9513  -23.3760   16.7224 C   0  0  0  0  0  0  0  0  0  0  0  0
  -25.6262  -12.2079   20.4630 C   0  0  0  0  0  0  0  0  0  0  0  0
  -29.2583  -25.7916   19.4921 C   0  0  0  0  0  0  0  0  0  0  0  0
  -25.3083  -10.0711   21.3880 C   0  0  0  0  0  0  0  0  0  0  0  0
  -26.1688   -8.0574   23.1163 C   0  0  0  0  0  0  0  0  0  0  0  0
  -24.4818   -9.6437   22.4272 C   0  0  0  0  0  0  0  0  0  0  0  0
  -27.9387  -15.7445   20.2570 C   0  0  0  0  0  0  0  0  0  0  0  0
  -28.6649  -22.3771   15.6177 C   0  0  0  0  0  0  0  0  0  0  0  0
  -30.0799  -24.1515   15.9748 C   0  0  0  0  0  0  0  0  0  0  0  0
  -29.5907  -17.1899   20.1280 C   0  0  0  0  0  0  0  0  0  0  0  0
  -30.3278  -14.8014   20.1246 C   0  0  0  0  0  0  0  0  0  0  0  0
  -25.7812  -28.9412   22.2222 C   0  0  0  0  0  0  0  0  0  0  0  0
  -23.4453  -27.9267   20.2131 C   0  0  0  0  0  0  0  0  0  0  0  0
  -22.5487  -25.9648   17.5685 C   0  0  0  0  0  0  0  0  0  0  0  0
  -26.3167  -21.8947   18.3969 C   0  0  0  0  0  0  0  0  0  0  0  0
  -26.5057  -32.8245   25.4553 C   0  0  0  0  0  0  0  0  0  0  0  0
  -26.8504  -29.3268   19.9718 C   0  0  0  0  0  0  0  0  0  0  0  0
  -25.6177  -26.6451   20.1564 C   0  0  0  0  0  0  0  0  0  0  0  0
  -25.2951  -32.0904   24.8846 C   0  0  0  0  0  0  0  0  0  0  0  0
  -27.7959  -21.3758   21.5937 C   0  0  0  0  0  0  0  0  0  0  0  0
  -25.4756  -30.5813   25.0148 C   0  0  0  0  0  0  0  0  0  0  0  0
  -28.1267  -19.8823   21.6056 C   0  0  0  0  0  0  0  0  0  0  0  0
  -26.4886  -21.6584   20.8568 C   0  0  0  0  0  0  0  0  0  0  0  0
  -26.7481  -19.6165   19.5014 C   0  0  0  0  0  0  0  0  0  0  0  0
  -26.6981  -30.1016   24.2231 C   0  0  1  0  0  0  0  0  0  0  0  0
  -25.5563  -29.0892   20.7440 C   0  0  1  0  0  0  0  0  0  0  0  0
  -28.0864  -19.2877   20.1850 C   0  0  2  0  0  0  0  0  0  0  0  0
  -32.0011  -19.9340   16.8843 C   0  0  0  0  0  0  0  0  0  0  0  0
  -29.1600  -26.3450   15.1817 C   0  0  0  0  0  0  0  0  0  0  0  0
  -33.6801  -23.2527   15.2663 C   0  0  0  0  0  0  0  0  0  0  0  0
  -20.5609  -25.3185   16.1798 C   0  0  0  0  0  0  0  0  0  0  0  0
  -31.4792  -24.4180   21.2143 C   0  0  0  0  0  0  0  0  0  0  0  0
  -32.4224  -25.4842   17.0222 C   0  0  0  0  0  0  0  0  0  0  0  0
  -22.4498  -26.1374   22.4752 C   0  0  0  0  0  0  0  0  0  0  0  0
  -21.1168  -24.8597   20.7844 C   0  0  0  0  0  0  0  0  0  0  0  0
  -20.6432  -27.2775   21.1750 C   0  0  0  0  0  0  0  0  0  0  0  0
  -23.7845  -27.0251   15.0971 C   0  0  0  0  0  0  0  0  0  0  0  0
  -31.5218  -21.1323   17.6983 C   0  0  0  0  0  0  0  0  0  0  0  0
  -27.4079  -21.8575   15.0038 C   0  0  0  0  0  0  0  0  0  0  0  0
  -30.3669  -25.5990   15.7422 C   0  0  0  0  0  0  0  0  0  0  0  0
  -33.4868  -23.2131   16.7803 C   0  0  0  0  0  0  0  0  0  0  0  0
  -32.2499  -23.7953   18.8960 C   0  0  0  0  0  0  0  0  0  0  0  0
  -26.1843  -21.9735   15.9200 C   0  0  0  0  0  0  0  0  0  0  0  0
  -22.7546  -26.6094   19.9552 C   0  0  1  0  0  0  0  0  0  0  0  0
  -21.7420  -26.2664   16.3184 C   0  0  2  0  0  0  0  0  0  0  0  0
  -31.3886  -24.7615   19.7305 C   0  0  1  0  0  0  0  0  0  1  0  0
  -32.2320  -23.9778   17.3323 C   0  0  2  0  0  0  0  0  0  0  0  0
  -21.7693  -26.2238   21.0945 C   0  0  0  0  0  0  0  0  0  0  0  0
  -27.3405  -16.9386   20.2732 N   0  0  0  0  0  0  0  0  0  0  0  0
  -28.9407  -23.6851   15.4158 N   0  0  0  0  0  0  0  0  0  0  0  0
  -28.3713  -17.7972   20.1937 N   0  0  0  0  0  0  0  0  0  0  0  0
  -24.8443  -27.8898   20.2983 N   0  0  0  0  0  0  0  0  0  0  0  0
  -26.5157  -21.0693   19.5159 N   0  0  0  0  0  0  0  0  0  0  0  0
  -30.7328  -17.9047   20.0438 N   0  0  0  0  0  0  0  0  0  0  0  0
  -29.8980  -13.4683   20.1752 N   0  0  0  0  0  0  0  0  0  0  0  0
  -26.3904  -30.0330   22.8106 N   0  0  0  0  0  0  0  0  0  0  0  0
  -22.1323  -26.7251   18.6408 N   0  0  0  0  0  0  0  0  0  0  0  0
  -26.3643  -21.2574   17.1631 N   0  0  0  0  0  0  0  0  0  0  0  0
  -22.5971  -26.1323   15.1052 N   0  3  0  0  0  0  0  0  0  0  0  0
  -31.5560  -15.0484   20.0601 O   0  0  0  0  0  0  0  0  0  0  0  0
  -25.4268  -27.9133   22.7874 O   0  0  0  0  0  0  0  0  0  0  0  0
  -22.7689  -28.9520   20.3274 O   0  0  0  0  0  0  0  0  0  0  0  0
  -23.4549  -25.1349   17.5924 O   0  0  0  0  0  0  0  0  0  0  0  0
  -26.1172  -23.1106   18.4902 O   0  0  0  0  0  0  0  0  0  0  0  0
  -24.8822  -11.0700   20.5287 O   0  0  0  0  0  0  0  0  0  0  0  0
  -30.0202  -24.6751   19.3349 O   0  0  0  0  0  0  0  0  0  1  0  0
  -26.5815   -7.0895   23.9452 F   0  0  0  0  0  0  0  0  0  0  0  0
  -23.2730  -10.1957   22.5996 F   0  0  0  0  0  0  0  0  0  0  0  0
  1  2  1  0  0  0  0
  1  5  2  0  0  0  0
  2  6  2  0  0  0  0
  3  8  2  0  0  0  0
  3 16  1  0  0  0  0
  4  9  1  0  0  0  0
  4 16  2  0  0  0  0
  5 18  1  0  0  0  0
  6 20  1  0  0  0  0
  7 10  2  0  0  0  0
  7 19  1  0  0  0  0
  8 24  1  0  0  0  0
  9 24  2  0  0  0  0
 10 25  1  0  0  0  0
 11 12  2  0  0  0  0
 11 26  1  0  0  0  0
 12 27  1  0  0  0  0
 13 21  1  0  0  0  0
 13 25  2  0  0  0  0
 14 22  1  0  0  0  0
 14 30  2  0  0  0  0
 15 27  2  0  0  0  0
 15 28  1  0  0  0  0
 16 29  1  0  0  0  0
 17 29  1  0  0  0  0
 17 32  2  0  0  0  0
 17 33  1  0  0  0  0
 18 20  2  0  0  0  0
 18 38  1  0  0  0  0
 19 21  2  0  0  0  0
 19 39  1  0  0  0  0
 20 47  1  0  0  0  0
 21 40  1  0  0  0  0
 22 23  2  0  0  0  0
 22 60  1  0  0  0  0
 23 31  1  0  0  0  0
 23 69  1  0  0  0  0
 24 87  1  0  0  0  0
 25 88  1  0  0  0  0
 26 28  2  0  0  0  0
 26 87  1  0  0  0  0
 27 89  1  0  0  0  0
 28 90  1  0  0  0  0
 29 71  2  0  0  0  0
 30 61  1  0  0  0  0
 30 72  1  0  0  0  0
 31 62  1  0  0  0  0
 31 72  2  0  0  0  0
 32 73  1  0  0  0  0
 32 76  1  0  0  0  0
 33 77  1  0  0  0  0
 33 82  2  0  0  0  0
 34 48  1  0  0  0  0
 34 78  1  0  0  0  0
 34 83  2  0  0  0  0
 35 66  1  0  0  0  0
 35 74  1  0  0  0  0
 35 84  2  0  0  0  0
 36 67  1  0  0  0  0
 36 79  1  0  0  0  0
 36 85  2  0  0  0  0
 37 75  1  0  0  0  0
 37 80  1  0  0  0  0
 37 86  2  0  0  0  0
 38 41  1  0  0  0  0
 39 48  1  0  0  0  0
 40 74  1  0  0  0  0
 41 43  1  0  0  0  0
 42 44  1  0  0  0  0
 42 45  1  0  0  0  0
 43 47  1  0  0  0  0
 44 49  1  0  0  0  0
 45 75  1  0  0  0  0
 46 49  1  0  0  0  0
 46 75  1  0  0  0  0
 47 78  1  0  0  0  0
 48 74  1  0  0  0  0
 49 73  1  0  0  0  0
 50 60  1  0  0  0  0
 51 62  1  0  0  0  0
 52 63  1  0  0  0  0
 53 67  1  0  0  0  0
 54 68  1  0  0  0  0
 55 69  1  0  0  0  0
 56 70  1  0  0  0  0
 57 70  1  0  0  0  0
 58 70  1  0  0  0  0
 59 81  1  0  0  0  0
 61 65  1  0  0  0  0
 63 69  1  0  0  0  0
 64 68  1  0  0  0  0
 64 69  1  0  0  0  0
 65 80  1  0  0  0  0
 66 70  1  0  0  0  0
 66 79  1  0  0  0  0
 67 81  1  0  0  0  0
 68 88  1  0  0  0  0
 71 73  1  0  0  0  0
M  CHG  1  81   1
M  ISO  4  37 100  68 101  80 100  88 101
M  END
> <Batch ID>
0040

> <Smiles>
CCc1cc(CC[100NH:0][100C:0](=O)N2CCCC(n3nc(-c4ccc(Oc5ccc(F)cc5F)cc4)c(C(N)=O)c3N)C2)nc(CC)c1C(C)(CC)C[101CH:1](C)[101O:1]c1ccc2c(c1)CN(C(=O)C(NC(=O)C(C)NC)C(C)(C)C)C(C(=O)NC1CCCc3ccccc31)C2

> <Shape>
0.248

> <Color>
0.059

> <Negative vol penalty>
0.000

$$$$

  -OEChem-04052317073D

 84 92  0     1  0  0  0  0  0999 V2000
  -32.3925  -12.5786   21.5648 C   0  0  0  0  0  0  0  0  0  0  0  0
  -32.0067  -13.8777   21.8796 C   0  0  0  0  0  0  0  0  0  0  0  0
  -28.5826  -26.2624   20.3098 C   0  0  0  0  0  0  0  0  0  0  0  0
  -26.6936  -24.7648   20.4716 C   0  0  0  0  0  0  0  0  0  0  0  0
  -31.5940  -11.7986   20.7294 C   0  0  0  0  0  0  0  0  0  0  0  0
  -30.8227  -14.3979   21.3581 C   0  0  0  0  0  0  0  0  0  0  0  0
  -25.4968  -18.8953   23.0085 C   0  0  0  0  0  0  0  0  0  0  0  0
  -29.4516  -25.1846   20.4789 C   0  0  0  0  0  0  0  0  0  0  0  0
  -27.5627  -23.6869   20.6407 C   0  0  0  0  0  0  0  0  0  0  0  0
  -24.8210  -20.0000   22.4922 C   0  0  0  0  0  0  0  0  0  0  0  0
  -29.2922  -20.4909   20.7543 C   0  0  0  0  0  0  0  0  0  0  0  0
  -29.0339  -19.3285   20.0279 C   0  0  0  0  0  0  0  0  0  0  0  0
  -23.4814  -18.5333   21.1235 C   0  0  0  0  0  0  0  0  0  0  0  0
  -21.0171  -26.5586   23.3761 C   0  0  0  0  0  0  0  0  0  0  0  0
  -29.2564  -20.5678   17.9659 C   0  0  0  0  0  0  0  0  0  0  0  0
  -19.5318  -28.2218   21.8035 C   0  0  0  0  0  0  0  0  0  0  0  0
  -27.2035  -26.0525   20.3062 C   0  0  0  0  0  0  0  0  0  0  0  0
  -25.8014  -27.6695   18.9180 C   0  0  0  0  0  0  0  0  0  0  0  0
  -30.3948  -12.3062   20.2051 C   0  0  0  0  0  0  0  0  0  0  0  0
  -25.1768  -17.5998   22.5774 C   0  0  0  0  0  0  0  0  0  0  0  0
  -30.0081  -13.6244   20.5137 C   0  0  0  0  0  0  0  0  0  0  0  0
  -24.1529  -17.4136   21.6377 C   0  0  0  0  0  0  0  0  0  0  0  0
  -19.5398  -26.8690   21.5038 C   0  0  0  0  0  0  0  0  0  0  0  0
  -28.9417  -23.8968   20.6443 C   0  0  0  0  0  0  0  0  0  0  0  0
  -23.8151  -19.8194   21.5474 C   0  0  0  0  0  0  0  0  0  0  0  0
  -29.5325  -21.6918   20.0865 C   0  0  0  0  0  0  0  0  0  0  0  0
  -20.2991  -26.0283   22.3100 C   0  0  0  0  0  0  0  0  0  0  0  0
  -29.0161  -19.3669   18.6337 C   0  0  0  0  0  0  0  0  0  0  0  0
  -29.5146  -21.7302   18.6923 C   0  0  0  0  0  0  0  0  0  0  0  0
  -26.3053  -27.1656   20.1321 C   0  0  0  0  0  0  0  0  0  0  0  0
  -20.9431  -27.9252   23.5919 C   0  0  0  0  0  0  0  0  0  0  0  0
  -24.9989  -28.7205   19.2892 C   0  0  0  0  0  0  0  0  0  0  0  0
  -26.0376  -27.2271   17.5748 C   0  0  0  0  0  0  0  0  0  0  0  0
  -26.7540  -15.2794   21.0835 C   0  0  0  0  0  0  0  0  0  0  0  0
  -24.0489  -13.5905   21.6768 C   0  0  0  0  0  0  0  0  0  0  0  0
  -22.1066  -29.9464   24.4121 C   0  0  0  0  0  0  0  0  0  0  0  0
  -20.6966  -13.6199   22.3159 C   0  0  0  0  0  0  0  0  0  0  0  0
  -29.5886  -11.4417   19.2684 C   0  0  0  0  0  0  0  0  0  0  0  0
  -25.8969  -16.4166   23.1639 C   0  0  0  0  0  0  0  0  0  0  0  0
  -23.7575  -16.0421   21.1570 C   0  0  0  0  0  0  0  0  0  0  0  0
  -28.1604  -11.9380   19.0588 C   0  0  0  0  0  0  0  0  0  0  0  0
  -24.4776  -32.0201   22.7038 C   0  0  0  0  0  0  0  0  0  0  0  0
  -28.1508  -13.4400   18.7927 C   0  0  0  0  0  0  0  0  0  0  0  0
  -25.1887  -31.0504   21.7608 C   0  0  0  0  0  0  0  0  0  0  0  0
  -24.1068  -31.3467   24.0215 C   0  0  0  0  0  0  0  0  0  0  0  0
  -23.9988  -29.1348   22.9181 C   0  0  0  0  0  0  0  0  0  0  0  0
  -28.7183  -14.2156   19.9876 C   0  0  1  0  0  0  0  0  0  0  0  0
  -25.8400  -15.1803   22.2719 C   0  0  1  0  0  0  0  0  0  0  0  0
  -24.3636  -29.7665   21.5630 C   0  0  2  0  0  0  0  0  0  0  0  0
  -18.7539  -26.3487   20.3511 C   0  0  0  0  0  0  0  0  0  0  0  0
  -18.7541  -12.0825   22.7167 C   0  0  0  0  0  0  0  0  0  0  0  0
  -20.8927  -28.5388   26.0365 C   0  0  0  0  0  0  0  0  0  0  0  0
  -23.9461  -12.9472   18.6960 C   0  0  0  0  0  0  0  0  0  0  0  0
  -21.5596  -12.2537   18.9990 C   0  0  0  0  0  0  0  0  0  0  0  0
  -23.3738  -11.0306   20.1971 C   0  0  0  0  0  0  0  0  0  0  0  0
  -20.2226  -14.7341   25.0164 C   0  0  0  0  0  0  0  0  0  0  0  0
  -21.7500  -22.7937   21.5396 C   0  0  0  0  0  0  0  0  0  0  0  0
  -23.0191  -22.0338   21.8920 C   0  0  0  0  0  0  0  0  0  1  0  0
  -21.5474  -24.0078   22.4325 C   0  0  0  0  0  0  0  0  0  0  0  0
  -22.7482  -13.3633   20.9450 C   0  0  1  0  0  0  0  0  0  0  0  0
  -19.8640  -12.8988   23.3606 C   0  0  2  0  0  0  0  0  0  0  0  0
  -21.7002  -28.5289   24.7273 C   0  0  1  0  0  0  0  0  0  0  0  0
  -22.9155  -12.4248   19.7167 C   0  0  0  0  0  0  0  0  0  0  0  0
  -20.2163  -28.7735   22.8304 N   0  0  0  0  0  0  0  0  0  0  0  0
  -25.8602  -27.8410   21.1950 N   0  0  0  0  0  0  0  0  0  0  0  0
  -25.0684  -28.7801   20.6500 N   0  0  0  0  0  0  0  0  0  0  0  0
  -24.4952  -14.9173   21.7555 N   0  0  0  0  0  0  0  0  0  0  0  0
  -23.3432  -30.1193   23.7901 N   0  0  0  0  0  0  0  0  0  0  0  0
  -24.2476  -29.5904   18.5811 N   0  0  0  0  0  0  0  0  0  0  0  0
  -26.8891  -26.1325   17.3719 N   0  0  0  0  0  0  0  0  0  0  0  0
  -27.7342  -14.3061   21.0448 N   0  0  0  0  0  0  0  0  0  0  0  0
  -21.7982  -12.8801   21.9412 N   0  0  0  0  0  0  0  0  0  0  0  0
  -19.2441  -13.8794   24.2960 N   0  3  0  0  0  0  0  0  0  0  0  0
  -25.5223  -27.7962   16.5828 O   0  0  0  0  0  0  0  0  0  0  0  0
  -26.5819  -16.1719   20.2616 O   0  0  0  0  0  0  0  0  0  0  0  0
  -24.6432  -12.6271   22.1671 O   0  0  0  0  0  0  0  0  0  0  0  0
  -21.3451  -30.8710   24.7080 O   0  0  0  0  0  0  0  0  0  0  0  0
  -20.3975  -14.7269   21.8737 O   0  0  0  0  0  0  0  0  0  0  0  0
  -29.7895  -22.8448   20.8091 O   0  0  0  0  0  0  0  0  0  0  0  0
  -23.1544  -20.8960   21.0413 O   0  0  0  0  0  0  0  0  0  1  0  0
  -20.3495  -24.6802   22.0680 O   0  0  0  0  0  0  0  0  0  0  0  0
  -28.7696  -18.2503   17.9362 F   0  0  0  0  0  0  0  0  0  0  0  0
  -29.7459  -22.8806   18.0452 F   0  0  0  0  0  0  0  0  0  0  0  0
  -22.8554  -27.8367   25.0288 F   0  0  0  0  0  0  0  0  0  0  0  0
  1  2  1  0  0  0  0
  1  5  2  0  0  0  0
  2  6  2  0  0  0  0
  3  8  2  0  0  0  0
  3 17  1  0  0  0  0
  4  9  1  0  0  0  0
  4 17  2  0  0  0  0
  5 19  1  0  0  0  0
  6 21  1  0  0  0  0
  7 10  2  0  0  0  0
  7 20  1  0  0  0  0
  8 24  1  0  0  0  0
  9 24  2  0  0  0  0
 10 25  1  0  0  0  0
 11 12  2  0  0  0  0
 11 26  1  0  0  0  0
 12 28  1  0  0  0  0
 13 22  1  0  0  0  0
 13 25  2  0  0  0  0
 14 27  1  0  0  0  0
 14 31  2  0  0  0  0
 15 28  2  0  0  0  0
 15 29  1  0  0  0  0
 16 23  1  0  0  0  0
 16 64  2  0  0  0  0
 17 30  1  0  0  0  0
 18 30  1  0  0  0  0
 18 32  2  0  0  0  0
 18 33  1  0  0  0  0
 19 21  2  0  0  0  0
 19 38  1  0  0  0  0
 20 22  2  0  0  0  0
 20 39  1  0  0  0  0
 21 47  1  0  0  0  0
 22 40  1  0  0  0  0
 23 27  2  0  0  0  0
 23 50  1  0  0  0  0
 24 79  1  0  0  0  0
 25 80  1  0  0  0  0
 26 29  2  0  0  0  0
 26 79  1  0  0  0  0
 27 81  1  0  0  0  0
 28 82  1  0  0  0  0
 29 83  1  0  0  0  0
 30 65  2  0  0  0  0
 31 62  1  0  0  0  0
 31 64  1  0  0  0  0
 32 66  1  0  0  0  0
 32 69  1  0  0  0  0
 33 70  1  0  0  0  0
 33 74  2  0  0  0  0
 34 48  1  0  0  0  0
 34 71  1  0  0  0  0
 34 75  2  0  0  0  0
 35 60  1  0  0  0  0
 35 67  1  0  0  0  0
 35 76  2  0  0  0  0
 36 62  1  0  0  0  0
 36 68  1  0  0  0  0
 36 77  2  0  0  0  0
 37 61  1  0  0  0  0
 37 72  1  0  0  0  0
 37 78  2  0  0  0  0
 38 41  1  0  0  0  0
 39 48  1  0  0  0  0
 40 67  1  0  0  0  0
 41 43  1  0  0  0  0
 42 44  1  0  0  0  0
 42 45  1  0  0  0  0
 43 47  1  0  0  0  0
 44 49  1  0  0  0  0
 45 68  1  0  0  0  0
 46 49  1  0  0  0  0
 46 68  1  0  0  0  0
 47 71  1  0  0  0  0
 48 67  1  0  0  0  0
 49 66  1  0  0  0  0
 51 61  1  0  0  0  0
 52 62  1  0  0  0  0
 53 63  1  0  0  0  0
 54 63  1  0  0  0  0
 55 63  1  0  0  0  0
 56 73  1  0  0  0  0
 57 58  1  0  0  0  0
 57 59  1  0  0  0  0
 58 80  1  0  0  0  0
 59 81  1  0  0  0  0
 60 63  1  0  0  0  0
 60 72  1  0  0  0  0
 61 73  1  0  0  0  0
 62 84  1  0  0  0  0
 65 66  1  0  0  0  0
M  CHG  1  73   1
M  ISO  4  36 100  58 101  62 100  80 101
M  END
> <Batch ID>
0040

> <Smiles>
CNC(C)C(=O)NC(C(=O)N1Cc2cc([101O:1][101CH2:1]CCOc3cc([100C:0](C)(F)[100C:0](=O)N4CCCC(n5nc(-c6ccc(Oc7ccc(F)cc7F)cc6)c(C(N)=O)c5N)C4)ncc3C)ccc2CC1C(=O)NC1CCCc2ccccc21)C(C)(C)C

> <Shape>
0.274

> <Color>
0.063

> <Negative vol penalty>
0.000

$$$$

  -OEChem-04052317073D

 84 92  0     1  0  0  0  0  0999 V2000
  -19.0420  -32.1031   22.8438 C   0  0  0  0  0  0  0  0  0  0  0  0
  -20.3884  -31.8107   22.6508 C   0  0  0  0  0  0  0  0  0  0  0  0
  -24.5065   -9.3936   21.6730 C   0  0  0  0  0  0  0  0  0  0  0  0
  -22.7199  -10.4267   20.4168 C   0  0  0  0  0  0  0  0  0  0  0  0
  -18.1178  -31.0682   22.9806 C   0  0  0  0  0  0  0  0  0  0  0  0
  -20.8115  -30.4832   22.5955 C   0  0  0  0  0  0  0  0  0  0  0  0
  -25.3320  -28.2002   19.1519 C   0  0  0  0  0  0  0  0  0  0  0  0
  -23.7407   -8.2359   21.8101 C   0  0  0  0  0  0  0  0  0  0  0  0
  -21.9541   -9.2690   20.5539 C   0  0  0  0  0  0  0  0  0  0  0  0
  -26.6617  -27.8906   19.4345 C   0  0  0  0  0  0  0  0  0  0  0  0
  -20.0438   -7.8127   22.9331 C   0  0  0  0  0  0  0  0  0  0  0  0
  -18.7023   -7.9610   23.2854 C   0  0  0  0  0  0  0  0  0  0  0  0
  -26.0385  -25.5920   19.8183 C   0  0  0  0  0  0  0  0  0  0  0  0
  -29.9900  -22.6750   16.9061 C   0  0  0  0  0  0  0  0  0  0  0  0
  -30.5679  -25.0167   17.0450 C   0  0  0  0  0  0  0  0  0  0  0  0
  -29.9963  -23.7927   19.0480 C   0  0  0  0  0  0  0  0  0  0  0  0
  -18.0429   -6.8657   21.2354 C   0  0  0  0  0  0  0  0  0  0  0  0
  -23.9961  -10.4891   20.9764 C   0  0  0  0  0  0  0  0  0  0  0  0
  -25.6903  -11.9898   19.7994 C   0  0  0  0  0  0  0  0  0  0  0  0
  -18.5284  -29.7273   22.9174 C   0  0  0  0  0  0  0  0  0  0  0  0
  -24.3422  -27.2086   19.2111 C   0  0  0  0  0  0  0  0  0  0  0  0
  -19.8920  -29.4294   22.7329 C   0  0  0  0  0  0  0  0  0  0  0  0
  -24.6975  -25.8911   19.5334 C   0  0  0  0  0  0  0  0  0  0  0  0
  -30.3731  -23.8636   16.2847 C   0  0  0  0  0  0  0  0  0  0  0  0
  -29.8016  -22.6395   18.2877 C   0  0  0  0  0  0  0  0  0  0  0  0
  -30.3794  -24.9813   18.4267 C   0  0  0  0  0  0  0  0  0  0  0  0
  -22.4645   -8.1736   21.2505 C   0  0  0  0  0  0  0  0  0  0  0  0
  -27.0147  -26.5869   19.7706 C   0  0  0  0  0  0  0  0  0  0  0  0
  -20.3848   -7.1910   21.7319 C   0  0  0  0  0  0  0  0  0  0  0  0
  -17.7019   -7.4875   22.4366 C   0  0  0  0  0  0  0  0  0  0  0  0
  -19.3843   -6.7175   20.8830 C   0  0  0  0  0  0  0  0  0  0  0  0
  -24.7865  -11.6855   20.8350 C   0  0  0  0  0  0  0  0  0  0  0  0
  -26.1790  -13.2317   20.1241 C   0  0  0  0  0  0  0  0  0  0  0  0
  -26.0554  -11.2188   18.6470 C   0  0  0  0  0  0  0  0  0  0  0  0
  -21.7187  -26.7588   20.9485 C   0  0  0  0  0  0  0  0  0  0  0  0
  -21.2979  -24.2386   18.9501 C   0  0  0  0  0  0  0  0  0  0  0  0
  -22.6949  -21.9526   16.8360 C   0  0  0  0  0  0  0  0  0  0  0  0
  -25.3837  -18.4649   21.8921 C   0  0  0  0  0  0  0  0  0  0  0  0
  -17.4995  -28.6429   23.1179 C   0  0  0  0  0  0  0  0  0  0  0  0
  -22.9167  -27.5533   18.8773 C   0  0  0  0  0  0  0  0  0  0  0  0
  -23.6759  -24.7858   19.5910 C   0  0  0  0  0  0  0  0  0  0  0  0
  -17.9751  -27.2623   22.6728 C   0  0  0  0  0  0  0  0  0  0  0  0
  -25.7332  -15.9370   24.3749 C   0  0  0  0  0  0  0  0  0  0  0  0
  -19.3803  -26.9866   23.1983 C   0  0  0  0  0  0  0  0  0  0  0  0
  -25.5864  -14.6316   23.5910 C   0  0  0  0  0  0  0  0  0  0  0  0
  -24.8158  -17.0291   23.8293 C   0  0  0  0  0  0  0  0  0  0  0  0
  -24.8034  -15.9802   21.5992 C   0  0  0  0  0  0  0  0  0  0  0  0
  -20.3862  -28.0019   22.6426 C   0  0  1  0  0  0  0  0  0  0  0  0
  -21.9102  -26.5719   19.4699 C   0  0  1  0  0  0  0  0  0  0  0  0
  -25.7496  -14.8653   22.0770 C   0  0  2  0  0  0  0  0  0  0  0  0
  -30.5748  -23.9008   14.8074 C   0  0  0  0  0  0  0  0  0  0  0  0
  -22.1029  -19.9958   15.3807 C   0  0  0  0  0  0  0  0  0  0  0  0
  -21.0363  -22.4778   21.4283 C   0  0  0  0  0  0  0  0  0  0  0  0
  -21.4018  -20.4811   19.9627 C   0  0  0  0  0  0  0  0  0  0  0  0
  -19.4178  -21.9482   19.5967 C   0  0  0  0  0  0  0  0  0  0  0  0
  -23.6519  -23.3288   14.3969 C   0  0  0  0  0  0  0  0  0  0  0  0
  -29.3923  -21.3688   18.9527 C   0  0  0  0  0  0  0  0  0  0  0  0
  -30.5902  -26.2293   19.2490 C   0  0  0  0  0  0  0  0  0  0  0  0
  -27.8649  -21.2211   19.0348 C   0  0  0  0  0  0  0  0  0  0  0  0
  -27.4581  -19.9308   19.7526 C   0  0  0  0  0  0  0  0  0  0  0  0
  -25.9450  -19.7700   19.8572 C   0  0  0  0  0  0  0  0  0  0  0  0
  -29.3152  -27.0538   19.3888 C   0  0  0  0  0  0  0  0  0  1  0  0
  -21.7151  -22.7877   18.9566 C   0  0  1  0  0  0  0  0  0  0  0  0
  -22.3052  -21.5019   15.4398 C   0  0  2  0  0  0  0  0  0  0  0  0
  -20.9119  -21.9447   19.9870 C   0  0  0  0  0  0  0  0  0  0  0  0
  -24.7041  -12.6558   21.7491 N   0  0  0  0  0  0  0  0  0  0  0  0
  -25.5624  -13.5819   21.2892 N   0  0  0  0  0  0  0  0  0  0  0  0
  -22.2943  -25.1741   19.2625 N   0  0  0  0  0  0  0  0  0  0  0  0
  -25.0213  -17.2021   22.3892 N   0  0  0  0  0  0  0  0  0  0  0  0
  -27.0717  -14.0472   19.5238 N   0  0  0  0  0  0  0  0  0  0  0  0
  -25.4580   -9.9639   18.4660 N   0  0  0  0  0  0  0  0  0  0  0  0
  -20.7352  -27.6721   21.2773 N   0  0  0  0  0  0  0  0  0  0  0  0
  -21.5939  -22.3220   17.5794 N   0  0  0  0  0  0  0  0  0  0  0  0
  -25.5649  -18.5405   20.5166 N   0  0  0  0  0  0  0  0  0  0  0  0
  -23.3661  -21.8724   14.4609 N   0  3  0  0  0  0  0  0  0  0  0  0
  -26.8990  -11.6235   17.8115 O   0  0  0  0  0  0  0  0  0  0  0  0
  -22.4110  -26.1207   21.7328 O   0  0  0  0  0  0  0  0  0  0  0  0
  -20.1325  -24.5314   18.6710 O   0  0  0  0  0  0  0  0  0  0  0  0
  -23.8592  -21.9713   17.2292 O   0  0  0  0  0  0  0  0  0  0  0  0
  -25.5397  -19.4506   22.6209 O   0  0  0  0  0  0  0  0  0  0  0  0
  -21.7170   -7.0439   21.3839 O   0  0  0  0  0  0  0  0  0  0  0  0
  -28.3117  -26.2821   20.0476 O   0  0  0  0  0  0  0  0  0  1  0  0
  -16.4138   -7.6285   22.7758 F   0  0  0  0  0  0  0  0  0  0  0  0
  -19.7058   -6.1184   19.7283 F   0  0  0  0  0  0  0  0  0  0  0  0
  1  2  1  0  0  0  0
  1  5  2  0  0  0  0
  2  6  2  0  0  0  0
  3  8  2  0  0  0  0
  3 18  1  0  0  0  0
  4  9  1  0  0  0  0
  4 18  2  0  0  0  0
  5 20  1  0  0  0  0
  6 22  1  0  0  0  0
  7 10  2  0  0  0  0
  7 21  1  0  0  0  0
  8 27  1  0  0  0  0
  9 27  2  0  0  0  0
 10 28  1  0  0  0  0
 11 12  2  0  0  0  0
 11 29  1  0  0  0  0
 12 30  1  0  0  0  0
 13 23  1  0  0  0  0
 13 28  2  0  0  0  0
 14 24  1  0  0  0  0
 14 25  2  0  0  0  0
 15 24  2  0  0  0  0
 15 26  1  0  0  0  0
 16 25  1  0  0  0  0
 16 26  2  0  0  0  0
 17 30  2  0  0  0  0
 17 31  1  0  0  0  0
 18 32  1  0  0  0  0
 19 32  1  0  0  0  0
 19 33  2  0  0  0  0
 19 34  1  0  0  0  0
 20 22  2  0  0  0  0
 20 39  1  0  0  0  0
 21 23  2  0  0  0  0
 21 40  1  0  0  0  0
 22 48  1  0  0  0  0
 23 41  1  0  0  0  0
 24 51  1  0  0  0  0
 25 57  1  0  0  0  0
 26 58  1  0  0  0  0
 27 81  1  0  0  0  0
 28 82  1  0  0  0  0
 29 31  2  0  0  0  0
 29 81  1  0  0  0  0
 30 83  1  0  0  0  0
 31 84  1  0  0  0  0
 32 66  2  0  0  0  0
 33 67  1  0  0  0  0
 33 70  1  0  0  0  0
 34 71  1  0  0  0  0
 34 76  2  0  0  0  0
 35 49  1  0  0  0  0
 35 72  1  0  0  0  0
 35 77  2  0  0  0  0
 36 63  1  0  0  0  0
 36 68  1  0  0  0  0
 36 78  2  0  0  0  0
 37 64  1  0  0  0  0
 37 73  1  0  0  0  0
 37 79  2  0  0  0  0
 38 69  1  0  0  0  0
 38 74  1  0  0  0  0
 38 80  2  0  0  0  0
 39 42  1  0  0  0  0
 40 49  1  0  0  0  0
 41 68  1  0  0  0  0
 42 44  1  0  0  0  0
 43 45  1  0  0  0  0
 43 46  1  0  0  0  0
 44 48  1  0  0  0  0
 45 50  1  0  0  0  0
 46 69  1  0  0  0  0
 47 50  1  0  0  0  0
 47 69  1  0  0  0  0
 48 72  1  0  0  0  0
 49 68  1  0  0  0  0
 50 67  1  0  0  0  0
 52 64  1  0  0  0  0
 53 65  1  0  0  0  0
 54 65  1  0  0  0  0
 55 65  1  0  0  0  0
 56 75  1  0  0  0  0
 57 59  1  0  0  0  0
 58 62  1  0  0  0  0
 59 60  1  0  0  0  0
 60 61  1  0  0  0  0
 61 74  1  0  0  0  0
 62 82  1  0  0  0  0
 63 65  1  0  0  0  0
 63 73  1  0  0  0  0
 64 75  1  0  0  0  0
 66 67  1  0  0  0  0
M  CHG  1  75   1
M  ISO  4  38 100  62 101  74 100  82 101
M  END
> <Batch ID>
0040

> <Smiles>
CNC(C)C(=O)NC(C(=O)N1Cc2cc([101O:1][101CH2:1]Cc3cc(C)cc(CCCC[100NH:0][100C:0](=O)N4CCCC(n5nc(-c6ccc(Oc7ccc(F)cc7F)cc6)c(C(N)=O)c5N)C4)c3)ccc2CC1C(=O)NC1CCCc2ccccc21)C(C)(C)C

> <Shape>
0.223

> <Color>
0.089

> <Negative vol penalty>
0.000

$$$$

  -OEChem-04052317073D

 86 94  0     1  0  0  0  0  0999 V2000
  -32.0946  -26.1627   19.0168 C   0  0  0  0  0  0  0  0  0  0  0  0
  -31.2078  -25.4685   19.8335 C   0  0  0  0  0  0  0  0  0  0  0  0
  -27.3469  -17.1804   19.0348 C   0  0  0  0  0  0  0  0  0  0  0  0
  -28.0122  -17.0333   21.3528 C   0  0  0  0  0  0  0  0  0  0  0  0
  -32.0474  -27.5551   18.9636 C   0  0  0  0  0  0  0  0  0  0  0  0
  -30.2738  -26.1664   20.5983 C   0  0  0  0  0  0  0  0  0  0  0  0
  -25.6549  -24.1012   20.3847 C   0  0  0  0  0  0  0  0  0  0  0  0
  -28.0108  -18.4019   18.9217 C   0  0  0  0  0  0  0  0  0  0  0  0
  -28.6762  -18.2548   21.2397 C   0  0  0  0  0  0  0  0  0  0  0  0
  -25.4293  -22.9644   21.1597 C   0  0  0  0  0  0  0  0  0  0  0  0
  -31.1926  -19.4820   18.5439 C   0  0  0  0  0  0  0  0  0  0  0  0
  -31.9917  -19.6837   17.4187 C   0  0  0  0  0  0  0  0  0  0  0  0
  -24.3399  -24.3249   22.8274 C   0  0  0  0  0  0  0  0  0  0  0  0
  -30.6371  -21.5854   16.7975 C   0  0  0  0  0  0  0  0  0  0  0  0
  -27.3476  -16.4961   20.2504 C   0  0  0  0  0  0  0  0  0  0  0  0
  -27.1936  -13.9524   20.1341 C   0  0  0  0  0  0  0  0  0  0  0  0
  -31.1060  -28.2700   19.7209 C   0  0  0  0  0  0  0  0  0  0  0  0
  -25.2337  -25.3620   20.8311 C   0  0  0  0  0  0  0  0  0  0  0  0
  -30.2148  -27.5698   20.5563 C   0  0  0  0  0  0  0  0  0  0  0  0
  -24.5591  -25.4758   22.0551 C   0  0  0  0  0  0  0  0  0  0  0  0
  -24.1829  -19.1188   26.1177 C   0  0  0  0  0  0  0  0  0  0  0  0
  -28.6755  -18.9391   20.0241 C   0  0  0  0  0  0  0  0  0  0  0  0
  -24.7743  -23.0765   22.3825 C   0  0  0  0  0  0  0  0  0  0  0  0
  -30.1156  -20.3319   18.7960 C   0  0  0  0  0  0  0  0  0  0  0  0
  -31.7140  -20.7354   16.5455 C   0  0  0  0  0  0  0  0  0  0  0  0
  -29.8379  -21.3836   17.9228 C   0  0  0  0  0  0  0  0  0  0  0  0
  -26.6614  -15.2346   20.3680 C   0  0  0  0  0  0  0  0  0  0  0  0
  -22.9515  -18.5762   26.4237 C   0  0  0  0  0  0  0  0  0  0  0  0
  -24.3278  -19.5791   24.8249 C   0  0  0  0  0  0  0  0  0  0  0  0
  -26.1481  -13.0965   20.3808 C   0  0  0  0  0  0  0  0  0  0  0  0
  -22.1983  -18.9689   24.3152 C   0  0  0  0  0  0  0  0  0  0  0  0
  -28.5148  -13.5694   19.7300 C   0  0  0  0  0  0  0  0  0  0  0  0
  -26.6980  -28.0860   21.5654 C   0  0  0  0  0  0  0  0  0  0  0  0
  -23.6608  -29.1880   21.8537 C   0  0  0  0  0  0  0  0  0  0  0  0
  -20.3669  -28.4916   22.4124 C   0  0  0  0  0  0  0  0  0  0  0  0
  -21.2202  -13.5445   23.7522 C   0  0  0  0  0  0  0  0  0  0  0  0
  -31.1244  -29.7771   19.6667 C   0  0  0  0  0  0  0  0  0  0  0  0
  -25.4610  -26.5749   19.9711 C   0  0  0  0  0  0  0  0  0  0  0  0
  -24.0689  -26.8035   22.5700 C   0  0  0  0  0  0  0  0  0  0  0  0
  -29.8573  -30.4221   20.2224 C   0  0  0  0  0  0  0  0  0  0  0  0
  -21.3698  -12.8885   20.2559 C   0  0  0  0  0  0  0  0  0  0  0  0
  -29.4729  -29.7836   21.5534 C   0  0  0  0  0  0  0  0  0  0  0  0
  -22.7909  -13.2997   19.8671 C   0  0  0  0  0  0  0  0  0  0  0  0
  -20.7891  -13.8089   21.3272 C   0  0  0  0  0  0  0  0  0  0  0  0
  -23.0453  -14.3703   22.1448 C   0  0  0  0  0  0  0  0  0  0  0  0
  -29.1710  -28.2900   21.3820 C   0  0  1  0  0  0  0  0  0  0  0  0
  -25.4454  -27.8795   20.7617 C   0  0  1  0  0  0  0  0  0  0  0  0
  -23.6940  -13.4377   21.1075 C   0  0  2  0  0  0  0  0  0  0  0  0
  -25.2815  -19.2033   27.1171 C   0  0  0  0  0  0  0  0  0  0  0  0
  -21.0953  -18.8882   23.3151 C   0  0  0  0  0  0  0  0  0  0  0  0
  -18.1272  -29.6031   22.6260 C   0  0  0  0  0  0  0  0  0  0  0  0
  -24.4100  -30.1550   24.6489 C   0  0  0  0  0  0  0  0  0  0  0  0
  -21.9673  -30.3755   25.1516 C   0  0  0  0  0  0  0  0  0  0  0  0
  -22.9945  -31.7470   23.3388 C   0  0  0  0  0  0  0  0  0  0  0  0
  -19.2751  -26.9963   20.1035 C   0  0  0  0  0  0  0  0  0  0  0  0
  -22.6782  -18.0457   27.7928 C   0  0  0  0  0  0  0  0  0  0  0  0
  -25.6308  -20.1924   24.3727 C   0  0  0  0  0  0  0  0  0  0  0  0
  -21.7043  -16.8590   27.7706 C   0  0  0  0  0  0  0  0  0  0  0  0
  -22.2675  -15.6790   26.9758 C   0  0  0  0  0  0  0  0  0  0  0  0
  -21.2718  -14.5163   26.9273 C   0  0  0  0  0  0  0  0  0  0  0  0
  -21.8084  -13.3173   26.1525 C   0  0  0  0  0  0  0  0  0  0  0  0
  -25.5008  -20.9071   23.0320 C   0  0  0  0  0  0  0  0  0  1  0  0
  -22.6546  -29.2681   22.9762 C   0  0  1  0  0  0  0  0  0  0  0  0
  -19.1080  -28.9243   21.6827 C   0  0  2  0  0  0  0  0  0  0  0  0
  -23.0174  -30.3615   24.0204 C   0  0  0  0  0  0  0  0  0  0  0  0
  -25.3776  -15.2010   20.7349 N   0  0  0  0  0  0  0  0  0  0  0  0
  -21.9329  -18.4851   25.5437 N   0  0  0  0  0  0  0  0  0  0  0  0
  -23.3529  -19.5195   23.8942 N   0  0  0  0  0  0  0  0  0  0  0  0
  -25.0942  -13.8873   20.7333 N   0  0  0  0  0  0  0  0  0  0  0  0
  -24.3205  -27.9610   21.6957 N   0  0  0  0  0  0  0  0  0  0  0  0
  -21.6929  -13.8952   22.4768 N   0  0  0  0  0  0  0  0  0  0  0  0
  -26.0366  -11.7522   20.3282 N   0  0  0  0  0  0  0  0  0  0  0  0
  -29.4673  -14.5758   19.5197 N   0  0  0  0  0  0  0  0  0  0  0  0
  -27.8549  -28.1028   20.8099 N   0  0  0  0  0  0  0  0  0  0  0  0
  -21.3525  -29.4535   22.3448 N   0  0  0  0  0  0  0  0  0  0  0  0
  -22.1433  -13.6487   24.7855 N   0  0  0  0  0  0  0  0  0  0  0  0
  -18.4325  -27.7450   21.0712 N   0  3  0  0  0  0  0  0  0  0  0  0
  -28.8365  -12.3712   19.5446 O   0  0  0  0  0  0  0  0  0  0  0  0
  -26.6205  -28.2217   22.7809 O   0  0  0  0  0  0  0  0  0  0  0  0
  -23.8491  -30.1754   21.1387 O   0  0  0  0  0  0  0  0  0  0  0  0
  -20.4647  -27.4102   22.9881 O   0  0  0  0  0  0  0  0  0  0  0  0
  -20.0629  -13.1615   23.9541 O   0  0  0  0  0  0  0  0  0  0  0  0
  -29.3237  -20.1309   19.9141 O   0  0  0  0  0  0  0  0  0  0  0  0
  -24.5533  -21.9686   23.1412 O   0  0  0  0  0  0  0  0  0  1  0  0
  -32.4824  -20.9299   15.4657 F   0  0  0  0  0  0  0  0  0  0  0  0
  -28.8054  -22.2042   18.1604 F   0  0  0  0  0  0  0  0  0  0  0  0
  1  2  1  0  0  0  0
  1  5  2  0  0  0  0
  2  6  2  0  0  0  0
  3  8  2  0  0  0  0
  3 15  1  0  0  0  0
  4  9  1  0  0  0  0
  4 15  2  0  0  0  0
  5 17  1  0  0  0  0
  6 19  1  0  0  0  0
  7 10  2  0  0  0  0
  7 18  1  0  0  0  0
  8 22  1  0  0  0  0
  9 22  2  0  0  0  0
 10 23  1  0  0  0  0
 11 12  2  0  0  0  0
 11 24  1  0  0  0  0
 12 25  1  0  0  0  0
 13 20  1  0  0  0  0
 13 23  2  0  0  0  0
 14 25  2  0  0  0  0
 14 26  1  0  0  0  0
 15 27  1  0  0  0  0
 16 27  1  0  0  0  0
 16 30  2  0  0  0  0
 16 32  1  0  0  0  0
 17 19  2  0  0  0  0
 17 37  1  0  0  0  0
 18 20  2  0  0  0  0
 18 38  1  0  0  0  0
 19 46  1  0  0  0  0
 20 39  1  0  0  0  0
 21 28  1  0  0  0  0
 21 29  2  0  0  0  0
 21 49  1  0  0  0  0
 22 83  1  0  0  0  0
 23 84  1  0  0  0  0
 24 26  2  0  0  0  0
 24 83  1  0  0  0  0
 25 85  1  0  0  0  0
 26 86  1  0  0  0  0
 27 66  2  0  0  0  0
 28 56  1  0  0  0  0
 28 67  2  0  0  0  0
 29 57  1  0  0  0  0
 29 68  1  0  0  0  0
 30 69  1  0  0  0  0
 30 72  1  0  0  0  0
 31 50  1  0  0  0  0
 31 67  1  0  0  0  0
 31 68  2  0  0  0  0
 32 73  1  0  0  0  0
 32 78  2  0  0  0  0
 33 47  1  0  0  0  0
 33 74  1  0  0  0  0
 33 79  2  0  0  0  0
 34 63  1  0  0  0  0
 34 70  1  0  0  0  0
 34 80  2  0  0  0  0
 35 64  1  0  0  0  0
 35 75  1  0  0  0  0
 35 81  2  0  0  0  0
 36 71  1  0  0  0  0
 36 76  1  0  0  0  0
 36 82  2  0  0  0  0
 37 40  1  0  0  0  0
 38 47  1  0  0  0  0
 39 70  1  0  0  0  0
 40 42  1  0  0  0  0
 41 43  1  0  0  0  0
 41 44  1  0  0  0  0
 42 46  1  0  0  0  0
 43 48  1  0  0  0  0
 44 71  1  0  0  0  0
 45 48  1  0  0  0  0
 45 71  1  0  0  0  0
 46 74  1  0  0  0  0
 47 70  1  0  0  0  0
 48 69  1  0  0  0  0
 51 64  1  0  0  0  0
 52 65  1  0  0  0  0
 53 65  1  0  0  0  0
 54 65  1  0  0  0  0
 55 77  1  0  0  0  0
 56 58  1  0  0  0  0
 57 62  1  0  0  0  0
 58 59  1  0  0  0  0
 59 60  1  0  0  0  0
 60 61  1  0  0  0  0
 61 76  1  0  0  0  0
 62 84  1  0  0  0  0
 63 65  1  0  0  0  0
 63 75  1  0  0  0  0
 64 77  1  0  0  0  0
 66 69  1  0  0  0  0
M  CHG  1  77   1
M  ISO  4  36 100  62 101  76 100  84 101
M  END
> <Batch ID>
0040

> <Smiles>
CNC(C)C(=O)NC(C(=O)N1Cc2cc([101O:1][101CH2:1]Cc3nc(C)nc(CCCCC[100NH:0][100C:0](=O)N4CCCC(n5nc(-c6ccc(Oc7ccc(F)cc7F)cc6)c(C(N)=O)c5N)C4)c3C)ccc2CC1C(=O)NC1CCCc2ccccc21)C(C)(C)C

> <Shape>
0.225

> <Color>
0.071

> <Negative vol penalty>
0.000

$$$$

  -OEChem-04052317073D

 88 97  0     1  0  0  0  0  0999 V2000
  -26.3857  -38.1386   23.3704 C   0  0  0  0  0  0  0  0  0  0  0  0
  -26.9380  -36.8953   23.6608 C   0  0  0  0  0  0  0  0  0  0  0  0
  -23.4766  -11.8995   23.7953 C   0  0  0  0  0  0  0  0  0  0  0  0
  -24.6959  -13.9509   24.1721 C   0  0  0  0  0  0  0  0  0  0  0  0
  -25.0041  -38.2729   23.2389 C   0  0  0  0  0  0  0  0  0  0  0  0
  -26.1090  -35.7856   23.8212 C   0  0  0  0  0  0  0  0  0  0  0  0
  -26.8643  -29.9592   19.6529 C   0  0  0  0  0  0  0  0  0  0  0  0
  -22.9433  -11.9802   25.0816 C   0  0  0  0  0  0  0  0  0  0  0  0
  -24.1627  -14.0316   25.4585 C   0  0  0  0  0  0  0  0  0  0  0  0
  -27.0827  -28.7267   19.0369 C   0  0  0  0  0  0  0  0  0  0  0  0
  -20.4817  -13.6819   26.6555 C   0  0  0  0  0  0  0  0  0  0  0  0
  -19.1167  -13.4385   26.8078 C   0  0  0  0  0  0  0  0  0  0  0  0
  -25.1626  -27.8029   20.1805 C   0  0  0  0  0  0  0  0  0  0  0  0
  -19.6107  -11.5952   28.2894 C   0  0  0  0  0  0  0  0  0  0  0  0
  -29.3176  -19.5959   19.2563 C   0  0  0  0  0  0  0  0  0  0  0  0
  -24.3529  -12.8849   23.3405 C   0  0  0  0  0  0  0  0  0  0  0  0
  -24.1949  -12.7865   20.7963 C   0  0  0  0  0  0  0  0  0  0  0  0
  -24.1585  -37.1624   23.3882 C   0  0  0  0  0  0  0  0  0  0  0  0
  -25.7838  -30.1227   20.5242 C   0  0  0  0  0  0  0  0  0  0  0  0
  -24.7147  -35.9054   23.6929 C   0  0  0  0  0  0  0  0  0  0  0  0
  -24.9315  -29.0386   20.7908 C   0  0  0  0  0  0  0  0  0  0  0  0
  -23.2863  -13.0462   25.9132 C   0  0  0  0  0  0  0  0  0  0  0  0
  -26.2340  -27.6512   19.3003 C   0  0  0  0  0  0  0  0  0  0  0  0
  -21.4112  -12.8819   27.3201 C   0  0  0  0  0  0  0  0  0  0  0  0
  -18.6812  -12.3952   27.6248 C   0  0  0  0  0  0  0  0  0  0  0  0
  -20.9757  -11.8386   28.1371 C   0  0  0  0  0  0  0  0  0  0  0  0
  -24.9046  -12.8018   22.0120 C   0  0  0  0  0  0  0  0  0  0  0  0
  -28.2448  -20.1992   19.9395 C   0  0  0  0  0  0  0  0  0  0  0  0
  -28.7670  -18.4853   18.6648 C   0  0  0  0  0  0  0  0  0  0  0  0
  -25.1685  -12.6977   19.8315 C   0  0  0  0  0  0  0  0  0  0  0  0
  -22.7820  -12.8471   20.5602 C   0  0  0  0  0  0  0  0  0  0  0  0
  -23.8625  -32.4293   22.7747 C   0  0  0  0  0  0  0  0  0  0  0  0
  -21.7991  -30.7344   21.2647 C   0  0  0  0  0  0  0  0  0  0  0  0
  -19.0254  -29.5358   19.6812 C   0  0  0  0  0  0  0  0  0  0  0  0
  -30.9484  -14.2564   19.7160 C   0  0  0  0  0  0  0  0  0  0  0  0
  -22.6677  -37.3660   23.2837 C   0  0  0  0  0  0  0  0  0  0  0  0
  -25.5466  -31.4150   21.2575 C   0  0  0  0  0  0  0  0  0  0  0  0
  -23.8023  -29.2510   21.7618 C   0  0  0  0  0  0  0  0  0  0  0  0
  -21.8872  -36.0672   23.0984 C   0  0  0  0  0  0  0  0  0  0  0  0
  -29.5917  -11.0192   19.1188 C   0  0  0  0  0  0  0  0  0  0  0  0
  -22.3721  -35.0078   24.0830 C   0  0  0  0  0  0  0  0  0  0  0  0
  -26.4745  -22.8203   19.6553 C   0  0  0  0  0  0  0  0  0  0  0  0
  -28.5258  -23.9554   20.6039 C   0  0  0  0  0  0  0  0  0  0  0  0
  -28.1726  -11.1076   19.6829 C   0  0  0  0  0  0  0  0  0  0  0  0
  -26.1505  -24.0802   18.8582 C   0  0  0  0  0  0  0  0  0  0  0  0
  -28.1957  -25.2125   19.8046 C   0  0  0  0  0  0  0  0  0  0  0  0
  -30.5843  -11.8183   19.9603 C   0  0  0  0  0  0  0  0  0  0  0  0
  -28.7931  -13.3161   20.7488 C   0  0  0  0  0  0  0  0  0  0  0  0
  -23.8503  -34.6732   23.8496 C   0  0  1  0  0  0  0  0  0  0  0  0
  -24.0534  -31.7273   21.4624 C   0  0  1  0  0  0  0  0  0  0  0  0
  -27.9807  -22.6925   19.9226 C   0  0  0  0  0  0  0  0  0  0  0  0
  -27.7465  -12.5717   19.9021 C   0  0  2  0  0  0  0  0  0  0  0  0
  -26.6970  -25.3334   19.5369 C   0  0  0  0  0  0  0  0  0  1  0  0
  -26.1265  -16.5555   19.7640 C   0  0  0  0  0  0  0  0  0  0  0  0
  -16.5682  -29.1605   20.0259 C   0  0  0  0  0  0  0  0  0  0  0  0
  -22.4180  -28.3142   23.0149 C   0  0  0  0  0  0  0  0  0  0  0  0
  -20.1103  -27.4683   22.5381 C   0  0  0  0  0  0  0  0  0  0  0  0
  -20.4201  -29.6368   23.7316 C   0  0  0  0  0  0  0  0  0  0  0  0
  -18.3182  -31.3366   17.4416 C   0  0  0  0  0  0  0  0  0  0  0  0
  -28.2753  -21.4543   20.7673 C   0  0  0  0  0  0  0  0  0  0  0  0
  -29.3689  -17.4422   17.8143 C   0  0  0  0  0  0  0  0  0  0  0  0
  -30.8651  -17.1540   18.0910 C   0  0  0  0  0  0  0  0  0  0  0  0
  -26.4460  -17.5228   18.6372 C   0  0  0  0  0  0  0  0  0  0  0  0
  -31.1608  -16.7217   19.5255 C   0  0  0  0  0  0  0  0  0  0  0  0
  -20.9379  -29.4968   21.2609 C   0  0  1  0  0  0  0  0  0  0  0  0
  -17.6331  -30.1161   19.5103 C   0  0  2  0  0  0  0  0  0  0  0  0
  -20.9896  -28.7346   22.6151 C   0  0  0  0  0  0  0  0  0  0  0  0
  -26.2268  -12.7285   21.8382 N   0  0  0  0  0  0  0  0  0  0  0  0
  -27.0992  -19.5276   19.7960 N   0  0  0  0  0  0  0  0  0  0  0  0
  -27.4490  -18.4909   19.0157 N   0  0  0  0  0  0  0  0  0  0  0  0
  -26.3558  -12.6662   20.5019 N   0  0  0  0  0  0  0  0  0  0  0  0
  -23.1650  -30.5537   21.5140 N   0  0  0  0  0  0  0  0  0  0  0  0
  -30.1223  -13.1982   20.1291 N   0  0  0  0  0  0  0  0  0  0  0  0
  -25.1161  -12.6442   18.4836 N   0  0  0  0  0  0  0  0  0  0  0  0
  -21.9233  -12.9361   21.6644 N   0  0  0  0  0  0  0  0  0  0  0  0
  -23.9964  -33.8027   22.7027 N   0  0  0  0  0  0  0  0  0  0  0  0
  -19.6010  -29.9310   20.8703 N   0  0  0  0  0  0  0  0  0  0  0  0
  -30.4319  -15.5322   19.9060 N   0  0  0  0  0  0  0  0  0  0  0  0
  -17.3600  -30.3921   18.0715 N   0  3  0  0  0  0  0  0  0  0  0  0
  -22.2946  -12.8066   19.4051 O   0  0  0  0  0  0  0  0  0  0  0  0
  -23.6107  -31.7742   23.7793 O   0  0  0  0  0  0  0  0  0  0  0  0
  -21.2767  -31.8334   21.0581 O   0  0  0  0  0  0  0  0  0  0  0  0
  -19.5485  -28.8022   18.8454 O   0  0  0  0  0  0  0  0  0  0  0  0
  -32.0615  -14.0772   19.2099 O   0  0  0  0  0  0  0  0  0  0  0  0
  -22.7660  -13.1253   27.1684 O   0  0  0  0  0  0  0  0  0  0  0  0
  -26.4503  -26.4520   18.6921 O   0  0  0  0  0  0  0  0  0  1  0  0
  -17.3704  -12.1625   27.7722 F   0  0  0  0  0  0  0  0  0  0  0  0
  -21.8640  -11.0674   28.7790 F   0  0  0  0  0  0  0  0  0  0  0  0
  1  2  1  0  0  0  0
  1  5  2  0  0  0  0
  2  6  2  0  0  0  0
  3  8  2  0  0  0  0
  3 16  1  0  0  0  0
  4  9  1  0  0  0  0
  4 16  2  0  0  0  0
  5 18  1  0  0  0  0
  6 20  1  0  0  0  0
  7 10  2  0  0  0  0
  7 19  1  0  0  0  0
  8 22  1  0  0  0  0
  9 22  2  0  0  0  0
 10 23  1  0  0  0  0
 11 12  2  0  0  0  0
 11 24  1  0  0  0  0
 12 25  1  0  0  0  0
 13 21  1  0  0  0  0
 13 23  2  0  0  0  0
 14 25  2  0  0  0  0
 14 26  1  0  0  0  0
 15 28  1  0  0  0  0
 15 29  2  0  0  0  0
 16 27  1  0  0  0  0
 17 27  1  0  0  0  0
 17 30  2  0  0  0  0
 17 31  1  0  0  0  0
 18 20  2  0  0  0  0
 18 36  1  0  0  0  0
 19 21  2  0  0  0  0
 19 37  1  0  0  0  0
 20 49  1  0  0  0  0
 21 38  1  0  0  0  0
 22 85  1  0  0  0  0
 23 86  1  0  0  0  0
 24 26  2  0  0  0  0
 24 85  1  0  0  0  0
 25 87  1  0  0  0  0
 26 88  1  0  0  0  0
 27 68  2  0  0  0  0
 28 60  1  0  0  0  0
 28 69  2  0  0  0  0
 29 61  1  0  0  0  0
 29 70  1  0  0  0  0
 30 71  1  0  0  0  0
 30 74  1  0  0  0  0
 31 75  1  0  0  0  0
 31 80  2  0  0  0  0
 32 50  1  0  0  0  0
 32 76  1  0  0  0  0
 32 81  2  0  0  0  0
 33 65  1  0  0  0  0
 33 72  1  0  0  0  0
 33 82  2  0  0  0  0
 34 66  1  0  0  0  0
 34 77  1  0  0  0  0
 34 83  2  0  0  0  0
 35 73  1  0  0  0  0
 35 78  1  0  0  0  0
 35 84  2  0  0  0  0
 36 39  1  0  0  0  0
 37 50  1  0  0  0  0
 38 72  1  0  0  0  0
 39 41  1  0  0  0  0
 40 44  1  0  0  0  0
 40 47  1  0  0  0  0
 41 49  1  0  0  0  0
 42 45  1  0  0  0  0
 42 51  1  0  0  0  0
 43 46  1  0  0  0  0
 43 51  1  0  0  0  0
 44 52  1  0  0  0  0
 45 53  1  0  0  0  0
 46 53  1  0  0  0  0
 47 73  1  0  0  0  0
 48 52  1  0  0  0  0
 48 73  1  0  0  0  0
 49 76  1  0  0  0  0
 50 72  1  0  0  0  0
 51 60  1  0  0  0  0
 52 71  1  0  0  0  0
 53 86  1  0  0  0  0
 54 63  1  0  0  0  0
 55 66  1  0  0  0  0
 56 67  1  0  0  0  0
 57 67  1  0  0  0  0
 58 67  1  0  0  0  0
 59 79  1  0  0  0  0
 61 62  1  0  0  0  0
 62 64  1  0  0  0  0
 63 70  1  0  0  0  0
 64 78  1  0  0  0  0
 65 67  1  0  0  0  0
 65 77  1  0  0  0  0
 66 79  1  0  0  0  0
 68 71  1  0  0  0  0
 69 70  1  0  0  0  0
M  CHG  1  79   1
M  ISO  4  35 100  53 101  78 100  86 101
M  END
> <Batch ID>
0040

> <Smiles>
CCn1nc(CC2CC[101CH:1]([101O:1]c3ccc4c(c3)CN(C(=O)C(NC(=O)C(C)NC)C(C)(C)C)C(C(=O)NC3CCCc5ccccc53)C4)CC2)cc1CCC[100NH:0][100C:0](=O)N1CCCC(n2nc(-c3ccc(Oc4ccc(F)cc4F)cc3)c(C(N)=O)c2N)C1

> <Shape>
0.287

> <Color>
0.101

> <Negative vol penalty>
0.000

$$$$

  -OEChem-04052317073D

 82 90  0     1  0  0  0  0  0999 V2000
  -27.0456  -35.3926   25.7600 C   0  0  0  0  0  0  0  0  0  0  0  0
  -27.4744  -34.2322   25.1237 C   0  0  0  0  0  0  0  0  0  0  0  0
  -25.8208  -12.9463   21.6903 C   0  0  0  0  0  0  0  0  0  0  0  0
  -25.1486  -13.8617   19.5578 C   0  0  0  0  0  0  0  0  0  0  0  0
  -25.7317  -35.4914   26.2160 C   0  0  0  0  0  0  0  0  0  0  0  0
  -26.5897  -33.1693   24.9440 C   0  0  0  0  0  0  0  0  0  0  0  0
  -26.8388  -31.2012   20.2846 C   0  0  0  0  0  0  0  0  0  0  0  0
  -25.4423  -11.6736   21.2633 C   0  0  0  0  0  0  0  0  0  0  0  0
  -24.7701  -12.5889   19.1308 C   0  0  0  0  0  0  0  0  0  0  0  0
  -27.9073  -30.3489   20.0097 C   0  0  0  0  0  0  0  0  0  0  0  0
  -22.5773   -9.9162   20.9061 C   0  0  0  0  0  0  0  0  0  0  0  0
  -21.8389   -9.1297   21.7903 C   0  0  0  0  0  0  0  0  0  0  0  0
  -26.4641  -28.4438   20.3369 C   0  0  0  0  0  0  0  0  0  0  0  0
  -23.5770   -7.4521   21.7497 C   0  0  0  0  0  0  0  0  0  0  0  0
  -28.5570  -22.1897   19.8731 C   0  0  0  0  0  0  0  0  0  0  0  0
  -30.0702  -23.5510   19.2506 C   0  0  0  0  0  0  0  0  0  0  0  0
  -25.6739  -14.0404   20.8376 C   0  0  0  0  0  0  0  0  0  0  0  0
  -27.3285  -15.9586   21.1384 C   0  0  0  0  0  0  0  0  0  0  0  0
  -24.8278  -34.4330   26.0332 C   0  0  0  0  0  0  0  0  0  0  0  0
  -25.5754  -30.6802   20.5989 C   0  0  0  0  0  0  0  0  0  0  0  0
  -25.2629  -33.2536   25.3991 C   0  0  0  0  0  0  0  0  0  0  0  0
  -25.3805  -29.2917   20.6128 C   0  0  0  0  0  0  0  0  0  0  0  0
  -24.9170  -11.4948   19.9835 C   0  0  0  0  0  0  0  0  0  0  0  0
  -27.7208  -28.9700   20.0387 C   0  0  0  0  0  0  0  0  0  0  0  0
  -23.8155   -9.4706   20.4436 C   0  0  0  0  0  0  0  0  0  0  0  0
  -22.3387   -7.8977   22.2121 C   0  0  0  0  0  0  0  0  0  0  0  0
  -24.3154   -8.2386   20.8654 C   0  0  0  0  0  0  0  0  0  0  0  0
  -26.0642  -15.3556   21.2783 C   0  0  0  0  0  0  0  0  0  0  0  0
  -28.7471  -23.0394   20.9371 C   0  0  0  0  0  0  0  0  0  0  0  0
  -27.1839  -17.1970   21.7146 C   0  0  0  0  0  0  0  0  0  0  0  0
  -28.5265  -15.4453   20.5409 C   0  0  0  0  0  0  0  0  0  0  0  0
  -23.6601  -30.8154   23.1322 C   0  0  0  0  0  0  0  0  0  0  0  0
  -21.5963  -29.2654   21.1673 C   0  0  0  0  0  0  0  0  0  0  0  0
  -21.1414  -27.2662   18.4391 C   0  0  0  0  0  0  0  0  0  0  0  0
  -24.2719  -21.8944   22.4890 C   0  0  0  0  0  0  0  0  0  0  0  0
  -23.4308  -34.5678   26.5853 C   0  0  0  0  0  0  0  0  0  0  0  0
  -24.4265  -31.6133   20.8668 C   0  0  0  0  0  0  0  0  0  0  0  0
  -24.0389  -28.6823   20.9247 C   0  0  0  0  0  0  0  0  0  0  0  0
  -22.4515  -33.5413   26.0218 C   0  0  0  0  0  0  0  0  0  0  0  0
  -23.4388  -19.1001   24.5322 C   0  0  0  0  0  0  0  0  0  0  0  0
  -23.0698  -32.1470   26.0408 C   0  0  0  0  0  0  0  0  0  0  0  0
  -24.1465  -17.9264   23.8529 C   0  0  0  0  0  0  0  0  0  0  0  0
  -22.9020  -20.1021   23.5125 C   0  0  0  0  0  0  0  0  0  0  0  0
  -24.6081  -19.4250   21.8680 C   0  0  0  0  0  0  0  0  0  0  0  0
  -24.3261  -32.0887   25.1634 C   0  0  1  0  0  0  0  0  0  0  0  0
  -23.3086  -30.9670   21.6792 C   0  0  1  0  0  0  0  0  0  0  0  0
  -25.2156  -18.4161   22.8577 C   0  0  2  0  0  0  0  0  0  0  0  0
  -19.3426  -26.1377   17.1018 C   0  0  0  0  0  0  0  0  0  0  0  0
  -21.3083  -27.1484   23.3457 C   0  0  0  0  0  0  0  0  0  0  0  0
  -20.2987  -25.6249   21.6344 C   0  0  0  0  0  0  0  0  0  0  0  0
  -19.1699  -27.7738   22.2096 C   0  0  0  0  0  0  0  0  0  0  0  0
  -21.8571  -28.7686   15.9918 C   0  0  0  0  0  0  0  0  0  0  0  0
  -28.1125  -23.1027   22.2648 C   0  0  0  0  0  0  0  0  0  0  0  0
  -26.8460  -23.9913   22.3455 C   0  0  0  0  0  0  0  0  0  0  0  0
  -30.1944  -26.4036   20.6109 C   0  0  0  0  0  0  0  0  0  0  0  0
  -30.3092  -25.0480   21.3117 C   0  0  0  0  0  0  0  0  0  0  0  0
  -25.7312  -23.5735   21.3889 C   0  0  0  0  0  0  0  0  0  0  0  0
  -28.7540  -26.8607   20.4120 C   0  0  0  0  0  0  0  0  0  1  0  0
  -21.3025  -27.8185   20.8523 C   0  0  1  0  0  0  0  0  0  0  0  0
  -20.2043  -27.3820   17.2505 C   0  0  2  0  0  0  0  0  0  0  0  0
  -20.5457  -27.1026   22.0065 C   0  0  0  0  0  0  0  0  0  0  0  0
  -29.3838  -22.5132   18.8265 N   0  0  0  0  0  0  0  0  0  0  0  0
  -25.1815  -16.1457   21.8952 N   0  0  0  0  0  0  0  0  0  0  0  0
  -29.7197  -23.9057   20.5236 N   0  0  0  0  0  0  0  0  0  0  0  0
  -25.8922  -17.2579   22.1481 N   0  0  0  0  0  0  0  0  0  0  0  0
  -22.9483  -29.6361   21.1859 N   0  0  0  0  0  0  0  0  0  0  0  0
  -23.9658  -20.5280   22.5999 N   0  0  0  0  0  0  0  0  0  0  0  0
  -28.0370  -18.2288   21.8878 N   0  0  0  0  0  0  0  0  0  0  0  0
  -28.5011  -14.1545   19.9956 N   0  0  0  0  0  0  0  0  0  0  0  0
  -23.9626  -32.0059   23.7650 N   0  0  0  0  0  0  0  0  0  0  0  0
  -20.5913  -27.8144   19.5785 N   0  0  0  0  0  0  0  0  0  0  0  0
  -25.2974  -22.2114   21.6067 N   0  0  0  0  0  0  0  0  0  0  0  0
  -20.9828  -27.5675   15.9933 N   0  3  0  0  0  0  0  0  0  0  0  0
  -29.5927  -16.1054   20.5066 O   0  0  0  0  0  0  0  0  0  0  0  0
  -23.6558  -29.7009   23.6417 O   0  0  0  0  0  0  0  0  0  0  0  0
  -20.6603  -30.0397   21.3817 O   0  0  0  0  0  0  0  0  0  0  0  0
  -22.2490  -26.7386   18.3652 O   0  0  0  0  0  0  0  0  0  0  0  0
  -23.6789  -22.7667   23.1328 O   0  0  0  0  0  0  0  0  0  0  0  0
  -24.5478  -10.2529   19.5664 O   0  0  0  0  0  0  0  0  0  0  0  0
  -28.7622  -28.1358   19.7714 O   0  0  0  0  0  0  0  0  0  1  0  0
  -21.6302   -7.1433   23.0624 F   0  0  0  0  0  0  0  0  0  0  0  0
  -25.5049   -7.8058   20.4255 F   0  0  0  0  0  0  0  0  0  0  0  0
  1  2  1  0  0  0  0
  1  5  2  0  0  0  0
  2  6  2  0  0  0  0
  3  8  2  0  0  0  0
  3 17  1  0  0  0  0
  4  9  1  0  0  0  0
  4 17  2  0  0  0  0
  5 19  1  0  0  0  0
  6 21  1  0  0  0  0
  7 10  2  0  0  0  0
  7 20  1  0  0  0  0
  8 23  1  0  0  0  0
  9 23  2  0  0  0  0
 10 24  1  0  0  0  0
 11 12  2  0  0  0  0
 11 25  1  0  0  0  0
 12 26  1  0  0  0  0
 13 22  1  0  0  0  0
 13 24  2  0  0  0  0
 14 26  2  0  0  0  0
 14 27  1  0  0  0  0
 15 29  2  0  0  0  0
 15 62  1  0  0  0  0
 16 62  2  0  0  0  0
 16 64  1  0  0  0  0
 17 28  1  0  0  0  0
 18 28  1  0  0  0  0
 18 30  2  0  0  0  0
 18 31  1  0  0  0  0
 19 21  2  0  0  0  0
 19 36  1  0  0  0  0
 20 22  2  0  0  0  0
 20 37  1  0  0  0  0
 21 45  1  0  0  0  0
 22 38  1  0  0  0  0
 23 79  1  0  0  0  0
 24 80  1  0  0  0  0
 25 27  2  0  0  0  0
 25 79  1  0  0  0  0
 26 81  1  0  0  0  0
 27 82  1  0  0  0  0
 28 63  2  0  0  0  0
 29 53  1  0  0  0  0
 29 64  1  0  0  0  0
 30 65  1  0  0  0  0
 30 68  1  0  0  0  0
 31 69  1  0  0  0  0
 31 74  2  0  0  0  0
 32 46  1  0  0  0  0
 32 70  1  0  0  0  0
 32 75  2  0  0  0  0
 33 59  1  0  0  0  0
 33 66  1  0  0  0  0
 33 76  2  0  0  0  0
 34 60  1  0  0  0  0
 34 71  1  0  0  0  0
 34 77  2  0  0  0  0
 35 67  1  0  0  0  0
 35 72  1  0  0  0  0
 35 78  2  0  0  0  0
 36 39  1  0  0  0  0
 37 46  1  0  0  0  0
 38 66  1  0  0  0  0
 39 41  1  0  0  0  0
 40 42  1  0  0  0  0
 40 43  1  0  0  0  0
 41 45  1  0  0  0  0
 42 47  1  0  0  0  0
 43 67  1  0  0  0  0
 44 47  1  0  0  0  0
 44 67  1  0  0  0  0
 45 70  1  0  0  0  0
 46 66  1  0  0  0  0
 47 65  1  0  0  0  0
 48 60  1  0  0  0  0
 49 61  1  0  0  0  0
 50 61  1  0  0  0  0
 51 61  1  0  0  0  0
 52 73  1  0  0  0  0
 53 54  1  0  0  0  0
 54 57  1  0  0  0  0
 55 56  1  0  0  0  0
 55 58  1  0  0  0  0
 56 64  1  0  0  0  0
 57 72  1  0  0  0  0
 58 80  1  0  0  0  0
 59 61  1  0  0  0  0
 59 71  1  0  0  0  0
 60 73  1  0  0  0  0
 63 65  1  0  0  0  0
M  CHG  1  73   1
M  ISO  4  35 100  58 101  72 100  80 101
M  END
> <Batch ID>
0040

> <Smiles>
CNC(C)C(=O)NC(C(=O)N1Cc2cc([101O:1][101CH2:1]CCn3cncc3CCC[100NH:0][100C:0](=O)N3CCCC(n4nc(-c5ccc(Oc6ccc(F)cc6F)cc5)c(C(N)=O)c4N)C3)ccc2CC1C(=O)NC1CCCc2ccccc21)C(C)(C)C

> <Shape>
0.269

> <Color>
0.073

> <Negative vol penalty>
0.000

$$$$

  -OEChem-04052317073D

 85 93  0     1  0  0  0  0  0999 V2000
  -21.5484  -30.8128   22.8559 C   0  0  0  0  0  0  0  0  0  0  0  0
  -21.1805  -29.8117   21.9627 C   0  0  0  0  0  0  0  0  0  0  0  0
  -22.8207  -15.6823   22.9323 C   0  0  0  0  0  0  0  0  0  0  0  0
  -22.1984  -15.8925   20.6073 C   0  0  0  0  0  0  0  0  0  0  0  0
  -22.8419  -31.3324   22.8246 C   0  0  0  0  0  0  0  0  0  0  0  0
  -22.1055  -29.3303   21.0370 C   0  0  0  0  0  0  0  0  0  0  0  0
  -22.5945  -23.5874   18.9667 C   0  0  0  0  0  0  0  0  0  0  0  0
  -21.7290  -16.4707   23.2957 C   0  0  0  0  0  0  0  0  0  0  0  0
  -21.1066  -16.6809   20.9707 C   0  0  0  0  0  0  0  0  0  0  0  0
  -22.1424  -22.9685   17.8021 C   0  0  0  0  0  0  0  0  0  0  0  0
  -18.3622  -19.0466   21.2565 C   0  0  0  0  0  0  0  0  0  0  0  0
  -18.1235  -20.2044   20.5162 C   0  0  0  0  0  0  0  0  0  0  0  0
  -24.2988  -23.3267   16.7819 C   0  0  0  0  0  0  0  0  0  0  0  0
  -23.1785  -18.3520   15.2093 C   0  0  0  0  0  0  0  0  0  0  0  0
  -20.3016  -21.0482   21.1335 C   0  0  0  0  0  0  0  0  0  0  0  0
  -23.0554  -15.3932   21.5880 C   0  0  0  0  0  0  0  0  0  0  0  0
  -24.2134  -13.1784   21.0769 C   0  0  0  0  0  0  0  0  0  0  0  0
  -23.7861  -30.8504   21.9044 C   0  0  0  0  0  0  0  0  0  0  0  0
  -23.9009  -24.0912   19.0439 C   0  0  0  0  0  0  0  0  0  0  0  0
  -23.4123  -29.8449   20.9924 C   0  0  0  0  0  0  0  0  0  0  0  0
  -24.7659  -23.9493   17.9495 C   0  0  0  0  0  0  0  0  0  0  0  0
  -24.4255  -17.7398   15.1496 C   0  0  0  0  0  0  0  0  0  0  0  0
  -25.4465  -18.3251   14.4091 C   0  0  0  0  0  0  0  0  0  0  0  0
  -20.8719  -16.9700   22.3150 C   0  0  0  0  0  0  0  0  0  0  0  0
  -22.9937  -22.8407   16.7084 C   0  0  0  0  0  0  0  0  0  0  0  0
  -19.5706  -18.8896   21.9354 C   0  0  0  0  0  0  0  0  0  0  0  0
  -19.0932  -21.2052   20.4546 C   0  0  0  0  0  0  0  0  0  0  0  0
  -20.5403  -19.8904   21.8739 C   0  0  0  0  0  0  0  0  0  0  0  0
  -24.1833  -14.5793   21.2118 C   0  0  0  0  0  0  0  0  0  0  0  0
  -23.0051  -19.5392   14.5162 C   0  0  0  0  0  0  0  0  0  0  0  0
  -25.1714  -19.5133   13.7517 C   0  0  0  0  0  0  0  0  0  0  0  0
  -25.5052  -12.8969   20.7049 C   0  0  0  0  0  0  0  0  0  0  0  0
  -23.1671  -12.2174   21.2706 C   0  0  0  0  0  0  0  0  0  0  0  0
  -25.1720  -26.9728   19.4732 C   0  0  0  0  0  0  0  0  0  0  0  0
  -27.9511  -25.3031   19.5772 C   0  0  0  0  0  0  0  0  0  0  0  0
  -29.6704  -22.4828   18.7190 C   0  0  0  0  0  0  0  0  0  0  0  0
  -29.7412  -16.0987   17.9380 C   0  0  0  0  0  0  0  0  0  0  0  0
  -25.1581  -31.4761   21.8769 C   0  0  0  0  0  0  0  0  0  0  0  0
  -24.3817  -24.7323   20.3168 C   0  0  0  0  0  0  0  0  0  0  0  0
  -26.1840  -24.4552   17.9887 C   0  0  0  0  0  0  0  0  0  0  0  0
  -26.1897  -30.6489   21.1142 C   0  0  0  0  0  0  0  0  0  0  0  0
  -29.9723  -14.5546   21.1379 C   0  0  0  0  0  0  0  0  0  0  0  0
  -25.6176  -30.1806   19.7800 C   0  0  0  0  0  0  0  0  0  0  0  0
  -28.5176  -14.2595   21.5075 C   0  0  0  0  0  0  0  0  0  0  0  0
  -30.1052  -15.8725   20.3778 C   0  0  0  0  0  0  0  0  0  0  0  0
  -27.7883  -15.6951   19.5566 C   0  0  0  0  0  0  0  0  0  0  0  0
  -24.3948  -29.2793   19.9899 C   0  0  1  0  0  0  0  0  0  0  0  0
  -25.5680  -25.6677   20.1036 C   0  0  1  0  0  0  0  0  0  0  0  0
  -27.5968  -14.3488   20.2756 C   0  0  2  0  0  0  0  0  0  0  0  0
  -24.6406  -16.4580   15.8845 C   0  0  0  0  0  0  0  0  0  0  0  0
  -26.2284  -20.1904   12.9417 C   0  0  0  0  0  0  0  0  0  0  0  0
  -31.9362  -21.4215   18.9124 C   0  0  0  0  0  0  0  0  0  0  0  0
  -29.0073  -27.1679   17.4054 C   0  0  0  0  0  0  0  0  0  0  0  0
  -30.8411  -25.5179   16.9779 C   0  0  0  0  0  0  0  0  0  0  0  0
  -30.6557  -26.6244   19.2059 C   0  0  0  0  0  0  0  0  0  0  0  0
  -28.5900  -20.1778   20.2285 C   0  0  0  0  0  0  0  0  0  0  0  0
  -26.7950  -17.6923   14.3290 C   0  0  0  0  0  0  0  0  0  0  0  0
  -21.6653  -20.2329   14.5592 C   0  0  0  0  0  0  0  0  0  0  0  0
  -27.8214  -18.3950   15.2311 C   0  0  0  0  0  0  0  0  0  0  0  0
  -29.2097  -17.7595   15.1115 C   0  0  0  0  0  0  0  0  0  0  0  0
  -29.2190  -16.2898   15.5193 C   0  0  0  0  0  0  0  0  0  0  0  0
  -21.5617  -21.2229   15.7142 C   0  0  0  0  0  0  0  0  0  1  0  0
  -28.9691  -24.8568   18.5557 C   0  0  1  0  0  0  0  0  0  0  0  0
  -30.5542  -21.5550   19.5330 C   0  0  2  0  0  0  0  0  0  0  0  0
  -29.8410  -26.0339   18.0345 C   0  0  0  0  0  0  0  0  0  0  0  0
  -25.3625  -15.1482   20.9471 N   0  0  0  0  0  0  0  0  0  0  0  0
  -23.9729  -20.1377   13.7863 N   0  0  0  0  0  0  0  0  0  0  0  0
  -26.1455  -14.0994   20.6423 N   0  0  0  0  0  0  0  0  0  0  0  0
  -26.6053  -25.0802   19.2534 N   0  0  0  0  0  0  0  0  0  0  0  0
  -29.2072  -15.8922   19.2207 N   0  0  0  0  0  0  0  0  0  0  0  0
  -26.1445  -11.7404   20.4285 N   0  0  0  0  0  0  0  0  0  0  0  0
  -21.8995  -12.6776   21.6522 N   0  0  0  0  0  0  0  0  0  0  0  0
  -24.8087  -27.9489   20.3813 N   0  0  0  0  0  0  0  0  0  0  0  0
  -29.7301  -23.7806   19.1810 N   0  0  0  0  0  0  0  0  0  0  0  0
  -28.8218  -16.0966   16.8962 N   0  0  0  0  0  0  0  0  0  0  0  0
  -29.9433  -20.1983   19.6160 N   0  3  0  0  0  0  0  0  0  0  0  0
  -23.3551  -10.9856   21.1258 O   0  0  0  0  0  0  0  0  0  0  0  0
  -25.1958  -27.0864   18.2533 O   0  0  0  0  0  0  0  0  0  0  0  0
  -28.3362  -25.8238   20.6271 O   0  0  0  0  0  0  0  0  0  0  0  0
  -28.9975  -22.0957   17.7662 O   0  0  0  0  0  0  0  0  0  0  0  0
  -30.9486  -16.2668   17.7357 O   0  0  0  0  0  0  0  0  0  0  0  0
  -19.8064  -17.7392   22.6694 O   0  0  0  0  0  0  0  0  0  0  0  0
  -22.5548  -22.2376   15.5702 O   0  0  0  0  0  0  0  0  0  1  0  0
  -18.8644  -22.3162   19.7424 F   0  0  0  0  0  0  0  0  0  0  0  0
  -21.7036  -19.7447   22.5230 F   0  0  0  0  0  0  0  0  0  0  0  0
  1  2  1  0  0  0  0
  1  5  2  0  0  0  0
  2  6  2  0  0  0  0
  3  8  2  0  0  0  0
  3 16  1  0  0  0  0
  4  9  1  0  0  0  0
  4 16  2  0  0  0  0
  5 18  1  0  0  0  0
  6 20  1  0  0  0  0
  7 10  2  0  0  0  0
  7 19  1  0  0  0  0
  8 24  1  0  0  0  0
  9 24  2  0  0  0  0
 10 25  1  0  0  0  0
 11 12  2  0  0  0  0
 11 26  1  0  0  0  0
 12 27  1  0  0  0  0
 13 21  1  0  0  0  0
 13 25  2  0  0  0  0
 14 22  2  0  0  0  0
 14 30  1  0  0  0  0
 15 27  2  0  0  0  0
 15 28  1  0  0  0  0
 16 29  1  0  0  0  0
 17 29  1  0  0  0  0
 17 32  2  0  0  0  0
 17 33  1  0  0  0  0
 18 20  2  0  0  0  0
 18 38  1  0  0  0  0
 19 21  2  0  0  0  0
 19 39  1  0  0  0  0
 20 47  1  0  0  0  0
 21 40  1  0  0  0  0
 22 23  1  0  0  0  0
 22 50  1  0  0  0  0
 23 31  2  0  0  0  0
 23 57  1  0  0  0  0
 24 82  1  0  0  0  0
 25 83  1  0  0  0  0
 26 28  2  0  0  0  0
 26 82  1  0  0  0  0
 27 84  1  0  0  0  0
 28 85  1  0  0  0  0
 29 66  2  0  0  0  0
 30 58  1  0  0  0  0
 30 67  2  0  0  0  0
 31 51  1  0  0  0  0
 31 67  1  0  0  0  0
 32 68  1  0  0  0  0
 32 71  1  0  0  0  0
 33 72  1  0  0  0  0
 33 77  2  0  0  0  0
 34 48  1  0  0  0  0
 34 73  1  0  0  0  0
 34 78  2  0  0  0  0
 35 63  1  0  0  0  0
 35 69  1  0  0  0  0
 35 79  2  0  0  0  0
 36 64  1  0  0  0  0
 36 74  1  0  0  0  0
 36 80  2  0  0  0  0
 37 70  1  0  0  0  0
 37 75  1  0  0  0  0
 37 81  2  0  0  0  0
 38 41  1  0  0  0  0
 39 48  1  0  0  0  0
 40 69  1  0  0  0  0
 41 43  1  0  0  0  0
 42 44  1  0  0  0  0
 42 45  1  0  0  0  0
 43 47  1  0  0  0  0
 44 49  1  0  0  0  0
 45 70  1  0  0  0  0
 46 49  1  0  0  0  0
 46 70  1  0  0  0  0
 47 73  1  0  0  0  0
 48 69  1  0  0  0  0
 49 68  1  0  0  0  0
 52 64  1  0  0  0  0
 53 65  1  0  0  0  0
 54 65  1  0  0  0  0
 55 65  1  0  0  0  0
 56 76  1  0  0  0  0
 57 59  1  0  0  0  0
 58 62  1  0  0  0  0
 59 60  1  0  0  0  0
 60 61  1  0  0  0  0
 61 75  1  0  0  0  0
 62 83  1  0  0  0  0
 63 65  1  0  0  0  0
 63 74  1  0  0  0  0
 64 76  1  0  0  0  0
 66 68  1  0  0  0  0
M  CHG  1  76   1
M  ISO  4  37 100  62 101  75 100  83 101
M  END
> <Batch ID>
0040

> <Smiles>
CNC(C)C(=O)NC(C(=O)N1Cc2cc([101O:1][101CH2:1]Cc3cc(C)c(CCCC[100NH:0][100C:0](=O)N4CCCC(n5nc(-c6ccc(Oc7ccc(F)cc7F)cc6)c(C(N)=O)c5N)C4)c(C)n3)ccc2CC1C(=O)NC1CCCc2ccccc21)C(C)(C)C

> <Shape>
0.200

> <Color>
0.079

> <Negative vol penalty>
0.000

$$$$

  -OEChem-04052317073D

 83 91  0     1  0  0  0  0  0999 V2000
  -27.7419  -23.6099   18.2575 C   0  0  0  0  0  0  0  0  0  0  0  0
  -26.5580  -23.9984   18.8763 C   0  0  0  0  0  0  0  0  0  0  0  0
  -27.1495  -16.6735   21.8959 C   0  0  0  0  0  0  0  0  0  0  0  0
  -25.4178  -18.0670   20.9491 C   0  0  0  0  0  0  0  0  0  0  0  0
  -28.9601  -24.1227   18.7012 C   0  0  0  0  0  0  0  0  0  0  0  0
  -26.5918  -24.8993   19.9401 C   0  0  0  0  0  0  0  0  0  0  0  0
  -23.0464  -28.4946   19.5545 C   0  0  0  0  0  0  0  0  0  0  0  0
  -26.5235  -15.5413   21.3746 C   0  0  0  0  0  0  0  0  0  0  0  0
  -24.7918  -16.9348   20.4278 C   0  0  0  0  0  0  0  0  0  0  0  0
  -21.7429  -28.1434   19.9027 C   0  0  0  0  0  0  0  0  0  0  0  0
  -25.5759  -12.3177   19.9870 C   0  0  0  0  0  0  0  0  0  0  0  0
  -26.3770  -11.3673   19.3541 C   0  0  0  0  0  0  0  0  0  0  0  0
  -22.0429  -29.1891   22.0558 C   0  0  0  0  0  0  0  0  0  0  0  0
  -27.0838  -13.0306   17.7507 C   0  0  0  0  0  0  0  0  0  0  0  0
  -21.9288  -23.7658   23.2856 C   0  0  0  0  0  0  0  0  0  0  0  0
  -26.5967  -17.9364   21.6831 C   0  0  0  0  0  0  0  0  0  0  0  0
  -28.2228  -19.9000   21.5965 C   0  0  0  0  0  0  0  0  0  0  0  0
  -29.0080  -25.0378   19.7647 C   0  0  0  0  0  0  0  0  0  0  0  0
  -23.8630  -29.1873   20.4599 C   0  0  0  0  0  0  0  0  0  0  0  0
  -27.8119  -25.4239   20.3994 C   0  0  0  0  0  0  0  0  0  0  0  0
  -23.3555  -29.5502   21.7156 C   0  0  0  0  0  0  0  0  0  0  0  0
  -25.3446  -15.6719   20.6406 C   0  0  0  0  0  0  0  0  0  0  0  0
  -21.2419  -28.4881   21.1546 C   0  0  0  0  0  0  0  0  0  0  0  0
  -25.5288  -13.6246   19.5017 C   0  0  0  0  0  0  0  0  0  0  0  0
  -27.1309  -11.7237   18.2360 C   0  0  0  0  0  0  0  0  0  0  0  0
  -26.2827  -13.9811   18.3836 C   0  0  0  0  0  0  0  0  0  0  0  0
  -27.2426  -19.1063   22.2218 C   0  0  0  0  0  0  0  0  0  0  0  0
  -21.1592  -23.8810   24.4588 C   0  0  0  0  0  0  0  0  0  0  0  0
  -21.1745  -24.3834   22.3182 C   0  0  0  0  0  0  0  0  0  0  0  0
  -28.5082  -20.8803   22.5152 C   0  0  0  0  0  0  0  0  0  0  0  0
  -28.8218  -19.7634   20.3010 C   0  0  0  0  0  0  0  0  0  0  0  0
  -26.6142  -28.5682   21.9264 C   0  0  0  0  0  0  0  0  0  0  0  0
  -26.3200  -31.6378   22.9329 C   0  0  0  0  0  0  0  0  0  0  0  0
  -24.2722  -34.2875   23.5907 C   0  0  0  0  0  0  0  0  0  0  0  0
  -25.3845  -23.2728   27.0285 C   0  0  0  0  0  0  0  0  0  0  0  0
  -30.3525  -25.5286   20.2401 C   0  0  0  0  0  0  0  0  0  0  0  0
  -25.2578  -29.5823   20.0589 C   0  0  0  0  0  0  0  0  0  0  0  0
  -24.1846  -30.3117   22.7162 C   0  0  0  0  0  0  0  0  0  0  0  0
  -30.2694  -26.7664   21.1296 C   0  0  0  0  0  0  0  0  0  0  0  0
  -28.5677  -21.6907   27.2302 C   0  0  0  0  0  0  0  0  0  0  0  0
  -29.1846  -26.5916   22.1876 C   0  0  0  0  0  0  0  0  0  0  0  0
  -28.6775  -20.9205   25.9130 C   0  0  0  0  0  0  0  0  0  0  0  0
  -27.1386  -21.6877   27.7682 C   0  0  0  0  0  0  0  0  0  0  0  0
  -26.2268  -21.3901   25.4980 C   0  0  0  0  0  0  0  0  0  0  0  0
  -27.8054  -26.4181   21.5403 C   0  0  1  0  0  0  0  0  0  0  0  0
  -26.1732  -29.8367   21.2525 C   0  0  1  0  0  0  0  0  0  0  0  0
  -27.6386  -21.4126   24.8875 C   0  0  2  0  0  0  0  0  0  0  0  0
  -21.4278  -24.5956   20.8813 C   0  0  0  0  0  0  0  0  0  0  0  0
  -24.3170  -36.6489   24.4386 C   0  0  0  0  0  0  0  0  0  0  0  0
  -26.6708  -30.6054   25.7826 C   0  0  0  0  0  0  0  0  0  0  0  0
  -25.7737  -32.7912   26.6107 C   0  0  0  0  0  0  0  0  0  0  0  0
  -27.8872  -32.7336   25.2869 C   0  0  0  0  0  0  0  0  0  0  0  0
  -23.1876  -35.3440   21.0478 C   0  0  0  0  0  0  0  0  0  0  0  0
  -21.4946  -23.3852   25.8043 C   0  0  0  0  0  0  0  0  0  0  0  0
  -22.2704  -24.3850   26.6982 C   0  0  0  0  0  0  0  0  0  0  0  0
  -18.5790  -26.8945   22.9991 C   0  0  0  0  0  0  0  0  0  0  0  0
  -18.8879  -25.5567   22.3233 C   0  0  0  0  0  0  0  0  0  0  0  0
  -23.6330  -24.7902   26.1402 C   0  0  0  0  0  0  0  0  0  0  0  0
  -19.7122  -27.9070   22.8804 C   0  0  0  0  0  0  0  0  0  1  0  0
  -25.6828  -32.3169   24.1211 C   0  0  1  0  0  0  0  0  0  0  0  0
  -24.3686  -35.7539   23.2102 C   0  0  2  0  0  0  0  0  0  0  0  0
  -26.4884  -32.0957   25.4324 C   0  0  0  0  0  0  0  0  0  0  0  0
  -26.9266  -19.5445   23.4434 N   0  0  0  0  0  0  0  0  0  0  0  0
  -20.0047  -24.5216   24.2573 N   0  0  0  0  0  0  0  0  0  0  0  0
  -20.0432  -24.8146   22.9462 N   0  0  0  0  0  0  0  0  0  0  0  0
  -27.7128  -20.6240   23.5931 N   0  0  0  0  0  0  0  0  0  0  0  0
  -25.5444  -30.6695   22.2797 N   0  0  0  0  0  0  0  0  0  0  0  0
  -26.2032  -22.1666   26.7475 N   0  0  0  0  0  0  0  0  0  0  0  0
  -29.3595  -21.9279   22.4981 N   0  0  0  0  0  0  0  0  0  0  0  0
  -28.4133  -18.6998   19.4849 N   0  0  0  0  0  0  0  0  0  0  0  0
  -27.2914  -27.6959   21.0958 N   0  0  0  0  0  0  0  0  0  0  0  0
  -25.5178  -33.7183   23.7504 N   0  0  0  0  0  0  0  0  0  0  0  0
  -24.5315  -23.6654   26.0043 N   0  0  0  0  0  0  0  0  0  0  0  0
  -23.2441  -36.1297   22.3073 N   0  3  0  0  0  0  0  0  0  0  0  0
  -29.7054  -20.5513   19.8862 O   0  0  0  0  0  0  0  0  0  0  0  0
  -26.3603  -28.3944   23.1126 O   0  0  0  0  0  0  0  0  0  0  0  0
  -27.4610  -31.9599   22.5924 O   0  0  0  0  0  0  0  0  0  0  0  0
  -23.1991  -33.7061   23.7357 O   0  0  0  0  0  0  0  0  0  0  0  0
  -25.4155  -23.8699   28.1099 O   0  0  0  0  0  0  0  0  0  0  0  0
  -24.7336  -14.5673   20.1316 O   0  0  0  0  0  0  0  0  0  0  0  0
  -19.9702  -28.1459   21.4974 O   0  0  0  0  0  0  0  0  0  1  0  0
  -27.9013  -10.8112   17.6293 F   0  0  0  0  0  0  0  0  0  0  0  0
  -26.2424  -15.2353   17.9135 F   0  0  0  0  0  0  0  0  0  0  0  0
  1  2  1  0  0  0  0
  1  5  2  0  0  0  0
  2  6  2  0  0  0  0
  3  8  2  0  0  0  0
  3 16  1  0  0  0  0
  4  9  1  0  0  0  0
  4 16  2  0  0  0  0
  5 18  1  0  0  0  0
  6 20  1  0  0  0  0
  7 10  2  0  0  0  0
  7 19  1  0  0  0  0
  8 22  1  0  0  0  0
  9 22  2  0  0  0  0
 10 23  1  0  0  0  0
 11 12  2  0  0  0  0
 11 24  1  0  0  0  0
 12 25  1  0  0  0  0
 13 21  1  0  0  0  0
 13 23  2  0  0  0  0
 14 25  2  0  0  0  0
 14 26  1  0  0  0  0
 15 28  1  0  0  0  0
 15 29  2  0  0  0  0
 16 27  1  0  0  0  0
 17 27  1  0  0  0  0
 17 30  2  0  0  0  0
 17 31  1  0  0  0  0
 18 20  2  0  0  0  0
 18 36  1  0  0  0  0
 19 21  2  0  0  0  0
 19 37  1  0  0  0  0
 20 45  1  0  0  0  0
 21 38  1  0  0  0  0
 22 80  1  0  0  0  0
 23 81  1  0  0  0  0
 24 26  2  0  0  0  0
 24 80  1  0  0  0  0
 25 82  1  0  0  0  0
 26 83  1  0  0  0  0
 27 63  2  0  0  0  0
 28 54  1  0  0  0  0
 28 64  2  0  0  0  0
 29 48  1  0  0  0  0
 29 65  1  0  0  0  0
 30 66  1  0  0  0  0
 30 69  1  0  0  0  0
 31 70  1  0  0  0  0
 31 75  2  0  0  0  0
 32 46  1  0  0  0  0
 32 71  1  0  0  0  0
 32 76  2  0  0  0  0
 33 60  1  0  0  0  0
 33 67  1  0  0  0  0
 33 77  2  0  0  0  0
 34 61  1  0  0  0  0
 34 72  1  0  0  0  0
 34 78  2  0  0  0  0
 35 68  1  0  0  0  0
 35 73  1  0  0  0  0
 35 79  2  0  0  0  0
 36 39  1  0  0  0  0
 37 46  1  0  0  0  0
 38 67  1  0  0  0  0
 39 41  1  0  0  0  0
 40 42  1  0  0  0  0
 40 43  1  0  0  0  0
 41 45  1  0  0  0  0
 42 47  1  0  0  0  0
 43 68  1  0  0  0  0
 44 47  1  0  0  0  0
 44 68  1  0  0  0  0
 45 71  1  0  0  0  0
 46 67  1  0  0  0  0
 47 66  1  0  0  0  0
 49 61  1  0  0  0  0
 50 62  1  0  0  0  0
 51 62  1  0  0  0  0
 52 62  1  0  0  0  0
 53 74  1  0  0  0  0
 54 55  1  0  0  0  0
 55 58  1  0  0  0  0
 56 57  1  0  0  0  0
 56 59  1  0  0  0  0
 57 65  1  0  0  0  0
 58 73  1  0  0  0  0
 59 81  1  0  0  0  0
 60 62  1  0  0  0  0
 60 72  1  0  0  0  0
 61 74  1  0  0  0  0
 63 66  1  0  0  0  0
 64 65  1  0  0  0  0
M  CHG  1  74   1
M  ISO  4  35 100  59 101  73 100  81 101
M  END
> <Batch ID>
0040

> <Smiles>
CNC(C)C(=O)NC(C(=O)N1Cc2cc([101O:1][101CH2:1]CCn3nc(CCC[100NH:0][100C:0](=O)N4CCCC(n5nc(-c6ccc(Oc7ccc(F)cc7F)cc6)c(C(N)=O)c5N)C4)cc3C)ccc2CC1C(=O)NC1CCCc2ccccc21)C(C)(C)C

> <Shape>
0.262

> <Color>
0.068

> <Negative vol penalty>
0.000

$$$$

  -OEChem-04052317073D

 92100  0     1  0  0  0  0  0999 V2000
  -31.7298  -37.8343   25.8121 C   0  0  0  0  0  0  0  0  0  0  0  0
  -31.0533  -36.6841   26.2055 C   0  0  0  0  0  0  0  0  0  0  0  0
  -23.4331   -9.7234   20.0557 C   0  0  0  0  0  0  0  0  0  0  0  0
  -23.7773  -10.0861   22.4194 C   0  0  0  0  0  0  0  0  0  0  0  0
  -31.3378  -38.5121   24.6585 C   0  0  0  0  0  0  0  0  0  0  0  0
  -29.9836  -36.2115   25.4460 C   0  0  0  0  0  0  0  0  0  0  0  0
  -28.4260  -30.3615   24.5206 C   0  0  0  0  0  0  0  0  0  0  0  0
  -22.7570   -8.5361   20.3363 C   0  0  0  0  0  0  0  0  0  0  0  0
  -23.1011   -8.8988   22.7000 C   0  0  0  0  0  0  0  0  0  0  0  0
  -27.4703  -29.5397   25.1166 C   0  0  0  0  0  0  0  0  0  0  0  0
  -19.8963   -7.8406   22.8735 C   0  0  0  0  0  0  0  0  0  0  0  0
  -18.9526   -7.8612   23.9003 C   0  0  0  0  0  0  0  0  0  0  0  0
  -25.9314  -30.0428   23.3284 C   0  0  0  0  0  0  0  0  0  0  0  0
  -20.2051   -6.1691   25.0855 C   0  0  0  0  0  0  0  0  0  0  0  0
  -23.4145  -27.6244   27.3621 C   0  0  0  0  0  0  0  0  0  0  0  0
  -23.9433  -10.4984   21.0972 C   0  0  0  0  0  0  0  0  0  0  0  0
  -24.0866  -13.0129   20.6914 C   0  0  0  0  0  0  0  0  0  0  0  0
  -30.2689  -38.0422   23.8792 C   0  0  0  0  0  0  0  0  0  0  0  0
  -28.1372  -31.0398   23.3278 C   0  0  0  0  0  0  0  0  0  0  0  0
  -29.5761  -36.8844   24.2816 C   0  0  0  0  0  0  0  0  0  0  0  0
  -26.8860  -30.8705   22.7179 C   0  0  0  0  0  0  0  0  0  0  0  0
  -22.5909   -8.1238   21.6585 C   0  0  0  0  0  0  0  0  0  0  0  0
  -26.2218  -29.3825   24.5220 C   0  0  0  0  0  0  0  0  0  0  0  0
  -20.9945   -6.9842   22.9526 C   0  0  0  0  0  0  0  0  0  0  0  0
  -19.1070   -7.0255   25.0064 C   0  0  0  0  0  0  0  0  0  0  0  0
  -21.1489   -6.1484   24.0586 C   0  0  0  0  0  0  0  0  0  0  0  0
  -24.6423  -11.7247   20.8080 C   0  0  0  0  0  0  0  0  0  0  0  0
  -24.5352  -27.0678   26.7862 C   0  0  0  0  0  0  0  0  0  0  0  0
  -22.5175  -25.5384   27.6331 C   0  0  0  0  0  0  0  0  0  0  0  0
  -23.6378  -24.9817   27.0565 C   0  0  0  0  0  0  0  0  0  0  0  0
  -25.1583  -13.8251   20.4116 C   0  0  0  0  0  0  0  0  0  0  0  0
  -22.7236  -13.4373   20.8243 C   0  0  0  0  0  0  0  0  0  0  0  0
  -27.9653  -34.0957   22.4701 C   0  0  0  0  0  0  0  0  0  0  0  0
  -27.5597  -32.8377   19.5078 C   0  0  0  0  0  0  0  0  0  0  0  0
  -26.5919  -30.1818   17.5957 C   0  0  0  0  0  0  0  0  0  0  0  0
  -31.0242  -13.3623   21.5196 C   0  0  0  0  0  0  0  0  0  0  0  0
  -29.8513  -38.8351   22.6661 C   0  0  0  0  0  0  0  0  0  0  0  0
  -29.1883  -31.9015   22.6834 C   0  0  0  0  0  0  0  0  0  0  0  0
  -26.5334  -31.5606   21.4265 C   0  0  0  0  0  0  0  0  0  0  0  0
  -28.9471  -38.0585   21.7124 C   0  0  0  0  0  0  0  0  0  0  0  0
  -29.4704  -13.7539   18.3401 C   0  0  0  0  0  0  0  0  0  0  0  0
  -27.8419  -37.3463   22.4858 C   0  0  0  0  0  0  0  0  0  0  0  0
  -28.0067  -13.3945   18.6015 C   0  0  0  0  0  0  0  0  0  0  0  0
  -30.4202  -12.8877   19.1645 C   0  0  0  0  0  0  0  0  0  0  0  0
  -28.6853  -12.5189   20.8756 C   0  0  0  0  0  0  0  0  0  0  0  0
  -28.4266  -36.3266   23.4706 C   0  0  1  0  0  0  0  0  0  0  0  0
  -28.6059  -32.9494   21.7400 C   0  0  1  0  0  0  0  0  0  0  0  0
  -27.6876  -13.4036   20.1086 C   0  0  2  0  0  0  0  0  0  0  0  0
  -20.2100  -23.6997   30.1230 C   0  0  0  0  0  0  0  0  0  0  0  0
  -26.3369  -29.4651   15.2043 C   0  0  0  0  0  0  0  0  0  0  0  0
  -25.0265  -34.5226   19.2756 C   0  0  0  0  0  0  0  0  0  0  0  0
  -24.3332  -33.0884   17.3442 C   0  0  0  0  0  0  0  0  0  0  0  0
  -26.4216  -34.4451   17.2015 C   0  0  0  0  0  0  0  0  0  0  0  0
  -28.5341  -27.9737   17.9290 C   0  0  0  0  0  0  0  0  0  0  0  0
  -21.3861  -24.6924   28.1086 C   0  0  0  0  0  0  0  0  0  0  0  0
  -23.7722  -23.4902   26.8794 C   0  0  0  0  0  0  0  0  0  0  0  0
  -25.6532  -27.9326   26.3193 C   0  0  0  0  0  0  0  0  0  1  0  0
  -21.3843  -24.5343   29.6370 C   0  0  0  0  0  0  0  0  0  0  0  0
  -25.1811  -23.0385   26.4787 C   0  0  0  0  0  0  0  0  0  0  0  0
  -25.3001  -21.5199   26.3166 C   0  0  0  0  0  0  0  0  0  0  0  0
  -26.7281  -21.1124   25.9472 C   0  0  0  0  0  0  0  0  0  0  0  0
  -26.8417  -19.5994   25.7530 C   0  0  0  0  0  0  0  0  0  0  0  0
  -28.2617  -19.1950   25.3506 C   0  0  0  0  0  0  0  0  0  0  0  0
  -28.3817  -17.6779   25.1933 C   0  0  0  0  0  0  0  0  0  0  0  0
  -29.7831  -17.2159   24.7829 C   0  0  0  0  0  0  0  0  0  0  0  0
  -29.9494  -15.7112   24.5500 C   0  0  0  0  0  0  0  0  0  0  0  0
  -31.3731  -15.3076   24.1652 C   0  0  0  0  0  0  0  0  0  0  0  0
  -31.4741  -13.8068   23.9194 C   0  0  0  0  0  0  0  0  0  0  0  0
  -26.3717  -32.3992   18.6860 C   0  0  1  0  0  0  0  0  0  0  0  0
  -27.2557  -29.4951   16.4158 C   0  0  2  0  0  0  0  0  0  0  0  0
  -25.5439  -33.6022   18.1522 C   0  0  0  0  0  0  0  0  0  0  0  0
  -22.3855  -26.8698   27.7959 N   0  0  0  0  0  0  0  0  0  0  0  0
  -25.9643  -11.7143   20.6176 N   0  0  0  0  0  0  0  0  0  0  0  0
  -24.6670  -25.7364   26.6231 N   0  0  0  0  0  0  0  0  0  0  0  0
  -26.2482  -13.0059   20.3785 N   0  0  0  0  0  0  0  0  0  0  0  0
  -27.5924  -32.3975   20.8386 N   0  0  0  0  0  0  0  0  0  0  0  0
  -30.0643  -12.9414   20.5845 N   0  0  0  0  0  0  0  0  0  0  0  0
  -25.2651  -15.1530   20.1930 N   0  0  0  0  0  0  0  0  0  0  0  0
  -21.7486  -12.4728   21.1135 N   0  0  0  0  0  0  0  0  0  0  0  0
  -28.8346  -35.1264   22.7725 N   0  0  0  0  0  0  0  0  0  0  0  0
  -26.8973  -31.5256   17.6425 N   0  0  0  0  0  0  0  0  0  0  0  0
  -30.6027  -13.3902   22.8433 N   0  0  0  0  0  0  0  0  0  0  0  0
  -27.6150  -28.0922   16.7679 N   0  3  0  0  0  0  0  0  0  0  0  0
  -22.3780  -14.6338   20.6743 O   0  0  0  0  0  0  0  0  0  0  0  0
  -26.7704  -34.0493   22.7380 O   0  0  0  0  0  0  0  0  0  0  0  0
  -28.4302  -33.5389   18.9862 O   0  0  0  0  0  0  0  0  0  0  0  0
  -25.8713  -29.5864   18.3938 O   0  0  0  0  0  0  0  0  0  0  0  0
  -32.1702  -13.6941   21.1979 O   0  0  0  0  0  0  0  0  0  0  0  0
  -21.9310   -6.9654   21.9327 O   0  0  0  0  0  0  0  0  0  0  0  0
  -25.2808  -28.5763   25.1058 O   0  0  0  0  0  0  0  0  0  1  0  0
  -18.2014   -7.0465   25.9931 F   0  0  0  0  0  0  0  0  0  0  0  0
  -22.2025   -5.3244   24.1408 F   0  0  0  0  0  0  0  0  0  0  0  0
  1  2  1  0  0  0  0
  1  5  2  0  0  0  0
  2  6  2  0  0  0  0
  3  8  2  0  0  0  0
  3 16  1  0  0  0  0
  4  9  1  0  0  0  0
  4 16  2  0  0  0  0
  5 18  1  0  0  0  0
  6 20  1  0  0  0  0
  7 10  2  0  0  0  0
  7 19  1  0  0  0  0
  8 22  1  0  0  0  0
  9 22  2  0  0  0  0
 10 23  1  0  0  0  0
 11 12  2  0  0  0  0
 11 24  1  0  0  0  0
 12 25  1  0  0  0  0
 13 21  1  0  0  0  0
 13 23  2  0  0  0  0
 14 25  2  0  0  0  0
 14 26  1  0  0  0  0
 15 28  1  0  0  0  0
 15 72  2  0  0  0  0
 16 27  1  0  0  0  0
 17 27  1  0  0  0  0
 17 31  2  0  0  0  0
 17 32  1  0  0  0  0
 18 20  2  0  0  0  0
 18 37  1  0  0  0  0
 19 21  2  0  0  0  0
 19 38  1  0  0  0  0
 20 46  1  0  0  0  0
 21 39  1  0  0  0  0
 22 89  1  0  0  0  0
 23 90  1  0  0  0  0
 24 26  2  0  0  0  0
 24 89  1  0  0  0  0
 25 91  1  0  0  0  0
 26 92  1  0  0  0  0
 27 73  2  0  0  0  0
 28 57  1  0  0  0  0
 28 74  2  0  0  0  0
 29 30  2  0  0  0  0
 29 55  1  0  0  0  0
 29 72  1  0  0  0  0
 30 56  1  0  0  0  0
 30 74  1  0  0  0  0
 31 75  1  0  0  0  0
 31 78  1  0  0  0  0
 32 79  1  0  0  0  0
 32 84  2  0  0  0  0
 33 47  1  0  0  0  0
 33 80  1  0  0  0  0
 33 85  2  0  0  0  0
 34 69  1  0  0  0  0
 34 76  1  0  0  0  0
 34 86  2  0  0  0  0
 35 70  1  0  0  0  0
 35 81  1  0  0  0  0
 35 87  2  0  0  0  0
 36 77  1  0  0  0  0
 36 82  1  0  0  0  0
 36 88  2  0  0  0  0
 37 40  1  0  0  0  0
 38 47  1  0  0  0  0
 39 76  1  0  0  0  0
 40 42  1  0  0  0  0
 41 43  1  0  0  0  0
 41 44  1  0  0  0  0
 42 46  1  0  0  0  0
 43 48  1  0  0  0  0
 44 77  1  0  0  0  0
 45 48  1  0  0  0  0
 45 77  1  0  0  0  0
 46 80  1  0  0  0  0
 47 76  1  0  0  0  0
 48 75  1  0  0  0  0
 49 58  1  0  0  0  0
 50 70  1  0  0  0  0
 51 71  1  0  0  0  0
 52 71  1  0  0  0  0
 53 71  1  0  0  0  0
 54 83  1  0  0  0  0
 55 58  1  0  0  0  0
 56 59  1  0  0  0  0
 57 90  1  0  0  0  0
 59 60  1  0  0  0  0
 60 61  1  0  0  0  0
 61 62  1  0  0  0  0
 62 63  1  0  0  0  0
 63 64  1  0  0  0  0
 64 65  1  0  0  0  0
 65 66  1  0  0  0  0
 66 67  1  0  0  0  0
 67 68  1  0  0  0  0
 68 82  1  0  0  0  0
 69 71  1  0  0  0  0
 69 81  1  0  0  0  0
 70 83  1  0  0  0  0
 73 75  1  0  0  0  0
M  CHG  1  83   1
M  ISO  4  36 100  57 101  82 100  90 101
M  END
> <Batch ID>
0040

> <Smiles>
CCCc1ncc([101CH2:1][101O:1]c2ccc3c(c2)CN(C(=O)C(NC(=O)C(C)NC)C(C)(C)C)C(C(=O)NC2CCCc4ccccc42)C3)nc1CCCCCCCCCCC[100NH:0][100C:0](=O)N1CCCC(n2nc(-c3ccc(Oc4ccc(F)cc4F)cc3)c(C(N)=O)c2N)C1

> <Shape>
0.189

> <Color>
0.170

> <Negative vol penalty>
0.000

$$$$

  -OEChem-04052317073D

 85 93  0     1  0  0  0  0  0999 V2000
  -29.0674  -34.6796   20.8148 C   0  0  0  0  0  0  0  0  0  0  0  0
  -29.3879  -33.3268   20.7641 C   0  0  0  0  0  0  0  0  0  0  0  0
  -22.7707  -10.3953   19.9187 C   0  0  0  0  0  0  0  0  0  0  0  0
  -23.8010   -9.7677   22.0120 C   0  0  0  0  0  0  0  0  0  0  0  0
  -27.7827  -35.0771   21.1832 C   0  0  0  0  0  0  0  0  0  0  0  0
  -28.4243  -32.3707   21.0828 C   0  0  0  0  0  0  0  0  0  0  0  0
  -27.7674  -26.8254   18.5678 C   0  0  0  0  0  0  0  0  0  0  0  0
  -21.9164   -9.2965   20.0097 C   0  0  0  0  0  0  0  0  0  0  0  0
  -22.9467   -8.6688   22.1030 C   0  0  0  0  0  0  0  0  0  0  0  0
  -28.1695  -25.5554   18.9790 C   0  0  0  0  0  0  0  0  0  0  0  0
  -22.7221   -5.5706   20.7684 C   0  0  0  0  0  0  0  0  0  0  0  0
  -23.2792   -4.3450   21.1333 C   0  0  0  0  0  0  0  0  0  0  0  0
  -25.9866  -25.1804   19.9349 C   0  0  0  0  0  0  0  0  0  0  0  0
  -29.2595  -20.6536   19.3470 C   0  0  0  0  0  0  0  0  0  0  0  0
  -21.8390   -4.2674   23.0716 C   0  0  0  0  0  0  0  0  0  0  0  0
  -23.7131  -10.6309   20.9198 C   0  0  0  0  0  0  0  0  0  0  0  0
  -24.3706  -13.0620   21.3262 C   0  0  0  0  0  0  0  0  0  0  0  0
  -26.8001  -34.1250   21.4972 C   0  0  0  0  0  0  0  0  0  0  0  0
  -26.4732  -27.2875   18.8471 C   0  0  0  0  0  0  0  0  0  0  0  0
  -27.1257  -32.7558   21.4570 C   0  0  0  0  0  0  0  0  0  0  0  0
  -25.5698  -26.4557   19.5239 C   0  0  0  0  0  0  0  0  0  0  0  0
  -29.4708  -19.3715   19.8419 C   0  0  0  0  0  0  0  0  0  0  0  0
  -29.6456  -19.1797   21.2079 C   0  0  0  0  0  0  0  0  0  0  0  0
  -22.0044   -8.4333   21.1018 C   0  0  0  0  0  0  0  0  0  0  0  0
  -27.2800  -24.7338   19.6652 C   0  0  0  0  0  0  0  0  0  0  0  0
  -21.7234   -6.1446   21.5551 C   0  0  0  0  0  0  0  0  0  0  0  0
  -22.8377   -3.6934   22.2849 C   0  0  0  0  0  0  0  0  0  0  0  0
  -21.2819   -5.4930   22.7067 C   0  0  0  0  0  0  0  0  0  0  0  0
  -24.5962  -11.7656   20.8261 C   0  0  0  0  0  0  0  0  0  0  0  0
  -29.2321  -21.7020   20.2525 C   0  0  0  0  0  0  0  0  0  0  0  0
  -29.6011  -20.2941   22.0301 C   0  0  0  0  0  0  0  0  0  0  0  0
  -25.4997  -13.7642   20.9819 C   0  0  0  0  0  0  0  0  0  0  0  0
  -23.2413  -13.5849   22.0383 C   0  0  0  0  0  0  0  0  0  0  0  0
  -25.2670  -29.7003   20.5285 C   0  0  0  0  0  0  0  0  0  0  0  0
  -22.4646  -28.6728   19.2585 C   0  0  0  0  0  0  0  0  0  0  0  0
  -20.6692  -26.1125   17.8917 C   0  0  0  0  0  0  0  0  0  0  0  0
  -31.0514  -14.1524   20.5661 C   0  0  0  0  0  0  0  0  0  0  0  0
  -25.4389  -34.6042   21.9357 C   0  0  0  0  0  0  0  0  0  0  0  0
  -26.0464  -28.6497   18.3733 C   0  0  0  0  0  0  0  0  0  0  0  0
  -24.1627  -26.8968   19.8306 C   0  0  0  0  0  0  0  0  0  0  0  0
  -24.3683  -33.5168   21.8955 C   0  0  0  0  0  0  0  0  0  0  0  0
  -29.3217  -12.5469   17.9002 C   0  0  0  0  0  0  0  0  0  0  0  0
  -24.8872  -32.2327   22.5347 C   0  0  0  0  0  0  0  0  0  0  0  0
  -27.9222  -12.3021   18.4671 C   0  0  0  0  0  0  0  0  0  0  0  0
  -30.4008  -12.3758   18.9671 C   0  0  0  0  0  0  0  0  0  0  0  0
  -28.7984  -12.9339   20.7545 C   0  0  0  0  0  0  0  0  0  0  0  0
  -26.1007  -31.6879   21.7716 C   0  0  1  0  0  0  0  0  0  0  0  0
  -24.8700  -29.2154   19.1629 C   0  0  1  0  0  0  0  0  0  0  0  0
  -27.6723  -13.1497   19.7290 C   0  0  2  0  0  0  0  0  0  0  0  0
  -29.7807  -20.1511   23.5062 C   0  0  0  0  0  0  0  0  0  0  0  0
  -30.6607  -18.3384   17.8746 C   0  0  0  0  0  0  0  0  0  0  0  0
  -28.1731  -18.0328   18.1455 C   0  0  0  0  0  0  0  0  0  0  0  0
  -18.3932  -25.5657   16.9870 C   0  0  0  0  0  0  0  0  0  0  0  0
  -21.3685  -28.5399   22.1029 C   0  0  0  0  0  0  0  0  0  0  0  0
  -19.4933  -27.1233   21.2397 C   0  0  0  0  0  0  0  0  0  0  0  0
  -19.7723  -29.4599   20.4118 C   0  0  0  0  0  0  0  0  0  0  0  0
  -21.7597  -25.4681   15.2169 C   0  0  0  0  0  0  0  0  0  0  0  0
  -29.8716  -17.8155   21.7676 C   0  0  0  0  0  0  0  0  0  0  0  0
  -29.0051  -23.0991   19.7547 C   0  0  0  0  0  0  0  0  0  1  0  0
  -31.3143  -17.2946   21.6154 C   0  0  0  0  0  0  0  0  0  0  0  0
  -31.5546  -15.9194   22.2345 C   0  0  0  0  0  0  0  0  0  0  0  0
  -29.5080  -18.2228   18.8891 C   0  0  0  0  0  0  0  0  0  0  0  0
  -21.4055  -27.6786   19.6693 C   0  0  1  0  0  0  0  0  0  0  0  0
  -19.7973  -26.0436   16.6509 C   0  0  2  0  0  0  0  0  0  0  0  0
  -20.5370  -28.1926   20.8520 C   0  0  0  0  0  0  0  0  0  0  0  0
  -25.7759  -11.6483   20.2109 N   0  0  0  0  0  0  0  0  0  0  0  0
  -29.3980  -21.5547   21.5861 N   0  0  0  0  0  0  0  0  0  0  0  0
  -26.3016  -12.8801   20.3219 N   0  0  0  0  0  0  0  0  0  0  0  0
  -23.7947  -28.2396   19.3522 N   0  0  0  0  0  0  0  0  0  0  0  0
  -30.1052  -13.2075   20.1363 N   0  0  0  0  0  0  0  0  0  0  0  0
  -25.8749  -15.0454   21.1822 N   0  0  0  0  0  0  0  0  0  0  0  0
  -22.1666  -12.7270   22.3092 N   0  0  0  0  0  0  0  0  0  0  0  0
  -25.6772  -31.0195   20.5599 N   0  0  0  0  0  0  0  0  0  0  0  0
  -20.6474  -27.3676   18.4622 N   0  0  0  0  0  0  0  0  0  0  0  0
  -30.6894  -14.9035   21.6777 N   0  0  0  0  0  0  0  0  0  0  0  0
  -20.3873  -25.1053   15.6547 N   0  3  0  0  0  0  0  0  0  0  0  0
  -23.1798  -14.7818   22.4086 O   0  0  0  0  0  0  0  0  0  0  0  0
  -25.2043  -28.9347   21.4833 O   0  0  0  0  0  0  0  0  0  0  0  0
  -22.1239  -29.7902   18.8621 O   0  0  0  0  0  0  0  0  0  0  0  0
  -21.3030  -25.1482   18.3148 O   0  0  0  0  0  0  0  0  0  0  0  0
  -32.1362  -14.3184   19.9979 O   0  0  0  0  0  0  0  0  0  0  0  0
  -21.1708   -7.3610   21.1911 O   0  0  0  0  0  0  0  0  0  0  0  0
  -27.6701  -23.4939   20.0683 O   0  0  0  0  0  0  0  0  0  1  0  0
  -23.3717   -2.5158   22.6344 F   0  0  0  0  0  0  0  0  0  0  0  0
  -20.3220   -6.0390   23.4658 F   0  0  0  0  0  0  0  0  0  0  0  0
  1  2  1  0  0  0  0
  1  5  2  0  0  0  0
  2  6  2  0  0  0  0
  3  8  2  0  0  0  0
  3 16  1  0  0  0  0
  4  9  1  0  0  0  0
  4 16  2  0  0  0  0
  5 18  1  0  0  0  0
  6 20  1  0  0  0  0
  7 10  2  0  0  0  0
  7 19  1  0  0  0  0
  8 24  1  0  0  0  0
  9 24  2  0  0  0  0
 10 25  1  0  0  0  0
 11 12  2  0  0  0  0
 11 26  1  0  0  0  0
 12 27  1  0  0  0  0
 13 21  1  0  0  0  0
 13 25  2  0  0  0  0
 14 22  2  0  0  0  0
 14 30  1  0  0  0  0
 15 27  2  0  0  0  0
 15 28  1  0  0  0  0
 16 29  1  0  0  0  0
 17 29  1  0  0  0  0
 17 32  2  0  0  0  0
 17 33  1  0  0  0  0
 18 20  2  0  0  0  0
 18 38  1  0  0  0  0
 19 21  2  0  0  0  0
 19 39  1  0  0  0  0
 20 47  1  0  0  0  0
 21 40  1  0  0  0  0
 22 23  1  0  0  0  0
 22 62  1  0  0  0  0
 23 31  2  0  0  0  0
 23 58  1  0  0  0  0
 24 82  1  0  0  0  0
 25 83  1  0  0  0  0
 26 28  2  0  0  0  0
 26 82  1  0  0  0  0
 27 84  1  0  0  0  0
 28 85  1  0  0  0  0
 29 66  2  0  0  0  0
 30 59  1  0  0  0  0
 30 67  2  0  0  0  0
 31 50  1  0  0  0  0
 31 67  1  0  0  0  0
 32 68  1  0  0  0  0
 32 71  1  0  0  0  0
 33 72  1  0  0  0  0
 33 77  2  0  0  0  0
 34 48  1  0  0  0  0
 34 73  1  0  0  0  0
 34 78  2  0  0  0  0
 35 63  1  0  0  0  0
 35 69  1  0  0  0  0
 35 79  2  0  0  0  0
 36 64  1  0  0  0  0
 36 74  1  0  0  0  0
 36 80  2  0  0  0  0
 37 70  1  0  0  0  0
 37 75  1  0  0  0  0
 37 81  2  0  0  0  0
 38 41  1  0  0  0  0
 39 48  1  0  0  0  0
 40 69  1  0  0  0  0
 41 43  1  0  0  0  0
 42 44  1  0  0  0  0
 42 45  1  0  0  0  0
 43 47  1  0  0  0  0
 44 49  1  0  0  0  0
 45 70  1  0  0  0  0
 46 49  1  0  0  0  0
 46 70  1  0  0  0  0
 47 73  1  0  0  0  0
 48 69  1  0  0  0  0
 49 68  1  0  0  0  0
 51 62  1  0  0  0  0
 52 62  1  0  0  0  0
 53 64  1  0  0  0  0
 54 65  1  0  0  0  0
 55 65  1  0  0  0  0
 56 65  1  0  0  0  0
 57 76  1  0  0  0  0
 58 60  1  0  0  0  0
 59 83  1  0  0  0  0
 60 61  1  0  0  0  0
 61 75  1  0  0  0  0
 63 65  1  0  0  0  0
 63 74  1  0  0  0  0
 64 76  1  0  0  0  0
 66 68  1  0  0  0  0
M  CHG  1  76   1
M  ISO  4  37 100  59 101  75 100  83 101
M  END
> <Batch ID>
0040

> <Smiles>
CNC(C)C(=O)NC(C(=O)N1Cc2cc([101O:1][101CH2:1]c3cc(C(C)C)c(CCC[100NH:0][100C:0](=O)N4CCCC(n5nc(-c6ccc(Oc7ccc(F)cc7F)cc6)c(C(N)=O)c5N)C4)c(C)n3)ccc2CC1C(=O)NC1CCCc2ccccc21)C(C)(C)C

> <Shape>
0.348

> <Color>
0.142

> <Negative vol penalty>
0.000

$$$$

  -OEChem-04052317073D

 81 89  0     1  0  0  0  0  0999 V2000
  -18.5342  -28.4859   22.7158 C   0  0  0  0  0  0  0  0  0  0  0  0
  -18.1198  -27.1721   22.5218 C   0  0  0  0  0  0  0  0  0  0  0  0
  -30.1211  -23.5847   19.9122 C   0  0  0  0  0  0  0  0  0  0  0  0
  -28.0400  -23.4825   21.1352 C   0  0  0  0  0  0  0  0  0  0  0  0
  -19.8931  -28.7781   22.8255 C   0  0  0  0  0  0  0  0  0  0  0  0
  -19.0643  -26.1497   22.4364 C   0  0  0  0  0  0  0  0  0  0  0  0
  -19.9565  -19.2253   24.0404 C   0  0  0  0  0  0  0  0  0  0  0  0
  -29.7912  -24.8614   19.4575 C   0  0  0  0  0  0  0  0  0  0  0  0
  -27.7101  -24.7592   20.6805 C   0  0  0  0  0  0  0  0  0  0  0  0
  -20.3430  -18.0237   23.4483 C   0  0  0  0  0  0  0  0  0  0  0  0
  -26.4833  -28.1376   20.1328 C   0  0  0  0  0  0  0  0  0  0  0  0
  -25.9691  -29.0441   21.0598 C   0  0  0  0  0  0  0  0  0  0  0  0
  -22.6590  -18.6363   23.7313 C   0  0  0  0  0  0  0  0  0  0  0  0
  -27.9968  -28.8637   22.3610 C   0  0  0  0  0  0  0  0  0  0  0  0
  -21.7374  -13.1629   22.3025 C   0  0  0  0  0  0  0  0  0  0  0  0
  -29.2455  -22.8952   20.7510 C   0  0  0  0  0  0  0  0  0  0  0  0
  -30.2907  -21.2469   22.3936 C   0  0  0  0  0  0  0  0  0  0  0  0
  -20.8541  -27.7575   22.7511 C   0  0  0  0  0  0  0  0  0  0  0  0
  -20.9199  -20.1478   24.4732 C   0  0  0  0  0  0  0  0  0  0  0  0
  -20.4373  -26.4287   22.5439 C   0  0  0  0  0  0  0  0  0  0  0  0
  -22.2822  -19.8477   24.3309 C   0  0  0  0  0  0  0  0  0  0  0  0
  -28.5858  -25.4487   19.8417 C   0  0  0  0  0  0  0  0  0  0  0  0
  -21.6944  -17.7303   23.2911 C   0  0  0  0  0  0  0  0  0  0  0  0
  -27.7542  -27.5939   20.3200 C   0  0  0  0  0  0  0  0  0  0  0  0
  -26.7258  -29.4072   22.1739 C   0  0  0  0  0  0  0  0  0  0  0  0
  -28.5109  -27.9570   21.4340 C   0  0  0  0  0  0  0  0  0  0  0  0
  -29.5855  -21.5761   21.2206 C   0  0  0  0  0  0  0  0  0  0  0  0
  -21.6521  -14.4371   21.7100 C   0  0  0  0  0  0  0  0  0  0  0  0
  -22.3827  -12.3917   21.3668 C   0  0  0  0  0  0  0  0  0  0  0  0
  -30.3515  -19.8748   22.3840 C   0  0  0  0  0  0  0  0  0  0  0  0
  -30.8416  -22.1046   23.4018 C   0  0  0  0  0  0  0  0  0  0  0  0
  -21.6617  -23.1423   23.7074 C   0  0  0  0  0  0  0  0  0  0  0  0
  -23.7150  -22.8597   26.2026 C   0  0  0  0  0  0  0  0  0  0  0  0
  -25.5509  -20.8153   28.2266 C   0  0  0  0  0  0  0  0  0  0  0  0
  -26.8563  -15.7998   19.9278 C   0  0  0  0  0  0  0  0  0  0  0  0
  -22.3140  -28.1282   22.8280 C   0  0  0  0  0  0  0  0  0  0  0  0
  -20.4868  -21.4277   25.1341 C   0  0  0  0  0  0  0  0  0  0  0  0
  -23.3559  -20.7954   24.7972 C   0  0  0  0  0  0  0  0  0  0  0  0
  -23.2309  -26.9387   23.1015 C   0  0  0  0  0  0  0  0  0  0  0  0
  -30.4163  -16.1501   19.3790 C   0  0  0  0  0  0  0  0  0  0  0  0
  -22.8634  -25.7633   22.2013 C   0  0  0  0  0  0  0  0  0  0  0  0
  -30.6679  -17.5634   19.9075 C   0  0  0  0  0  0  0  0  0  0  0  0
  -29.0737  -16.0597   18.6597 C   0  0  0  0  0  0  0  0  0  0  0  0
  -28.1557  -17.9088   20.0057 C   0  0  0  0  0  0  0  0  0  0  0  0
  -21.4303  -25.2890   22.4708 C   0  0  1  0  0  0  0  0  0  0  0  0
  -21.5483  -22.5216   25.0710 C   0  0  1  0  0  0  0  0  0  0  0  0
  -29.4874  -18.0601   20.7631 C   0  0  2  0  0  0  0  0  0  0  0  0
  -22.7722  -10.9699   21.3856 C   0  0  0  0  0  0  0  0  0  0  0  0
  -27.1595  -20.8774   30.1517 C   0  0  0  0  0  0  0  0  0  0  0  0
  -25.9368  -23.7578   24.3140 C   0  0  0  0  0  0  0  0  0  0  0  0
  -27.6011  -22.8999   25.9760 C   0  0  0  0  0  0  0  0  0  0  0  0
  -26.0517  -24.7505   26.6065 C   0  0  0  0  0  0  0  0  0  0  0  0
  -23.7272  -19.2480   29.9518 C   0  0  0  0  0  0  0  0  0  0  0  0
  -21.0358  -15.6758   22.2906 C   0  0  0  0  0  0  0  0  0  1  0  0
  -24.5157  -13.7519   18.7578 C   0  0  0  0  0  0  0  0  0  0  0  0
  -23.2994  -12.8724   19.0770 C   0  0  0  0  0  0  0  0  0  0  0  0
  -25.6665  -13.6292   19.7543 C   0  0  0  0  0  0  0  0  0  0  0  0
  -25.1448  -22.4030   26.3641 C   0  0  1  0  0  0  0  0  0  0  0  0
  -25.7010  -20.7633   29.7363 C   0  0  2  0  0  0  0  0  0  0  0  0
  -26.1636  -23.4356   25.8045 C   0  0  0  0  0  0  0  0  0  0  0  0
  -29.2242  -20.4998   20.5169 N   0  0  0  0  0  0  0  0  0  0  0  0
  -22.1995  -14.4773   20.4924 N   0  0  0  0  0  0  0  0  0  0  0  0
  -22.6351  -13.2187   20.3120 N   0  0  0  0  0  0  0  0  0  0  0  0
  -29.7045  -19.4809   21.2498 N   0  0  0  0  0  0  0  0  0  0  0  0
  -22.8820  -22.0366   25.4316 N   0  0  0  0  0  0  0  0  0  0  0  0
  -27.9905  -16.5296   19.5348 N   0  0  0  0  0  0  0  0  0  0  0  0
  -30.8949  -18.9788   23.2352 N   0  0  0  0  0  0  0  0  0  0  0  0
  -30.6889  -23.4903   23.2565 N   0  0  0  0  0  0  0  0  0  0  0  0
  -21.3797  -24.4948   23.6796 N   0  0  0  0  0  0  0  0  0  0  0  0
  -25.3187  -22.0992   27.7804 N   0  0  0  0  0  0  0  0  0  0  0  0
  -26.7720  -14.5041   19.4329 N   0  0  0  0  0  0  0  0  0  0  0  0
  -25.1604  -19.4798   30.2667 N   0  3  0  0  0  0  0  0  0  0  0  0
  -31.4653  -21.6564   24.3936 O   0  0  0  0  0  0  0  0  0  0  0  0
  -21.9828  -22.4461   22.7514 O   0  0  0  0  0  0  0  0  0  0  0  0
  -23.3488  -23.9045   26.7466 O   0  0  0  0  0  0  0  0  0  0  0  0
  -25.6353  -19.8175   27.5141 O   0  0  0  0  0  0  0  0  0  0  0  0
  -25.9852  -16.2666   20.6697 O   0  0  0  0  0  0  0  0  0  0  0  0
  -28.2636  -26.6946   19.3983 O   0  0  0  0  0  0  0  0  0  0  0  0
  -22.0744  -16.5585   22.7129 O   0  0  0  0  0  0  0  0  0  1  0  0
  -26.2326  -30.2790   23.0631 F   0  0  0  0  0  0  0  0  0  0  0  0
  -29.7330  -27.4390   21.6186 F   0  0  0  0  0  0  0  0  0  0  0  0
  1  2  1  0  0  0  0
  1  5  2  0  0  0  0
  2  6  2  0  0  0  0
  3  8  2  0  0  0  0
  3 16  1  0  0  0  0
  4  9  1  0  0  0  0
  4 16  2  0  0  0  0
  5 18  1  0  0  0  0
  6 20  1  0  0  0  0
  7 10  2  0  0  0  0
  7 19  1  0  0  0  0
  8 22  1  0  0  0  0
  9 22  2  0  0  0  0
 10 23  1  0  0  0  0
 11 12  2  0  0  0  0
 11 24  1  0  0  0  0
 12 25  1  0  0  0  0
 13 21  1  0  0  0  0
 13 23  2  0  0  0  0
 14 25  2  0  0  0  0
 14 26  1  0  0  0  0
 15 28  1  0  0  0  0
 15 29  2  0  0  0  0
 16 27  1  0  0  0  0
 17 27  1  0  0  0  0
 17 30  2  0  0  0  0
 17 31  1  0  0  0  0
 18 20  2  0  0  0  0
 18 36  1  0  0  0  0
 19 21  2  0  0  0  0
 19 37  1  0  0  0  0
 20 45  1  0  0  0  0
 21 38  1  0  0  0  0
 22 78  1  0  0  0  0
 23 79  1  0  0  0  0
 24 26  2  0  0  0  0
 24 78  1  0  0  0  0
 25 80  1  0  0  0  0
 26 81  1  0  0  0  0
 27 61  2  0  0  0  0
 28 54  1  0  0  0  0
 28 62  2  0  0  0  0
 29 48  1  0  0  0  0
 29 63  1  0  0  0  0
 30 64  1  0  0  0  0
 30 67  1  0  0  0  0
 31 68  1  0  0  0  0
 31 73  2  0  0  0  0
 32 46  1  0  0  0  0
 32 69  1  0  0  0  0
 32 74  2  0  0  0  0
 33 58  1  0  0  0  0
 33 65  1  0  0  0  0
 33 75  2  0  0  0  0
 34 59  1  0  0  0  0
 34 70  1  0  0  0  0
 34 76  2  0  0  0  0
 35 66  1  0  0  0  0
 35 71  1  0  0  0  0
 35 77  2  0  0  0  0
 36 39  1  0  0  0  0
 37 46  1  0  0  0  0
 38 65  1  0  0  0  0
 39 41  1  0  0  0  0
 40 42  1  0  0  0  0
 40 43  1  0  0  0  0
 41 45  1  0  0  0  0
 42 47  1  0  0  0  0
 43 66  1  0  0  0  0
 44 47  1  0  0  0  0
 44 66  1  0  0  0  0
 45 69  1  0  0  0  0
 46 65  1  0  0  0  0
 47 64  1  0  0  0  0
 49 59  1  0  0  0  0
 50 60  1  0  0  0  0
 51 60  1  0  0  0  0
 52 60  1  0  0  0  0
 53 72  1  0  0  0  0
 54 79  1  0  0  0  0
 55 56  1  0  0  0  0
 55 57  1  0  0  0  0
 56 63  1  0  0  0  0
 57 71  1  0  0  0  0
 58 60  1  0  0  0  0
 58 70  1  0  0  0  0
 59 72  1  0  0  0  0
 61 64  1  0  0  0  0
 62 63  1  0  0  0  0
M  CHG  1  72   1
M  ISO  4  35 100  54 101  71 100  79 101
M  END
> <Batch ID>
0040

> <Smiles>
CNC(C)C(=O)NC(C(=O)N1Cc2cc([101O:1][101CH2:1]c3cc(C)n(CCC[100NH:0][100C:0](=O)N4CCCC(n5nc(-c6ccc(Oc7ccc(F)cc7F)cc6)c(C(N)=O)c5N)C4)n3)ccc2CC1C(=O)NC1CCCc2ccccc21)C(C)(C)C

> <Shape>
0.198

> <Color>
0.070

> <Negative vol penalty>
0.000

$$$$

  -OEChem-04052317073D

 86 94  0     1  0  0  0  0  0999 V2000
  -22.8999  -22.6641   15.2838 C   0  0  0  0  0  0  0  0  0  0  0  0
  -24.0675  -22.8058   16.0269 C   0  0  0  0  0  0  0  0  0  0  0  0
  -26.9307  -13.3150   20.9619 C   0  0  0  0  0  0  0  0  0  0  0  0
  -27.1180  -13.2829   18.5534 C   0  0  0  0  0  0  0  0  0  0  0  0
  -22.2783  -23.7888   14.7430 C   0  0  0  0  0  0  0  0  0  0  0  0
  -24.6147  -24.0724   16.2287 C   0  0  0  0  0  0  0  0  0  0  0  0
  -26.0584  -24.8235   21.0242 C   0  0  0  0  0  0  0  0  0  0  0  0
  -26.2745  -12.0847   20.9273 C   0  0  0  0  0  0  0  0  0  0  0  0
  -26.4617  -12.0525   18.5188 C   0  0  0  0  0  0  0  0  0  0  0  0
  -27.2632  -24.2472   21.4241 C   0  0  0  0  0  0  0  0  0  0  0  0
  -23.1674  -10.9377   20.2531 C   0  0  0  0  0  0  0  0  0  0  0  0
  -22.0266  -10.7901   21.0420 C   0  0  0  0  0  0  0  0  0  0  0  0
  -34.9839  -21.2341   19.3564 C   0  0  0  0  0  0  0  0  0  0  0  0
  -28.3657  -26.3749   21.1480 C   0  0  0  0  0  0  0  0  0  0  0  0
  -23.0865   -8.9763   22.2353 C   0  0  0  0  0  0  0  0  0  0  0  0
  -35.7064  -20.6162   20.3643 C   0  0  0  0  0  0  0  0  0  0  0  0
  -27.3524  -13.9142   19.7749 C   0  0  0  0  0  0  0  0  0  0  0  0
  -29.4161  -15.4073   19.9145 C   0  0  0  0  0  0  0  0  0  0  0  0
  -22.8129  -25.0708   14.9464 C   0  0  0  0  0  0  0  0  0  0  0  0
  -26.0003  -26.1796   20.6721 C   0  0  0  0  0  0  0  0  0  0  0  0
  -24.0004  -25.2152   15.6890 C   0  0  0  0  0  0  0  0  0  0  0  0
  -27.1584  -26.9667   20.7464 C   0  0  0  0  0  0  0  0  0  0  0  0
  -33.6336  -21.4791   19.5798 C   0  0  0  0  0  0  0  0  0  0  0  0
  -33.0552  -21.1040   20.7873 C   0  0  0  0  0  0  0  0  0  0  0  0
  -26.0400  -11.4534   19.7058 C   0  0  0  0  0  0  0  0  0  0  0  0
  -28.4177  -25.0222   21.4833 C   0  0  0  0  0  0  0  0  0  0  0  0
  -24.2677  -10.1045   20.4552 C   0  0  0  0  0  0  0  0  0  0  0  0
  -21.9861   -9.8095   22.0331 C   0  0  0  0  0  0  0  0  0  0  0  0
  -24.2272   -9.1239   21.4464 C   0  0  0  0  0  0  0  0  0  0  0  0
  -28.0299  -15.1854   19.8099 C   0  0  0  0  0  0  0  0  0  0  0  0
  -33.8640  -20.4917   21.7311 C   0  0  0  0  0  0  0  0  0  0  0  0
  -29.5466  -16.7745   19.9056 C   0  0  0  0  0  0  0  0  0  0  0  0
  -30.4898  -14.4620   20.0111 C   0  0  0  0  0  0  0  0  0  0  0  0
  -25.2729  -27.7805   18.0241 C   0  0  0  0  0  0  0  0  0  0  0  0
  -25.5767  -30.3606   19.9666 C   0  0  0  0  0  0  0  0  0  0  0  0
  -26.9167  -31.7129   22.7990 C   0  0  0  0  0  0  0  0  0  0  0  0
  -28.2124  -21.7772   17.8227 C   0  0  0  0  0  0  0  0  0  0  0  0
  -22.1314  -26.2520   14.3022 C   0  0  0  0  0  0  0  0  0  0  0  0
  -24.6873  -26.7925   20.2685 C   0  0  0  0  0  0  0  0  0  0  0  0
  -27.1450  -28.4320   20.3984 C   0  0  0  0  0  0  0  0  0  0  0  0
  -22.5696  -27.5963   14.8777 C   0  0  0  0  0  0  0  0  0  0  0  0
  -26.0606  -20.4172   20.3120 C   0  0  0  0  0  0  0  0  0  0  0  0
  -24.0892  -27.6563   14.9967 C   0  0  0  0  0  0  0  0  0  0  0  0
  -26.4912  -18.9524   20.4072 C   0  0  0  0  0  0  0  0  0  0  0  0
  -26.1351  -20.9352   18.8774 C   0  0  0  0  0  0  0  0  0  0  0  0
  -27.8704  -19.2792   18.3120 C   0  0  0  0  0  0  0  0  0  0  0  0
  -24.6109  -26.5750   15.9506 C   0  0  1  0  0  0  0  0  0  0  0  0
  -24.8506  -28.0620   19.4384 C   0  0  1  0  0  0  0  0  0  0  0  0
  -27.8655  -18.7281   19.7482 C   0  0  2  0  0  0  0  0  0  0  0  0
  -34.3863  -19.7109   24.0558 C   0  0  0  0  0  0  0  0  0  0  0  0
  -27.0168  -33.8549   24.1024 C   0  0  0  0  0  0  0  0  0  0  0  0
  -27.5435  -31.5033   17.9329 C   0  0  0  0  0  0  0  0  0  0  0  0
  -28.3081  -33.1201   19.6850 C   0  0  0  0  0  0  0  0  0  0  0  0
  -25.9445  -33.1716   18.8891 C   0  0  0  0  0  0  0  0  0  0  0  0
  -25.6622  -30.4637   25.1707 C   0  0  0  0  0  0  0  0  0  0  0  0
  -32.8294  -22.1438   18.5118 C   0  0  0  0  0  0  0  0  0  0  0  0
  -31.5935  -21.3570   21.0576 C   0  0  0  0  0  0  0  0  0  0  0  0
  -33.2986  -20.0664   23.0468 C   0  0  0  0  0  0  0  0  0  0  0  0
  -32.4590  -21.1762   17.3777 C   0  0  0  0  0  0  0  0  0  0  0  0
  -31.2729  -22.8148   21.3949 C   0  0  0  0  0  0  0  0  0  0  0  0
  -31.6664  -21.8787   16.2714 C   0  0  0  0  0  0  0  0  0  0  0  0
  -30.3533  -22.4688   16.7751 C   0  0  0  0  0  0  0  0  0  0  0  0
  -29.7832  -23.0776   21.5823 C   0  0  0  0  0  0  0  0  0  1  0  0
  -26.7136  -31.2697   20.3666 C   0  0  1  0  0  0  0  0  0  0  0  0
  -26.2944  -32.5296   23.9171 C   0  0  2  0  0  0  0  0  0  0  0  0
  -27.1284  -32.2382   19.2231 C   0  0  0  0  0  0  0  0  0  0  0  0
  -35.1794  -20.2373   21.5502 N   0  0  0  0  0  0  0  0  0  0  0  0
  -27.3298  -16.3207   19.7398 N   0  0  0  0  0  0  0  0  0  0  0  0
  -28.2799  -17.2692   19.8006 N   0  0  0  0  0  0  0  0  0  0  0  0
  -25.8384  -28.9836   20.0034 N   0  0  0  0  0  0  0  0  0  0  0  0
  -27.4642  -20.6933   18.3111 N   0  0  0  0  0  0  0  0  0  0  0  0
  -30.6201  -17.5899   19.9775 N   0  0  0  0  0  0  0  0  0  0  0  0
  -30.1793  -13.0953   20.0059 N   0  0  0  0  0  0  0  0  0  0  0  0
  -24.3980  -26.9695   17.3267 N   0  0  0  0  0  0  0  0  0  0  0  0
  -26.2897  -31.9386   21.5918 N   0  0  0  0  0  0  0  0  0  0  0  0
  -29.4641  -21.4612   17.3088 N   0  0  0  0  0  0  0  0  0  0  0  0
  -26.3542  -31.7780   25.2026 N   0  3  0  0  0  0  0  0  0  0  0  0
  -31.6878  -14.8190   20.1158 O   0  0  0  0  0  0  0  0  0  0  0  0
  -26.3144  -28.2645   17.5968 O   0  0  0  0  0  0  0  0  0  0  0  0
  -24.4941  -30.8538   19.6405 O   0  0  0  0  0  0  0  0  0  0  0  0
  -27.8665  -30.9537   22.9778 O   0  0  0  0  0  0  0  0  0  0  0  0
  -27.7979  -22.9410   17.8479 O   0  0  0  0  0  0  0  0  0  0  0  0
  -25.3998  -10.2528   19.6717 O   0  0  0  0  0  0  0  0  0  0  0  0
  -29.5952  -24.4620   21.8727 O   0  0  0  0  0  0  0  0  0  1  0  0
  -20.8911   -9.6689   22.7917 F   0  0  0  0  0  0  0  0  0  0  0  0
  -25.2817   -8.3213   21.6460 F   0  0  0  0  0  0  0  0  0  0  0  0
  1  2  1  0  0  0  0
  1  5  2  0  0  0  0
  2  6  2  0  0  0  0
  3  8  2  0  0  0  0
  3 17  1  0  0  0  0
  4  9  1  0  0  0  0
  4 17  2  0  0  0  0
  5 19  1  0  0  0  0
  6 21  1  0  0  0  0
  7 10  2  0  0  0  0
  7 20  1  0  0  0  0
  8 25  1  0  0  0  0
  9 25  2  0  0  0  0
 10 26  1  0  0  0  0
 11 12  2  0  0  0  0
 11 27  1  0  0  0  0
 12 28  1  0  0  0  0
 13 16  1  0  0  0  0
 13 23  2  0  0  0  0
 14 22  1  0  0  0  0
 14 26  2  0  0  0  0
 15 28  2  0  0  0  0
 15 29  1  0  0  0  0
 16 67  2  0  0  0  0
 17 30  1  0  0  0  0
 18 30  1  0  0  0  0
 18 32  2  0  0  0  0
 18 33  1  0  0  0  0
 19 21  2  0  0  0  0
 19 38  1  0  0  0  0
 20 22  2  0  0  0  0
 20 39  1  0  0  0  0
 21 47  1  0  0  0  0
 22 40  1  0  0  0  0
 23 24  1  0  0  0  0
 23 56  1  0  0  0  0
 24 31  2  0  0  0  0
 24 57  1  0  0  0  0
 25 83  1  0  0  0  0
 26 84  1  0  0  0  0
 27 29  2  0  0  0  0
 27 83  1  0  0  0  0
 28 85  1  0  0  0  0
 29 86  1  0  0  0  0
 30 68  2  0  0  0  0
 31 58  1  0  0  0  0
 31 67  1  0  0  0  0
 32 69  1  0  0  0  0
 32 72  1  0  0  0  0
 33 73  1  0  0  0  0
 33 78  2  0  0  0  0
 34 48  1  0  0  0  0
 34 74  1  0  0  0  0
 34 79  2  0  0  0  0
 35 64  1  0  0  0  0
 35 70  1  0  0  0  0
 35 80  2  0  0  0  0
 36 65  1  0  0  0  0
 36 75  1  0  0  0  0
 36 81  2  0  0  0  0
 37 71  1  0  0  0  0
 37 76  1  0  0  0  0
 37 82  2  0  0  0  0
 38 41  1  0  0  0  0
 39 48  1  0  0  0  0
 40 70  1  0  0  0  0
 41 43  1  0  0  0  0
 42 44  1  0  0  0  0
 42 45  1  0  0  0  0
 43 47  1  0  0  0  0
 44 49  1  0  0  0  0
 45 71  1  0  0  0  0
 46 49  1  0  0  0  0
 46 71  1  0  0  0  0
 47 74  1  0  0  0  0
 48 70  1  0  0  0  0
 49 69  1  0  0  0  0
 50 58  1  0  0  0  0
 51 65  1  0  0  0  0
 52 66  1  0  0  0  0
 53 66  1  0  0  0  0
 54 66  1  0  0  0  0
 55 77  1  0  0  0  0
 56 59  1  0  0  0  0
 57 60  1  0  0  0  0
 59 61  1  0  0  0  0
 60 63  1  0  0  0  0
 61 62  1  0  0  0  0
 62 76  1  0  0  0  0
 63 84  1  0  0  0  0
 64 66  1  0  0  0  0
 64 75  1  0  0  0  0
 65 77  1  0  0  0  0
 68 69  1  0  0  0  0
M  CHG  1  77   1
M  ISO  4  37 100  63 101  76 100  84 101
M  END
> <Batch ID>
0040

> <Smiles>
CCc1nccc(CCCC[100NH:0][100C:0](=O)N2CCCC(n3nc(-c4ccc(Oc5ccc(F)cc5F)cc4)c(C(N)=O)c3N)C2)c1CC[101CH2:1][101O:1]c1ccc2c(c1)CN(C(=O)C(NC(=O)C(C)NC)C(C)(C)C)C(C(=O)NC1CCCc3ccccc31)C2

> <Shape>
0.213

> <Color>
0.062

> <Negative vol penalty>
0.000

$$$$

  -OEChem-04052317073D

 88 96  0     1  0  0  0  0  0999 V2000
  -30.6491  -21.4484   19.4974 C   0  0  0  0  0  0  0  0  0  0  0  0
  -29.2995  -21.7662   19.3840 C   0  0  0  0  0  0  0  0  0  0  0  0
  -26.7584  -12.9140   20.7529 C   0  0  0  0  0  0  0  0  0  0  0  0
  -25.7223  -13.9676   18.8415 C   0  0  0  0  0  0  0  0  0  0  0  0
  -31.4631  -22.1697   20.3698 C   0  0  0  0  0  0  0  0  0  0  0  0
  -28.7627  -22.8050   20.1439 C   0  0  0  0  0  0  0  0  0  0  0  0
  -24.3170  -26.6717   18.4739 C   0  0  0  0  0  0  0  0  0  0  0  0
  -26.0260  -11.7522   20.5096 C   0  0  0  0  0  0  0  0  0  0  0  0
  -24.9898  -12.8057   18.5982 C   0  0  0  0  0  0  0  0  0  0  0  0
  -22.9476  -26.6955   18.7348 C   0  0  0  0  0  0  0  0  0  0  0  0
  -22.8793  -10.6360   21.0357 C   0  0  0  0  0  0  0  0  0  0  0  0
  -22.2710  -10.0140   22.1260 C   0  0  0  0  0  0  0  0  0  0  0  0
  -23.3297  -28.2142   20.5696 C   0  0  0  0  0  0  0  0  0  0  0  0
  -20.2545  -24.8189   22.5596 C   0  0  0  0  0  0  0  0  0  0  0  0
  -23.5511   -8.0103   21.6971 C   0  0  0  0  0  0  0  0  0  0  0  0
  -26.6065  -14.0218   19.9189 C   0  0  0  0  0  0  0  0  0  0  0  0
  -19.6361  -27.0964   23.0233 C   0  0  0  0  0  0  0  0  0  0  0  0
  -28.6336  -15.5489   19.6607 C   0  0  0  0  0  0  0  0  0  0  0  0
  -30.9382  -23.2241   21.1336 C   0  0  0  0  0  0  0  0  0  0  0  0
  -25.2056  -27.4116   19.2671 C   0  0  0  0  0  0  0  0  0  0  0  0
  -29.5702  -23.5402   21.0284 C   0  0  0  0  0  0  0  0  0  0  0  0
  -24.7096  -28.2001   20.3151 C   0  0  0  0  0  0  0  0  0  0  0  0
  -19.7160  -26.0288   22.1360 C   0  0  0  0  0  0  0  0  0  0  0  0
  -25.1417  -11.6980   19.4322 C   0  0  0  0  0  0  0  0  0  0  0  0
  -22.4541  -27.4646   19.7846 C   0  0  0  0  0  0  0  0  0  0  0  0
  -23.8234   -9.9451   20.2760 C   0  0  0  0  0  0  0  0  0  0  0  0
  -22.6069   -8.7012   22.4567 C   0  0  0  0  0  0  0  0  0  0  0  0
  -24.1593   -8.6323   20.6067 C   0  0  0  0  0  0  0  0  0  0  0  0
  -27.3624  -15.2224   20.1701 C   0  0  0  0  0  0  0  0  0  0  0  0
  -20.6955  -24.7286   23.8700 C   0  0  0  0  0  0  0  0  0  0  0  0
  -20.1046  -26.9041   24.3130 C   0  0  0  0  0  0  0  0  0  0  0  0
  -28.9091  -16.7852   20.1917 C   0  0  0  0  0  0  0  0  0  0  0  0
  -19.0772  -28.3757   22.6061 C   0  0  0  0  0  0  0  0  0  0  0  0
  -29.4887  -14.8014   18.7857 C   0  0  0  0  0  0  0  0  0  0  0  0
  -17.7811  -28.7511   22.6943 C   0  0  0  0  0  0  0  0  0  0  0  0
  -27.6436  -26.6897   21.1747 C   0  0  0  0  0  0  0  0  0  0  0  0
  -27.9786  -29.9130   21.3194 C   0  0  0  0  0  0  0  0  0  0  0  0
  -26.5377  -32.9919   21.0182 C   0  0  0  0  0  0  0  0  0  0  0  0
  -25.3849  -21.1416   22.0512 C   0  0  0  0  0  0  0  0  0  0  0  0
  -31.8469  -23.9443   22.0981 C   0  0  0  0  0  0  0  0  0  0  0  0
  -26.6772  -27.3963   18.9559 C   0  0  0  0  0  0  0  0  0  0  0  0
  -25.6196  -29.0285   21.1836 C   0  0  0  0  0  0  0  0  0  0  0  0
  -31.2817  -25.2743   22.5899 C   0  0  0  0  0  0  0  0  0  0  0  0
  -27.9628  -19.5184   24.0050 C   0  0  0  0  0  0  0  0  0  0  0  0
  -29.8226  -25.1135   23.0048 C   0  0  0  0  0  0  0  0  0  0  0  0
  -28.2185  -18.2549   23.1814 C   0  0  0  0  0  0  0  0  0  0  0  0
  -26.4825  -19.8882   24.0050 C   0  0  0  0  0  0  0  0  0  0  0  0
  -26.1434  -18.7931   21.8234 C   0  0  0  0  0  0  0  0  0  0  0  0
  -28.9563  -24.6762   21.8175 C   0  0  1  0  0  0  0  0  0  0  0  0
  -27.5444  -27.7839   20.1497 C   0  0  1  0  0  0  0  0  0  0  0  0
  -27.6251  -18.3794   21.7656 C   0  0  2  0  0  0  0  0  0  0  0  0
  -20.0502  -28.0077   25.3205 C   0  0  0  0  0  0  0  0  0  0  0  0
  -17.3408  -30.1047   22.2045 C   0  0  0  0  0  0  0  0  0  0  0  0
  -16.6779  -27.9116   23.2782 C   0  0  0  0  0  0  0  0  0  0  0  0
  -27.0542  -35.4382   21.2340 C   0  0  0  0  0  0  0  0  0  0  0  0
  -27.8976  -29.6595   24.3590 C   0  0  0  0  0  0  0  0  0  0  0  0
  -27.4601  -32.1215   24.4830 C   0  0  0  0  0  0  0  0  0  0  0  0
  -29.5906  -31.2834   23.4924 C   0  0  0  0  0  0  0  0  0  0  0  0
  -25.8903  -33.4980   18.1750 C   0  0  0  0  0  0  0  0  0  0  0  0
  -19.2284  -26.1430   20.7121 C   0  0  0  0  0  0  0  0  0  0  0  0
  -21.2801  -23.4457   24.3590 C   0  0  0  0  0  0  0  0  0  0  0  0
  -22.7999  -23.3805   24.1435 C   0  0  0  0  0  0  0  0  0  0  0  0
  -23.1694  -23.5376   22.6655 C   0  0  0  0  0  0  0  0  0  0  0  0
  -24.6755  -23.4891   22.4291 C   0  0  0  0  0  0  0  0  0  0  0  0
  -20.3729  -26.3156   19.7194 C   0  0  0  0  0  0  0  0  0  1  0  0
  -27.4319  -31.0059   22.2058 C   0  0  1  0  0  0  0  0  0  0  0  0
  -26.9858  -34.2469   20.2911 C   0  0  2  0  0  0  0  0  0  0  0  0
  -28.0778  -31.0005   23.6201 C   0  0  0  0  0  0  0  0  0  0  0  0
  -26.8650  -16.1745   20.9639 N   0  0  0  0  0  0  0  0  0  0  0  0
  -20.6343  -25.7437   24.7608 N   0  0  0  0  0  0  0  0  0  0  0  0
  -27.8285  -17.1113   20.9573 N   0  0  0  0  0  0  0  0  0  0  0  0
  -27.0511  -28.9754   20.8435 N   0  0  0  0  0  0  0  0  0  0  0  0
  -25.9843  -20.0094   22.6276 N   0  0  0  0  0  0  0  0  0  0  0  0
  -29.9679  -17.6143   20.0738 N   0  0  0  0  0  0  0  0  0  0  0  0
  -29.0514  -13.5490   18.3334 N   0  0  0  0  0  0  0  0  0  0  0  0
  -28.6794  -25.8025   20.9520 N   0  0  0  0  0  0  0  0  0  0  0  0
  -27.6105  -32.2541   21.4720 N   0  0  0  0  0  0  0  0  0  0  0  0
  -25.2655  -22.2490   22.8819 N   0  0  0  0  0  0  0  0  0  0  0  0
  -26.0372  -34.5737   19.1891 N   0  3  0  0  0  0  0  0  0  0  0  0
  -30.6146  -15.2241   18.4290 O   0  0  0  0  0  0  0  0  0  0  0  0
  -26.8409  -26.6539   22.0999 O   0  0  0  0  0  0  0  0  0  0  0  0
  -29.1829  -29.8960   21.0531 O   0  0  0  0  0  0  0  0  0  0  0  0
  -25.3544  -32.6976   21.1716 O   0  0  0  0  0  0  0  0  0  0  0  0
  -24.9900  -21.1658   20.8805 O   0  0  0  0  0  0  0  0  0  0  0  0
  -24.4270  -10.5643   19.1944 O   0  0  0  0  0  0  0  0  0  0  0  0
  -21.1180  -27.4891   20.0418 O   0  0  0  0  0  0  0  0  0  1  0  0
  -22.0238   -8.1045   23.5046 F   0  0  0  0  0  0  0  0  0  0  0  0
  -25.0665   -7.9640   19.8814 F   0  0  0  0  0  0  0  0  0  0  0  0
  1  2  1  0  0  0  0
  1  5  2  0  0  0  0
  2  6  2  0  0  0  0
  3  8  2  0  0  0  0
  3 16  1  0  0  0  0
  4  9  1  0  0  0  0
  4 16  2  0  0  0  0
  5 19  1  0  0  0  0
  6 21  1  0  0  0  0
  7 10  2  0  0  0  0
  7 20  1  0  0  0  0
  8 24  1  0  0  0  0
  9 24  2  0  0  0  0
 10 25  1  0  0  0  0
 11 12  2  0  0  0  0
 11 26  1  0  0  0  0
 12 27  1  0  0  0  0
 13 22  1  0  0  0  0
 13 25  2  0  0  0  0
 14 23  1  0  0  0  0
 14 30  2  0  0  0  0
 15 27  2  0  0  0  0
 15 28  1  0  0  0  0
 16 29  1  0  0  0  0
 17 23  2  0  0  0  0
 17 31  1  0  0  0  0
 17 33  1  0  0  0  0
 18 29  1  0  0  0  0
 18 32  2  0  0  0  0
 18 34  1  0  0  0  0
 19 21  2  0  0  0  0
 19 40  1  0  0  0  0
 20 22  2  0  0  0  0
 20 41  1  0  0  0  0
 21 49  1  0  0  0  0
 22 42  1  0  0  0  0
 23 60  1  0  0  0  0
 24 85  1  0  0  0  0
 25 86  1  0  0  0  0
 26 28  2  0  0  0  0
 26 85  1  0  0  0  0
 27 87  1  0  0  0  0
 28 88  1  0  0  0  0
 29 69  2  0  0  0  0
 30 61  1  0  0  0  0
 30 70  1  0  0  0  0
 31 52  1  0  0  0  0
 31 70  2  0  0  0  0
 32 71  1  0  0  0  0
 32 74  1  0  0  0  0
 33 35  2  0  0  0  0
 34 75  1  0  0  0  0
 34 80  2  0  0  0  0
 35 53  1  0  0  0  0
 35 54  1  0  0  0  0
 36 50  1  0  0  0  0
 36 76  1  0  0  0  0
 36 81  2  0  0  0  0
 37 66  1  0  0  0  0
 37 72  1  0  0  0  0
 37 82  2  0  0  0  0
 38 67  1  0  0  0  0
 38 77  1  0  0  0  0
 38 83  2  0  0  0  0
 39 73  1  0  0  0  0
 39 78  1  0  0  0  0
 39 84  2  0  0  0  0
 40 43  1  0  0  0  0
 41 50  1  0  0  0  0
 42 72  1  0  0  0  0
 43 45  1  0  0  0  0
 44 46  1  0  0  0  0
 44 47  1  0  0  0  0
 45 49  1  0  0  0  0
 46 51  1  0  0  0  0
 47 73  1  0  0  0  0
 48 51  1  0  0  0  0
 48 73  1  0  0  0  0
 49 76  1  0  0  0  0
 50 72  1  0  0  0  0
 51 71  1  0  0  0  0
 55 67  1  0  0  0  0
 56 68  1  0  0  0  0
 57 68  1  0  0  0  0
 58 68  1  0  0  0  0
 59 79  1  0  0  0  0
 60 65  1  0  0  0  0
 61 62  1  0  0  0  0
 62 63  1  0  0  0  0
 63 64  1  0  0  0  0
 64 78  1  0  0  0  0
 65 86  1  0  0  0  0
 66 68  1  0  0  0  0
 66 77  1  0  0  0  0
 67 79  1  0  0  0  0
 69 71  1  0  0  0  0
M  CHG  1  79   1
M  ISO  4  39 100  65 101  78 100  86 101
M  END
> <Batch ID>
0040

> <Smiles>
CNC(C)C(=O)NC(C(=O)N1Cc2cc([101O:1][101CH2:1]Cc3cc(CCCC[100NH:0][100C:0](=O)N4CCCC(n5nc(-c6ccc(Oc7ccc(F)cc7F)cc6)c(C(N)=O)c5N)C4)nc(C)c3C=C(C)C)ccc2CC1C(=O)NC1CCCc2ccccc21)C(C)(C)C

> <Shape>
0.244

> <Color>
0.059

> <Negative vol penalty>
0.000

$$$$

  -OEChem-04052317073D

 90 98  0     1  0  0  0  0  0999 V2000
  -16.1963  -25.2660   13.7383 C   0  0  0  0  0  0  0  0  0  0  0  0
  -17.2114  -25.4785   14.6656 C   0  0  0  0  0  0  0  0  0  0  0  0
  -26.3900  -12.5671   21.7043 C   0  0  0  0  0  0  0  0  0  0  0  0
  -25.8939  -13.6741   19.6149 C   0  0  0  0  0  0  0  0  0  0  0  0
  -15.7231  -23.9749   13.5082 C   0  0  0  0  0  0  0  0  0  0  0  0
  -17.7532  -24.4001   15.3641 C   0  0  0  0  0  0  0  0  0  0  0  0
  -22.8107  -24.5600   15.5665 C   0  0  0  0  0  0  0  0  0  0  0  0
  -25.1709  -11.8927   21.6365 C   0  0  0  0  0  0  0  0  0  0  0  0
  -24.6748  -12.9997   19.5471 C   0  0  0  0  0  0  0  0  0  0  0  0
  -23.3837  -25.4354   16.4880 C   0  0  0  0  0  0  0  0  0  0  0  0
  -23.8891   -9.2214   20.0074 C   0  0  0  0  0  0  0  0  0  0  0  0
  -23.8868   -7.8561   20.2926 C   0  0  0  0  0  0  0  0  0  0  0  0
  -23.7503  -23.5929   18.0012 C   0  0  0  0  0  0  0  0  0  0  0  0
  -22.3480   -8.2394   22.1154 C   0  0  0  0  0  0  0  0  0  0  0  0
  -26.7515  -13.4578   20.6935 C   0  0  0  0  0  0  0  0  0  0  0  0
  -29.2478  -13.7297   20.2439 C   0  0  0  0  0  0  0  0  0  0  0  0
  -16.2660  -22.8789   14.1971 C   0  0  0  0  0  0  0  0  0  0  0  0
  -22.6931  -23.1939   15.8604 C   0  0  0  0  0  0  0  0  0  0  0  0
  -17.2859  -23.0932   15.1439 C   0  0  0  0  0  0  0  0  0  0  0  0
  -23.1777  -22.7018   17.0807 C   0  0  0  0  0  0  0  0  0  0  0  0
  -24.3133  -12.1090   20.5579 C   0  0  0  0  0  0  0  0  0  0  0  0
  -23.8509  -24.9524   17.7068 C   0  0  0  0  0  0  0  0  0  0  0  0
  -23.1209  -10.0958   20.7762 C   0  0  0  0  0  0  0  0  0  0  0  0
  -23.1163   -7.3651   21.3466 C   0  0  0  0  0  0  0  0  0  0  0  0
  -22.3504   -9.6048   21.8302 C   0  0  0  0  0  0  0  0  0  0  0  0
  -28.0105  -14.1551   20.7633 C   0  0  0  0  0  0  0  0  0  0  0  0
  -25.0473  -29.6167   20.9028 C   0  0  0  0  0  0  0  0  0  0  0  0
  -26.3292  -29.3190   21.3097 C   0  0  0  0  0  0  0  0  0  0  0  0
  -26.4365  -27.6498   19.7501 C   0  0  0  0  0  0  0  0  0  0  0  0
  -25.1543  -27.9471   19.3438 C   0  0  0  0  0  0  0  0  0  0  0  0
  -30.1218  -14.7379   20.5696 C   0  0  0  0  0  0  0  0  0  0  0  0
  -29.5776  -12.5304   19.5307 C   0  0  0  0  0  0  0  0  0  0  0  0
  -20.2631  -21.1716   16.1909 C   0  0  0  0  0  0  0  0  0  0  0  0
  -22.6347  -18.9718   16.4327 C   0  0  0  0  0  0  0  0  0  0  0  0
  -25.8950  -18.2969   17.1820 C   0  0  0  0  0  0  0  0  0  0  0  0
  -29.3800  -20.5714   21.6971 C   0  0  0  0  0  0  0  0  0  0  0  0
  -15.6894  -21.5075   13.9491 C   0  0  0  0  0  0  0  0  0  0  0  0
  -22.0968  -22.2584   14.8447 C   0  0  0  0  0  0  0  0  0  0  0  0
  -23.0935  -21.2407   17.4361 C   0  0  0  0  0  0  0  0  0  0  0  0
  -16.5753  -20.3731   14.4577 C   0  0  0  0  0  0  0  0  0  0  0  0
  -30.8535  -18.1459   23.8470 C   0  0  0  0  0  0  0  0  0  0  0  0
  -17.0648  -20.6709   15.8714 C   0  0  0  0  0  0  0  0  0  0  0  0
  -30.4036  -16.8097   23.2536 C   0  0  0  0  0  0  0  0  0  0  0  0
  -29.7646  -19.2102   23.7307 C   0  0  0  0  0  0  0  0  0  0  0  0
  -28.7869  -18.0737   21.7747 C   0  0  0  0  0  0  0  0  0  0  0  0
  -17.9161  -21.9460   15.9033 C   0  0  1  0  0  0  0  0  0  0  0  0
  -21.5610  -20.9699   15.4612 C   0  0  1  0  0  0  0  0  0  0  0  0
  -29.8719  -16.9842   21.8183 C   0  0  2  0  0  0  0  0  0  0  0  0
  -24.2639  -30.7126   21.5405 C   0  0  0  0  0  0  0  0  0  0  0  0
  -28.0046  -16.9553   17.3997 C   0  0  0  0  0  0  0  0  0  0  0  0
  -28.3952  -31.0885   25.0416 C   0  0  0  0  0  0  0  0  0  0  0  0
  -25.9560  -31.6476   24.9323 C   0  0  0  0  0  0  0  0  0  0  0  0
  -27.6372  -28.2398   24.0380 C   0  0  0  0  0  0  0  0  0  0  0  0
  -21.3611  -18.0707   19.0549 C   0  0  0  0  0  0  0  0  0  0  0  0
  -23.4963  -16.8840   19.6034 C   0  0  0  0  0  0  0  0  0  0  0  0
  -22.1762  -16.2092   17.5972 C   0  0  0  0  0  0  0  0  0  0  0  0
  -26.7236  -18.9342   14.4132 C   0  0  0  0  0  0  0  0  0  0  0  0
  -27.2198  -26.5540   19.1120 C   0  0  0  0  0  0  0  0  0  0  0  0
  -26.9924  -30.0789   22.4071 C   0  0  0  0  0  0  0  0  0  0  0  0
  -24.4860  -27.1813   18.2400 C   0  0  0  0  0  0  0  0  0  1  0  0
  -27.2654  -25.2880   19.9816 C   0  0  0  0  0  0  0  0  0  0  0  0
  -28.1048  -24.1839   19.3353 C   0  0  0  0  0  0  0  0  0  0  0  0
  -28.1092  -22.9154   20.1934 C   0  0  0  0  0  0  0  0  0  0  0  0
  -28.9490  -21.7981   19.5831 C   0  0  0  0  0  0  0  0  0  0  0  0
  -23.4463  -18.3950   17.5674 C   0  0  1  0  0  0  0  0  0  0  0  0
  -26.9537  -17.4978   16.4436 C   0  0  2  0  0  0  0  0  0  0  0  0
  -26.9799  -30.5079   24.9814 C   0  0  0  0  0  0  0  0  0  0  0  0
  -26.7636  -29.4865   23.8264 C   0  0  2  0  0  0  0  0  0  0  0  0
  -22.6199  -17.4176   18.4501 C   0  0  0  0  0  0  0  0  0  0  0  0
  -28.0874  -15.3411   21.3728 N   0  0  0  0  0  0  0  0  0  0  0  0
  -24.4368  -28.9361   19.9126 N   0  0  0  0  0  0  0  0  0  0  0  0
  -27.0468  -28.3302   20.7406 N   0  0  0  0  0  0  0  0  0  0  0  0
  -29.3837  -15.6695   21.2385 N   0  0  0  0  0  0  0  0  0  0  0  0
  -22.4966  -20.3669   16.4126 N   0  0  0  0  0  0  0  0  0  0  0  0
  -29.3050  -19.3272   22.3447 N   0  0  0  0  0  0  0  0  0  0  0  0
  -31.4421  -14.9096   20.3462 N   0  0  0  0  0  0  0  0  0  0  0  0
  -28.5594  -11.6004   19.2805 N   0  0  0  0  0  0  0  0  0  0  0  0
  -19.2472  -21.6776   15.4027 N   0  0  0  0  0  0  0  0  0  0  0  0
  -24.6297  -17.7961   16.9597 N   0  0  0  0  0  0  0  0  0  0  0  0
  -28.9296  -20.5935   20.3828 N   0  0  0  0  0  0  0  0  0  0  0  0
  -27.6359  -18.3529   15.4314 N   0  3  0  0  0  0  0  0  0  0  0  0
  -30.7442  -12.2831   19.1415 O   0  0  0  0  0  0  0  0  0  0  0  0
  -20.1885  -20.8878   17.3807 O   0  0  0  0  0  0  0  0  0  0  0  0
  -22.1474  -18.2129   15.5910 O   0  0  0  0  0  0  0  0  0  0  0  0
  -26.1641  -19.2659   17.8886 O   0  0  0  0  0  0  0  0  0  0  0  0
  -29.8209  -21.5861   22.2475 O   0  0  0  0  0  0  0  0  0  0  0  0
  -23.1237  -11.4510   20.4913 O   0  0  0  0  0  0  0  0  0  0  0  0
  -24.4100  -25.8047   18.6083 O   0  0  0  0  0  0  0  0  0  1  0  0
  -23.1129   -6.0537   21.6194 F   0  0  0  0  0  0  0  0  0  0  0  0
  -21.6095  -10.4398   22.5715 F   0  0  0  0  0  0  0  0  0  0  0  0
  1  2  1  0  0  0  0
  1  5  2  0  0  0  0
  2  6  2  0  0  0  0
  3  8  2  0  0  0  0
  3 15  1  0  0  0  0
  4  9  1  0  0  0  0
  4 15  2  0  0  0  0
  5 17  1  0  0  0  0
  6 19  1  0  0  0  0
  7 10  2  0  0  0  0
  7 18  1  0  0  0  0
  8 21  1  0  0  0  0
  9 21  2  0  0  0  0
 10 22  1  0  0  0  0
 11 12  2  0  0  0  0
 11 23  1  0  0  0  0
 12 24  1  0  0  0  0
 13 20  1  0  0  0  0
 13 22  2  0  0  0  0
 14 24  2  0  0  0  0
 14 25  1  0  0  0  0
 15 26  1  0  0  0  0
 16 26  1  0  0  0  0
 16 31  2  0  0  0  0
 16 32  1  0  0  0  0
 17 19  2  0  0  0  0
 17 37  1  0  0  0  0
 18 20  2  0  0  0  0
 18 38  1  0  0  0  0
 19 46  1  0  0  0  0
 20 39  1  0  0  0  0
 21 87  1  0  0  0  0
 22 88  1  0  0  0  0
 23 25  2  0  0  0  0
 23 87  1  0  0  0  0
 24 89  1  0  0  0  0
 25 90  1  0  0  0  0
 26 70  2  0  0  0  0
 27 28  1  0  0  0  0
 27 49  1  0  0  0  0
 27 71  2  0  0  0  0
 28 59  1  0  0  0  0
 28 72  2  0  0  0  0
 29 30  2  0  0  0  0
 29 58  1  0  0  0  0
 29 72  1  0  0  0  0
 30 60  1  0  0  0  0
 30 71  1  0  0  0  0
 31 73  1  0  0  0  0
 31 76  1  0  0  0  0
 32 77  1  0  0  0  0
 32 82  2  0  0  0  0
 33 47  1  0  0  0  0
 33 78  1  0  0  0  0
 33 83  2  0  0  0  0
 34 65  1  0  0  0  0
 34 74  1  0  0  0  0
 34 84  2  0  0  0  0
 35 66  1  0  0  0  0
 35 79  1  0  0  0  0
 35 85  2  0  0  0  0
 36 75  1  0  0  0  0
 36 80  1  0  0  0  0
 36 86  2  0  0  0  0
 37 40  1  0  0  0  0
 38 47  1  0  0  0  0
 39 74  1  0  0  0  0
 40 42  1  0  0  0  0
 41 43  1  0  0  0  0
 41 44  1  0  0  0  0
 42 46  1  0  0  0  0
 43 48  1  0  0  0  0
 44 75  1  0  0  0  0
 45 48  1  0  0  0  0
 45 75  1  0  0  0  0
 46 78  1  0  0  0  0
 47 74  1  0  0  0  0
 48 73  1  0  0  0  0
 50 66  1  0  0  0  0
 51 67  1  0  0  0  0
 52 67  1  0  0  0  0
 53 68  1  0  0  0  0
 54 69  1  0  0  0  0
 55 69  1  0  0  0  0
 56 69  1  0  0  0  0
 57 81  1  0  0  0  0
 58 61  1  0  0  0  0
 59 68  1  0  0  0  0
 60 88  1  0  0  0  0
 61 62  1  0  0  0  0
 62 63  1  0  0  0  0
 63 64  1  0  0  0  0
 64 80  1  0  0  0  0
 65 69  1  0  0  0  0
 65 79  1  0  0  0  0
 66 81  1  0  0  0  0
 67 68  1  0  0  0  0
 70 73  1  0  0  0  0
M  CHG  1  81   1
M  ISO  4  36 100  60 101  80 100  88 101
M  END
> <Batch ID>
0040

> <Smiles>
CNC(C)C(=O)NC(C(=O)N1Cc2cc([101O:1][101CH2:1]c3nc(C)c(CC(C)C(C)C)nc3CCCCC[100NH:0][100C:0](=O)N3CCCC(n4nc(-c5ccc(Oc6ccc(F)cc6F)cc5)c(C(N)=O)c4N)C3)ccc2CC1C(=O)NC1CCCc2ccccc21)C(C)(C)C

> <Shape>
0.231

> <Color>
0.069

> <Negative vol penalty>
0.000

$$$$

  -OEChem-04052317073D

 85 93  0     1  0  0  0  0  0999 V2000
  -20.9095  -31.8315   23.3068 C   0  0  0  0  0  0  0  0  0  0  0  0
  -21.9866  -30.9711   23.1200 C   0  0  0  0  0  0  0  0  0  0  0  0
  -24.4341   -9.1218   21.5912 C   0  0  0  0  0  0  0  0  0  0  0  0
  -22.6108  -10.0927   20.3381 C   0  0  0  0  0  0  0  0  0  0  0  0
  -19.6078  -31.3328   23.2809 C   0  0  0  0  0  0  0  0  0  0  0  0
  -21.7626  -29.6111   22.9083 C   0  0  0  0  0  0  0  0  0  0  0  0
  -24.5873  -27.7398   19.1447 C   0  0  0  0  0  0  0  0  0  0  0  0
  -23.7060   -7.9408   21.7354 C   0  0  0  0  0  0  0  0  0  0  0  0
  -21.8828   -8.9117   20.4823 C   0  0  0  0  0  0  0  0  0  0  0  0
  -25.9252  -27.4681   19.4273 C   0  0  0  0  0  0  0  0  0  0  0  0
  -21.1781   -6.7934   23.6635 C   0  0  0  0  0  0  0  0  0  0  0  0
  -21.1514   -6.1995   24.9253 C   0  0  0  0  0  0  0  0  0  0  0  0
  -25.3886  -25.1310   19.6908 C   0  0  0  0  0  0  0  0  0  0  0  0
  -29.4705  -22.5371   16.7628 C   0  0  0  0  0  0  0  0  0  0  0  0
  -29.9641  -24.8830   16.9562 C   0  0  0  0  0  0  0  0  0  0  0  0
  -22.1550   -4.2029   24.0068 C   0  0  0  0  0  0  0  0  0  0  0  0
  -23.8865  -10.1978   20.8925 C   0  0  0  0  0  0  0  0  0  0  0  0
  -25.5276  -11.7471   19.7035 C   0  0  0  0  0  0  0  0  0  0  0  0
  -19.3673  -29.9676   23.0591 C   0  0  0  0  0  0  0  0  0  0  0  0
  -23.6364  -26.7091   19.1438 C   0  0  0  0  0  0  0  0  0  0  0  0
  -20.4565  -29.0935   22.8808 C   0  0  0  0  0  0  0  0  0  0  0  0
  -24.0397  -25.3919   19.4055 C   0  0  0  0  0  0  0  0  0  0  0  0
  -29.8129  -23.7468   16.1691 C   0  0  0  0  0  0  0  0  0  0  0  0
  -22.4304   -7.8357   21.1810 C   0  0  0  0  0  0  0  0  0  0  0  0
  -26.3256  -26.1640   19.7032 C   0  0  0  0  0  0  0  0  0  0  0  0
  -21.6932   -6.0921   22.5733 C   0  0  0  0  0  0  0  0  0  0  0  0
  -21.6398   -4.9043   25.0970 C   0  0  0  0  0  0  0  0  0  0  0  0
  -22.1817   -4.7969   22.7450 C   0  0  0  0  0  0  0  0  0  0  0  0
  -24.6378  -11.4182   20.7436 C   0  0  0  0  0  0  0  0  0  0  0  0
  -29.2920  -22.5165   18.1367 C   0  0  0  0  0  0  0  0  0  0  0  0
  -29.7633  -24.7574   18.3214 C   0  0  0  0  0  0  0  0  0  0  0  0
  -25.9777  -13.0052   20.0217 C   0  0  0  0  0  0  0  0  0  0  0  0
  -25.9127  -10.9838   18.5525 C   0  0  0  0  0  0  0  0  0  0  0  0
  -21.0158  -26.0734   20.8267 C   0  0  0  0  0  0  0  0  0  0  0  0
  -20.7130  -23.6405   18.7027 C   0  0  0  0  0  0  0  0  0  0  0  0
  -22.2186  -21.5171   16.4955 C   0  0  0  0  0  0  0  0  0  0  0  0
  -25.0228  -18.2171   21.7736 C   0  0  0  0  0  0  0  0  0  0  0  0
  -17.9448  -29.4673   23.0868 C   0  0  0  0  0  0  0  0  0  0  0  0
  -22.2018  -27.0146   18.8109 C   0  0  0  0  0  0  0  0  0  0  0  0
  -23.0616  -24.2466   19.3970 C   0  0  0  0  0  0  0  0  0  0  0  0
  -17.7770  -28.0751   22.4835 C   0  0  0  0  0  0  0  0  0  0  0  0
  -25.4619  -15.7110   24.2642 C   0  0  0  0  0  0  0  0  0  0  0  0
  -18.8515  -27.1307   23.0130 C   0  0  0  0  0  0  0  0  0  0  0  0
  -25.3538  -14.3987   23.4857 C   0  0  0  0  0  0  0  0  0  0  0  0
  -24.5082  -16.7713   23.7182 C   0  0  0  0  0  0  0  0  0  0  0  0
  -24.5209  -15.7141   21.4920 C   0  0  0  0  0  0  0  0  0  0  0  0
  -20.2531  -27.6161   22.6237 C   0  0  1  0  0  0  0  0  0  0  0  0
  -21.2287  -25.9671   19.3431 C   0  0  1  0  0  0  0  0  0  0  0  0
  -25.5038  -14.6317   21.9703 C   0  0  2  0  0  0  0  0  0  0  0  0
  -28.7301  -24.1585   13.9454 C   0  0  0  0  0  0  0  0  0  0  0  0
  -21.7176  -19.6132   14.9395 C   0  0  0  0  0  0  0  0  0  0  0  0
  -20.4964  -21.7508   21.0885 C   0  0  0  0  0  0  0  0  0  0  0  0
  -20.9538  -19.8444   19.5313 C   0  0  0  0  0  0  0  0  0  0  0  0
  -18.9177  -21.2503   19.2146 C   0  0  0  0  0  0  0  0  0  0  0  0
  -23.1447  -23.0478   14.1379 C   0  0  0  0  0  0  0  0  0  0  0  0
  -30.0180  -23.8252   14.6942 C   0  0  0  0  0  0  0  0  0  0  0  0
  -28.9257  -21.2353   18.8084 C   0  0  0  0  0  0  0  0  0  0  0  0
  -29.9172  -25.9706   19.2062 C   0  0  0  0  0  0  0  0  0  0  0  0
  -27.4043  -21.0400   18.8966 C   0  0  0  0  0  0  0  0  0  0  0  0
  -27.0415  -19.7401   19.6207 C   0  0  0  0  0  0  0  0  0  0  0  0
  -25.5346  -19.5317   19.7317 C   0  0  0  0  0  0  0  0  0  0  0  0
  -28.6097  -26.7374   19.3714 C   0  0  0  0  0  0  0  0  0  1  0  0
  -21.1865  -22.2082   18.6430 C   0  0  1  0  0  0  0  0  0  0  0  0
  -21.8603  -21.1212   15.0745 C   0  0  2  0  0  0  0  0  0  0  0  0
  -20.4070  -21.2851   19.6215 C   0  0  0  0  0  0  0  0  0  0  0  0
  -24.5280  -12.3888   21.6545 N   0  0  0  0  0  0  0  0  0  0  0  0
  -29.4301  -23.5993   18.9341 N   0  0  0  0  0  0  0  0  0  0  0  0
  -25.3547  -13.3400   21.1878 N   0  0  0  0  0  0  0  0  0  0  0  0
  -21.6691  -24.5972   19.0720 N   0  0  0  0  0  0  0  0  0  0  0  0
  -24.7027  -16.9453   22.2767 N   0  0  0  0  0  0  0  0  0  0  0  0
  -26.8417  -13.8465   19.4150 N   0  0  0  0  0  0  0  0  0  0  0  0
  -25.3550   -9.7099   18.3784 N   0  0  0  0  0  0  0  0  0  0  0  0
  -20.5309  -27.2999   21.2390 N   0  0  0  0  0  0  0  0  0  0  0  0
  -21.0969  -21.8067   17.2433 N   0  0  0  0  0  0  0  0  0  0  0  0
  -25.1964  -18.2932   20.3971 N   0  0  0  0  0  0  0  0  0  0  0  0
  -22.9154  -21.5801   14.1273 N   0  3  0  0  0  0  0  0  0  0  0  0
  -26.7399  -11.4119   17.7122 O   0  0  0  0  0  0  0  0  0  0  0  0
  -21.2711  -25.1132   21.5440 O   0  0  0  0  0  0  0  0  0  0  0  0
  -19.5399  -23.9016   18.4247 O   0  0  0  0  0  0  0  0  0  0  0  0
  -23.3774  -21.5612   16.9026 O   0  0  0  0  0  0  0  0  0  0  0  0
  -25.1501  -19.2100   22.4981 O   0  0  0  0  0  0  0  0  0  0  0  0
  -21.7198   -6.6834   21.3214 O   0  0  0  0  0  0  0  0  0  0  0  0
  -27.6308  -25.8961   19.9800 O   0  0  0  0  0  0  0  0  0  1  0  0
  -21.6155   -4.3346   26.3090 F   0  0  0  0  0  0  0  0  0  0  0  0
  -22.6789   -4.1186   21.7017 F   0  0  0  0  0  0  0  0  0  0  0  0
  1  2  1  0  0  0  0
  1  5  2  0  0  0  0
  2  6  2  0  0  0  0
  3  8  2  0  0  0  0
  3 17  1  0  0  0  0
  4  9  1  0  0  0  0
  4 17  2  0  0  0  0
  5 19  1  0  0  0  0
  6 21  1  0  0  0  0
  7 10  2  0  0  0  0
  7 20  1  0  0  0  0
  8 24  1  0  0  0  0
  9 24  2  0  0  0  0
 10 25  1  0  0  0  0
 11 12  2  0  0  0  0
 11 26  1  0  0  0  0
 12 27  1  0  0  0  0
 13 22  1  0  0  0  0
 13 25  2  0  0  0  0
 14 23  1  0  0  0  0
 14 30  2  0  0  0  0
 15 23  2  0  0  0  0
 15 31  1  0  0  0  0
 16 27  2  0  0  0  0
 16 28  1  0  0  0  0
 17 29  1  0  0  0  0
 18 29  1  0  0  0  0
 18 32  2  0  0  0  0
 18 33  1  0  0  0  0
 19 21  2  0  0  0  0
 19 38  1  0  0  0  0
 20 22  2  0  0  0  0
 20 39  1  0  0  0  0
 21 47  1  0  0  0  0
 22 40  1  0  0  0  0
 23 56  1  0  0  0  0
 24 82  1  0  0  0  0
 25 83  1  0  0  0  0
 26 28  2  0  0  0  0
 26 82  1  0  0  0  0
 27 84  1  0  0  0  0
 28 85  1  0  0  0  0
 29 66  2  0  0  0  0
 30 57  1  0  0  0  0
 30 67  1  0  0  0  0
 31 58  1  0  0  0  0
 31 67  2  0  0  0  0
 32 68  1  0  0  0  0
 32 71  1  0  0  0  0
 33 72  1  0  0  0  0
 33 77  2  0  0  0  0
 34 48  1  0  0  0  0
 34 73  1  0  0  0  0
 34 78  2  0  0  0  0
 35 63  1  0  0  0  0
 35 69  1  0  0  0  0
 35 79  2  0  0  0  0
 36 64  1  0  0  0  0
 36 74  1  0  0  0  0
 36 80  2  0  0  0  0
 37 70  1  0  0  0  0
 37 75  1  0  0  0  0
 37 81  2  0  0  0  0
 38 41  1  0  0  0  0
 39 48  1  0  0  0  0
 40 69  1  0  0  0  0
 41 43  1  0  0  0  0
 42 44  1  0  0  0  0
 42 45  1  0  0  0  0
 43 47  1  0  0  0  0
 44 49  1  0  0  0  0
 45 70  1  0  0  0  0
 46 49  1  0  0  0  0
 46 70  1  0  0  0  0
 47 73  1  0  0  0  0
 48 69  1  0  0  0  0
 49 68  1  0  0  0  0
 50 56  1  0  0  0  0
 51 64  1  0  0  0  0
 52 65  1  0  0  0  0
 53 65  1  0  0  0  0
 54 65  1  0  0  0  0
 55 76  1  0  0  0  0
 57 59  1  0  0  0  0
 58 62  1  0  0  0  0
 59 60  1  0  0  0  0
 60 61  1  0  0  0  0
 61 75  1  0  0  0  0
 62 83  1  0  0  0  0
 63 65  1  0  0  0  0
 63 74  1  0  0  0  0
 64 76  1  0  0  0  0
 66 68  1  0  0  0  0
M  CHG  1  76   1
M  ISO  4  37 100  62 101  75 100  83 101
M  END
> <Batch ID>
0040

> <Smiles>
CCc1cc(CCCC[100NH:0][100C:0](=O)N2CCCC(n3nc(-c4ccc(Oc5ccc(F)cc5F)cc4)c(C(N)=O)c3N)C2)nc(C[101CH2:1][101O:1]c2ccc3c(c2)CN(C(=O)C(NC(=O)C(C)NC)C(C)(C)C)C(C(=O)NC2CCCc4ccccc42)C3)c1

> <Shape>
0.251

> <Color>
0.098

> <Negative vol penalty>
0.000

$$$$

  -OEChem-04052317073D

 86 94  0     1  0  0  0  0  0999 V2000
  -17.9662  -14.5069   21.0390 C   0  0  0  0  0  0  0  0  0  0  0  0
  -18.8467  -15.5570   20.7995 C   0  0  0  0  0  0  0  0  0  0  0  0
  -18.9710  -29.3068   22.1306 C   0  0  0  0  0  0  0  0  0  0  0  0
  -20.4027  -27.4338   22.6592 C   0  0  0  0  0  0  0  0  0  0  0  0
  -18.3849  -13.4029   21.7805 C   0  0  0  0  0  0  0  0  0  0  0  0
  -20.1462  -15.5042   21.3023 C   0  0  0  0  0  0  0  0  0  0  0  0
  -25.2077  -17.7228   18.6632 C   0  0  0  0  0  0  0  0  0  0  0  0
  -17.9018  -28.4334   21.9318 C   0  0  0  0  0  0  0  0  0  0  0  0
  -19.3334  -26.5604   22.4605 C   0  0  0  0  0  0  0  0  0  0  0  0
  -25.9209  -18.9062   18.8492 C   0  0  0  0  0  0  0  0  0  0  0  0
  -16.6064  -25.5341   24.1724 C   0  0  0  0  0  0  0  0  0  0  0  0
  -16.4119  -24.5251   25.1157 C   0  0  0  0  0  0  0  0  0  0  0  0
  -27.4240  -17.7579   20.3463 C   0  0  0  0  0  0  0  0  0  0  0  0
  -16.6965  -22.8577   23.3906 C   0  0  0  0  0  0  0  0  0  0  0  0
  -28.8719  -23.9859   20.9401 C   0  0  0  0  0  0  0  0  0  0  0  0
  -20.2215  -28.8070   22.4942 C   0  0  0  0  0  0  0  0  0  0  0  0
  -21.7011  -30.3345   23.9032 C   0  0  0  0  0  0  0  0  0  0  0  0
  -19.6932  -13.3322   22.2845 C   0  0  0  0  0  0  0  0  0  0  0  0
  -25.5914  -16.5486   19.3269 C   0  0  0  0  0  0  0  0  0  0  0  0
  -20.5824  -14.3989   22.0524 C   0  0  0  0  0  0  0  0  0  0  0  0
  -26.7155  -16.5603   20.1650 C   0  0  0  0  0  0  0  0  0  0  0  0
  -29.8030  -24.4504   20.0337 C   0  0  0  0  0  0  0  0  0  0  0  0
  -18.0829  -27.0603   22.0968 C   0  0  0  0  0  0  0  0  0  0  0  0
  -27.0275  -18.9246   19.6931 C   0  0  0  0  0  0  0  0  0  0  0  0
  -16.8460  -25.2049   22.8383 C   0  0  0  0  0  0  0  0  0  0  0  0
  -16.4569  -23.1869   24.7248 C   0  0  0  0  0  0  0  0  0  0  0  0
  -16.8910  -23.8667   22.4474 C   0  0  0  0  0  0  0  0  0  0  0  0
  -21.3266  -29.7086   22.6991 C   0  0  0  0  0  0  0  0  0  0  0  0
  -29.8440  -23.7847   18.8256 C   0  0  0  0  0  0  0  0  0  0  0  0
  -22.8041  -31.0832   23.5724 C   0  0  0  0  0  0  0  0  0  0  0  0
  -28.1768  -22.3861   19.4825 C   0  0  0  0  0  0  0  0  0  0  0  0
  -21.1053  -30.2469   25.2044 C   0  0  0  0  0  0  0  0  0  0  0  0
  -24.2217  -14.6246   21.4543 C   0  0  0  0  0  0  0  0  0  0  0  0
  -26.8422  -30.5435   19.1549 C   0  0  0  0  0  0  0  0  0  0  0  0
  -26.8680  -12.8191   20.9451 C   0  0  0  0  0  0  0  0  0  0  0  0
  -30.1283  -12.6740   19.9469 C   0  0  0  0  0  0  0  0  0  0  0  0
  -20.0856  -12.1399   23.1206 C   0  0  0  0  0  0  0  0  0  0  0  0
  -24.8276  -15.2739   19.0948 C   0  0  0  0  0  0  0  0  0  0  0  0
  -27.1808  -15.3219   20.8850 C   0  0  0  0  0  0  0  0  0  0  0  0
  -21.5943  -11.9917   23.2999 C   0  0  0  0  0  0  0  0  0  0  0  0
  -24.8066  -33.3958   19.9037 C   0  0  0  0  0  0  0  0  0  0  0  0
  -22.2221  -13.3317   23.6705 C   0  0  0  0  0  0  0  0  0  0  0  0
  -23.7015  -32.8251   20.7915 C   0  0  0  0  0  0  0  0  0  0  0  0
  -25.2361  -32.3961   18.8345 C   0  0  0  0  0  0  0  0  0  0  0  0
  -24.5542  -30.4966   20.2658 C   0  0  0  0  0  0  0  0  0  0  0  0
  -22.0077  -14.3672   22.5601 C   0  0  1  0  0  0  0  0  0  0  0  0
  -25.0001  -14.2603   20.2218 C   0  0  1  0  0  0  0  0  0  0  0  0
  -24.1124  -31.4632   21.3789 C   0  0  2  0  0  0  0  0  0  0  0  0
  -32.7865  -22.2480   15.0436 C   0  0  0  0  0  0  0  0  0  0  0  0
  -32.0359  -11.0661   19.6763 C   0  0  0  0  0  0  0  0  0  0  0  0
  -27.3087  -12.8375   23.9643 C   0  0  0  0  0  0  0  0  0  0  0  0
  -29.6566  -12.0698   23.5561 C   0  0  0  0  0  0  0  0  0  0  0  0
  -27.7383  -10.6348   22.8607 C   0  0  0  0  0  0  0  0  0  0  0  0
  -30.2852  -13.1701   17.0335 C   0  0  0  0  0  0  0  0  0  0  0  0
  -30.6918  -25.5939   20.3621 C   0  0  0  0  0  0  0  0  0  0  0  0
  -30.8121  -24.2002   17.7676 C   0  0  0  0  0  0  0  0  0  0  0  0
  -27.2676  -21.2330   19.1740 C   0  0  0  0  0  0  0  0  0  1  0  0
  -27.1432  -29.2182   19.8082 C   0  0  0  0  0  0  0  0  0  0  0  0
  -32.2992  -23.4358   15.8580 C   0  0  0  0  0  0  0  0  0  0  0  0
  -30.2940  -26.9282   19.6988 C   0  0  0  0  0  0  0  0  0  0  0  0
  -31.2787  -23.0107   16.9138 C   0  0  0  0  0  0  0  0  0  0  0  0
  -28.5321  -28.7200   19.4208 C   0  0  0  0  0  0  0  0  0  0  0  0
  -28.8807  -27.3814   20.0803 C   0  0  0  0  0  0  0  0  0  0  0  0
  -28.2447  -12.7427   21.5599 C   0  0  1  0  0  0  0  0  0  0  0  0
  -30.8503  -11.7346   18.9978 C   0  0  2  0  0  0  0  0  0  0  0  0
  -28.2274  -12.0952   22.9733 C   0  0  0  0  0  0  0  0  0  0  0  0
  -28.0397  -22.9522   20.6966 N   0  0  0  0  0  0  0  0  0  0  0  0
  -22.1266  -30.0317   21.6795 N   0  0  0  0  0  0  0  0  0  0  0  0
  -29.0427  -22.7445   18.5153 N   0  0  0  0  0  0  0  0  0  0  0  0
  -23.0148  -30.8688   22.2421 N   0  0  0  0  0  0  0  0  0  0  0  0
  -26.3972  -14.1017   20.6305 N   0  0  0  0  0  0  0  0  0  0  0  0
  -25.5969  -31.1086   19.4306 N   0  0  0  0  0  0  0  0  0  0  0  0
  -23.6046  -31.8974   24.2926 N   0  0  0  0  0  0  0  0  0  0  0  0
  -19.9770  -29.4319   25.3691 N   0  0  0  0  0  0  0  0  0  0  0  0
  -22.9293  -14.1359   21.4685 N   0  0  0  0  0  0  0  0  0  0  0  0
  -29.0853  -12.0448   20.5931 N   0  0  0  0  0  0  0  0  0  0  0  0
  -31.3492  -12.4821   17.8090 N   0  3  0  0  0  0  0  0  0  0  0  0
  -21.5501  -30.8856   26.1880 O   0  0  0  0  0  0  0  0  0  0  0  0
  -24.7548  -15.2980   22.3284 O   0  0  0  0  0  0  0  0  0  0  0  0
  -27.6909  -31.0610   18.4240 O   0  0  0  0  0  0  0  0  0  0  0  0
  -26.2367  -11.7785   20.7446 O   0  0  0  0  0  0  0  0  0  0  0  0
  -30.4590  -13.8474   20.1025 O   0  0  0  0  0  0  0  0  0  0  0  0
  -17.0397  -26.2078   21.9032 O   0  0  0  0  0  0  0  0  0  0  0  0
  -27.7250  -20.0785   19.8770 O   0  0  0  0  0  0  0  0  0  1  0  0
  -16.2716  -22.2181   25.6309 F   0  0  0  0  0  0  0  0  0  0  0  0
  -17.1220  -23.5442   21.1674 F   0  0  0  0  0  0  0  0  0  0  0  0
  1  2  1  0  0  0  0
  1  5  2  0  0  0  0
  2  6  2  0  0  0  0
  3  8  2  0  0  0  0
  3 16  1  0  0  0  0
  4  9  1  0  0  0  0
  4 16  2  0  0  0  0
  5 18  1  0  0  0  0
  6 20  1  0  0  0  0
  7 10  2  0  0  0  0
  7 19  1  0  0  0  0
  8 23  1  0  0  0  0
  9 23  2  0  0  0  0
 10 24  1  0  0  0  0
 11 12  2  0  0  0  0
 11 25  1  0  0  0  0
 12 26  1  0  0  0  0
 13 21  1  0  0  0  0
 13 24  2  0  0  0  0
 14 26  2  0  0  0  0
 14 27  1  0  0  0  0
 15 22  1  0  0  0  0
 15 67  2  0  0  0  0
 16 28  1  0  0  0  0
 17 28  1  0  0  0  0
 17 30  2  0  0  0  0
 17 32  1  0  0  0  0
 18 20  2  0  0  0  0
 18 37  1  0  0  0  0
 19 21  2  0  0  0  0
 19 38  1  0  0  0  0
 20 46  1  0  0  0  0
 21 39  1  0  0  0  0
 22 29  2  0  0  0  0
 22 55  1  0  0  0  0
 23 83  1  0  0  0  0
 24 84  1  0  0  0  0
 25 27  2  0  0  0  0
 25 83  1  0  0  0  0
 26 85  1  0  0  0  0
 27 86  1  0  0  0  0
 28 68  2  0  0  0  0
 29 56  1  0  0  0  0
 29 69  1  0  0  0  0
 30 70  1  0  0  0  0
 30 73  1  0  0  0  0
 31 57  1  0  0  0  0
 31 67  1  0  0  0  0
 31 69  2  0  0  0  0
 32 74  1  0  0  0  0
 32 78  2  0  0  0  0
 33 47  1  0  0  0  0
 33 75  1  0  0  0  0
 33 79  2  0  0  0  0
 34 58  1  0  0  0  0
 34 72  1  0  0  0  0
 34 80  2  0  0  0  0
 35 64  1  0  0  0  0
 35 71  1  0  0  0  0
 35 81  2  0  0  0  0
 36 65  1  0  0  0  0
 36 76  1  0  0  0  0
 36 82  2  0  0  0  0
 37 40  1  0  0  0  0
 38 47  1  0  0  0  0
 39 71  1  0  0  0  0
 40 42  1  0  0  0  0
 41 43  1  0  0  0  0
 41 44  1  0  0  0  0
 42 46  1  0  0  0  0
 43 48  1  0  0  0  0
 44 72  1  0  0  0  0
 45 48  1  0  0  0  0
 45 72  1  0  0  0  0
 46 75  1  0  0  0  0
 47 71  1  0  0  0  0
 48 70  1  0  0  0  0
 49 59  1  0  0  0  0
 50 65  1  0  0  0  0
 51 66  1  0  0  0  0
 52 66  1  0  0  0  0
 53 66  1  0  0  0  0
 54 77  1  0  0  0  0
 55 60  1  0  0  0  0
 56 61  1  0  0  0  0
 57 84  1  0  0  0  0
 58 62  1  0  0  0  0
 59 61  1  0  0  0  0
 60 63  1  0  0  0  0
 62 63  1  0  0  0  0
 64 66  1  0  0  0  0
 64 76  1  0  0  0  0
 65 77  1  0  0  0  0
 68 70  1  0  0  0  0
M  CHG  1  77   1
M  ISO  4  34 100  57 101  58 100  84 101
M  END
> <Batch ID>
0040

> <Smiles>
CCCCc1nc([101CH2:1][101O:1]c2ccc3c(c2)CN(C(=O)C(NC(=O)C(C)NC)C(C)(C)C)C(C(=O)NC2CCCc4ccccc42)C3)ncc1CCCC[100CH2:0][100C:0](=O)N1CCCC(n2nc(-c3ccc(Oc4ccc(F)cc4F)cc3)c(C(N)=O)c2N)C1

> <Shape>
0.259

> <Color>
0.065

> <Negative vol penalty>
0.000

$$$$

  -OEChem-04052317073D

 83 91  0     1  0  0  0  0  0999 V2000
  -16.1938  -27.2584   25.5971 C   0  0  0  0  0  0  0  0  0  0  0  0
  -17.0290  -26.3396   26.2246 C   0  0  0  0  0  0  0  0  0  0  0  0
  -23.0130   -9.9712   19.9783 C   0  0  0  0  0  0  0  0  0  0  0  0
  -23.7892   -9.9711   22.2662 C   0  0  0  0  0  0  0  0  0  0  0  0
  -16.4650  -27.6675   24.2921 C   0  0  0  0  0  0  0  0  0  0  0  0
  -18.1354  -25.8286   25.5470 C   0  0  0  0  0  0  0  0  0  0  0  0
  -24.8237  -23.5392   26.7056 C   0  0  0  0  0  0  0  0  0  0  0  0
  -22.2409   -8.8395   20.2401 C   0  0  0  0  0  0  0  0  0  0  0  0
  -23.0170   -8.8394   22.5281 C   0  0  0  0  0  0  0  0  0  0  0  0
  -25.6465  -22.4433   26.4494 C   0  0  0  0  0  0  0  0  0  0  0  0
  -19.7734   -8.1303   23.1578 C   0  0  0  0  0  0  0  0  0  0  0  0
  -19.0241   -8.1169   24.3342 C   0  0  0  0  0  0  0  0  0  0  0  0
  -26.0616  -23.2824   24.2261 C   0  0  0  0  0  0  0  0  0  0  0  0
  -28.6415  -17.2692   24.2637 C   0  0  0  0  0  0  0  0  0  0  0  0
  -20.2193   -6.1516   25.0732 C   0  0  0  0  0  0  0  0  0  0  0  0
  -30.2736  -18.3000   25.6531 C   0  0  0  0  0  0  0  0  0  0  0  0
  -23.7873  -10.5370   20.9913 C   0  0  0  0  0  0  0  0  0  0  0  0
  -24.1945  -13.0516   20.8542 C   0  0  0  0  0  0  0  0  0  0  0  0
  -17.5808  -27.1685   23.6016 C   0  0  0  0  0  0  0  0  0  0  0  0
  -24.6045  -24.5109   25.7186 C   0  0  0  0  0  0  0  0  0  0  0  0
  -18.4211  -26.2304   24.2311 C   0  0  0  0  0  0  0  0  0  0  0  0
  -25.2375  -24.3910   24.4732 C   0  0  0  0  0  0  0  0  0  0  0  0
  -29.9375  -17.2892   24.7670 C   0  0  0  0  0  0  0  0  0  0  0  0
  -27.7340  -18.2468   24.6563 C   0  0  0  0  0  0  0  0  0  0  0  0
  -22.2429   -8.2736   21.5150 C   0  0  0  0  0  0  0  0  0  0  0  0
  -26.2633  -22.3132   25.2085 C   0  0  0  0  0  0  0  0  0  0  0  0
  -20.7457   -7.1543   22.9390 C   0  0  0  0  0  0  0  0  0  0  0  0
  -19.2470   -7.1276   25.2919 C   0  0  0  0  0  0  0  0  0  0  0  0
  -20.9687   -6.1650   23.8968 C   0  0  0  0  0  0  0  0  0  0  0  0
  -24.5855  -11.7058   20.7213 C   0  0  0  0  0  0  0  0  0  0  0  0
  -28.1687  -19.2146   25.5475 C   0  0  0  0  0  0  0  0  0  0  0  0
  -25.3033  -13.7700   20.4789 C   0  0  0  0  0  0  0  0  0  0  0  0
  -22.9410  -13.6030   21.2790 C   0  0  0  0  0  0  0  0  0  0  0  0
  -22.0562  -25.5736   24.1437 C   0  0  0  0  0  0  0  0  0  0  0  0
  -24.1660  -27.7443   22.9780 C   0  0  0  0  0  0  0  0  0  0  0  0
  -27.4086  -28.5468   22.2792 C   0  0  0  0  0  0  0  0  0  0  0  0
  -30.8132  -14.6454   20.6230 C   0  0  0  0  0  0  0  0  0  0  0  0
  -17.8065  -27.6044   22.1755 C   0  0  0  0  0  0  0  0  0  0  0  0
  -23.7354  -25.7010   26.0199 C   0  0  0  0  0  0  0  0  0  0  0  0
  -25.0510  -25.4172   23.3867 C   0  0  0  0  0  0  0  0  0  0  0  0
  -19.2107  -27.2994   21.6604 C   0  0  0  0  0  0  0  0  0  0  0  0
  -29.5963  -12.2782   18.2582 C   0  0  0  0  0  0  0  0  0  0  0  0
  -19.6121  -25.8718   22.0178 C   0  0  0  0  0  0  0  0  0  0  0  0
  -28.1547  -12.0249   18.7029 C   0  0  0  0  0  0  0  0  0  0  0  0
  -30.5274  -12.4816   19.4513 C   0  0  0  0  0  0  0  0  0  0  0  0
  -28.6555  -13.2703   20.8469 C   0  0  0  0  0  0  0  0  0  0  0  0
  -19.6449  -25.6721   23.5378 C   0  0  1  0  0  0  0  0  0  0  0  0
  -23.1731  -26.3630   24.7657 C   0  0  1  0  0  0  0  0  0  0  0  0
  -27.6687  -13.1148   19.6771 C   0  0  2  0  0  0  0  0  0  0  0  0
  -26.2677  -18.7586   22.6880 C   0  0  0  0  0  0  0  0  0  0  0  0
  -28.8171  -30.3753   21.2944 C   0  0  0  0  0  0  0  0  0  0  0  0
  -23.2808  -26.9149   20.1783 C   0  0  0  0  0  0  0  0  0  0  0  0
  -25.3295  -28.0348   19.2744 C   0  0  0  0  0  0  0  0  0  0  0  0
  -23.6077  -29.3756   20.4829 C   0  0  0  0  0  0  0  0  0  0  0  0
  -28.8929  -28.9259   24.8114 C   0  0  0  0  0  0  0  0  0  0  0  0
  -30.9316  -16.2576   24.3676 C   0  0  0  0  0  0  0  0  0  0  0  0
  -26.3444  -18.2323   24.1195 C   0  0  0  0  0  0  0  0  0  0  0  0
  -27.2330  -20.2938   26.0070 C   0  0  0  0  0  0  0  0  0  1  0  0
  -31.7665  -16.6189   23.1211 C   0  0  0  0  0  0  0  0  0  0  0  0
  -30.9444  -16.8004   21.8469 C   0  0  0  0  0  0  0  0  0  0  0  0
  -25.0939  -27.8013   21.7886 C   0  0  1  0  0  0  0  0  0  0  0  0
  -28.2220  -29.7955   22.5681 C   0  0  2  0  0  0  0  0  0  0  0  0
  -24.3302  -28.0111   20.4506 C   0  0  0  0  0  0  0  0  0  0  0  0
  -29.4195  -19.2666   26.0578 N   0  0  0  0  0  0  0  0  0  0  0  0
  -25.8444  -11.5743   20.2947 N   0  0  0  0  0  0  0  0  0  0  0  0
  -26.2540  -12.8468   20.1563 N   0  0  0  0  0  0  0  0  0  0  0  0
  -24.1868  -26.5595   23.7274 N   0  0  0  0  0  0  0  0  0  0  0  0
  -30.0105  -13.5292   20.3351 N   0  0  0  0  0  0  0  0  0  0  0  0
  -25.5481  -15.0950   20.3967 N   0  0  0  0  0  0  0  0  0  0  0  0
  -21.9080  -12.7227   21.6286 N   0  0  0  0  0  0  0  0  0  0  0  0
  -20.8500  -26.2462   24.0971 N   0  0  0  0  0  0  0  0  0  0  0  0
  -26.0751  -28.8392   22.0857 N   0  0  0  0  0  0  0  0  0  0  0  0
  -30.2447  -15.5944   21.4638 N   0  0  0  0  0  0  0  0  0  0  0  0
  -29.3360  -29.4824   23.5072 N   0  3  0  0  0  0  0  0  0  0  0  0
  -22.7376  -14.8398   21.3308 O   0  0  0  0  0  0  0  0  0  0  0  0
  -22.2730  -24.4389   23.7350 O   0  0  0  0  0  0  0  0  0  0  0  0
  -23.4544  -28.7180   23.2370 O   0  0  0  0  0  0  0  0  0  0  0  0
  -27.9071  -27.4246   22.2265 O   0  0  0  0  0  0  0  0  0  0  0  0
  -31.9501  -14.7883   20.1605 O   0  0  0  0  0  0  0  0  0  0  0  0
  -21.4894   -7.1694   21.7710 O   0  0  0  0  0  0  0  0  0  0  0  0
  -27.0665  -21.2442   24.9556 O   0  0  0  0  0  0  0  0  0  1  0  0
  -18.5284   -7.1158   26.4222 F   0  0  0  0  0  0  0  0  0  0  0  0
  -21.9022   -5.2254   23.6928 F   0  0  0  0  0  0  0  0  0  0  0  0
  1  2  1  0  0  0  0
  1  5  2  0  0  0  0
  2  6  2  0  0  0  0
  3  8  2  0  0  0  0
  3 17  1  0  0  0  0
  4  9  1  0  0  0  0
  4 17  2  0  0  0  0
  5 19  1  0  0  0  0
  6 21  1  0  0  0  0
  7 10  2  0  0  0  0
  7 20  1  0  0  0  0
  8 25  1  0  0  0  0
  9 25  2  0  0  0  0
 10 26  1  0  0  0  0
 11 12  2  0  0  0  0
 11 27  1  0  0  0  0
 12 28  1  0  0  0  0
 13 22  1  0  0  0  0
 13 26  2  0  0  0  0
 14 23  2  0  0  0  0
 14 24  1  0  0  0  0
 15 28  2  0  0  0  0
 15 29  1  0  0  0  0
 16 23  1  0  0  0  0
 16 64  2  0  0  0  0
 17 30  1  0  0  0  0
 18 30  1  0  0  0  0
 18 32  2  0  0  0  0
 18 33  1  0  0  0  0
 19 21  2  0  0  0  0
 19 38  1  0  0  0  0
 20 22  2  0  0  0  0
 20 39  1  0  0  0  0
 21 47  1  0  0  0  0
 22 40  1  0  0  0  0
 23 56  1  0  0  0  0
 24 31  2  0  0  0  0
 24 57  1  0  0  0  0
 25 80  1  0  0  0  0
 26 81  1  0  0  0  0
 27 29  2  0  0  0  0
 27 80  1  0  0  0  0
 28 82  1  0  0  0  0
 29 83  1  0  0  0  0
 30 65  2  0  0  0  0
 31 58  1  0  0  0  0
 31 64  1  0  0  0  0
 32 66  1  0  0  0  0
 32 69  1  0  0  0  0
 33 70  1  0  0  0  0
 33 75  2  0  0  0  0
 34 48  1  0  0  0  0
 34 71  1  0  0  0  0
 34 76  2  0  0  0  0
 35 61  1  0  0  0  0
 35 67  1  0  0  0  0
 35 77  2  0  0  0  0
 36 62  1  0  0  0  0
 36 72  1  0  0  0  0
 36 78  2  0  0  0  0
 37 68  1  0  0  0  0
 37 73  1  0  0  0  0
 37 79  2  0  0  0  0
 38 41  1  0  0  0  0
 39 48  1  0  0  0  0
 40 67  1  0  0  0  0
 41 43  1  0  0  0  0
 42 44  1  0  0  0  0
 42 45  1  0  0  0  0
 43 47  1  0  0  0  0
 44 49  1  0  0  0  0
 45 68  1  0  0  0  0
 46 49  1  0  0  0  0
 46 68  1  0  0  0  0
 47 71  1  0  0  0  0
 48 67  1  0  0  0  0
 49 66  1  0  0  0  0
 50 57  1  0  0  0  0
 51 62  1  0  0  0  0
 52 63  1  0  0  0  0
 53 63  1  0  0  0  0
 54 63  1  0  0  0  0
 55 74  1  0  0  0  0
 56 59  1  0  0  0  0
 58 81  1  0  0  0  0
 59 60  1  0  0  0  0
 60 73  1  0  0  0  0
 61 63  1  0  0  0  0
 61 72  1  0  0  0  0
 62 74  1  0  0  0  0
 65 66  1  0  0  0  0
M  CHG  1  74   1
M  ISO  4  37 100  58 101  73 100  81 101
M  END
> <Batch ID>
0040

> <Smiles>
CCc1cc(CCC[100NH:0][100C:0](=O)N2CCCC(n3nc(-c4ccc(Oc5ccc(F)cc5F)cc4)c(C(N)=O)c3N)C2)cnc1[101CH2:1][101O:1]c1ccc2c(c1)CN(C(=O)C(NC(=O)C(C)NC)C(C)(C)C)C(C(=O)NC1CCCc3ccccc31)C2

> <Shape>
0.248

> <Color>
0.220

> <Negative vol penalty>
0.000

$$$$

  -OEChem-04052317073D

 82 90  0     1  0  0  0  0  0999 V2000
  -31.2336  -23.7146   16.4986 C   0  0  0  0  0  0  0  0  0  0  0  0
  -29.8639  -23.9586   16.5033 C   0  0  0  0  0  0  0  0  0  0  0  0
  -26.4015  -13.2298   19.1770 C   0  0  0  0  0  0  0  0  0  0  0  0
  -24.3866  -13.7788   20.3919 C   0  0  0  0  0  0  0  0  0  0  0  0
  -31.9588  -23.7950   17.6867 C   0  0  0  0  0  0  0  0  0  0  0  0
  -29.2185  -24.2821   17.6963 C   0  0  0  0  0  0  0  0  0  0  0  0
  -24.4851  -28.1033   18.4026 C   0  0  0  0  0  0  0  0  0  0  0  0
  -26.4276  -11.9757   19.7870 C   0  0  0  0  0  0  0  0  0  0  0  0
  -24.4127  -12.5246   21.0019 C   0  0  0  0  0  0  0  0  0  0  0  0
  -23.1133  -27.8851   18.5226 C   0  0  0  0  0  0  0  0  0  0  0  0
  -23.5946   -9.3466   20.1948 C   0  0  0  0  0  0  0  0  0  0  0  0
  -22.3961   -8.6365   20.2646 C   0  0  0  0  0  0  0  0  0  0  0  0
  -23.3144  -27.9805   20.9246 C   0  0  0  0  0  0  0  0  0  0  0  0
  -22.5460   -8.6205   22.6759 C   0  0  0  0  0  0  0  0  0  0  0  0
  -22.2803  -22.7593   19.7665 C   0  0  0  0  0  0  0  0  0  0  0  0
  -20.5212  -23.1750   21.0186 C   0  0  0  0  0  0  0  0  0  0  0  0
  -25.3810  -14.1314   19.4795 C   0  0  0  0  0  0  0  0  0  0  0  0
  -24.7190  -15.7723   17.6419 C   0  0  0  0  0  0  0  0  0  0  0  0
  -31.3237  -24.1291   18.8932 C   0  0  0  0  0  0  0  0  0  0  0  0
  -25.2849  -28.2511   19.5449 C   0  0  0  0  0  0  0  0  0  0  0  0
  -29.9357  -24.3657   18.9018 C   0  0  0  0  0  0  0  0  0  0  0  0
  -24.6957  -28.2030   20.8163 C   0  0  0  0  0  0  0  0  0  0  0  0
  -21.6028  -22.3337   20.9248 C   0  0  0  0  0  0  0  0  0  0  0  0
  -25.4332  -11.6231   20.6994 C   0  0  0  0  0  0  0  0  0  0  0  0
  -22.5282  -27.8209   19.7838 C   0  0  0  0  0  0  0  0  0  0  0  0
  -24.2689   -9.6936   21.3656 C   0  0  0  0  0  0  0  0  0  0  0  0
  -21.8718   -8.2734   21.5051 C   0  0  0  0  0  0  0  0  0  0  0  0
  -23.7446   -9.3306   22.6061 C   0  0  0  0  0  0  0  0  0  0  0  0
  -25.3538  -15.4272   18.8502 C   0  0  0  0  0  0  0  0  0  0  0  0
  -24.9868  -17.1101   17.4833 C   0  0  0  0  0  0  0  0  0  0  0  0
  -23.9556  -14.9566   16.7434 C   0  0  0  0  0  0  0  0  0  0  0  0
  -27.7320  -26.6510   20.7922 C   0  0  0  0  0  0  0  0  0  0  0  0
  -27.7734  -29.1229   22.8923 C   0  0  0  0  0  0  0  0  0  0  0  0
  -26.0702  -31.6541   24.4217 C   0  0  0  0  0  0  0  0  0  0  0  0
  -26.2926  -21.4933   21.3476 C   0  0  0  0  0  0  0  0  0  0  0  0
  -32.1411  -24.1576   20.1603 C   0  0  0  0  0  0  0  0  0  0  0  0
  -26.7589  -28.5124   19.3978 C   0  0  0  0  0  0  0  0  0  0  0  0
  -25.5070  -28.3757   22.0734 C   0  0  0  0  0  0  0  0  0  0  0  0
  -31.4476  -24.8733   21.3166 C   0  0  0  0  0  0  0  0  0  0  0  0
  -28.2552  -20.4296   18.5739 C   0  0  0  0  0  0  0  0  0  0  0  0
  -29.9995  -24.4102   21.4395 C   0  0  0  0  0  0  0  0  0  0  0  0
  -27.6769  -19.0581   18.2211 C   0  0  0  0  0  0  0  0  0  0  0  0
  -28.2567  -20.6706   20.0818 C   0  0  0  0  0  0  0  0  0  0  0  0
  -26.3717  -19.1126   20.3873 C   0  0  0  0  0  0  0  0  0  0  0  0
  -29.2041  -24.7436   20.1715 C   0  0  1  0  0  0  0  0  0  0  0  0
  -27.5594  -28.1360   20.6407 C   0  0  1  0  0  0  0  0  0  0  0  0
  -26.2977  -18.8463   18.8741 C   0  0  2  0  0  0  0  0  0  0  0  0
  -26.3603  -33.4800   26.1185 C   0  0  0  0  0  0  0  0  0  0  0  0
  -27.6436  -27.0570   25.1339 C   0  0  0  0  0  0  0  0  0  0  0  0
  -26.9846  -28.8978   26.6978 C   0  0  0  0  0  0  0  0  0  0  0  0
  -29.2044  -28.9637   25.5616 C   0  0  0  0  0  0  0  0  0  0  0  0
  -25.4474  -33.7578   22.4354 C   0  0  0  0  0  0  0  0  0  0  0  0
  -21.9675  -21.2334   21.8313 C   0  0  0  0  0  0  0  0  0  0  0  0
  -22.8901  -21.6315   23.0113 C   0  0  0  0  0  0  0  0  0  0  0  0
  -19.4696  -26.1547   20.7331 C   0  0  0  0  0  0  0  0  0  0  0  0
  -19.6561  -25.1338   19.6084 C   0  0  0  0  0  0  0  0  0  0  0  0
  -24.2500  -22.1767   22.5803 C   0  0  0  0  0  0  0  0  0  0  0  0
  -20.7437  -26.9196   21.0719 C   0  0  0  0  0  0  0  0  0  1  0  0
  -27.1103  -29.4111   24.2175 C   0  0  1  0  0  0  0  0  0  0  0  0
  -26.4211  -33.1142   24.6437 C   0  0  2  0  0  0  0  0  0  0  0  0
  -27.7205  -28.5772   25.3793 C   0  0  0  0  0  0  0  0  0  0  0  0
  -21.6794  -23.7908   19.1674 N   0  0  0  0  0  0  0  0  0  0  0  0
  -25.9779  -16.4623   19.4186 N   0  0  0  0  0  0  0  0  0  0  0  0
  -20.6129  -24.0203   19.9521 N   0  0  0  0  0  0  0  0  0  0  0  0
  -25.7368  -17.4708   18.5638 N   0  0  0  0  0  0  0  0  0  0  0  0
  -26.9451  -28.6228   21.8776 N   0  0  0  0  0  0  0  0  0  0  0  0
  -26.9191  -20.4549   20.6389 N   0  0  0  0  0  0  0  0  0  0  0  0
  -24.6517  -18.0012   16.5262 N   0  0  0  0  0  0  0  0  0  0  0  0
  -23.7773  -13.6025   17.0580 N   0  0  0  0  0  0  0  0  0  0  0  0
  -28.8480  -26.1462   20.1525 N   0  0  0  0  0  0  0  0  0  0  0  0
  -27.1937  -30.8548   24.4103 N   0  0  0  0  0  0  0  0  0  0  0  0
  -25.0238  -21.2078   21.8367 N   0  0  0  0  0  0  0  0  0  0  0  0
  -25.4734  -33.9933   23.9020 N   0  3  0  0  0  0  0  0  0  0  0  0
  -23.4604  -15.4111   15.6843 O   0  0  0  0  0  0  0  0  0  0  0  0
  -26.9140  -26.0110   21.4425 O   0  0  0  0  0  0  0  0  0  0  0  0
  -28.9804  -29.3405   22.7600 O   0  0  0  0  0  0  0  0  0  0  0  0
  -24.9147  -31.2613   24.2769 O   0  0  0  0  0  0  0  0  0  0  0  0
  -26.8225  -22.5953   21.5263 O   0  0  0  0  0  0  0  0  0  0  0  0
  -25.4583  -10.3993   21.2946 O   0  0  0  0  0  0  0  0  0  0  0  0
  -21.1896  -27.6074   19.9038 O   0  0  0  0  0  0  0  0  0  1  0  0
  -20.7200   -7.5929   21.5720 F   0  0  0  0  0  0  0  0  0  0  0  0
  -24.3872   -9.6622   23.7343 F   0  0  0  0  0  0  0  0  0  0  0  0
  1  2  1  0  0  0  0
  1  5  2  0  0  0  0
  2  6  2  0  0  0  0
  3  8  2  0  0  0  0
  3 17  1  0  0  0  0
  4  9  1  0  0  0  0
  4 17  2  0  0  0  0
  5 19  1  0  0  0  0
  6 21  1  0  0  0  0
  7 10  2  0  0  0  0
  7 20  1  0  0  0  0
  8 24  1  0  0  0  0
  9 24  2  0  0  0  0
 10 25  1  0  0  0  0
 11 12  2  0  0  0  0
 11 26  1  0  0  0  0
 12 27  1  0  0  0  0
 13 22  1  0  0  0  0
 13 25  2  0  0  0  0
 14 27  2  0  0  0  0
 14 28  1  0  0  0  0
 15 23  1  0  0  0  0
 15 62  2  0  0  0  0
 16 23  2  0  0  0  0
 16 64  1  0  0  0  0
 17 29  1  0  0  0  0
 18 29  1  0  0  0  0
 18 30  2  0  0  0  0
 18 31  1  0  0  0  0
 19 21  2  0  0  0  0
 19 36  1  0  0  0  0
 20 22  2  0  0  0  0
 20 37  1  0  0  0  0
 21 45  1  0  0  0  0
 22 38  1  0  0  0  0
 23 53  1  0  0  0  0
 24 79  1  0  0  0  0
 25 80  1  0  0  0  0
 26 28  2  0  0  0  0
 26 79  1  0  0  0  0
 27 81  1  0  0  0  0
 28 82  1  0  0  0  0
 29 63  2  0  0  0  0
 30 65  1  0  0  0  0
 30 68  1  0  0  0  0
 31 69  1  0  0  0  0
 31 74  2  0  0  0  0
 32 46  1  0  0  0  0
 32 70  1  0  0  0  0
 32 75  2  0  0  0  0
 33 59  1  0  0  0  0
 33 66  1  0  0  0  0
 33 76  2  0  0  0  0
 34 60  1  0  0  0  0
 34 71  1  0  0  0  0
 34 77  2  0  0  0  0
 35 67  1  0  0  0  0
 35 72  1  0  0  0  0
 35 78  2  0  0  0  0
 36 39  1  0  0  0  0
 37 46  1  0  0  0  0
 38 66  1  0  0  0  0
 39 41  1  0  0  0  0
 40 42  1  0  0  0  0
 40 43  1  0  0  0  0
 41 45  1  0  0  0  0
 42 47  1  0  0  0  0
 43 67  1  0  0  0  0
 44 47  1  0  0  0  0
 44 67  1  0  0  0  0
 45 70  1  0  0  0  0
 46 66  1  0  0  0  0
 47 65  1  0  0  0  0
 48 60  1  0  0  0  0
 49 61  1  0  0  0  0
 50 61  1  0  0  0  0
 51 61  1  0  0  0  0
 52 73  1  0  0  0  0
 53 54  1  0  0  0  0
 54 57  1  0  0  0  0
 55 56  1  0  0  0  0
 55 58  1  0  0  0  0
 56 64  1  0  0  0  0
 57 72  1  0  0  0  0
 58 80  1  0  0  0  0
 59 61  1  0  0  0  0
 59 71  1  0  0  0  0
 60 73  1  0  0  0  0
 62 64  1  0  0  0  0
 63 65  1  0  0  0  0
M  CHG  1  73   1
M  ISO  4  35 100  58 101  72 100  80 101
M  END
> <Batch ID>
0040

> <Smiles>
CNC(C)C(=O)NC(C(=O)N1Cc2cc([101O:1][101CH2:1]CCn3cc(CCC[100NH:0][100C:0](=O)N4CCCC(n5nc(-c6ccc(Oc7ccc(F)cc7F)cc6)c(C(N)=O)c5N)C4)cn3)ccc2CC1C(=O)NC1CCCc2ccccc21)C(C)(C)C

> <Shape>
0.238

> <Color>
0.065

> <Negative vol penalty>
0.000

$$$$

  -OEChem-04052317073D

 82 90  0     1  0  0  0  0  0999 V2000
  -17.5188  -31.9633   24.1128 C   0  0  0  0  0  0  0  0  0  0  0  0
  -18.5891  -32.2873   23.2852 C   0  0  0  0  0  0  0  0  0  0  0  0
  -25.2513  -16.2592   21.5619 C   0  0  0  0  0  0  0  0  0  0  0  0
  -25.2343  -16.0372   19.1562 C   0  0  0  0  0  0  0  0  0  0  0  0
  -17.6311  -30.9053   25.0138 C   0  0  0  0  0  0  0  0  0  0  0  0
  -19.7729  -31.5541   23.3591 C   0  0  0  0  0  0  0  0  0  0  0  0
  -25.1672  -29.2327   19.2567 C   0  0  0  0  0  0  0  0  0  0  0  0
  -24.0150  -15.6169   21.6299 C   0  0  0  0  0  0  0  0  0  0  0  0
  -23.9980  -15.3949   19.2242 C   0  0  0  0  0  0  0  0  0  0  0  0
  -26.5604  -29.2349   19.2067 C   0  0  0  0  0  0  0  0  0  0  0  0
  -22.8421  -12.4491   21.4806 C   0  0  0  0  0  0  0  0  0  0  0  0
  -22.6787  -11.4584   22.4487 C   0  0  0  0  0  0  0  0  0  0  0  0
  -26.6125  -27.3778   20.7455 C   0  0  0  0  0  0  0  0  0  0  0  0
  -20.8693  -12.7199   23.4344 C   0  0  0  0  0  0  0  0  0  0  0  0
  -31.2354  -27.0507   18.6983 C   0  0  0  0  0  0  0  0  0  0  0  0
  -25.8610  -16.4694   20.3250 C   0  0  0  0  0  0  0  0  0  0  0  0
  -28.4110  -16.5345   20.3001 C   0  0  0  0  0  0  0  0  0  0  0  0
  -18.8135  -30.1526   25.0920 C   0  0  0  0  0  0  0  0  0  0  0  0
  -24.4852  -28.3085   20.0613 C   0  0  0  0  0  0  0  0  0  0  0  0
  -19.9017  -30.4858   24.2630 C   0  0  0  0  0  0  0  0  0  0  0  0
  -25.2105  -27.3643   20.8020 C   0  0  0  0  0  0  0  0  0  0  0  0
  -31.2991  -28.4224   18.6700 C   0  0  0  0  0  0  0  0  0  0  0  0
  -23.3884  -15.1847   20.4611 C   0  0  0  0  0  0  0  0  0  0  0  0
  -27.2834  -28.3093   19.9534 C   0  0  0  0  0  0  0  0  0  0  0  0
  -22.0192  -13.5754   21.4894 C   0  0  0  0  0  0  0  0  0  0  0  0
  -21.6923  -11.5937   23.4256 C   0  0  0  0  0  0  0  0  0  0  0  0
  -21.0327  -13.7107   22.4663 C   0  0  0  0  0  0  0  0  0  0  0  0
  -27.1378  -17.1333   20.2541 C   0  0  0  0  0  0  0  0  0  0  0  0
  -31.9325  -28.7202   17.4485 C   0  0  0  0  0  0  0  0  0  0  0  0
  -29.2888  -17.5858   20.1961 C   0  0  0  0  0  0  0  0  0  0  0  0
  -28.7683  -15.1517   20.4257 C   0  0  0  0  0  0  0  0  0  0  0  0
  -22.5229  -28.5219   22.5527 C   0  0  0  0  0  0  0  0  0  0  0  0
  -22.2659  -25.3161   22.1295 C   0  0  0  0  0  0  0  0  0  0  0  0
  -23.6396  -22.4333   20.9258 C   0  0  0  0  0  0  0  0  0  0  0  0
  -28.7476  -22.9354   17.7580 C   0  0  0  0  0  0  0  0  0  0  0  0
  -18.9046  -29.0480   26.1148 C   0  0  0  0  0  0  0  0  0  0  0  0
  -22.9813  -28.3019   20.0834 C   0  0  0  0  0  0  0  0  0  0  0  0
  -24.5255  -26.3381   21.6657 C   0  0  0  0  0  0  0  0  0  0  0  0
  -20.0612  -28.0829   25.8677 C   0  0  0  0  0  0  0  0  0  0  0  0
  -29.6778  -22.2518   21.1881 C   0  0  0  0  0  0  0  0  0  0  0  0
  -21.3434  -28.8523   25.5663 C   0  0  0  0  0  0  0  0  0  0  0  0
  -29.2465  -20.7915   21.3349 C   0  0  0  0  0  0  0  0  0  0  0  0
  -28.6941  -23.0345   20.3232 C   0  0  0  0  0  0  0  0  0  0  0  0
  -28.0301  -20.9907   19.1167 C   0  0  0  0  0  0  0  0  0  0  0  0
  -21.1935  -29.6983   24.2962 C   0  0  1  0  0  0  0  0  0  0  0  0
  -22.4050  -27.6485   21.3358 C   0  0  1  0  0  0  0  0  0  0  0  0
  -28.9960  -20.1404   19.9618 C   0  0  2  0  0  0  0  0  0  0  0  0
  -32.2594  -30.0484   16.9010 C   0  0  0  0  0  0  0  0  0  0  0  0
  -23.2123  -19.9659   20.7624 C   0  0  0  0  0  0  0  0  0  0  0  0
  -23.0162  -24.9940   25.0695 C   0  0  0  0  0  0  0  0  0  0  0  0
  -23.4988  -22.5807   24.6098 C   0  0  0  0  0  0  0  0  0  0  0  0
  -21.1921  -23.4732   24.2857 C   0  0  0  0  0  0  0  0  0  0  0  0
  -23.6461  -22.5105   17.9672 C   0  0  0  0  0  0  0  0  0  0  0  0
  -30.7984  -29.3838   19.7204 C   0  0  0  0  0  0  0  0  0  0  0  0
  -30.9384  -24.7925   16.0870 C   0  0  0  0  0  0  0  0  0  0  0  0
  -31.9793  -25.2569   17.1146 C   0  0  0  0  0  0  0  0  0  0  0  0
  -29.4875  -24.9621   16.5325 C   0  0  0  0  0  0  0  0  0  0  0  0
  -29.2849  -29.5620   19.6691 C   0  0  0  0  0  0  0  0  0  1  0  0
  -23.0082  -24.1068   22.6448 C   0  0  1  0  0  0  0  0  0  0  0  0
  -23.0561  -21.3160   20.0800 C   0  0  2  0  0  0  0  0  0  0  0  0
  -22.6921  -23.8091   24.1378 C   0  0  0  0  0  0  0  0  0  0  0  0
  -27.1970  -18.4619   20.1305 N   0  0  0  0  0  0  0  0  0  0  0  0
  -32.2488  -27.6256   16.7515 N   0  0  0  0  0  0  0  0  0  0  0  0
  -31.8124  -26.6267   17.5375 N   0  0  0  0  0  0  0  0  0  0  0  0
  -28.5180  -18.7067   20.0982 N   0  0  0  0  0  0  0  0  0  0  0  0
  -23.0537  -26.3762   21.6589 N   0  0  0  0  0  0  0  0  0  0  0  0
  -28.5144  -22.3720   19.0236 N   0  0  0  0  0  0  0  0  0  0  0  0
  -30.6371  -17.6514   20.1798 N   0  0  0  0  0  0  0  0  0  0  0  0
  -27.7417  -14.2023   20.5213 N   0  0  0  0  0  0  0  0  0  0  0  0
  -21.3098  -28.8661   23.1179 N   0  0  0  0  0  0  0  0  0  0  0  0
  -22.6858  -23.0121   21.7360 N   0  0  0  0  0  0  0  0  0  0  0  0
  -29.1982  -24.2498   17.7572 N   0  0  0  0  0  0  0  0  0  0  0  0
  -23.7403  -21.2560   18.7574 N   0  3  0  0  0  0  0  0  0  0  0  0
  -29.9627  -14.7707   20.4688 O   0  0  0  0  0  0  0  0  0  0  0  0
  -23.6324  -28.8575   22.9504 O   0  0  0  0  0  0  0  0  0  0  0  0
  -21.0323  -25.3172   22.1374 O   0  0  0  0  0  0  0  0  0  0  0  0
  -24.8241  -22.7576   20.8757 O   0  0  0  0  0  0  0  0  0  0  0  0
  -28.5724  -22.3112   16.7060 O   0  0  0  0  0  0  0  0  0  0  0  0
  -22.1821  -14.5578   20.5271 O   0  0  0  0  0  0  0  0  0  0  0  0
  -28.6435  -28.3097   19.9070 O   0  0  0  0  0  0  0  0  0  1  0  0
  -21.5345  -10.6415   24.3543 F   0  0  0  0  0  0  0  0  0  0  0  0
  -20.2383  -14.7899   22.4791 F   0  0  0  0  0  0  0  0  0  0  0  0
  1  2  1  0  0  0  0
  1  5  2  0  0  0  0
  2  6  2  0  0  0  0
  3  8  2  0  0  0  0
  3 16  1  0  0  0  0
  4  9  1  0  0  0  0
  4 16  2  0  0  0  0
  5 18  1  0  0  0  0
  6 20  1  0  0  0  0
  7 10  2  0  0  0  0
  7 19  1  0  0  0  0
  8 23  1  0  0  0  0
  9 23  2  0  0  0  0
 10 24  1  0  0  0  0
 11 12  2  0  0  0  0
 11 25  1  0  0  0  0
 12 26  1  0  0  0  0
 13 21  1  0  0  0  0
 13 24  2  0  0  0  0
 14 26  2  0  0  0  0
 14 27  1  0  0  0  0
 15 22  2  0  0  0  0
 15 64  1  0  0  0  0
 16 28  1  0  0  0  0
 17 28  1  0  0  0  0
 17 30  2  0  0  0  0
 17 31  1  0  0  0  0
 18 20  2  0  0  0  0
 18 36  1  0  0  0  0
 19 21  2  0  0  0  0
 19 37  1  0  0  0  0
 20 45  1  0  0  0  0
 21 38  1  0  0  0  0
 22 29  1  0  0  0  0
 22 54  1  0  0  0  0
 23 79  1  0  0  0  0
 24 80  1  0  0  0  0
 25 27  2  0  0  0  0
 25 79  1  0  0  0  0
 26 81  1  0  0  0  0
 27 82  1  0  0  0  0
 28 62  2  0  0  0  0
 29 48  1  0  0  0  0
 29 63  2  0  0  0  0
 30 65  1  0  0  0  0
 30 68  1  0  0  0  0
 31 69  1  0  0  0  0
 31 74  2  0  0  0  0
 32 46  1  0  0  0  0
 32 70  1  0  0  0  0
 32 75  2  0  0  0  0
 33 59  1  0  0  0  0
 33 66  1  0  0  0  0
 33 76  2  0  0  0  0
 34 60  1  0  0  0  0
 34 71  1  0  0  0  0
 34 77  2  0  0  0  0
 35 67  1  0  0  0  0
 35 72  1  0  0  0  0
 35 78  2  0  0  0  0
 36 39  1  0  0  0  0
 37 46  1  0  0  0  0
 38 66  1  0  0  0  0
 39 41  1  0  0  0  0
 40 42  1  0  0  0  0
 40 43  1  0  0  0  0
 41 45  1  0  0  0  0
 42 47  1  0  0  0  0
 43 67  1  0  0  0  0
 44 47  1  0  0  0  0
 44 67  1  0  0  0  0
 45 70  1  0  0  0  0
 46 66  1  0  0  0  0
 47 65  1  0  0  0  0
 49 60  1  0  0  0  0
 50 61  1  0  0  0  0
 51 61  1  0  0  0  0
 52 61  1  0  0  0  0
 53 73  1  0  0  0  0
 54 58  1  0  0  0  0
 55 56  1  0  0  0  0
 55 57  1  0  0  0  0
 56 64  1  0  0  0  0
 57 72  1  0  0  0  0
 58 80  1  0  0  0  0
 59 61  1  0  0  0  0
 59 71  1  0  0  0  0
 60 73  1  0  0  0  0
 62 65  1  0  0  0  0
 63 64  1  0  0  0  0
M  CHG  1  73   1
M  ISO  4  35 100  58 101  72 100  80 101
M  END
> <Batch ID>
0040

> <Smiles>
CNC(C)C(=O)NC(C(=O)N1Cc2cc([101O:1][101CH2:1]Cc3cn(CCC[100NH:0][100C:0](=O)N4CCCC(n5nc(-c6ccc(Oc7ccc(F)cc7F)cc6)c(C(N)=O)c5N)C4)nc3C)ccc2CC1C(=O)NC1CCCc2ccccc21)C(C)(C)C

> <Shape>
0.217

> <Color>
0.083

> <Negative vol penalty>
0.000

$$$$

  -OEChem-04052317073D

 87 95  0     1  0  0  0  0  0999 V2000
  -17.8546  -26.8252   23.6727 C   0  0  0  0  0  0  0  0  0  0  0  0
  -19.0831  -26.3058   23.2770 C   0  0  0  0  0  0  0  0  0  0  0  0
  -25.2556  -11.9275   20.3620 C   0  0  0  0  0  0  0  0  0  0  0  0
  -23.4411  -13.0696   21.4756 C   0  0  0  0  0  0  0  0  0  0  0  0
  -17.4571  -28.0861   23.2302 C   0  0  0  0  0  0  0  0  0  0  0  0
  -19.9143  -27.0467   22.4376 C   0  0  0  0  0  0  0  0  0  0  0  0
  -26.0364  -27.1887   22.5095 C   0  0  0  0  0  0  0  0  0  0  0  0
  -24.9371  -10.7544   21.0460 C   0  0  0  0  0  0  0  0  0  0  0  0
  -23.1225  -11.8964   22.1596 C   0  0  0  0  0  0  0  0  0  0  0  0
  -26.9989  -26.5333   21.7428 C   0  0  0  0  0  0  0  0  0  0  0  0
  -24.3760   -7.3632   22.2292 C   0  0  0  0  0  0  0  0  0  0  0  0
  -24.3444   -6.1751   21.4992 C   0  0  0  0  0  0  0  0  0  0  0  0
  -27.1523  -28.4600   20.2993 C   0  0  0  0  0  0  0  0  0  0  0  0
  -22.6129   -7.0905   20.0845 C   0  0  0  0  0  0  0  0  0  0  0  0
  -27.7019  -22.6021   18.4931 C   0  0  0  0  0  0  0  0  0  0  0  0
  -24.5076  -13.0851   20.5768 C   0  0  0  0  0  0  0  0  0  0  0  0
  -24.3357  -14.7178   18.6243 C   0  0  0  0  0  0  0  0  0  0  0  0
  -18.2880  -28.8469   22.3928 C   0  0  0  0  0  0  0  0  0  0  0  0
  -25.6160  -28.4827   22.1699 C   0  0  0  0  0  0  0  0  0  0  0  0
  -19.5269  -28.3185   21.9824 C   0  0  0  0  0  0  0  0  0  0  0  0
  -26.1862  -29.1306   21.0648 C   0  0  0  0  0  0  0  0  0  0  0  0
  -26.6856  -23.0271   17.6166 C   0  0  0  0  0  0  0  0  0  0  0  0
  -23.8705  -10.7388   21.9448 C   0  0  0  0  0  0  0  0  0  0  0  0
  -27.5549  -27.1678   20.6358 C   0  0  0  0  0  0  0  0  0  0  0  0
  -23.5261   -8.4150   21.8870 C   0  0  0  0  0  0  0  0  0  0  0  0
  -23.4628   -6.0387   20.4268 C   0  0  0  0  0  0  0  0  0  0  0  0
  -22.6446   -8.2786   20.8146 C   0  0  0  0  0  0  0  0  0  0  0  0
  -24.8365  -14.2975   19.8710 C   0  0  0  0  0  0  0  0  0  0  0  0
  -27.0920  -24.2701   17.1966 C   0  0  0  0  0  0  0  0  0  0  0  0
  -24.9527  -15.9233   18.3951 C   0  0  0  0  0  0  0  0  0  0  0  0
  -23.3966  -14.0760   17.7514 C   0  0  0  0  0  0  0  0  0  0  0  0
  -22.8491  -29.7884   21.3078 C   0  0  0  0  0  0  0  0  0  0  0  0
  -24.5357  -32.5518   21.5117 C   0  0  0  0  0  0  0  0  0  0  0  0
  -27.5737  -34.1044   21.4318 C   0  0  0  0  0  0  0  0  0  0  0  0
  -27.3185  -20.0493   22.0325 C   0  0  0  0  0  0  0  0  0  0  0  0
  -17.7946  -30.1850   21.9019 C   0  0  0  0  0  0  0  0  0  0  0  0
  -24.5963  -29.1863   23.0228 C   0  0  0  0  0  0  0  0  0  0  0  0
  -25.7840  -30.5273   20.6699 C   0  0  0  0  0  0  0  0  0  0  0  0
  -18.8974  -31.0636   21.3171 C   0  0  0  0  0  0  0  0  0  0  0  0
  -28.9699  -18.3230   19.3926 C   0  0  0  0  0  0  0  0  0  0  0  0
  -19.7722  -30.2576   20.3621 C   0  0  0  0  0  0  0  0  0  0  0  0
  -28.0526  -17.1335   19.1033 C   0  0  0  0  0  0  0  0  0  0  0  0
  -29.0119  -18.6540   20.8828 C   0  0  0  0  0  0  0  0  0  0  0  0
  -26.7754  -17.6746   21.2187 C   0  0  0  0  0  0  0  0  0  0  0  0
  -20.4671  -29.1022   21.0926 C   0  0  1  0  0  0  0  0  0  0  0  0
  -23.8684  -30.3049   22.2835 C   0  0  1  0  0  0  0  0  0  0  0  0
  -26.6569  -17.3382   19.7223 C   0  0  2  0  0  0  0  0  0  0  0  0
  -26.4688  -25.2382   16.2744 C   0  0  0  0  0  0  0  0  0  0  0  0
  -28.6303  -36.3750   21.5901 C   0  0  0  0  0  0  0  0  0  0  0  0
  -22.5142  -23.9499   21.0166 C   0  0  0  0  0  0  0  0  0  0  0  0
  -23.6242  -33.1716   18.6665 C   0  0  0  0  0  0  0  0  0  0  0  0
  -25.4242  -34.9073   18.5424 C   0  0  0  0  0  0  0  0  0  0  0  0
  -23.5932  -35.1298   20.2218 C   0  0  0  0  0  0  0  0  0  0  0  0
  -29.1287  -33.3413   23.8315 C   0  0  0  0  0  0  0  0  0  0  0  0
  -25.4335  -22.2804   17.2293 C   0  0  0  0  0  0  0  0  0  0  0  0
  -24.5672  -21.8724   18.4273 C   0  0  0  0  0  0  0  0  0  0  0  0
  -24.9072  -22.3283   22.1725 C   0  0  0  0  0  0  0  0  0  0  0  0
  -24.0214  -23.0766   19.2048 C   0  0  0  0  0  0  0  0  0  0  0  0
  -23.7103  -21.7445   21.4101 C   0  0  0  0  0  0  0  0  0  0  0  0
  -29.1067  -25.6840   17.7038 C   0  0  0  0  0  0  0  0  0  0  0  0
  -25.5127  -21.3292   23.1551 C   0  0  0  0  0  0  0  0  0  0  0  0
  -28.5538  -26.8614   18.4994 C   0  0  0  0  0  0  0  0  0  1  0  0
  -25.3734  -33.3659   20.5555 C   0  0  1  0  0  0  0  0  0  0  0  0
  -28.2047  -35.1313   22.3547 C   0  0  2  0  0  0  0  0  0  0  0  0
  -23.0792  -22.6852   20.3611 C   0  0  1  0  0  0  0  0  0  0  0  0
  -24.5101  -34.1166   19.5026 C   0  0  0  0  0  0  0  0  0  0  0  0
  -28.6805  -23.5019   18.6229 N   0  0  0  0  0  0  0  0  0  0  0  0
  -25.7049  -15.1653   20.3970 N   0  0  0  0  0  0  0  0  0  0  0  0
  -28.2809  -24.5047   17.8224 N   0  0  0  0  0  0  0  0  0  0  0  0
  -25.7546  -16.1430   19.4763 N   0  0  0  0  0  0  0  0  0  0  0  0
  -24.7787  -31.1711   21.5315 N   0  0  0  0  0  0  0  0  0  0  0  0
  -27.6567  -18.8375   21.4077 N   0  0  0  0  0  0  0  0  0  0  0  0
  -24.8822  -16.8062   17.3763 N   0  0  0  0  0  0  0  0  0  0  0  0
  -22.8591  -12.8414   18.1400 N   0  0  0  0  0  0  0  0  0  0  0  0
  -21.5955  -29.5922   21.8550 N   0  0  0  0  0  0  0  0  0  0  0  0
  -26.2024  -34.2384   21.3802 N   0  0  0  0  0  0  0  0  0  0  0  0
  -26.0119  -20.1430   22.4960 N   0  0  0  0  0  0  0  0  0  0  0  0
  -29.4060  -34.5571   23.0242 N   0  3  0  0  0  0  0  0  0  0  0  0
  -23.0571  -14.5745   16.6515 O   0  0  0  0  0  0  0  0  0  0  0  0
  -23.1754  -29.5845   20.1444 O   0  0  0  0  0  0  0  0  0  0  0  0
  -23.7015  -33.1209   22.2201 O   0  0  0  0  0  0  0  0  0  0  0  0
  -28.2319  -33.2694   20.8152 O   0  0  0  0  0  0  0  0  0  0  0  0
  -28.1199  -20.9808   22.1626 O   0  0  0  0  0  0  0  0  0  0  0  0
  -23.5593   -9.5942   22.6122 O   0  0  0  0  0  0  0  0  0  0  0  0
  -28.5007  -26.5257   19.8802 O   0  0  0  0  0  0  0  0  0  1  0  0
  -23.4336   -4.8983   19.7249 F   0  0  0  0  0  0  0  0  0  0  0  0
  -21.8265   -9.2860   20.4804 F   0  0  0  0  0  0  0  0  0  0  0  0
  1  2  1  0  0  0  0
  1  5  2  0  0  0  0
  2  6  2  0  0  0  0
  3  8  2  0  0  0  0
  3 16  1  0  0  0  0
  4  9  1  0  0  0  0
  4 16  2  0  0  0  0
  5 18  1  0  0  0  0
  6 20  1  0  0  0  0
  7 10  2  0  0  0  0
  7 19  1  0  0  0  0
  8 23  1  0  0  0  0
  9 23  2  0  0  0  0
 10 24  1  0  0  0  0
 11 12  2  0  0  0  0
 11 25  1  0  0  0  0
 12 26  1  0  0  0  0
 13 21  1  0  0  0  0
 13 24  2  0  0  0  0
 14 26  2  0  0  0  0
 14 27  1  0  0  0  0
 15 22  1  0  0  0  0
 15 67  2  0  0  0  0
 16 28  1  0  0  0  0
 17 28  1  0  0  0  0
 17 30  2  0  0  0  0
 17 31  1  0  0  0  0
 18 20  2  0  0  0  0
 18 36  1  0  0  0  0
 19 21  2  0  0  0  0
 19 37  1  0  0  0  0
 20 45  1  0  0  0  0
 21 38  1  0  0  0  0
 22 29  2  0  0  0  0
 22 55  1  0  0  0  0
 23 84  1  0  0  0  0
 24 85  1  0  0  0  0
 25 27  2  0  0  0  0
 25 84  1  0  0  0  0
 26 86  1  0  0  0  0
 27 87  1  0  0  0  0
 28 68  2  0  0  0  0
 29 48  1  0  0  0  0
 29 69  1  0  0  0  0
 30 70  1  0  0  0  0
 30 73  1  0  0  0  0
 31 74  1  0  0  0  0
 31 79  2  0  0  0  0
 32 46  1  0  0  0  0
 32 75  1  0  0  0  0
 32 80  2  0  0  0  0
 33 63  1  0  0  0  0
 33 71  1  0  0  0  0
 33 81  2  0  0  0  0
 34 64  1  0  0  0  0
 34 76  1  0  0  0  0
 34 82  2  0  0  0  0
 35 72  1  0  0  0  0
 35 77  1  0  0  0  0
 35 83  2  0  0  0  0
 36 39  1  0  0  0  0
 37 46  1  0  0  0  0
 38 71  1  0  0  0  0
 39 41  1  0  0  0  0
 40 42  1  0  0  0  0
 40 43  1  0  0  0  0
 41 45  1  0  0  0  0
 42 47  1  0  0  0  0
 43 72  1  0  0  0  0
 44 47  1  0  0  0  0
 44 72  1  0  0  0  0
 45 75  1  0  0  0  0
 46 71  1  0  0  0  0
 47 70  1  0  0  0  0
 49 64  1  0  0  0  0
 50 65  1  0  0  0  0
 51 66  1  0  0  0  0
 52 66  1  0  0  0  0
 53 66  1  0  0  0  0
 54 78  1  0  0  0  0
 55 56  1  0  0  0  0
 56 58  1  0  0  0  0
 57 59  1  0  0  0  0
 57 61  1  0  0  0  0
 58 65  1  0  0  0  0
 59 65  1  0  0  0  0
 60 62  1  0  0  0  0
 60 69  1  0  0  0  0
 61 77  1  0  0  0  0
 62 85  1  0  0  0  0
 63 66  1  0  0  0  0
 63 76  1  0  0  0  0
 64 78  1  0  0  0  0
 67 69  1  0  0  0  0
 68 70  1  0  0  0  0
M  CHG  1  78   1
M  ISO  4  35 100  62 101  77 100  85 101
M  END
> <Batch ID>
0040

> <Smiles>
CNC(C)C(=O)NC(C(=O)N1Cc2cc([101O:1][101CH2:1]Cn3ncc(CCCC(C)CCC[100NH:0][100C:0](=O)N4CCCC(n5nc(-c6ccc(Oc7ccc(F)cc7F)cc6)c(C(N)=O)c5N)C4)c3C)ccc2CC1C(=O)NC1CCCc2ccccc21)C(C)(C)C

> <Shape>
0.229

> <Color>
0.085

> <Negative vol penalty>
0.000

$$$$

  -OEChem-04052317073D

 83 91  0     1  0  0  0  0  0999 V2000
  -22.2437  -12.1383   18.4364 C   0  0  0  0  0  0  0  0  0  0  0  0
  -21.9496  -13.4288   18.8648 C   0  0  0  0  0  0  0  0  0  0  0  0
  -29.9903  -26.3156   19.8653 C   0  0  0  0  0  0  0  0  0  0  0  0
  -29.5708  -26.0944   22.2343 C   0  0  0  0  0  0  0  0  0  0  0  0
  -23.4082  -11.5084   18.8735 C   0  0  0  0  0  0  0  0  0  0  0  0
  -22.8194  -14.0898   19.7314 C   0  0  0  0  0  0  0  0  0  0  0  0
  -24.0599  -20.0861   19.8367 C   0  0  0  0  0  0  0  0  0  0  0  0
  -31.3483  -26.0843   20.0841 C   0  0  0  0  0  0  0  0  0  0  0  0
  -30.9288  -25.8631   22.4531 C   0  0  0  0  0  0  0  0  0  0  0  0
  -23.5804  -21.1294   20.6276 C   0  0  0  0  0  0  0  0  0  0  0  0
  -34.3376  -25.5712   23.6798 C   0  0  0  0  0  0  0  0  0  0  0  0
  -34.9462  -26.2397   24.7420 C   0  0  0  0  0  0  0  0  0  0  0  0
  -25.4888  -20.8940   22.0843 C   0  0  0  0  0  0  0  0  0  0  0  0
  -34.3737  -28.3602   23.7355 C   0  0  0  0  0  0  0  0  0  0  0  0
  -20.5928  -25.6473   22.5641 C   0  0  0  0  0  0  0  0  0  0  0  0
  -29.1015  -26.3207   20.9404 C   0  0  0  0  0  0  0  0  0  0  0  0
  -26.7043  -25.5998   20.4494 C   0  0  0  0  0  0  0  0  0  0  0  0
  -24.2975  -12.1656   19.7383 C   0  0  0  0  0  0  0  0  0  0  0  0
  -25.2538  -19.4306   20.1704 C   0  0  0  0  0  0  0  0  0  0  0  0
  -23.9962  -13.4675   20.1815 C   0  0  0  0  0  0  0  0  0  0  0  0
  -25.9825  -19.8444   21.2946 C   0  0  0  0  0  0  0  0  0  0  0  0
  -31.8176  -25.8580   21.3780 C   0  0  0  0  0  0  0  0  0  0  0  0
  -24.2934  -21.5316   21.7532 C   0  0  0  0  0  0  0  0  0  0  0  0
  -33.7471  -26.2972   22.6454 C   0  0  0  0  0  0  0  0  0  0  0  0
  -34.9643  -27.6342   24.7699 C   0  0  0  0  0  0  0  0  0  0  0  0
  -33.7651  -27.6916   22.6733 C   0  0  0  0  0  0  0  0  0  0  0  0
  -27.6987  -26.5602   20.7150 C   0  0  0  0  0  0  0  0  0  0  0  0
  -19.9540  -24.5395   23.1527 C   0  0  0  0  0  0  0  0  0  0  0  0
  -19.6281  -26.2183   21.7704 C   0  0  0  0  0  0  0  0  0  0  0  0
  -25.5490  -26.3301   20.3139 C   0  0  0  0  0  0  0  0  0  0  0  0
  -26.8149  -24.1748   20.3355 C   0  0  0  0  0  0  0  0  0  0  0  0
  -26.0324  -16.4513   20.9587 C   0  0  0  0  0  0  0  0  0  0  0  0
  -29.0557  -17.6182   20.8172 C   0  0  0  0  0  0  0  0  0  0  0  0
  -31.1280  -20.3240   20.9921 C   0  0  0  0  0  0  0  0  0  0  0  0
  -22.1295  -30.3922   22.0320 C   0  0  0  0  0  0  0  0  0  0  0  0
  -25.5202  -11.4262   20.2212 C   0  0  0  0  0  0  0  0  0  0  0  0
  -25.7712  -18.3247   19.2920 C   0  0  0  0  0  0  0  0  0  0  0  0
  -27.2802  -19.1867   21.6846 C   0  0  0  0  0  0  0  0  0  0  0  0
  -26.5768  -12.3365   20.8419 C   0  0  0  0  0  0  0  0  0  0  0  0
  -24.8376  -31.3223   19.9158 C   0  0  0  0  0  0  0  0  0  0  0  0
  -25.9315  -13.3154   21.8177 C   0  0  0  0  0  0  0  0  0  0  0  0
  -25.7438  -30.0899   19.9184 C   0  0  0  0  0  0  0  0  0  0  0  0
  -24.1874  -31.5476   21.2791 C   0  0  0  0  0  0  0  0  0  0  0  0
  -24.3678  -29.1503   21.8217 C   0  0  0  0  0  0  0  0  0  0  0  0
  -24.9272  -14.2267   21.1019 C   0  0  1  0  0  0  0  0  0  0  0  0
  -26.7333  -17.3875   20.0154 C   0  0  1  0  0  0  0  0  0  0  0  0
  -25.0023  -28.8498   20.4530 C   0  0  2  0  0  0  0  0  0  0  0  0
  -33.5531  -20.9588   20.8755 C   0  0  0  0  0  0  0  0  0  0  0  0
  -29.4732  -16.5323   23.6379 C   0  0  0  0  0  0  0  0  0  0  0  0
  -31.5027  -17.9867   23.8223 C   0  0  0  0  0  0  0  0  0  0  0  0
  -31.4094  -16.1922   22.0920 C   0  0  0  0  0  0  0  0  0  0  0  0
  -17.2289  -25.6423   21.2946 C   0  0  0  0  0  0  0  0  0  0  0  0
  -30.6808  -22.0562   18.6345 C   0  0  0  0  0  0  0  0  0  0  0  0
  -20.5451  -23.5447   24.1193 C   0  0  0  0  0  0  0  0  0  0  0  0
  -19.6706  -27.4049   20.8964 C   0  0  0  0  0  0  0  0  0  0  0  0
  -22.0489  -23.3276   23.9370 C   0  0  0  0  0  0  0  0  0  0  0  0
  -19.2826  -28.7380   21.5823 C   0  0  0  0  0  0  0  0  0  0  0  0
  -20.1526  -29.0950   22.7856 C   0  0  0  0  0  0  0  0  0  0  0  0
  -22.4125  -22.7263   22.5843 C   0  0  0  0  0  0  0  0  0  1  0  0
  -29.9975  -18.2693   21.8010 C   0  0  1  0  0  0  0  0  0  0  0  0
  -32.2608  -20.7851   20.0928 C   0  0  2  0  0  0  0  0  0  0  0  0
  -30.5703  -17.2564   22.8323 C   0  0  0  0  0  0  0  0  0  0  0  0
  -27.2173  -27.8057   20.7465 N   0  0  0  0  0  0  0  0  0  0  0  0
  -18.6818  -24.4125   22.7661 N   0  0  0  0  0  0  0  0  0  0  0  0
  -18.5134  -25.4479   21.9261 N   0  0  0  0  0  0  0  0  0  0  0  0
  -25.9077  -27.6329   20.4989 N   0  0  0  0  0  0  0  0  0  0  0  0
  -27.7414  -18.1061   20.7975 N   0  0  0  0  0  0  0  0  0  0  0  0
  -23.4997  -30.3346   21.7282 N   0  0  0  0  0  0  0  0  0  0  0  0
  -24.2714  -25.9786   20.0556 N   0  0  0  0  0  0  0  0  0  0  0  0
  -28.0762  -23.5871   20.5033 N   0  0  0  0  0  0  0  0  0  0  0  0
  -25.6196  -15.2689   20.3747 N   0  0  0  0  0  0  0  0  0  0  0  0
  -31.0129  -18.9501   21.0049 N   0  0  0  0  0  0  0  0  0  0  0  0
  -21.5539  -29.1966   22.4441 N   0  0  0  0  0  0  0  0  0  0  0  0
  -31.9186  -22.0880   19.4554 N   0  3  0  0  0  0  0  0  0  0  0  0
  -25.8276  -23.4459   20.0760 O   0  0  0  0  0  0  0  0  0  0  0  0
  -25.8787  -16.7769   22.1301 O   0  0  0  0  0  0  0  0  0  0  0  0
  -29.4727  -16.7150   20.0878 O   0  0  0  0  0  0  0  0  0  0  0  0
  -30.4188  -21.1045   21.6234 O   0  0  0  0  0  0  0  0  0  0  0  0
  -21.4670  -31.4310   21.9374 O   0  0  0  0  0  0  0  0  0  0  0  0
  -33.1426  -25.6320   21.5919 O   0  0  0  0  0  0  0  0  0  0  0  0
  -23.8274  -22.5492   22.5272 O   0  0  0  0  0  0  0  0  0  1  0  0
  -35.5474  -28.2760   25.7908 F   0  0  0  0  0  0  0  0  0  0  0  0
  -33.1985  -28.3945   21.6830 F   0  0  0  0  0  0  0  0  0  0  0  0
  1  2  1  0  0  0  0
  1  5  2  0  0  0  0
  2  6  2  0  0  0  0
  3  8  2  0  0  0  0
  3 16  1  0  0  0  0
  4  9  1  0  0  0  0
  4 16  2  0  0  0  0
  5 18  1  0  0  0  0
  6 20  1  0  0  0  0
  7 10  2  0  0  0  0
  7 19  1  0  0  0  0
  8 22  1  0  0  0  0
  9 22  2  0  0  0  0
 10 23  1  0  0  0  0
 11 12  2  0  0  0  0
 11 24  1  0  0  0  0
 12 25  1  0  0  0  0
 13 21  1  0  0  0  0
 13 23  2  0  0  0  0
 14 25  2  0  0  0  0
 14 26  1  0  0  0  0
 15 28  1  0  0  0  0
 15 29  2  0  0  0  0
 16 27  1  0  0  0  0
 17 27  1  0  0  0  0
 17 30  2  0  0  0  0
 17 31  1  0  0  0  0
 18 20  2  0  0  0  0
 18 36  1  0  0  0  0
 19 21  2  0  0  0  0
 19 37  1  0  0  0  0
 20 45  1  0  0  0  0
 21 38  1  0  0  0  0
 22 80  1  0  0  0  0
 23 81  1  0  0  0  0
 24 26  2  0  0  0  0
 24 80  1  0  0  0  0
 25 82  1  0  0  0  0
 26 83  1  0  0  0  0
 27 63  2  0  0  0  0
 28 54  1  0  0  0  0
 28 64  2  0  0  0  0
 29 55  1  0  0  0  0
 29 65  1  0  0  0  0
 30 66  1  0  0  0  0
 30 69  1  0  0  0  0
 31 70  1  0  0  0  0
 31 75  2  0  0  0  0
 32 46  1  0  0  0  0
 32 71  1  0  0  0  0
 32 76  2  0  0  0  0
 33 60  1  0  0  0  0
 33 67  1  0  0  0  0
 33 77  2  0  0  0  0
 34 61  1  0  0  0  0
 34 72  1  0  0  0  0
 34 78  2  0  0  0  0
 35 68  1  0  0  0  0
 35 73  1  0  0  0  0
 35 79  2  0  0  0  0
 36 39  1  0  0  0  0
 37 46  1  0  0  0  0
 38 67  1  0  0  0  0
 39 41  1  0  0  0  0
 40 42  1  0  0  0  0
 40 43  1  0  0  0  0
 41 45  1  0  0  0  0
 42 47  1  0  0  0  0
 43 68  1  0  0  0  0
 44 47  1  0  0  0  0
 44 68  1  0  0  0  0
 45 71  1  0  0  0  0
 46 67  1  0  0  0  0
 47 66  1  0  0  0  0
 48 61  1  0  0  0  0
 49 62  1  0  0  0  0
 50 62  1  0  0  0  0
 51 62  1  0  0  0  0
 52 65  1  0  0  0  0
 53 74  1  0  0  0  0
 54 56  1  0  0  0  0
 55 57  1  0  0  0  0
 56 59  1  0  0  0  0
 57 58  1  0  0  0  0
 58 73  1  0  0  0  0
 59 81  1  0  0  0  0
 60 62  1  0  0  0  0
 60 72  1  0  0  0  0
 61 74  1  0  0  0  0
 63 66  1  0  0  0  0
 64 65  1  0  0  0  0
M  CHG  1  74   1
M  ISO  4  35 100  59 101  73 100  81 101
M  END
> <Batch ID>
0040

> <Smiles>
CNC(C)C(=O)NC(C(=O)N1Cc2cc([101O:1][101CH2:1]CCc3cc(CCC[100NH:0][100C:0](=O)N4CCCC(n5nc(-c6ccc(Oc7ccc(F)cc7F)cc6)c(C(N)=O)c5N)C4)n(C)n3)ccc2CC1C(=O)NC1CCCc2ccccc21)C(C)(C)C

> <Shape>
0.215

> <Color>
0.081

> <Negative vol penalty>
0.000

$$$$

  -OEChem-04052317073D

 84 92  0     1  0  0  0  0  0999 V2000
  -24.8508  -16.3974   22.7008 C   0  0  0  0  0  0  0  0  0  0  0  0
  -25.4972  -17.5121   23.2252 C   0  0  0  0  0  0  0  0  0  0  0  0
  -26.5595  -12.9326   21.2471 C   0  0  0  0  0  0  0  0  0  0  0  0
  -26.5022  -13.2332   18.8506 C   0  0  0  0  0  0  0  0  0  0  0  0
  -24.1051  -16.5129   21.5284 C   0  0  0  0  0  0  0  0  0  0  0  0
  -25.3991  -18.7428   22.5770 C   0  0  0  0  0  0  0  0  0  0  0  0
  -25.1896  -25.7716   23.9439 C   0  0  0  0  0  0  0  0  0  0  0  0
  -30.8552  -26.7348   19.4485 C   0  0  0  0  0  0  0  0  0  0  0  0
  -25.2791  -12.3805   21.2085 C   0  0  0  0  0  0  0  0  0  0  0  0
  -25.2219  -12.6810   18.8119 C   0  0  0  0  0  0  0  0  0  0  0  0
  -25.8146  -26.9606   23.5704 C   0  0  0  0  0  0  0  0  0  0  0  0
  -23.8703   -9.4101   20.4179 C   0  0  0  0  0  0  0  0  0  0  0  0
  -23.6425   -8.2491   21.1566 C   0  0  0  0  0  0  0  0  0  0  0  0
  -30.1948  -27.9537   19.5564 C   0  0  0  0  0  0  0  0  0  0  0  0
  -24.4335  -27.0588   21.5950 C   0  0  0  0  0  0  0  0  0  0  0  0
  -21.9427   -9.3956   22.4345 C   0  0  0  0  0  0  0  0  0  0  0  0
  -27.1710  -13.3591   20.0682 C   0  0  0  0  0  0  0  0  0  0  0  0
  -29.7184  -13.2462   19.9923 C   0  0  0  0  0  0  0  0  0  0  0  0
  -23.9898  -17.7478   20.8708 C   0  0  0  0  0  0  0  0  0  0  0  0
  -24.1878  -25.2106   23.1389 C   0  0  0  0  0  0  0  0  0  0  0  0
  -24.6521  -18.8746   21.3941 C   0  0  0  0  0  0  0  0  0  0  0  0
  -23.7956  -25.8639   21.9618 C   0  0  0  0  0  0  0  0  0  0  0  0
  -30.1563  -25.5510   19.6568 C   0  0  0  0  0  0  0  0  0  0  0  0
  -24.6104  -12.2546   19.9909 C   0  0  0  0  0  0  0  0  0  0  0  0
  -25.4386  -27.6028   22.3943 C   0  0  0  0  0  0  0  0  0  0  0  0
  -23.1343  -10.5640   20.6875 C   0  0  0  0  0  0  0  0  0  0  0  0
  -22.6787   -8.2418   22.1649 C   0  0  0  0  0  0  0  0  0  0  0  0
  -22.1705  -10.5567   21.6958 C   0  0  0  0  0  0  0  0  0  0  0  0
  -28.4933  -13.9301   20.1076 C   0  0  0  0  0  0  0  0  0  0  0  0
  -28.8459  -27.9347   19.8723 C   0  0  0  0  0  0  0  0  0  0  0  0
  -28.8092  -25.6396   19.9684 C   0  0  0  0  0  0  0  0  0  0  0  0
  -30.6716  -14.2300   20.0921 C   0  0  0  0  0  0  0  0  0  0  0  0
  -29.9720  -11.8467   19.8112 C   0  0  0  0  0  0  0  0  0  0  0  0
  -23.8574  -22.4799   21.5458 C   0  0  0  0  0  0  0  0  0  0  0  0
  -20.8593  -23.6013   21.0203 C   0  0  0  0  0  0  0  0  0  0  0  0
  -18.7672  -26.2892   20.8078 C   0  0  0  0  0  0  0  0  0  0  0  0
  -30.5096  -20.0025   18.8644 C   0  0  0  0  0  0  0  0  0  0  0  0
  -23.2114  -17.8132   19.5806 C   0  0  0  0  0  0  0  0  0  0  0  0
  -23.5048  -23.9415   23.5695 C   0  0  0  0  0  0  0  0  0  0  0  0
  -22.7114  -25.3136   21.0729 C   0  0  0  0  0  0  0  0  0  0  0  0
  -22.8494  -19.2350   19.1591 C   0  0  0  0  0  0  0  0  0  0  0  0
  -31.4195  -18.5351   22.0450 C   0  0  0  0  0  0  0  0  0  0  0  0
  -24.0614  -20.1531   19.2816 C   0  0  0  0  0  0  0  0  0  0  0  0
  -30.8812  -17.1118   21.8884 C   0  0  0  0  0  0  0  0  0  0  0  0
  -30.4889  -19.5530   21.3923 C   0  0  0  0  0  0  0  0  0  0  0  0
  -29.6615  -17.8680   19.7955 C   0  0  0  0  0  0  0  0  0  0  0  0
  -24.5490  -20.2322   20.7333 C   0  0  1  0  0  0  0  0  0  0  0  0
  -22.8554  -23.1900   22.4116 C   0  0  1  0  0  0  0  0  0  0  0  0
  -30.5691  -16.7897   20.4150 C   0  0  2  0  0  0  0  0  0  0  0  0
  -28.0073  -24.4009   20.1996 C   0  0  0  0  0  0  0  0  0  0  0  0
  -16.3799  -26.8941   20.3259 C   0  0  0  0  0  0  0  0  0  0  0  0
  -21.3518  -23.1616   18.0414 C   0  0  0  0  0  0  0  0  0  0  0  0
  -19.3798  -24.6302   17.5696 C   0  0  0  0  0  0  0  0  0  0  0  0
  -19.0728  -22.5000   18.8307 C   0  0  0  0  0  0  0  0  0  0  0  0
  -18.3989  -27.4608   23.5005 C   0  0  0  0  0  0  0  0  0  0  0  0
  -30.8586  -24.2423   19.5439 C   0  0  0  0  0  0  0  0  0  0  0  0
  -28.0977  -29.2380   19.9956 C   0  0  0  0  0  0  0  0  0  0  0  0
  -30.6256  -23.5040   18.2100 C   0  0  0  0  0  0  0  0  0  0  0  0
  -28.1092  -29.8233   21.4094 C   0  0  0  0  0  0  0  0  0  0  0  0
  -31.3875  -22.1868   18.0801 C   0  0  0  0  0  0  0  0  0  0  0  0
  -27.4035  -28.9420   22.4335 C   0  0  0  0  0  0  0  0  0  1  0  0
  -20.2082  -24.4564   19.9601 C   0  0  1  0  0  0  0  0  0  0  0  0
  -17.3951  -26.5473   21.4038 C   0  0  2  0  0  0  0  0  0  0  0  0
  -20.0250  -23.6967   18.6160 C   0  0  0  0  0  0  0  0  0  0  0  0
  -28.6509  -15.2466   20.2684 N   0  0  0  0  0  0  0  0  0  0  0  0
  -28.1335  -26.8050   20.0818 N   0  0  0  0  0  0  0  0  0  0  0  0
  -29.9862  -15.3979   20.2551 N   0  0  0  0  0  0  0  0  0  0  0  0
  -22.0780  -24.0670   21.5337 N   0  0  0  0  0  0  0  0  0  0  0  0
  -30.2472  -19.1991   19.9864 N   0  0  0  0  0  0  0  0  0  0  0  0
  -32.0207  -14.2014   20.0556 N   0  0  0  0  0  0  0  0  0  0  0  0
  -28.8780  -10.9745   19.7287 N   0  0  0  0  0  0  0  0  0  0  0  0
  -23.6950  -21.1083   21.5064 N   0  0  0  0  0  0  0  0  0  0  0  0
  -18.9648  -24.9509   20.5413 N   0  0  0  0  0  0  0  0  0  0  0  0
  -31.0576  -21.2510   19.1320 N   0  0  0  0  0  0  0  0  0  0  0  0
  -17.4557  -27.6773   22.3734 N   0  3  0  0  0  0  0  0  0  0  0  0
  -31.1348  -11.3812   19.7415 O   0  0  0  0  0  0  0  0  0  0  0  0
  -24.7135  -23.1287   20.9559 O   0  0  0  0  0  0  0  0  0  0  0  0
  -20.3033  -22.5622   21.3848 O   0  0  0  0  0  0  0  0  0  0  0  0
  -19.5808  -27.1857   20.5962 O   0  0  0  0  0  0  0  0  0  0  0  0
  -30.2777  -19.6324   17.7084 O   0  0  0  0  0  0  0  0  0  0  0  0
  -23.3611  -11.7156   19.9527 O   0  0  0  0  0  0  0  0  0  0  0  0
  -26.0474  -28.7631   22.0270 O   0  0  0  0  0  0  0  0  0  1  0  0
  -22.4589   -7.1263   22.8731 F   0  0  0  0  0  0  0  0  0  0  0  0
  -21.4595  -11.6618   21.9586 F   0  0  0  0  0  0  0  0  0  0  0  0
  1  2  1  0  0  0  0
  1  5  2  0  0  0  0
  2  6  2  0  0  0  0
  3  9  2  0  0  0  0
  3 17  1  0  0  0  0
  4 10  1  0  0  0  0
  4 17  2  0  0  0  0
  5 19  1  0  0  0  0
  6 21  1  0  0  0  0
  7 11  2  0  0  0  0
  7 20  1  0  0  0  0
  8 14  2  0  0  0  0
  8 23  1  0  0  0  0
  9 24  1  0  0  0  0
 10 24  2  0  0  0  0
 11 25  1  0  0  0  0
 12 13  2  0  0  0  0
 12 26  1  0  0  0  0
 13 27  1  0  0  0  0
 14 30  1  0  0  0  0
 15 22  1  0  0  0  0
 15 25  2  0  0  0  0
 16 27  2  0  0  0  0
 16 28  1  0  0  0  0
 17 29  1  0  0  0  0
 18 29  1  0  0  0  0
 18 32  2  0  0  0  0
 18 33  1  0  0  0  0
 19 21  2  0  0  0  0
 19 38  1  0  0  0  0
 20 22  2  0  0  0  0
 20 39  1  0  0  0  0
 21 47  1  0  0  0  0
 22 40  1  0  0  0  0
 23 31  2  0  0  0  0
 23 56  1  0  0  0  0
 24 81  1  0  0  0  0
 25 82  1  0  0  0  0
 26 28  2  0  0  0  0
 26 81  1  0  0  0  0
 27 83  1  0  0  0  0
 28 84  1  0  0  0  0
 29 65  2  0  0  0  0
 30 57  1  0  0  0  0
 30 66  2  0  0  0  0
 31 50  1  0  0  0  0
 31 66  1  0  0  0  0
 32 67  1  0  0  0  0
 32 70  1  0  0  0  0
 33 71  1  0  0  0  0
 33 76  2  0  0  0  0
 34 48  1  0  0  0  0
 34 72  1  0  0  0  0
 34 77  2  0  0  0  0
 35 62  1  0  0  0  0
 35 68  1  0  0  0  0
 35 78  2  0  0  0  0
 36 63  1  0  0  0  0
 36 73  1  0  0  0  0
 36 79  2  0  0  0  0
 37 69  1  0  0  0  0
 37 74  1  0  0  0  0
 37 80  2  0  0  0  0
 38 41  1  0  0  0  0
 39 48  1  0  0  0  0
 40 68  1  0  0  0  0
 41 43  1  0  0  0  0
 42 44  1  0  0  0  0
 42 45  1  0  0  0  0
 43 47  1  0  0  0  0
 44 49  1  0  0  0  0
 45 69  1  0  0  0  0
 46 49  1  0  0  0  0
 46 69  1  0  0  0  0
 47 72  1  0  0  0  0
 48 68  1  0  0  0  0
 49 67  1  0  0  0  0
 51 63  1  0  0  0  0
 52 64  1  0  0  0  0
 53 64  1  0  0  0  0
 54 64  1  0  0  0  0
 55 75  1  0  0  0  0
 56 58  1  0  0  0  0
 57 59  1  0  0  0  0
 58 60  1  0  0  0  0
 59 61  1  0  0  0  0
 60 74  1  0  0  0  0
 61 82  1  0  0  0  0
 62 64  1  0  0  0  0
 62 73  1  0  0  0  0
 63 75  1  0  0  0  0
 65 67  1  0  0  0  0
M  CHG  1  75   1
M  ISO  4  37 100  61 101  74 100  82 101
M  END
> <Batch ID>
0040

> <Smiles>
CNC(C)C(=O)NC(C(=O)N1Cc2cc([101O:1][101CH2:1]CCc3ccc(CCC[100NH:0][100C:0](=O)N4CCCC(n5nc(-c6ccc(Oc7ccc(F)cc7F)cc6)c(C(N)=O)c5N)C4)c(C)n3)ccc2CC1C(=O)NC1CCCc2ccccc21)C(C)(C)C

> <Shape>
0.233

> <Color>
0.058

> <Negative vol penalty>
0.000

$$$$

  -OEChem-04052317073D

 84 92  0     1  0  0  0  0  0999 V2000
  -20.3293  -24.7110   17.4808 C   0  0  0  0  0  0  0  0  0  0  0  0
  -20.6258  -25.5481   18.5516 C   0  0  0  0  0  0  0  0  0  0  0  0
  -26.2669  -13.4401   19.8743 C   0  0  0  0  0  0  0  0  0  0  0  0
  -24.1298  -13.7023   20.9702 C   0  0  0  0  0  0  0  0  0  0  0  0
  -21.2922  -23.8220   17.0049 C   0  0  0  0  0  0  0  0  0  0  0  0
  -21.8853  -25.4960   19.1479 C   0  0  0  0  0  0  0  0  0  0  0  0
  -23.8145  -30.0966   20.0183 C   0  0  0  0  0  0  0  0  0  0  0  0
  -26.3294  -12.1174   20.3125 C   0  0  0  0  0  0  0  0  0  0  0  0
  -24.1922  -12.3795   21.4084 C   0  0  0  0  0  0  0  0  0  0  0  0
  -23.3277  -30.7924   21.1240 C   0  0  0  0  0  0  0  0  0  0  0  0
  -23.6571   -9.3021   20.1185 C   0  0  0  0  0  0  0  0  0  0  0  0
  -22.5075   -8.5230   19.9884 C   0  0  0  0  0  0  0  0  0  0  0  0
  -20.5120  -26.8591   24.7003 C   0  0  0  0  0  0  0  0  0  0  0  0
  -25.2785  -30.1414   22.3849 C   0  0  0  0  0  0  0  0  0  0  0  0
  -22.4669   -8.1833   22.3800 C   0  0  0  0  0  0  0  0  0  0  0  0
  -19.8519  -27.8026   25.4609 C   0  0  0  0  0  0  0  0  0  0  0  0
  -25.1671  -14.2326   20.2032 C   0  0  0  0  0  0  0  0  0  0  0  0
  -24.5432  -16.0713   18.5486 C   0  0  0  0  0  0  0  0  0  0  0  0
  -22.5673  -23.7658   17.5895 C   0  0  0  0  0  0  0  0  0  0  0  0
  -25.0338  -29.4077   20.0911 C   0  0  0  0  0  0  0  0  0  0  0  0
  -22.8657  -24.6045   18.6803 C   0  0  0  0  0  0  0  0  0  0  0  0
  -25.7798  -29.4397   21.2779 C   0  0  0  0  0  0  0  0  0  0  0  0
  -25.2920  -11.5871   21.0795 C   0  0  0  0  0  0  0  0  0  0  0  0
  -24.0583  -30.8125   22.3084 C   0  0  0  0  0  0  0  0  0  0  0  0
  -24.2117   -9.5219   21.3794 C   0  0  0  0  0  0  0  0  0  0  0  0
  -21.9124   -7.9636   21.1191 C   0  0  0  0  0  0  0  0  0  0  0  0
  -23.6166   -8.9625   22.5102 C   0  0  0  0  0  0  0  0  0  0  0  0
  -25.1022  -15.5993   19.7513 C   0  0  0  0  0  0  0  0  0  0  0  0
  -21.8013  -27.1847   24.3320 C   0  0  0  0  0  0  0  0  0  0  0  0
  -24.7317  -17.4311   18.5928 C   0  0  0  0  0  0  0  0  0  0  0  0
  -21.6617  -29.1773   25.4170 C   0  0  0  0  0  0  0  0  0  0  0  0
  -23.9100  -15.3456   17.4865 C   0  0  0  0  0  0  0  0  0  0  0  0
  -25.9121  -26.3661   19.8070 C   0  0  0  0  0  0  0  0  0  0  0  0
  -28.8984  -27.6137   20.0254 C   0  0  0  0  0  0  0  0  0  0  0  0
  -30.9011  -30.1682   21.0793 C   0  0  0  0  0  0  0  0  0  0  0  0
  -25.3192  -21.1755   23.1193 C   0  0  0  0  0  0  0  0  0  0  0  0
  -23.5596  -22.7553   17.0711 C   0  0  0  0  0  0  0  0  0  0  0  0
  -25.5580  -28.6841   18.8811 C   0  0  0  0  0  0  0  0  0  0  0  0
  -27.1042  -28.7332   21.4013 C   0  0  0  0  0  0  0  0  0  0  0  0
  -24.9942  -23.0261   17.5171 C   0  0  0  0  0  0  0  0  0  0  0  0
  -27.6706  -20.7474   20.4017 C   0  0  0  0  0  0  0  0  0  0  0  0
  -25.0396  -23.3353   19.0102 C   0  0  0  0  0  0  0  0  0  0  0  0
  -27.2149  -19.4111   19.8129 C   0  0  0  0  0  0  0  0  0  0  0  0
  -27.5510  -20.7508   21.9229 C   0  0  0  0  0  0  0  0  0  0  0  0
  -25.7327  -19.0890   21.8474 C   0  0  0  0  0  0  0  0  0  0  0  0
  -24.2288  -24.5949   19.3377 C   0  0  1  0  0  0  0  0  0  0  0  0
  -26.5632  -27.5902   19.2280 C   0  0  1  0  0  0  0  0  0  0  0  0
  -25.8082  -19.0299   20.3109 C   0  0  2  0  0  0  0  0  0  0  0  0
  -33.3044  -30.8869   21.1491 C   0  0  0  0  0  0  0  0  0  0  0  0
  -29.4172  -25.6494   22.3019 C   0  0  0  0  0  0  0  0  0  0  0  0
  -31.4110  -27.0228   22.9395 C   0  0  0  0  0  0  0  0  0  0  0  0
  -31.3214  -25.9205   20.7036 C   0  0  0  0  0  0  0  0  0  0  0  0
  -30.3471  -32.5817   19.4586 C   0  0  0  0  0  0  0  0  0  0  0  0
  -22.5945  -26.2268   23.5081 C   0  0  0  0  0  0  0  0  0  0  0  0
  -22.3071  -30.4796   25.8185 C   0  0  0  0  0  0  0  0  0  0  0  0
  -23.3971  -25.2425   24.3728 C   0  0  0  0  0  0  0  0  0  0  0  0
  -21.8232  -31.6829   25.0065 C   0  0  0  0  0  0  0  0  0  0  0  0
  -24.2355  -24.2892   23.5160 C   0  0  0  0  0  0  0  0  0  0  0  0
  -25.0514  -23.3108   24.3546 C   0  0  0  0  0  0  0  0  0  0  0  0
  -22.1680  -31.5894   23.5247 C   0  0  0  0  0  0  0  0  0  1  0  0
  -29.8473  -27.9237   21.1578 C   0  0  1  0  0  0  0  0  0  0  0  0
  -31.9976  -30.9454   20.3736 C   0  0  2  0  0  0  0  0  0  0  0  0
  -30.4734  -26.6409   21.7743 C   0  0  0  0  0  0  0  0  0  0  0  0
  -20.3986  -28.9768   25.8387 N   0  0  0  0  0  0  0  0  0  0  0  0
  -25.6081  -16.5795   20.5044 N   0  0  0  0  0  0  0  0  0  0  0  0
  -22.4097  -28.3394   24.6740 N   0  0  0  0  0  0  0  0  0  0  0  0
  -25.3677  -17.6811   19.7731 N   0  0  0  0  0  0  0  0  0  0  0  0
  -27.5714  -28.0343   20.1927 N   0  0  0  0  0  0  0  0  0  0  0  0
  -26.1836  -20.3984   22.3304 N   0  0  0  0  0  0  0  0  0  0  0  0
  -24.4139  -18.4254   17.7367 N   0  0  0  0  0  0  0  0  0  0  0  0
  -23.7993  -13.9532   17.6020 N   0  0  0  0  0  0  0  0  0  0  0  0
  -24.9730  -25.7828   18.9779 N   0  0  0  0  0  0  0  0  0  0  0  0
  -30.8233  -28.8684   20.6256 N   0  0  0  0  0  0  0  0  0  0  0  0
  -25.8251  -22.3988   23.5418 N   0  0  0  0  0  0  0  0  0  0  0  0
  -31.6042  -32.3749   20.2227 N   0  3  0  0  0  0  0  0  0  0  0  0
  -23.4706  -15.9132   16.4578 O   0  0  0  0  0  0  0  0  0  0  0  0
  -26.2386  -25.9785   20.9228 O   0  0  0  0  0  0  0  0  0  0  0  0
  -29.3206  -27.0266   19.0261 O   0  0  0  0  0  0  0  0  0  0  0  0
  -30.1876  -30.6633   21.9490 O   0  0  0  0  0  0  0  0  0  0  0  0
  -24.1783  -20.8087   23.4207 O   0  0  0  0  0  0  0  0  0  0  0  0
  -25.3525  -10.2963   21.5071 O   0  0  0  0  0  0  0  0  0  0  0  0
  -23.5852  -31.4904   23.3894 O   0  0  0  0  0  0  0  0  0  1  0  0
  -20.8076   -7.2166   20.9941 F   0  0  0  0  0  0  0  0  0  0  0  0
  -24.1441   -9.1710   23.7243 F   0  0  0  0  0  0  0  0  0  0  0  0
  1  2  1  0  0  0  0
  1  5  2  0  0  0  0
  2  6  2  0  0  0  0
  3  8  2  0  0  0  0
  3 17  1  0  0  0  0
  4  9  1  0  0  0  0
  4 17  2  0  0  0  0
  5 19  1  0  0  0  0
  6 21  1  0  0  0  0
  7 10  2  0  0  0  0
  7 20  1  0  0  0  0
  8 23  1  0  0  0  0
  9 23  2  0  0  0  0
 10 24  1  0  0  0  0
 11 12  2  0  0  0  0
 11 25  1  0  0  0  0
 12 26  1  0  0  0  0
 13 16  1  0  0  0  0
 13 29  2  0  0  0  0
 14 22  1  0  0  0  0
 14 24  2  0  0  0  0
 15 26  2  0  0  0  0
 15 27  1  0  0  0  0
 16 64  2  0  0  0  0
 17 28  1  0  0  0  0
 18 28  1  0  0  0  0
 18 30  2  0  0  0  0
 18 32  1  0  0  0  0
 19 21  2  0  0  0  0
 19 37  1  0  0  0  0
 20 22  2  0  0  0  0
 20 38  1  0  0  0  0
 21 46  1  0  0  0  0
 22 39  1  0  0  0  0
 23 81  1  0  0  0  0
 24 82  1  0  0  0  0
 25 27  2  0  0  0  0
 25 81  1  0  0  0  0
 26 83  1  0  0  0  0
 27 84  1  0  0  0  0
 28 65  2  0  0  0  0
 29 54  1  0  0  0  0
 29 66  1  0  0  0  0
 30 67  1  0  0  0  0
 30 70  1  0  0  0  0
 31 55  1  0  0  0  0
 31 64  1  0  0  0  0
 31 66  2  0  0  0  0
 32 71  1  0  0  0  0
 32 76  2  0  0  0  0
 33 47  1  0  0  0  0
 33 72  1  0  0  0  0
 33 77  2  0  0  0  0
 34 61  1  0  0  0  0
 34 68  1  0  0  0  0
 34 78  2  0  0  0  0
 35 62  1  0  0  0  0
 35 73  1  0  0  0  0
 35 79  2  0  0  0  0
 36 69  1  0  0  0  0
 36 74  1  0  0  0  0
 36 80  2  0  0  0  0
 37 40  1  0  0  0  0
 38 47  1  0  0  0  0
 39 68  1  0  0  0  0
 40 42  1  0  0  0  0
 41 43  1  0  0  0  0
 41 44  1  0  0  0  0
 42 46  1  0  0  0  0
 43 48  1  0  0  0  0
 44 69  1  0  0  0  0
 45 48  1  0  0  0  0
 45 69  1  0  0  0  0
 46 72  1  0  0  0  0
 47 68  1  0  0  0  0
 48 67  1  0  0  0  0
 49 62  1  0  0  0  0
 50 63  1  0  0  0  0
 51 63  1  0  0  0  0
 52 63  1  0  0  0  0
 53 75  1  0  0  0  0
 54 56  1  0  0  0  0
 55 57  1  0  0  0  0
 56 58  1  0  0  0  0
 57 60  1  0  0  0  0
 58 59  1  0  0  0  0
 59 74  1  0  0  0  0
 60 82  1  0  0  0  0
 61 63  1  0  0  0  0
 61 73  1  0  0  0  0
 62 75  1  0  0  0  0
 65 67  1  0  0  0  0
M  CHG  1  75   1
M  ISO  4  36 100  60 101  74 100  82 101
M  END
> <Batch ID>
0040

> <Smiles>
CNC(C)C(=O)NC(C(=O)N1Cc2cc([101O:1][101CH2:1]CCc3nccc(CCCC[100NH:0][100C:0](=O)N4CCCC(n5nc(-c6ccc(Oc7ccc(F)cc7F)cc6)c(C(N)=O)c5N)C4)n3)ccc2CC1C(=O)NC1CCCc2ccccc21)C(C)(C)C

> <Shape>
0.196

> <Color>
0.085

> <Negative vol penalty>
0.000

$$$$

  -OEChem-04052317073D

 85 93  0     1  0  0  0  0  0999 V2000
  -32.1177  -21.9926   23.2967 C   0  0  0  0  0  0  0  0  0  0  0  0
  -30.8285  -22.3478   22.9131 C   0  0  0  0  0  0  0  0  0  0  0  0
  -30.8479  -24.4035   19.3510 C   0  0  0  0  0  0  0  0  0  0  0  0
  -31.2257  -26.2208   17.8044 C   0  0  0  0  0  0  0  0  0  0  0  0
  -32.6893  -20.8172   22.8112 C   0  0  0  0  0  0  0  0  0  0  0  0
  -30.1104  -21.5282   22.0429 C   0  0  0  0  0  0  0  0  0  0  0  0
  -24.0695  -20.5224   22.0754 C   0  0  0  0  0  0  0  0  0  0  0  0
  -31.4647  -23.5208   18.4644 C   0  0  0  0  0  0  0  0  0  0  0  0
  -31.8425  -25.3381   16.9179 C   0  0  0  0  0  0  0  0  0  0  0  0
  -23.0245  -21.0631   21.3275 C   0  0  0  0  0  0  0  0  0  0  0  0
  -30.6562  -21.8691   15.6285 C   0  0  0  0  0  0  0  0  0  0  0  0
  -30.0337  -20.6423   15.3985 C   0  0  0  0  0  0  0  0  0  0  0  0
  -23.1450  -19.1880   19.8147 C   0  0  0  0  0  0  0  0  0  0  0  0
  -21.4059  -26.7609   21.6289 C   0  0  0  0  0  0  0  0  0  0  0  0
  -20.0064  -28.5921   22.3166 C   0  0  0  0  0  0  0  0  0  0  0  0
  -31.9940  -19.4936   16.2200 C   0  0  0  0  0  0  0  0  0  0  0  0
  -30.7284  -25.7536   19.0210 C   0  0  0  0  0  0  0  0  0  0  0  0
  -30.7056  -27.4102   20.9607 C   0  0  0  0  0  0  0  0  0  0  0  0
  -31.9743  -19.9779   21.9423 C   0  0  0  0  0  0  0  0  0  0  0  0
  -24.6683  -19.3138   21.6917 C   0  0  0  0  0  0  0  0  0  0  0  0
  -30.6735  -20.3412   21.5443 C   0  0  0  0  0  0  0  0  0  0  0  0
  -24.1957  -18.6328   20.5609 C   0  0  0  0  0  0  0  0  0  0  0  0
  -20.1389  -27.3066   21.8032 C   0  0  0  0  0  0  0  0  0  0  0  0
  -31.9620  -23.9881   17.2479 C   0  0  0  0  0  0  0  0  0  0  0  0
  -22.5640  -20.3974   20.1953 C   0  0  0  0  0  0  0  0  0  0  0  0
  -31.9477  -21.9082   16.1541 C   0  0  0  0  0  0  0  0  0  0  0  0
  -30.7025  -19.4545   15.6942 C   0  0  0  0  0  0  0  0  0  0  0  0
  -32.6165  -20.7204   16.4499 C   0  0  0  0  0  0  0  0  0  0  0  0
  -30.0909  -26.6658   19.9361 C   0  0  0  0  0  0  0  0  0  0  0  0
  -22.4997  -27.5355   21.9808 C   0  0  0  0  0  0  0  0  0  0  0  0
  -21.1628  -29.2847   22.6376 C   0  0  0  0  0  0  0  0  0  0  0  0
  -29.6775  -28.1154   21.5369 C   0  0  0  0  0  0  0  0  0  0  0  0
  -32.0829  -27.4598   21.3562 C   0  0  0  0  0  0  0  0  0  0  0  0
  -23.8610  -27.0105   21.8182 C   0  0  0  0  0  0  0  0  0  0  0  0
  -27.5921  -18.4434   20.7987 C   0  0  0  0  0  0  0  0  0  0  0  0
  -26.3120  -15.4643   20.8934 C   0  0  0  0  0  0  0  0  0  0  0  0
  -23.5233  -13.5031   20.7406 C   0  0  0  0  0  0  0  0  0  0  0  0
  -32.6517  -18.7416   21.4063 C   0  0  0  0  0  0  0  0  0  0  0  0
  -25.7767  -18.7303   22.5244 C   0  0  0  0  0  0  0  0  0  0  0  0
  -24.7911  -17.3220   20.1181 C   0  0  0  0  0  0  0  0  0  0  0  0
  -31.6841  -17.7382   20.7840 C   0  0  0  0  0  0  0  0  0  0  0  0
  -25.4120  -30.0266   20.5282 C   0  0  0  0  0  0  0  0  0  0  0  0
  -30.7049  -18.4472   19.8538 C   0  0  0  0  0  0  0  0  0  0  0  0
  -26.8512  -29.5583   20.3091 C   0  0  0  0  0  0  0  0  0  0  0  0
  -24.4129  -28.9158   20.2194 C   0  0  0  0  0  0  0  0  0  0  0  0
  -26.0903  -27.1827   20.7635 C   0  0  0  0  0  0  0  0  0  0  0  0
  -29.8536  -19.4657   20.6216 C   0  0  1  0  0  0  0  0  0  0  0  0
  -26.6554  -17.7532   21.7494 C   0  0  1  0  0  0  0  0  0  0  0  0
  -27.1392  -28.2608   21.0867 C   0  0  1  0  0  0  0  0  0  0  0  0
  -21.0665  -31.7323   22.1025 C   0  0  0  0  0  0  0  0  0  0  0  0
  -22.7974  -11.1020   20.8111 C   0  0  0  0  0  0  0  0  0  0  0  0
  -27.3030  -15.0833   18.0328 C   0  0  0  0  0  0  0  0  0  0  0  0
  -25.7658  -13.1169   17.8362 C   0  0  0  0  0  0  0  0  0  0  0  0
  -27.6092  -13.0936   19.5167 C   0  0  0  0  0  0  0  0  0  0  0  0
  -21.8751  -13.9515   23.1576 C   0  0  0  0  0  0  0  0  0  0  0  0
  -18.9138  -26.5073   21.4373 C   0  0  0  0  0  0  0  0  0  0  0  0
  -21.0585  -30.6655   23.1938 C   0  0  0  0  0  0  0  0  0  0  0  0
  -18.4555  -26.7023   19.9860 C   0  0  0  0  0  0  0  0  0  0  0  0
  -20.7995  -22.7682   18.1234 C   0  0  0  0  0  0  0  0  0  0  0  0
  -19.4539  -26.2630   18.9194 C   0  0  0  0  0  0  0  0  0  0  0  0
  -20.6345  -24.2734   17.9777 C   0  0  0  0  0  0  0  0  0  0  0  0
  -21.4216  -22.3450   19.4485 C   0  0  0  0  0  0  0  0  0  1  0  0
  -25.5978  -14.5757   19.9038 C   0  0  1  0  0  0  0  0  0  0  0  0
  -23.0430  -12.3646   21.6224 C   0  0  2  0  0  0  0  0  0  0  0  0
  -26.5588  -13.9930   18.8294 C   0  0  0  0  0  0  0  0  0  0  0  0
  -28.7742  -26.8782   19.8633 N   0  0  0  0  0  0  0  0  0  0  0  0
  -22.4104  -28.7877   22.4824 N   0  0  0  0  0  0  0  0  0  0  0  0
  -28.5532  -27.7640   20.8494 N   0  0  0  0  0  0  0  0  0  0  0  0
  -24.7375  -27.7007   20.9773 N   0  0  0  0  0  0  0  0  0  0  0  0
  -25.8767  -16.7954   20.9616 N   0  0  0  0  0  0  0  0  0  0  0  0
  -29.6344  -28.9956   22.5596 N   0  0  0  0  0  0  0  0  0  0  0  0
  -33.0075  -26.6719   20.6573 N   0  0  0  0  0  0  0  0  0  0  0  0
  -28.8053  -18.7942   21.3596 N   0  0  0  0  0  0  0  0  0  0  0  0
  -24.8998  -13.5656   20.6919 N   0  0  0  0  0  0  0  0  0  0  0  0
  -21.7724  -12.7389   22.3054 N   0  3  0  0  0  0  0  0  0  0  0  0
  -19.7214  -24.8014   19.0184 N   0  3  0  0  0  0  0  0  0  0  0  0
  -32.4791  -28.1691   22.3119 O   0  0  0  0  0  0  0  0  0  0  0  0
  -24.1294  -25.9926   22.4545 O   0  0  0  0  0  0  0  0  0  0  0  0
  -27.2408  -18.6416   19.6415 O   0  0  0  0  0  0  0  0  0  0  0  0
  -27.2178  -14.9930   21.5855 O   0  0  0  0  0  0  0  0  0  0  0  0
  -22.7542  -14.2589   20.1508 O   0  0  0  0  0  0  0  0  0  0  0  0
  -32.5641  -23.1270   16.3826 O   0  0  0  0  0  0  0  0  0  0  0  0
  -21.5446  -20.9234   19.4631 O   0  0  0  0  0  0  0  0  0  1  0  0
  -30.1040  -18.2765   15.4748 F   0  0  0  0  0  0  0  0  0  0  0  0
  -33.8569  -20.7517   16.9562 F   0  0  0  0  0  0  0  0  0  0  0  0
  1  2  1  0  0  0  0
  1  5  2  0  0  0  0
  2  6  2  0  0  0  0
  3  8  2  0  0  0  0
  3 17  1  0  0  0  0
  4  9  1  0  0  0  0
  4 17  2  0  0  0  0
  5 19  1  0  0  0  0
  6 21  1  0  0  0  0
  7 10  2  0  0  0  0
  7 20  1  0  0  0  0
  8 24  1  0  0  0  0
  9 24  2  0  0  0  0
 10 25  1  0  0  0  0
 11 12  2  0  0  0  0
 11 26  1  0  0  0  0
 12 27  1  0  0  0  0
 13 22  1  0  0  0  0
 13 25  2  0  0  0  0
 14 23  1  0  0  0  0
 14 30  2  0  0  0  0
 15 23  2  0  0  0  0
 15 31  1  0  0  0  0
 16 27  2  0  0  0  0
 16 28  1  0  0  0  0
 17 29  1  0  0  0  0
 18 29  1  0  0  0  0
 18 32  2  0  0  0  0
 18 33  1  0  0  0  0
 19 21  2  0  0  0  0
 19 38  1  0  0  0  0
 20 22  2  0  0  0  0
 20 39  1  0  0  0  0
 21 47  1  0  0  0  0
 22 40  1  0  0  0  0
 23 56  1  0  0  0  0
 24 82  1  0  0  0  0
 25 83  1  0  0  0  0
 26 28  2  0  0  0  0
 26 82  1  0  0  0  0
 27 84  1  0  0  0  0
 28 85  1  0  0  0  0
 29 66  2  0  0  0  0
 30 34  1  0  0  0  0
 30 67  1  0  0  0  0
 31 57  1  0  0  0  0
 31 67  2  0  0  0  0
 32 68  1  0  0  0  0
 32 71  1  0  0  0  0
 33 72  1  0  0  0  0
 33 77  2  0  0  0  0
 34 69  1  0  0  0  0
 34 78  2  0  0  0  0
 35 48  1  0  0  0  0
 35 73  1  0  0  0  0
 35 79  2  0  0  0  0
 36 63  1  0  0  0  0
 36 70  1  0  0  0  0
 36 80  2  0  0  0  0
 37 64  1  0  0  0  0
 37 74  1  0  0  0  0
 37 81  2  0  0  0  0
 38 41  1  0  0  0  0
 39 48  1  0  0  0  0
 40 70  1  0  0  0  0
 41 43  1  0  0  0  0
 42 44  1  0  0  0  0
 42 45  1  0  0  0  0
 43 47  1  0  0  0  0
 44 49  1  0  0  0  0
 45 69  1  0  0  0  0
 46 49  1  0  0  0  0
 46 69  1  0  0  0  0
 47 73  1  0  0  0  0
 48 70  1  0  0  0  0
 49 68  1  0  0  0  0
 50 57  1  0  0  0  0
 51 64  1  0  0  0  0
 52 65  1  0  0  0  0
 53 65  1  0  0  0  0
 54 65  1  0  0  0  0
 55 75  1  0  0  0  0
 56 58  1  0  0  0  0
 58 60  1  0  0  0  0
 59 61  1  0  0  0  0
 59 62  1  0  0  0  0
 60 76  1  0  0  0  0
 61 76  1  0  0  0  0
 62 83  1  0  0  0  0
 63 65  1  0  0  0  0
 63 74  1  0  0  0  0
 64 75  1  0  0  0  0
 66 68  1  0  0  0  0
M  CHG  2  75   1  76   1
M  ISO  4  30 100  34 100  62 101  83 101
M  END
> <Batch ID>
0040

> <Smiles>
CCc1cc(CCCNCC[101CH2:1][101O:1]c2ccc3c(c2)CN(C(=O)C(NC(=O)C(C)NC)C(C)(C)C)C(C(=O)NC2CCCc4ccccc42)C3)c[100c:0]([100C:0](=O)N2CCCC(n3nc(-c4ccc(Oc5ccc(F)cc5F)cc4)c(C(N)=O)c3N)C2)n1

> <Shape>
0.220

> <Color>
0.059

> <Negative vol penalty>
0.000

$$$$

  -OEChem-04052317073D

 87 95  0     1  0  0  0  0  0999 V2000
  -16.6539  -29.3016   23.1496 C   0  0  0  0  0  0  0  0  0  0  0  0
  -17.3687  -28.2167   22.6523 C   0  0  0  0  0  0  0  0  0  0  0  0
  -23.0936   -9.8812   21.5030 C   0  0  0  0  0  0  0  0  0  0  0  0
  -23.7617  -10.8770   23.6003 C   0  0  0  0  0  0  0  0  0  0  0  0
  -17.2612  -30.1858   24.0403 C   0  0  0  0  0  0  0  0  0  0  0  0
  -18.6917  -28.0159   23.0446 C   0  0  0  0  0  0  0  0  0  0  0  0
  -21.5051  -22.6429   23.8933 C   0  0  0  0  0  0  0  0  0  0  0  0
  -28.0276  -20.3870   19.6559 C   0  0  0  0  0  0  0  0  0  0  0  0
  -27.3308  -21.1691   20.5770 C   0  0  0  0  0  0  0  0  0  0  0  0
  -22.3628   -8.9151   22.1944 C   0  0  0  0  0  0  0  0  0  0  0  0
  -23.0309   -9.9109   24.2918 C   0  0  0  0  0  0  0  0  0  0  0  0
  -22.3553  -21.8910   23.0836 C   0  0  0  0  0  0  0  0  0  0  0  0
  -22.9871   -6.0476   23.8714 C   0  0  0  0  0  0  0  0  0  0  0  0
  -23.1109   -4.7219   23.4559 C   0  0  0  0  0  0  0  0  0  0  0  0
  -24.2632  -22.8595   24.1976 C   0  0  0  0  0  0  0  0  0  0  0  0
  -27.4863  -18.4059   20.9284 C   0  0  0  0  0  0  0  0  0  0  0  0
  -20.7395   -4.6430   23.0008 C   0  0  0  0  0  0  0  0  0  0  0  0
  -23.7932  -10.8622   22.2059 C   0  0  0  0  0  0  0  0  0  0  0  0
  -24.0907  -13.1133   21.0433 C   0  0  0  0  0  0  0  0  0  0  0  0
  -18.5892  -29.9904   24.4512 C   0  0  0  0  0  0  0  0  0  0  0  0
  -22.0287  -23.5183   24.8555 C   0  0  0  0  0  0  0  0  0  0  0  0
  -19.3177  -28.8991   23.9405 C   0  0  0  0  0  0  0  0  0  0  0  0
  -23.4175  -23.6195   25.0200 C   0  0  0  0  0  0  0  0  0  0  0  0
  -28.1053  -19.0054   19.8316 C   0  0  0  0  0  0  0  0  0  0  0  0
  -26.7118  -20.5696   21.6739 C   0  0  0  0  0  0  0  0  0  0  0  0
  -26.7896  -19.1880   21.8496 C   0  0  0  0  0  0  0  0  0  0  0  0
  -22.3314   -8.9300   23.5888 C   0  0  0  0  0  0  0  0  0  0  0  0
  -23.7345  -22.0014   23.2336 C   0  0  0  0  0  0  0  0  0  0  0  0
  -21.7394   -6.6711   23.8518 C   0  0  0  0  0  0  0  0  0  0  0  0
  -21.9871   -4.0196   23.0205 C   0  0  0  0  0  0  0  0  0  0  0  0
  -20.6156   -5.9687   23.4164 C   0  0  0  0  0  0  0  0  0  0  0  0
  -24.5487  -11.8601   21.4922 C   0  0  0  0  0  0  0  0  0  0  0  0
  -25.1817  -13.6776   20.4288 C   0  0  0  0  0  0  0  0  0  0  0  0
  -22.7949  -13.7136   21.1706 C   0  0  0  0  0  0  0  0  0  0  0  0
  -21.9021  -26.6577   25.3371 C   0  0  0  0  0  0  0  0  0  0  0  0
  -23.4507  -25.9054   28.0863 C   0  0  0  0  0  0  0  0  0  0  0  0
  -25.4444  -23.7157   29.7824 C   0  0  0  0  0  0  0  0  0  0  0  0
  -30.6330  -14.8683   20.3232 C   0  0  0  0  0  0  0  0  0  0  0  0
  -19.2180  -30.9996   25.3790 C   0  0  0  0  0  0  0  0  0  0  0  0
  -21.0979  -24.3024   25.7393 C   0  0  0  0  0  0  0  0  0  0  0  0
  -24.0296  -24.5297   26.0522 C   0  0  0  0  0  0  0  0  0  0  0  0
  -20.5043  -30.5049   26.0354 C   0  0  0  0  0  0  0  0  0  0  0  0
  -29.6371  -11.6643   19.1317 C   0  0  0  0  0  0  0  0  0  0  0  0
  -21.4172  -29.8566   24.9994 C   0  0  0  0  0  0  0  0  0  0  0  0
  -28.1896  -11.5307   19.6079 C   0  0  0  0  0  0  0  0  0  0  0  0
  -30.5015  -12.4004   20.1530 C   0  0  0  0  0  0  0  0  0  0  0  0
  -28.5325  -13.5809   21.0493 C   0  0  0  0  0  0  0  0  0  0  0  0
  -20.7469  -28.6338   24.3616 C   0  0  1  0  0  0  0  0  0  0  0  0
  -21.7477  -25.5467   26.3368 C   0  0  1  0  0  0  0  0  0  0  0  0
  -27.6094  -12.8946   20.0280 C   0  0  2  0  0  0  0  0  0  0  0  0
  -26.5726  -23.3907   32.0003 C   0  0  0  0  0  0  0  0  0  0  0  0
  -25.3590  -17.2025   25.7660 C   0  0  0  0  0  0  0  0  0  0  0  0
  -25.8350  -15.5370   23.9567 C   0  0  0  0  0  0  0  0  0  0  0  0
  -27.9051  -18.7301   24.8275 C   0  0  0  0  0  0  0  0  0  0  0  0
  -25.5730  -27.9533   27.3041 C   0  0  0  0  0  0  0  0  0  0  0  0
  -27.0941  -26.9233   29.0052 C   0  0  0  0  0  0  0  0  0  0  0  0
  -24.9481  -27.9715   29.7256 C   0  0  0  0  0  0  0  0  0  0  0  0
  -23.9355  -21.2263   30.3159 C   0  0  0  0  0  0  0  0  0  0  0  0
  -28.8508  -18.1696   18.8469 C   0  0  0  0  0  0  0  0  0  0  0  0
  -26.1350  -18.5241   23.0165 C   0  0  0  0  0  0  0  0  0  0  0  0
  -25.9690  -21.4315   22.6519 C   0  0  0  0  0  0  0  0  0  1  0  0
  -30.3439  -17.9740   19.1767 C   0  0  0  0  0  0  0  0  0  0  0  0
  -30.6083  -17.3403   20.5408 C   0  0  0  0  0  0  0  0  0  0  0  0
  -24.8973  -25.7640   28.4941 C   0  0  1  0  0  0  0  0  0  0  0  0
  -25.3274  -23.1154   31.1718 C   0  0  2  0  0  0  0  0  0  0  0  0
  -26.4289  -16.6596   24.8151 C   0  0  0  0  0  0  0  0  0  0  0  0
  -27.1143  -17.7525   23.9436 C   0  0  2  0  0  0  0  0  0  0  0  0
  -25.6169  -27.1372   28.6114 C   0  0  0  0  0  0  0  0  0  0  0  0
  -25.8308  -11.6407   21.1886 N   0  0  0  0  0  0  0  0  0  0  0  0
  -26.1877  -12.7636   20.5422 N   0  0  0  0  0  0  0  0  0  0  0  0
  -23.0779  -25.2803   26.8879 N   0  0  0  0  0  0  0  0  0  0  0  0
  -29.8965  -13.6865   20.5078 N   0  0  0  0  0  0  0  0  0  0  0  0
  -25.3691  -14.8615   19.8078 N   0  0  0  0  0  0  0  0  0  0  0  0
  -21.7881  -12.9963   21.8310 N   0  0  0  0  0  0  0  0  0  0  0  0
  -20.8086  -27.4989   25.2575 N   0  0  0  0  0  0  0  0  0  0  0  0
  -24.8996  -24.9811   29.7252 N   0  0  0  0  0  0  0  0  0  0  0  0
  -29.9832  -16.0438   20.6788 N   0  0  0  0  0  0  0  0  0  0  0  0
  -25.1379  -21.6399   31.0843 N   0  3  0  0  0  0  0  0  0  0  0  0
  -22.5329  -14.8456   20.6978 O   0  0  0  0  0  0  0  0  0  0  0  0
  -22.9372  -26.7462   24.6871 O   0  0  0  0  0  0  0  0  0  0  0  0
  -22.6782  -26.5409   28.8081 O   0  0  0  0  0  0  0  0  0  0  0  0
  -25.9702  -23.1230   28.8429 O   0  0  0  0  0  0  0  0  0  0  0  0
  -31.7825  -14.8756   19.8697 O   0  0  0  0  0  0  0  0  0  0  0  0
  -21.6182   -7.9875   24.2639 O   0  0  0  0  0  0  0  0  0  0  0  0
  -24.5666  -21.2691   22.4441 O   0  0  0  0  0  0  0  0  0  1  0  0
  -22.1065   -2.7470   22.6200 F   0  0  0  0  0  0  0  0  0  0  0  0
  -19.4145   -6.5627   23.3942 F   0  0  0  0  0  0  0  0  0  0  0  0
  1  2  1  0  0  0  0
  1  5  2  0  0  0  0
  2  6  2  0  0  0  0
  3 10  2  0  0  0  0
  3 18  1  0  0  0  0
  4 11  1  0  0  0  0
  4 18  2  0  0  0  0
  5 20  1  0  0  0  0
  6 22  1  0  0  0  0
  7 12  2  0  0  0  0
  7 21  1  0  0  0  0
  8  9  2  0  0  0  0
  8 24  1  0  0  0  0
  9 25  1  0  0  0  0
 10 27  1  0  0  0  0
 11 27  2  0  0  0  0
 12 28  1  0  0  0  0
 13 14  2  0  0  0  0
 13 29  1  0  0  0  0
 14 30  1  0  0  0  0
 15 23  1  0  0  0  0
 15 28  2  0  0  0  0
 16 24  2  0  0  0  0
 16 26  1  0  0  0  0
 17 30  2  0  0  0  0
 17 31  1  0  0  0  0
 18 32  1  0  0  0  0
 19 32  1  0  0  0  0
 19 33  2  0  0  0  0
 19 34  1  0  0  0  0
 20 22  2  0  0  0  0
 20 39  1  0  0  0  0
 21 23  2  0  0  0  0
 21 40  1  0  0  0  0
 22 48  1  0  0  0  0
 23 41  1  0  0  0  0
 24 59  1  0  0  0  0
 25 26  2  0  0  0  0
 25 61  1  0  0  0  0
 26 60  1  0  0  0  0
 27 84  1  0  0  0  0
 28 85  1  0  0  0  0
 29 31  2  0  0  0  0
 29 84  1  0  0  0  0
 30 86  1  0  0  0  0
 31 87  1  0  0  0  0
 32 69  2  0  0  0  0
 33 70  1  0  0  0  0
 33 73  1  0  0  0  0
 34 74  1  0  0  0  0
 34 79  2  0  0  0  0
 35 49  1  0  0  0  0
 35 75  1  0  0  0  0
 35 80  2  0  0  0  0
 36 64  1  0  0  0  0
 36 71  1  0  0  0  0
 36 81  2  0  0  0  0
 37 65  1  0  0  0  0
 37 76  1  0  0  0  0
 37 82  2  0  0  0  0
 38 72  1  0  0  0  0
 38 77  1  0  0  0  0
 38 83  2  0  0  0  0
 39 42  1  0  0  0  0
 40 49  1  0  0  0  0
 41 71  1  0  0  0  0
 42 44  1  0  0  0  0
 43 45  1  0  0  0  0
 43 46  1  0  0  0  0
 44 48  1  0  0  0  0
 45 50  1  0  0  0  0
 46 72  1  0  0  0  0
 47 50  1  0  0  0  0
 47 72  1  0  0  0  0
 48 75  1  0  0  0  0
 49 71  1  0  0  0  0
 50 70  1  0  0  0  0
 51 65  1  0  0  0  0
 52 66  1  0  0  0  0
 53 66  1  0  0  0  0
 54 67  1  0  0  0  0
 55 68  1  0  0  0  0
 56 68  1  0  0  0  0
 57 68  1  0  0  0  0
 58 78  1  0  0  0  0
 59 62  1  0  0  0  0
 60 67  1  0  0  0  0
 61 85  1  0  0  0  0
 62 63  1  0  0  0  0
 63 77  1  0  0  0  0
 64 68  1  0  0  0  0
 64 76  1  0  0  0  0
 65 78  1  0  0  0  0
 66 67  1  0  0  0  0
 69 70  1  0  0  0  0
M  CHG  1  78   1
M  ISO  4  38 100  61 101  77 100  85 101
M  END
> <Batch ID>
0040

> <Smiles>
CNC(C)C(=O)NC(C(=O)N1Cc2cc([101O:1][101CH2:1]c3ccc(CCC[100NH:0][100C:0](=O)N4CCCC(n5nc(-c6ccc(Oc7ccc(F)cc7F)cc6)c(C(N)=O)c5N)C4)cc3CC(C)C(C)C)ccc2CC1C(=O)NC1CCCc2ccccc21)C(C)(C)C

> <Shape>
0.223

> <Color>
0.170

> <Negative vol penalty>
0.000

$$$$

  -OEChem-04052317073D

 80 88  0     1  0  0  0  0  0999 V2000
  -17.8627  -25.9613   19.7921 C   0  0  0  0  0  0  0  0  0  0  0  0
  -19.1466  -26.2320   19.3298 C   0  0  0  0  0  0  0  0  0  0  0  0
  -25.5343  -13.1423   22.1810 C   0  0  0  0  0  0  0  0  0  0  0  0
  -26.6331  -13.2802   20.0338 C   0  0  0  0  0  0  0  0  0  0  0  0
  -17.4829  -26.3684   21.0703 C   0  0  0  0  0  0  0  0  0  0  0  0
  -20.0512  -26.9111   20.1453 C   0  0  0  0  0  0  0  0  0  0  0  0
  -24.6558  -24.8035   20.1144 C   0  0  0  0  0  0  0  0  0  0  0  0
  -24.5444  -12.3338   21.6225 C   0  0  0  0  0  0  0  0  0  0  0  0
  -25.6432  -12.4717   19.4753 C   0  0  0  0  0  0  0  0  0  0  0  0
  -25.4673  -25.0626   19.0107 C   0  0  0  0  0  0  0  0  0  0  0  0
  -24.1865   -9.0930   20.7271 C   0  0  0  0  0  0  0  0  0  0  0  0
  -23.8007   -7.9563   21.4375 C   0  0  0  0  0  0  0  0  0  0  0  0
  -26.6485  -26.7394   20.2804 C   0  0  0  0  0  0  0  0  0  0  0  0
  -21.5388   -8.7974   21.5546 C   0  0  0  0  0  0  0  0  0  0  0  0
  -31.1063  -23.1905   19.9612 C   0  0  0  0  0  0  0  0  0  0  0  0
  -26.5787  -13.6156   21.3867 C   0  0  0  0  0  0  0  0  0  0  0  0
  -28.8086  -14.0323   22.5536 C   0  0  0  0  0  0  0  0  0  0  0  0
  -18.3864  -27.0444   21.9054 C   0  0  0  0  0  0  0  0  0  0  0  0
  -24.8277  -25.5193   21.3080 C   0  0  0  0  0  0  0  0  0  0  0  0
  -19.6828  -27.3289   21.4354 C   0  0  0  0  0  0  0  0  0  0  0  0
  -25.8396  -26.4857   21.3986 C   0  0  0  0  0  0  0  0  0  0  0  0
  -24.5988  -11.9985   20.2697 C   0  0  0  0  0  0  0  0  0  0  0  0
  -26.4619  -26.0327   19.0927 C   0  0  0  0  0  0  0  0  0  0  0  0
  -23.2486  -10.0819   20.4305 C   0  0  0  0  0  0  0  0  0  0  0  0
  -22.4768   -7.8085   21.8512 C   0  0  0  0  0  0  0  0  0  0  0  0
  -21.9247   -9.9341   20.8442 C   0  0  0  0  0  0  0  0  0  0  0  0
  -27.6013  -14.4512   21.9629 C   0  0  0  0  0  0  0  0  0  0  0  0
  -29.7254  -22.9453   20.0833 C   0  0  0  0  0  0  0  0  0  0  0  0
  -31.2270  -23.8985   18.7904 C   0  0  0  0  0  0  0  0  0  0  0  0
  -29.4232  -15.1976   22.9420 C   0  0  0  0  0  0  0  0  0  0  0  0
  -29.3280  -12.7083   22.7348 C   0  0  0  0  0  0  0  0  0  0  0  0
  -23.0143  -27.4851   23.0257 C   0  0  0  0  0  0  0  0  0  0  0  0
  -28.9183  -20.7421   20.8735 C   0  0  0  0  0  0  0  0  0  0  0  0
  -25.4887  -27.3131   25.1163 C   0  0  0  0  0  0  0  0  0  0  0  0
  -28.8083  -26.7137   25.6333 C   0  0  0  0  0  0  0  0  0  0  0  0
  -17.9152  -27.5065   23.2616 C   0  0  0  0  0  0  0  0  0  0  0  0
  -23.9617  -25.2092   22.4980 C   0  0  0  0  0  0  0  0  0  0  0  0
  -26.0783  -27.2677   22.6636 C   0  0  0  0  0  0  0  0  0  0  0  0
  -19.0533  -27.8906   24.2036 C   0  0  0  0  0  0  0  0  0  0  0  0
  -28.4598  -19.6699   24.3184 C   0  0  0  0  0  0  0  0  0  0  0  0
  -20.0647  -28.7778   23.4849 C   0  0  0  0  0  0  0  0  0  0  0  0
  -28.2688  -18.1635   24.1467 C   0  0  0  0  0  0  0  0  0  0  0  0
  -27.8447  -20.4493   23.1590 C   0  0  0  0  0  0  0  0  0  0  0  0
  -28.1529  -18.5184   21.6420 C   0  0  0  0  0  0  0  0  0  0  0  0
  -20.7005  -28.0414   22.2995 C   0  0  1  0  0  0  0  0  0  0  0  0
  -23.8881  -26.3581   23.4990 C   0  0  1  0  0  0  0  0  0  0  0  0
  -28.7860  -17.6943   22.7756 C   0  0  2  0  0  0  0  0  0  0  0  0
  -32.4131  -24.4496   18.1099 C   0  0  0  0  0  0  0  0  0  0  0  0
  -30.5471  -26.6883   27.4426 C   0  0  0  0  0  0  0  0  0  0  0  0
  -25.5695  -30.3630   25.0782 C   0  0  0  0  0  0  0  0  0  0  0  0
  -27.8509  -30.2459   26.1028 C   0  0  0  0  0  0  0  0  0  0  0  0
  -25.8826  -29.3393   27.3383 C   0  0  0  0  0  0  0  0  0  0  0  0
  -29.3612  -23.8355   25.2219 C   0  0  0  0  0  0  0  0  0  0  0  0
  -29.0352  -22.2176   21.1616 C   0  0  0  0  0  0  0  0  0  0  0  0
  -29.4952  -26.2543   17.1586 C   0  0  0  0  0  0  0  0  0  0  0  0
  -29.5472  -24.7302   17.0321 C   0  0  0  0  0  0  0  0  0  0  0  0
  -28.5835  -26.7366   18.2809 C   0  0  0  0  0  0  0  0  0  1  0  0
  -26.7665  -28.0889   25.3265 C   0  0  1  0  0  0  0  0  0  0  0  0
  -29.5301  -25.8667   26.6657 C   0  0  2  0  0  0  0  0  0  0  0  0
  -26.5119  -29.4961   25.9369 C   0  0  0  0  0  0  0  0  0  0  0  0
  -27.4557  -15.7789   21.9731 N   0  0  0  0  0  0  0  0  0  0  0  0
  -29.0195  -23.4562   19.0711 N   0  0  0  0  0  0  0  0  0  0  0  0
  -29.9605  -24.0296   18.3017 N   0  0  0  0  0  0  0  0  0  0  0  0
  -28.5794  -16.2043   22.5750 N   0  0  0  0  0  0  0  0  0  0  0  0
  -25.2015  -26.9325   23.7977 N   0  0  0  0  0  0  0  0  0  0  0  0
  -28.3418  -19.9539   21.8698 N   0  0  0  0  0  0  0  0  0  0  0  0
  -30.5976  -15.4490   23.5583 N   0  0  0  0  0  0  0  0  0  0  0  0
  -28.5675  -11.6238   22.2768 N   0  0  0  0  0  0  0  0  0  0  0  0
  -21.7095  -27.1135   22.7634 N   0  0  0  0  0  0  0  0  0  0  0  0
  -27.6339  -27.2363   26.1321 N   0  0  0  0  0  0  0  0  0  0  0  0
  -30.2446  -24.7392   26.0029 N   0  3  0  0  0  0  0  0  0  0  0  0
  -30.4262  -12.4924   23.3013 O   0  0  0  0  0  0  0  0  0  0  0  0
  -23.4885  -28.6091   22.9087 O   0  0  0  0  0  0  0  0  0  0  0  0
  -29.3300  -20.3047   19.7959 O   0  0  0  0  0  0  0  0  0  0  0  0
  -24.7753  -27.0482   26.0871 O   0  0  0  0  0  0  0  0  0  0  0  0
  -29.2448  -26.8968   24.4990 O   0  0  0  0  0  0  0  0  0  0  0  0
  -23.6331  -11.2094   19.7244 O   0  0  0  0  0  0  0  0  0  0  0  0
  -27.2549  -26.2880   18.0167 O   0  0  0  0  0  0  0  0  0  1  0  0
  -22.1060   -6.7162   22.5321 F   0  0  0  0  0  0  0  0  0  0  0  0
  -21.0189  -10.8802   20.5611 F   0  0  0  0  0  0  0  0  0  0  0  0
  1  2  1  0  0  0  0
  1  5  2  0  0  0  0
  2  6  2  0  0  0  0
  3  8  2  0  0  0  0
  3 16  1  0  0  0  0
  4  9  1  0  0  0  0
  4 16  2  0  0  0  0
  5 18  1  0  0  0  0
  6 20  1  0  0  0  0
  7 10  2  0  0  0  0
  7 19  1  0  0  0  0
  8 22  1  0  0  0  0
  9 22  2  0  0  0  0
 10 23  1  0  0  0  0
 11 12  2  0  0  0  0
 11 24  1  0  0  0  0
 12 25  1  0  0  0  0
 13 21  1  0  0  0  0
 13 23  2  0  0  0  0
 14 25  2  0  0  0  0
 14 26  1  0  0  0  0
 15 28  1  0  0  0  0
 15 29  2  0  0  0  0
 16 27  1  0  0  0  0
 17 27  1  0  0  0  0
 17 30  2  0  0  0  0
 17 31  1  0  0  0  0
 18 20  2  0  0  0  0
 18 36  1  0  0  0  0
 19 21  2  0  0  0  0
 19 37  1  0  0  0  0
 20 45  1  0  0  0  0
 21 38  1  0  0  0  0
 22 77  1  0  0  0  0
 23 78  1  0  0  0  0
 24 26  2  0  0  0  0
 24 77  1  0  0  0  0
 25 79  1  0  0  0  0
 26 80  1  0  0  0  0
 27 61  2  0  0  0  0
 28 54  1  0  0  0  0
 28 62  2  0  0  0  0
 29 48  1  0  0  0  0
 29 63  1  0  0  0  0
 30 64  1  0  0  0  0
 30 67  1  0  0  0  0
 31 68  1  0  0  0  0
 31 72  2  0  0  0  0
 32 46  1  0  0  0  0
 32 69  1  0  0  0  0
 32 73  2  0  0  0  0
 33 54  1  0  0  0  0
 33 66  1  0  0  0  0
 33 74  2  0  0  0  0
 34 58  1  0  0  0  0
 34 65  1  0  0  0  0
 34 75  2  0  0  0  0
 35 59  1  0  0  0  0
 35 70  1  0  0  0  0
 35 76  2  0  0  0  0
 36 39  1  0  0  0  0
 37 46  1  0  0  0  0
 38 65  1  0  0  0  0
 39 41  1  0  0  0  0
 40 42  1  0  0  0  0
 40 43  1  0  0  0  0
 41 45  1  0  0  0  0
 42 47  1  0  0  0  0
 43 66  1  0  0  0  0
 44 47  1  0  0  0  0
 44 66  1  0  0  0  0
 45 69  1  0  0  0  0
 46 65  1  0  0  0  0
 47 64  1  0  0  0  0
 49 59  1  0  0  0  0
 50 60  1  0  0  0  0
 51 60  1  0  0  0  0
 52 60  1  0  0  0  0
 53 71  1  0  0  0  0
 55 56  1  0  0  0  0
 55 57  1  0  0  0  0
 56 63  1  0  0  0  0
 57 78  1  0  0  0  0
 58 60  1  0  0  0  0
 58 70  1  0  0  0  0
 59 71  1  0  0  0  0
 61 64  1  0  0  0  0
 62 63  1  0  0  0  0
M  CHG  1  71   1
M  ISO  4  33 100  54 100  57 101  78 101
M  END
> <Batch ID>
0040

> <Smiles>
CNC(C)C(=O)NC(C(=O)N1Cc2cc([101O:1][101CH2:1]CCn3nc([100CH2:0][100C:0](=O)N4CCCC(n5nc(-c6ccc(Oc7ccc(F)cc7F)cc6)c(C(N)=O)c5N)C4)cc3C)ccc2CC1C(=O)NC1CCCc2ccccc21)C(C)(C)C

> <Shape>
0.240

> <Color>
0.108

> <Negative vol penalty>
0.000

$$$$

  -OEChem-04052317073D

 83 91  0     1  0  0  0  0  0999 V2000
  -22.4173   -8.2994   20.6148 C   0  0  0  0  0  0  0  0  0  0  0  0
  -22.1140   -9.5972   20.2157 C   0  0  0  0  0  0  0  0  0  0  0  0
  -24.2113  -27.6384   23.6518 C   0  0  0  0  0  0  0  0  0  0  0  0
  -23.6527  -28.3635   21.4159 C   0  0  0  0  0  0  0  0  0  0  0  0
  -23.4321   -8.0764   21.5445 C   0  0  0  0  0  0  0  0  0  0  0  0
  -22.8246  -10.6728   20.7470 C   0  0  0  0  0  0  0  0  0  0  0  0
  -24.3471  -15.8603   17.8698 C   0  0  0  0  0  0  0  0  0  0  0  0
  -24.1459  -28.9588   24.0964 C   0  0  0  0  0  0  0  0  0  0  0  0
  -23.5872  -29.6840   21.8605 C   0  0  0  0  0  0  0  0  0  0  0  0
  -23.7753  -17.1319   17.8633 C   0  0  0  0  0  0  0  0  0  0  0  0
  -24.4786  -32.1828   25.7452 C   0  0  0  0  0  0  0  0  0  0  0  0
  -25.4973  -32.6382   26.5821 C   0  0  0  0  0  0  0  0  0  0  0  0
  -25.3318  -17.8340   19.5673 C   0  0  0  0  0  0  0  0  0  0  0  0
  -27.1233  -32.1704   24.8575 C   0  0  0  0  0  0  0  0  0  0  0  0
  -24.7405  -21.0060   13.2434 C   0  0  0  0  0  0  0  0  0  0  0  0
  -23.9648  -27.3407   22.3115 C   0  0  0  0  0  0  0  0  0  0  0  0
  -22.9825  -25.0404   21.8099 C   0  0  0  0  0  0  0  0  0  0  0  0
  -24.1620   -9.1492   22.0802 C   0  0  0  0  0  0  0  0  0  0  0  0
  -25.4102  -15.5624   18.7344 C   0  0  0  0  0  0  0  0  0  0  0  0
  -23.8493  -10.4641   21.6858 C   0  0  0  0  0  0  0  0  0  0  0  0
  -25.9170  -16.5586   19.5810 C   0  0  0  0  0  0  0  0  0  0  0  0
  -23.8338  -29.9816   23.2008 C   0  0  0  0  0  0  0  0  0  0  0  0
  -24.2658  -18.1181   18.7141 C   0  0  0  0  0  0  0  0  0  0  0  0
  -24.7822  -31.7212   24.4644 C   0  0  0  0  0  0  0  0  0  0  0  0
  -26.8196  -32.6320   26.1383 C   0  0  0  0  0  0  0  0  0  0  0  0
  -26.1045  -31.7150   24.0205 C   0  0  0  0  0  0  0  0  0  0  0  0
  -24.0328  -25.9770   21.8514 C   0  0  0  0  0  0  0  0  0  0  0  0
  -24.5513  -21.7413   14.3793 C   0  0  0  0  0  0  0  0  0  0  0  0
  -23.5567  -23.9032   21.2966 C   0  0  0  0  0  0  0  0  0  0  0  0
  -22.7720  -20.4557   14.0937 C   0  0  0  0  0  0  0  0  0  0  0  0
  -21.6106  -25.1856   22.2002 C   0  0  0  0  0  0  0  0  0  0  0  0
  -25.8466  -13.5233   21.1334 C   0  0  0  0  0  0  0  0  0  0  0  0
  -28.8954  -14.6229   20.9990 C   0  0  0  0  0  0  0  0  0  0  0  0
  -31.0351  -17.1281   20.1088 C   0  0  0  0  0  0  0  0  0  0  0  0
  -28.3267  -22.9645   17.8013 C   0  0  0  0  0  0  0  0  0  0  0  0
  -25.2183   -8.8623   23.1178 C   0  0  0  0  0  0  0  0  0  0  0  0
  -26.0335  -14.1937   18.7102 C   0  0  0  0  0  0  0  0  0  0  0  0
  -27.0700  -16.2956   20.5137 C   0  0  0  0  0  0  0  0  0  0  0  0
  -26.1754  -10.0284   23.3513 C   0  0  0  0  0  0  0  0  0  0  0  0
  -27.7492  -21.6119   21.0437 C   0  0  0  0  0  0  0  0  0  0  0  0
  -25.4003  -11.3340   23.4977 C   0  0  0  0  0  0  0  0  0  0  0  0
  -26.6365  -22.4927   21.6147 C   0  0  0  0  0  0  0  0  0  0  0  0
  -28.7217  -22.4171   20.1847 C   0  0  0  0  0  0  0  0  0  0  0  0
  -26.9789  -24.0846   19.6789 C   0  0  0  0  0  0  0  0  0  0  0  0
  -24.6143  -11.6551   22.2208 C   0  0  1  0  0  0  0  0  0  0  0  0
  -26.7752  -13.8521   19.9988 C   0  0  1  0  0  0  0  0  0  0  0  0
  -25.9416  -23.3068   20.5067 C   0  0  2  0  0  0  0  0  0  0  0  0
  -21.4541  -19.7986   14.2771 C   0  0  0  0  0  0  0  0  0  0  0  0
  -33.4646  -17.7547   20.1599 C   0  0  0  0  0  0  0  0  0  0  0  0
  -28.6704  -15.2431   23.9780 C   0  0  0  0  0  0  0  0  0  0  0  0
  -30.6973  -16.6961   23.7575 C   0  0  0  0  0  0  0  0  0  0  0  0
  -30.8585  -14.2529   23.2810 C   0  0  0  0  0  0  0  0  0  0  0  0
  -31.1726  -17.2983   17.1574 C   0  0  0  0  0  0  0  0  0  0  0  0
  -25.4143  -22.7407   15.0208 C   0  0  0  0  0  0  0  0  0  0  0  0
  -26.9373  -22.5302   14.8138 C   0  0  0  0  0  0  0  0  0  0  0  0
  -23.2519  -21.3349   17.4271 C   0  0  0  0  0  0  0  0  0  0  0  0
  -22.6934  -21.9366   16.1357 C   0  0  0  0  0  0  0  0  0  0  0  0
  -27.8058  -23.6066   15.4613 C   0  0  0  0  0  0  0  0  0  0  0  0
  -23.1459  -19.8153   17.4807 C   0  0  0  0  0  0  0  0  0  1  0  0
  -29.6521  -15.7576   21.6462 C   0  0  1  0  0  0  0  0  0  0  0  0
  -32.3507  -17.1076   19.3516 C   0  0  2  0  0  0  0  0  0  0  0  0
  -29.9466  -15.4921   23.1496 C   0  0  0  0  0  0  0  0  0  0  0  0
  -25.1868  -25.4779   21.4007 N   0  0  0  0  0  0  0  0  0  0  0  0
  -23.3253  -21.3810   14.8844 N   0  0  0  0  0  0  0  0  0  0  0  0
  -24.8651  -24.2154   21.0711 N   0  0  0  0  0  0  0  0  0  0  0  0
  -23.6243  -20.2192   13.0911 N   0  3  0  0  0  0  0  0  0  0  0  0
  -27.6415  -14.9399   20.4577 N   0  0  0  0  0  0  0  0  0  0  0  0
  -27.9994  -23.1646   19.1525 N   0  0  0  0  0  0  0  0  0  0  0  0
  -23.0651  -22.6765   21.0209 N   0  0  0  0  0  0  0  0  0  0  0  0
  -21.1875  -26.4216   22.7076 N   0  0  0  0  0  0  0  0  0  0  0  0
  -25.4965  -12.1884   21.2050 N   0  0  0  0  0  0  0  0  0  0  0  0
  -30.8442  -15.9699   20.8323 N   0  0  0  0  0  0  0  0  0  0  0  0
  -27.5897  -23.7078   16.8874 N   0  0  0  0  0  0  0  0  0  0  0  0
  -32.2176  -17.8428   18.0621 N   0  3  0  0  0  0  0  0  0  0  0  0
  -20.7882  -24.2420   22.1173 O   0  0  0  0  0  0  0  0  0  0  0  0
  -25.4764  -14.4143   21.8888 O   0  0  0  0  0  0  0  0  0  0  0  0
  -29.4014  -13.4983   20.9683 O   0  0  0  0  0  0  0  0  0  0  0  0
  -30.2566  -18.0782   20.0660 O   0  0  0  0  0  0  0  0  0  0  0  0
  -29.2066  -22.1776   17.4360 O   0  0  0  0  0  0  0  0  0  0  0  0
  -23.7696  -31.2702   23.6344 O   0  0  0  0  0  0  0  0  0  0  0  0
  -23.7091  -19.3598   18.7102 O   0  0  0  0  0  0  0  0  0  1  0  0
  -27.7976  -33.0707   26.9416 F   0  0  0  0  0  0  0  0  0  0  0  0
  -26.4022  -31.2739   22.7907 F   0  0  0  0  0  0  0  0  0  0  0  0
  1  2  1  0  0  0  0
  1  5  2  0  0  0  0
  2  6  2  0  0  0  0
  3  8  2  0  0  0  0
  3 16  1  0  0  0  0
  4  9  1  0  0  0  0
  4 16  2  0  0  0  0
  5 18  1  0  0  0  0
  6 20  1  0  0  0  0
  7 10  2  0  0  0  0
  7 19  1  0  0  0  0
  8 22  1  0  0  0  0
  9 22  2  0  0  0  0
 10 23  1  0  0  0  0
 11 12  2  0  0  0  0
 11 24  1  0  0  0  0
 12 25  1  0  0  0  0
 13 21  1  0  0  0  0
 13 23  2  0  0  0  0
 14 25  2  0  0  0  0
 14 26  1  0  0  0  0
 15 28  2  0  0  0  0
 15 66  1  0  0  0  0
 16 27  1  0  0  0  0
 17 27  1  0  0  0  0
 17 29  2  0  0  0  0
 17 31  1  0  0  0  0
 18 20  2  0  0  0  0
 18 36  1  0  0  0  0
 19 21  2  0  0  0  0
 19 37  1  0  0  0  0
 20 45  1  0  0  0  0
 21 38  1  0  0  0  0
 22 80  1  0  0  0  0
 23 81  1  0  0  0  0
 24 26  2  0  0  0  0
 24 80  1  0  0  0  0
 25 82  1  0  0  0  0
 26 83  1  0  0  0  0
 27 63  2  0  0  0  0
 28 54  1  0  0  0  0
 28 64  1  0  0  0  0
 29 65  1  0  0  0  0
 29 69  1  0  0  0  0
 30 48  1  0  0  0  0
 30 64  1  0  0  0  0
 30 66  2  0  0  0  0
 31 70  1  0  0  0  0
 31 75  2  0  0  0  0
 32 46  1  0  0  0  0
 32 71  1  0  0  0  0
 32 76  2  0  0  0  0
 33 60  1  0  0  0  0
 33 67  1  0  0  0  0
 33 77  2  0  0  0  0
 34 61  1  0  0  0  0
 34 72  1  0  0  0  0
 34 78  2  0  0  0  0
 35 68  1  0  0  0  0
 35 73  1  0  0  0  0
 35 79  2  0  0  0  0
 36 39  1  0  0  0  0
 37 46  1  0  0  0  0
 38 67  1  0  0  0  0
 39 41  1  0  0  0  0
 40 42  1  0  0  0  0
 40 43  1  0  0  0  0
 41 45  1  0  0  0  0
 42 47  1  0  0  0  0
 43 68  1  0  0  0  0
 44 47  1  0  0  0  0
 44 68  1  0  0  0  0
 45 71  1  0  0  0  0
 46 67  1  0  0  0  0
 47 65  1  0  0  0  0
 49 61  1  0  0  0  0
 50 62  1  0  0  0  0
 51 62  1  0  0  0  0
 52 62  1  0  0  0  0
 53 74  1  0  0  0  0
 54 55  1  0  0  0  0
 55 58  1  0  0  0  0
 56 57  1  0  0  0  0
 56 59  1  0  0  0  0
 57 64  1  0  0  0  0
 58 73  1  0  0  0  0
 59 81  1  0  0  0  0
 60 62  1  0  0  0  0
 60 72  1  0  0  0  0
 61 74  1  0  0  0  0
 63 65  1  0  0  0  0
M  CHG  2  66   1  74   1
M  ISO  4  35 100  59 101  73 100  81 101
M  END
> <Batch ID>
0040

> <Smiles>
CNC(C)C(=O)NC(C(=O)N1Cc2cc([101O:1][101CH2:1]CCn3c(CCC[100NH:0][100C:0](=O)N4CCCC(n5nc(-c6ccc(Oc7ccc(F)cc7F)cc6)c(C(N)=O)c5N)C4)cnc3C)ccc2CC1C(=O)NC1CCCc2ccccc21)C(C)(C)C

> <Shape>
0.207

> <Color>
0.045

> <Negative vol penalty>
0.000

$$$$

  -OEChem-04052317073D

 85 93  0     1  0  0  0  0  0999 V2000
  -17.3223  -30.3368   24.6511 C   0  0  0  0  0  0  0  0  0  0  0  0
  -17.8003  -29.0312   24.6994 C   0  0  0  0  0  0  0  0  0  0  0  0
  -27.8077  -17.2638   19.1329 C   0  0  0  0  0  0  0  0  0  0  0  0
  -27.2886  -17.5398   21.4763 C   0  0  0  0  0  0  0  0  0  0  0  0
  -17.6910  -31.1744   23.5992 C   0  0  0  0  0  0  0  0  0  0  0  0
  -18.6465  -28.5621   23.6953 C   0  0  0  0  0  0  0  0  0  0  0  0
  -23.2694  -24.5961   24.3315 C   0  0  0  0  0  0  0  0  0  0  0  0
  -28.3631  -18.5430   19.1053 C   0  0  0  0  0  0  0  0  0  0  0  0
  -27.8441  -18.8190   21.4487 C   0  0  0  0  0  0  0  0  0  0  0  0
  -23.3672  -23.2246   24.1006 C   0  0  0  0  0  0  0  0  0  0  0  0
  -31.2582  -20.0222   20.0343 C   0  0  0  0  0  0  0  0  0  0  0  0
  -32.4838  -20.1829   19.3880 C   0  0  0  0  0  0  0  0  0  0  0  0
  -24.2854  -23.6643   21.9137 C   0  0  0  0  0  0  0  0  0  0  0  0
  -31.4716  -21.7572   17.8601 C   0  0  0  0  0  0  0  0  0  0  0  0
  -27.2704  -16.7622   20.3184 C   0  0  0  0  0  0  0  0  0  0  0  0
  -27.3576  -14.2326   20.6365 C   0  0  0  0  0  0  0  0  0  0  0  0
  -18.5499  -30.7183   22.5868 C   0  0  0  0  0  0  0  0  0  0  0  0
  -23.6694  -25.5135   23.3493 C   0  0  0  0  0  0  0  0  0  0  0  0
  -19.0259  -29.3939   22.6282 C   0  0  0  0  0  0  0  0  0  0  0  0
  -24.1940  -25.0469   22.1356 C   0  0  0  0  0  0  0  0  0  0  0  0
  -28.3813  -19.3206   20.2631 C   0  0  0  0  0  0  0  0  0  0  0  0
  -23.8725  -22.7585   22.8905 C   0  0  0  0  0  0  0  0  0  0  0  0
  -30.1393  -20.7289   19.5934 C   0  0  0  0  0  0  0  0  0  0  0  0
  -32.5905  -21.0504   18.3009 C   0  0  0  0  0  0  0  0  0  0  0  0
  -30.2460  -21.5964   18.5064 C   0  0  0  0  0  0  0  0  0  0  0  0
  -26.6960  -15.4411   20.3474 C   0  0  0  0  0  0  0  0  0  0  0  0
  -20.3011  -19.0397   23.2742 C   0  0  0  0  0  0  0  0  0  0  0  0
  -21.6662  -18.9332   23.1481 C   0  0  0  0  0  0  0  0  0  0  0  0
  -26.3803  -13.2730   20.5339 C   0  0  0  0  0  0  0  0  0  0  0  0
  -20.7574  -19.8231   21.3484 C   0  0  0  0  0  0  0  0  0  0  0  0
  -28.7327  -13.9984   20.9682 C   0  0  0  0  0  0  0  0  0  0  0  0
  -22.2053  -27.7767   21.6645 C   0  0  0  0  0  0  0  0  0  0  0  0
  -25.2157  -28.4149   20.6385 C   0  0  0  0  0  0  0  0  0  0  0  0
  -28.3967  -27.2950   20.1152 C   0  0  0  0  0  0  0  0  0  0  0  0
  -20.4222  -13.4443   21.1015 C   0  0  0  0  0  0  0  0  0  0  0  0
  -18.8826  -31.6456   21.4448 C   0  0  0  0  0  0  0  0  0  0  0  0
  -23.5824  -26.9897   23.6242 C   0  0  0  0  0  0  0  0  0  0  0  0
  -24.6561  -25.9905   21.0564 C   0  0  0  0  0  0  0  0  0  0  0  0
  -20.0829  -31.1891   20.6195 C   0  0  0  0  0  0  0  0  0  0  0  0
  -22.2718  -12.3403   18.2666 C   0  0  0  0  0  0  0  0  0  0  0  0
  -19.9720  -29.7033   20.2926 C   0  0  0  0  0  0  0  0  0  0  0  0
  -23.6751  -12.9008   18.5045 C   0  0  0  0  0  0  0  0  0  0  0  0
  -21.1899  -13.3034   18.7505 C   0  0  0  0  0  0  0  0  0  0  0  0
  -22.7359  -14.3022   20.3894 C   0  0  0  0  0  0  0  0  0  0  0  0
  -19.9656  -28.8562   21.5708 C   0  0  1  0  0  0  0  0  0  0  0  0
  -23.5395  -27.8327   22.3534 C   0  0  1  0  0  0  0  0  0  0  0  0
  -23.8618  -13.3421   19.9686 C   0  0  2  0  0  0  0  0  0  0  0  0
  -22.7006  -18.4148   24.0612 C   0  0  0  0  0  0  0  0  0  0  0  0
  -20.6815  -20.4230   20.0003 C   0  0  0  0  0  0  0  0  0  0  0  0
  -30.6249  -28.0350   19.2294 C   0  0  0  0  0  0  0  0  0  0  0  0
  -24.1620  -28.1653   17.7859 C   0  0  0  0  0  0  0  0  0  0  0  0
  -26.5313  -27.9630   17.0026 C   0  0  0  0  0  0  0  0  0  0  0  0
  -25.7702  -30.0469   18.1430 C   0  0  0  0  0  0  0  0  0  0  0  0
  -29.7165  -26.8354   22.7240 C   0  0  0  0  0  0  0  0  0  0  0  0
  -19.4538  -18.6451   24.4107 C   0  0  0  0  0  0  0  0  0  0  0  0
  -18.7031  -17.3179   24.1688 C   0  0  0  0  0  0  0  0  0  0  0  0
  -19.6541  -16.1364   23.9663 C   0  0  0  0  0  0  0  0  0  0  0  0
  -18.8819  -14.8430   23.6899 C   0  0  0  0  0  0  0  0  0  0  0  0
  -23.3101  -19.5539   21.2786 C   0  0  0  0  0  0  0  0  0  0  0  0
  -19.8014  -13.6417   23.4962 C   0  0  0  0  0  0  0  0  0  0  0  0
  -23.8446  -20.9816   21.3101 C   0  0  0  0  0  0  0  0  0  1  0  0
  -26.0807  -27.9351   19.4980 C   0  0  1  0  0  0  0  0  0  0  0  0
  -29.7463  -27.8965   20.4630 C   0  0  2  0  0  0  0  0  0  0  0  0
  -25.6256  -28.5095   18.1268 C   0  0  0  0  0  0  0  0  0  0  0  0
  -25.3987  -15.2678   20.0810 N   0  0  0  0  0  0  0  0  0  0  0  0
  -19.7414  -19.5941   22.1504 N   0  0  0  0  0  0  0  0  0  0  0  0
  -21.9436  -19.4386   21.9092 N   0  0  0  0  0  0  0  0  0  0  0  0
  -25.2373  -13.9391   20.2022 N   0  0  0  0  0  0  0  0  0  0  0  0
  -24.5451  -27.4246   21.3703 N   0  0  0  0  0  0  0  0  0  0  0  0
  -21.4243  -13.6816   20.1462 N   0  0  0  0  0  0  0  0  0  0  0  0
  -26.3958  -11.9329   20.6959 N   0  0  0  0  0  0  0  0  0  0  0  0
  -29.6014  -15.0966   21.0305 N   0  0  0  0  0  0  0  0  0  0  0  0
  -21.3063  -28.7310   22.1010 N   0  0  0  0  0  0  0  0  0  0  0  0
  -27.4543  -28.2685   19.8593 N   0  0  0  0  0  0  0  0  0  0  0  0
  -20.7280  -13.8269   22.4018 N   0  0  0  0  0  0  0  0  0  0  0  0
  -30.4569  -27.0374   21.4520 N   0  3  0  0  0  0  0  0  0  0  0  0
  -29.1815  -12.8475   21.1863 O   0  0  0  0  0  0  0  0  0  0  0  0
  -22.0068  -26.9312   20.8000 O   0  0  0  0  0  0  0  0  0  0  0  0
  -25.1434  -29.6232   20.8759 O   0  0  0  0  0  0  0  0  0  0  0  0
  -28.1991  -26.0827   20.0709 O   0  0  0  0  0  0  0  0  0  0  0  0
  -19.3375  -12.9248   20.8176 O   0  0  0  0  0  0  0  0  0  0  0  0
  -28.9234  -20.5688   20.2366 O   0  0  0  0  0  0  0  0  0  0  0  0
  -23.9684  -21.4204   22.6623 O   0  0  0  0  0  0  0  0  0  1  0  0
  -33.7679  -21.2059   17.6814 F   0  0  0  0  0  0  0  0  0  0  0  0
  -29.1748  -22.2789   18.0791 F   0  0  0  0  0  0  0  0  0  0  0  0
  1  2  1  0  0  0  0
  1  5  2  0  0  0  0
  2  6  2  0  0  0  0
  3  8  2  0  0  0  0
  3 15  1  0  0  0  0
  4  9  1  0  0  0  0
  4 15  2  0  0  0  0
  5 17  1  0  0  0  0
  6 19  1  0  0  0  0
  7 10  2  0  0  0  0
  7 18  1  0  0  0  0
  8 21  1  0  0  0  0
  9 21  2  0  0  0  0
 10 22  1  0  0  0  0
 11 12  2  0  0  0  0
 11 23  1  0  0  0  0
 12 24  1  0  0  0  0
 13 20  1  0  0  0  0
 13 22  2  0  0  0  0
 14 24  2  0  0  0  0
 14 25  1  0  0  0  0
 15 26  1  0  0  0  0
 16 26  1  0  0  0  0
 16 29  2  0  0  0  0
 16 31  1  0  0  0  0
 17 19  2  0  0  0  0
 17 36  1  0  0  0  0
 18 20  2  0  0  0  0
 18 37  1  0  0  0  0
 19 45  1  0  0  0  0
 20 38  1  0  0  0  0
 21 82  1  0  0  0  0
 22 83  1  0  0  0  0
 23 25  2  0  0  0  0
 23 82  1  0  0  0  0
 24 84  1  0  0  0  0
 25 85  1  0  0  0  0
 26 65  2  0  0  0  0
 27 28  2  0  0  0  0
 27 55  1  0  0  0  0
 27 66  1  0  0  0  0
 28 48  1  0  0  0  0
 28 67  1  0  0  0  0
 29 68  1  0  0  0  0
 29 71  1  0  0  0  0
 30 49  1  0  0  0  0
 30 66  2  0  0  0  0
 30 67  1  0  0  0  0
 31 72  1  0  0  0  0
 31 77  2  0  0  0  0
 32 46  1  0  0  0  0
 32 73  1  0  0  0  0
 32 78  2  0  0  0  0
 33 62  1  0  0  0  0
 33 69  1  0  0  0  0
 33 79  2  0  0  0  0
 34 63  1  0  0  0  0
 34 74  1  0  0  0  0
 34 80  2  0  0  0  0
 35 70  1  0  0  0  0
 35 75  1  0  0  0  0
 35 81  2  0  0  0  0
 36 39  1  0  0  0  0
 37 46  1  0  0  0  0
 38 69  1  0  0  0  0
 39 41  1  0  0  0  0
 40 42  1  0  0  0  0
 40 43  1  0  0  0  0
 41 45  1  0  0  0  0
 42 47  1  0  0  0  0
 43 70  1  0  0  0  0
 44 47  1  0  0  0  0
 44 70  1  0  0  0  0
 45 73  1  0  0  0  0
 46 69  1  0  0  0  0
 47 68  1  0  0  0  0
 50 63  1  0  0  0  0
 51 64  1  0  0  0  0
 52 64  1  0  0  0  0
 53 64  1  0  0  0  0
 54 76  1  0  0  0  0
 55 56  1  0  0  0  0
 56 57  1  0  0  0  0
 57 58  1  0  0  0  0
 58 60  1  0  0  0  0
 59 61  1  0  0  0  0
 59 67  1  0  0  0  0
 60 75  1  0  0  0  0
 61 83  1  0  0  0  0
 62 64  1  0  0  0  0
 62 74  1  0  0  0  0
 63 76  1  0  0  0  0
 65 68  1  0  0  0  0
M  CHG  1  76   1
M  ISO  4  35 100  61 101  75 100  83 101
M  END
> <Batch ID>
0040

> <Smiles>
CNC(C)C(=O)NC(C(=O)N1Cc2cc([101O:1][101CH2:1]Cn3c(C)nc(CCCCC[100NH:0][100C:0](=O)N4CCCC(n5nc(-c6ccc(Oc7ccc(F)cc7F)cc6)c(C(N)=O)c5N)C4)c3C)ccc2CC1C(=O)NC1CCCc2ccccc21)C(C)(C)C

> <Shape>
0.199

> <Color>
0.083

> <Negative vol penalty>
0.000

$$$$

  -OEChem-04052317073D

 84 92  0     1  0  0  0  0  0999 V2000
  -17.7702  -30.5844   24.9654 C   0  0  0  0  0  0  0  0  0  0  0  0
  -19.1244  -30.7103   25.2582 C   0  0  0  0  0  0  0  0  0  0  0  0
  -24.6035  -14.5176   19.7558 C   0  0  0  0  0  0  0  0  0  0  0  0
  -25.9202  -14.8590   21.7525 C   0  0  0  0  0  0  0  0  0  0  0  0
  -17.3460  -29.6486   24.0230 C   0  0  0  0  0  0  0  0  0  0  0  0
  -20.0552  -29.8995   24.6095 C   0  0  0  0  0  0  0  0  0  0  0  0
  -25.7493  -31.4295   22.9536 C   0  0  0  0  0  0  0  0  0  0  0  0
  -24.7906  -13.1399   19.8680 C   0  0  0  0  0  0  0  0  0  0  0  0
  -26.1073  -13.4813   21.8647 C   0  0  0  0  0  0  0  0  0  0  0  0
  -26.9913  -31.2010   23.5443 C   0  0  0  0  0  0  0  0  0  0  0  0
  -23.5132  -10.5927   21.6881 C   0  0  0  0  0  0  0  0  0  0  0  0
  -22.4010   -9.7706   21.5073 C   0  0  0  0  0  0  0  0  0  0  0  0
  -27.2973  -29.2650   22.1381 C   0  0  0  0  0  0  0  0  0  0  0  0
  -23.5049   -8.6852   19.6524 C   0  0  0  0  0  0  0  0  0  0  0  0
  -28.3486  -26.1703   26.3897 C   0  0  0  0  0  0  0  0  0  0  0  0
  -25.1683  -15.3772   20.6980 C   0  0  0  0  0  0  0  0  0  0  0  0
  -23.9335  -17.5654   21.1392 C   0  0  0  0  0  0  0  0  0  0  0  0
  -18.2729  -28.8326   23.3553 C   0  0  0  0  0  0  0  0  0  0  0  0
  -25.2663  -30.5696   21.9566 C   0  0  0  0  0  0  0  0  0  0  0  0
  -19.6428  -28.9509   23.6583 C   0  0  0  0  0  0  0  0  0  0  0  0
  -26.0500  -29.4862   21.5345 C   0  0  0  0  0  0  0  0  0  0  0  0
  -29.1978  -25.7451   25.3921 C   0  0  0  0  0  0  0  0  0  0  0  0
  -29.9847  -26.8574   25.0038 C   0  0  0  0  0  0  0  0  0  0  0  0
  -25.5424  -12.6218   20.9224 C   0  0  0  0  0  0  0  0  0  0  0  0
  -27.7642  -30.1170   23.1387 C   0  0  0  0  0  0  0  0  0  0  0  0
  -24.6213  -10.4611   20.8511 C   0  0  0  0  0  0  0  0  0  0  0  0
  -22.3968   -8.8168   20.4895 C   0  0  0  0  0  0  0  0  0  0  0  0
  -24.6171   -9.5073   19.8333 C   0  0  0  0  0  0  0  0  0  0  0  0
  -24.9759  -16.8004   20.5823 C   0  0  0  0  0  0  0  0  0  0  0  0
  -29.5924  -27.9284   25.7761 C   0  0  0  0  0  0  0  0  0  0  0  0
  -24.2025  -18.8526   20.7426 C   0  0  0  0  0  0  0  0  0  0  0  0
  -22.8215  -17.1496   21.9430 C   0  0  0  0  0  0  0  0  0  0  0  0
  -22.7464  -28.6527   21.6754 C   0  0  0  0  0  0  0  0  0  0  0  0
  -23.8455  -28.2964   18.6443 C   0  0  0  0  0  0  0  0  0  0  0  0
  -26.4835  -28.4373   16.4838 C   0  0  0  0  0  0  0  0  0  0  0  0
  -27.7901  -23.0561   19.9648 C   0  0  0  0  0  0  0  0  0  0  0  0
  -17.7624  -27.8027   22.3790 C   0  0  0  0  0  0  0  0  0  0  0  0
  -23.9363  -30.8452   21.3105 C   0  0  0  0  0  0  0  0  0  0  0  0
  -25.5859  -28.5452   20.4539 C   0  0  0  0  0  0  0  0  0  0  0  0
  -18.8470  -27.2417   21.4628 C   0  0  0  0  0  0  0  0  0  0  0  0
  -27.5265  -20.6320   17.3705 C   0  0  0  0  0  0  0  0  0  0  0  0
  -20.0886  -26.8734   22.2688 C   0  0  0  0  0  0  0  0  0  0  0  0
  -26.7594  -19.4803   18.0225 C   0  0  0  0  0  0  0  0  0  0  0  0
  -28.4805  -21.3039   18.3556 C   0  0  0  0  0  0  0  0  0  0  0  0
  -27.0882  -20.6038   20.2649 C   0  0  0  0  0  0  0  0  0  0  0  0
  -20.6852  -28.1067   22.9576 C   0  0  1  0  0  0  0  0  0  0  0  0
  -23.3173  -29.6086   20.6664 C   0  0  1  0  0  0  0  0  0  0  0  0
  -26.0726  -19.9309   19.3258 C   0  0  2  0  0  0  0  0  0  0  0  0
  -31.0332  -26.8693   23.9628 C   0  0  0  0  0  0  0  0  0  0  0  0
  -27.0809  -28.0547   14.0767 C   0  0  0  0  0  0  0  0  0  0  0  0
  -23.7913  -25.2818   19.1125 C   0  0  0  0  0  0  0  0  0  0  0  0
  -25.2551  -25.0130   17.0992 C   0  0  0  0  0  0  0  0  0  0  0  0
  -22.9777  -26.0025   16.8601 C   0  0  0  0  0  0  0  0  0  0  0  0
  -27.9050  -28.3085   27.5935 C   0  0  0  0  0  0  0  0  0  0  0  0
  -27.3025  -31.2577   16.1183 C   0  0  0  0  0  0  0  0  0  0  0  0
  -29.2660  -24.3785   24.8370 C   0  0  0  0  0  0  0  0  0  0  0  0
  -30.0891  -29.3537   25.7890 C   0  0  0  0  0  0  0  0  0  0  0  0
  -28.1151  -24.0750   23.8561 C   0  0  0  0  0  0  0  0  0  0  0  0
  -28.1350  -24.9999   22.6355 C   0  0  0  0  0  0  0  0  0  0  0  0
  -27.0080  -24.6986   21.6530 C   0  0  0  0  0  0  0  0  0  0  0  0
  -29.1391  -30.3053   25.0701 C   0  0  0  0  0  0  0  0  0  1  0  0
  -24.8081  -27.3562   17.9598 C   0  0  1  0  0  0  0  0  0  0  0  0
  -26.6298  -29.0724   15.1128 C   0  0  2  0  0  0  0  0  0  0  0  0
  -24.2162  -25.9298   17.7797 C   0  0  0  0  0  0  0  0  0  0  0  0
  -25.8424  -17.5400   19.8850 N   0  0  0  0  0  0  0  0  0  0  0  0
  -28.5975  -27.4990   26.6151 N   0  0  0  0  0  0  0  0  0  0  0  0
  -25.3450  -18.7830   20.0010 N   0  0  0  0  0  0  0  0  0  0  0  0
  -24.2757  -28.8531   19.8571 N   0  0  0  0  0  0  0  0  0  0  0  0
  -27.7664  -21.7086   19.5690 N   0  0  0  0  0  0  0  0  0  0  0  0
  -23.5709  -20.0258   20.9594 N   0  0  0  0  0  0  0  0  0  0  0  0
  -22.6959  -15.7896   22.2575 N   0  0  0  0  0  0  0  0  0  0  0  0
  -21.4292  -28.9058   22.0076 N   0  0  0  0  0  0  0  0  0  0  0  0
  -25.1941  -28.0050   16.7114 N   0  0  0  0  0  0  0  0  0  0  0  0
  -27.0825  -23.3555   21.1226 N   0  0  0  0  0  0  0  0  0  0  0  0
  -27.6323  -30.1743   15.1567 N   0  3  0  0  0  0  0  0  0  0  0  0
  -21.9556  -17.9577   22.3561 O   0  0  0  0  0  0  0  0  0  0  0  0
  -23.4485  -27.7514   22.1185 O   0  0  0  0  0  0  0  0  0  0  0  0
  -22.7551  -28.5338   18.1187 O   0  0  0  0  0  0  0  0  0  0  0  0
  -27.4203  -28.3316   17.2723 O   0  0  0  0  0  0  0  0  0  0  0  0
  -28.3924  -23.9288   19.3303 O   0  0  0  0  0  0  0  0  0  0  0  0
  -25.7250  -11.2775   21.0324 O   0  0  0  0  0  0  0  0  0  0  0  0
  -28.9766  -29.8914   23.7141 O   0  0  0  0  0  0  0  0  0  1  0  0
  -21.3293   -8.0264   20.3169 F   0  0  0  0  0  0  0  0  0  0  0  0
  -25.6791   -9.3754   19.0267 F   0  0  0  0  0  0  0  0  0  0  0  0
  1  2  1  0  0  0  0
  1  5  2  0  0  0  0
  2  6  2  0  0  0  0
  3  8  2  0  0  0  0
  3 16  1  0  0  0  0
  4  9  1  0  0  0  0
  4 16  2  0  0  0  0
  5 18  1  0  0  0  0
  6 20  1  0  0  0  0
  7 10  2  0  0  0  0
  7 19  1  0  0  0  0
  8 24  1  0  0  0  0
  9 24  2  0  0  0  0
 10 25  1  0  0  0  0
 11 12  2  0  0  0  0
 11 26  1  0  0  0  0
 12 27  1  0  0  0  0
 13 21  1  0  0  0  0
 13 25  2  0  0  0  0
 14 27  2  0  0  0  0
 14 28  1  0  0  0  0
 15 22  2  0  0  0  0
 15 66  1  0  0  0  0
 16 29  1  0  0  0  0
 17 29  1  0  0  0  0
 17 31  2  0  0  0  0
 17 32  1  0  0  0  0
 18 20  2  0  0  0  0
 18 37  1  0  0  0  0
 19 21  2  0  0  0  0
 19 38  1  0  0  0  0
 20 46  1  0  0  0  0
 21 39  1  0  0  0  0
 22 23  1  0  0  0  0
 22 56  1  0  0  0  0
 23 30  2  0  0  0  0
 23 49  1  0  0  0  0
 24 81  1  0  0  0  0
 25 82  1  0  0  0  0
 26 28  2  0  0  0  0
 26 81  1  0  0  0  0
 27 83  1  0  0  0  0
 28 84  1  0  0  0  0
 29 65  2  0  0  0  0
 30 57  1  0  0  0  0
 30 66  1  0  0  0  0
 31 67  1  0  0  0  0
 31 70  1  0  0  0  0
 32 71  1  0  0  0  0
 32 76  2  0  0  0  0
 33 47  1  0  0  0  0
 33 72  1  0  0  0  0
 33 77  2  0  0  0  0
 34 62  1  0  0  0  0
 34 68  1  0  0  0  0
 34 78  2  0  0  0  0
 35 63  1  0  0  0  0
 35 73  1  0  0  0  0
 35 79  2  0  0  0  0
 36 69  1  0  0  0  0
 36 74  1  0  0  0  0
 36 80  2  0  0  0  0
 37 40  1  0  0  0  0
 38 47  1  0  0  0  0
 39 68  1  0  0  0  0
 40 42  1  0  0  0  0
 41 43  1  0  0  0  0
 41 44  1  0  0  0  0
 42 46  1  0  0  0  0
 43 48  1  0  0  0  0
 44 69  1  0  0  0  0
 45 48  1  0  0  0  0
 45 69  1  0  0  0  0
 46 72  1  0  0  0  0
 47 68  1  0  0  0  0
 48 67  1  0  0  0  0
 50 63  1  0  0  0  0
 51 64  1  0  0  0  0
 52 64  1  0  0  0  0
 53 64  1  0  0  0  0
 54 66  1  0  0  0  0
 55 75  1  0  0  0  0
 56 58  1  0  0  0  0
 57 61  1  0  0  0  0
 58 59  1  0  0  0  0
 59 60  1  0  0  0  0
 60 74  1  0  0  0  0
 61 82  1  0  0  0  0
 62 64  1  0  0  0  0
 62 73  1  0  0  0  0
 63 75  1  0  0  0  0
 65 67  1  0  0  0  0
M  CHG  1  75   1
M  ISO  4  36 100  61 101  74 100  82 101
M  END
> <Batch ID>
0040

> <Smiles>
CNC(C)C(=O)NC(C(=O)N1Cc2cc([101O:1][101CH2:1]Cc3c(C)c(CCCC[100NH:0][100C:0](=O)N4CCCC(n5nc(-c6ccc(Oc7ccc(F)cc7F)cc6)c(C(N)=O)c5N)C4)cn3C)ccc2CC1C(=O)NC1CCCc2ccccc21)C(C)(C)C

> <Shape>
0.220

> <Color>
0.087

> <Negative vol penalty>
0.000

$$$$

  -OEChem-04052317073D

 80 88  0     1  0  0  0  0  0999 V2000
  -25.7669  -35.5004   22.4012 C   0  0  0  0  0  0  0  0  0  0  0  0
  -26.3763  -34.2695   22.1798 C   0  0  0  0  0  0  0  0  0  0  0  0
  -24.1327  -13.7817   20.3567 C   0  0  0  0  0  0  0  0  0  0  0  0
  -26.0526  -13.8003   21.8232 C   0  0  0  0  0  0  0  0  0  0  0  0
  -24.5735  -35.5670   23.1189 C   0  0  0  0  0  0  0  0  0  0  0  0
  -25.7931  -33.1046   22.6770 C   0  0  0  0  0  0  0  0  0  0  0  0
  -25.7589  -29.3472   19.2820 C   0  0  0  0  0  0  0  0  0  0  0  0
  -24.3172  -12.4174   20.1323 C   0  0  0  0  0  0  0  0  0  0  0  0
  -26.2371  -12.4360   21.5989 C   0  0  0  0  0  0  0  0  0  0  0  0
  -26.9537  -28.6563   19.0849 C   0  0  0  0  0  0  0  0  0  0  0  0
  -24.0668   -8.8542   19.4573 C   0  0  0  0  0  0  0  0  0  0  0  0
  -22.9412   -8.0317   19.5010 C   0  0  0  0  0  0  0  0  0  0  0  0
  -26.1548  -26.8805   20.5087 C   0  0  0  0  0  0  0  0  0  0  0  0
  -22.5462   -8.6940   21.7906 C   0  0  0  0  0  0  0  0  0  0  0  0
  -31.3614  -24.0087   17.4720 C   0  0  0  0  0  0  0  0  0  0  0  0
  -25.0004  -14.4732   21.2020 C   0  0  0  0  0  0  0  0  0  0  0  0
  -24.0336  -16.4810   22.4436 C   0  0  0  0  0  0  0  0  0  0  0  0
  -23.9703  -34.4013   23.6169 C   0  0  0  0  0  0  0  0  0  0  0  0
  -24.7558  -28.8141   20.1042 C   0  0  0  0  0  0  0  0  0  0  0  0
  -24.5912  -33.1558   23.4033 C   0  0  0  0  0  0  0  0  0  0  0  0
  -24.9472  -27.5654   20.7127 C   0  0  0  0  0  0  0  0  0  0  0  0
  -30.7839  -23.9102   18.7521 C   0  0  0  0  0  0  0  0  0  0  0  0
  -25.3694  -11.7446   20.7535 C   0  0  0  0  0  0  0  0  0  0  0  0
  -27.1530  -27.4241   19.7006 C   0  0  0  0  0  0  0  0  0  0  0  0
  -24.4323   -9.5965   20.5803 C   0  0  0  0  0  0  0  0  0  0  0  0
  -22.1808   -7.9516   20.6676 C   0  0  0  0  0  0  0  0  0  0  0  0
  -23.6719   -9.5165   21.7469 C   0  0  0  0  0  0  0  0  0  0  0  0
  -24.8106  -15.8826   21.4337 C   0  0  0  0  0  0  0  0  0  0  0  0
  -30.7695  -25.2006   19.2225 C   0  0  0  0  0  0  0  0  0  0  0  0
  -24.1806  -17.8307   22.2355 C   0  0  0  0  0  0  0  0  0  0  0  0
  -23.2493  -15.8714   23.4775 C   0  0  0  0  0  0  0  0  0  0  0  0
  -23.3393  -29.7326   22.7974 C   0  0  0  0  0  0  0  0  0  0  0  0
  -28.5470  -20.9186   19.6519 C   0  0  0  0  0  0  0  0  0  0  0  0
  -21.4632  -27.1469   22.2343 C   0  0  0  0  0  0  0  0  0  0  0  0
  -21.1018  -24.0998   20.7404 C   0  0  0  0  0  0  0  0  0  0  0  0
  -22.7049  -34.5281   24.4276 C   0  0  0  0  0  0  0  0  0  0  0  0
  -23.4619  -29.5593   20.2853 C   0  0  0  0  0  0  0  0  0  0  0  0
  -23.8934  -26.9401   21.5884 C   0  0  0  0  0  0  0  0  0  0  0  0
  -21.9563  -33.2088   24.5988 C   0  0  0  0  0  0  0  0  0  0  0  0
  -25.0168  -21.0260   18.7838 C   0  0  0  0  0  0  0  0  0  0  0  0
  -22.9208  -32.0951   24.9941 C   0  0  0  0  0  0  0  0  0  0  0  0
  -24.5013  -19.7466   19.4414 C   0  0  0  0  0  0  0  0  0  0  0  0
  -26.4328  -20.8475   18.2423 C   0  0  0  0  0  0  0  0  0  0  0  0
  -26.8998  -19.0926   19.9236 C   0  0  0  0  0  0  0  0  0  0  0  0
  -23.9765  -31.8673   23.9054 C   0  0  1  0  0  0  0  0  0  0  0  0
  -22.7159  -29.1616   21.5552 C   0  0  1  0  0  0  0  0  0  0  0  0
  -25.4858  -19.2400   20.5100 C   0  0  2  0  0  0  0  0  0  0  0  0
  -19.4712  -22.2085   20.4925 C   0  0  0  0  0  0  0  0  0  0  0  0
  -22.1340  -26.2019   25.0569 C   0  0  0  0  0  0  0  0  0  0  0  0
  -21.2935  -23.9308   24.4212 C   0  0  0  0  0  0  0  0  0  0  0  0
  -19.7442  -25.8856   24.3912 C   0  0  0  0  0  0  0  0  0  0  0  0
  -31.5226  -27.3936   18.2536 C   0  0  0  0  0  0  0  0  0  0  0  0
  -20.9556  -24.4571   17.8062 C   0  0  0  0  0  0  0  0  0  0  0  0
  -30.3046  -22.6940   19.4295 C   0  0  0  0  0  0  0  0  0  0  0  0
  -30.2825  -25.7795   20.5287 C   0  0  0  0  0  0  0  0  0  0  0  0
  -28.9486  -22.1713   18.9148 C   0  0  0  0  0  0  0  0  0  0  0  0
  -28.7639  -25.9088   20.5751 C   0  0  0  0  0  0  0  0  0  1  0  0
  -21.5201  -25.6841   22.6031 C   0  0  1  0  0  0  0  0  0  0  0  0
  -19.9785  -23.5154   19.9031 C   0  0  2  0  0  0  0  0  0  0  0  0
  -21.1938  -25.4380   24.1032 C   0  0  0  0  0  0  0  0  0  0  0  0
  -31.6899  -25.2625   17.1497 N   0  0  0  0  0  0  0  0  0  0  0  0
  -25.4068  -16.7786   20.6427 N   0  0  0  0  0  0  0  0  0  0  0  0
  -31.3175  -25.9638   18.2339 N   0  0  0  0  0  0  0  0  0  0  0  0
  -25.0043  -17.9538   21.1554 N   0  0  0  0  0  0  0  0  0  0  0  0
  -22.6479  -27.7106   21.7398 N   0  0  0  0  0  0  0  0  0  0  0  0
  -27.3334  -20.3376   19.2831 N   0  0  0  0  0  0  0  0  0  0  0  0
  -23.6842  -18.9123   22.8728 N   0  0  0  0  0  0  0  0  0  0  0  0
  -23.2081  -14.4723   23.5479 N   0  0  0  0  0  0  0  0  0  0  0  0
  -23.4141  -31.1123   22.8062 N   0  0  0  0  0  0  0  0  0  0  0  0
  -20.6286  -24.9946   21.6767 N   0  0  0  0  0  0  0  0  0  0  0  0
  -20.4505  -23.2527   18.5142 N   0  3  0  0  0  0  0  0  0  0  0  0
  -22.5908  -16.5473   24.3040 O   0  0  0  0  0  0  0  0  0  0  0  0
  -23.7225  -28.9773   23.6831 O   0  0  0  0  0  0  0  0  0  0  0  0
  -29.2895  -20.4729   20.5307 O   0  0  0  0  0  0  0  0  0  0  0  0
  -20.4046  -27.7648   22.3729 O   0  0  0  0  0  0  0  0  0  0  0  0
  -22.2807  -23.7905   20.5824 O   0  0  0  0  0  0  0  0  0  0  0  0
  -25.5497  -10.4133   20.5350 O   0  0  0  0  0  0  0  0  0  0  0  0
  -28.3186  -26.7480   19.5103 O   0  0  0  0  0  0  0  0  0  1  0  0
  -21.0990   -7.1629   20.7090 F   0  0  0  0  0  0  0  0  0  0  0  0
  -24.0173  -10.2282   22.8286 F   0  0  0  0  0  0  0  0  0  0  0  0
  1  2  1  0  0  0  0
  1  5  2  0  0  0  0
  2  6  2  0  0  0  0
  3  8  2  0  0  0  0
  3 16  1  0  0  0  0
  4  9  1  0  0  0  0
  4 16  2  0  0  0  0
  5 18  1  0  0  0  0
  6 20  1  0  0  0  0
  7 10  2  0  0  0  0
  7 19  1  0  0  0  0
  8 23  1  0  0  0  0
  9 23  2  0  0  0  0
 10 24  1  0  0  0  0
 11 12  2  0  0  0  0
 11 25  1  0  0  0  0
 12 26  1  0  0  0  0
 13 21  1  0  0  0  0
 13 24  2  0  0  0  0
 14 26  2  0  0  0  0
 14 27  1  0  0  0  0
 15 22  1  0  0  0  0
 15 61  2  0  0  0  0
 16 28  1  0  0  0  0
 17 28  1  0  0  0  0
 17 30  2  0  0  0  0
 17 31  1  0  0  0  0
 18 20  2  0  0  0  0
 18 36  1  0  0  0  0
 19 21  2  0  0  0  0
 19 37  1  0  0  0  0
 20 45  1  0  0  0  0
 21 38  1  0  0  0  0
 22 29  2  0  0  0  0
 22 54  1  0  0  0  0
 23 77  1  0  0  0  0
 24 78  1  0  0  0  0
 25 27  2  0  0  0  0
 25 77  1  0  0  0  0
 26 79  1  0  0  0  0
 27 80  1  0  0  0  0
 28 62  2  0  0  0  0
 29 55  1  0  0  0  0
 29 63  1  0  0  0  0
 30 64  1  0  0  0  0
 30 67  1  0  0  0  0
 31 68  1  0  0  0  0
 31 72  2  0  0  0  0
 32 46  1  0  0  0  0
 32 69  1  0  0  0  0
 32 73  2  0  0  0  0
 33 56  1  0  0  0  0
 33 66  1  0  0  0  0
 33 74  2  0  0  0  0
 34 58  1  0  0  0  0
 34 65  1  0  0  0  0
 34 75  2  0  0  0  0
 35 59  1  0  0  0  0
 35 70  1  0  0  0  0
 35 76  2  0  0  0  0
 36 39  1  0  0  0  0
 37 46  1  0  0  0  0
 38 65  1  0  0  0  0
 39 41  1  0  0  0  0
 40 42  1  0  0  0  0
 40 43  1  0  0  0  0
 41 45  1  0  0  0  0
 42 47  1  0  0  0  0
 43 66  1  0  0  0  0
 44 47  1  0  0  0  0
 44 66  1  0  0  0  0
 45 69  1  0  0  0  0
 46 65  1  0  0  0  0
 47 64  1  0  0  0  0
 48 59  1  0  0  0  0
 49 60  1  0  0  0  0
 50 60  1  0  0  0  0
 51 60  1  0  0  0  0
 52 63  1  0  0  0  0
 53 71  1  0  0  0  0
 54 56  1  0  0  0  0
 55 57  1  0  0  0  0
 57 78  1  0  0  0  0
 58 60  1  0  0  0  0
 58 70  1  0  0  0  0
 59 71  1  0  0  0  0
 61 63  1  0  0  0  0
 62 64  1  0  0  0  0
M  CHG  1  71   1
M  ISO  4  33 100  56 100  57 101  78 101
M  END
> <Batch ID>
0040

> <Smiles>
CNC(C)C(=O)NC(C(=O)N1Cc2cc([101O:1][101CH2:1]Cc3c(C[100CH2:0][100C:0](=O)N4CCCC(n5nc(-c6ccc(Oc7ccc(F)cc7F)cc6)c(C(N)=O)c5N)C4)cnn3C)ccc2CC1C(=O)NC1CCCc2ccccc21)C(C)(C)C

> <Shape>
0.252

> <Color>
0.096

> <Negative vol penalty>
0.000

$$$$

  -OEChem-04052317073D

 87 95  0     1  0  0  0  0  0999 V2000
  -32.1793  -31.1431   23.1834 C   0  0  0  0  0  0  0  0  0  0  0  0
  -31.5665  -29.9973   23.6804 C   0  0  0  0  0  0  0  0  0  0  0  0
  -23.0508   -9.9351   20.0014 C   0  0  0  0  0  0  0  0  0  0  0  0
  -23.7968   -9.9960   22.2986 C   0  0  0  0  0  0  0  0  0  0  0  0
  -31.8825  -31.5884   21.8959 C   0  0  0  0  0  0  0  0  0  0  0  0
  -30.6556  -29.2967   22.8906 C   0  0  0  0  0  0  0  0  0  0  0  0
  -31.4007  -24.2901   23.0426 C   0  0  0  0  0  0  0  0  0  0  0  0
  -22.2788   -8.8078   20.2819 C   0  0  0  0  0  0  0  0  0  0  0  0
  -23.0247   -8.8686   22.5791 C   0  0  0  0  0  0  0  0  0  0  0  0
  -30.9360  -23.6111   24.1681 C   0  0  0  0  0  0  0  0  0  0  0  0
  -19.8298   -6.1285   20.4790 C   0  0  0  0  0  0  0  0  0  0  0  0
  -18.5264   -6.0954   19.9836 C   0  0  0  0  0  0  0  0  0  0  0  0
  -28.9859  -22.9107   22.9329 C   0  0  0  0  0  0  0  0  0  0  0  0
  -30.2415  -18.4343   25.5630 C   0  0  0  0  0  0  0  0  0  0  0  0
  -28.6037  -17.3480   24.1579 C   0  0  0  0  0  0  0  0  0  0  0  0
  -28.0171  -19.3563   25.3660 C   0  0  0  0  0  0  0  0  0  0  0  0
  -17.9986   -8.0909   21.2391 C   0  0  0  0  0  0  0  0  0  0  0  0
  -23.8098  -10.5292   21.0097 C   0  0  0  0  0  0  0  0  0  0  0  0
  -24.2110  -13.0408   20.8138 C   0  0  0  0  0  0  0  0  0  0  0  0
  -30.9748  -30.8875   21.0864 C   0  0  0  0  0  0  0  0  0  0  0  0
  -30.6549  -24.2935   21.8551 C   0  0  0  0  0  0  0  0  0  0  0  0
  -30.3453  -29.7338   21.5916 C   0  0  0  0  0  0  0  0  0  0  0  0
  -29.4445  -23.5883   21.7930 C   0  0  0  0  0  0  0  0  0  0  0  0
  -29.8911  -17.4028   24.6920 C   0  0  0  0  0  0  0  0  0  0  0  0
  -29.3045  -19.4111   25.9001 C   0  0  0  0  0  0  0  0  0  0  0  0
  -27.6667  -18.3248   24.4949 C   0  0  0  0  0  0  0  0  0  0  0  0
  -22.2658   -8.2745   21.5708 C   0  0  0  0  0  0  0  0  0  0  0  0
  -29.7270  -22.9236   24.1143 C   0  0  0  0  0  0  0  0  0  0  0  0
  -20.2177   -7.1427   21.3546 C   0  0  0  0  0  0  0  0  0  0  0  0
  -17.6107   -7.0766   20.3636 C   0  0  0  0  0  0  0  0  0  0  0  0
  -19.3021   -8.1240   21.7346 C   0  0  0  0  0  0  0  0  0  0  0  0
  -24.6080  -11.6934   20.7204 C   0  0  0  0  0  0  0  0  0  0  0  0
  -25.3225  -13.7533   20.4349 C   0  0  0  0  0  0  0  0  0  0  0  0
  -22.9504  -13.5986   21.2079 C   0  0  0  0  0  0  0  0  0  0  0  0
  -29.2554  -26.5376   20.0917 C   0  0  0  0  0  0  0  0  0  0  0  0
  -28.7147  -24.0605   18.0684 C   0  0  0  0  0  0  0  0  0  0  0  0
  -28.3633  -20.6930   17.6402 C   0  0  0  0  0  0  0  0  0  0  0  0
  -30.8272  -14.6510   20.6287 C   0  0  0  0  0  0  0  0  0  0  0  0
  -30.6500  -31.4339   19.7187 C   0  0  0  0  0  0  0  0  0  0  0  0
  -31.1830  -25.0086   20.6417 C   0  0  0  0  0  0  0  0  0  0  0  0
  -28.6160  -23.5443   20.5360 C   0  0  0  0  0  0  0  0  0  0  0  0
  -29.9565  -30.4238   18.8081 C   0  0  0  0  0  0  0  0  0  0  0  0
  -29.6489  -12.2201   18.3093 C   0  0  0  0  0  0  0  0  0  0  0  0
  -28.8294  -29.7176   19.5550 C   0  0  0  0  0  0  0  0  0  0  0  0
  -28.2025  -11.9733   18.7414 C   0  0  0  0  0  0  0  0  0  0  0  0
  -30.5637  -12.4570   19.5090 C   0  0  0  0  0  0  0  0  0  0  0  0
  -28.6711  -13.2746   20.8593 C   0  0  0  0  0  0  0  0  0  0  0  0
  -29.3705  -28.9327   20.7561 C   0  0  1  0  0  0  0  0  0  0  0  0
  -30.0911  -25.3732   19.6407 C   0  0  1  0  0  0  0  0  0  0  0  0
  -27.7003  -13.0859   19.6811 C   0  0  2  0  0  0  0  0  0  0  0  0
  -25.3370  -16.8112   25.8118 C   0  0  0  0  0  0  0  0  0  0  0  0
  -26.8647  -19.6480   21.8382 C   0  0  0  0  0  0  0  0  0  0  0  0
  -27.8887  -18.9702   15.8783 C   0  0  0  0  0  0  0  0  0  0  0  0
  -25.7629  -24.8319   18.1127 C   0  0  0  0  0  0  0  0  0  0  0  0
  -25.2324  -22.5826   17.1498 C   0  0  0  0  0  0  0  0  0  0  0  0
  -26.6394  -24.1889   15.8604 C   0  0  0  0  0  0  0  0  0  0  0  0
  -30.9780  -19.3724   18.0625 C   0  0  0  0  0  0  0  0  0  0  0  0
  -30.8936  -16.3588   24.3317 C   0  0  0  0  0  0  0  0  0  0  0  0
  -29.6833  -20.5278   26.8423 C   0  0  0  0  0  0  0  0  0  0  0  0
  -25.1837  -18.0969   25.0076 C   0  0  0  0  0  0  0  0  0  0  0  0
  -25.9398  -19.5011   23.0407 C   0  0  0  0  0  0  0  0  0  0  0  0
  -31.7414  -16.6908   23.0878 C   0  0  0  0  0  0  0  0  0  0  0  0
  -30.9356  -16.8369   21.7988 C   0  0  0  0  0  0  0  0  0  0  0  0
  -30.2500  -21.7383   26.1086 C   0  0  0  0  0  0  0  0  0  1  0  0
  -26.2902  -18.2659   23.9236 C   0  0  0  0  0  0  0  0  0  0  0  0
  -27.6125  -23.0439   17.8937 C   0  0  1  0  0  0  0  0  0  0  0  0
  -28.9674  -19.7381   16.6264 C   0  0  2  0  0  0  0  0  0  0  0  0
  -26.3262  -23.6641   17.2786 C   0  0  0  0  0  0  0  0  0  0  0  0
  -25.8728  -11.5555   20.3139 N   0  0  0  0  0  0  0  0  0  0  0  0
  -26.2802  -12.8254   20.1484 N   0  0  0  0  0  0  0  0  0  0  0  0
  -29.1717  -24.2641   19.3782 N   0  0  0  0  0  0  0  0  0  0  0  0
  -30.0318  -13.5251   20.3589 N   0  0  0  0  0  0  0  0  0  0  0  0
  -25.5643  -15.0766   20.3221 N   0  0  0  0  0  0  0  0  0  0  0  0
  -21.9156  -12.7239   21.5664 N   0  0  0  0  0  0  0  0  0  0  0  0
  -29.9774  -27.6939   20.3183 N   0  0  0  0  0  0  0  0  0  0  0  0
  -28.1834  -21.9534   17.1106 N   0  0  0  0  0  0  0  0  0  0  0  0
  -30.2447  -15.6191   21.4375 N   0  0  0  0  0  0  0  0  0  0  0  0
  -29.8576  -18.7555   17.3068 N   0  3  0  0  0  0  0  0  0  0  0  0
  -22.7425  -14.8355   21.2255 O   0  0  0  0  0  0  0  0  0  0  0  0
  -28.0451  -26.3978   20.2230 O   0  0  0  0  0  0  0  0  0  0  0  0
  -29.1589  -24.6471   17.0783 O   0  0  0  0  0  0  0  0  0  0  0  0
  -28.0761  -20.3538   18.7860 O   0  0  0  0  0  0  0  0  0  0  0  0
  -31.9697  -14.7860   20.1776 O   0  0  0  0  0  0  0  0  0  0  0  0
  -21.5124   -7.1746   21.8450 O   0  0  0  0  0  0  0  0  0  0  0  0
  -29.2708  -22.2606   25.2116 O   0  0  0  0  0  0  0  0  0  1  0  0
  -16.3595   -7.0456   19.8866 F   0  0  0  0  0  0  0  0  0  0  0  0
  -19.6692   -9.1015   22.5745 F   0  0  0  0  0  0  0  0  0  0  0  0
  1  2  1  0  0  0  0
  1  5  2  0  0  0  0
  2  6  2  0  0  0  0
  3  8  2  0  0  0  0
  3 18  1  0  0  0  0
  4  9  1  0  0  0  0
  4 18  2  0  0  0  0
  5 20  1  0  0  0  0
  6 22  1  0  0  0  0
  7 10  2  0  0  0  0
  7 21  1  0  0  0  0
  8 27  1  0  0  0  0
  9 27  2  0  0  0  0
 10 28  1  0  0  0  0
 11 12  2  0  0  0  0
 11 29  1  0  0  0  0
 12 30  1  0  0  0  0
 13 23  1  0  0  0  0
 13 28  2  0  0  0  0
 14 24  1  0  0  0  0
 14 25  2  0  0  0  0
 15 24  2  0  0  0  0
 15 26  1  0  0  0  0
 16 25  1  0  0  0  0
 16 26  2  0  0  0  0
 17 30  2  0  0  0  0
 17 31  1  0  0  0  0
 18 32  1  0  0  0  0
 19 32  1  0  0  0  0
 19 33  2  0  0  0  0
 19 34  1  0  0  0  0
 20 22  2  0  0  0  0
 20 39  1  0  0  0  0
 21 23  2  0  0  0  0
 21 40  1  0  0  0  0
 22 48  1  0  0  0  0
 23 41  1  0  0  0  0
 24 58  1  0  0  0  0
 25 59  1  0  0  0  0
 26 65  1  0  0  0  0
 27 84  1  0  0  0  0
 28 85  1  0  0  0  0
 29 31  2  0  0  0  0
 29 84  1  0  0  0  0
 30 86  1  0  0  0  0
 31 87  1  0  0  0  0
 32 69  2  0  0  0  0
 33 70  1  0  0  0  0
 33 73  1  0  0  0  0
 34 74  1  0  0  0  0
 34 79  2  0  0  0  0
 35 49  1  0  0  0  0
 35 75  1  0  0  0  0
 35 80  2  0  0  0  0
 36 66  1  0  0  0  0
 36 71  1  0  0  0  0
 36 81  2  0  0  0  0
 37 67  1  0  0  0  0
 37 76  1  0  0  0  0
 37 82  2  0  0  0  0
 38 72  1  0  0  0  0
 38 77  1  0  0  0  0
 38 83  2  0  0  0  0
 39 42  1  0  0  0  0
 40 49  1  0  0  0  0
 41 71  1  0  0  0  0
 42 44  1  0  0  0  0
 43 45  1  0  0  0  0
 43 46  1  0  0  0  0
 44 48  1  0  0  0  0
 45 50  1  0  0  0  0
 46 72  1  0  0  0  0
 47 50  1  0  0  0  0
 47 72  1  0  0  0  0
 48 75  1  0  0  0  0
 49 71  1  0  0  0  0
 50 70  1  0  0  0  0
 51 60  1  0  0  0  0
 52 61  1  0  0  0  0
 53 67  1  0  0  0  0
 54 68  1  0  0  0  0
 55 68  1  0  0  0  0
 56 68  1  0  0  0  0
 57 78  1  0  0  0  0
 58 62  1  0  0  0  0
 59 64  1  0  0  0  0
 60 65  1  0  0  0  0
 61 65  1  0  0  0  0
 62 63  1  0  0  0  0
 63 77  1  0  0  0  0
 64 85  1  0  0  0  0
 66 68  1  0  0  0  0
 66 76  1  0  0  0  0
 67 78  1  0  0  0  0
 69 70  1  0  0  0  0
M  CHG  1  78   1
M  ISO  4  38 100  64 101  77 100  85 101
M  END
> <Batch ID>
0040

> <Smiles>
CCC(CC)c1cc(CCC[100NH:0][100C:0](=O)N2CCCC(n3nc(-c4ccc(Oc5ccc(F)cc5F)cc4)c(C(N)=O)c3N)C2)cc(C[101CH2:1][101O:1]c2ccc3c(c2)CN(C(=O)C(NC(=O)C(C)NC)C(C)(C)C)C(C(=O)NC2CCCc4ccccc42)C3)c1

> <Shape>
0.216

> <Color>
0.208

> <Negative vol penalty>
0.000

$$$$

  -OEChem-04052317073D

 82 90  0     1  0  0  0  0  0999 V2000
  -22.7715  -12.7256   25.1097 C   0  0  0  0  0  0  0  0  0  0  0  0
  -24.0382  -13.2491   25.3482 C   0  0  0  0  0  0  0  0  0  0  0  0
  -23.1927   -9.8158   19.9292 C   0  0  0  0  0  0  0  0  0  0  0  0
  -23.5644   -9.9983   22.3095 C   0  0  0  0  0  0  0  0  0  0  0  0
  -21.6448  -13.3709   25.6175 C   0  0  0  0  0  0  0  0  0  0  0  0
  -24.1787  -14.4191   26.0938 C   0  0  0  0  0  0  0  0  0  0  0  0
  -27.8918  -14.1032   29.5228 C   0  0  0  0  0  0  0  0  0  0  0  0
  -22.4266   -8.6688   20.1368 C   0  0  0  0  0  0  0  0  0  0  0  0
  -22.7982   -8.8514   22.5171 C   0  0  0  0  0  0  0  0  0  0  0  0
  -29.1991  -14.2491   29.0609 C   0  0  0  0  0  0  0  0  0  0  0  0
  -23.2021   -5.5047   22.2568 C   0  0  0  0  0  0  0  0  0  0  0  0
  -23.6987   -4.5444   23.1381 C   0  0  0  0  0  0  0  0  0  0  0  0
  -29.2025  -16.5413   29.8125 C   0  0  0  0  0  0  0  0  0  0  0  0
  -21.7382   -4.8043   24.5259 C   0  0  0  0  0  0  0  0  0  0  0  0
  -34.8398  -16.6629   26.9057 C   0  0  0  0  0  0  0  0  0  0  0  0
  -34.2934  -17.0900   29.0350 C   0  0  0  0  0  0  0  0  0  0  0  0
  -23.7617  -10.4805   21.0156 C   0  0  0  0  0  0  0  0  0  0  0  0
  -24.0995  -12.9972   20.7707 C   0  0  0  0  0  0  0  0  0  0  0  0
  -21.7722  -14.5440   26.3779 C   0  0  0  0  0  0  0  0  0  0  0  0
  -27.2250  -15.1803   30.1242 C   0  0  0  0  0  0  0  0  0  0  0  0
  -23.0525  -15.0814   26.6111 C   0  0  0  0  0  0  0  0  0  0  0  0
  -27.8876  -16.4058   30.2835 C   0  0  0  0  0  0  0  0  0  0  0  0
  -33.4676  -16.5898   27.0009 C   0  0  0  0  0  0  0  0  0  0  0  0
  -33.1219  -16.8599   28.3479 C   0  0  0  0  0  0  0  0  0  0  0  0
  -22.2293   -8.1866   21.4307 C   0  0  0  0  0  0  0  0  0  0  0  0
  -29.8537  -15.4691   29.2031 C   0  0  0  0  0  0  0  0  0  0  0  0
  -21.9736   -6.1149   22.5100 C   0  0  0  0  0  0  0  0  0  0  0  0
  -22.9668   -4.1942   24.2726 C   0  0  0  0  0  0  0  0  0  0  0  0
  -21.2417   -5.7647   23.6446 C   0  0  0  0  0  0  0  0  0  0  0  0
  -24.5537  -11.6651   20.8017 C   0  0  0  0  0  0  0  0  0  0  0  0
  -25.2308  -13.7404   20.5379 C   0  0  0  0  0  0  0  0  0  0  0  0
  -22.7735  -13.5164   20.9375 C   0  0  0  0  0  0  0  0  0  0  0  0
  -24.6127  -16.8607   29.4489 C   0  0  0  0  0  0  0  0  0  0  0  0
  -25.2158  -18.2220   32.3308 C   0  0  0  0  0  0  0  0  0  0  0  0
  -27.4931  -18.9820   34.7563 C   0  0  0  0  0  0  0  0  0  0  0  0
  -31.0434  -12.7549   21.5836 C   0  0  0  0  0  0  0  0  0  0  0  0
  -20.5220  -15.2321   26.8660 C   0  0  0  0  0  0  0  0  0  0  0  0
  -25.8243  -14.9989   30.6413 C   0  0  0  0  0  0  0  0  0  0  0  0
  -27.2231  -17.5870   30.9405 C   0  0  0  0  0  0  0  0  0  0  0  0
  -20.7820  -16.2613   27.9630 C   0  0  0  0  0  0  0  0  0  0  0  0
  -29.5241  -13.4688   18.4438 C   0  0  0  0  0  0  0  0  0  0  0  0
  -21.9604  -17.1546   27.5885 C   0  0  0  0  0  0  0  0  0  0  0  0
  -28.0369  -13.2077   18.6893 C   0  0  0  0  0  0  0  0  0  0  0  0
  -30.4039  -12.4806   19.2062 C   0  0  0  0  0  0  0  0  0  0  0  0
  -28.6460  -12.1381   20.8992 C   0  0  0  0  0  0  0  0  0  0  0  0
  -23.2475  -16.3349   27.4363 C   0  0  1  0  0  0  0  0  0  0  0  0
  -25.0615  -16.3133   30.7743 C   0  0  1  0  0  0  0  0  0  0  0  0
  -27.7198  -13.1447   20.1955 C   0  0  2  0  0  0  0  0  0  0  0  0
  -27.6959  -20.1330   36.9769 C   0  0  0  0  0  0  0  0  0  0  0  0
  -25.1063  -20.9321   30.9332 C   0  0  0  0  0  0  0  0  0  0  0  0
  -26.2299  -21.9316   32.9349 C   0  0  0  0  0  0  0  0  0  0  0  0
  -23.9869  -20.8651   33.1686 C   0  0  0  0  0  0  0  0  0  0  0  0
  -36.7290  -17.1369   28.4729 C   0  0  0  0  0  0  0  0  0  0  0  0
  -28.3651  -16.4922   36.0979 C   0  0  0  0  0  0  0  0  0  0  0  0
  -32.5380  -16.2864   25.8947 C   0  0  0  0  0  0  0  0  0  0  0  0
  -31.7397  -16.8920   28.9309 C   0  0  0  0  0  0  0  0  0  1  0  0
  -32.4986  -14.7850   25.5432 C   0  0  0  0  0  0  0  0  0  0  0  0
  -31.5622  -14.4892   24.3680 C   0  0  0  0  0  0  0  0  0  0  0  0
  -31.5269  -13.0083   24.0046 C   0  0  0  0  0  0  0  0  0  0  0  0
  -26.0206  -19.4076   32.8057 C   0  0  1  0  0  0  0  0  0  0  0  0
  -27.4534  -18.8117   36.2642 C   0  0  2  0  0  0  0  0  0  0  0  0
  -25.3481  -20.7626   32.4464 C   0  0  0  0  0  0  0  0  0  0  0  0
  -25.8708  -11.5647   20.6042 N   0  0  0  0  0  0  0  0  0  0  0  0
  -35.3311  -16.9679   28.1482 N   0  0  0  0  0  0  0  0  0  0  0  0
  -26.2540  -12.8431   20.4468 N   0  0  0  0  0  0  0  0  0  0  0  0
  -25.8509  -17.3617   31.4240 N   0  0  0  0  0  0  0  0  0  0  0  0
  -30.0536  -12.4704   20.6285 N   0  0  0  0  0  0  0  0  0  0  0  0
  -25.4403  -15.0673   20.4041 N   0  0  0  0  0  0  0  0  0  0  0  0
  -21.7267  -12.6137   21.1695 N   0  0  0  0  0  0  0  0  0  0  0  0
  -23.7940  -16.0062   28.7354 N   0  0  0  0  0  0  0  0  0  0  0  0
  -26.2370  -19.2082   34.2346 N   0  0  0  0  0  0  0  0  0  0  0  0
  -30.6256  -12.7303   22.9086 N   0  0  0  0  0  0  0  0  0  0  0  0
  -28.4965  -17.8423   36.7037 N   0  3  0  0  0  0  0  0  0  0  0  0
  -22.5217  -14.7432   20.8662 O   0  0  0  0  0  0  0  0  0  0  0  0
  -24.9808  -17.9762   29.1000 O   0  0  0  0  0  0  0  0  0  0  0  0
  -24.0685  -18.0611   32.7545 O   0  0  0  0  0  0  0  0  0  0  0  0
  -28.5348  -18.9240   34.1066 O   0  0  0  0  0  0  0  0  0  0  0  0
  -32.2117  -13.0170   21.2779 O   0  0  0  0  0  0  0  0  0  0  0  0
  -21.4816   -7.0676   21.6337 O   0  0  0  0  0  0  0  0  0  0  0  0
  -31.1295  -15.6144   28.7526 O   0  0  0  0  0  0  0  0  0  1  0  0
  -23.4430   -3.2708   25.1181 F   0  0  0  0  0  0  0  0  0  0  0  0
  -20.0602   -6.3466   23.8926 F   0  0  0  0  0  0  0  0  0  0  0  0
  1  2  1  0  0  0  0
  1  5  2  0  0  0  0
  2  6  2  0  0  0  0
  3  8  2  0  0  0  0
  3 17  1  0  0  0  0
  4  9  1  0  0  0  0
  4 17  2  0  0  0  0
  5 19  1  0  0  0  0
  6 21  1  0  0  0  0
  7 10  2  0  0  0  0
  7 20  1  0  0  0  0
  8 25  1  0  0  0  0
  9 25  2  0  0  0  0
 10 26  1  0  0  0  0
 11 12  2  0  0  0  0
 11 27  1  0  0  0  0
 12 28  1  0  0  0  0
 13 22  1  0  0  0  0
 13 26  2  0  0  0  0
 14 28  2  0  0  0  0
 14 29  1  0  0  0  0
 15 23  2  0  0  0  0
 15 64  1  0  0  0  0
 16 24  2  0  0  0  0
 16 64  1  0  0  0  0
 17 30  1  0  0  0  0
 18 30  1  0  0  0  0
 18 31  2  0  0  0  0
 18 32  1  0  0  0  0
 19 21  2  0  0  0  0
 19 37  1  0  0  0  0
 20 22  2  0  0  0  0
 20 38  1  0  0  0  0
 21 46  1  0  0  0  0
 22 39  1  0  0  0  0
 23 24  1  0  0  0  0
 23 55  1  0  0  0  0
 24 56  1  0  0  0  0
 25 79  1  0  0  0  0
 26 80  1  0  0  0  0
 27 29  2  0  0  0  0
 27 79  1  0  0  0  0
 28 81  1  0  0  0  0
 29 82  1  0  0  0  0
 30 63  2  0  0  0  0
 31 65  1  0  0  0  0
 31 68  1  0  0  0  0
 32 69  1  0  0  0  0
 32 74  2  0  0  0  0
 33 47  1  0  0  0  0
 33 70  1  0  0  0  0
 33 75  2  0  0  0  0
 34 60  1  0  0  0  0
 34 66  1  0  0  0  0
 34 76  2  0  0  0  0
 35 61  1  0  0  0  0
 35 71  1  0  0  0  0
 35 77  2  0  0  0  0
 36 67  1  0  0  0  0
 36 72  1  0  0  0  0
 36 78  2  0  0  0  0
 37 40  1  0  0  0  0
 38 47  1  0  0  0  0
 39 66  1  0  0  0  0
 40 42  1  0  0  0  0
 41 43  1  0  0  0  0
 41 44  1  0  0  0  0
 42 46  1  0  0  0  0
 43 48  1  0  0  0  0
 44 67  1  0  0  0  0
 45 48  1  0  0  0  0
 45 67  1  0  0  0  0
 46 70  1  0  0  0  0
 47 66  1  0  0  0  0
 48 65  1  0  0  0  0
 49 61  1  0  0  0  0
 50 62  1  0  0  0  0
 51 62  1  0  0  0  0
 52 62  1  0  0  0  0
 53 64  1  0  0  0  0
 54 73  1  0  0  0  0
 55 57  1  0  0  0  0
 56 80  1  0  0  0  0
 57 58  1  0  0  0  0
 58 59  1  0  0  0  0
 59 72  1  0  0  0  0
 60 62  1  0  0  0  0
 60 71  1  0  0  0  0
 61 73  1  0  0  0  0
 63 65  1  0  0  0  0
M  CHG  1  73   1
M  ISO  4  36 100  56 101  72 100  80 101
M  END
> <Batch ID>
0040

> <Smiles>
CNC(C)C(=O)NC(C(=O)N1Cc2cc([101O:1][101CH2:1]c3cn(C)cc3CCCC[100NH:0][100C:0](=O)N3CCCC(n4nc(-c5ccc(Oc6ccc(F)cc6F)cc5)c(C(N)=O)c4N)C3)ccc2CC1C(=O)NC1CCCc2ccccc21)C(C)(C)C

> <Shape>
0.141

> <Color>
0.190

> <Negative vol penalty>
0.000

$$$$

  -OEChem-04052317073D

 83 91  0     1  0  0  0  0  0999 V2000
  -42.1170  -22.9228   26.5845 C   0  0  0  0  0  0  0  0  0  0  0  0
  -41.0440  -22.1611   27.0362 C   0  0  0  0  0  0  0  0  0  0  0  0
  -23.0793   -9.8623   19.9481 C   0  0  0  0  0  0  0  0  0  0  0  0
  -23.8381   -9.8822   22.2417 C   0  0  0  0  0  0  0  0  0  0  0  0
  -41.8850  -24.1237   25.9152 C   0  0  0  0  0  0  0  0  0  0  0  0
  -39.7384  -22.6005   26.8198 C   0  0  0  0  0  0  0  0  0  0  0  0
  -33.1420  -20.1019   25.5706 C   0  0  0  0  0  0  0  0  0  0  0  0
  -22.3393   -8.7077   20.2029 C   0  0  0  0  0  0  0  0  0  0  0  0
  -23.0981   -8.7276   22.4966 C   0  0  0  0  0  0  0  0  0  0  0  0
  -31.8392  -20.2112   26.0550 C   0  0  0  0  0  0  0  0  0  0  0  0
  -20.5362   -5.5501   20.1578 C   0  0  0  0  0  0  0  0  0  0  0  0
  -20.6035   -4.5157   19.2245 C   0  0  0  0  0  0  0  0  0  0  0  0
  -31.5575  -22.2625   24.8173 C   0  0  0  0  0  0  0  0  0  0  0  0
  -22.9887   -4.3555   19.5741 C   0  0  0  0  0  0  0  0  0  0  0  0
  -27.4778  -17.9573   22.8011 C   0  0  0  0  0  0  0  0  0  0  0  0
  -23.8287  -10.4495   20.9675 C   0  0  0  0  0  0  0  0  0  0  0  0
  -24.1618  -12.9753   20.8363 C   0  0  0  0  0  0  0  0  0  0  0  0
  -40.5757  -24.5732   25.6820 C   0  0  0  0  0  0  0  0  0  0  0  0
  -33.6669  -21.0795   24.7132 C   0  0  0  0  0  0  0  0  0  0  0  0
  -39.4888  -23.8092   26.1480 C   0  0  0  0  0  0  0  0  0  0  0  0
  -32.8663  -22.1620   24.3214 C   0  0  0  0  0  0  0  0  0  0  0  0
  -28.3098  -18.7721   22.0101 C   0  0  0  0  0  0  0  0  0  0  0  0
  -22.3487   -8.1403   21.4771 C   0  0  0  0  0  0  0  0  0  0  0  0
  -31.0477  -21.2931   25.6807 C   0  0  0  0  0  0  0  0  0  0  0  0
  -21.6952   -5.9873   20.7992 C   0  0  0  0  0  0  0  0  0  0  0  0
  -21.8297   -3.9183   18.9327 C   0  0  0  0  0  0  0  0  0  0  0  0
  -22.9214   -5.3899   20.5074 C   0  0  0  0  0  0  0  0  0  0  0  0
  -24.5937  -11.6419   20.7047 C   0  0  0  0  0  0  0  0  0  0  0  0
  -28.3302  -19.9796   22.6645 C   0  0  0  0  0  0  0  0  0  0  0  0
  -25.2515  -13.7269   20.4701 C   0  0  0  0  0  0  0  0  0  0  0  0
  -22.8893  -13.4885   21.2523 C   0  0  0  0  0  0  0  0  0  0  0  0
  -36.0900  -23.1310   24.8670 C   0  0  0  0  0  0  0  0  0  0  0  0
  -35.2611  -23.7391   21.7903 C   0  0  0  0  0  0  0  0  0  0  0  0
  -32.8492  -23.6930   19.3764 C   0  0  0  0  0  0  0  0  0  0  0  0
  -30.7315  -14.7659   20.6563 C   0  0  0  0  0  0  0  0  0  0  0  0
  -40.3756  -25.9012   24.9957 C   0  0  0  0  0  0  0  0  0  0  0  0
  -35.0650  -20.9331   24.1781 C   0  0  0  0  0  0  0  0  0  0  0  0
  -33.3758  -23.2278   23.3870 C   0  0  0  0  0  0  0  0  0  0  0  0
  -38.9554  -26.1107   24.4767 C   0  0  0  0  0  0  0  0  0  0  0  0
  -29.6033  -12.3668   18.2797 C   0  0  0  0  0  0  0  0  0  0  0  0
  -37.9350  -25.7236   25.5425 C   0  0  0  0  0  0  0  0  0  0  0  0
  -28.1667  -12.0700   18.7134 C   0  0  0  0  0  0  0  0  0  0  0  0
  -30.5192  -12.5962   19.4800 C   0  0  0  0  0  0  0  0  0  0  0  0
  -28.6142  -13.3268   20.8625 C   0  0  0  0  0  0  0  0  0  0  0  0
  -38.0577  -24.2400   25.9106 C   0  0  1  0  0  0  0  0  0  0  0  0
  -35.6709  -22.2560   23.7196 C   0  0  1  0  0  0  0  0  0  0  0  0
  -27.6412  -13.1436   19.6852 C   0  0  2  0  0  0  0  0  0  0  0  0
  -29.0162  -21.2468   22.3486 C   0  0  0  0  0  0  0  0  0  0  0  0
  -32.4592  -24.2877   16.9698 C   0  0  0  0  0  0  0  0  0  0  0  0
  -35.1012  -26.6904   22.5481 C   0  0  0  0  0  0  0  0  0  0  0  0
  -33.8196  -27.0917   20.4351 C   0  0  0  0  0  0  0  0  0  0  0  0
  -36.1615  -26.2392   20.3285 C   0  0  0  0  0  0  0  0  0  0  0  0
  -32.2284  -20.8885   18.6634 C   0  0  0  0  0  0  0  0  0  0  0  0
  -29.0005  -18.4065   20.7623 C   0  0  0  0  0  0  0  0  0  0  0  0
  -30.5052  -18.0711   20.9182 C   0  0  0  0  0  0  0  0  0  0  0  0
  -27.5902  -20.4170   26.2376 C   0  0  0  0  0  0  0  0  0  0  0  0
  -27.2317  -20.8564   24.8163 C   0  0  0  0  0  0  0  0  0  0  0  0
  -30.7893  -16.9223   21.8835 C   0  0  0  0  0  0  0  0  0  0  0  0
  -29.0835  -20.1886   26.4407 C   0  0  0  0  0  0  0  0  0  1  0  0
  -34.3154  -24.6972   21.1073 C   0  0  1  0  0  0  0  0  0  0  0  0
  -32.8680  -23.1930   17.9431 C   0  0  2  0  0  0  0  0  0  0  0  0
  -34.8402  -26.1607   21.1239 C   0  0  0  0  0  0  0  0  0  0  0  0
  -27.0041  -18.5933   23.8758 N   0  0  0  0  0  0  0  0  0  0  0  0
  -25.8591  -11.5486   20.2874 N   0  0  0  0  0  0  0  0  0  0  0  0
  -27.5402  -19.8206   23.7649 N   0  0  0  0  0  0  0  0  0  0  0  0
  -26.2316  -12.8329   20.1535 N   0  0  0  0  0  0  0  0  0  0  0  0
  -34.7514  -23.0434   22.8958 N   0  0  0  0  0  0  0  0  0  0  0  0
  -29.9646  -13.6268   20.3611 N   0  0  0  0  0  0  0  0  0  0  0  0
  -25.4573  -15.0588   20.3912 N   0  0  0  0  0  0  0  0  0  0  0  0
  -21.8804  -12.5773   21.5932 N   0  0  0  0  0  0  0  0  0  0  0  0
  -37.4421  -23.4145   24.8937 N   0  0  0  0  0  0  0  0  0  0  0  0
  -34.0852  -24.1601   19.7705 N   0  0  0  0  0  0  0  0  0  0  0  0
  -30.1288  -15.6964   21.4939 N   0  0  0  0  0  0  0  0  0  0  0  0
  -31.9296  -22.0465   17.7821 N   0  3  0  0  0  0  0  0  0  0  0  0
  -22.6487  -14.7185   21.3040 O   0  0  0  0  0  0  0  0  0  0  0  0
  -35.2486  -23.5214   25.6678 O   0  0  0  0  0  0  0  0  0  0  0  0
  -36.4076  -23.6072   21.3546 O   0  0  0  0  0  0  0  0  0  0  0  0
  -31.8383  -23.6746   20.0751 O   0  0  0  0  0  0  0  0  0  0  0  0
  -31.8671  -14.9433   20.2024 O   0  0  0  0  0  0  0  0  0  0  0  0
  -21.6266   -7.0138   21.7262 O   0  0  0  0  0  0  0  0  0  0  0  0
  -29.7760  -21.4025   26.1525 O   0  0  0  0  0  0  0  0  0  1  0  0
  -21.8940   -2.9240   18.0375 F   0  0  0  0  0  0  0  0  0  0  0  0
  -24.0380   -5.8048   21.1213 F   0  0  0  0  0  0  0  0  0  0  0  0
  1  2  1  0  0  0  0
  1  5  2  0  0  0  0
  2  6  2  0  0  0  0
  3  8  2  0  0  0  0
  3 16  1  0  0  0  0
  4  9  1  0  0  0  0
  4 16  2  0  0  0  0
  5 18  1  0  0  0  0
  6 20  1  0  0  0  0
  7 10  2  0  0  0  0
  7 19  1  0  0  0  0
  8 23  1  0  0  0  0
  9 23  2  0  0  0  0
 10 24  1  0  0  0  0
 11 12  2  0  0  0  0
 11 25  1  0  0  0  0
 12 26  1  0  0  0  0
 13 21  1  0  0  0  0
 13 24  2  0  0  0  0
 14 26  2  0  0  0  0
 14 27  1  0  0  0  0
 15 22  1  0  0  0  0
 15 63  2  0  0  0  0
 16 28  1  0  0  0  0
 17 28  1  0  0  0  0
 17 30  2  0  0  0  0
 17 31  1  0  0  0  0
 18 20  2  0  0  0  0
 18 36  1  0  0  0  0
 19 21  2  0  0  0  0
 19 37  1  0  0  0  0
 20 45  1  0  0  0  0
 21 38  1  0  0  0  0
 22 29  2  0  0  0  0
 22 54  1  0  0  0  0
 23 80  1  0  0  0  0
 24 81  1  0  0  0  0
 25 27  2  0  0  0  0
 25 80  1  0  0  0  0
 26 82  1  0  0  0  0
 27 83  1  0  0  0  0
 28 64  2  0  0  0  0
 29 48  1  0  0  0  0
 29 65  1  0  0  0  0
 30 66  1  0  0  0  0
 30 69  1  0  0  0  0
 31 70  1  0  0  0  0
 31 75  2  0  0  0  0
 32 46  1  0  0  0  0
 32 71  1  0  0  0  0
 32 76  2  0  0  0  0
 33 60  1  0  0  0  0
 33 67  1  0  0  0  0
 33 77  2  0  0  0  0
 34 61  1  0  0  0  0
 34 72  1  0  0  0  0
 34 78  2  0  0  0  0
 35 68  1  0  0  0  0
 35 73  1  0  0  0  0
 35 79  2  0  0  0  0
 36 39  1  0  0  0  0
 37 46  1  0  0  0  0
 38 67  1  0  0  0  0
 39 41  1  0  0  0  0
 40 42  1  0  0  0  0
 40 43  1  0  0  0  0
 41 45  1  0  0  0  0
 42 47  1  0  0  0  0
 43 68  1  0  0  0  0
 44 47  1  0  0  0  0
 44 68  1  0  0  0  0
 45 71  1  0  0  0  0
 46 67  1  0  0  0  0
 47 66  1  0  0  0  0
 49 61  1  0  0  0  0
 50 62  1  0  0  0  0
 51 62  1  0  0  0  0
 52 62  1  0  0  0  0
 53 74  1  0  0  0  0
 54 55  1  0  0  0  0
 55 58  1  0  0  0  0
 56 57  1  0  0  0  0
 56 59  1  0  0  0  0
 57 65  1  0  0  0  0
 58 73  1  0  0  0  0
 59 81  1  0  0  0  0
 60 62  1  0  0  0  0
 60 72  1  0  0  0  0
 61 74  1  0  0  0  0
 63 65  1  0  0  0  0
 64 66  1  0  0  0  0
M  CHG  1  74   1
M  ISO  4  35 100  59 101  73 100  81 101
M  END
> <Batch ID>
0040

> <Smiles>
CNC(C)C(=O)NC(C(=O)N1Cc2cc([101O:1][101CH2:1]CCn3ncc(CCC[100NH:0][100C:0](=O)N4CCCC(n5nc(-c6ccc(Oc7ccc(F)cc7F)cc6)c(C(N)=O)c5N)C4)c3C)ccc2CC1C(=O)NC1CCCc2ccccc21)C(C)(C)C

> <Shape>
0.169

> <Color>
0.196

> <Negative vol penalty>
0.000

$$$$

  -OEChem-04052317073D

 82 90  0     1  0  0  0  0  0999 V2000
  -25.2930  -12.7683   24.4550 C   0  0  0  0  0  0  0  0  0  0  0  0
  -26.3134  -12.0189   25.0315 C   0  0  0  0  0  0  0  0  0  0  0  0
  -23.1900   -9.8193   19.9312 C   0  0  0  0  0  0  0  0  0  0  0  0
  -23.5667   -9.9997   22.3109 C   0  0  0  0  0  0  0  0  0  0  0  0
  -25.2008  -14.1350   24.7152 C   0  0  0  0  0  0  0  0  0  0  0  0
  -27.2430  -12.6360   25.8679 C   0  0  0  0  0  0  0  0  0  0  0  0
  -28.1519   -9.9606   30.0705 C   0  0  0  0  0  0  0  0  0  0  0  0
  -22.4234   -8.6728   20.1395 C   0  0  0  0  0  0  0  0  0  0  0  0
  -22.8001   -8.8532   22.5192 C   0  0  0  0  0  0  0  0  0  0  0  0
  -28.9990   -8.8594   29.9535 C   0  0  0  0  0  0  0  0  0  0  0  0
  -21.2415   -5.7696   23.6471 C   0  0  0  0  0  0  0  0  0  0  0  0
  -21.7371   -4.8098   24.5295 C   0  0  0  0  0  0  0  0  0  0  0  0
  -30.8183  -10.1724   30.8398 C   0  0  0  0  0  0  0  0  0  0  0  0
  -23.6967   -4.5454   23.1411 C   0  0  0  0  0  0  0  0  0  0  0  0
  -32.9971   -7.6942   25.6406 C   0  0  0  0  0  0  0  0  0  0  0  0
  -32.0969   -9.2475   26.9101 C   0  0  0  0  0  0  0  0  0  0  0  0
  -23.7617  -10.4828   21.0169 C   0  0  0  0  0  0  0  0  0  0  0  0
  -24.1008  -12.9994   20.7733 C   0  0  0  0  0  0  0  0  0  0  0  0
  -26.1240  -14.7672   25.5629 C   0  0  0  0  0  0  0  0  0  0  0  0
  -28.6352  -11.1812   30.5636 C   0  0  0  0  0  0  0  0  0  0  0  0
  -27.1639  -14.0126   26.1387 C   0  0  0  0  0  0  0  0  0  0  0  0
  -29.9747  -11.2868   30.9644 C   0  0  0  0  0  0  0  0  0  0  0  0
  -32.7879   -8.0628   26.9830 C   0  0  0  0  0  0  0  0  0  0  0  0
  -22.2284   -8.1897   21.4335 C   0  0  0  0  0  0  0  0  0  0  0  0
  -30.3331   -8.9660   30.3355 C   0  0  0  0  0  0  0  0  0  0  0  0
  -21.9734   -6.1174   22.5117 C   0  0  0  0  0  0  0  0  0  0  0  0
  -22.9648   -4.1977   24.2765 C   0  0  0  0  0  0  0  0  0  0  0  0
  -23.2010   -5.5053   22.2588 C   0  0  0  0  0  0  0  0  0  0  0  0
  -24.5541  -11.6669   20.8024 C   0  0  0  0  0  0  0  0  0  0  0  0
  -25.2323  -13.7419   20.5387 C   0  0  0  0  0  0  0  0  0  0  0  0
  -22.7756  -13.5195   20.9432 C   0  0  0  0  0  0  0  0  0  0  0  0
  -28.9201  -14.1206   29.3879 C   0  0  0  0  0  0  0  0  0  0  0  0
  -29.8448  -14.8226   32.4168 C   0  0  0  0  0  0  0  0  0  0  0  0
  -31.1568  -13.7309   35.3720 C   0  0  0  0  0  0  0  0  0  0  0  0
  -31.0463  -12.7512   21.5719 C   0  0  0  0  0  0  0  0  0  0  0  0
  -26.0117  -16.2560   25.7769 C   0  0  0  0  0  0  0  0  0  0  0  0
  -27.7021  -12.3519   30.7086 C   0  0  0  0  0  0  0  0  0  0  0  0
  -30.5378  -12.5689   31.5190 C   0  0  0  0  0  0  0  0  0  0  0  0
  -26.8147  -16.7617   26.9726 C   0  0  0  0  0  0  0  0  0  0  0  0
  -29.5210  -13.4687   18.4357 C   0  0  0  0  0  0  0  0  0  0  0  0
  -28.2206  -16.1700   26.9603 C   0  0  0  0  0  0  0  0  0  0  0  0
  -28.0342  -13.2085   18.6840 C   0  0  0  0  0  0  0  0  0  0  0  0
  -30.4017  -12.4792   19.1955 C   0  0  0  0  0  0  0  0  0  0  0  0
  -28.6470  -12.1367   20.8918 C   0  0  0  0  0  0  0  0  0  0  0  0
  -28.1766  -14.6411   27.0712 C   0  0  1  0  0  0  0  0  0  0  0  0
  -28.4275  -13.6936   30.7417 C   0  0  1  0  0  0  0  0  0  0  0  0
  -27.7202  -13.1446   20.1908 C   0  0  2  0  0  0  0  0  0  0  0  0
  -31.8288  -14.5441   37.6490 C   0  0  0  0  0  0  0  0  0  0  0  0
  -32.3619  -16.0700   31.2257 C   0  0  0  0  0  0  0  0  0  0  0  0
  -33.3938  -15.9949   33.5055 C   0  0  0  0  0  0  0  0  0  0  0  0
  -31.3470  -17.3647   33.1093 C   0  0  0  0  0  0  0  0  0  0  0  0
  -29.2099  -11.9485   36.7107 C   0  0  0  0  0  0  0  0  0  0  0  0
  -33.2212   -7.3235   28.2237 C   0  0  0  0  0  0  0  0  0  0  0  0
  -32.1881   -6.3160   28.7328 C   0  0  0  0  0  0  0  0  0  0  0  0
  -32.2268  -11.7435   24.5103 C   0  0  0  0  0  0  0  0  0  0  0  0
  -31.2718  -10.6480   25.0031 C   0  0  0  0  0  0  0  0  0  0  0  0
  -31.5348  -13.0024   23.9921 C   0  0  0  0  0  0  0  0  0  0  0  0
  -30.8812   -6.9630   29.1764 C   0  0  0  0  0  0  0  0  0  1  0  0
  -31.1616  -14.8437   33.1548 C   0  0  1  0  0  0  0  0  0  0  0  0
  -30.7142  -13.9400   36.8090 C   0  0  2  0  0  0  0  0  0  0  0  0
  -32.0563  -16.0445   32.7366 C   0  0  0  0  0  0  0  0  0  0  0  0
  -32.4807   -8.5735   24.7780 N   0  0  0  0  0  0  0  0  0  0  0  0
  -25.8708  -11.5656   20.6021 N   0  0  0  0  0  0  0  0  0  0  0  0
  -31.9400   -9.5063   25.5802 N   0  0  0  0  0  0  0  0  0  0  0  0
  -26.2546  -12.8439   20.4449 N   0  0  0  0  0  0  0  0  0  0  0  0
  -29.5874  -13.6872   31.6355 N   0  0  0  0  0  0  0  0  0  0  0  0
  -30.0542  -12.4682   20.6186 N   0  0  0  0  0  0  0  0  0  0  0  0
  -25.4425  -15.0687   20.4056 N   0  0  0  0  0  0  0  0  0  0  0  0
  -21.7286  -12.6174   21.1766 N   0  0  0  0  0  0  0  0  0  0  0  0
  -27.9231  -14.2406   28.4386 N   0  0  0  0  0  0  0  0  0  0  0  0
  -30.8336  -14.8093   34.5760 N   0  0  0  0  0  0  0  0  0  0  0  0
  -30.6311  -12.7260   22.8977 N   0  0  0  0  0  0  0  0  0  0  0  0
  -30.3145  -12.6418   37.4221 N   0  3  0  0  0  0  0  0  0  0  0  0
  -22.5246  -14.7465   20.8733 O   0  0  0  0  0  0  0  0  0  0  0  0
  -30.1159  -14.3273   29.2176 O   0  0  0  0  0  0  0  0  0  0  0  0
  -29.0701  -15.7752   32.5349 O   0  0  0  0  0  0  0  0  0  0  0  0
  -31.7350  -12.7142   34.9944 O   0  0  0  0  0  0  0  0  0  0  0  0
  -32.2141  -13.0127   21.2640 O   0  0  0  0  0  0  0  0  0  0  0  0
  -21.4803   -7.0711   21.6371 O   0  0  0  0  0  0  0  0  0  0  0  0
  -31.1622   -7.8929   30.2217 O   0  0  0  0  0  0  0  0  0  1  0  0
  -23.4414   -3.2771   25.1248 F   0  0  0  0  0  0  0  0  0  0  0  0
  -23.9092   -5.8361   21.1703 F   0  0  0  0  0  0  0  0  0  0  0  0
  1  2  1  0  0  0  0
  1  5  2  0  0  0  0
  2  6  2  0  0  0  0
  3  8  2  0  0  0  0
  3 17  1  0  0  0  0
  4  9  1  0  0  0  0
  4 17  2  0  0  0  0
  5 19  1  0  0  0  0
  6 21  1  0  0  0  0
  7 10  2  0  0  0  0
  7 20  1  0  0  0  0
  8 24  1  0  0  0  0
  9 24  2  0  0  0  0
 10 25  1  0  0  0  0
 11 12  2  0  0  0  0
 11 26  1  0  0  0  0
 12 27  1  0  0  0  0
 13 22  1  0  0  0  0
 13 25  2  0  0  0  0
 14 27  2  0  0  0  0
 14 28  1  0  0  0  0
 15 23  1  0  0  0  0
 15 62  2  0  0  0  0
 16 23  2  0  0  0  0
 16 64  1  0  0  0  0
 17 29  1  0  0  0  0
 18 29  1  0  0  0  0
 18 30  2  0  0  0  0
 18 31  1  0  0  0  0
 19 21  2  0  0  0  0
 19 36  1  0  0  0  0
 20 22  2  0  0  0  0
 20 37  1  0  0  0  0
 21 45  1  0  0  0  0
 22 38  1  0  0  0  0
 23 53  1  0  0  0  0
 24 79  1  0  0  0  0
 25 80  1  0  0  0  0
 26 28  2  0  0  0  0
 26 79  1  0  0  0  0
 27 81  1  0  0  0  0
 28 82  1  0  0  0  0
 29 63  2  0  0  0  0
 30 65  1  0  0  0  0
 30 68  1  0  0  0  0
 31 69  1  0  0  0  0
 31 74  2  0  0  0  0
 32 46  1  0  0  0  0
 32 70  1  0  0  0  0
 32 75  2  0  0  0  0
 33 59  1  0  0  0  0
 33 66  1  0  0  0  0
 33 76  2  0  0  0  0
 34 60  1  0  0  0  0
 34 71  1  0  0  0  0
 34 77  2  0  0  0  0
 35 67  1  0  0  0  0
 35 72  1  0  0  0  0
 35 78  2  0  0  0  0
 36 39  1  0  0  0  0
 37 46  1  0  0  0  0
 38 66  1  0  0  0  0
 39 41  1  0  0  0  0
 40 42  1  0  0  0  0
 40 43  1  0  0  0  0
 41 45  1  0  0  0  0
 42 47  1  0  0  0  0
 43 67  1  0  0  0  0
 44 47  1  0  0  0  0
 44 67  1  0  0  0  0
 45 70  1  0  0  0  0
 46 66  1  0  0  0  0
 47 65  1  0  0  0  0
 48 60  1  0  0  0  0
 49 61  1  0  0  0  0
 50 61  1  0  0  0  0
 51 61  1  0  0  0  0
 52 73  1  0  0  0  0
 53 54  1  0  0  0  0
 54 58  1  0  0  0  0
 55 56  1  0  0  0  0
 55 57  1  0  0  0  0
 56 64  1  0  0  0  0
 57 72  1  0  0  0  0
 58 80  1  0  0  0  0
 59 61  1  0  0  0  0
 59 71  1  0  0  0  0
 60 73  1  0  0  0  0
 62 64  1  0  0  0  0
 63 65  1  0  0  0  0
M  CHG  1  73   1
M  ISO  4  35 100  58 101  72 100  80 101
M  END
> <Batch ID>
0040

> <Smiles>
CNC(C)C(=O)NC(C(=O)N1Cc2cc([101O:1][101CH2:1]CCc3cnn(CCC[100NH:0][100C:0](=O)N4CCCC(n5nc(-c6ccc(Oc7ccc(F)cc7F)cc6)c(C(N)=O)c5N)C4)c3)ccc2CC1C(=O)NC1CCCc2ccccc21)C(C)(C)C

> <Shape>
0.139

> <Color>
0.186

> <Negative vol penalty>
0.000

$$$$

  -OEChem-04052317073D

 84 92  0     1  0  0  0  0  0999 V2000
  -27.7379  -10.1732   21.1174 C   0  0  0  0  0  0  0  0  0  0  0  0
  -28.3775  -11.3534   20.7523 C   0  0  0  0  0  0  0  0  0  0  0  0
  -19.6581  -28.2364   23.6253 C   0  0  0  0  0  0  0  0  0  0  0  0
  -20.1410  -26.2351   22.3609 C   0  0  0  0  0  0  0  0  0  0  0  0
  -26.3451  -10.1157   21.1432 C   0  0  0  0  0  0  0  0  0  0  0  0
  -27.6246  -12.4766   20.4118 C   0  0  0  0  0  0  0  0  0  0  0  0
  -29.0448  -18.3319   21.5093 C   0  0  0  0  0  0  0  0  0  0  0  0
  -18.3036  -27.9038   23.6346 C   0  0  0  0  0  0  0  0  0  0  0  0
  -18.7864  -25.9024   22.3702 C   0  0  0  0  0  0  0  0  0  0  0  0
  -29.6136  -19.3244   20.7123 C   0  0  0  0  0  0  0  0  0  0  0  0
  -15.5030  -24.3412   22.3712 C   0  0  0  0  0  0  0  0  0  0  0  0
  -15.1607  -23.0205   22.6613 C   0  0  0  0  0  0  0  0  0  0  0  0
  -27.4106  -20.1486   20.1769 C   0  0  0  0  0  0  0  0  0  0  0  0
  -29.5329  -24.2182   18.2737 C   0  0  0  0  0  0  0  0  0  0  0  0
  -16.2277  -23.2183   24.8199 C   0  0  0  0  0  0  0  0  0  0  0  0
  -31.5644  -24.4766   19.4831 C   0  0  0  0  0  0  0  0  0  0  0  0
  -20.5769  -27.4021   22.9884 C   0  0  0  0  0  0  0  0  0  0  0  0
  -22.9484  -27.3795   23.9281 C   0  0  0  0  0  0  0  0  0  0  0  0
  -25.5748  -11.2416   20.8121 C   0  0  0  0  0  0  0  0  0  0  0  0
  -27.6519  -18.2334   21.6376 C   0  0  0  0  0  0  0  0  0  0  0  0
  -26.2202  -12.4337   20.4319 C   0  0  0  0  0  0  0  0  0  0  0  0
  -26.8267  -19.1555   20.9782 C   0  0  0  0  0  0  0  0  0  0  0  0
  -30.7617  -23.6983   18.6647 C   0  0  0  0  0  0  0  0  0  0  0  0
  -29.1497  -25.4827   18.7069 C   0  0  0  0  0  0  0  0  0  0  0  0
  -17.8677  -26.7368   23.0070 C   0  0  0  0  0  0  0  0  0  0  0  0
  -28.7964  -20.2311   20.0436 C   0  0  0  0  0  0  0  0  0  0  0  0
  -16.2077  -25.1005   23.3053 C   0  0  0  0  0  0  0  0  0  0  0  0
  -15.5230  -22.4591   23.8857 C   0  0  0  0  0  0  0  0  0  0  0  0
  -16.5700  -24.5390   24.5297 C   0  0  0  0  0  0  0  0  0  0  0  0
  -21.9762  -27.7455   22.9780 C   0  0  0  0  0  0  0  0  0  0  0  0
  -30.0245  -26.1810   19.5235 C   0  0  0  0  0  0  0  0  0  0  0  0
  -24.1101  -27.9496   23.4678 C   0  0  0  0  0  0  0  0  0  0  0  0
  -22.8134  -26.5944   25.1202 C   0  0  0  0  0  0  0  0  0  0  0  0
  -25.4843  -16.0213   20.9221 C   0  0  0  0  0  0  0  0  0  0  0  0
  -23.4730  -18.0555   22.4516 C   0  0  0  0  0  0  0  0  0  0  0  0
  -22.7964  -21.2423   23.4682 C   0  0  0  0  0  0  0  0  0  0  0  0
  -25.9592  -29.6048   18.0187 C   0  0  0  0  0  0  0  0  0  0  0  0
  -24.0717  -11.1173   20.8088 C   0  0  0  0  0  0  0  0  0  0  0  0
  -27.0550  -17.1736   22.5225 C   0  0  0  0  0  0  0  0  0  0  0  0
  -25.3263  -19.1052   21.0993 C   0  0  0  0  0  0  0  0  0  0  0  0
  -23.3494  -12.4621   20.7961 C   0  0  0  0  0  0  0  0  0  0  0  0
  -25.6988  -31.6672   20.9092 C   0  0  0  0  0  0  0  0  0  0  0  0
  -23.9678  -13.3904   19.7556 C   0  0  0  0  0  0  0  0  0  0  0  0
  -24.8030  -30.8630   21.8529 C   0  0  0  0  0  0  0  0  0  0  0  0
  -25.2727  -31.5052   19.4518 C   0  0  0  0  0  0  0  0  0  0  0  0
  -24.2727  -29.3045   19.9323 C   0  0  0  0  0  0  0  0  0  0  0  0
  -25.4383  -13.6806   20.0797 C   0  0  1  0  0  0  0  0  0  0  0  0
  -25.6066  -16.8479   22.1709 C   0  0  1  0  0  0  0  0  0  0  0  0
  -24.6977  -29.3918   21.4081 C   0  0  2  0  0  0  0  0  0  0  0  0
  -29.2141  -27.5276   21.4771 C   0  0  0  0  0  0  0  0  0  0  0  0
  -21.0586  -22.6014   24.6641 C   0  0  0  0  0  0  0  0  0  0  0  0
  -21.7049  -17.9774   19.9661 C   0  0  0  0  0  0  0  0  0  0  0  0
  -20.5391  -20.0234   20.8162 C   0  0  0  0  0  0  0  0  0  0  0  0
  -20.4604  -17.9069   22.1342 C   0  0  0  0  0  0  0  0  0  0  0  0
  -24.7009  -22.0182   25.5965 C   0  0  0  0  0  0  0  0  0  0  0  0
  -31.2071  -22.3287   18.2127 C   0  0  0  0  0  0  0  0  0  0  0  0
  -27.8352  -26.0465   18.2902 C   0  0  0  0  0  0  0  0  0  0  0  0
  -29.6654  -27.5434   20.0199 C   0  0  0  0  0  0  0  0  0  0  0  0
  -27.9135  -27.0661   17.1358 C   0  0  0  0  0  0  0  0  0  0  0  0
  -26.5585  -27.6031   16.6796 C   0  0  0  0  0  0  0  0  0  0  0  0
  -30.7729  -21.2303   19.1771 C   0  0  0  0  0  0  0  0  0  1  0  0
  -22.6152  -19.2257   22.0347 C   0  0  1  0  0  0  0  0  0  0  0  0
  -22.3419  -21.7978   24.8058 C   0  0  2  0  0  0  0  0  0  0  0  0
  -21.3581  -18.7834   21.2338 C   0  0  0  0  0  0  0  0  0  0  0  0
  -31.2263  -25.7089   19.9241 N   0  0  0  0  0  0  0  0  0  0  0  0
  -22.4767  -28.4905   21.9889 N   0  0  0  0  0  0  0  0  0  0  0  0
  -23.7760  -28.5974   22.3150 N   0  0  0  0  0  0  0  0  0  0  0  0
  -24.7901  -18.0469   21.9711 N   0  0  0  0  0  0  0  0  0  0  0  0
  -25.1937  -30.0870   19.0932 N   0  0  0  0  0  0  0  0  0  0  0  0
  -25.3745  -27.9550   23.9407 N   0  0  0  0  0  0  0  0  0  0  0  0
  -21.5488  -26.0849   25.4451 N   0  0  0  0  0  0  0  0  0  0  0  0
  -25.5383  -14.6582   21.1421 N   0  0  0  0  0  0  0  0  0  0  0  0
  -22.3159  -19.9676   23.2547 N   0  0  0  0  0  0  0  0  0  0  0  0
  -25.8304  -28.2477   17.7497 N   0  0  0  0  0  0  0  0  0  0  0  0
  -23.3913  -22.6857   25.3815 N   0  3  0  0  0  0  0  0  0  0  0  0
  -23.7822  -26.3655   25.8836 O   0  0  0  0  0  0  0  0  0  0  0  0
  -25.3493  -16.5790   19.8393 O   0  0  0  0  0  0  0  0  0  0  0  0
  -22.9942  -17.1849   23.1827 O   0  0  0  0  0  0  0  0  0  0  0  0
  -23.5036  -21.8772   22.6889 O   0  0  0  0  0  0  0  0  0  0  0  0
  -26.7063  -30.3289   17.3521 O   0  0  0  0  0  0  0  0  0  0  0  0
  -16.5460  -26.4118   23.0161 O   0  0  0  0  0  0  0  0  0  0  0  0
  -29.3489  -21.2005   19.2645 O   0  0  0  0  0  0  0  0  0  1  0  0
  -15.1930  -21.1913   24.1648 F   0  0  0  0  0  0  0  0  0  0  0  0
  -17.2459  -25.2638   25.4317 F   0  0  0  0  0  0  0  0  0  0  0  0
  1  2  1  0  0  0  0
  1  5  2  0  0  0  0
  2  6  2  0  0  0  0
  3  8  2  0  0  0  0
  3 17  1  0  0  0  0
  4  9  1  0  0  0  0
  4 17  2  0  0  0  0
  5 19  1  0  0  0  0
  6 21  1  0  0  0  0
  7 10  2  0  0  0  0
  7 20  1  0  0  0  0
  8 25  1  0  0  0  0
  9 25  2  0  0  0  0
 10 26  1  0  0  0  0
 11 12  2  0  0  0  0
 11 27  1  0  0  0  0
 12 28  1  0  0  0  0
 13 22  1  0  0  0  0
 13 26  2  0  0  0  0
 14 23  2  0  0  0  0
 14 24  1  0  0  0  0
 15 28  2  0  0  0  0
 15 29  1  0  0  0  0
 16 23  1  0  0  0  0
 16 65  2  0  0  0  0
 17 30  1  0  0  0  0
 18 30  1  0  0  0  0
 18 32  2  0  0  0  0
 18 33  1  0  0  0  0
 19 21  2  0  0  0  0
 19 38  1  0  0  0  0
 20 22  2  0  0  0  0
 20 39  1  0  0  0  0
 21 47  1  0  0  0  0
 22 40  1  0  0  0  0
 23 56  1  0  0  0  0
 24 31  2  0  0  0  0
 24 57  1  0  0  0  0
 25 81  1  0  0  0  0
 26 82  1  0  0  0  0
 27 29  2  0  0  0  0
 27 81  1  0  0  0  0
 28 83  1  0  0  0  0
 29 84  1  0  0  0  0
 30 66  2  0  0  0  0
 31 58  1  0  0  0  0
 31 65  1  0  0  0  0
 32 67  1  0  0  0  0
 32 70  1  0  0  0  0
 33 71  1  0  0  0  0
 33 76  2  0  0  0  0
 34 48  1  0  0  0  0
 34 72  1  0  0  0  0
 34 77  2  0  0  0  0
 35 62  1  0  0  0  0
 35 68  1  0  0  0  0
 35 78  2  0  0  0  0
 36 63  1  0  0  0  0
 36 73  1  0  0  0  0
 36 79  2  0  0  0  0
 37 69  1  0  0  0  0
 37 74  1  0  0  0  0
 37 80  2  0  0  0  0
 38 41  1  0  0  0  0
 39 48  1  0  0  0  0
 40 68  1  0  0  0  0
 41 43  1  0  0  0  0
 42 44  1  0  0  0  0
 42 45  1  0  0  0  0
 43 47  1  0  0  0  0
 44 49  1  0  0  0  0
 45 69  1  0  0  0  0
 46 49  1  0  0  0  0
 46 69  1  0  0  0  0
 47 72  1  0  0  0  0
 48 68  1  0  0  0  0
 49 67  1  0  0  0  0
 50 58  1  0  0  0  0
 51 63  1  0  0  0  0
 52 64  1  0  0  0  0
 53 64  1  0  0  0  0
 54 64  1  0  0  0  0
 55 75  1  0  0  0  0
 56 61  1  0  0  0  0
 57 59  1  0  0  0  0
 59 60  1  0  0  0  0
 60 74  1  0  0  0  0
 61 82  1  0  0  0  0
 62 64  1  0  0  0  0
 62 73  1  0  0  0  0
 63 75  1  0  0  0  0
 66 67  1  0  0  0  0
M  CHG  1  75   1
M  ISO  4  37 100  61 101  74 100  82 101
M  END
> <Batch ID>
0040

> <Smiles>
CCc1ncc(C[101CH2:1][101O:1]c2ccc3c(c2)CN(C(=O)C(NC(=O)C(C)NC)C(C)(C)C)C(C(=O)NC2CCCc4ccccc42)C3)cc1CCC[100NH:0][100C:0](=O)N1CCCC(n2nc(-c3ccc(Oc4ccc(F)cc4F)cc3)c(C(N)=O)c2N)C1

> <Shape>
0.221

> <Color>
0.066

> <Negative vol penalty>
0.000

$$$$

  -OEChem-04052317073D

 81 89  0     1  0  0  0  0  0999 V2000
  -28.0903  -18.2589   27.2693 C   0  0  0  0  0  0  0  0  0  0  0  0
  -28.6483  -19.2178   26.4299 C   0  0  0  0  0  0  0  0  0  0  0  0
  -24.4448  -14.1691   21.0129 C   0  0  0  0  0  0  0  0  0  0  0  0
  -26.3234  -12.6523   20.9288 C   0  0  0  0  0  0  0  0  0  0  0  0
  -26.7992  -17.7903   27.0292 C   0  0  0  0  0  0  0  0  0  0  0  0
  -27.9159  -19.7079   25.3492 C   0  0  0  0  0  0  0  0  0  0  0  0
  -28.0393  -25.4018   23.0976 C   0  0  0  0  0  0  0  0  0  0  0  0
  -23.5831  -13.1195   20.6945 C   0  0  0  0  0  0  0  0  0  0  0  0
  -25.4617  -11.6026   20.6105 C   0  0  0  0  0  0  0  0  0  0  0  0
  -28.7093  -25.9676   22.0137 C   0  0  0  0  0  0  0  0  0  0  0  0
  -23.3148   -9.5634   22.2392 C   0  0  0  0  0  0  0  0  0  0  0  0
  -23.4920   -8.3546   22.9123 C   0  0  0  0  0  0  0  0  0  0  0  0
  -26.7435  -25.6651   20.6486 C   0  0  0  0  0  0  0  0  0  0  0  0
  -23.8922   -7.2406   20.8061 C   0  0  0  0  0  0  0  0  0  0  0  0
  -31.1080  -22.0333   18.6392 C   0  0  0  0  0  0  0  0  0  0  0  0
  -25.8150  -13.9355   21.1300 C   0  0  0  0  0  0  0  0  0  0  0  0
  -27.1000  -15.4361   22.7439 C   0  0  0  0  0  0  0  0  0  0  0  0
  -26.0471  -18.2820   25.9507 C   0  0  0  0  0  0  0  0  0  0  0  0
  -26.7178  -24.9528   22.9619 C   0  0  0  0  0  0  0  0  0  0  0  0
  -26.6141  -19.2445   25.0937 C   0  0  0  0  0  0  0  0  0  0  0  0
  -26.0582  -25.0964   21.7330 C   0  0  0  0  0  0  0  0  0  0  0  0
  -24.0915  -11.8363   20.4934 C   0  0  0  0  0  0  0  0  0  0  0  0
  -28.0624  -26.0967   20.7882 C   0  0  0  0  0  0  0  0  0  0  0  0
  -23.4263   -9.6108   20.8496 C   0  0  0  0  0  0  0  0  0  0  0  0
  -23.7807   -7.1932   22.1957 C   0  0  0  0  0  0  0  0  0  0  0  0
  -23.7150   -8.4494   20.1331 C   0  0  0  0  0  0  0  0  0  0  0  0
  -26.7058  -15.0194   21.4583 C   0  0  0  0  0  0  0  0  0  0  0  0
  -29.7921  -22.1739   19.1191 C   0  0  0  0  0  0  0  0  0  0  0  0
  -31.3418  -23.1889   17.9346 C   0  0  0  0  0  0  0  0  0  0  0  0
  -27.9456  -16.4946   22.5175 C   0  0  0  0  0  0  0  0  0  0  0  0
  -26.7346  -14.9132   24.0279 C   0  0  0  0  0  0  0  0  0  0  0  0
  -29.0338  -21.2205   19.9384 C   0  0  0  0  0  0  0  0  0  0  0  0
  -25.2663  -22.1378   23.2323 C   0  0  0  0  0  0  0  0  0  0  0  0
  -22.5863  -23.9189   22.8228 C   0  0  0  0  0  0  0  0  0  0  0  0
  -21.1637  -26.7786   21.6206 C   0  0  0  0  0  0  0  0  0  0  0  0
  -24.6733  -17.7107   25.7034 C   0  0  0  0  0  0  0  0  0  0  0  0
  -26.0001  -24.3692   24.1480 C   0  0  0  0  0  0  0  0  0  0  0  0
  -24.6330  -24.6486   21.5408 C   0  0  0  0  0  0  0  0  0  0  0  0
  -23.8237  -18.5553   24.7574 C   0  0  0  0  0  0  0  0  0  0  0  0
  -30.0535  -18.1787   18.2428 C   0  0  0  0  0  0  0  0  0  0  0  0
  -24.6340  -18.9608   23.5303 C   0  0  0  0  0  0  0  0  0  0  0  0
  -29.2833  -17.1187   19.0311 C   0  0  0  0  0  0  0  0  0  0  0  0
  -29.2448  -19.4650   18.1041 C   0  0  0  0  0  0  0  0  0  0  0  0
  -28.0170  -18.9817   20.1950 C   0  0  0  0  0  0  0  0  0  0  0  0
  -25.8420  -19.8186   23.9257 C   0  0  1  0  0  0  0  0  0  0  0  0
  -24.8271  -23.4758   23.7564 C   0  0  1  0  0  0  0  0  0  0  0  0
  -28.8016  -17.6720   20.3850 C   0  0  1  0  0  0  0  0  0  0  0  0
  -33.7218  -23.7200   14.9415 C   0  0  0  0  0  0  0  0  0  0  0  0
  -18.9471  -27.9342   21.4004 C   0  0  0  0  0  0  0  0  0  0  0  0
  -21.8326  -22.0340   20.5448 C   0  0  0  0  0  0  0  0  0  0  0  0
  -20.1726  -23.7421   19.7736 C   0  0  0  0  0  0  0  0  0  0  0  0
  -19.9283  -22.6956   22.0248 C   0  0  0  0  0  0  0  0  0  0  0  0
  -22.0731  -29.0825   23.2404 C   0  0  0  0  0  0  0  0  0  0  0  0
  -32.5310  -23.6478   17.1935 C   0  0  0  0  0  0  0  0  0  0  0  0
  -32.5137  -23.2133   15.7133 C   0  0  0  0  0  0  0  0  0  0  0  0
  -30.5635  -26.4337   18.2149 C   0  0  0  0  0  0  0  0  0  0  0  0
  -29.9360  -25.2803   17.4289 C   0  0  0  0  0  0  0  0  0  0  0  0
  -30.1298  -26.4757   19.6756 C   0  0  0  0  0  0  0  0  0  1  0  0
  -21.7772  -24.3748   21.6327 C   0  0  1  0  0  0  0  0  0  0  0  0
  -20.1965  -27.7644   22.2507 C   0  0  2  0  0  0  0  0  0  0  0  0
  -20.9552  -23.2184   20.9967 C   0  0  0  0  0  0  0  0  0  0  0  0
  -27.2556  -15.7534   20.4871 N   0  0  0  0  0  0  0  0  0  0  0  0
  -29.2293  -23.3277   18.7506 N   0  0  0  0  0  0  0  0  0  0  0  0
  -30.1963  -23.9228   18.0316 N   0  0  0  0  0  0  0  0  0  0  0  0
  -28.0038  -16.6420   21.1628 N   0  0  0  0  0  0  0  0  0  0  0  0
  -28.8025  -19.9440   19.4198 N   0  0  0  0  0  0  0  0  0  0  0  0
  -23.9760  -24.0786   22.7286 N   0  0  0  0  0  0  0  0  0  0  0  0
  -28.6374  -17.3043   23.3470 N   0  0  0  0  0  0  0  0  0  0  0  0
  -25.8556  -13.8228   24.0797 N   0  0  0  0  0  0  0  0  0  0  0  0
  -25.4268  -21.1754   24.2108 N   0  0  0  0  0  0  0  0  0  0  0  0
  -20.9693  -25.4984   22.0946 N   0  0  0  0  0  0  0  0  0  0  0  0
  -20.8438  -29.0977   22.4064 N   0  3  0  0  0  0  0  0  0  0  0  0
  -27.1617  -15.4088   25.0981 O   0  0  0  0  0  0  0  0  0  0  0  0
  -28.6648  -21.6251   21.0399 O   0  0  0  0  0  0  0  0  0  0  0  0
  -25.4448  -21.9893   22.0291 O   0  0  0  0  0  0  0  0  0  0  0  0
  -22.0060  -23.4453   23.8029 O   0  0  0  0  0  0  0  0  0  0  0  0
  -22.0050  -27.1103   20.7882 O   0  0  0  0  0  0  0  0  0  0  0  0
  -23.2509  -10.8118   20.1829 O   0  0  0  0  0  0  0  0  0  0  0  0
  -28.7142  -26.6479   19.7284 O   0  0  0  0  0  0  0  0  0  1  0  0
  -23.9523   -6.0327   22.8423 F   0  0  0  0  0  0  0  0  0  0  0  0
  -23.8245   -8.4890   18.7980 F   0  0  0  0  0  0  0  0  0  0  0  0
  1  2  1  0  0  0  0
  1  5  2  0  0  0  0
  2  6  2  0  0  0  0
  3  8  2  0  0  0  0
  3 16  1  0  0  0  0
  4  9  1  0  0  0  0
  4 16  2  0  0  0  0
  5 18  1  0  0  0  0
  6 20  1  0  0  0  0
  7 10  2  0  0  0  0
  7 19  1  0  0  0  0
  8 22  1  0  0  0  0
  9 22  2  0  0  0  0
 10 23  1  0  0  0  0
 11 12  2  0  0  0  0
 11 24  1  0  0  0  0
 12 25  1  0  0  0  0
 13 21  1  0  0  0  0
 13 23  2  0  0  0  0
 14 25  2  0  0  0  0
 14 26  1  0  0  0  0
 15 28  1  0  0  0  0
 15 29  2  0  0  0  0
 16 27  1  0  0  0  0
 17 27  1  0  0  0  0
 17 30  2  0  0  0  0
 17 31  1  0  0  0  0
 18 20  2  0  0  0  0
 18 36  1  0  0  0  0
 19 21  2  0  0  0  0
 19 37  1  0  0  0  0
 20 45  1  0  0  0  0
 21 38  1  0  0  0  0
 22 78  1  0  0  0  0
 23 79  1  0  0  0  0
 24 26  2  0  0  0  0
 24 78  1  0  0  0  0
 25 80  1  0  0  0  0
 26 81  1  0  0  0  0
 27 62  2  0  0  0  0
 28 32  1  0  0  0  0
 28 63  2  0  0  0  0
 29 54  1  0  0  0  0
 29 64  1  0  0  0  0
 30 65  1  0  0  0  0
 30 68  1  0  0  0  0
 31 69  1  0  0  0  0
 31 73  2  0  0  0  0
 32 66  1  0  0  0  0
 32 74  2  0  0  0  0
 33 46  1  0  0  0  0
 33 70  1  0  0  0  0
 33 75  2  0  0  0  0
 34 59  1  0  0  0  0
 34 67  1  0  0  0  0
 34 76  2  0  0  0  0
 35 60  1  0  0  0  0
 35 71  1  0  0  0  0
 35 77  2  0  0  0  0
 36 39  1  0  0  0  0
 37 46  1  0  0  0  0
 38 67  1  0  0  0  0
 39 41  1  0  0  0  0
 40 42  1  0  0  0  0
 40 43  1  0  0  0  0
 41 45  1  0  0  0  0
 42 47  1  0  0  0  0
 43 66  1  0  0  0  0
 44 47  1  0  0  0  0
 44 66  1  0  0  0  0
 45 70  1  0  0  0  0
 46 67  1  0  0  0  0
 47 65  1  0  0  0  0
 48 55  1  0  0  0  0
 49 60  1  0  0  0  0
 50 61  1  0  0  0  0
 51 61  1  0  0  0  0
 52 61  1  0  0  0  0
 53 72  1  0  0  0  0
 54 55  1  0  0  0  0
 56 57  1  0  0  0  0
 56 58  1  0  0  0  0
 57 64  1  0  0  0  0
 58 79  1  0  0  0  0
 59 61  1  0  0  0  0
 59 71  1  0  0  0  0
 60 72  1  0  0  0  0
 62 65  1  0  0  0  0
 63 64  1  0  0  0  0
M  CHG  1  72   1
M  ISO  4  28 100  32 100  58 101  79 101
M  END
> <Batch ID>
0040

> <Smiles>
CCCc1c[100c:0]([100C:0](=O)N2CCCC(n3nc(-c4ccc(Oc5ccc(F)cc5F)cc4)c(C(N)=O)c3N)C2)nn1CC[101CH2:1][101O:1]c1ccc2c(c1)CN(C(=O)C(NC(=O)C(C)NC)C(C)(C)C)C(C(=O)NC1CCCc3ccccc31)C2

> <Shape>
0.205

> <Color>
0.071

> <Negative vol penalty>
0.000

$$$$

  -OEChem-04052317073D

 84 92  0     1  0  0  0  0  0999 V2000
  -27.7107   -7.8906   27.8729 C   0  0  0  0  0  0  0  0  0  0  0  0
  -28.3059   -9.0950   27.5117 C   0  0  0  0  0  0  0  0  0  0  0  0
  -22.9971   -9.8980   19.9867 C   0  0  0  0  0  0  0  0  0  0  0  0
  -23.7574   -9.9390   22.2795 C   0  0  0  0  0  0  0  0  0  0  0  0
  -28.4150   -6.9715   28.6495 C   0  0  0  0  0  0  0  0  0  0  0  0
  -29.6056   -9.3816   27.9279 C   0  0  0  0  0  0  0  0  0  0  0  0
  -32.4566  -11.3044   24.2105 C   0  0  0  0  0  0  0  0  0  0  0  0
  -22.2383   -8.7596   20.2586 C   0  0  0  0  0  0  0  0  0  0  0  0
  -22.9986   -8.8006   22.5515 C   0  0  0  0  0  0  0  0  0  0  0  0
  -32.2689  -12.6493   23.8948 C   0  0  0  0  0  0  0  0  0  0  0  0
  -21.5455   -5.6964   23.7607 C   0  0  0  0  0  0  0  0  0  0  0  0
  -22.1462   -4.6785   24.5013 C   0  0  0  0  0  0  0  0  0  0  0  0
  -34.2242  -13.2194   25.1874 C   0  0  0  0  0  0  0  0  0  0  0  0
  -30.6974  -16.3725   26.3693 C   0  0  0  0  0  0  0  0  0  0  0  0
  -23.8474   -4.4458   22.8017 C   0  0  0  0  0  0  0  0  0  0  0  0
  -23.7567  -10.4877   20.9971 C   0  0  0  0  0  0  0  0  0  0  0  0
  -24.1314  -13.0054   20.8288 C   0  0  0  0  0  0  0  0  0  0  0  0
  -29.7274   -7.2428   29.0673 C   0  0  0  0  0  0  0  0  0  0  0  0
  -33.5250  -10.9074   25.0273 C   0  0  0  0  0  0  0  0  0  0  0  0
  -30.3276   -8.4658   28.7120 C   0  0  0  0  0  0  0  0  0  0  0  0
  -34.4248  -11.8685   25.5098 C   0  0  0  0  0  0  0  0  0  0  0  0
  -29.3424  -16.1568   26.5941 C   0  0  0  0  0  0  0  0  0  0  0  0
  -31.1177  -16.9193   25.1619 C   0  0  0  0  0  0  0  0  0  0  0  0
  -22.2390   -8.2110   21.5410 C   0  0  0  0  0  0  0  0  0  0  0  0
  -33.1511  -13.6074   24.3856 C   0  0  0  0  0  0  0  0  0  0  0  0
  -22.0956   -6.0890   22.5405 C   0  0  0  0  0  0  0  0  0  0  0  0
  -23.2972   -4.0532   24.0218 C   0  0  0  0  0  0  0  0  0  0  0  0
  -23.2466   -5.4637   22.0610 C   0  0  0  0  0  0  0  0  0  0  0  0
  -24.5412  -11.6633   20.7167 C   0  0  0  0  0  0  0  0  0  0  0  0
  -28.4549  -16.5023   25.5877 C   0  0  0  0  0  0  0  0  0  0  0  0
  -30.1508  -17.2304   24.2195 C   0  0  0  0  0  0  0  0  0  0  0  0
  -25.2332  -13.7335   20.4514 C   0  0  0  0  0  0  0  0  0  0  0  0
  -22.8678  -13.5456   21.2377 C   0  0  0  0  0  0  0  0  0  0  0  0
  -33.7759   -9.4815   27.8571 C   0  0  0  0  0  0  0  0  0  0  0  0
  -30.7498  -14.6195   20.7188 C   0  0  0  0  0  0  0  0  0  0  0  0
  -36.9417   -9.5017   27.1505 C   0  0  0  0  0  0  0  0  0  0  0  0
  -39.5116  -10.9137   25.4043 C   0  0  0  0  0  0  0  0  0  0  0  0
  -30.4318   -6.2390   29.9453 C   0  0  0  0  0  0  0  0  0  0  0  0
  -33.7292   -9.4496   25.3366 C   0  0  0  0  0  0  0  0  0  0  0  0
  -35.5995  -11.4919   26.3740 C   0  0  0  0  0  0  0  0  0  0  0  0
  -31.9403   -6.4572   30.0309 C   0  0  0  0  0  0  0  0  0  0  0  0
  -29.5547  -12.2910   18.2714 C   0  0  0  0  0  0  0  0  0  0  0  0
  -32.2535   -7.9296   30.2770 C   0  0  0  0  0  0  0  0  0  0  0  0
  -28.1204  -12.0074   18.7160 C   0  0  0  0  0  0  0  0  0  0  0  0
  -30.4779  -12.5046   19.4668 C   0  0  0  0  0  0  0  0  0  0  0  0
  -28.5846  -13.2907   20.8520 C   0  0  0  0  0  0  0  0  0  0  0  0
  -31.7446   -8.8022   29.1233 C   0  0  1  0  0  0  0  0  0  0  0  0
  -34.5535   -9.2164   26.5990 C   0  0  1  0  0  0  0  0  0  0  0  0
  -27.6126  -13.0993   19.6743 C   0  0  2  0  0  0  0  0  0  0  0  0
  -26.9876  -16.2924   25.7724 C   0  0  0  0  0  0  0  0  0  0  0  0
  -29.1213  -14.0643   27.9576 C   0  0  0  0  0  0  0  0  0  0  0  0
  -41.9915  -10.7390   25.0628 C   0  0  0  0  0  0  0  0  0  0  0  0
  -37.4057  -10.8653   29.8404 C   0  0  0  0  0  0  0  0  0  0  0  0
  -39.6892  -11.5096   29.0412 C   0  0  0  0  0  0  0  0  0  0  0  0
  -39.0809   -9.1005   29.2627 C   0  0  0  0  0  0  0  0  0  0  0  0
  -39.1896  -10.3097   22.5250 C   0  0  0  0  0  0  0  0  0  0  0  0
  -28.8857  -15.5715   27.8856 C   0  0  0  0  0  0  0  0  0  0  0  0
  -32.5873  -17.1557   24.9113 C   0  0  0  0  0  0  0  0  0  0  0  0
  -30.5448  -17.8213   22.9054 C   0  0  0  0  0  0  0  0  0  0  0  0
  -30.1349  -15.6396   21.6437 C   0  0  0  0  0  0  0  0  0  0  0  0
  -31.1182  -16.7664   21.9449 C   0  0  0  0  0  0  0  0  0  0  0  0
  -33.4104  -15.8787   25.0413 C   0  0  0  0  0  0  0  0  0  1  0  0
  -38.0826  -10.4630   27.3815 C   0  0  1  0  0  0  0  0  0  0  0  0
  -40.6215  -10.2982   24.5715 C   0  0  2  0  0  0  0  0  0  0  0  0
  -38.5414  -10.4923   28.8668 C   0  0  0  0  0  0  0  0  0  0  0  0
  -25.8046  -11.5430   20.3004 N   0  0  0  0  0  0  0  0  0  0  0  0
  -28.8255  -17.0354   24.4020 N   0  0  0  0  0  0  0  0  0  0  0  0
  -26.1982  -12.8188   20.1476 N   0  0  0  0  0  0  0  0  0  0  0  0
  -35.7529  -10.0546   26.6537 N   0  0  0  0  0  0  0  0  0  0  0  0
  -29.9495  -13.5333   20.3644 N   0  0  0  0  0  0  0  0  0  0  0  0
  -25.4609  -15.0604   20.3529 N   0  0  0  0  0  0  0  0  0  0  0  0
  -21.8442  -12.6563   21.5922 N   0  0  0  0  0  0  0  0  0  0  0  0
  -32.6372   -8.7097   27.9879 N   0  0  0  0  0  0  0  0  0  0  0  0
  -39.1310  -10.0862   26.4395 N   0  0  0  0  0  0  0  0  0  0  0  0
  -40.4822  -10.7014   23.1436 N   0  3  0  0  0  0  0  0  0  0  0  0
  -22.6476  -14.7801   21.2715 O   0  0  0  0  0  0  0  0  0  0  0  0
  -34.1800  -10.3229   28.6511 O   0  0  0  0  0  0  0  0  0  0  0  0
  -31.9060  -14.7864   20.3218 O   0  0  0  0  0  0  0  0  0  0  0  0
  -37.1019   -8.3033   27.3949 O   0  0  0  0  0  0  0  0  0  0  0  0
  -39.0328  -12.0196   25.1630 O   0  0  0  0  0  0  0  0  0  0  0  0
  -21.4985   -7.1003   21.8067 O   0  0  0  0  0  0  0  0  0  0  0  0
  -32.9698  -14.9209   24.0796 O   0  0  0  0  0  0  0  0  0  1  0  0
  -23.8748   -3.0768   24.7339 F   0  0  0  0  0  0  0  0  0  0  0  0
  -23.7805   -5.8374   20.8900 F   0  0  0  0  0  0  0  0  0  0  0  0
  1  2  1  0  0  0  0
  1  5  2  0  0  0  0
  2  6  2  0  0  0  0
  3  8  2  0  0  0  0
  3 16  1  0  0  0  0
  4  9  1  0  0  0  0
  4 16  2  0  0  0  0
  5 18  1  0  0  0  0
  6 20  1  0  0  0  0
  7 10  2  0  0  0  0
  7 19  1  0  0  0  0
  8 24  1  0  0  0  0
  9 24  2  0  0  0  0
 10 25  1  0  0  0  0
 11 12  2  0  0  0  0
 11 26  1  0  0  0  0
 12 27  1  0  0  0  0
 13 21  1  0  0  0  0
 13 25  2  0  0  0  0
 14 22  1  0  0  0  0
 14 23  2  0  0  0  0
 15 27  2  0  0  0  0
 15 28  1  0  0  0  0
 16 29  1  0  0  0  0
 17 29  1  0  0  0  0
 17 32  2  0  0  0  0
 17 33  1  0  0  0  0
 18 20  2  0  0  0  0
 18 38  1  0  0  0  0
 19 21  2  0  0  0  0
 19 39  1  0  0  0  0
 20 47  1  0  0  0  0
 21 40  1  0  0  0  0
 22 30  2  0  0  0  0
 22 57  1  0  0  0  0
 23 31  1  0  0  0  0
 23 58  1  0  0  0  0
 24 81  1  0  0  0  0
 25 82  1  0  0  0  0
 26 28  2  0  0  0  0
 26 81  1  0  0  0  0
 27 83  1  0  0  0  0
 28 84  1  0  0  0  0
 29 66  2  0  0  0  0
 30 50  1  0  0  0  0
 30 67  1  0  0  0  0
 31 59  1  0  0  0  0
 31 67  2  0  0  0  0
 32 68  1  0  0  0  0
 32 71  1  0  0  0  0
 33 72  1  0  0  0  0
 33 76  2  0  0  0  0
 34 48  1  0  0  0  0
 34 73  1  0  0  0  0
 34 77  2  0  0  0  0
 35 60  1  0  0  0  0
 35 70  1  0  0  0  0
 35 78  2  0  0  0  0
 36 63  1  0  0  0  0
 36 69  1  0  0  0  0
 36 79  2  0  0  0  0
 37 64  1  0  0  0  0
 37 74  1  0  0  0  0
 37 80  2  0  0  0  0
 38 41  1  0  0  0  0
 39 48  1  0  0  0  0
 40 69  1  0  0  0  0
 41 43  1  0  0  0  0
 42 44  1  0  0  0  0
 42 45  1  0  0  0  0
 43 47  1  0  0  0  0
 44 49  1  0  0  0  0
 45 70  1  0  0  0  0
 46 49  1  0  0  0  0
 46 70  1  0  0  0  0
 47 73  1  0  0  0  0
 48 69  1  0  0  0  0
 49 68  1  0  0  0  0
 51 57  1  0  0  0  0
 52 64  1  0  0  0  0
 53 65  1  0  0  0  0
 54 65  1  0  0  0  0
 55 65  1  0  0  0  0
 56 75  1  0  0  0  0
 58 62  1  0  0  0  0
 59 61  1  0  0  0  0
 60 61  1  0  0  0  0
 62 82  1  0  0  0  0
 63 65  1  0  0  0  0
 63 74  1  0  0  0  0
 64 75  1  0  0  0  0
 66 68  1  0  0  0  0
M  CHG  1  75   1
M  ISO  4  35 100  60 100  62 101  82 101
M  END
> <Batch ID>
0040

> <Smiles>
CCc1cc(C[101CH2:1][101O:1]c2ccc3c(c2)CN(C(=O)C(NC(=O)C(C)NC)C(C)(C)C)C(C(=O)NC2CCCc4ccccc42)C3)c(CC[100CH2:0][100C:0](=O)N2CCCC(n3nc(-c4ccc(Oc5ccc(F)cc5F)cc4)c(C(N)=O)c3N)C2)nc1C

> <Shape>
0.165

> <Color>
0.200

> <Negative vol penalty>
0.000

$$$$

  -OEChem-04052317073D

 88 96  0     1  0  0  0  0  0999 V2000
  -34.0572  -19.7285   19.1167 C   0  0  0  0  0  0  0  0  0  0  0  0
  -33.0188  -20.6520   19.1831 C   0  0  0  0  0  0  0  0  0  0  0  0
  -23.0188   -9.9174   19.8879 C   0  0  0  0  0  0  0  0  0  0  0  0
  -23.8539   -9.7577   22.1493 C   0  0  0  0  0  0  0  0  0  0  0  0
  -34.8576  -19.4998   20.2352 C   0  0  0  0  0  0  0  0  0  0  0  0
  -32.7795  -21.3464   20.3684 C   0  0  0  0  0  0  0  0  0  0  0  0
  -31.9638  -26.2843   19.5962 C   0  0  0  0  0  0  0  0  0  0  0  0
  -22.2681   -8.7581   20.0832 C   0  0  0  0  0  0  0  0  0  0  0  0
  -23.1032   -8.5984   22.3447 C   0  0  0  0  0  0  0  0  0  0  0  0
  -30.7029  -26.6565   19.1321 C   0  0  0  0  0  0  0  0  0  0  0  0
  -19.3589   -7.8963   21.5754 C   0  0  0  0  0  0  0  0  0  0  0  0
  -18.0362   -7.8983   21.1327 C   0  0  0  0  0  0  0  0  0  0  0  0
  -30.0684  -27.2802   21.3744 C   0  0  0  0  0  0  0  0  0  0  0  0
  -26.9352  -22.3524   19.9750 C   0  0  0  0  0  0  0  0  0  0  0  0
  -18.5257   -6.0449   19.6622 C   0  0  0  0  0  0  0  0  0  0  0  0
  -26.5985  -23.1885   17.7741 C   0  0  0  0  0  0  0  0  0  0  0  0
  -23.8118  -10.4172   20.9209 C   0  0  0  0  0  0  0  0  0  0  0  0
  -24.1834  -12.9406   20.9627 C   0  0  0  0  0  0  0  0  0  0  0  0
  -34.6342  -20.1988   21.4318 C   0  0  0  0  0  0  0  0  0  0  0  0
  -32.2834  -26.3973   20.9569 C   0  0  0  0  0  0  0  0  0  0  0  0
  -33.5769  -21.1258   21.5043 C   0  0  0  0  0  0  0  0  0  0  0  0
  -31.3349  -26.9112   21.8528 C   0  0  0  0  0  0  0  0  0  0  0  0
  -27.1043  -21.0827   19.4340 C   0  0  0  0  0  0  0  0  0  0  0  0
  -26.6772  -23.4307   19.1360 C   0  0  0  0  0  0  0  0  0  0  0  0
  -22.3103   -8.0987   21.3116 C   0  0  0  0  0  0  0  0  0  0  0  0
  -29.7540  -27.1517   20.0217 C   0  0  0  0  0  0  0  0  0  0  0  0
  -20.2651   -6.9687   21.0615 C   0  0  0  0  0  0  0  0  0  0  0  0
  -17.6196   -6.9725   20.1761 C   0  0  0  0  0  0  0  0  0  0  0  0
  -19.8485   -6.0430   20.1049 C   0  0  0  0  0  0  0  0  0  0  0  0
  -24.5879  -11.6143   20.7195 C   0  0  0  0  0  0  0  0  0  0  0  0
  -27.0063  -20.9455   18.0587 C   0  0  0  0  0  0  0  0  0  0  0  0
  -25.2730  -13.7011   20.6149 C   0  0  0  0  0  0  0  0  0  0  0  0
  -22.9345  -13.4405   21.4588 C   0  0  0  0  0  0  0  0  0  0  0  0
  -33.1034  -24.3500   23.2460 C   0  0  0  0  0  0  0  0  0  0  0  0
  -33.5399  -27.0600   24.9743 C   0  0  0  0  0  0  0  0  0  0  0  0
  -32.7816  -30.3552   25.4366 C   0  0  0  0  0  0  0  0  0  0  0  0
  -30.7732  -14.6434   20.6870 C   0  0  0  0  0  0  0  0  0  0  0  0
  -35.4959  -19.8832   22.6287 C   0  0  0  0  0  0  0  0  0  0  0  0
  -33.6570  -26.0167   21.4373 C   0  0  0  0  0  0  0  0  0  0  0  0
  -31.6351  -27.0712   23.3200 C   0  0  0  0  0  0  0  0  0  0  0  0
  -35.4126  -20.9336   23.7332 C   0  0  0  0  0  0  0  0  0  0  0  0
  -29.5255  -12.4420   18.1823 C   0  0  0  0  0  0  0  0  0  0  0  0
  -33.9589  -21.3054   24.0078 C   0  0  0  0  0  0  0  0  0  0  0  0
  -28.0993  -12.1352   18.6425 C   0  0  0  0  0  0  0  0  0  0  0  0
  -30.4846  -12.5692   19.3638 C   0  0  0  0  0  0  0  0  0  0  0  0
  -28.6397  -13.2242   20.8608 C   0  0  0  0  0  0  0  0  0  0  0  0
  -33.3016  -21.9169   22.7647 C   0  0  1  0  0  0  0  0  0  0  0  0
  -33.7002  -25.6915   22.9271 C   0  0  1  0  0  0  0  0  0  0  0  0
  -27.6249  -13.1421   19.7076 C   0  0  2  0  0  0  0  0  0  0  0  0
  -26.3327  -19.4499   16.1624 C   0  0  0  0  0  0  0  0  0  0  0  0
  -33.2646  -32.2934   26.9556 C   0  0  0  0  0  0  0  0  0  0  0  0
  -31.6957  -25.8598   27.0882 C   0  0  0  0  0  0  0  0  0  0  0  0
  -31.4585  -28.1466   28.0795 C   0  0  0  0  0  0  0  0  0  0  0  0
  -33.6969  -27.0483   28.0031 C   0  0  0  0  0  0  0  0  0  0  0  0
  -33.9402  -31.9476   23.2273 C   0  0  0  0  0  0  0  0  0  0  0  0
  -27.3811  -19.9234   20.3274 C   0  0  0  0  0  0  0  0  0  0  0  0
  -27.1789  -19.6052   17.4222 C   0  0  0  0  0  0  0  0  0  0  0  0
  -28.8616  -19.5115   20.3070 C   0  0  0  0  0  0  0  0  0  0  0  0
  -29.1269  -18.2953   21.1968 C   0  0  0  0  0  0  0  0  0  0  0  0
  -30.6119  -17.9209   21.1973 C   0  0  0  0  0  0  0  0  0  0  0  0
  -26.1573  -27.1244   19.6874 C   0  0  0  0  0  0  0  0  0  0  0  0
  -30.9088  -16.7027   22.0655 C   0  0  0  0  0  0  0  0  0  0  0  0
  -26.2338  -25.8669   18.8299 C   0  0  0  0  0  0  0  0  0  0  0  0
  -27.4321  -27.3808   20.4825 C   0  0  0  0  0  0  0  0  0  1  0  0
  -32.6674  -27.9139   25.8624 C   0  0  1  0  0  0  0  0  0  0  0  0
  -33.6629  -31.5670   25.6802 C   0  0  2  0  0  0  0  0  0  0  0  0
  -32.3730  -27.2374   27.2310 C   0  0  0  0  0  0  0  0  0  0  0  0
  -26.7569  -21.9693   17.2118 N   0  0  0  0  0  0  0  0  0  0  0  0
  -25.8369  -11.5334   20.2531 N   0  0  0  0  0  0  0  0  0  0  0  0
  -26.2266  -12.8185   20.2004 N   0  0  0  0  0  0  0  0  0  0  0  0
  -32.9900  -26.6794   23.7421 N   0  0  0  0  0  0  0  0  0  0  0  0
  -29.9775  -13.5403   20.3363 N   0  0  0  0  0  0  0  0  0  0  0  0
  -25.4988  -15.0320   20.6263 N   0  0  0  0  0  0  0  0  0  0  0  0
  -21.9221  -12.5216   21.7670 N   0  0  0  0  0  0  0  0  0  0  0  0
  -26.5036  -24.7079   19.6460 N   0  0  0  0  0  0  0  0  0  0  0  0
  -33.7160  -23.2936   22.5993 N   0  0  0  0  0  0  0  0  0  0  0  0
  -33.3332  -29.2078   25.9663 N   0  0  0  0  0  0  0  0  0  0  0  0
  -30.2147  -15.5186   21.6106 N   0  0  0  0  0  0  0  0  0  0  0  0
  -33.5555  -32.5229   24.5419 N   0  3  0  0  0  0  0  0  0  0  0  0
  -22.7169  -14.6668   21.6083 O   0  0  0  0  0  0  0  0  0  0  0  0
  -32.1580  -24.2784   24.0224 O   0  0  0  0  0  0  0  0  0  0  0  0
  -34.6705  -26.7485   25.3568 O   0  0  0  0  0  0  0  0  0  0  0  0
  -31.7094  -30.4206   24.8395 O   0  0  0  0  0  0  0  0  0  0  0  0
  -31.8958  -14.8370   20.2083 O   0  0  0  0  0  0  0  0  0  0  0  0
  -21.5777   -6.9676   21.5027 O   0  0  0  0  0  0  0  0  0  0  0  0
  -28.5222  -27.5151   19.5715 O   0  0  0  0  0  0  0  0  0  1  0  0
  -16.3490   -6.9735   19.7521 F   0  0  0  0  0  0  0  0  0  0  0  0
  -20.7142   -5.1486   19.6084 F   0  0  0  0  0  0  0  0  0  0  0  0
  1  2  1  0  0  0  0
  1  5  2  0  0  0  0
  2  6  2  0  0  0  0
  3  8  2  0  0  0  0
  3 17  1  0  0  0  0
  4  9  1  0  0  0  0
  4 17  2  0  0  0  0
  5 19  1  0  0  0  0
  6 21  1  0  0  0  0
  7 10  2  0  0  0  0
  7 20  1  0  0  0  0
  8 25  1  0  0  0  0
  9 25  2  0  0  0  0
 10 26  1  0  0  0  0
 11 12  2  0  0  0  0
 11 27  1  0  0  0  0
 12 28  1  0  0  0  0
 13 22  1  0  0  0  0
 13 26  2  0  0  0  0
 14 23  1  0  0  0  0
 14 24  2  0  0  0  0
 15 28  2  0  0  0  0
 15 29  1  0  0  0  0
 16 24  1  0  0  0  0
 16 68  2  0  0  0  0
 17 30  1  0  0  0  0
 18 30  1  0  0  0  0
 18 32  2  0  0  0  0
 18 33  1  0  0  0  0
 19 21  2  0  0  0  0
 19 38  1  0  0  0  0
 20 22  2  0  0  0  0
 20 39  1  0  0  0  0
 21 47  1  0  0  0  0
 22 40  1  0  0  0  0
 23 31  2  0  0  0  0
 23 56  1  0  0  0  0
 24 75  1  0  0  0  0
 25 85  1  0  0  0  0
 26 86  1  0  0  0  0
 27 29  2  0  0  0  0
 27 85  1  0  0  0  0
 28 87  1  0  0  0  0
 29 88  1  0  0  0  0
 30 69  2  0  0  0  0
 31 57  1  0  0  0  0
 31 68  1  0  0  0  0
 32 70  1  0  0  0  0
 32 73  1  0  0  0  0
 33 74  1  0  0  0  0
 33 80  2  0  0  0  0
 34 48  1  0  0  0  0
 34 76  1  0  0  0  0
 34 81  2  0  0  0  0
 35 65  1  0  0  0  0
 35 71  1  0  0  0  0
 35 82  2  0  0  0  0
 36 66  1  0  0  0  0
 36 77  1  0  0  0  0
 36 83  2  0  0  0  0
 37 72  1  0  0  0  0
 37 78  1  0  0  0  0
 37 84  2  0  0  0  0
 38 41  1  0  0  0  0
 39 48  1  0  0  0  0
 40 71  1  0  0  0  0
 41 43  1  0  0  0  0
 42 44  1  0  0  0  0
 42 45  1  0  0  0  0
 43 47  1  0  0  0  0
 44 49  1  0  0  0  0
 45 72  1  0  0  0  0
 46 49  1  0  0  0  0
 46 72  1  0  0  0  0
 47 76  1  0  0  0  0
 48 71  1  0  0  0  0
 49 70  1  0  0  0  0
 50 57  1  0  0  0  0
 51 66  1  0  0  0  0
 52 67  1  0  0  0  0
 53 67  1  0  0  0  0
 54 67  1  0  0  0  0
 55 79  1  0  0  0  0
 56 58  1  0  0  0  0
 58 59  1  0  0  0  0
 59 60  1  0  0  0  0
 60 62  1  0  0  0  0
 61 63  1  0  0  0  0
 61 64  1  0  0  0  0
 62 78  1  0  0  0  0
 63 75  1  0  0  0  0
 64 86  1  0  0  0  0
 65 67  1  0  0  0  0
 65 77  1  0  0  0  0
 66 79  1  0  0  0  0
 69 70  1  0  0  0  0
M  CHG  1  79   1
M  ISO  4  37 100  64 101  78 100  86 101
M  END
> <Batch ID>
0040

> <Smiles>
CCc1ncc(NCC[101CH2:1][101O:1]c2ccc3c(c2)CN(C(=O)C(NC(=O)C(C)NC)C(C)(C)C)C(C(=O)NC2CCCc4ccccc42)C3)cc1CCCCC[100NH:0][100C:0](=O)N1CCCC(n2nc(-c3ccc(Oc4ccc(F)cc4F)cc3)c(C(N)=O)c2N)C1

> <Shape>
0.222

> <Color>
0.190

> <Negative vol penalty>
0.000

$$$$

  -OEChem-04052317073D

 83 91  0     1  0  0  0  0  0999 V2000
  -27.0762  -34.6529   25.1609 C   0  0  0  0  0  0  0  0  0  0  0  0
  -27.5934  -33.3670   25.0409 C   0  0  0  0  0  0  0  0  0  0  0  0
  -23.0083   -9.8981   20.1787 C   0  0  0  0  0  0  0  0  0  0  0  0
  -24.3136   -9.1771   22.0796 C   0  0  0  0  0  0  0  0  0  0  0  0
  -25.8075  -34.9423   24.6603 C   0  0  0  0  0  0  0  0  0  0  0  0
  -26.8416  -32.3694   24.4212 C   0  0  0  0  0  0  0  0  0  0  0  0
  -28.9567  -27.7729   20.9709 C   0  0  0  0  0  0  0  0  0  0  0  0
  -28.7108  -20.3102   23.0060 C   0  0  0  0  0  0  0  0  0  0  0  0
  -22.3137   -8.6886   20.1969 C   0  0  0  0  0  0  0  0  0  0  0  0
  -23.6189   -7.9676   22.0979 C   0  0  0  0  0  0  0  0  0  0  0  0
  -29.2253  -26.4344   21.2538 C   0  0  0  0  0  0  0  0  0  0  0  0
  -20.6179   -6.8366   23.1632 C   0  0  0  0  0  0  0  0  0  0  0  0
  -20.1745   -6.3643   24.3984 C   0  0  0  0  0  0  0  0  0  0  0  0
  -28.2852  -21.5899   22.6677 C   0  0  0  0  0  0  0  0  0  0  0  0
  -27.0492  -25.8254   20.4096 C   0  0  0  0  0  0  0  0  0  0  0  0
  -21.4979   -4.3639   24.1086 C   0  0  0  0  0  0  0  0  0  0  0  0
  -24.0083  -10.1423   21.1200 C   0  0  0  0  0  0  0  0  0  0  0  0
  -24.3894  -12.5761   21.7825 C   0  0  0  0  0  0  0  0  0  0  0  0
  -25.0437  -33.9501   24.0256 C   0  0  0  0  0  0  0  0  0  0  0  0
  -27.7259  -28.1496   20.4143 C   0  0  0  0  0  0  0  0  0  0  0  0
  -25.5609  -32.6454   23.9128 C   0  0  0  0  0  0  0  0  0  0  0  0
  -26.7684  -27.1690   20.1182 C   0  0  0  0  0  0  0  0  0  0  0  0
  -28.8043  -19.3319   22.0224 C   0  0  0  0  0  0  0  0  0  0  0  0
  -22.6190   -7.7234   21.1565 C   0  0  0  0  0  0  0  0  0  0  0  0
  -28.2704  -25.4607   20.9759 C   0  0  0  0  0  0  0  0  0  0  0  0
  -21.5013   -6.0726   22.4006 C   0  0  0  0  0  0  0  0  0  0  0  0
  -20.6145   -5.1280   24.8712 C   0  0  0  0  0  0  0  0  0  0  0  0
  -21.9413   -4.8362   22.8733 C   0  0  0  0  0  0  0  0  0  0  0  0
  -24.7266  -11.3912   21.1013 C   0  0  0  0  0  0  0  0  0  0  0  0
  -27.9675  -21.8384   21.3421 C   0  0  0  0  0  0  0  0  0  0  0  0
  -28.4632  -19.6814   20.7258 C   0  0  0  0  0  0  0  0  0  0  0  0
  -25.3803  -13.4632   21.4396 C   0  0  0  0  0  0  0  0  0  0  0  0
  -23.2796  -12.8503   22.6480 C   0  0  0  0  0  0  0  0  0  0  0  0
  -25.3141  -29.9979   21.3472 C   0  0  0  0  0  0  0  0  0  0  0  0
  -24.2114  -29.4012   18.3555 C   0  0  0  0  0  0  0  0  0  0  0  0
  -24.2018  -27.3522   15.6263 C   0  0  0  0  0  0  0  0  0  0  0  0
  -30.7685  -14.6617   20.6173 C   0  0  0  0  0  0  0  0  0  0  0  0
  -23.6582  -34.2987   23.5424 C   0  0  0  0  0  0  0  0  0  0  0  0
  -27.4619  -29.5945   20.0903 C   0  0  0  0  0  0  0  0  0  0  0  0
  -25.4394  -27.5189   19.5018 C   0  0  0  0  0  0  0  0  0  0  0  0
  -23.0789  -33.2783   22.5659 C   0  0  0  0  0  0  0  0  0  0  0  0
  -28.9991  -13.1573   17.9187 C   0  0  0  0  0  0  0  0  0  0  0  0
  -23.2923  -31.8604   23.0866 C   0  0  0  0  0  0  0  0  0  0  0  0
  -27.7056  -12.6563   18.5635 C   0  0  0  0  0  0  0  0  0  0  0  0
  -30.1922  -13.0127   18.8609 C   0  0  0  0  0  0  0  0  0  0  0  0
  -28.7183  -13.1297   20.8326 C   0  0  0  0  0  0  0  0  0  0  0  0
  -24.7860  -31.5425   23.2250 C   0  0  1  0  0  0  0  0  0  0  0  0
  -25.9753  -29.9246   19.9999 C   0  0  1  0  0  0  0  0  0  0  0  0
  -27.4773  -13.3068   19.9412 C   0  0  2  0  0  0  0  0  0  0  0  0
  -27.1772  -18.1277   19.2363 C   0  0  0  0  0  0  0  0  0  0  0  0
  -23.1734  -27.1075   13.3504 C   0  0  0  0  0  0  0  0  0  0  0  0
  -21.6010  -28.4774   19.6370 C   0  0  0  0  0  0  0  0  0  0  0  0
  -21.0036  -27.3830   17.4659 C   0  0  0  0  0  0  0  0  0  0  0  0
  -21.3176  -29.8555   17.5694 C   0  0  0  0  0  0  0  0  0  0  0  0
  -26.8405  -27.4826   14.2925 C   0  0  0  0  0  0  0  0  0  0  0  0
  -29.2584  -17.9588   22.3790 C   0  0  0  0  0  0  0  0  0  0  0  0
  -28.5475  -18.6726   19.6276 C   0  0  0  0  0  0  0  0  0  0  0  0
  -27.5065  -23.2088   20.9412 C   0  0  0  0  0  0  0  0  0  1  0  0
  -30.7340  -17.6646   22.0403 C   0  0  0  0  0  0  0  0  0  0  0  0
  -31.2074  -16.2726   22.4534 C   0  0  0  0  0  0  0  0  0  0  0  0
  -23.3363  -28.3419   17.7301 C   0  0  1  0  0  0  0  0  0  0  0  0
  -24.3526  -27.6471   14.1448 C   0  0  2  0  0  0  0  0  0  0  0  0
  -21.8388  -28.5078   18.1140 C   0  0  0  0  0  0  0  0  0  0  0  0
  -25.8443  -11.5114   20.3800 N   0  0  0  0  0  0  0  0  0  0  0  0
  -28.0459  -20.9139   20.3589 N   0  0  0  0  0  0  0  0  0  0  0  0
  -26.2180  -12.7824   20.6060 N   0  0  0  0  0  0  0  0  0  0  0  0
  -25.2260  -28.9460   19.2093 N   0  0  0  0  0  0  0  0  0  0  0  0
  -29.9116  -13.6522   20.1486 N   0  0  0  0  0  0  0  0  0  0  0  0
  -25.6080  -14.7515   21.7728 N   0  0  0  0  0  0  0  0  0  0  0  0
  -22.3549  -11.8262   22.8936 N   0  0  0  0  0  0  0  0  0  0  0  0
  -25.3625  -31.2498   21.9303 N   0  0  0  0  0  0  0  0  0  0  0  0
  -23.5946  -28.3940   16.2952 N   0  0  0  0  0  0  0  0  0  0  0  0
  -30.4269  -15.2194   21.8433 N   0  0  0  0  0  0  0  0  0  0  0  0
  -25.5993  -27.0242   13.6170 N   0  3  0  0  0  0  0  0  0  0  0  0
  -23.1041  -13.9753   23.1745 O   0  0  0  0  0  0  0  0  0  0  0  0
  -24.7968  -28.9935   21.8218 O   0  0  0  0  0  0  0  0  0  0  0  0
  -24.0068  -30.5885   18.0904 O   0  0  0  0  0  0  0  0  0  0  0  0
  -24.5811  -26.3013   16.1383 O   0  0  0  0  0  0  0  0  0  0  0  0
  -31.7612  -15.0417   19.9873 O   0  0  0  0  0  0  0  0  0  0  0  0
  -21.9412   -6.5432   21.1748 O   0  0  0  0  0  0  0  0  0  0  0  0
  -28.5298  -24.1536   21.2517 O   0  0  0  0  0  0  0  0  0  1  0  0
  -20.1898   -4.6752   26.0581 F   0  0  0  0  0  0  0  0  0  0  0  0
  -22.7909   -4.0983   22.1457 F   0  0  0  0  0  0  0  0  0  0  0  0
  1  2  1  0  0  0  0
  1  5  2  0  0  0  0
  2  6  2  0  0  0  0
  3  9  2  0  0  0  0
  3 17  1  0  0  0  0
  4 10  1  0  0  0  0
  4 17  2  0  0  0  0
  5 19  1  0  0  0  0
  6 21  1  0  0  0  0
  7 11  2  0  0  0  0
  7 20  1  0  0  0  0
  8 14  2  0  0  0  0
  8 23  1  0  0  0  0
  9 24  1  0  0  0  0
 10 24  2  0  0  0  0
 11 25  1  0  0  0  0
 12 13  2  0  0  0  0
 12 26  1  0  0  0  0
 13 27  1  0  0  0  0
 14 30  1  0  0  0  0
 15 22  1  0  0  0  0
 15 25  2  0  0  0  0
 16 27  2  0  0  0  0
 16 28  1  0  0  0  0
 17 29  1  0  0  0  0
 18 29  1  0  0  0  0
 18 32  2  0  0  0  0
 18 33  1  0  0  0  0
 19 21  2  0  0  0  0
 19 38  1  0  0  0  0
 20 22  2  0  0  0  0
 20 39  1  0  0  0  0
 21 47  1  0  0  0  0
 22 40  1  0  0  0  0
 23 31  2  0  0  0  0
 23 56  1  0  0  0  0
 24 80  1  0  0  0  0
 25 81  1  0  0  0  0
 26 28  2  0  0  0  0
 26 80  1  0  0  0  0
 27 82  1  0  0  0  0
 28 83  1  0  0  0  0
 29 64  2  0  0  0  0
 30 58  1  0  0  0  0
 30 65  2  0  0  0  0
 31 57  1  0  0  0  0
 31 65  1  0  0  0  0
 32 66  1  0  0  0  0
 32 69  1  0  0  0  0
 33 70  1  0  0  0  0
 33 75  2  0  0  0  0
 34 48  1  0  0  0  0
 34 71  1  0  0  0  0
 34 76  2  0  0  0  0
 35 61  1  0  0  0  0
 35 67  1  0  0  0  0
 35 77  2  0  0  0  0
 36 62  1  0  0  0  0
 36 72  1  0  0  0  0
 36 78  2  0  0  0  0
 37 68  1  0  0  0  0
 37 73  1  0  0  0  0
 37 79  2  0  0  0  0
 38 41  1  0  0  0  0
 39 48  1  0  0  0  0
 40 67  1  0  0  0  0
 41 43  1  0  0  0  0
 42 44  1  0  0  0  0
 42 45  1  0  0  0  0
 43 47  1  0  0  0  0
 44 49  1  0  0  0  0
 45 68  1  0  0  0  0
 46 49  1  0  0  0  0
 46 68  1  0  0  0  0
 47 71  1  0  0  0  0
 48 67  1  0  0  0  0
 49 66  1  0  0  0  0
 50 57  1  0  0  0  0
 51 62  1  0  0  0  0
 52 63  1  0  0  0  0
 53 63  1  0  0  0  0
 54 63  1  0  0  0  0
 55 74  1  0  0  0  0
 56 59  1  0  0  0  0
 58 81  1  0  0  0  0
 59 60  1  0  0  0  0
 60 73  1  0  0  0  0
 61 63  1  0  0  0  0
 61 72  1  0  0  0  0
 62 74  1  0  0  0  0
 64 66  1  0  0  0  0
M  CHG  1  74   1
M  ISO  4  37 100  58 101  73 100  81 101
M  END
> <Batch ID>
0040

> <Smiles>
CCc1nc([101CH2:1][101O:1]c2ccc3c(c2)CN(C(=O)C(NC(=O)C(C)NC)C(C)(C)C)C(C(=O)NC2CCCc4ccccc42)C3)ccc1CCC[100NH:0][100C:0](=O)N1CCCC(n2nc(-c3ccc(Oc4ccc(F)cc4F)cc3)c(C(N)=O)c2N)C1

> <Shape>
0.361

> <Color>
0.141

> <Negative vol penalty>
0.000

$$$$

  -OEChem-04052317073D

 84 92  0     1  0  0  0  0  0999 V2000
  -28.6780  -32.4200   25.6483 C   0  0  0  0  0  0  0  0  0  0  0  0
  -28.7398  -31.5960   24.5291 C   0  0  0  0  0  0  0  0  0  0  0  0
  -26.2993  -13.2332   22.1640 C   0  0  0  0  0  0  0  0  0  0  0  0
  -25.4381  -14.7448   20.4875 C   0  0  0  0  0  0  0  0  0  0  0  0
  -28.1312  -31.9391   26.8373 C   0  0  0  0  0  0  0  0  0  0  0  0
  -28.2560  -30.2900   24.5986 C   0  0  0  0  0  0  0  0  0  0  0  0
  -25.4440  -29.0435   20.5757 C   0  0  0  0  0  0  0  0  0  0  0  0
  -25.1244  -12.4849   22.0928 C   0  0  0  0  0  0  0  0  0  0  0  0
  -24.2631  -13.9964   20.4163 C   0  0  0  0  0  0  0  0  0  0  0  0
  -26.1214  -28.7222   19.4002 C   0  0  0  0  0  0  0  0  0  0  0  0
  -23.7728  -10.1590   20.0443 C   0  0  0  0  0  0  0  0  0  0  0  0
  -23.8911   -8.7703   19.9878 C   0  0  0  0  0  0  0  0  0  0  0  0
  -25.8194  -26.3764   19.8745 C   0  0  0  0  0  0  0  0  0  0  0  0
  -22.6180   -8.5786   22.0322 C   0  0  0  0  0  0  0  0  0  0  0  0
  -26.4561  -14.3633   21.3614 C   0  0  0  0  0  0  0  0  0  0  0  0
  -28.8392  -14.9583   20.6724 C   0  0  0  0  0  0  0  0  0  0  0  0
  -27.6316  -30.6297   26.9186 C   0  0  0  0  0  0  0  0  0  0  0  0
  -24.9579  -28.0318   21.4163 C   0  0  0  0  0  0  0  0  0  0  0  0
  -27.7032  -29.7907   25.7902 C   0  0  0  0  0  0  0  0  0  0  0  0
  -25.1339  -26.6874   21.0587 C   0  0  0  0  0  0  0  0  0  0  0  0
  -29.7435  -26.2038   17.6699 C   0  0  0  0  0  0  0  0  0  0  0  0
  -24.1063  -12.8664   21.2190 C   0  0  0  0  0  0  0  0  0  0  0  0
  -26.3117  -27.3885   19.0509 C   0  0  0  0  0  0  0  0  0  0  0  0
  -23.0771  -10.7575   21.0948 C   0  0  0  0  0  0  0  0  0  0  0  0
  -23.3138   -7.9801   20.9817 C   0  0  0  0  0  0  0  0  0  0  0  0
  -22.4997   -9.9673   22.0887 C   0  0  0  0  0  0  0  0  0  0  0  0
  -27.6694  -15.1371   21.4348 C   0  0  0  0  0  0  0  0  0  0  0  0
  -30.6782  -26.4305   18.6979 C   0  0  0  0  0  0  0  0  0  0  0  0
  -29.5514  -24.8438   17.6743 C   0  0  0  0  0  0  0  0  0  0  0  0
  -29.6921  -15.9388   21.1170 C   0  0  0  0  0  0  0  0  0  0  0  0
  -29.1289  -13.9924   19.6532 C   0  0  0  0  0  0  0  0  0  0  0  0
  -25.5223  -27.1436   24.4157 C   0  0  0  0  0  0  0  0  0  0  0  0
  -23.0727  -25.0917   23.8575 C   0  0  0  0  0  0  0  0  0  0  0  0
  -21.2128  -23.3494   21.5878 C   0  0  0  0  0  0  0  0  0  0  0  0
  -28.7895  -21.2590   23.7115 C   0  0  0  0  0  0  0  0  0  0  0  0
  -27.0929  -30.1390   28.2391 C   0  0  0  0  0  0  0  0  0  0  0  0
  -24.2059  -28.3951   22.6672 C   0  0  0  0  0  0  0  0  0  0  0  0
  -24.6137  -25.5640   21.9165 C   0  0  0  0  0  0  0  0  0  0  0  0
  -26.2603  -28.8650   28.1216 C   0  0  0  0  0  0  0  0  0  0  0  0
  -30.7008  -18.5455   25.0001 C   0  0  0  0  0  0  0  0  0  0  0  0
  -26.9721  -27.8412   27.2430 C   0  0  0  0  0  0  0  0  0  0  0  0
  -30.2462  -17.3482   24.1637 C   0  0  0  0  0  0  0  0  0  0  0  0
  -29.5472  -19.5041   25.2871 C   0  0  0  0  0  0  0  0  0  0  0  0
  -28.3592  -18.7681   23.2571 C   0  0  0  0  0  0  0  0  0  0  0  0
  -27.1661  -28.3762   25.8190 C   0  0  1  0  0  0  0  0  0  0  0  0
  -24.2037  -27.2799   23.7082 C   0  0  1  0  0  0  0  0  0  0  0  0
  -29.4998  -17.8017   22.8946 C   0  0  2  0  0  0  0  0  0  0  0  0
  -31.2469  -27.7178   19.1345 C   0  0  0  0  0  0  0  0  0  0  0  0
  -28.6963  -23.9783   16.8401 C   0  0  0  0  0  0  0  0  0  0  0  0
  -19.3038  -21.7277   21.4350 C   0  0  0  0  0  0  0  0  0  0  0  0
  -24.9164  -22.8390   24.7719 C   0  0  0  0  0  0  0  0  0  0  0  0
  -23.3339  -21.2101   23.7180 C   0  0  0  0  0  0  0  0  0  0  0  0
  -22.5620  -22.6595   25.5958 C   0  0  0  0  0  0  0  0  0  0  0  0
  -19.5823  -25.2396   19.9980 C   0  0  0  0  0  0  0  0  0  0  0  0
  -29.0965  -27.2232   16.7641 C   0  0  0  0  0  0  0  0  0  0  0  0
  -29.3159  -22.4974   19.9042 C   0  0  0  0  0  0  0  0  0  0  0  0
  -29.1478  -23.3558   21.1614 C   0  0  0  0  0  0  0  0  0  0  0  0
  -30.5012  -22.9764   19.0622 C   0  0  0  0  0  0  0  0  0  0  0  0
  -27.9821  -22.8982   22.0321 C   0  0  0  0  0  0  0  0  0  0  0  0
  -27.9740  -27.9864   17.4587 C   0  0  0  0  0  0  0  0  0  1  0  0
  -22.9571  -23.6860   23.3194 C   0  0  1  0  0  0  0  0  0  0  0  0
  -19.7118  -23.1926   21.4235 C   0  0  2  0  0  0  0  0  0  0  0  0
  -23.4540  -22.6196   24.3359 C   0  0  0  0  0  0  0  0  0  0  0  0
  -27.7668  -16.1513   22.2985 N   0  0  0  0  0  0  0  0  0  0  0  0
  -31.0536  -25.3047   19.3109 N   0  0  0  0  0  0  0  0  0  0  0  0
  -30.3512  -24.3576   18.6662 N   0  0  0  0  0  0  0  0  0  0  0  0
  -29.0080  -16.6185   22.0815 N   0  0  0  0  0  0  0  0  0  0  0  0
  -23.8905  -25.9703   23.1329 N   0  0  0  0  0  0  0  0  0  0  0  0
  -28.8826  -19.8970   24.0422 N   0  0  0  0  0  0  0  0  0  0  0  0
  -30.9529  -16.2771   20.7733 N   0  0  0  0  0  0  0  0  0  0  0  0
  -28.1403  -13.0570   19.3187 N   0  0  0  0  0  0  0  0  0  0  0  0
  -25.9288  -28.2889   25.0734 N   0  0  0  0  0  0  0  0  0  0  0  0
  -21.5669  -23.5188   22.9096 N   0  0  0  0  0  0  0  0  0  0  0  0
  -28.1500  -21.5443   22.5114 N   0  0  0  0  0  0  0  0  0  0  0  0
  -19.2661  -23.7945   20.1350 N   0  3  0  0  0  0  0  0  0  0  0  0
  -30.2378  -13.9494   19.0683 O   0  0  0  0  0  0  0  0  0  0  0  0
  -26.1254  -26.0779   24.3696 O   0  0  0  0  0  0  0  0  0  0  0  0
  -22.4543  -25.4009   24.8791 O   0  0  0  0  0  0  0  0  0  0  0  0
  -21.9934  -23.3203   20.6389 O   0  0  0  0  0  0  0  0  0  0  0  0
  -29.2475  -22.1542   24.4298 O   0  0  0  0  0  0  0  0  0  0  0  0
  -22.9598  -12.1363   21.1491 O   0  0  0  0  0  0  0  0  0  0  0  0
  -26.9731  -27.0722   17.9045 O   0  0  0  0  0  0  0  0  0  1  0  0
  -23.4262   -6.6465   20.9265 F   0  0  0  0  0  0  0  0  0  0  0  0
  -21.8292  -10.5365   23.0998 F   0  0  0  0  0  0  0  0  0  0  0  0
  1  2  1  0  0  0  0
  1  5  2  0  0  0  0
  2  6  2  0  0  0  0
  3  8  2  0  0  0  0
  3 15  1  0  0  0  0
  4  9  1  0  0  0  0
  4 15  2  0  0  0  0
  5 17  1  0  0  0  0
  6 19  1  0  0  0  0
  7 10  2  0  0  0  0
  7 18  1  0  0  0  0
  8 22  1  0  0  0  0
  9 22  2  0  0  0  0
 10 23  1  0  0  0  0
 11 12  2  0  0  0  0
 11 24  1  0  0  0  0
 12 25  1  0  0  0  0
 13 20  1  0  0  0  0
 13 23  2  0  0  0  0
 14 25  2  0  0  0  0
 14 26  1  0  0  0  0
 15 27  1  0  0  0  0
 16 27  1  0  0  0  0
 16 30  2  0  0  0  0
 16 31  1  0  0  0  0
 17 19  2  0  0  0  0
 17 36  1  0  0  0  0
 18 20  2  0  0  0  0
 18 37  1  0  0  0  0
 19 45  1  0  0  0  0
 20 38  1  0  0  0  0
 21 28  1  0  0  0  0
 21 29  2  0  0  0  0
 21 55  1  0  0  0  0
 22 81  1  0  0  0  0
 23 82  1  0  0  0  0
 24 26  2  0  0  0  0
 24 81  1  0  0  0  0
 25 83  1  0  0  0  0
 26 84  1  0  0  0  0
 27 64  2  0  0  0  0
 28 48  1  0  0  0  0
 28 65  2  0  0  0  0
 29 49  1  0  0  0  0
 29 66  1  0  0  0  0
 30 67  1  0  0  0  0
 30 70  1  0  0  0  0
 31 71  1  0  0  0  0
 31 76  2  0  0  0  0
 32 46  1  0  0  0  0
 32 72  1  0  0  0  0
 32 77  2  0  0  0  0
 33 61  1  0  0  0  0
 33 68  1  0  0  0  0
 33 78  2  0  0  0  0
 34 62  1  0  0  0  0
 34 73  1  0  0  0  0
 34 79  2  0  0  0  0
 35 69  1  0  0  0  0
 35 74  1  0  0  0  0
 35 80  2  0  0  0  0
 36 39  1  0  0  0  0
 37 46  1  0  0  0  0
 38 68  1  0  0  0  0
 39 41  1  0  0  0  0
 40 42  1  0  0  0  0
 40 43  1  0  0  0  0
 41 45  1  0  0  0  0
 42 47  1  0  0  0  0
 43 69  1  0  0  0  0
 44 47  1  0  0  0  0
 44 69  1  0  0  0  0
 45 72  1  0  0  0  0
 46 68  1  0  0  0  0
 47 67  1  0  0  0  0
 50 62  1  0  0  0  0
 51 63  1  0  0  0  0
 52 63  1  0  0  0  0
 53 63  1  0  0  0  0
 54 75  1  0  0  0  0
 55 60  1  0  0  0  0
 56 57  1  0  0  0  0
 56 58  1  0  0  0  0
 57 59  1  0  0  0  0
 58 66  1  0  0  0  0
 59 74  1  0  0  0  0
 60 82  1  0  0  0  0
 61 63  1  0  0  0  0
 61 73  1  0  0  0  0
 62 75  1  0  0  0  0
 64 67  1  0  0  0  0
 65 66  1  0  0  0  0
M  CHG  1  75   1
M  ISO  4  35 100  60 101  74 100  82 101
M  END
> <Batch ID>
0040

> <Smiles>
CNC(C)C(=O)NC(C(=O)N1Cc2cc([101O:1][101CH2:1]Cc3c(C)nn(CCCC[100NH:0][100C:0](=O)N4CCCC(n5nc(-c6ccc(Oc7ccc(F)cc7F)cc6)c(C(N)=O)c5N)C4)c3C)ccc2CC1C(=O)NC1CCCc2ccccc21)C(C)(C)C

> <Shape>
0.215

> <Color>
0.055

> <Negative vol penalty>
0.000

$$$$

  -OEChem-04052317073D

 86 94  0     1  0  0  0  0  0999 V2000
  -17.0095  -29.3579   24.6083 C   0  0  0  0  0  0  0  0  0  0  0  0
  -17.6457  -28.2025   24.1660 C   0  0  0  0  0  0  0  0  0  0  0  0
  -30.5294  -23.6197   18.6866 C   0  0  0  0  0  0  0  0  0  0  0  0
  -30.0620  -22.0497   16.9107 C   0  0  0  0  0  0  0  0  0  0  0  0
  -17.3384  -30.5915   24.0480 C   0  0  0  0  0  0  0  0  0  0  0  0
  -18.6105  -28.2799   23.1622 C   0  0  0  0  0  0  0  0  0  0  0  0
  -22.7210  -25.5104   24.2009 C   0  0  0  0  0  0  0  0  0  0  0  0
  -31.3859  -24.3228   17.8396 C   0  0  0  0  0  0  0  0  0  0  0  0
  -30.9186  -22.7529   16.0637 C   0  0  0  0  0  0  0  0  0  0  0  0
  -22.6297  -24.1343   23.9970 C   0  0  0  0  0  0  0  0  0  0  0  0
  -33.4167  -26.7385   16.0352 C   0  0  0  0  0  0  0  0  0  0  0  0
  -33.3167  -28.1297   16.0211 C   0  0  0  0  0  0  0  0  0  0  0  0
  -23.7791  -24.3762   21.8900 C   0  0  0  0  0  0  0  0  0  0  0  0
  -21.2748  -19.2870   23.0932 C   0  0  0  0  0  0  0  0  0  0  0  0
  -31.0146  -27.9571   15.3088 C   0  0  0  0  0  0  0  0  0  0  0  0
  -23.6522  -19.3462   23.0604 C   0  0  0  0  0  0  0  0  0  0  0  0
  -29.8674  -22.4831   18.2222 C   0  0  0  0  0  0  0  0  0  0  0  0
  -27.6022  -21.9652   19.2749 C   0  0  0  0  0  0  0  0  0  0  0  0
  -18.3147  -30.6853   23.0437 C   0  0  0  0  0  0  0  0  0  0  0  0
  -23.3334  -26.3326   23.2441 C   0  0  0  0  0  0  0  0  0  0  0  0
  -18.9519  -29.5158   22.5870 C   0  0  0  0  0  0  0  0  0  0  0  0
  -23.8791  -25.7622   22.0853 C   0  0  0  0  0  0  0  0  0  0  0  0
  -22.4517  -20.0076   23.2632 C   0  0  0  0  0  0  0  0  0  0  0  0
  -21.3336  -17.9459   22.7307 C   0  0  0  0  0  0  0  0  0  0  0  0
  -31.5805  -23.8895   16.5282 C   0  0  0  0  0  0  0  0  0  0  0  0
  -23.1562  -23.5673   22.8401 C   0  0  0  0  0  0  0  0  0  0  0  0
  -32.3156  -25.9566   15.6861 C   0  0  0  0  0  0  0  0  0  0  0  0
  -32.1157  -28.7390   15.6580 C   0  0  0  0  0  0  0  0  0  0  0  0
  -31.1145  -26.5659   15.3229 C   0  0  0  0  0  0  0  0  0  0  0  0
  -28.9829  -21.7560   19.0968 C   0  0  0  0  0  0  0  0  0  0  0  0
  -22.5841  -17.3769   22.5515 C   0  0  0  0  0  0  0  0  0  0  0  0
  -27.2293  -21.0244   20.2036 C   0  0  0  0  0  0  0  0  0  0  0  0
  -26.7343  -22.9242   18.6562 C   0  0  0  0  0  0  0  0  0  0  0  0
  -22.3692  -28.7447   21.4122 C   0  0  0  0  0  0  0  0  0  0  0  0
  -25.5149  -28.9011   20.6361 C   0  0  0  0  0  0  0  0  0  0  0  0
  -28.5231  -27.3069   20.3983 C   0  0  0  0  0  0  0  0  0  0  0  0
  -29.5144  -15.7182   21.7762 C   0  0  0  0  0  0  0  0  0  0  0  0
  -18.6027  -32.0349   22.4350 C   0  0  0  0  0  0  0  0  0  0  0  0
  -23.4475  -27.8119   23.4914 C   0  0  0  0  0  0  0  0  0  0  0  0
  -24.5646  -26.5986   21.0369 C   0  0  0  0  0  0  0  0  0  0  0  0
  -19.9043  -32.0786   21.6387 C   0  0  0  0  0  0  0  0  0  0  0  0
  -28.9538  -18.5215   23.8985 C   0  0  0  0  0  0  0  0  0  0  0  0
  -20.0060  -30.8688   20.7152 C   0  0  0  0  0  0  0  0  0  0  0  0
  -28.7731  -19.6872   22.9246 C   0  0  0  0  0  0  0  0  0  0  0  0
  -29.9986  -17.5258   23.3993 C   0  0  0  0  0  0  0  0  0  0  0  0
  -29.5868  -18.1837   21.0602 C   0  0  0  0  0  0  0  0  0  0  0  0
  -20.0215  -29.5621   21.5175 C   0  0  1  0  0  0  0  0  0  0  0  0
  -23.6359  -28.6190   22.2106 C   0  0  1  0  0  0  0  0  0  0  0  0
  -28.5028  -19.1854   21.4934 C   0  0  2  0  0  0  0  0  0  0  0  0
  -20.0765  -17.1675   22.5486 C   0  0  0  0  0  0  0  0  0  0  0  0
  -30.9021  -27.6840   19.6946 C   0  0  0  0  0  0  0  0  0  0  0  0
  -24.6721  -28.7383   17.7081 C   0  0  0  0  0  0  0  0  0  0  0  0
  -27.0400  -28.1654   17.1307 C   0  0  0  0  0  0  0  0  0  0  0  0
  -26.5108  -30.3679   18.1754 C   0  0  0  0  0  0  0  0  0  0  0  0
  -29.5412  -26.7228   23.1152 C   0  0  0  0  0  0  0  0  0  0  0  0
  -22.4228  -21.4562   23.6532 C   0  0  0  0  0  0  0  0  0  1  0  0
  -22.7083  -15.9403   22.1610 C   0  0  0  0  0  0  0  0  0  0  0  0
  -23.9088  -15.6352   21.2471 C   0  0  0  0  0  0  0  0  0  0  0  0
  -23.9616  -14.1671   20.8101 C   0  0  0  0  0  0  0  0  0  0  0  0
  -25.1151  -13.8619   19.8491 C   0  0  0  0  0  0  0  0  0  0  0  0
  -26.4969  -14.0875   20.4682 C   0  0  0  0  0  0  0  0  0  0  0  0
  -27.6101  -13.7952   19.4565 C   0  0  0  0  0  0  0  0  0  0  0  0
  -29.0022  -14.0227   20.0378 C   0  0  0  0  0  0  0  0  0  0  0  0
  -26.3881  -28.2688   19.5793 C   0  0  1  0  0  0  0  0  0  0  0  0
  -29.9150  -27.7094   20.8512 C   0  0  2  0  0  0  0  0  0  0  0  0
  -26.1382  -28.8693   18.1671 C   0  0  0  0  0  0  0  0  0  0  0  0
  -23.7491  -18.0448   22.7077 N   0  0  0  0  0  0  0  0  0  0  0  0
  -29.4552  -20.7605   19.8519 N   0  0  0  0  0  0  0  0  0  0  0  0
  -28.3652  -20.3359   20.5135 N   0  0  0  0  0  0  0  0  0  0  0  0
  -24.6455  -28.0408   21.3215 N   0  0  0  0  0  0  0  0  0  0  0  0
  -29.6831  -17.0880   22.0374 N   0  0  0  0  0  0  0  0  0  0  0  0
  -26.0440  -20.7273   20.7772 N   0  0  0  0  0  0  0  0  0  0  0  0
  -27.2812  -23.8167   17.7242 N   0  0  0  0  0  0  0  0  0  0  0  0
  -21.3285  -29.3411   22.0983 N   0  0  0  0  0  0  0  0  0  0  0  0
  -27.7620  -28.4030   20.0511 N   0  0  0  0  0  0  0  0  0  0  0  0
  -29.2110  -15.3896   20.4606 N   0  0  0  0  0  0  0  0  0  0  0  0
  -30.4049  -26.7797   21.9079 N   0  3  0  0  0  0  0  0  0  0  0  0
  -25.5133  -22.9984   18.9340 O   0  0  0  0  0  0  0  0  0  0  0  0
  -22.3388  -28.3326   20.2585 O   0  0  0  0  0  0  0  0  0  0  0  0
  -25.6063  -30.1124   20.8508 O   0  0  0  0  0  0  0  0  0  0  0  0
  -28.1496  -26.1368   20.3533 O   0  0  0  0  0  0  0  0  0  0  0  0
  -29.6207  -14.8526   22.6517 O   0  0  0  0  0  0  0  0  0  0  0  0
  -32.4161  -24.5755   15.7013 O   0  0  0  0  0  0  0  0  0  0  0  0
  -23.0679  -22.2244   22.6383 O   0  0  0  0  0  0  0  0  0  1  0  0
  -32.0194  -30.0749   15.6460 F   0  0  0  0  0  0  0  0  0  0  0  0
  -30.0529  -25.8199   14.9876 F   0  0  0  0  0  0  0  0  0  0  0  0
  1  2  1  0  0  0  0
  1  5  2  0  0  0  0
  2  6  2  0  0  0  0
  3  8  2  0  0  0  0
  3 17  1  0  0  0  0
  4  9  1  0  0  0  0
  4 17  2  0  0  0  0
  5 19  1  0  0  0  0
  6 21  1  0  0  0  0
  7 10  2  0  0  0  0
  7 20  1  0  0  0  0
  8 25  1  0  0  0  0
  9 25  2  0  0  0  0
 10 26  1  0  0  0  0
 11 12  2  0  0  0  0
 11 27  1  0  0  0  0
 12 28  1  0  0  0  0
 13 22  1  0  0  0  0
 13 26  2  0  0  0  0
 14 23  2  0  0  0  0
 14 24  1  0  0  0  0
 15 28  2  0  0  0  0
 15 29  1  0  0  0  0
 16 23  1  0  0  0  0
 16 67  2  0  0  0  0
 17 30  1  0  0  0  0
 18 30  1  0  0  0  0
 18 32  2  0  0  0  0
 18 33  1  0  0  0  0
 19 21  2  0  0  0  0
 19 38  1  0  0  0  0
 20 22  2  0  0  0  0
 20 39  1  0  0  0  0
 21 47  1  0  0  0  0
 22 40  1  0  0  0  0
 23 56  1  0  0  0  0
 24 31  2  0  0  0  0
 24 50  1  0  0  0  0
 25 83  1  0  0  0  0
 26 84  1  0  0  0  0
 27 29  2  0  0  0  0
 27 83  1  0  0  0  0
 28 85  1  0  0  0  0
 29 86  1  0  0  0  0
 30 68  2  0  0  0  0
 31 57  1  0  0  0  0
 31 67  1  0  0  0  0
 32 69  1  0  0  0  0
 32 72  1  0  0  0  0
 33 73  1  0  0  0  0
 33 78  2  0  0  0  0
 34 48  1  0  0  0  0
 34 74  1  0  0  0  0
 34 79  2  0  0  0  0
 35 64  1  0  0  0  0
 35 70  1  0  0  0  0
 35 80  2  0  0  0  0
 36 65  1  0  0  0  0
 36 75  1  0  0  0  0
 36 81  2  0  0  0  0
 37 71  1  0  0  0  0
 37 76  1  0  0  0  0
 37 82  2  0  0  0  0
 38 41  1  0  0  0  0
 39 48  1  0  0  0  0
 40 70  1  0  0  0  0
 41 43  1  0  0  0  0
 42 44  1  0  0  0  0
 42 45  1  0  0  0  0
 43 47  1  0  0  0  0
 44 49  1  0  0  0  0
 45 71  1  0  0  0  0
 46 49  1  0  0  0  0
 46 71  1  0  0  0  0
 47 74  1  0  0  0  0
 48 70  1  0  0  0  0
 49 69  1  0  0  0  0
 51 65  1  0  0  0  0
 52 66  1  0  0  0  0
 53 66  1  0  0  0  0
 54 66  1  0  0  0  0
 55 77  1  0  0  0  0
 56 84  1  0  0  0  0
 57 58  1  0  0  0  0
 58 59  1  0  0  0  0
 59 60  1  0  0  0  0
 60 61  1  0  0  0  0
 61 62  1  0  0  0  0
 62 63  1  0  0  0  0
 63 76  1  0  0  0  0
 64 66  1  0  0  0  0
 64 75  1  0  0  0  0
 65 77  1  0  0  0  0
 68 69  1  0  0  0  0
M  CHG  1  77   1
M  ISO  4  37 100  56 101  76 100  84 101
M  END
> <Batch ID>
0040

> <Smiles>
CNC(C)C(=O)NC(C(=O)N1Cc2cc([101O:1][101CH2:1]c3cnc(CCCCCCC[100NH:0][100C:0](=O)N4CCCC(n5nc(-c6ccc(Oc7ccc(F)cc7F)cc6)c(C(N)=O)c5N)C4)c(C)c3)ccc2CC1C(=O)NC1CCCc2ccccc21)C(C)(C)C

> <Shape>
0.210

> <Color>
0.062

> <Negative vol penalty>
0.000

$$$$

  -OEChem-04052317073D

 83 91  0     1  0  0  0  0  0999 V2000
  -21.5327  -11.4573   20.1116 C   0  0  0  0  0  0  0  0  0  0  0  0
  -21.3708  -12.7058   20.7034 C   0  0  0  0  0  0  0  0  0  0  0  0
  -25.1891  -26.6652   19.3168 C   0  0  0  0  0  0  0  0  0  0  0  0
  -25.8426  -25.1817   21.1082 C   0  0  0  0  0  0  0  0  0  0  0  0
  -22.8125  -10.9375   19.9221 C   0  0  0  0  0  0  0  0  0  0  0  0
  -22.4888  -13.4350   21.1071 C   0  0  0  0  0  0  0  0  0  0  0  0
  -23.1555  -19.5215   20.9836 C   0  0  0  0  0  0  0  0  0  0  0  0
  -26.4870  -27.1732   19.2640 C   0  0  0  0  0  0  0  0  0  0  0  0
  -27.1406  -25.6896   21.0553 C   0  0  0  0  0  0  0  0  0  0  0  0
  -23.0190  -20.5002   21.9670 C   0  0  0  0  0  0  0  0  0  0  0  0
  -29.7567  -26.9841   17.9144 C   0  0  0  0  0  0  0  0  0  0  0  0
  -30.6636  -26.3556   17.0611 C   0  0  0  0  0  0  0  0  0  0  0  0
  -25.3982  -20.4298   22.3590 C   0  0  0  0  0  0  0  0  0  0  0  0
  -20.8261  -20.3457   27.2408 C   0  0  0  0  0  0  0  0  0  0  0  0
  -23.2171  -20.6867   27.3042 C   0  0  0  0  0  0  0  0  0  0  0  0
  -21.8327  -22.0942   25.9116 C   0  0  0  0  0  0  0  0  0  0  0  0
  -31.3190  -24.8712   18.8511 C   0  0  0  0  0  0  0  0  0  0  0  0
  -24.8668  -25.6695   20.2390 C   0  0  0  0  0  0  0  0  0  0  0  0
  -23.0115  -24.0494   19.5753 C   0  0  0  0  0  0  0  0  0  0  0  0
  -23.9471  -11.6649   20.3148 C   0  0  0  0  0  0  0  0  0  0  0  0
  -24.4151  -18.9809   20.6875 C   0  0  0  0  0  0  0  0  0  0  0  0
  -23.7849  -12.9239   20.9239 C   0  0  0  0  0  0  0  0  0  0  0  0
  -25.5484  -19.4462   21.3696 C   0  0  0  0  0  0  0  0  0  0  0  0
  -22.0846  -19.9902   27.7261 C   0  0  0  0  0  0  0  0  0  0  0  0
  -20.7002  -21.3977   26.3335 C   0  0  0  0  0  0  0  0  0  0  0  0
  -23.0911  -21.7387   26.3970 C   0  0  0  0  0  0  0  0  0  0  0  0
  -27.4628  -26.6854   20.1332 C   0  0  0  0  0  0  0  0  0  0  0  0
  -24.1399  -20.9525   22.6570 C   0  0  0  0  0  0  0  0  0  0  0  0
  -29.6309  -26.5562   19.2361 C   0  0  0  0  0  0  0  0  0  0  0  0
  -31.4447  -25.2992   17.5294 C   0  0  0  0  0  0  0  0  0  0  0  0
  -30.4121  -25.4998   19.7044 C   0  0  0  0  0  0  0  0  0  0  0  0
  -23.5261  -25.1447   20.2944 C   0  0  0  0  0  0  0  0  0  0  0  0
  -21.7018  -23.9584   19.9789 C   0  0  0  0  0  0  0  0  0  0  0  0
  -23.6594  -23.1908   18.6273 C   0  0  0  0  0  0  0  0  0  0  0  0
  -25.7048  -16.0800   20.8473 C   0  0  0  0  0  0  0  0  0  0  0  0
  -28.2104  -17.5394   19.3932 C   0  0  0  0  0  0  0  0  0  0  0  0
  -29.9036  -20.4320   18.7506 C   0  0  0  0  0  0  0  0  0  0  0  0
  -18.8368  -25.6814   24.9462 C   0  0  0  0  0  0  0  0  0  0  0  0
  -25.3081  -11.0412   20.1325 C   0  0  0  0  0  0  0  0  0  0  0  0
  -24.5493  -17.9450   19.6052 C   0  0  0  0  0  0  0  0  0  0  0  0
  -26.9258  -18.9126   21.0752 C   0  0  0  0  0  0  0  0  0  0  0  0
  -26.4563  -12.0406   20.2471 C   0  0  0  0  0  0  0  0  0  0  0  0
  -18.0883  -26.6424   21.6006 C   0  0  0  0  0  0  0  0  0  0  0  0
  -26.2649  -12.9361   21.4671 C   0  0  0  0  0  0  0  0  0  0  0  0
  -19.3506  -26.2687   20.8216 C   0  0  0  0  0  0  0  0  0  0  0  0
  -18.4201  -27.1561   22.9999 C   0  0  0  0  0  0  0  0  0  0  0  0
  -20.5303  -25.8833   23.0258 C   0  0  0  0  0  0  0  0  0  0  0  0
  -24.9741  -13.7559   21.3526 C   0  0  1  0  0  0  0  0  0  0  0  0
  -25.8086  -17.0951   19.7444 C   0  0  1  0  0  0  0  0  0  0  0  0
  -20.2435  -25.3071   21.6287 C   0  0  2  0  0  0  0  0  0  0  0  0
  -22.2185  -18.8654   28.6965 C   0  0  0  0  0  0  0  0  0  0  0  0
  -31.9358  -21.3029   17.5636 C   0  0  0  0  0  0  0  0  0  0  0  0
  -29.9791  -16.4551   21.6307 C   0  0  0  0  0  0  0  0  0  0  0  0
  -31.7381  -18.0980   20.9417 C   0  0  0  0  0  0  0  0  0  0  0  0
  -30.9917  -16.3307   19.3474 C   0  0  0  0  0  0  0  0  0  0  0  0
  -28.2733  -22.1491   16.9751 C   0  0  0  0  0  0  0  0  0  0  0  0
  -19.3547  -21.7786   25.8146 C   0  0  0  0  0  0  0  0  0  0  0  0
  -24.3169  -22.4921   25.9406 C   0  0  0  0  0  0  0  0  0  0  0  0
  -18.6229  -22.8411   26.6581 C   0  0  0  0  0  0  0  0  0  0  0  0
  -19.3897  -24.1518   26.8207 C   0  0  0  0  0  0  0  0  0  0  0  0
  -24.9451  -21.8771   24.6948 C   0  0  0  0  0  0  0  0  0  1  0  0
  -29.4473  -18.2639   19.8667 C   0  0  1  0  0  0  0  0  0  0  0  0
  -30.4460  -21.0159   17.4586 C   0  0  2  0  0  0  0  0  0  0  0  0
  -30.5130  -17.2958   20.4537 C   0  0  0  0  0  0  0  0  0  0  0  0
  -22.6174  -25.7093   21.0941 N   0  0  0  0  0  0  0  0  0  0  0  0
  -21.5185  -24.9658   20.8798 N   0  0  0  0  0  0  0  0  0  0  0  0
  -27.0044  -17.8965   20.0128 N   0  0  0  0  0  0  0  0  0  0  0  0
  -19.2676  -26.1973   23.7128 N   0  0  0  0  0  0  0  0  0  0  0  0
  -20.7005  -23.1159   19.6473 N   0  0  0  0  0  0  0  0  0  0  0  0
  -25.0085  -23.4242   18.3274 N   0  0  0  0  0  0  0  0  0  0  0  0
  -25.1626  -14.8723   20.4512 N   0  0  0  0  0  0  0  0  0  0  0  0
  -29.9170  -19.0533   18.7333 N   0  0  0  0  0  0  0  0  0  0  0  0
  -19.6969  -24.7738   25.5520 N   0  0  0  0  0  0  0  0  0  0  0  0
  -29.7441  -22.2889   17.1307 N   0  3  0  0  0  0  0  0  0  0  0  0
  -23.0554  -22.2549   18.0505 O   0  0  0  0  0  0  0  0  0  0  0  0
  -26.0896  -16.3705   21.9740 O   0  0  0  0  0  0  0  0  0  0  0  0
  -28.3096  -16.6930   18.5013 O   0  0  0  0  0  0  0  0  0  0  0  0
  -29.5109  -21.1292   19.6835 O   0  0  0  0  0  0  0  0  0  0  0  0
  -17.7626  -26.0017   25.4662 O   0  0  0  0  0  0  0  0  0  0  0  0
  -28.7296  -27.1807   20.0817 O   0  0  0  0  0  0  0  0  0  0  0  0
  -24.0093  -21.9072   23.6178 O   0  0  0  0  0  0  0  0  0  1  0  0
  -32.3145  -24.6947   16.7095 F   0  0  0  0  0  0  0  0  0  0  0  0
  -30.2949  -25.0835   20.9728 F   0  0  0  0  0  0  0  0  0  0  0  0
  1  2  1  0  0  0  0
  1  5  2  0  0  0  0
  2  6  2  0  0  0  0
  3  8  2  0  0  0  0
  3 18  1  0  0  0  0
  4  9  1  0  0  0  0
  4 18  2  0  0  0  0
  5 20  1  0  0  0  0
  6 22  1  0  0  0  0
  7 10  2  0  0  0  0
  7 21  1  0  0  0  0
  8 27  1  0  0  0  0
  9 27  2  0  0  0  0
 10 28  1  0  0  0  0
 11 12  2  0  0  0  0
 11 29  1  0  0  0  0
 12 30  1  0  0  0  0
 13 23  1  0  0  0  0
 13 28  2  0  0  0  0
 14 24  1  0  0  0  0
 14 25  2  0  0  0  0
 15 24  2  0  0  0  0
 15 26  1  0  0  0  0
 16 25  1  0  0  0  0
 16 26  2  0  0  0  0
 17 30  2  0  0  0  0
 17 31  1  0  0  0  0
 18 32  1  0  0  0  0
 19 32  1  0  0  0  0
 19 33  2  0  0  0  0
 19 34  1  0  0  0  0
 20 22  2  0  0  0  0
 20 39  1  0  0  0  0
 21 23  2  0  0  0  0
 21 40  1  0  0  0  0
 22 48  1  0  0  0  0
 23 41  1  0  0  0  0
 24 51  1  0  0  0  0
 25 57  1  0  0  0  0
 26 58  1  0  0  0  0
 27 80  1  0  0  0  0
 28 81  1  0  0  0  0
 29 31  2  0  0  0  0
 29 80  1  0  0  0  0
 30 82  1  0  0  0  0
 31 83  1  0  0  0  0
 32 65  2  0  0  0  0
 33 66  1  0  0  0  0
 33 69  1  0  0  0  0
 34 70  1  0  0  0  0
 34 75  2  0  0  0  0
 35 49  1  0  0  0  0
 35 71  1  0  0  0  0
 35 76  2  0  0  0  0
 36 62  1  0  0  0  0
 36 67  1  0  0  0  0
 36 77  2  0  0  0  0
 37 63  1  0  0  0  0
 37 72  1  0  0  0  0
 37 78  2  0  0  0  0
 38 68  1  0  0  0  0
 38 73  1  0  0  0  0
 38 79  2  0  0  0  0
 39 42  1  0  0  0  0
 40 49  1  0  0  0  0
 41 67  1  0  0  0  0
 42 44  1  0  0  0  0
 43 45  1  0  0  0  0
 43 46  1  0  0  0  0
 44 48  1  0  0  0  0
 45 50  1  0  0  0  0
 46 68  1  0  0  0  0
 47 50  1  0  0  0  0
 47 68  1  0  0  0  0
 48 71  1  0  0  0  0
 49 67  1  0  0  0  0
 50 66  1  0  0  0  0
 52 63  1  0  0  0  0
 53 64  1  0  0  0  0
 54 64  1  0  0  0  0
 55 64  1  0  0  0  0
 56 74  1  0  0  0  0
 57 59  1  0  0  0  0
 58 61  1  0  0  0  0
 59 60  1  0  0  0  0
 60 73  1  0  0  0  0
 61 81  1  0  0  0  0
 62 64  1  0  0  0  0
 62 72  1  0  0  0  0
 63 74  1  0  0  0  0
 65 66  1  0  0  0  0
M  CHG  1  74   1
M  ISO  4  38 100  61 101  73 100  81 101
M  END
> <Batch ID>
0040

> <Smiles>
CNC(C)C(=O)NC(C(=O)N1Cc2cc([101O:1][101CH2:1]Cc3cc(C)cc(CCC[100NH:0][100C:0](=O)N4CCCC(n5nc(-c6ccc(Oc7ccc(F)cc7F)cc6)c(C(N)=O)c5N)C4)c3)ccc2CC1C(=O)NC1CCCc2ccccc21)C(C)(C)C

> <Shape>
0.190

> <Color>
0.064

> <Negative vol penalty>
0.000

$$$$

  -OEChem-04052317073D

 82 90  0     1  0  0  0  0  0999 V2000
  -27.9182  -35.2264   23.1353 C   0  0  0  0  0  0  0  0  0  0  0  0
  -28.6313  -34.1951   22.5324 C   0  0  0  0  0  0  0  0  0  0  0  0
  -22.8757  -10.1705   19.9880 C   0  0  0  0  0  0  0  0  0  0  0  0
  -23.7167   -9.9767   22.2446 C   0  0  0  0  0  0  0  0  0  0  0  0
  -26.7321  -34.9487   23.8133 C   0  0  0  0  0  0  0  0  0  0  0  0
  -28.1590  -32.8852   22.6082 C   0  0  0  0  0  0  0  0  0  0  0  0
  -27.9691  -26.7926   18.8452 C   0  0  0  0  0  0  0  0  0  0  0  0
  -22.0493   -9.0673   20.2012 C   0  0  0  0  0  0  0  0  0  0  0  0
  -22.8902   -8.8734   22.4578 C   0  0  0  0  0  0  0  0  0  0  0  0
  -28.2683  -25.4370   18.9745 C   0  0  0  0  0  0  0  0  0  0  0  0
  -22.8869   -5.5791   21.6973 C   0  0  0  0  0  0  0  0  0  0  0  0
  -23.4419   -4.4660   22.3285 C   0  0  0  0  0  0  0  0  0  0  0  0
  -26.1661  -25.0870   20.1047 C   0  0  0  0  0  0  0  0  0  0  0  0
  -21.8238   -4.6702   24.1111 C   0  0  0  0  0  0  0  0  0  0  0  0
  -29.3100  -20.6602   20.6136 C   0  0  0  0  0  0  0  0  0  0  0  0
  -23.7095  -10.6252   21.0097 C   0  0  0  0  0  0  0  0  0  0  0  0
  -24.2529  -13.1176   21.0223 C   0  0  0  0  0  0  0  0  0  0  0  0
  -26.2400  -33.6361   23.8893 C   0  0  0  0  0  0  0  0  0  0  0  0
  -26.7690  -27.3084   19.3552 C   0  0  0  0  0  0  0  0  0  0  0  0
  -26.9659  -32.5895   23.2891 C   0  0  0  0  0  0  0  0  0  0  0  0
  -25.8529  -26.4490   19.9783 C   0  0  0  0  0  0  0  0  0  0  0  0
  -22.0565   -8.4188   21.4361 C   0  0  0  0  0  0  0  0  0  0  0  0
  -27.3680  -24.5845   19.6069 C   0  0  0  0  0  0  0  0  0  0  0  0
  -21.8004   -6.2378   22.2729 C   0  0  0  0  0  0  0  0  0  0  0  0
  -22.9103   -4.0115   23.5354 C   0  0  0  0  0  0  0  0  0  0  0  0
  -21.2689   -5.7833   23.4798 C   0  0  0  0  0  0  0  0  0  0  0  0
  -24.5639  -11.7644   20.7899 C   0  0  0  0  0  0  0  0  0  0  0  0
  -29.0231  -21.3335   19.4110 C   0  0  0  0  0  0  0  0  0  0  0  0
  -29.3040  -19.3298   20.2721 C   0  0  0  0  0  0  0  0  0  0  0  0
  -25.3890  -13.7984   20.6583 C   0  0  0  0  0  0  0  0  0  0  0  0
  -23.0452  -13.7066   21.5225 C   0  0  0  0  0  0  0  0  0  0  0  0
  -26.0138  -29.4612   21.5685 C   0  0  0  0  0  0  0  0  0  0  0  0
  -23.0005  -28.9465   20.4835 C   0  0  0  0  0  0  0  0  0  0  0  0
  -20.8038  -26.8601   18.9125 C   0  0  0  0  0  0  0  0  0  0  0  0
  -30.9411  -14.3632   20.6788 C   0  0  0  0  0  0  0  0  0  0  0  0
  -24.9779  -33.3782   24.6736 C   0  0  0  0  0  0  0  0  0  0  0  0
  -26.4491  -28.7681   19.1840 C   0  0  0  0  0  0  0  0  0  0  0  0
  -24.5416  -26.9493   20.5249 C   0  0  0  0  0  0  0  0  0  0  0  0
  -24.3507  -32.0162   24.3878 C   0  0  0  0  0  0  0  0  0  0  0  0
  -29.5252  -12.2274   18.2068 C   0  0  0  0  0  0  0  0  0  0  0  0
  -25.4143  -30.9230   24.4121 C   0  0  0  0  0  0  0  0  0  0  0  0
  -28.0853  -12.0234   18.6810 C   0  0  0  0  0  0  0  0  0  0  0  0
  -30.5006  -12.3005   19.3796 C   0  0  0  0  0  0  0  0  0  0  0  0
  -28.7171  -13.0949   20.8836 C   0  0  0  0  0  0  0  0  0  0  0  0
  -26.4731  -31.1592   23.3283 C   0  0  1  0  0  0  0  0  0  0  0  0
  -25.4288  -29.2790   20.1966 C   0  0  1  0  0  0  0  0  0  0  0  0
  -27.6896  -13.0709   19.7390 C   0  0  2  0  0  0  0  0  0  0  0  0
  -27.4632  -17.7532   17.8164 C   0  0  0  0  0  0  0  0  0  0  0  0
  -18.4012  -26.6996   18.2059 C   0  0  0  0  0  0  0  0  0  0  0  0
  -22.1917  -28.3810   23.3708 C   0  0  0  0  0  0  0  0  0  0  0  0
  -20.0935  -27.3260   22.5030 C   0  0  0  0  0  0  0  0  0  0  0  0
  -20.5430  -29.7418   22.0729 C   0  0  0  0  0  0  0  0  0  0  0  0
  -21.5387  -26.6339   16.0546 C   0  0  0  0  0  0  0  0  0  0  0  0
  -28.9022  -22.8139   19.1984 C   0  0  0  0  0  0  0  0  0  1  0  0
  -29.5347  -18.1207   21.0836 C   0  0  0  0  0  0  0  0  0  0  0  0
  -31.0087  -17.6513   21.1554 C   0  0  0  0  0  0  0  0  0  0  0  0
  -28.9101  -18.1099   18.1109 C   0  0  0  0  0  0  0  0  0  0  0  0
  -31.2283  -16.4220   22.0345 C   0  0  0  0  0  0  0  0  0  0  0  0
  -21.8855  -27.9920   20.8368 C   0  0  1  0  0  0  0  0  0  0  0  0
  -19.8079  -27.1040   17.7930 C   0  0  2  0  0  0  0  0  0  0  0  0
  -21.2039  -28.3508   22.1874 C   0  0  0  0  0  0  0  0  0  0  0  0
  -25.8005  -11.5937   20.3149 N   0  0  0  0  0  0  0  0  0  0  0  0
  -28.8479  -20.4997   18.3824 N   0  0  0  0  0  0  0  0  0  0  0  0
  -29.0251  -19.2888   18.9377 N   0  0  0  0  0  0  0  0  0  0  0  0
  -26.2766  -12.8486   20.2458 N   0  0  0  0  0  0  0  0  0  0  0  0
  -24.2773  -28.3856   20.3387 N   0  0  0  0  0  0  0  0  0  0  0  0
  -30.0690  -13.3136   20.3457 N   0  0  0  0  0  0  0  0  0  0  0  0
  -25.7052  -15.1108   20.6540 N   0  0  0  0  0  0  0  0  0  0  0  0
  -21.9750  -12.8621   21.8480 N   0  0  0  0  0  0  0  0  0  0  0  0
  -25.9667  -30.7622   22.0320 N   0  0  0  0  0  0  0  0  0  0  0  0
  -20.9788  -27.9826   19.6939 N   0  0  0  0  0  0  0  0  0  0  0  0
  -30.4513  -15.2836   21.5973 N   0  0  0  0  0  0  0  0  0  0  0  0
  -20.1863  -26.3202   16.5833 N   0  3  0  0  0  0  0  0  0  0  0  0
  -22.9130  -14.9463   21.6608 O   0  0  0  0  0  0  0  0  0  0  0  0
  -26.4726  -28.4929   22.1632 O   0  0  0  0  0  0  0  0  0  0  0  0
  -22.7467  -30.1444   20.3344 O   0  0  0  0  0  0  0  0  0  0  0  0
  -21.3671  -25.7806   19.0795 O   0  0  0  0  0  0  0  0  0  0  0  0
  -32.0703  -14.4749   20.1896 O   0  0  0  0  0  0  0  0  0  0  0  0
  -21.2500   -7.3423   21.6446 O   0  0  0  0  0  0  0  0  0  0  0  0
  -27.6579  -23.2611   19.7350 O   0  0  0  0  0  0  0  0  0  1  0  0
  -23.4424   -2.9416   24.1407 F   0  0  0  0  0  0  0  0  0  0  0  0
  -20.2244   -6.4113   24.0370 F   0  0  0  0  0  0  0  0  0  0  0  0
  1  2  1  0  0  0  0
  1  5  2  0  0  0  0
  2  6  2  0  0  0  0
  3  8  2  0  0  0  0
  3 16  1  0  0  0  0
  4  9  1  0  0  0  0
  4 16  2  0  0  0  0
  5 18  1  0  0  0  0
  6 20  1  0  0  0  0
  7 10  2  0  0  0  0
  7 19  1  0  0  0  0
  8 22  1  0  0  0  0
  9 22  2  0  0  0  0
 10 23  1  0  0  0  0
 11 12  2  0  0  0  0
 11 24  1  0  0  0  0
 12 25  1  0  0  0  0
 13 21  1  0  0  0  0
 13 23  2  0  0  0  0
 14 25  2  0  0  0  0
 14 26  1  0  0  0  0
 15 28  1  0  0  0  0
 15 29  2  0  0  0  0
 16 27  1  0  0  0  0
 17 27  1  0  0  0  0
 17 30  2  0  0  0  0
 17 31  1  0  0  0  0
 18 20  2  0  0  0  0
 18 36  1  0  0  0  0
 19 21  2  0  0  0  0
 19 37  1  0  0  0  0
 20 45  1  0  0  0  0
 21 38  1  0  0  0  0
 22 79  1  0  0  0  0
 23 80  1  0  0  0  0
 24 26  2  0  0  0  0
 24 79  1  0  0  0  0
 25 81  1  0  0  0  0
 26 82  1  0  0  0  0
 27 62  2  0  0  0  0
 28 54  1  0  0  0  0
 28 63  2  0  0  0  0
 29 55  1  0  0  0  0
 29 64  1  0  0  0  0
 30 65  1  0  0  0  0
 30 68  1  0  0  0  0
 31 69  1  0  0  0  0
 31 74  2  0  0  0  0
 32 46  1  0  0  0  0
 32 70  1  0  0  0  0
 32 75  2  0  0  0  0
 33 59  1  0  0  0  0
 33 66  1  0  0  0  0
 33 76  2  0  0  0  0
 34 60  1  0  0  0  0
 34 71  1  0  0  0  0
 34 77  2  0  0  0  0
 35 67  1  0  0  0  0
 35 72  1  0  0  0  0
 35 78  2  0  0  0  0
 36 39  1  0  0  0  0
 37 46  1  0  0  0  0
 38 66  1  0  0  0  0
 39 41  1  0  0  0  0
 40 42  1  0  0  0  0
 40 43  1  0  0  0  0
 41 45  1  0  0  0  0
 42 47  1  0  0  0  0
 43 67  1  0  0  0  0
 44 47  1  0  0  0  0
 44 67  1  0  0  0  0
 45 70  1  0  0  0  0
 46 66  1  0  0  0  0
 47 65  1  0  0  0  0
 48 57  1  0  0  0  0
 49 60  1  0  0  0  0
 50 61  1  0  0  0  0
 51 61  1  0  0  0  0
 52 61  1  0  0  0  0
 53 73  1  0  0  0  0
 54 80  1  0  0  0  0
 55 56  1  0  0  0  0
 56 58  1  0  0  0  0
 57 64  1  0  0  0  0
 58 72  1  0  0  0  0
 59 61  1  0  0  0  0
 59 71  1  0  0  0  0
 60 73  1  0  0  0  0
 62 65  1  0  0  0  0
 63 64  1  0  0  0  0
M  CHG  1  73   1
M  ISO  4  35 100  54 101  72 100  80 101
M  END
> <Batch ID>
0040

> <Smiles>
CCn1nc([101CH2:1][101O:1]c2ccc3c(c2)CN(C(=O)C(NC(=O)C(C)NC)C(C)(C)C)C(C(=O)NC2CCCc4ccccc42)C3)cc1CCC[100NH:0][100C:0](=O)N1CCCC(n2nc(-c3ccc(Oc4ccc(F)cc4F)cc3)c(C(N)=O)c2N)C1

> <Shape>
0.412

> <Color>
0.205

> <Negative vol penalty>
0.000

$$$$

  -OEChem-04052317073D

 97106  0     1  0  0  0  0  0999 V2000
  -28.9214  -35.9335   25.0380 C   0  0  0  0  0  0  0  0  0  0  0  0
  -29.1876  -34.6604   24.5442 C   0  0  0  0  0  0  0  0  0  0  0  0
  -23.8891  -11.4855   20.4865 C   0  0  0  0  0  0  0  0  0  0  0  0
  -24.8269  -13.4289   21.5731 C   0  0  0  0  0  0  0  0  0  0  0  0
  -27.6284  -36.2686   25.4377 C   0  0  0  0  0  0  0  0  0  0  0  0
  -28.1611  -33.7213   24.4509 C   0  0  0  0  0  0  0  0  0  0  0  0
  -27.4835  -29.4242   20.1403 C   0  0  0  0  0  0  0  0  0  0  0  0
  -25.1743  -10.9985   20.2484 C   0  0  0  0  0  0  0  0  0  0  0  0
  -26.1121  -12.9419   21.3349 C   0  0  0  0  0  0  0  0  0  0  0  0
  -27.7957  -28.0656   20.1129 C   0  0  0  0  0  0  0  0  0  0  0  0
  -28.2781  -12.7897   18.7434 C   0  0  0  0  0  0  0  0  0  0  0  0
  -29.2309  -13.6854   18.2582 C   0  0  0  0  0  0  0  0  0  0  0  0
  -25.5265  -27.5377   20.7385 C   0  0  0  0  0  0  0  0  0  0  0  0
  -28.6386  -23.2670   21.2506 C   0  0  0  0  0  0  0  0  0  0  0  0
  -30.6009  -13.2838   20.2073 C   0  0  0  0  0  0  0  0  0  0  0  0
  -23.1177  -22.3703   21.0895 C   0  0  0  0  0  0  0  0  0  0  0  0
  -23.7154  -12.7007   21.1489 C   0  0  0  0  0  0  0  0  0  0  0  0
  -21.5824  -12.9626   22.5235 C   0  0  0  0  0  0  0  0  0  0  0  0
  -26.5835  -35.3362   25.3402 C   0  0  0  0  0  0  0  0  0  0  0  0
  -26.1911  -29.8508   20.4782 C   0  0  0  0  0  0  0  0  0  0  0  0
  -26.8532  -34.0438   24.8509 C   0  0  0  0  0  0  0  0  0  0  0  0
  -25.1998  -28.9021   20.7670 C   0  0  0  0  0  0  0  0  0  0  0  0
  -28.7559  -21.8821   21.2136 C   0  0  0  0  0  0  0  0  0  0  0  0
  -23.0760  -21.1672   20.4284 C   0  0  0  0  0  0  0  0  0  0  0  0
  -28.8143  -21.2274   19.9883 C   0  0  0  0  0  0  0  0  0  0  0  0
  -26.2858  -11.7266   20.6726 C   0  0  0  0  0  0  0  0  0  0  0  0
  -26.8179  -27.1223   20.4148 C   0  0  0  0  0  0  0  0  0  0  0  0
  -28.4866  -12.1411   19.9606 C   0  0  0  0  0  0  0  0  0  0  0  0
  -30.3924  -13.9324   18.9901 C   0  0  0  0  0  0  0  0  0  0  0  0
  -29.6480  -12.3881   20.6925 C   0  0  0  0  0  0  0  0  0  0  0  0
  -22.3881  -13.2046   21.3947 C   0  0  0  0  0  0  0  0  0  0  0  0
  -28.5840  -23.9458   20.0439 C   0  0  0  0  0  0  0  0  0  0  0  0
  -23.7564  -20.2748   21.2784 C   0  0  0  0  0  0  0  0  0  0  0  0
  -28.7516  -21.9974   18.8381 C   0  0  0  0  0  0  0  0  0  0  0  0
  -20.4257  -13.6603   22.2757 C   0  0  0  0  0  0  0  0  0  0  0  0
  -21.8554  -12.1772   23.6916 C   0  0  0  0  0  0  0  0  0  0  0  0
  -24.9513  -31.6227   22.8078 C   0  0  0  0  0  0  0  0  0  0  0  0
  -22.2243  -31.2841   21.0843 C   0  0  0  0  0  0  0  0  0  0  0  0
  -20.4431  -29.4723   18.8057 C   0  0  0  0  0  0  0  0  0  0  0  0
  -19.1953  -18.4452   18.8930 C   0  0  0  0  0  0  0  0  0  0  0  0
  -25.2119  -35.7292   25.8288 C   0  0  0  0  0  0  0  0  0  0  0  0
  -25.8634  -31.3188   20.4772 C   0  0  0  0  0  0  0  0  0  0  0  0
  -23.7919  -29.3075   21.1161 C   0  0  0  0  0  0  0  0  0  0  0  0
  -24.1034  -34.7967   25.3471 C   0  0  0  0  0  0  0  0  0  0  0  0
  -17.6950  -15.2239   18.6715 C   0  0  0  0  0  0  0  0  0  0  0  0
  -24.5122  -33.3393   25.5359 C   0  0  0  0  0  0  0  0  0  0  0  0
  -18.6550  -14.3193   19.4462 C   0  0  0  0  0  0  0  0  0  0  0  0
  -18.4420  -16.3065   17.8956 C   0  0  0  0  0  0  0  0  0  0  0  0
  -20.3283  -16.2160   19.4791 C   0  0  0  0  0  0  0  0  0  0  0  0
  -25.7612  -33.0055   24.7112 C   0  0  1  0  0  0  0  0  0  0  0  0
  -24.6500  -31.6607   21.3363 C   0  0  1  0  0  0  0  0  0  0  0  0
  -19.6180  -15.1431   20.3221 C   0  0  2  0  0  0  0  0  0  0  0  0
  -28.8142  -21.1240   22.4985 C   0  0  0  0  0  0  0  0  0  0  0  0
  -28.8111  -21.3512   17.4925 C   0  0  0  0  0  0  0  0  0  0  0  0
  -22.5460  -23.8955   26.7420 C   0  0  0  0  0  0  0  0  0  0  0  0
  -18.2299  -29.4238   17.6239 C   0  0  0  0  0  0  0  0  0  0  0  0
  -20.8891  -30.2650   23.6316 C   0  0  0  0  0  0  0  0  0  0  0  0
  -19.0346  -29.3595   22.2141 C   0  0  0  0  0  0  0  0  0  0  0  0
  -19.4804  -31.8134   22.2631 C   0  0  0  0  0  0  0  0  0  0  0  0
  -21.7257  -29.7051   16.1488 C   0  0  0  0  0  0  0  0  0  0  0  0
  -22.4555  -20.8868   19.1227 C   0  0  0  0  0  0  0  0  0  0  0  0
  -28.9426  -19.7428   19.9178 C   0  0  0  0  0  0  0  0  0  0  0  0
  -24.0174  -18.8049   21.0582 C   0  0  0  0  0  0  0  0  0  0  0  0
  -28.4588  -25.4410   20.0452 C   0  0  0  0  0  0  0  0  0  1  0  0
  -23.4908  -24.0022   25.5557 C   0  0  0  0  0  0  0  0  0  0  0  0
  -20.9559  -21.2611   19.0142 C   0  0  0  0  0  0  0  0  0  0  0  0
  -27.6397  -19.0052   19.5497 C   0  0  0  0  0  0  0  0  0  0  0  0
  -25.1799  -18.5326   20.0952 C   0  0  0  0  0  0  0  0  0  0  0  0
  -26.4866  -19.1965   20.5428 C   0  0  0  0  0  0  0  0  0  0  0  0
  -23.1648  -22.9623   24.4849 C   0  0  0  0  0  0  0  0  0  0  0  0
  -24.0926  -23.1019   23.2790 C   0  0  0  0  0  0  0  0  0  0  0  0
  -20.0537  -20.5020   19.9848 C   0  0  0  0  0  0  0  0  0  0  0  0
  -21.0934  -30.2844   21.0579 C   0  0  1  0  0  0  0  0  0  0  0  0
  -19.6761  -29.8903   17.5642 C   0  0  2  0  0  0  0  0  0  0  0  0
  -20.1513  -30.4227   22.2870 C   0  0  0  0  0  0  0  0  0  0  0  0
  -21.7934  -13.9943   20.4965 N   0  0  0  0  0  0  0  0  0  0  0  0
  -28.6377  -23.3445   18.8342 N   0  0  0  0  0  0  0  0  0  0  0  0
  -24.1982  -20.8610   22.3942 N   0  0  0  0  0  0  0  0  0  0  0  0
  -23.7945  -22.1348   22.2500 N   0  0  0  0  0  0  0  0  0  0  0  0
  -20.6017  -14.2545   21.0607 N   0  0  0  0  0  0  0  0  0  0  0  0
  -23.5224  -30.7549   21.1078 N   0  0  0  0  0  0  0  0  0  0  0  0
  -19.3369  -17.0520   18.7841 N   0  0  0  0  0  0  0  0  0  0  0  0
  -19.2852  -13.8174   22.9807 N   0  0  0  0  0  0  0  0  0  0  0  0
  -23.0933  -11.5267   23.7851 N   0  0  0  0  0  0  0  0  0  0  0  0
  -25.4129  -32.8208   23.3187 N   0  0  0  0  0  0  0  0  0  0  0  0
  -20.4266  -30.4561   19.7717 N   0  0  0  0  0  0  0  0  0  0  0  0
  -20.0794  -19.0736   19.7615 N   0  0  0  0  0  0  0  0  0  0  0  0
  -20.3073  -29.3097   16.3454 N   0  3  0  0  0  0  0  0  0  0  0  0
  -21.0196  -12.0427   24.6173 O   0  0  0  0  0  0  0  0  0  0  0  0
  -24.7766  -30.5837   23.4337 O   0  0  0  0  0  0  0  0  0  0  0  0
  -21.9655  -32.4902   21.0768 O   0  0  0  0  0  0  0  0  0  0  0  0
  -20.9980  -28.3806   18.9098 O   0  0  0  0  0  0  0  0  0  0  0  0
  -18.3406  -19.0813   18.2670 O   0  0  0  0  0  0  0  0  0  0  0  0
  -27.5400  -11.2516   20.4405 O   0  0  0  0  0  0  0  0  0  0  0  0
  -27.1201  -25.7957   20.3894 O   0  0  0  0  0  0  0  0  0  1  0  0
  -31.3080  -14.7914   18.5233 F   0  0  0  0  0  0  0  0  0  0  0  0
  -29.8544  -11.7671   21.8619 F   0  0  0  0  0  0  0  0  0  0  0  0
  1  2  1  0  0  0  0
  1  5  2  0  0  0  0
  2  6  2  0  0  0  0
  3  8  2  0  0  0  0
  3 17  1  0  0  0  0
  4  9  1  0  0  0  0
  4 17  2  0  0  0  0
  5 19  1  0  0  0  0
  6 21  1  0  0  0  0
  7 10  2  0  0  0  0
  7 20  1  0  0  0  0
  8 26  1  0  0  0  0
  9 26  2  0  0  0  0
 10 27  1  0  0  0  0
 11 12  2  0  0  0  0
 11 28  1  0  0  0  0
 12 29  1  0  0  0  0
 13 22  1  0  0  0  0
 13 27  2  0  0  0  0
 14 23  2  0  0  0  0
 14 32  1  0  0  0  0
 15 29  2  0  0  0  0
 15 30  1  0  0  0  0
 16 24  2  0  0  0  0
 16 79  1  0  0  0  0
 17 31  1  0  0  0  0
 18 31  1  0  0  0  0
 18 35  2  0  0  0  0
 18 36  1  0  0  0  0
 19 21  2  0  0  0  0
 19 41  1  0  0  0  0
 20 22  2  0  0  0  0
 20 42  1  0  0  0  0
 21 50  1  0  0  0  0
 22 43  1  0  0  0  0
 23 25  1  0  0  0  0
 23 53  1  0  0  0  0
 24 33  1  0  0  0  0
 24 61  1  0  0  0  0
 25 34  2  0  0  0  0
 25 62  1  0  0  0  0
 26 94  1  0  0  0  0
 27 95  1  0  0  0  0
 28 30  2  0  0  0  0
 28 94  1  0  0  0  0
 29 96  1  0  0  0  0
 30 97  1  0  0  0  0
 31 76  2  0  0  0  0
 32 64  1  0  0  0  0
 32 77  2  0  0  0  0
 33 63  1  0  0  0  0
 33 78  2  0  0  0  0
 34 54  1  0  0  0  0
 34 77  1  0  0  0  0
 35 80  1  0  0  0  0
 35 83  1  0  0  0  0
 36 84  1  0  0  0  0
 36 89  2  0  0  0  0
 37 51  1  0  0  0  0
 37 85  1  0  0  0  0
 37 90  2  0  0  0  0
 38 73  1  0  0  0  0
 38 81  1  0  0  0  0
 38 91  2  0  0  0  0
 39 74  1  0  0  0  0
 39 86  1  0  0  0  0
 39 92  2  0  0  0  0
 40 82  1  0  0  0  0
 40 87  1  0  0  0  0
 40 93  2  0  0  0  0
 41 44  1  0  0  0  0
 42 51  1  0  0  0  0
 43 81  1  0  0  0  0
 44 46  1  0  0  0  0
 45 47  1  0  0  0  0
 45 48  1  0  0  0  0
 46 50  1  0  0  0  0
 47 52  1  0  0  0  0
 48 82  1  0  0  0  0
 49 52  1  0  0  0  0
 49 82  1  0  0  0  0
 50 85  1  0  0  0  0
 51 81  1  0  0  0  0
 52 80  1  0  0  0  0
 55 65  1  0  0  0  0
 56 74  1  0  0  0  0
 57 75  1  0  0  0  0
 58 75  1  0  0  0  0
 59 75  1  0  0  0  0
 60 88  1  0  0  0  0
 61 66  1  0  0  0  0
 62 67  1  0  0  0  0
 63 68  1  0  0  0  0
 64 95  1  0  0  0  0
 65 70  1  0  0  0  0
 66 72  1  0  0  0  0
 67 69  1  0  0  0  0
 68 69  1  0  0  0  0
 70 71  1  0  0  0  0
 71 79  1  0  0  0  0
 72 87  1  0  0  0  0
 73 75  1  0  0  0  0
 73 86  1  0  0  0  0
 74 88  1  0  0  0  0
 76 80  1  0  0  0  0
 78 79  1  0  0  0  0
M  CHG  1  88   1
M  ISO  4  40 100  64 101  87 100  95 101
M  END
> <Batch ID>
0040

> <Smiles>
CCCCn1cc(CCC[100NH:0][100C:0](=O)N2CCCC(n3nc(-c4ccc(Oc5ccc(F)cc5F)cc4)c(C(N)=O)c3N)C2)c(CCCCCc2c(C)cc([101CH2:1][101O:1]c3ccc4c(c3)CN(C(=O)C(NC(=O)C(C)NC)C(C)(C)C)C(C(=O)NC3CCCc5ccccc53)C4)nc2C)n1

> <Shape>
0.265

> <Color>
0.087

> <Negative vol penalty>
0.000

$$$$

  -OEChem-04052317073D

 84 92  0     1  0  0  0  0  0999 V2000
  -13.2137  -21.9238   22.9654 C   0  0  0  0  0  0  0  0  0  0  0  0
  -14.4132  -21.8537   22.2643 C   0  0  0  0  0  0  0  0  0  0  0  0
  -22.9595  -10.0135   19.9163 C   0  0  0  0  0  0  0  0  0  0  0  0
  -23.9334   -9.6747   22.1012 C   0  0  0  0  0  0  0  0  0  0  0  0
  -12.5910  -23.1564   23.1576 C   0  0  0  0  0  0  0  0  0  0  0  0
  -14.9902  -23.0160   21.7539 C   0  0  0  0  0  0  0  0  0  0  0  0
  -19.9743  -23.2523   22.6188 C   0  0  0  0  0  0  0  0  0  0  0  0
  -22.2100   -8.8472   20.0695 C   0  0  0  0  0  0  0  0  0  0  0  0
  -23.1839   -8.5084   22.2545 C   0  0  0  0  0  0  0  0  0  0  0  0
  -20.8004  -22.4891   21.7949 C   0  0  0  0  0  0  0  0  0  0  0  0
  -23.3255   -5.2994   21.1993 C   0  0  0  0  0  0  0  0  0  0  0  0
  -23.9767   -4.1715   21.6985 C   0  0  0  0  0  0  0  0  0  0  0  0
  -21.3075  -24.4552   20.4924 C   0  0  0  0  0  0  0  0  0  0  0  0
  -22.4506   -4.1189   23.5707 C   0  0  0  0  0  0  0  0  0  0  0  0
  -24.6314  -21.5344   19.6120 C   0  0  0  0  0  0  0  0  0  0  0  0
  -23.8213  -10.4273   20.9322 C   0  0  0  0  0  0  0  0  0  0  0  0
  -24.2223  -12.9377   21.1437 C   0  0  0  0  0  0  0  0  0  0  0  0
  -13.1655  -24.3356   22.6577 C   0  0  0  0  0  0  0  0  0  0  0  0
  -19.7998  -24.6228   22.3787 C   0  0  0  0  0  0  0  0  0  0  0  0
  -14.3739  -24.2654   21.9385 C   0  0  0  0  0  0  0  0  0  0  0  0
  -20.4807  -25.2341   21.3163 C   0  0  0  0  0  0  0  0  0  0  0  0
  -22.3222   -8.0946   21.2386 C   0  0  0  0  0  0  0  0  0  0  0  0
  -21.4649  -23.0899   20.7297 C   0  0  0  0  0  0  0  0  0  0  0  0
  -22.2368   -5.8372   21.8858 C   0  0  0  0  0  0  0  0  0  0  0  0
  -23.5393   -3.5812   22.8842 C   0  0  0  0  0  0  0  0  0  0  0  0
  -21.7993   -5.2469   23.0715 C   0  0  0  0  0  0  0  0  0  0  0  0
  -24.5962  -11.6317   20.7743 C   0  0  0  0  0  0  0  0  0  0  0  0
  -25.7498  -21.7564   20.3778 C   0  0  0  0  0  0  0  0  0  0  0  0
  -23.6067  -22.2374   20.2735 C   0  0  0  0  0  0  0  0  0  1  0  0
  -25.2960  -13.7162   20.7867 C   0  0  0  0  0  0  0  0  0  0  0  0
  -23.0125  -13.4052   21.7549 C   0  0  0  0  0  0  0  0  0  0  0  0
  -17.3216  -26.4743   21.6478 C   0  0  0  0  0  0  0  0  0  0  0  0
  -19.4881  -28.8582   22.0295 C   0  0  0  0  0  0  0  0  0  0  0  0
  -22.7603  -29.8276   22.0239 C   0  0  0  0  0  0  0  0  0  0  0  0
  -30.7998  -14.6171   20.5813 C   0  0  0  0  0  0  0  0  0  0  0  0
  -12.4313  -25.6390   22.8497 C   0  0  0  0  0  0  0  0  0  0  0  0
  -18.9262  -25.4375   23.2929 C   0  0  0  0  0  0  0  0  0  0  0  0
  -20.3430  -26.7060   21.0283 C   0  0  0  0  0  0  0  0  0  0  0  0
  -13.2994  -26.8696   22.6004 C   0  0  0  0  0  0  0  0  0  0  0  0
  -29.3732  -12.6232   17.9995 C   0  0  0  0  0  0  0  0  0  0  0  0
  -14.0948  -26.7090   21.3088 C   0  0  0  0  0  0  0  0  0  0  0  0
  -27.9755  -12.2903   18.5244 C   0  0  0  0  0  0  0  0  0  0  0  0
  -30.4060  -12.6531   19.1239 C   0  0  0  0  0  0  0  0  0  0  0  0
  -28.6661  -13.2015   20.7809 C   0  0  0  0  0  0  0  0  0  0  0  0
  -15.0436  -25.5071   21.3910 C   0  0  1  0  0  0  0  0  0  0  0  0
  -18.4176  -26.7218   22.6454 C   0  0  1  0  0  0  0  0  0  0  0  0
  -27.5800  -13.2148   19.6916 C   0  0  2  0  0  0  0  0  0  0  0  0
  -26.5203  -24.5196   22.2954 C   0  0  0  0  0  0  0  0  0  0  0  0
  -24.2169  -31.8476   22.3325 C   0  0  0  0  0  0  0  0  0  0  0  0
  -18.7093  -29.8417   19.2481 C   0  0  0  0  0  0  0  0  0  0  0  0
  -20.7984  -31.2214   19.2271 C   0  0  0  0  0  0  0  0  0  0  0  0
  -19.0379  -31.6530   20.9409 C   0  0  0  0  0  0  0  0  0  0  0  0
  -24.1456  -28.6181   24.3427 C   0  0  0  0  0  0  0  0  0  0  0  0
  -27.1406  -21.2939   20.2178 C   0  0  0  0  0  0  0  0  0  0  0  0
  -27.4643  -19.9473   20.9066 C   0  0  0  0  0  0  0  0  0  0  0  0
  -28.9354  -19.5477   20.7546 C   0  0  0  0  0  0  0  0  0  0  0  0
  -29.2273  -18.2256   21.4689 C   0  0  0  0  0  0  0  0  0  0  0  0
  -30.7063  -17.8462   21.3503 C   0  0  0  0  0  0  0  0  0  0  0  0
  -26.1592  -23.0569   22.4888 C   0  0  0  0  0  0  0  0  0  0  0  0
  -31.0442  -16.5630   22.1021 C   0  0  0  0  0  0  0  0  0  0  0  0
  -20.4625  -29.5723   21.1242 C   0  0  1  0  0  0  0  0  0  0  0  0
  -23.5687  -30.6506   23.0106 C   0  0  2  0  0  0  0  0  0  0  0  0
  -19.7533  -30.5439   20.1391 C   0  0  0  0  0  0  0  0  0  0  0  0
  -25.8124  -11.5796   20.2246 N   0  0  0  0  0  0  0  0  0  0  0  0
  -24.0359  -22.8595   21.3747 N   0  0  0  0  0  0  0  0  0  0  0  0
  -25.3428  -22.5481   21.4112 N   0  0  0  0  0  0  0  0  0  0  0  0
  -26.2120  -12.8625   20.2459 N   0  0  0  0  0  0  0  0  0  0  0  0
  -19.4726  -27.4587   21.9466 N   0  0  0  0  0  0  0  0  0  0  0  0
  -29.9716  -13.5492   20.1982 N   0  0  0  0  0  0  0  0  0  0  0  0
  -25.5365  -15.0409   20.8857 N   0  0  0  0  0  0  0  0  0  0  0  0
  -22.0116  -12.4714   22.0555 N   0  0  0  0  0  0  0  0  0  0  0  0
  -16.2135  -25.8394   22.1755 N   0  0  0  0  0  0  0  0  0  0  0  0
  -21.4371  -30.2148   21.9993 N   0  0  0  0  0  0  0  0  0  0  0  0
  -30.3100  -15.4217   21.6028 N   0  0  0  0  0  0  0  0  0  0  0  0
  -24.6430  -29.8181   23.6219 N   0  3  0  0  0  0  0  0  0  0  0  0
  -22.8181  -14.6176   22.0115 O   0  0  0  0  0  0  0  0  0  0  0  0
  -17.4697  -26.8342   20.4858 O   0  0  0  0  0  0  0  0  0  0  0  0
  -18.7723  -29.5175   22.7875 O   0  0  0  0  0  0  0  0  0  0  0  0
  -23.2540  -28.9334   21.3405 O   0  0  0  0  0  0  0  0  0  0  0  0
  -31.8921  -14.8404   20.0485 O   0  0  0  0  0  0  0  0  0  0  0  0
  -21.5908   -6.9565   21.3885 O   0  0  0  0  0  0  0  0  0  0  0  0
  -22.2713  -22.3472   19.9236 O   0  0  0  0  0  0  0  0  0  1  0  0
  -24.1638   -2.4971   23.3627 F   0  0  0  0  0  0  0  0  0  0  0  0
  -20.7533   -5.7583   23.7349 F   0  0  0  0  0  0  0  0  0  0  0  0
  1  2  1  0  0  0  0
  1  5  2  0  0  0  0
  2  6  2  0  0  0  0
  3  8  2  0  0  0  0
  3 16  1  0  0  0  0
  4  9  1  0  0  0  0
  4 16  2  0  0  0  0
  5 18  1  0  0  0  0
  6 20  1  0  0  0  0
  7 10  2  0  0  0  0
  7 19  1  0  0  0  0
  8 22  1  0  0  0  0
  9 22  2  0  0  0  0
 10 23  1  0  0  0  0
 11 12  2  0  0  0  0
 11 24  1  0  0  0  0
 12 25  1  0  0  0  0
 13 21  1  0  0  0  0
 13 23  2  0  0  0  0
 14 25  2  0  0  0  0
 14 26  1  0  0  0  0
 15 28  2  0  0  0  0
 15 29  1  0  0  0  0
 16 27  1  0  0  0  0
 17 27  1  0  0  0  0
 17 30  2  0  0  0  0
 17 31  1  0  0  0  0
 18 20  2  0  0  0  0
 18 36  1  0  0  0  0
 19 21  2  0  0  0  0
 19 37  1  0  0  0  0
 20 45  1  0  0  0  0
 21 38  1  0  0  0  0
 22 81  1  0  0  0  0
 23 82  1  0  0  0  0
 24 26  2  0  0  0  0
 24 81  1  0  0  0  0
 25 83  1  0  0  0  0
 26 84  1  0  0  0  0
 27 64  2  0  0  0  0
 28 54  1  0  0  0  0
 28 66  1  0  0  0  0
 29 65  2  0  0  0  0
 29 82  1  0  0  0  0
 30 67  1  0  0  0  0
 30 70  1  0  0  0  0
 31 71  1  0  0  0  0
 31 76  2  0  0  0  0
 32 46  1  0  0  0  0
 32 72  1  0  0  0  0
 32 77  2  0  0  0  0
 33 61  1  0  0  0  0
 33 68  1  0  0  0  0
 33 78  2  0  0  0  0
 34 62  1  0  0  0  0
 34 73  1  0  0  0  0
 34 79  2  0  0  0  0
 35 69  1  0  0  0  0
 35 74  1  0  0  0  0
 35 80  2  0  0  0  0
 36 39  1  0  0  0  0
 37 46  1  0  0  0  0
 38 68  1  0  0  0  0
 39 41  1  0  0  0  0
 40 42  1  0  0  0  0
 40 43  1  0  0  0  0
 41 45  1  0  0  0  0
 42 47  1  0  0  0  0
 43 69  1  0  0  0  0
 44 47  1  0  0  0  0
 44 69  1  0  0  0  0
 45 72  1  0  0  0  0
 46 68  1  0  0  0  0
 47 67  1  0  0  0  0
 48 59  1  0  0  0  0
 49 62  1  0  0  0  0
 50 63  1  0  0  0  0
 51 63  1  0  0  0  0
 52 63  1  0  0  0  0
 53 75  1  0  0  0  0
 54 55  1  0  0  0  0
 55 56  1  0  0  0  0
 56 57  1  0  0  0  0
 57 58  1  0  0  0  0
 58 60  1  0  0  0  0
 59 66  1  0  0  0  0
 60 74  1  0  0  0  0
 61 63  1  0  0  0  0
 61 73  1  0  0  0  0
 62 75  1  0  0  0  0
 64 67  1  0  0  0  0
 65 66  1  0  0  0  0
M  CHG  1  75   1
M  ISO  4  29 101  35 100  74 100  82 101
M  END
> <Batch ID>
0040

> <Smiles>
CCn1n[101c:1]([101O:1]c2ccc3c(c2)CN(C(=O)C(NC(=O)C(C)NC)C(C)(C)C)C(C(=O)NC2CCCc4ccccc42)C3)cc1CCCCCC[100NH:0][100C:0](=O)N1CCCC(n2nc(-c3ccc(Oc4ccc(F)cc4F)cc3)c(C(N)=O)c2N)C1

> <Shape>
0.288

> <Color>
0.186

> <Negative vol penalty>
0.000

$$$$

  -OEChem-04052317073D

 85 93  0     1  0  0  0  0  0999 V2000
  -31.9239  -23.1740   16.1814 C   0  0  0  0  0  0  0  0  0  0  0  0
  -30.7872  -22.5974   16.7389 C   0  0  0  0  0  0  0  0  0  0  0  0
  -26.0103  -13.4185   19.2701 C   0  0  0  0  0  0  0  0  0  0  0  0
  -24.9166  -13.5896   21.4175 C   0  0  0  0  0  0  0  0  0  0  0  0
  -32.5487  -24.2424   16.8235 C   0  0  0  0  0  0  0  0  0  0  0  0
  -30.2752  -23.0881   17.9395 C   0  0  0  0  0  0  0  0  0  0  0  0
  -24.3804  -23.4168   19.5670 C   0  0  0  0  0  0  0  0  0  0  0  0
  -25.9717  -12.0272   19.3612 C   0  0  0  0  0  0  0  0  0  0  0  0
  -24.8779  -12.1983   21.5086 C   0  0  0  0  0  0  0  0  0  0  0  0
  -23.5787  -22.5956   20.3587 C   0  0  0  0  0  0  0  0  0  0  0  0
  -24.1663   -8.6896   22.1419 C   0  0  0  0  0  0  0  0  0  0  0  0
  -22.9755   -8.0995   22.5654 C   0  0  0  0  0  0  0  0  0  0  0  0
  -23.9938  -24.0282   22.2546 C   0  0  0  0  0  0  0  0  0  0  0  0
  -21.8203   -9.0800   20.6835 C   0  0  0  0  0  0  0  0  0  0  0  0
  -21.4174  -20.7700   25.2221 C   0  0  0  0  0  0  0  0  0  0  0  0
  -25.4828  -14.1998   20.2983 C   0  0  0  0  0  0  0  0  0  0  0  0
  -24.5467  -16.4799   19.6408 C   0  0  0  0  0  0  0  0  0  0  0  0
  -32.0385  -24.7527   18.0276 C   0  0  0  0  0  0  0  0  0  0  0  0
  -25.0047  -24.5457   20.1168 C   0  0  0  0  0  0  0  0  0  0  0  0
  -30.8945  -24.1634   18.5990 C   0  0  0  0  0  0  0  0  0  0  0  0
  -24.8009  -24.8636   21.4672 C   0  0  0  0  0  0  0  0  0  0  0  0
  -25.4054  -11.4171   20.4805 C   0  0  0  0  0  0  0  0  0  0  0  0
  -23.3876  -22.8997   21.7034 C   0  0  0  0  0  0  0  0  0  0  0  0
  -24.1841   -9.4750   20.9892 C   0  0  0  0  0  0  0  0  0  0  0  0
  -21.8025   -8.2947   21.8362 C   0  0  0  0  0  0  0  0  0  0  0  0
  -23.0112   -9.6701   20.2600 C   0  0  0  0  0  0  0  0  0  0  0  0
  -25.5230  -15.6370   20.2050 C   0  0  0  0  0  0  0  0  0  0  0  0
  -20.8834  -20.3124   24.0026 C   0  0  0  0  0  0  0  0  0  0  0  0
  -21.6761  -19.6249   25.9349 C   0  0  0  0  0  0  0  0  0  0  0  0
  -25.0537  -17.7466   19.7991 C   0  0  0  0  0  0  0  0  0  0  0  0
  -23.2936  -16.1476   19.0285 C   0  0  0  0  0  0  0  0  0  0  0  0
  -28.0196  -25.4694   20.5179 C   0  0  0  0  0  0  0  0  0  0  0  0
  -26.6324  -28.2206   21.5323 C   0  0  0  0  0  0  0  0  0  0  0  0
  -23.8901  -29.7691   22.8471 C   0  0  0  0  0  0  0  0  0  0  0  0
  -28.1365  -20.8892   23.5587 C   0  0  0  0  0  0  0  0  0  0  0  0
  -32.7756  -25.8782   18.7093 C   0  0  0  0  0  0  0  0  0  0  0  0
  -25.8448  -25.4363   19.2430 C   0  0  0  0  0  0  0  0  0  0  0  0
  -25.4323  -26.0754   22.1007 C   0  0  0  0  0  0  0  0  0  0  0  0
  -31.9525  -26.5817   19.7853 C   0  0  0  0  0  0  0  0  0  0  0  0
  -29.5644  -19.6251   20.5521 C   0  0  0  0  0  0  0  0  0  0  0  0
  -31.2670  -25.5596   20.6865 C   0  0  0  0  0  0  0  0  0  0  0  0
  -28.5771  -18.5462   20.1037 C   0  0  0  0  0  0  0  0  0  0  0  0
  -29.6990  -19.6700   22.0726 C   0  0  0  0  0  0  0  0  0  0  0  0
  -27.4381  -18.7307   22.3548 C   0  0  0  0  0  0  0  0  0  0  0  0
  -30.2946  -24.6837   19.8873 C   0  0  1  0  0  0  0  0  0  0  0  0
  -26.8472  -26.2735   20.0316 C   0  0  1  0  0  0  0  0  0  0  0  0
  -27.2265  -18.6844   20.8318 C   0  0  2  0  0  0  0  0  0  0  0  0
  -23.0694  -32.0178   23.6001 C   0  0  0  0  0  0  0  0  0  0  0  0
  -28.2887  -27.9686   24.0824 C   0  0  0  0  0  0  0  0  0  0  0  0
  -26.7680  -29.6448   25.1528 C   0  0  0  0  0  0  0  0  0  0  0  0
  -28.1313  -30.2902   23.1659 C   0  0  0  0  0  0  0  0  0  0  0  0
  -21.3728  -17.1811   25.4345 C   0  0  0  0  0  0  0  0  0  0  0  0
  -21.7115  -29.7737   20.8440 C   0  0  0  0  0  0  0  0  0  0  0  0
  -20.4165  -21.1445   22.8330 C   0  0  0  0  0  0  0  0  0  0  0  0
  -22.2398  -19.4300   27.2833 C   0  0  0  0  0  0  0  0  0  0  0  0
  -23.7798  -19.2951   27.3340 C   0  0  0  0  0  0  0  0  0  0  0  0
  -24.4971  -20.5543   26.8371 C   0  0  0  0  0  0  0  0  0  0  0  0
  -26.0173  -20.3974   26.9250 C   0  0  0  0  0  0  0  0  0  0  0  0
  -26.7336  -21.6707   26.4653 C   0  0  0  0  0  0  0  0  0  0  0  0
  -26.4548  -22.0045   25.0035 C   0  0  0  0  0  0  0  0  0  0  0  0
  -21.5339  -21.4154   21.8314 C   0  0  0  0  0  0  0  0  0  1  0  0
  -26.1510  -28.7480   22.8624 C   0  0  1  0  0  0  0  0  0  0  0  0
  -23.1576  -31.0356   22.4424 C   0  0  2  0  0  0  0  0  0  0  0  0
  -27.3243  -29.1389   23.8047 C   0  0  0  0  0  0  0  0  0  0  0  0
  -26.5710  -16.3114   20.6856 N   0  0  0  0  0  0  0  0  0  0  0  0
  -20.8070  -18.9803   23.9407 N   0  0  0  0  0  0  0  0  0  0  0  0
  -21.2965  -18.5911   25.1303 N   0  0  0  0  0  0  0  0  0  0  0  0
  -26.2562  -17.5914   20.4238 N   0  0  0  0  0  0  0  0  0  0  0  0
  -26.2501  -26.9116   21.2066 N   0  0  0  0  0  0  0  0  0  0  0  0
  -28.3831  -19.8036   22.7022 N   0  0  0  0  0  0  0  0  0  0  0  0
  -24.5839  -18.9668   19.4634 N   0  0  0  0  0  0  0  0  0  0  0  0
  -22.9264  -14.7974   18.9482 N   0  0  0  0  0  0  0  0  0  0  0  0
  -29.0681  -25.4041   19.6203 N   0  0  0  0  0  0  0  0  0  0  0  0
  -25.2367  -29.8440   22.5602 N   0  0  0  0  0  0  0  0  0  0  0  0
  -26.8615  -20.9442   24.1085 N   0  0  0  0  0  0  0  0  0  0  0  0
  -21.7737  -30.7127   21.9935 N   0  3  0  0  0  0  0  0  0  0  0  0
  -22.5298  -17.0209   18.5515 O   0  0  0  0  0  0  0  0  0  0  0  0
  -27.9767  -24.9482   21.6261 O   0  0  0  0  0  0  0  0  0  0  0  0
  -27.3162  -28.9460   20.8058 O   0  0  0  0  0  0  0  0  0  0  0  0
  -23.3249  -28.8107   23.3693 O   0  0  0  0  0  0  0  0  0  0  0  0
  -28.9876  -21.7490   23.8103 O   0  0  0  0  0  0  0  0  0  0  0  0
  -25.3673  -10.0594   20.5696 O   0  0  0  0  0  0  0  0  0  0  0  0
  -22.6061  -22.0994   22.4785 O   0  0  0  0  0  0  0  0  0  1  0  0
  -20.6593   -7.7268   22.2422 F   0  0  0  0  0  0  0  0  0  0  0  0
  -23.0223  -10.4226   19.1512 F   0  0  0  0  0  0  0  0  0  0  0  0
  1  2  1  0  0  0  0
  1  5  2  0  0  0  0
  2  6  2  0  0  0  0
  3  8  2  0  0  0  0
  3 16  1  0  0  0  0
  4  9  1  0  0  0  0
  4 16  2  0  0  0  0
  5 18  1  0  0  0  0
  6 20  1  0  0  0  0
  7 10  2  0  0  0  0
  7 19  1  0  0  0  0
  8 22  1  0  0  0  0
  9 22  2  0  0  0  0
 10 23  1  0  0  0  0
 11 12  2  0  0  0  0
 11 24  1  0  0  0  0
 12 25  1  0  0  0  0
 13 21  1  0  0  0  0
 13 23  2  0  0  0  0
 14 25  2  0  0  0  0
 14 26  1  0  0  0  0
 15 28  1  0  0  0  0
 15 29  2  0  0  0  0
 16 27  1  0  0  0  0
 17 27  1  0  0  0  0
 17 30  2  0  0  0  0
 17 31  1  0  0  0  0
 18 20  2  0  0  0  0
 18 36  1  0  0  0  0
 19 21  2  0  0  0  0
 19 37  1  0  0  0  0
 20 45  1  0  0  0  0
 21 38  1  0  0  0  0
 22 82  1  0  0  0  0
 23 83  1  0  0  0  0
 24 26  2  0  0  0  0
 24 82  1  0  0  0  0
 25 84  1  0  0  0  0
 26 85  1  0  0  0  0
 27 65  2  0  0  0  0
 28 54  1  0  0  0  0
 28 66  2  0  0  0  0
 29 55  1  0  0  0  0
 29 67  1  0  0  0  0
 30 68  1  0  0  0  0
 30 71  1  0  0  0  0
 31 72  1  0  0  0  0
 31 77  2  0  0  0  0
 32 46  1  0  0  0  0
 32 73  1  0  0  0  0
 32 78  2  0  0  0  0
 33 62  1  0  0  0  0
 33 69  1  0  0  0  0
 33 79  2  0  0  0  0
 34 63  1  0  0  0  0
 34 74  1  0  0  0  0
 34 80  2  0  0  0  0
 35 70  1  0  0  0  0
 35 75  1  0  0  0  0
 35 81  2  0  0  0  0
 36 39  1  0  0  0  0
 37 46  1  0  0  0  0
 38 69  1  0  0  0  0
 39 41  1  0  0  0  0
 40 42  1  0  0  0  0
 40 43  1  0  0  0  0
 41 45  1  0  0  0  0
 42 47  1  0  0  0  0
 43 70  1  0  0  0  0
 44 47  1  0  0  0  0
 44 70  1  0  0  0  0
 45 73  1  0  0  0  0
 46 69  1  0  0  0  0
 47 68  1  0  0  0  0
 48 63  1  0  0  0  0
 49 64  1  0  0  0  0
 50 64  1  0  0  0  0
 51 64  1  0  0  0  0
 52 67  1  0  0  0  0
 53 76  1  0  0  0  0
 54 61  1  0  0  0  0
 55 56  1  0  0  0  0
 56 57  1  0  0  0  0
 57 58  1  0  0  0  0
 58 59  1  0  0  0  0
 59 60  1  0  0  0  0
 60 75  1  0  0  0  0
 61 83  1  0  0  0  0
 62 64  1  0  0  0  0
 62 74  1  0  0  0  0
 63 76  1  0  0  0  0
 65 68  1  0  0  0  0
 66 67  1  0  0  0  0
M  CHG  1  76   1
M  ISO  4  35 100  61 101  75 100  83 101
M  END
> <Batch ID>
0040

> <Smiles>
CNC(C)C(=O)NC(C(=O)N1Cc2cc([101O:1][101CH2:1]Cc3cc(CCCCCC[100NH:0][100C:0](=O)N4CCCC(n5nc(-c6ccc(Oc7ccc(F)cc7F)cc6)c(C(N)=O)c5N)C4)n(C)n3)ccc2CC1C(=O)NC1CCCc2ccccc21)C(C)(C)C

> <Shape>
0.199

> <Color>
0.055

> <Negative vol penalty>
0.000

$$$$

  -OEChem-04052317073D

 83 91  0     1  0  0  0  0  0999 V2000
  -28.7144  -11.3841   21.5356 C   0  0  0  0  0  0  0  0  0  0  0  0
  -28.9672  -12.6663   21.0587 C   0  0  0  0  0  0  0  0  0  0  0  0
  -19.4170  -29.5722   21.7623 C   0  0  0  0  0  0  0  0  0  0  0  0
  -20.1069  -28.0881   23.5395 C   0  0  0  0  0  0  0  0  0  0  0  0
  -27.4213  -10.8651   21.4850 C   0  0  0  0  0  0  0  0  0  0  0  0
  -27.9272  -13.4299   20.5299 C   0  0  0  0  0  0  0  0  0  0  0  0
  -27.9890  -18.2129   22.1925 C   0  0  0  0  0  0  0  0  0  0  0  0
  -18.0826  -29.3814   22.1209 C   0  0  0  0  0  0  0  0  0  0  0  0
  -18.7724  -27.8973   23.8982 C   0  0  0  0  0  0  0  0  0  0  0  0
  -28.9123  -19.0784   21.6076 C   0  0  0  0  0  0  0  0  0  0  0  0
  -15.5284  -26.7363   25.0548 C   0  0  0  0  0  0  0  0  0  0  0  0
  -15.1079  -25.4328   25.3185 C   0  0  0  0  0  0  0  0  0  0  0  0
  -27.1696  -19.9791   20.2037 C   0  0  0  0  0  0  0  0  0  0  0  0
  -15.7121  -24.7832   23.0712 C   0  0  0  0  0  0  0  0  0  0  0  0
  -30.3779  -25.6656   20.1191 C   0  0  0  0  0  0  0  0  0  0  0  0
  -20.4291  -28.9255   22.4716 C   0  0  0  0  0  0  0  0  0  0  0  0
  -22.6857  -30.1097   22.5857 C   0  0  0  0  0  0  0  0  0  0  0  0
  -26.3631  -11.6264   20.9641 C   0  0  0  0  0  0  0  0  0  0  0  0
  -26.6491  -18.2164   21.7790 C   0  0  0  0  0  0  0  0  0  0  0  0
  -26.6190  -12.9202   20.4710 C   0  0  0  0  0  0  0  0  0  0  0  0
  -26.2307  -19.1144   20.7867 C   0  0  0  0  0  0  0  0  0  0  0  0
  -17.7603  -28.5440   23.1889 C   0  0  0  0  0  0  0  0  0  0  0  0
  -28.5033  -19.9597   20.6110 C   0  0  0  0  0  0  0  0  0  0  0  0
  -16.0406  -27.0634   23.7992 C   0  0  0  0  0  0  0  0  0  0  0  0
  -15.1998  -24.4562   24.3267 C   0  0  0  0  0  0  0  0  0  0  0  0
  -16.1325  -26.0868   22.8075 C   0  0  0  0  0  0  0  0  0  0  0  0
  -21.8077  -29.1217   22.1013 C   0  0  0  0  0  0  0  0  0  0  0  0
  -29.8928  -24.6765   20.9460 C   0  0  0  0  0  0  0  0  0  0  0  0
  -31.6605  -24.1213   19.0240 C   0  0  0  0  0  0  0  0  0  0  0  0
  -31.1760  -23.1321   19.8513 C   0  0  0  0  0  0  0  0  0  0  0  0
  -23.8678  -29.8707   21.9285 C   0  0  0  0  0  0  0  0  0  0  0  0
  -22.4536  -31.1504   23.5443 C   0  0  0  0  0  0  0  0  0  0  0  0
  -24.7081  -16.0825   20.4438 C   0  0  0  0  0  0  0  0  0  0  0  0
  -22.4780  -18.3887   20.9244 C   0  0  0  0  0  0  0  0  0  0  0  0
  -21.7841  -21.7008   21.3658 C   0  0  0  0  0  0  0  0  0  0  0  0
  -26.2258  -24.9656   19.4323 C   0  0  0  0  0  0  0  0  0  0  0  0
  -24.9911  -11.0050   20.8868 C   0  0  0  0  0  0  0  0  0  0  0  0
  -25.6599  -17.2951   22.4387 C   0  0  0  0  0  0  0  0  0  0  0  0
  -24.7994  -19.1717   20.3215 C   0  0  0  0  0  0  0  0  0  0  0  0
  -23.8748  -12.0202   20.6554 C   0  0  0  0  0  0  0  0  0  0  0  0
  -25.5808  -28.0817   17.8351 C   0  0  0  0  0  0  0  0  0  0  0  0
  -24.2574  -12.9898   19.5417 C   0  0  0  0  0  0  0  0  0  0  0  0
  -24.6199  -28.7907   18.7910 C   0  0  0  0  0  0  0  0  0  0  0  0
  -25.3193  -26.5780   17.7845 C   0  0  0  0  0  0  0  0  0  0  0  0
  -24.3567  -26.6142   20.0529 C   0  0  0  0  0  0  0  0  0  0  0  0
  -25.5126  -13.7887   19.9128 C   0  0  1  0  0  0  0  0  0  0  0  0
  -24.4285  -17.0262   21.5791 C   0  0  1  0  0  0  0  0  0  0  0  0
  -24.6179  -28.1248   20.1802 C   0  0  2  0  0  0  0  0  0  0  0  0
  -32.6477  -23.8206   17.9484 C   0  0  0  0  0  0  0  0  0  0  0  0
  -19.8656  -23.2848   21.6945 C   0  0  0  0  0  0  0  0  0  0  0  0
  -21.7861  -18.1617   17.9613 C   0  0  0  0  0  0  0  0  0  0  0  0
  -20.5927  -20.3551   18.1435 C   0  0  0  0  0  0  0  0  0  0  0  0
  -19.8120  -18.3978   19.4785 C   0  0  0  0  0  0  0  0  0  0  0  0
  -22.8057  -22.5742   24.0025 C   0  0  0  0  0  0  0  0  0  0  0  0
  -28.9067  -25.0002   22.0131 C   0  0  0  0  0  0  0  0  0  0  0  0
  -31.6222  -21.6974   19.7076 C   0  0  0  0  0  0  0  0  0  0  0  0
  -27.9339  -23.8532   22.3561 C   0  0  0  0  0  0  0  0  0  0  0  0
  -27.0395  -23.4210   21.1961 C   0  0  0  0  0  0  0  0  0  0  0  0
  -30.7489  -20.7358   20.5061 C   0  0  0  0  0  0  0  0  0  1  0  0
  -21.9622  -19.5604   20.1244 C   0  0  1  0  0  0  0  0  0  0  0  0
  -20.9134  -22.4212   22.3795 C   0  0  2  0  0  0  0  0  0  0  0  0
  -21.0657  -19.1166   18.9341 C   0  0  0  0  0  0  0  0  0  0  0  0
  -31.2704  -25.4058   19.1432 N   0  0  0  0  0  0  0  0  0  0  0  0
  -22.3829  -28.3153   21.2052 N   0  0  0  0  0  0  0  0  0  0  0  0
  -30.2833  -23.3920   20.8270 N   0  0  0  0  0  0  0  0  0  0  0  0
  -23.6350  -28.7962   21.1214 N   0  0  0  0  0  0  0  0  0  0  0  0
  -23.8712  -18.2467   20.9926 N   0  0  0  0  0  0  0  0  0  0  0  0
  -25.3323  -26.0075   19.1337 N   0  0  0  0  0  0  0  0  0  0  0  0
  -25.0733  -30.4771   21.9678 N   0  0  0  0  0  0  0  0  0  0  0  0
  -21.1814  -31.2537   24.1233 N   0  0  0  0  0  0  0  0  0  0  0  0
  -25.1814  -14.8471   20.8426 N   0  0  0  0  0  0  0  0  0  0  0  0
  -21.2974  -20.4436   21.0764 N   0  0  0  0  0  0  0  0  0  0  0  0
  -26.1775  -24.4867   20.7357 N   0  0  0  0  0  0  0  0  0  0  0  0
  -21.7481  -23.2967   23.2500 N   0  3  0  0  0  0  0  0  0  0  0  0
  -23.3430  -31.9747   23.8652 O   0  0  0  0  0  0  0  0  0  0  0  0
  -24.5076  -16.4477   19.2913 O   0  0  0  0  0  0  0  0  0  0  0  0
  -21.6745  -17.6315   21.4746 O   0  0  0  0  0  0  0  0  0  0  0  0
  -22.7928  -22.2046   20.8767 O   0  0  0  0  0  0  0  0  0  0  0  0
  -27.0123  -24.5005   18.6004 O   0  0  0  0  0  0  0  0  0  0  0  0
  -16.4584  -28.3578   23.5392 O   0  0  0  0  0  0  0  0  0  0  0  0
  -29.4026  -20.8051   20.0380 O   0  0  0  0  0  0  0  0  0  1  0  0
  -14.7974  -23.2041   24.5806 F   0  0  0  0  0  0  0  0  0  0  0  0
  -16.6249  -26.3948   21.5998 F   0  0  0  0  0  0  0  0  0  0  0  0
  1  2  1  0  0  0  0
  1  5  2  0  0  0  0
  2  6  2  0  0  0  0
  3  8  2  0  0  0  0
  3 16  1  0  0  0  0
  4  9  1  0  0  0  0
  4 16  2  0  0  0  0
  5 18  1  0  0  0  0
  6 20  1  0  0  0  0
  7 10  2  0  0  0  0
  7 19  1  0  0  0  0
  8 22  1  0  0  0  0
  9 22  2  0  0  0  0
 10 23  1  0  0  0  0
 11 12  2  0  0  0  0
 11 24  1  0  0  0  0
 12 25  1  0  0  0  0
 13 21  1  0  0  0  0
 13 23  2  0  0  0  0
 14 25  2  0  0  0  0
 14 26  1  0  0  0  0
 15 28  1  0  0  0  0
 15 63  2  0  0  0  0
 16 27  1  0  0  0  0
 17 27  1  0  0  0  0
 17 31  2  0  0  0  0
 17 32  1  0  0  0  0
 18 20  2  0  0  0  0
 18 37  1  0  0  0  0
 19 21  2  0  0  0  0
 19 38  1  0  0  0  0
 20 46  1  0  0  0  0
 21 39  1  0  0  0  0
 22 80  1  0  0  0  0
 23 81  1  0  0  0  0
 24 26  2  0  0  0  0
 24 80  1  0  0  0  0
 25 82  1  0  0  0  0
 26 83  1  0  0  0  0
 27 64  2  0  0  0  0
 28 55  1  0  0  0  0
 28 65  2  0  0  0  0
 29 30  2  0  0  0  0
 29 49  1  0  0  0  0
 29 63  1  0  0  0  0
 30 56  1  0  0  0  0
 30 65  1  0  0  0  0
 31 66  1  0  0  0  0
 31 69  1  0  0  0  0
 32 70  1  0  0  0  0
 32 75  2  0  0  0  0
 33 47  1  0  0  0  0
 33 71  1  0  0  0  0
 33 76  2  0  0  0  0
 34 60  1  0  0  0  0
 34 67  1  0  0  0  0
 34 77  2  0  0  0  0
 35 61  1  0  0  0  0
 35 72  1  0  0  0  0
 35 78  2  0  0  0  0
 36 68  1  0  0  0  0
 36 73  1  0  0  0  0
 36 79  2  0  0  0  0
 37 40  1  0  0  0  0
 38 47  1  0  0  0  0
 39 67  1  0  0  0  0
 40 42  1  0  0  0  0
 41 43  1  0  0  0  0
 41 44  1  0  0  0  0
 42 46  1  0  0  0  0
 43 48  1  0  0  0  0
 44 68  1  0  0  0  0
 45 48  1  0  0  0  0
 45 68  1  0  0  0  0
 46 71  1  0  0  0  0
 47 67  1  0  0  0  0
 48 66  1  0  0  0  0
 50 61  1  0  0  0  0
 51 62  1  0  0  0  0
 52 62  1  0  0  0  0
 53 62  1  0  0  0  0
 54 74  1  0  0  0  0
 55 57  1  0  0  0  0
 56 59  1  0  0  0  0
 57 58  1  0  0  0  0
 58 73  1  0  0  0  0
 59 81  1  0  0  0  0
 60 62  1  0  0  0  0
 60 72  1  0  0  0  0
 61 74  1  0  0  0  0
 64 66  1  0  0  0  0
M  CHG  1  74   1
M  ISO  4  36 100  59 101  73 100  81 101
M  END
> <Batch ID>
0040

> <Smiles>
CNC(C)C(=O)NC(C(=O)N1Cc2cc([101O:1][101CH2:1]Cc3nc(CCC[100NH:0][100C:0](=O)N4CCCC(n5nc(-c6ccc(Oc7ccc(F)cc7F)cc6)c(C(N)=O)c5N)C4)cnc3C)ccc2CC1C(=O)NC1CCCc2ccccc21)C(C)(C)C

> <Shape>
0.213

> <Color>
0.088

> <Negative vol penalty>
0.000

$$$$

  -OEChem-04052317073D

 92101  0     1  0  0  0  0  0999 V2000
  -33.8729  -32.3638   17.8553 C   0  0  0  0  0  0  0  0  0  0  0  0
  -32.4864  -32.2715   17.7873 C   0  0  0  0  0  0  0  0  0  0  0  0
  -24.1989   -8.5679   20.3512 C   0  0  0  0  0  0  0  0  0  0  0  0
  -23.0508  -10.4693   21.3018 C   0  0  0  0  0  0  0  0  0  0  0  0
  -34.6423  -31.2072   17.9757 C   0  0  0  0  0  0  0  0  0  0  0  0
  -31.8686  -31.0225   17.8385 C   0  0  0  0  0  0  0  0  0  0  0  0
  -26.4801  -29.6841   20.4229 C   0  0  0  0  0  0  0  0  0  0  0  0
  -23.1993   -7.7231   20.8334 C   0  0  0  0  0  0  0  0  0  0  0  0
  -22.0511   -9.6245   21.7841 C   0  0  0  0  0  0  0  0  0  0  0  0
  -25.1992  -29.5291   19.8947 C   0  0  0  0  0  0  0  0  0  0  0  0
  -21.1336   -5.0232   22.1246 C   0  0  0  0  0  0  0  0  0  0  0  0
  -21.5278   -3.8395   22.7483 C   0  0  0  0  0  0  0  0  0  0  0  0
  -25.5368  -27.1428   19.7920 C   0  0  0  0  0  0  0  0  0  0  0  0
  -22.7396   -5.1155   24.4038 C   0  0  0  0  0  0  0  0  0  0  0  0
  -24.1247   -9.9410   20.5854 C   0  0  0  0  0  0  0  0  0  0  0  0
  -25.5378  -11.0024   18.7457 C   0  0  0  0  0  0  0  0  0  0  0  0
  -34.0330  -29.9441   18.0381 C   0  0  0  0  0  0  0  0  0  0  0  0
  -27.3045  -28.5687   20.6298 C   0  0  0  0  0  0  0  0  0  0  0  0
  -32.6305  -29.8479   17.9585 C   0  0  0  0  0  0  0  0  0  0  0  0
  -26.8268  -27.2860   20.3254 C   0  0  0  0  0  0  0  0  0  0  0  0
  -20.7233  -25.9632   22.0559 C   0  0  0  0  0  0  0  0  0  0  0  0
  -22.1253   -8.2514   21.5499 C   0  0  0  0  0  0  0  0  0  0  0  0
  -24.7284  -28.2586   19.5765 C   0  0  0  0  0  0  0  0  0  0  0  0
  -21.5424   -6.2530   22.6404 C   0  0  0  0  0  0  0  0  0  0  0  0
  -22.3308   -3.8856   23.8879 C   0  0  0  0  0  0  0  0  0  0  0  0
  -22.3454   -6.2992   23.7800 C   0  0  0  0  0  0  0  0  0  0  0  0
  -25.1573  -10.8141   20.0880 C   0  0  0  0  0  0  0  0  0  0  0  0
  -20.8591  -25.2241   20.8654 C   0  0  0  0  0  0  0  0  0  0  0  0
  -20.7981  -27.2750   21.6560 C   0  0  0  0  0  0  0  0  0  0  0  0
  -26.5539  -11.9247   18.8030 C   0  0  0  0  0  0  0  0  0  0  0  0
  -25.0190  -10.3976   17.5537 C   0  0  0  0  0  0  0  0  0  0  0  0
  -30.1180  -27.6178   19.4968 C   0  0  0  0  0  0  0  0  0  0  0  0
  -27.9345  -16.1265   22.8712 C   0  0  0  0  0  0  0  0  0  0  0  0
  -29.7662  -25.2573   21.6938 C   0  0  0  0  0  0  0  0  0  0  0  0
  -27.6637  -23.3799   23.6177 C   0  0  0  0  0  0  0  0  0  0  0  0
  -34.9087  -28.7190   18.1207 C   0  0  0  0  0  0  0  0  0  0  0  0
  -28.6737  -28.7502   21.2254 C   0  0  0  0  0  0  0  0  0  0  0  0
  -27.6648  -26.0544   20.5475 C   0  0  0  0  0  0  0  0  0  0  0  0
  -34.1567  -27.4602   18.5454 C   0  0  0  0  0  0  0  0  0  0  0  0
  -30.0423  -13.4916   21.6654 C   0  0  0  0  0  0  0  0  0  0  0  0
  -32.8545  -27.3266   17.7624 C   0  0  0  0  0  0  0  0  0  0  0  0
  -24.9180  -20.0994   23.2428 C   0  0  0  0  0  0  0  0  0  0  0  0
  -25.0679  -18.9912   20.9787 C   0  0  0  0  0  0  0  0  0  0  0  0
  -23.6047  -20.7624   22.8312 C   0  0  0  0  0  0  0  0  0  0  0  0
  -23.7545  -19.6539   20.5674 C   0  0  0  0  0  0  0  0  0  0  0  0
  -29.0604  -12.5098   21.0275 C   0  0  0  0  0  0  0  0  0  0  0  0
  -29.4397  -14.1648   22.8945 C   0  0  0  0  0  0  0  0  0  0  0  0
  -27.1531  -13.8690   21.9969 C   0  0  0  0  0  0  0  0  0  0  0  0
  -31.9221  -28.5129   18.0358 C   0  0  1  0  0  0  0  0  0  0  0  0
  -29.6188  -27.5938   20.9139 C   0  0  1  0  0  0  0  0  0  0  0  0
  -25.1452  -18.7790   22.4958 C   0  0  0  0  0  0  0  0  0  0  0  0
  -23.5278  -20.9745   21.3140 C   0  0  0  0  0  0  0  0  0  0  0  0
  -27.7113  -13.1896   20.7339 C   0  0  2  0  0  0  0  0  0  0  0  0
  -20.7263  -28.5328   22.4234 C   0  0  0  0  0  0  0  0  0  0  0  0
  -19.1997  -25.8793   24.0621 C   0  0  0  0  0  0  0  0  0  0  0  0
  -21.7006  -25.8334   24.3758 C   0  0  0  0  0  0  0  0  0  0  0  0
  -27.6664  -21.5031   25.2836 C   0  0  0  0  0  0  0  0  0  0  0  0
  -30.2377  -23.2583   19.4373 C   0  0  0  0  0  0  0  0  0  0  0  0
  -29.3038  -21.4702   20.9201 C   0  0  0  0  0  0  0  0  0  0  0  0
  -31.3749  -22.6883   21.5905 C   0  0  0  0  0  0  0  0  0  0  0  0
  -26.4683  -25.0881   25.7182 C   0  0  0  0  0  0  0  0  0  0  0  0
  -20.8520  -23.7593   20.7053 C   0  0  0  0  0  0  0  0  0  0  0  0
  -26.5816  -16.6891   22.5145 C   0  0  0  0  0  0  0  0  0  0  0  0
  -26.4870  -18.1623   22.8862 C   0  0  0  0  0  0  0  0  0  0  0  0
  -22.1867  -21.5922   20.9227 C   0  0  0  0  0  0  0  0  0  0  0  0
  -22.1846  -23.1064   21.1324 C   0  0  0  0  0  0  0  0  0  0  0  0
  -21.1068  -28.4278   19.3780 C   0  0  0  0  0  0  0  0  0  0  0  0
  -22.4927  -29.0596   19.4501 C   0  0  0  0  0  0  0  0  0  1  0  0
  -20.5423  -25.4488   23.4244 C   0  0  0  0  0  0  0  0  0  0  0  0
  -29.1476  -23.8802   21.6936 C   0  0  1  0  0  0  0  0  0  0  0  0
  -27.7050  -23.0110   25.0897 C   0  0  2  0  0  0  0  0  0  0  0  0
  -30.0007  -22.8474   20.9043 C   0  0  0  0  0  0  0  0  0  0  0  0
  -25.8735  -11.5571   20.9360 N   0  0  0  0  0  0  0  0  0  0  0  0
  -21.0087  -26.0018   19.7899 N   0  0  0  0  0  0  0  0  0  0  0  0
  -20.9672  -27.2432   20.3030 N   0  0  0  0  0  0  0  0  0  0  0  0
  -26.7143  -12.2211   20.1246 N   0  0  0  0  0  0  0  0  0  0  0  0
  -28.9989  -26.2843   21.1261 N   0  0  0  0  0  0  0  0  0  0  0  0
  -28.1487  -14.7793   22.5796 N   0  0  0  0  0  0  0  0  0  0  0  0
  -27.3169  -12.5030   17.8512 N   0  0  0  0  0  0  0  0  0  0  0  0
  -23.9555  -11.0277   16.8932 N   0  0  0  0  0  0  0  0  0  0  0  0
  -31.2708  -28.3586   19.3189 N   0  0  0  0  0  0  0  0  0  0  0  0
  -28.9300  -23.5304   23.0932 N   0  0  0  0  0  0  0  0  0  0  0  0
  -26.5419  -23.6069   25.8059 N   0  3  0  0  0  0  0  0  0  0  0  0
  -25.4739   -9.3214   17.0973 O   0  0  0  0  0  0  0  0  0  0  0  0
  -29.5035  -27.0081   18.6294 O   0  0  0  0  0  0  0  0  0  0  0  0
  -28.7755  -16.8648   23.3906 O   0  0  0  0  0  0  0  0  0  0  0  0
  -30.8859  -25.4172   22.1861 O   0  0  0  0  0  0  0  0  0  0  0  0
  -26.6132  -23.5169   22.9946 O   0  0  0  0  0  0  0  0  0  0  0  0
  -21.1496   -7.4273   22.0204 O   0  0  0  0  0  0  0  0  0  0  0  0
  -23.4788  -28.1046   19.0602 O   0  0  0  0  0  0  0  0  0  1  0  0
  -22.7080   -2.7489   24.4877 F   0  0  0  0  0  0  0  0  0  0  0  0
  -22.7403   -7.4777   24.2809 F   0  0  0  0  0  0  0  0  0  0  0  0
  1  2  1  0  0  0  0
  1  5  2  0  0  0  0
  2  6  2  0  0  0  0
  3  8  2  0  0  0  0
  3 15  1  0  0  0  0
  4  9  1  0  0  0  0
  4 15  2  0  0  0  0
  5 17  1  0  0  0  0
  6 19  1  0  0  0  0
  7 10  2  0  0  0  0
  7 18  1  0  0  0  0
  8 22  1  0  0  0  0
  9 22  2  0  0  0  0
 10 23  1  0  0  0  0
 11 12  2  0  0  0  0
 11 24  1  0  0  0  0
 12 25  1  0  0  0  0
 13 20  1  0  0  0  0
 13 23  2  0  0  0  0
 14 25  2  0  0  0  0
 14 26  1  0  0  0  0
 15 27  1  0  0  0  0
 16 27  1  0  0  0  0
 16 30  2  0  0  0  0
 16 31  1  0  0  0  0
 17 19  2  0  0  0  0
 17 36  1  0  0  0  0
 18 20  2  0  0  0  0
 18 37  1  0  0  0  0
 19 49  1  0  0  0  0
 20 38  1  0  0  0  0
 21 28  1  0  0  0  0
 21 29  2  0  0  0  0
 21 69  1  0  0  0  0
 22 89  1  0  0  0  0
 23 90  1  0  0  0  0
 24 26  2  0  0  0  0
 24 89  1  0  0  0  0
 25 91  1  0  0  0  0
 26 92  1  0  0  0  0
 27 73  2  0  0  0  0
 28 62  1  0  0  0  0
 28 74  2  0  0  0  0
 29 54  1  0  0  0  0
 29 75  1  0  0  0  0
 30 76  1  0  0  0  0
 30 79  1  0  0  0  0
 31 80  1  0  0  0  0
 31 84  2  0  0  0  0
 32 50  1  0  0  0  0
 32 81  1  0  0  0  0
 32 85  2  0  0  0  0
 33 63  1  0  0  0  0
 33 78  1  0  0  0  0
 33 86  2  0  0  0  0
 34 70  1  0  0  0  0
 34 77  1  0  0  0  0
 34 87  2  0  0  0  0
 35 71  1  0  0  0  0
 35 82  1  0  0  0  0
 35 88  2  0  0  0  0
 36 39  1  0  0  0  0
 37 50  1  0  0  0  0
 38 77  1  0  0  0  0
 39 41  1  0  0  0  0
 40 46  1  0  0  0  0
 40 47  1  0  0  0  0
 41 49  1  0  0  0  0
 42 44  1  0  0  0  0
 42 51  1  0  0  0  0
 43 45  1  0  0  0  0
 43 51  1  0  0  0  0
 44 52  1  0  0  0  0
 45 52  1  0  0  0  0
 46 53  1  0  0  0  0
 47 78  1  0  0  0  0
 48 53  1  0  0  0  0
 48 78  1  0  0  0  0
 49 81  1  0  0  0  0
 50 77  1  0  0  0  0
 51 64  1  0  0  0  0
 52 65  1  0  0  0  0
 53 76  1  0  0  0  0
 55 69  1  0  0  0  0
 56 69  1  0  0  0  0
 57 71  1  0  0  0  0
 58 72  1  0  0  0  0
 59 72  1  0  0  0  0
 60 72  1  0  0  0  0
 61 83  1  0  0  0  0
 62 66  1  0  0  0  0
 63 64  1  0  0  0  0
 65 66  1  0  0  0  0
 67 68  1  0  0  0  0
 67 75  1  0  0  0  0
 68 90  1  0  0  0  0
 70 72  1  0  0  0  0
 70 82  1  0  0  0  0
 71 83  1  0  0  0  0
 73 76  1  0  0  0  0
 74 75  1  0  0  0  0
M  CHG  1  83   1
M  ISO  4  33 100  63 100  68 101  90 101
M  END
> <Batch ID>
0040

> <Smiles>
CNC(C)C(=O)NC(C(=O)N1Cc2cc([101O:1][101CH2:1]Cn3nc(CCCC4CCC(C[100CH2:0][100C:0](=O)N5CCCC(n6nc(-c7ccc(Oc8ccc(F)cc8F)cc7)c(C(N)=O)c6N)C5)CC4)c(C(C)C)c3C)ccc2CC1C(=O)NC1CCCc2ccccc21)C(C)(C)C

> <Shape>
0.234

> <Color>
0.080

> <Negative vol penalty>
0.000

$$$$

  -OEChem-04052317073D

 83 91  0     1  0  0  0  0  0999 V2000
  -17.7983  -28.7244   22.5693 C   0  0  0  0  0  0  0  0  0  0  0  0
  -17.7359  -27.3638   22.2860 C   0  0  0  0  0  0  0  0  0  0  0  0
  -29.1907  -23.3213   21.0803 C   0  0  0  0  0  0  0  0  0  0  0  0
  -28.2911  -23.0502   18.8545 C   0  0  0  0  0  0  0  0  0  0  0  0
  -18.9946  -29.2897   23.0088 C   0  0  0  0  0  0  0  0  0  0  0  0
  -18.8703  -26.5678   22.4410 C   0  0  0  0  0  0  0  0  0  0  0  0
  -19.0464  -20.7262   24.2714 C   0  0  0  0  0  0  0  0  0  0  0  0
  -29.4413  -24.6675   20.8151 C   0  0  0  0  0  0  0  0  0  0  0  0
  -28.5417  -24.3965   18.5893 C   0  0  0  0  0  0  0  0  0  0  0  0
  -19.1445  -19.5258   23.5692 C   0  0  0  0  0  0  0  0  0  0  0  0
  -27.6804  -27.5513   20.6894 C   0  0  0  0  0  0  0  0  0  0  0  0
  -27.3249  -28.4815   21.6661 C   0  0  0  0  0  0  0  0  0  0  0  0
  -21.5303  -19.5194   23.9253 C   0  0  0  0  0  0  0  0  0  0  0  0
  -26.7034  -11.9385   20.4335 C   0  0  0  0  0  0  0  0  0  0  0  0
  -25.1679  -13.5748   19.5678 C   0  0  0  0  0  0  0  0  0  0  0  0
  -29.6280  -29.1939   21.8259 C   0  0  0  0  0  0  0  0  0  0  0  0
  -28.6157  -22.5126   20.1000 C   0  0  0  0  0  0  0  0  0  0  0  0
  -27.1828  -20.5658   20.9153 C   0  0  0  0  0  0  0  0  0  0  0  0
  -20.1417  -28.4984   23.1785 C   0  0  0  0  0  0  0  0  0  0  0  0
  -20.1929  -21.3389   24.7974 C   0  0  0  0  0  0  0  0  0  0  0  0
  -20.0834  -27.1232   22.8819 C   0  0  0  0  0  0  0  0  0  0  0  0
  -21.4438  -20.7263   24.6360 C   0  0  0  0  0  0  0  0  0  0  0  0
  -26.3809  -12.9004   19.4827 C   0  0  0  0  0  0  0  0  0  0  0  0
  -29.1168  -25.2052   19.5697 C   0  0  0  0  0  0  0  0  0  0  0  0
  -20.3869  -18.9236   23.3936 C   0  0  0  0  0  0  0  0  0  0  0  0
  -29.0097  -27.4423   20.2810 C   0  0  0  0  0  0  0  0  0  0  0  0
  -28.2987  -29.3028   22.2343 C   0  0  0  0  0  0  0  0  0  0  0  0
  -29.9835  -28.2636   20.8492 C   0  0  0  0  0  0  0  0  0  0  0  0
  -28.3571  -21.1217   20.3732 C   0  0  0  0  0  0  0  0  0  0  0  0
  -25.7859  -11.6899   21.4415 C   0  0  0  0  0  0  0  0  0  0  0  0
  -24.3191  -13.2527   20.6145 C   0  0  0  0  0  0  0  0  0  0  0  0
  -27.4373  -19.2174   20.9757 C   0  0  0  0  0  0  0  0  0  0  0  0
  -25.9703  -21.2106   21.3273 C   0  0  0  0  0  0  0  0  0  0  0  0
  -21.6684  -24.1149   24.3279 C   0  0  0  0  0  0  0  0  0  0  0  0
  -23.5136  -23.1073   26.7981 C   0  0  0  0  0  0  0  0  0  0  0  0
  -24.7309  -20.4968   28.6285 C   0  0  0  0  0  0  0  0  0  0  0  0
  -29.4114  -14.5297   18.6792 C   0  0  0  0  0  0  0  0  0  0  0  0
  -21.4247  -29.1631   23.6107 C   0  0  0  0  0  0  0  0  0  0  0  0
  -20.0668  -22.6200   25.5754 C   0  0  0  0  0  0  0  0  0  0  0  0
  -22.7024  -21.3329   25.1985 C   0  0  0  0  0  0  0  0  0  0  0  0
  -22.4822  -28.1807   24.1077 C   0  0  0  0  0  0  0  0  0  0  0  0
  -31.7470  -16.6485   20.3323 C   0  0  0  0  0  0  0  0  0  0  0  0
  -22.6050  -26.9992   23.1508 C   0  0  0  0  0  0  0  0  0  0  0  0
  -30.9786  -17.9565   20.5292 C   0  0  0  0  0  0  0  0  0  0  0  0
  -31.3929  -15.9801   19.0057 C   0  0  0  0  0  0  0  0  0  0  0  0
  -29.1823  -17.0695   18.9848 C   0  0  0  0  0  0  0  0  0  0  0  0
  -21.2860  -26.2222   23.0615 C   0  0  1  0  0  0  0  0  0  0  0  0
  -21.3653  -23.4193   25.6248 C   0  0  1  0  0  0  0  0  0  0  0  0
  -29.4642  -17.7520   20.3342 C   0  0  2  0  0  0  0  0  0  0  0  0
  -26.0990  -10.6653   22.4803 C   0  0  0  0  0  0  0  0  0  0  0  0
  -26.2469  -19.9837   30.5614 C   0  0  0  0  0  0  0  0  0  0  0  0
  -25.9437  -23.5984   25.0195 C   0  0  0  0  0  0  0  0  0  0  0  0
  -27.2962  -22.2080   26.6025 C   0  0  0  0  0  0  0  0  0  0  0  0
  -26.2290  -24.3179   27.3976 C   0  0  0  0  0  0  0  0  0  0  0  0
  -22.5276  -19.2768   30.1828 C   0  0  0  0  0  0  0  0  0  0  0  0
  -27.3326  -13.2083   18.3767 C   0  0  0  0  0  0  0  0  0  0  0  0
  -22.9945  -13.9629   20.7368 C   0  0  0  0  0  0  0  0  0  0  0  0
  -23.0528  -15.2411   21.5806 C   0  0  0  0  0  0  0  0  0  0  0  0
  -21.6863  -15.9048   21.7570 C   0  0  0  0  0  0  0  0  0  0  0  0
  -21.7897  -17.1908   22.5658 C   0  0  0  0  0  0  0  0  0  1  0  0
  -24.7824  -22.2991   26.9246 C   0  0  1  0  0  0  0  0  0  0  0  0
  -24.8181  -20.2714   30.1272 C   0  0  2  0  0  0  0  0  0  0  0  0
  -26.0396  -23.0952   26.4736 C   0  0  0  0  0  0  0  0  0  0  0  0
  -29.2884  -20.2016   20.1082 N   0  0  0  0  0  0  0  0  0  0  0  0
  -24.5978  -12.3245   21.5570 N   0  0  0  0  0  0  0  0  0  0  0  0
  -28.6995  -19.0541   20.4855 N   0  0  0  0  0  0  0  0  0  0  0  0
  -22.5281  -22.5893   25.9460 N   0  0  0  0  0  0  0  0  0  0  0  0
  -29.9425  -15.8139   18.8840 N   0  0  0  0  0  0  0  0  0  0  0  0
  -26.7023  -18.1675   21.3998 N   0  0  0  0  0  0  0  0  0  0  0  0
  -25.8762  -22.6029   21.1966 N   0  0  0  0  0  0  0  0  0  0  0  0
  -21.1171  -25.3778   24.2246 N   0  0  0  0  0  0  0  0  0  0  0  0
  -24.8338  -21.8335   28.3062 N   0  0  0  0  0  0  0  0  0  0  0  0
  -28.0271  -14.4599   18.5813 N   0  0  0  0  0  0  0  0  0  0  0  0
  -23.9637  -19.1180   30.5281 N   0  3  0  0  0  0  0  0  0  0  0  0
  -25.0053  -20.5730   21.8127 O   0  0  0  0  0  0  0  0  0  0  0  0
  -22.3530  -23.5484   23.4840 O   0  0  0  0  0  0  0  0  0  0  0  0
  -23.3983  -24.1559   27.4375 O   0  0  0  0  0  0  0  0  0  0  0  0
  -24.5897  -19.5785   27.8239 O   0  0  0  0  0  0  0  0  0  0  0  0
  -30.1181  -13.5195   18.5956 O   0  0  0  0  0  0  0  0  0  0  0  0
  -29.3609  -26.5189   19.3106 O   0  0  0  0  0  0  0  0  0  0  0  0
  -20.4856  -17.7523   22.7080 O   0  0  0  0  0  0  0  0  0  1  0  0
  -27.9569  -30.1971   23.1711 F   0  0  0  0  0  0  0  0  0  0  0  0
  -31.2620  -28.1644   20.4600 F   0  0  0  0  0  0  0  0  0  0  0  0
  1  2  1  0  0  0  0
  1  5  2  0  0  0  0
  2  6  2  0  0  0  0
  3  8  2  0  0  0  0
  3 17  1  0  0  0  0
  4  9  1  0  0  0  0
  4 17  2  0  0  0  0
  5 19  1  0  0  0  0
  6 21  1  0  0  0  0
  7 10  2  0  0  0  0
  7 20  1  0  0  0  0
  8 24  1  0  0  0  0
  9 24  2  0  0  0  0
 10 25  1  0  0  0  0
 11 12  2  0  0  0  0
 11 26  1  0  0  0  0
 12 27  1  0  0  0  0
 13 22  1  0  0  0  0
 13 25  2  0  0  0  0
 14 23  1  0  0  0  0
 14 30  2  0  0  0  0
 15 23  2  0  0  0  0
 15 31  1  0  0  0  0
 16 27  2  0  0  0  0
 16 28  1  0  0  0  0
 17 29  1  0  0  0  0
 18 29  1  0  0  0  0
 18 32  2  0  0  0  0
 18 33  1  0  0  0  0
 19 21  2  0  0  0  0
 19 38  1  0  0  0  0
 20 22  2  0  0  0  0
 20 39  1  0  0  0  0
 21 47  1  0  0  0  0
 22 40  1  0  0  0  0
 23 56  1  0  0  0  0
 24 80  1  0  0  0  0
 25 81  1  0  0  0  0
 26 28  2  0  0  0  0
 26 80  1  0  0  0  0
 27 82  1  0  0  0  0
 28 83  1  0  0  0  0
 29 64  2  0  0  0  0
 30 50  1  0  0  0  0
 30 65  1  0  0  0  0
 31 57  1  0  0  0  0
 31 65  2  0  0  0  0
 32 66  1  0  0  0  0
 32 69  1  0  0  0  0
 33 70  1  0  0  0  0
 33 75  2  0  0  0  0
 34 48  1  0  0  0  0
 34 71  1  0  0  0  0
 34 76  2  0  0  0  0
 35 61  1  0  0  0  0
 35 67  1  0  0  0  0
 35 77  2  0  0  0  0
 36 62  1  0  0  0  0
 36 72  1  0  0  0  0
 36 78  2  0  0  0  0
 37 68  1  0  0  0  0
 37 73  1  0  0  0  0
 37 79  2  0  0  0  0
 38 41  1  0  0  0  0
 39 48  1  0  0  0  0
 40 67  1  0  0  0  0
 41 43  1  0  0  0  0
 42 44  1  0  0  0  0
 42 45  1  0  0  0  0
 43 47  1  0  0  0  0
 44 49  1  0  0  0  0
 45 68  1  0  0  0  0
 46 49  1  0  0  0  0
 46 68  1  0  0  0  0
 47 71  1  0  0  0  0
 48 67  1  0  0  0  0
 49 66  1  0  0  0  0
 51 62  1  0  0  0  0
 52 63  1  0  0  0  0
 53 63  1  0  0  0  0
 54 63  1  0  0  0  0
 55 74  1  0  0  0  0
 56 73  1  0  0  0  0
 57 58  1  0  0  0  0
 58 59  1  0  0  0  0
 59 60  1  0  0  0  0
 60 81  1  0  0  0  0
 61 63  1  0  0  0  0
 61 72  1  0  0  0  0
 62 74  1  0  0  0  0
 64 66  1  0  0  0  0
M  CHG  1  74   1
M  ISO  4  37 100  60 101  73 100  81 101
M  END
> <Batch ID>
0040

> <Smiles>
CNC(C)C(=O)NC(C(=O)N1Cc2cc([101O:1][101CH2:1]CCCc3cc(C[100NH:0][100C:0](=O)N4CCCC(n5nc(-c6ccc(Oc7ccc(F)cc7F)cc6)c(C(N)=O)c5N)C4)cc(C)n3)ccc2CC1C(=O)NC1CCCc2ccccc21)C(C)(C)C

> <Shape>
0.218

> <Color>
0.056

> <Negative vol penalty>
0.000

$$$$

  -OEChem-04052317073D

 87 95  0     1  0  0  0  0  0999 V2000
  -27.6419  -24.4660   23.6009 C   0  0  0  0  0  0  0  0  0  0  0  0
  -27.7436  -23.1507   24.0425 C   0  0  0  0  0  0  0  0  0  0  0  0
  -23.2884   -9.7996   19.9126 C   0  0  0  0  0  0  0  0  0  0  0  0
  -23.7387   -9.9399   22.2822 C   0  0  0  0  0  0  0  0  0  0  0  0
  -26.9926  -25.4161   24.3880 C   0  0  0  0  0  0  0  0  0  0  0  0
  -27.1969  -22.7849   25.2720 C   0  0  0  0  0  0  0  0  0  0  0  0
  -24.6170  -18.4338   25.0338 C   0  0  0  0  0  0  0  0  0  0  0  0
  -22.5620   -8.6271   20.1201 C   0  0  0  0  0  0  0  0  0  0  0  0
  -23.0122   -8.7674   22.4896 C   0  0  0  0  0  0  0  0  0  0  0  0
  -25.3590  -17.2536   25.0208 C   0  0  0  0  0  0  0  0  0  0  0  0
  -19.7651   -7.8564   22.7061 C   0  0  0  0  0  0  0  0  0  0  0  0
  -18.8625   -7.8346   23.7693 C   0  0  0  0  0  0  0  0  0  0  0  0
  -24.9179  -16.9574   27.3739 C   0  0  0  0  0  0  0  0  0  0  0  0
  -20.0679   -5.9872   24.7548 C   0  0  0  0  0  0  0  0  0  0  0  0
  -30.6565  -14.4761   27.0960 C   0  0  0  0  0  0  0  0  0  0  0  0
  -23.8769  -10.4560   20.9937 C   0  0  0  0  0  0  0  0  0  0  0  0
  -24.1364  -12.9860   20.7955 C   0  0  0  0  0  0  0  0  0  0  0  0
  -26.4292  -25.0597   25.6234 C   0  0  0  0  0  0  0  0  0  0  0  0
  -24.0280  -18.8913   26.2214 C   0  0  0  0  0  0  0  0  0  0  0  0
  -26.5406  -23.7315   26.0770 C   0  0  0  0  0  0  0  0  0  0  0  0
  -24.1668  -18.1425   27.3988 C   0  0  0  0  0  0  0  0  0  0  0  0
  -22.4238   -8.1110   21.4085 C   0  0  0  0  0  0  0  0  0  0  0  0
  -25.5120  -16.5167   26.1916 C   0  0  0  0  0  0  0  0  0  0  0  0
  -20.8191   -6.9436   22.6672 C   0  0  0  0  0  0  0  0  0  0  0  0
  -19.0139   -6.9000   24.7937 C   0  0  0  0  0  0  0  0  0  0  0  0
  -20.9705   -6.0090   23.6915 C   0  0  0  0  0  0  0  0  0  0  0  0
  -24.6279  -11.6670   20.7800 C   0  0  0  0  0  0  0  0  0  0  0  0
  -29.9074  -13.8053   28.0211 C   0  0  0  0  0  0  0  0  0  0  0  0
  -25.2379  -13.7659   20.5409 C   0  0  0  0  0  0  0  0  0  0  0  0
  -28.7489  -13.8919   26.1368 C   0  0  0  0  0  0  0  0  0  0  0  0
  -22.8033  -13.4637   21.0201 C   0  0  0  0  0  0  0  0  0  0  0  0
  -24.3417  -21.4900   28.0247 C   0  0  0  0  0  0  0  0  0  0  0  0
  -21.8456  -20.1945   29.6413 C   0  0  0  0  0  0  0  0  0  0  0  0
  -20.0701  -17.4019   30.4754 C   0  0  0  0  0  0  0  0  0  0  0  0
  -31.1087  -12.9226   21.3617 C   0  0  0  0  0  0  0  0  0  0  0  0
  -25.7783  -26.1320   26.4608 C   0  0  0  0  0  0  0  0  0  0  0  0
  -23.2084  -20.1524   26.2129 C   0  0  0  0  0  0  0  0  0  0  0  0
  -23.5376  -18.5797   28.6954 C   0  0  0  0  0  0  0  0  0  0  0  0
  -24.8985  -25.5807   27.5799 C   0  0  0  0  0  0  0  0  0  0  0  0
  -29.4605  -13.6625   18.2937 C   0  0  0  0  0  0  0  0  0  0  0  0
  -25.6221  -24.4651   28.3273 C   0  0  0  0  0  0  0  0  0  0  0  0
  -27.9907  -13.3540   18.5844 C   0  0  0  0  0  0  0  0  0  0  0  0
  -30.3936  -12.6829   19.0021 C   0  0  0  0  0  0  0  0  0  0  0  0
  -28.7066  -12.2534   20.7466 C   0  0  0  0  0  0  0  0  0  0  0  0
  -25.9387  -23.2906   27.3936 C   0  0  1  0  0  0  0  0  0  0  0  0
  -23.0830  -20.7928   27.5919 C   0  0  1  0  0  0  0  0  0  0  0  0
  -27.7288  -13.2487   20.0988 C   0  0  2  0  0  0  0  0  0  0  0  0
  -25.7928  -17.1673   32.2215 C   0  0  0  0  0  0  0  0  0  0  0  0
  -18.1042  -16.6531   31.8437 C   0  0  0  0  0  0  0  0  0  0  0  0
  -23.5165  -20.4563   32.1809 C   0  0  0  0  0  0  0  0  0  0  0  0
  -21.9383  -18.8671   33.2998 C   0  0  0  0  0  0  0  0  0  0  0  0
  -21.1048  -21.0602   32.4521 C   0  0  0  0  0  0  0  0  0  0  0  0
  -18.6419  -16.3975   28.0858 C   0  0  0  0  0  0  0  0  0  0  0  0
  -30.1775  -13.4599   29.4191 C   0  0  0  0  0  0  0  0  0  0  0  0
  -27.6396  -13.7040   25.1306 C   0  0  0  0  0  0  0  0  0  0  0  0
  -26.2512  -16.1441   31.1945 C   0  0  0  0  0  0  0  0  0  0  0  0
  -29.7034  -14.5454   30.4071 C   0  0  0  0  0  0  0  0  0  0  0  0
  -27.7540  -15.8842   31.2954 C   0  0  0  0  0  0  0  0  0  0  0  0
  -28.2054  -14.8297   30.2836 C   0  0  0  0  0  0  0  0  0  0  0  0
  -31.6783  -14.6105   24.1671 C   0  0  0  0  0  0  0  0  0  0  0  0
  -30.3378  -15.1348   24.6993 C   0  0  0  0  0  0  0  0  0  0  0  0
  -31.6701  -13.1359   23.7697 C   0  0  0  0  0  0  0  0  0  0  0  0
  -26.8117  -14.9698   24.9371 C   0  0  0  0  0  0  0  0  0  1  0  0
  -21.7035  -19.2402   30.8024 C   0  0  1  0  0  0  0  0  0  0  0  0
  -18.5785  -17.1194   30.4761 C   0  0  2  0  0  0  0  0  0  0  0  0
  -22.0794  -19.8985   32.1600 C   0  0  0  0  0  0  0  0  0  0  0  0
  -25.9395  -11.6083   20.5347 N   0  0  0  0  0  0  0  0  0  0  0  0
  -29.9155  -14.5144   25.9395 N   0  0  0  0  0  0  0  0  0  0  0  0
  -26.2816  -12.9003   20.3937 N   0  0  0  0  0  0  0  0  0  0  0  0
  -28.7324  -13.4558   27.4005 N   0  3  0  0  0  0  0  0  0  0  0  0
  -22.7510  -19.8229   28.6374 N   0  0  0  0  0  0  0  0  0  0  0  0
  -30.0940  -12.6313   20.4351 N   0  0  0  0  0  0  0  0  0  0  0  0
  -25.4059  -15.1009   20.4307 N   0  0  0  0  0  0  0  0  0  0  0  0
  -21.7906  -12.5268   21.2672 N   0  0  0  0  0  0  0  0  0  0  0  0
  -24.7535  -22.4917   27.1665 N   0  0  0  0  0  0  0  0  0  0  0  0
  -20.3390  -18.7273   30.7446 N   0  0  0  0  0  0  0  0  0  0  0  0
  -30.7387  -12.8569   22.6994 N   0  0  0  0  0  0  0  0  0  0  0  0
  -18.2513  -16.0612   29.4791 N   0  3  0  0  0  0  0  0  0  0  0  0
  -22.5155  -14.6841   20.9859 O   0  0  0  0  0  0  0  0  0  0  0  0
  -24.8972  -21.1457   29.0613 O   0  0  0  0  0  0  0  0  0  0  0  0
  -21.1725  -21.2281   29.6222 O   0  0  0  0  0  0  0  0  0  0  0  0
  -20.9125  -16.5330   30.2615 O   0  0  0  0  0  0  0  0  0  0  0  0
  -32.2578  -13.2244   21.0218 O   0  0  0  0  0  0  0  0  0  0  0  0
  -21.7148   -6.9670   21.6113 O   0  0  0  0  0  0  0  0  0  0  0  0
  -26.2362  -15.3646   26.1818 O   0  0  0  0  0  0  0  0  0  1  0  0
  -18.1480   -6.8802   25.8154 F   0  0  0  0  0  0  0  0  0  0  0  0
  -21.9818   -5.1303   23.6602 F   0  0  0  0  0  0  0  0  0  0  0  0
  1  2  1  0  0  0  0
  1  5  2  0  0  0  0
  2  6  2  0  0  0  0
  3  8  2  0  0  0  0
  3 16  1  0  0  0  0
  4  9  1  0  0  0  0
  4 16  2  0  0  0  0
  5 18  1  0  0  0  0
  6 20  1  0  0  0  0
  7 10  2  0  0  0  0
  7 19  1  0  0  0  0
  8 22  1  0  0  0  0
  9 22  2  0  0  0  0
 10 23  1  0  0  0  0
 11 12  2  0  0  0  0
 11 24  1  0  0  0  0
 12 25  1  0  0  0  0
 13 21  1  0  0  0  0
 13 23  2  0  0  0  0
 14 25  2  0  0  0  0
 14 26  1  0  0  0  0
 15 28  2  0  0  0  0
 15 68  1  0  0  0  0
 16 27  1  0  0  0  0
 17 27  1  0  0  0  0
 17 29  2  0  0  0  0
 17 31  1  0  0  0  0
 18 20  2  0  0  0  0
 18 36  1  0  0  0  0
 19 21  2  0  0  0  0
 19 37  1  0  0  0  0
 20 45  1  0  0  0  0
 21 38  1  0  0  0  0
 22 84  1  0  0  0  0
 23 85  1  0  0  0  0
 24 26  2  0  0  0  0
 24 84  1  0  0  0  0
 25 86  1  0  0  0  0
 26 87  1  0  0  0  0
 27 67  2  0  0  0  0
 28 54  1  0  0  0  0
 28 70  1  0  0  0  0
 29 69  1  0  0  0  0
 29 73  1  0  0  0  0
 30 55  1  0  0  0  0
 30 68  1  0  0  0  0
 30 70  2  0  0  0  0
 31 74  1  0  0  0  0
 31 79  2  0  0  0  0
 32 46  1  0  0  0  0
 32 75  1  0  0  0  0
 32 80  2  0  0  0  0
 33 64  1  0  0  0  0
 33 71  1  0  0  0  0
 33 81  2  0  0  0  0
 34 65  1  0  0  0  0
 34 76  1  0  0  0  0
 34 82  2  0  0  0  0
 35 72  1  0  0  0  0
 35 77  1  0  0  0  0
 35 83  2  0  0  0  0
 36 39  1  0  0  0  0
 37 46  1  0  0  0  0
 38 71  1  0  0  0  0
 39 41  1  0  0  0  0
 40 42  1  0  0  0  0
 40 43  1  0  0  0  0
 41 45  1  0  0  0  0
 42 47  1  0  0  0  0
 43 72  1  0  0  0  0
 44 47  1  0  0  0  0
 44 72  1  0  0  0  0
 45 75  1  0  0  0  0
 46 71  1  0  0  0  0
 47 69  1  0  0  0  0
 48 56  1  0  0  0  0
 49 65  1  0  0  0  0
 50 66  1  0  0  0  0
 51 66  1  0  0  0  0
 52 66  1  0  0  0  0
 53 78  1  0  0  0  0
 54 57  1  0  0  0  0
 55 63  1  0  0  0  0
 56 58  1  0  0  0  0
 57 59  1  0  0  0  0
 58 59  1  0  0  0  0
 60 61  1  0  0  0  0
 60 62  1  0  0  0  0
 61 68  1  0  0  0  0
 62 77  1  0  0  0  0
 63 85  1  0  0  0  0
 64 66  1  0  0  0  0
 64 76  1  0  0  0  0
 65 78  1  0  0  0  0
 67 69  1  0  0  0  0
M  CHG  2  70   1  78   1
M  ISO  4  35 100  63 101  77 100  85 101
M  END
> <Batch ID>
0040

> <Smiles>
CCCCCCc1cn(CCC[100NH:0][100C:0](=O)N2CCCC(n3nc(-c4ccc(Oc5ccc(F)cc5F)cc4)c(C(N)=O)c3N)C2)c(C[101CH2:1][101O:1]c2ccc3c(c2)CN(C(=O)C(NC(=O)C(C)NC)C(C)(C)C)C(C(=O)NC2CCCc4ccccc42)C3)n1

> <Shape>
0.133

> <Color>
0.167

> <Negative vol penalty>
0.000

$$$$

  -OEChem-04052317073D

 88 96  0     1  0  0  0  0  0999 V2000
  -27.1138  -38.0006   21.7717 C   0  0  0  0  0  0  0  0  0  0  0  0
  -27.6932  -36.8076   21.3515 C   0  0  0  0  0  0  0  0  0  0  0  0
  -22.4944  -14.0446   20.1493 C   0  0  0  0  0  0  0  0  0  0  0  0
  -23.0449  -13.2333   22.3575 C   0  0  0  0  0  0  0  0  0  0  0  0
  -26.1397  -37.9878   22.7692 C   0  0  0  0  0  0  0  0  0  0  0  0
  -27.2996  -35.6012   21.9294 C   0  0  0  0  0  0  0  0  0  0  0  0
  -26.8817  -30.1555   19.1589 C   0  0  0  0  0  0  0  0  0  0  0  0
  -21.1704  -13.6460   20.3329 C   0  0  0  0  0  0  0  0  0  0  0  0
  -21.7208  -12.8347   22.5411 C   0  0  0  0  0  0  0  0  0  0  0  0
  -27.7410  -29.0586   19.1119 C   0  0  0  0  0  0  0  0  0  0  0  0
  -18.7701  -14.2854   23.3219 C   0  0  0  0  0  0  0  0  0  0  0  0
  -18.1656  -14.5924   24.5409 C   0  0  0  0  0  0  0  0  0  0  0  0
  -26.5170  -28.0299   20.9182 C   0  0  0  0  0  0  0  0  0  0  0  0
  -30.0694  -24.6905   18.1002 C   0  0  0  0  0  0  0  0  0  0  0  0
  -31.1284  -25.4927   20.1180 C   0  0  0  0  0  0  0  0  0  0  0  0
  -17.8020  -12.2397   24.9531 C   0  0  0  0  0  0  0  0  0  0  0  0
  -23.4317  -13.8381   21.1616 C   0  0  0  0  0  0  0  0  0  0  0  0
  -25.3637  -15.4989   21.2912 C   0  0  0  0  0  0  0  0  0  0  0  0
  -25.7271  -36.7796   23.3528 C   0  0  0  0  0  0  0  0  0  0  0  0
  -25.8385  -30.2027   20.0948 C   0  0  0  0  0  0  0  0  0  0  0  0
  -26.3201  -35.5723   22.9366 C   0  0  0  0  0  0  0  0  0  0  0  0
  -25.6443  -29.1273   20.9734 C   0  0  0  0  0  0  0  0  0  0  0  0
  -30.2315  -25.6829   19.0668 C   0  0  0  0  0  0  0  0  0  0  0  0
  -30.8041  -23.5078   18.1848 C   0  0  0  0  0  0  0  0  0  0  0  0
  -31.8632  -24.3100   20.2026 C   0  0  0  0  0  0  0  0  0  0  0  0
  -20.7836  -13.0411   21.5288 C   0  0  0  0  0  0  0  0  0  0  0  0
  -27.5606  -27.9969   19.9936 C   0  0  0  0  0  0  0  0  0  0  0  0
  -18.8905  -12.9555   22.9185 C   0  0  0  0  0  0  0  0  0  0  0  0
  -31.7010  -23.3176   19.2360 C   0  0  0  0  0  0  0  0  0  0  0  0
  -17.6816  -13.5696   25.3565 C   0  0  0  0  0  0  0  0  0  0  0  0
  -18.4065  -11.9327   23.7341 C   0  0  0  0  0  0  0  0  0  0  0  0
  -24.7997  -14.2491   20.9723 C   0  0  0  0  0  0  0  0  0  0  0  0
  -26.6817  -15.3851   20.9217 C   0  0  0  0  0  0  0  0  0  0  0  0
  -24.7511  -16.6590   21.8696 C   0  0  0  0  0  0  0  0  0  0  0  0
  -25.0856  -32.1146   22.5200 C   0  0  0  0  0  0  0  0  0  0  0  0
  -22.3893  -30.3127   22.5947 C   0  0  0  0  0  0  0  0  0  0  0  0
  -20.8610  -27.3532   21.8515 C   0  0  0  0  0  0  0  0  0  0  0  0
  -31.4590  -12.5048   20.7586 C   0  0  0  0  0  0  0  0  0  0  0  0
  -24.7048  -36.8205   24.4609 C   0  0  0  0  0  0  0  0  0  0  0  0
  -24.9038  -31.3811   20.1149 C   0  0  0  0  0  0  0  0  0  0  0  0
  -24.5270  -29.1202   21.9834 C   0  0  0  0  0  0  0  0  0  0  0  0
  -24.0744  -35.4625   24.7586 C   0  0  0  0  0  0  0  0  0  0  0  0
  -29.0497  -11.8176   18.2288 C   0  0  0  0  0  0  0  0  0  0  0  0
  -25.1490  -34.3837   24.8501 C   0  0  0  0  0  0  0  0  0  0  0  0
  -27.7750  -12.4864   18.7463 C   0  0  0  0  0  0  0  0  0  0  0  0
  -29.8705  -11.2119   19.3652 C   0  0  0  0  0  0  0  0  0  0  0  0
  -28.9187  -12.8132   20.9787 C   0  0  0  0  0  0  0  0  0  0  0  0
  -25.9019  -34.2409   23.5218 C   0  0  1  0  0  0  0  0  0  0  0  0
  -24.1897  -31.5546   21.4518 C   0  0  1  0  0  0  0  0  0  0  0  0
  -28.0857  -13.4875   19.8752 C   0  0  2  0  0  0  0  0  0  0  0  0
  -30.6168  -22.4572   17.1402 C   0  0  0  0  0  0  0  0  0  0  0  0
  -32.8187  -24.1250   21.3351 C   0  0  0  0  0  0  0  0  0  0  0  0
  -18.6630  -26.1622   22.0689 C   0  0  0  0  0  0  0  0  0  0  0  0
  -22.9561  -29.8115   25.5506 C   0  0  0  0  0  0  0  0  0  0  0  0
  -21.3285  -27.9108   25.4687 C   0  0  0  0  0  0  0  0  0  0  0  0
  -20.5523  -30.2360   25.0066 C   0  0  0  0  0  0  0  0  0  0  0  0
  -20.5712  -27.1088   18.9163 C   0  0  0  0  0  0  0  0  0  0  0  0
  -29.4409  -26.9550   18.9763 C   0  0  0  0  0  0  0  0  0  1  0  0
  -33.1494  -17.4941   20.7040 C   0  0  0  0  0  0  0  0  0  0  0  0
  -32.5709  -16.2966   21.4610 C   0  0  0  0  0  0  0  0  0  0  0  0
  -32.2181  -18.7055   20.7890 C   0  0  0  0  0  0  0  0  0  0  0  0
  -33.4586  -15.0516   21.3962 C   0  0  0  0  0  0  0  0  0  0  0  0
  -32.7770  -19.8922   20.0071 C   0  0  0  0  0  0  0  0  0  0  0  0
  -32.9225  -13.8826   22.2141 C   0  0  0  0  0  0  0  0  0  0  0  0
  -31.8356  -21.0876   20.0511 C   0  0  0  0  0  0  0  0  0  0  0  0
  -21.9731  -29.0398   23.2913 C   0  0  1  0  0  0  0  0  0  0  0  0
  -19.5316  -27.0452   21.1865 C   0  0  2  0  0  0  0  0  0  0  0  0
  -21.7248  -29.2502   24.8117 C   0  0  0  0  0  0  0  0  0  0  0  0
  -25.6867  -13.4035   20.4411 N   0  0  0  0  0  0  0  0  0  0  0  0
  -26.8214  -14.1233   20.4232 N   0  0  0  0  0  0  0  0  0  0  0  0
  -23.6435  -30.2978   21.9681 N   0  0  0  0  0  0  0  0  0  0  0  0
  -30.1320  -12.2133   20.4019 N   0  0  0  0  0  0  0  0  0  0  0  0
  -27.7231  -16.2423   20.9779 N   0  0  0  0  0  0  0  0  0  0  0  0
  -23.3875  -16.6054   22.1890 N   0  0  0  0  0  0  0  0  0  0  0  0
  -25.1081  -33.4954   22.5686 N   0  0  0  0  0  0  0  0  0  0  0  0
  -20.8156  -28.5346   22.5611 N   0  0  0  0  0  0  0  0  0  0  0  0
  -31.6184  -13.4704   21.7449 N   0  0  0  0  0  0  0  0  0  0  0  0
  -19.7510  -26.3434   19.8903 N   0  3  0  0  0  0  0  0  0  0  0  0
  -25.3901  -17.7175   22.0814 O   0  0  0  0  0  0  0  0  0  0  0  0
  -25.7092  -31.3506   23.2474 O   0  0  0  0  0  0  0  0  0  0  0  0
  -21.6266  -31.2822   22.5999 O   0  0  0  0  0  0  0  0  0  0  0  0
  -21.8407  -26.6174   21.7544 O   0  0  0  0  0  0  0  0  0  0  0  0
  -32.4299  -11.9497   20.2330 O   0  0  0  0  0  0  0  0  0  0  0  0
  -19.4916  -12.6523   21.7084 O   0  0  0  0  0  0  0  0  0  0  0  0
  -28.3983  -26.9253   19.9502 O   0  0  0  0  0  0  0  0  0  1  0  0
  -32.4199  -22.1615   19.3181 O   0  0  0  0  0  0  0  0  0  0  0  0
  -17.1025  -13.8645   26.5278 F   0  0  0  0  0  0  0  0  0  0  0  0
  -18.5203  -10.6532   23.3524 F   0  0  0  0  0  0  0  0  0  0  0  0
  1  2  1  0  0  0  0
  1  5  2  0  0  0  0
  2  6  2  0  0  0  0
  3  8  2  0  0  0  0
  3 17  1  0  0  0  0
  4  9  1  0  0  0  0
  4 17  2  0  0  0  0
  5 19  1  0  0  0  0
  6 21  1  0  0  0  0
  7 10  2  0  0  0  0
  7 20  1  0  0  0  0
  8 26  1  0  0  0  0
  9 26  2  0  0  0  0
 10 27  1  0  0  0  0
 11 12  2  0  0  0  0
 11 28  1  0  0  0  0
 12 30  1  0  0  0  0
 13 22  1  0  0  0  0
 13 27  2  0  0  0  0
 14 23  1  0  0  0  0
 14 24  2  0  0  0  0
 15 23  2  0  0  0  0
 15 25  1  0  0  0  0
 16 30  2  0  0  0  0
 16 31  1  0  0  0  0
 17 32  1  0  0  0  0
 18 32  1  0  0  0  0
 18 33  2  0  0  0  0
 18 34  1  0  0  0  0
 19 21  2  0  0  0  0
 19 39  1  0  0  0  0
 20 22  2  0  0  0  0
 20 40  1  0  0  0  0
 21 48  1  0  0  0  0
 22 41  1  0  0  0  0
 23 58  1  0  0  0  0
 24 29  1  0  0  0  0
 24 51  1  0  0  0  0
 25 29  2  0  0  0  0
 25 52  1  0  0  0  0
 26 84  1  0  0  0  0
 27 85  1  0  0  0  0
 28 31  2  0  0  0  0
 28 84  1  0  0  0  0
 29 86  1  0  0  0  0
 30 87  1  0  0  0  0
 31 88  1  0  0  0  0
 32 69  2  0  0  0  0
 33 70  1  0  0  0  0
 33 73  1  0  0  0  0
 34 74  1  0  0  0  0
 34 79  2  0  0  0  0
 35 49  1  0  0  0  0
 35 75  1  0  0  0  0
 35 80  2  0  0  0  0
 36 66  1  0  0  0  0
 36 71  1  0  0  0  0
 36 81  2  0  0  0  0
 37 67  1  0  0  0  0
 37 76  1  0  0  0  0
 37 82  2  0  0  0  0
 38 72  1  0  0  0  0
 38 77  1  0  0  0  0
 38 83  2  0  0  0  0
 39 42  1  0  0  0  0
 40 49  1  0  0  0  0
 41 71  1  0  0  0  0
 42 44  1  0  0  0  0
 43 45  1  0  0  0  0
 43 46  1  0  0  0  0
 44 48  1  0  0  0  0
 45 50  1  0  0  0  0
 46 72  1  0  0  0  0
 47 50  1  0  0  0  0
 47 72  1  0  0  0  0
 48 75  1  0  0  0  0
 49 71  1  0  0  0  0
 50 70  1  0  0  0  0
 53 67  1  0  0  0  0
 54 68  1  0  0  0  0
 55 68  1  0  0  0  0
 56 68  1  0  0  0  0
 57 78  1  0  0  0  0
 58 85  1  0  0  0  0
 59 60  1  0  0  0  0
 59 61  1  0  0  0  0
 60 62  1  0  0  0  0
 61 63  1  0  0  0  0
 62 64  1  0  0  0  0
 63 65  1  0  0  0  0
 64 77  1  0  0  0  0
 65 86  1  0  0  0  0
 66 68  1  0  0  0  0
 66 76  1  0  0  0  0
 67 78  1  0  0  0  0
 69 70  1  0  0  0  0
M  CHG  1  78   1
M  ISO  4  38 100  58 101  77 100  85 101
M  END
> <Batch ID>
0040

> <Smiles>
CNC(C)C(=O)NC(C(=O)N1Cc2cc([101O:1][101CH2:1]c3cc(C)c(OCCCCCCC[100NH:0][100C:0](=O)N4CCCC(n5nc(-c6ccc(Oc7ccc(F)cc7F)cc6)c(C(N)=O)c5N)C4)c(C)c3)ccc2CC1C(=O)NC1CCCc2ccccc21)C(C)(C)C

> <Shape>
0.308

> <Color>
0.068

> <Negative vol penalty>
0.000

$$$$

  -OEChem-04052317073D

 84 93  0     1  0  0  0  0  0999 V2000
  -29.2842  -22.8000   15.1054 C   0  0  0  0  0  0  0  0  0  0  0  0
  -28.1925  -23.6560   15.0010 C   0  0  0  0  0  0  0  0  0  0  0  0
  -25.1301  -15.8430   19.8469 C   0  0  0  0  0  0  0  0  0  0  0  0
  -24.1729  -15.1107   21.9408 C   0  0  0  0  0  0  0  0  0  0  0  0
  -29.7208  -22.3789   16.3607 C   0  0  0  0  0  0  0  0  0  0  0  0
  -27.5360  -24.0904   16.1519 C   0  0  0  0  0  0  0  0  0  0  0  0
  -24.0164  -29.7536   18.7706 C   0  0  0  0  0  0  0  0  0  0  0  0
  -25.7231  -14.5916   19.6802 C   0  0  0  0  0  0  0  0  0  0  0  0
  -24.7659  -13.8591   21.7741 C   0  0  0  0  0  0  0  0  0  0  0  0
  -22.8096  -30.0809   19.3871 C   0  0  0  0  0  0  0  0  0  0  0  0
  -27.7847  -11.7048   18.8802 C   0  0  0  0  0  0  0  0  0  0  0  0
  -29.1166  -11.6663   18.4678 C   0  0  0  0  0  0  0  0  0  0  0  0
  -23.7013  -29.3512   21.5065 C   0  0  0  0  0  0  0  0  0  0  0  0
  -29.7632  -12.9012   20.4411 C   0  0  0  0  0  0  0  0  0  0  0  0
  -19.9213  -28.0507   23.3399 C   0  0  0  0  0  0  0  0  0  0  0  0
  -24.3550  -16.1026   20.9772 C   0  0  0  0  0  0  0  0  0  0  0  0
  -22.4681  -17.7982   20.7086 C   0  0  0  0  0  0  0  0  0  0  0  0
  -29.0754  -22.8160   17.5281 C   0  0  0  0  0  0  0  0  0  0  0  0
  -25.0728  -29.2116   19.5167 C   0  0  0  0  0  0  0  0  0  0  0  0
  -27.9636  -23.6736   17.4240 C   0  0  0  0  0  0  0  0  0  0  0  0
  -24.9214  -29.0203   20.8975 C   0  0  0  0  0  0  0  0  0  0  0  0
  -25.5410  -13.5996   20.6438 C   0  0  0  0  0  0  0  0  0  0  0  0
  -22.6508  -29.8770   20.7547 C   0  0  0  0  0  0  0  0  0  0  0  0
  -27.4419  -12.3416   20.0730 C   0  0  0  0  0  0  0  0  0  0  0  0
  -30.1059  -12.2645   19.2483 C   0  0  0  0  0  0  0  0  0  0  0  0
  -28.4312  -12.9398   20.8535 C   0  0  0  0  0  0  0  0  0  0  0  0
  -23.7427  -17.3953   21.1502 C   0  0  0  0  0  0  0  0  0  0  0  0
  -19.3536  -28.3525   22.1305 C   0  0  0  0  0  0  0  0  0  0  0  0
  -22.3603  -19.1050   21.1174 C   0  0  0  0  0  0  0  0  0  0  0  0
  -19.3073  -26.1534   22.3654 C   0  0  0  0  0  0  0  0  0  0  0  0
  -19.5798  -23.9403   23.2565 C   0  0  0  0  0  0  0  0  0  0  0  0
  -20.3397  -25.9116   24.5173 C   0  0  0  0  0  0  0  0  0  0  0  0
  -19.1291  -24.6777   22.2224 C   0  0  0  0  0  0  0  0  0  0  0  0
  -20.1985  -24.5719   24.4293 C   0  0  0  0  0  0  0  0  0  0  0  0
  -21.4707  -17.0573   19.9931 C   0  0  0  0  0  0  0  0  0  0  0  0
  -26.6734  -26.4657   19.4717 C   0  0  0  0  0  0  0  0  0  0  0  0
  -28.5012  -27.9438   21.7069 C   0  0  0  0  0  0  0  0  0  0  0  0
  -28.7530  -30.3491   24.1149 C   0  0  0  0  0  0  0  0  0  0  0  0
  -23.0162  -23.0597   25.0002 C   0  0  0  0  0  0  0  0  0  0  0  0
  -29.5542  -22.2962   18.8605 C   0  0  0  0  0  0  0  0  0  0  0  0
  -26.3776  -28.8888   18.8415 C   0  0  0  0  0  0  0  0  0  0  0  0
  -26.0319  -28.4602   21.7470 C   0  0  0  0  0  0  0  0  0  0  0  0
  -29.0362  -23.1005   20.0500 C   0  0  0  0  0  0  0  0  0  0  0  0
  -25.8392  -22.2698   22.9795 C   0  0  0  0  0  0  0  0  0  0  0  0
  -27.5400  -23.3607   19.9076 C   0  0  0  0  0  0  0  0  0  0  0  0
  -25.4428  -20.9619   22.2924 C   0  0  0  0  0  0  0  0  0  0  0  0
  -25.3114  -22.3378   24.4109 C   0  0  0  0  0  0  0  0  0  0  0  0
  -23.4642  -20.8021   23.8603 C   0  0  0  0  0  0  0  0  0  0  0  0
  -27.2407  -24.1864   18.6507 C   0  0  1  0  0  0  0  0  0  0  0  0
  -27.2085  -27.8632   19.6065 C   0  0  1  0  0  0  0  0  0  0  0  0
  -23.9263  -20.7114   22.3959 C   0  0  2  0  0  0  0  0  0  0  0  0
  -18.4889  -24.1424   20.9907 C   0  0  0  0  0  0  0  0  0  0  0  0
  -30.3590  -31.2922   25.7968 C   0  0  0  0  0  0  0  0  0  0  0  0
  -28.0247  -25.5302   23.5117 C   0  0  0  0  0  0  0  0  0  0  0  0
  -28.8151  -26.9087   25.4465 C   0  0  0  0  0  0  0  0  0  0  0  0
  -30.3624  -26.4179   23.5524 C   0  0  0  0  0  0  0  0  0  0  0  0
  -28.6973  -33.0206   22.8425 C   0  0  0  0  0  0  0  0  0  0  0  0
  -19.1164  -29.6776   21.4477 C   0  0  0  0  0  0  0  0  0  0  0  0
  -20.6610  -23.6488   25.5154 C   0  0  0  0  0  0  0  0  0  0  0  0
  -20.2900  -30.0949   20.5682 C   0  0  0  0  0  0  0  0  0  1  0  0
  -28.4671  -28.0562   23.2120 C   0  0  1  0  0  0  0  0  0  0  0  0
  -29.8148  -31.4009   24.3808 C   0  0  2  0  0  0  0  0  0  0  0  0
  -28.8955  -26.7370   23.9146 C   0  0  0  0  0  0  0  0  0  0  0  0
  -24.3977  -18.3676   21.7903 N   0  0  0  0  0  0  0  0  0  0  0  0
  -19.8826  -26.6773   23.4659 N   0  0  0  0  0  0  0  0  0  0  0  0
  -23.5314  -19.3943   21.7538 N   0  0  0  0  0  0  0  0  0  0  0  0
  -18.9841  -27.1622   21.5503 N   0  3  0  0  0  0  0  0  0  0  0  0
  -27.2863  -28.1543   21.0394 N   0  0  0  0  0  0  0  0  0  0  0  0
  -23.8673  -22.0933   24.4392 N   0  0  0  0  0  0  0  0  0  0  0  0
  -21.3790  -20.0234   20.9908 N   0  0  0  0  0  0  0  0  0  0  0  0
  -21.7443  -15.7258   19.6516 N   0  0  0  0  0  0  0  0  0  0  0  0
  -27.5527  -25.5815   18.8763 N   0  0  0  0  0  0  0  0  0  0  0  0
  -29.2913  -29.2103   23.5540 N   0  0  0  0  0  0  0  0  0  0  0  0
  -21.6613  -22.7518   24.9811 N   0  0  0  0  0  0  0  0  0  0  0  0
  -29.2477  -32.7670   24.1988 N   0  3  0  0  0  0  0  0  0  0  0  0
  -20.3761  -17.5661   19.6518 O   0  0  0  0  0  0  0  0  0  0  0  0
  -25.5467  -26.2082   19.8791 O   0  0  0  0  0  0  0  0  0  0  0  0
  -29.5680  -27.6861   21.1438 O   0  0  0  0  0  0  0  0  0  0  0  0
  -27.5654  -30.5191   24.3817 O   0  0  0  0  0  0  0  0  0  0  0  0
  -23.4323  -24.1208   25.4775 O   0  0  0  0  0  0  0  0  0  0  0  0
  -26.1193  -12.3782   20.4814 O   0  0  0  0  0  0  0  0  0  0  0  0
  -21.4736  -30.1949   21.3589 O   0  0  0  0  0  0  0  0  0  1  0  0
  -31.3851  -12.2261   18.8529 F   0  0  0  0  0  0  0  0  0  0  0  0
  -28.1082  -13.5519   22.0009 F   0  0  0  0  0  0  0  0  0  0  0  0
  1  2  1  0  0  0  0
  1  5  2  0  0  0  0
  2  6  2  0  0  0  0
  3  8  2  0  0  0  0
  3 16  1  0  0  0  0
  4  9  1  0  0  0  0
  4 16  2  0  0  0  0
  5 18  1  0  0  0  0
  6 20  1  0  0  0  0
  7 10  2  0  0  0  0
  7 19  1  0  0  0  0
  8 22  1  0  0  0  0
  9 22  2  0  0  0  0
 10 23  1  0  0  0  0
 11 12  2  0  0  0  0
 11 24  1  0  0  0  0
 12 25  1  0  0  0  0
 13 21  1  0  0  0  0
 13 23  2  0  0  0  0
 14 25  2  0  0  0  0
 14 26  1  0  0  0  0
 15 28  2  0  0  0  0
 15 65  1  0  0  0  0
 16 27  1  0  0  0  0
 17 27  1  0  0  0  0
 17 29  2  0  0  0  0
 17 35  1  0  0  0  0
 18 20  2  0  0  0  0
 18 40  1  0  0  0  0
 19 21  2  0  0  0  0
 19 41  1  0  0  0  0
 20 49  1  0  0  0  0
 21 42  1  0  0  0  0
 22 81  1  0  0  0  0
 23 82  1  0  0  0  0
 24 26  2  0  0  0  0
 24 81  1  0  0  0  0
 25 83  1  0  0  0  0
 26 84  1  0  0  0  0
 27 64  2  0  0  0  0
 28 58  1  0  0  0  0
 28 67  1  0  0  0  0
 29 66  1  0  0  0  0
 29 70  1  0  0  0  0
 30 33  1  0  0  0  0
 30 65  1  0  0  0  0
 30 67  2  0  0  0  0
 31 33  2  0  0  0  0
 31 34  1  0  0  0  0
 32 34  2  0  0  0  0
 32 65  1  0  0  0  0
 33 52  1  0  0  0  0
 34 59  1  0  0  0  0
 35 71  1  0  0  0  0
 35 76  2  0  0  0  0
 36 50  1  0  0  0  0
 36 72  1  0  0  0  0
 36 77  2  0  0  0  0
 37 61  1  0  0  0  0
 37 68  1  0  0  0  0
 37 78  2  0  0  0  0
 38 62  1  0  0  0  0
 38 73  1  0  0  0  0
 38 79  2  0  0  0  0
 39 69  1  0  0  0  0
 39 74  1  0  0  0  0
 39 80  2  0  0  0  0
 40 43  1  0  0  0  0
 41 50  1  0  0  0  0
 42 68  1  0  0  0  0
 43 45  1  0  0  0  0
 44 46  1  0  0  0  0
 44 47  1  0  0  0  0
 45 49  1  0  0  0  0
 46 51  1  0  0  0  0
 47 69  1  0  0  0  0
 48 51  1  0  0  0  0
 48 69  1  0  0  0  0
 49 72  1  0  0  0  0
 50 68  1  0  0  0  0
 51 66  1  0  0  0  0
 53 62  1  0  0  0  0
 54 63  1  0  0  0  0
 55 63  1  0  0  0  0
 56 63  1  0  0  0  0
 57 75  1  0  0  0  0
 58 60  1  0  0  0  0
 59 74  1  0  0  0  0
 60 82  1  0  0  0  0
 61 63  1  0  0  0  0
 61 73  1  0  0  0  0
 62 75  1  0  0  0  0
 64 66  1  0  0  0  0
M  CHG  2  67   1  75   1
M  ISO  4  39 100  60 101  74 100  82 101
M  END
> <Batch ID>
0040

> <Smiles>
CNC(C)C(=O)NC(C(=O)N1Cc2cc([101O:1][101CH2:1]Cc3cn4cc(C[100NH:0][100C:0](=O)N5CCCC(n6nc(-c7ccc(Oc8ccc(F)cc8F)cc7)c(C(N)=O)c6N)C5)cc(C)c4n3)ccc2CC1C(=O)NC1CCCc2ccccc21)C(C)(C)C

> <Shape>
0.224

> <Color>
0.060

> <Negative vol penalty>
0.000

$$$$

  -OEChem-04052317073D

 82 90  0     1  0  0  0  0  0999 V2000
  -25.9356  -35.2199   22.6970 C   0  0  0  0  0  0  0  0  0  0  0  0
  -26.4888  -33.9538   22.5347 C   0  0  0  0  0  0  0  0  0  0  0  0
  -24.3680  -14.4391   21.1394 C   0  0  0  0  0  0  0  0  0  0  0  0
  -25.6425  -14.3405   19.0893 C   0  0  0  0  0  0  0  0  0  0  0  0
  -24.6533  -35.3564   23.2271 C   0  0  0  0  0  0  0  0  0  0  0  0
  -25.7604  -32.8234   22.9035 C   0  0  0  0  0  0  0  0  0  0  0  0
  -25.9981  -29.1420   19.4342 C   0  0  0  0  0  0  0  0  0  0  0  0
  -23.7408  -13.2383   20.8073 C   0  0  0  0  0  0  0  0  0  0  0  0
  -25.0154  -13.1396   18.7572 C   0  0  0  0  0  0  0  0  0  0  0  0
  -27.1605  -28.3730   19.4005 C   0  0  0  0  0  0  0  0  0  0  0  0
  -24.4733   -9.9384   20.8934 C   0  0  0  0  0  0  0  0  0  0  0  0
  -24.3525   -8.9723   21.8921 C   0  0  0  0  0  0  0  0  0  0  0  0
  -26.0368  -26.6310   20.6342 C   0  0  0  0  0  0  0  0  0  0  0  0
  -21.9476   -9.0453   21.6718 C   0  0  0  0  0  0  0  0  0  0  0  0
  -31.0348  -22.3044   20.2184 C   0  0  0  0  0  0  0  0  0  0  0  0
  -29.5771  -20.8743   18.9480 C   0  0  0  0  0  0  0  0  0  0  0  0
  -25.3188  -14.9902   20.2804 C   0  0  0  0  0  0  0  0  0  0  0  0
  -27.1577  -16.3942   21.3551 C   0  0  0  0  0  0  0  0  0  0  0  0
  -23.9050  -34.2266   23.5935 C   0  0  0  0  0  0  0  0  0  0  0  0
  -24.8476  -28.6650   20.0788 C   0  0  0  0  0  0  0  0  0  0  0  0
  -24.4674  -32.9449   23.4402 C   0  0  0  0  0  0  0  0  0  0  0  0
  -24.8603  -27.3948   20.6725 C   0  0  0  0  0  0  0  0  0  0  0  0
  -24.0645  -12.5886   19.6162 C   0  0  0  0  0  0  0  0  0  0  0  0
  -27.1809  -27.1185   20.0030 C   0  0  0  0  0  0  0  0  0  0  0  0
  -23.3313  -10.4581   20.2838 C   0  0  0  0  0  0  0  0  0  0  0  0
  -23.0897   -8.5257   22.2813 C   0  0  0  0  0  0  0  0  0  0  0  0
  -22.0685  -10.0115   20.6730 C   0  0  0  0  0  0  0  0  0  0  0  0
  -30.6294  -21.0284   19.8435 C   0  0  0  0  0  0  0  0  0  0  0  0
  -25.9666  -16.2309   20.6227 C   0  0  0  0  0  0  0  0  0  0  0  0
  -30.3605  -23.3853   19.6736 C   0  0  0  0  0  0  0  0  0  0  0  0
  -28.9679  -22.0192   18.4602 C   0  0  0  0  0  0  0  0  0  0  0  0
  -27.3459  -17.7538   21.4058 C   0  0  0  0  0  0  0  0  0  0  0  0
  -28.0171  -15.4054   21.9375 C   0  0  0  0  0  0  0  0  0  0  0  0
  -23.0990  -29.6297   22.5517 C   0  0  0  0  0  0  0  0  0  0  0  0
  -26.5532  -22.4423   18.0685 C   0  0  0  0  0  0  0  0  0  0  0  0
  -21.1642  -27.1927   21.6352 C   0  0  0  0  0  0  0  0  0  0  0  0
  -20.8349  -24.2070   20.0153 C   0  0  0  0  0  0  0  0  0  0  0  0
  -22.5415  -34.4265   24.2063 C   0  0  0  0  0  0  0  0  0  0  0  0
  -23.5936  -29.4955   20.0832 C   0  0  0  0  0  0  0  0  0  0  0  0
  -23.6455  -26.8285   21.3596 C   0  0  0  0  0  0  0  0  0  0  0  0
  -21.6897  -33.1598   24.2233 C   0  0  0  0  0  0  0  0  0  0  0  0
  -24.4389  -21.7058   20.8663 C   0  0  0  0  0  0  0  0  0  0  0  0
  -22.5063  -31.9741   24.7275 C   0  0  0  0  0  0  0  0  0  0  0  0
  -24.7085  -20.2268   21.1405 C   0  0  0  0  0  0  0  0  0  0  0  0
  -24.4967  -22.0166   19.3740 C   0  0  0  0  0  0  0  0  0  0  0  0
  -26.0456  -20.1259   18.9894 C   0  0  0  0  0  0  0  0  0  0  0  0
  -23.6989  -31.6935   23.8054 C   0  0  1  0  0  0  0  0  0  0  0  0
  -22.6370  -29.1272   21.2131 C   0  0  1  0  0  0  0  0  0  0  0  0
  -26.0269  -19.7750   20.4878 C   0  0  2  0  0  0  0  0  0  0  0  0
  -28.1108  -22.5616   16.1443 C   0  0  0  0  0  0  0  0  0  0  0  0
  -19.1399  -22.4393   19.4678 C   0  0  0  0  0  0  0  0  0  0  0  0
  -21.3301  -26.1502   24.4980 C   0  0  0  0  0  0  0  0  0  0  0  0
  -20.4483  -23.9559   23.6761 C   0  0  0  0  0  0  0  0  0  0  0  0
  -19.0550  -26.0146   23.4686 C   0  0  0  0  0  0  0  0  0  0  0  0
  -21.1643  -24.6286   17.1046 C   0  0  0  0  0  0  0  0  0  0  0  0
  -30.7731  -24.7840   20.0571 C   0  0  0  0  0  0  0  0  0  0  0  0
  -30.0363  -25.3295   21.2823 C   0  0  0  0  0  0  0  0  0  0  0  0
  -28.5346  -25.4781   21.0671 C   0  0  0  0  0  0  0  0  0  1  0  0
  -27.8353  -21.8913   17.4970 C   0  0  1  0  0  0  0  0  0  0  0  0
  -21.0668  -25.7228   21.9654 C   0  0  1  0  0  0  0  0  0  0  0  0
  -19.8170  -23.7184   19.0006 C   0  0  2  0  0  0  0  0  0  0  0  0
  -20.4987  -25.4721   23.3908 C   0  0  0  0  0  0  0  0  0  0  0  0
  -25.4355  -17.3939   20.2360 N   0  0  0  0  0  0  0  0  0  0  0  0
  -29.3338  -23.2752   18.8010 N   0  0  0  0  0  0  0  0  0  0  0  0
  -26.2969  -18.3009   20.7273 N   0  0  0  0  0  0  0  0  0  0  0  0
  -22.4455  -27.6812   21.3428 N   0  0  0  0  0  0  0  0  0  0  0  0
  -25.7546  -21.5519   18.7866 N   0  0  0  0  0  0  0  0  0  0  0  0
  -28.3048  -18.5227   21.9641 N   0  0  0  0  0  0  0  0  0  0  0  0
  -27.6759  -14.0539   21.7912 N   0  0  0  0  0  0  0  0  0  0  0  0
  -23.2629  -31.0004   22.6120 N   0  0  0  0  0  0  0  0  0  0  0  0
  -20.2841  -25.1149   20.8948 N   0  0  0  0  0  0  0  0  0  0  0  0
  -20.4779  -23.4494   17.6923 N   0  3  0  0  0  0  0  0  0  0  0  0
  -29.0481  -15.7118   22.5830 O   0  0  0  0  0  0  0  0  0  0  0  0
  -23.2910  -28.8330   23.4627 O   0  0  0  0  0  0  0  0  0  0  0  0
  -26.2729  -23.6295   17.8837 O   0  0  0  0  0  0  0  0  0  0  0  0
  -20.1402  -27.8804   21.6297 O   0  0  0  0  0  0  0  0  0  0  0  0
  -22.0010  -23.8189   20.0289 O   0  0  0  0  0  0  0  0  0  0  0  0
  -23.4529  -11.4167   19.2919 O   0  0  0  0  0  0  0  0  0  0  0  0
  -28.3144  -26.3662   19.9720 O   0  0  0  0  0  0  0  0  0  1  0  0
  -22.9738   -7.5968   23.2394 F   0  0  0  0  0  0  0  0  0  0  0  0
  -20.9677  -10.5061   20.0903 F   0  0  0  0  0  0  0  0  0  0  0  0
  -31.2508  -19.9519   20.3425 F   0  0  0  0  0  0  0  0  0  0  0  0
  1  2  1  0  0  0  0
  1  5  2  0  0  0  0
  2  6  2  0  0  0  0
  3  8  2  0  0  0  0
  3 17  1  0  0  0  0
  4  9  1  0  0  0  0
  4 17  2  0  0  0  0
  5 19  1  0  0  0  0
  6 21  1  0  0  0  0
  7 10  2  0  0  0  0
  7 20  1  0  0  0  0
  8 23  1  0  0  0  0
  9 23  2  0  0  0  0
 10 24  1  0  0  0  0
 11 12  2  0  0  0  0
 11 25  1  0  0  0  0
 12 26  1  0  0  0  0
 13 22  1  0  0  0  0
 13 24  2  0  0  0  0
 14 26  2  0  0  0  0
 14 27  1  0  0  0  0
 15 28  2  0  0  0  0
 15 30  1  0  0  0  0
 16 28  1  0  0  0  0
 16 31  2  0  0  0  0
 17 29  1  0  0  0  0
 18 29  1  0  0  0  0
 18 32  2  0  0  0  0
 18 33  1  0  0  0  0
 19 21  2  0  0  0  0
 19 38  1  0  0  0  0
 20 22  2  0  0  0  0
 20 39  1  0  0  0  0
 21 47  1  0  0  0  0
 22 40  1  0  0  0  0
 23 78  1  0  0  0  0
 24 79  1  0  0  0  0
 25 27  2  0  0  0  0
 25 78  1  0  0  0  0
 26 80  1  0  0  0  0
 27 81  1  0  0  0  0
 28 82  1  0  0  0  0
 29 63  2  0  0  0  0
 30 56  1  0  0  0  0
 30 64  2  0  0  0  0
 31 59  1  0  0  0  0
 31 64  1  0  0  0  0
 32 65  1  0  0  0  0
 32 68  1  0  0  0  0
 33 69  1  0  0  0  0
 33 73  2  0  0  0  0
 34 48  1  0  0  0  0
 34 70  1  0  0  0  0
 34 74  2  0  0  0  0
 35 59  1  0  0  0  0
 35 67  1  0  0  0  0
 35 75  2  0  0  0  0
 36 60  1  0  0  0  0
 36 66  1  0  0  0  0
 36 76  2  0  0  0  0
 37 61  1  0  0  0  0
 37 71  1  0  0  0  0
 37 77  2  0  0  0  0
 38 41  1  0  0  0  0
 39 48  1  0  0  0  0
 40 66  1  0  0  0  0
 41 43  1  0  0  0  0
 42 44  1  0  0  0  0
 42 45  1  0  0  0  0
 43 47  1  0  0  0  0
 44 49  1  0  0  0  0
 45 67  1  0  0  0  0
 46 49  1  0  0  0  0
 46 67  1  0  0  0  0
 47 70  1  0  0  0  0
 48 66  1  0  0  0  0
 49 65  1  0  0  0  0
 50 59  1  0  0  0  0
 51 61  1  0  0  0  0
 52 62  1  0  0  0  0
 53 62  1  0  0  0  0
 54 62  1  0  0  0  0
 55 72  1  0  0  0  0
 56 57  1  0  0  0  0
 57 58  1  0  0  0  0
 58 79  1  0  0  0  0
 60 62  1  0  0  0  0
 60 71  1  0  0  0  0
 61 72  1  0  0  0  0
 63 65  1  0  0  0  0
M  CHG  1  72   1
M  ISO  4  35 100  58 101  59 100  79 101
M  END
> <Batch ID>
0040

> <Smiles>
CNC(C)C(=O)NC(C(=O)N1Cc2cc([101O:1][101CH2:1]CCc3cc(F)cc([100CH:0](C)[100C:0](=O)N4CCCC(n5nc(-c6ccc(Oc7ccc(F)cc7F)cc6)c(C(N)=O)c5N)C4)n3)ccc2CC1C(=O)NC1CCCc2ccccc21)C(C)(C)C

> <Shape>
0.248

> <Color>
0.091

> <Negative vol penalty>
0.000

$$$$

  -OEChem-04052317073D

 84 92  0     1  0  0  0  0  0999 V2000
  -36.0222  -23.9537   25.3365 C   0  0  0  0  0  0  0  0  0  0  0  0
  -35.0088  -23.0671   24.9867 C   0  0  0  0  0  0  0  0  0  0  0  0
  -23.2905   -9.7989   19.9266 C   0  0  0  0  0  0  0  0  0  0  0  0
  -23.7485   -9.9548   22.2936 C   0  0  0  0  0  0  0  0  0  0  0  0
  -35.7014  -25.2156   25.8351 C   0  0  0  0  0  0  0  0  0  0  0  0
  -33.6739  -23.4416   25.1362 C   0  0  0  0  0  0  0  0  0  0  0  0
  -30.8502  -22.2153   21.1152 C   0  0  0  0  0  0  0  0  0  0  0  0
  -22.5657   -8.6271   20.1440 C   0  0  0  0  0  0  0  0  0  0  0  0
  -23.0237   -8.7831   22.5111 C   0  0  0  0  0  0  0  0  0  0  0  0
  -30.4557  -20.8834   20.9966 C   0  0  0  0  0  0  0  0  0  0  0  0
  -20.9905   -6.0290   23.7357 C   0  0  0  0  0  0  0  0  0  0  0  0
  -20.0923   -6.0098   24.8026 C   0  0  0  0  0  0  0  0  0  0  0  0
  -28.2857  -21.4534   21.8826 C   0  0  0  0  0  0  0  0  0  0  0  0
  -29.5484  -18.8551   24.8489 C   0  0  0  0  0  0  0  0  0  0  0  0
  -18.8782   -7.8497   23.8136 C   0  0  0  0  0  0  0  0  0  0  0  0
  -31.2520  -18.2195   26.3819 C   0  0  0  0  0  0  0  0  0  0  0  0
  -23.8820  -10.4627   21.0014 C   0  0  0  0  0  0  0  0  0  0  0  0
  -24.1387  -12.9916   20.7860 C   0  0  0  0  0  0  0  0  0  0  0  0
  -34.3620  -25.6093   25.9817 C   0  0  0  0  0  0  0  0  0  0  0  0
  -29.9675  -23.1759   21.6296 C   0  0  0  0  0  0  0  0  0  0  0  0
  -33.3349  -24.7095   25.6384 C   0  0  0  0  0  0  0  0  0  0  0  0
  -28.6705  -22.7973   22.0044 C   0  0  0  0  0  0  0  0  0  0  0  0
  -30.4434  -19.2117   25.8515 C   0  0  0  0  0  0  0  0  0  0  0  0
  -29.4903  -17.5358   24.4136 C   0  0  0  0  0  0  0  0  0  0  0  0
  -22.4323   -8.1192   21.4363 C   0  0  0  0  0  0  0  0  0  0  0  0
  -29.1743  -20.5017   21.3830 C   0  0  0  0  0  0  0  0  0  0  0  0
  -20.8327   -6.9587   22.7078 C   0  0  0  0  0  0  0  0  0  0  0  0
  -19.0361   -6.9201   24.8416 C   0  0  0  0  0  0  0  0  0  0  0  0
  -19.7766   -7.8690   22.7467 C   0  0  0  0  0  0  0  0  0  0  0  0
  -24.6313  -11.6729   20.7774 C   0  0  0  0  0  0  0  0  0  0  0  0
  -30.3417  -16.6187   25.0082 C   0  0  0  0  0  0  0  0  0  0  0  0
  -25.2388  -13.7707   20.5227 C   0  0  0  0  0  0  0  0  0  0  0  0
  -22.8060  -13.4696   21.0119 C   0  0  0  0  0  0  0  0  0  0  0  0
  -29.9693  -25.0954   24.1632 C   0  0  0  0  0  0  0  0  0  0  0  0
  -27.2791  -26.2733   22.7855 C   0  0  0  0  0  0  0  0  0  0  0  0
  -24.6402  -25.7648   20.6820 C   0  0  0  0  0  0  0  0  0  0  0  0
  -31.1130  -12.9375   21.3294 C   0  0  0  0  0  0  0  0  0  0  0  0
  -34.0643  -26.9661   26.5692 C   0  0  0  0  0  0  0  0  0  0  0  0
  -30.3994  -24.6135   21.7262 C   0  0  0  0  0  0  0  0  0  0  0  0
  -27.6782  -23.7938   22.5436 C   0  0  0  0  0  0  0  0  0  0  0  0
  -32.6257  -27.4247   26.3449 C   0  0  0  0  0  0  0  0  0  0  0  0
  -29.4540  -13.6562   18.2621 C   0  0  0  0  0  0  0  0  0  0  0  0
  -31.6493  -26.3001   26.6748 C   0  0  0  0  0  0  0  0  0  0  0  0
  -27.9854  -13.3484   18.5597 C   0  0  0  0  0  0  0  0  0  0  0  0
  -30.3902  -12.6820   18.9738 C   0  0  0  0  0  0  0  0  0  0  0  0
  -28.7093  -12.2624   20.7266 C   0  0  0  0  0  0  0  0  0  0  0  0
  -31.8751  -25.0882   25.7627 C   0  0  1  0  0  0  0  0  0  0  0  0
  -29.5915  -25.4129   22.7439 C   0  0  1  0  0  0  0  0  0  0  0  0
  -27.7286  -13.2527   20.0757 C   0  0  2  0  0  0  0  0  0  0  0  0
  -30.5307  -20.6141   26.3387 C   0  0  0  0  0  0  0  0  0  0  0  0
  -22.5872  -26.8974   19.7877 C   0  0  0  0  0  0  0  0  0  0  0  0
  -25.8560  -25.7842   25.4399 C   0  0  0  0  0  0  0  0  0  0  0  0
  -23.6746  -26.0196   24.2340 C   0  0  0  0  0  0  0  0  0  0  0  0
  -25.2635  -27.9406   24.3204 C   0  0  0  0  0  0  0  0  0  0  0  0
  -25.6240  -25.6038   17.8954 C   0  0  0  0  0  0  0  0  0  0  0  0
  -28.5207  -17.1419   23.3280 C   0  0  0  0  0  0  0  0  0  0  0  0
  -30.3238  -15.1876   24.5802 C   0  0  0  0  0  0  0  0  0  0  0  0
  -29.1767  -16.9381   21.9606 C   0  0  0  0  0  0  0  0  0  0  0  0
  -31.6904  -14.6440   24.1219 C   0  0  0  0  0  0  0  0  0  0  0  0
  -31.6821  -13.1669   23.7341 C   0  0  0  0  0  0  0  0  0  0  0  0
  -29.8027  -18.2080   21.3960 C   0  0  0  0  0  0  0  0  0  1  0  0
  -25.8072  -25.9471   22.8636 C   0  0  1  0  0  0  0  0  0  0  0  0
  -24.0648  -26.6154   19.5641 C   0  0  2  0  0  0  0  0  0  0  0  0
  -25.1694  -26.4035   24.2062 C   0  0  0  0  0  0  0  0  0  0  0  0
  -31.2242  -16.9275   25.9847 N   0  0  0  0  0  0  0  0  0  0  0  0
  -25.9422  -11.6137   20.5281 N   0  0  0  0  0  0  0  0  0  0  0  0
  -26.2826  -12.9050   20.3776 N   0  0  0  0  0  0  0  0  0  0  0  0
  -28.1498  -25.1861   22.6249 N   0  0  0  0  0  0  0  0  0  0  0  0
  -30.0954  -12.6394   20.4081 N   0  0  0  0  0  0  0  0  0  0  0  0
  -25.4053  -15.1051   20.4032 N   0  0  0  0  0  0  0  0  0  0  0  0
  -21.7950  -12.5335   21.2684 N   0  0  0  0  0  0  0  0  0  0  0  0
  -31.3001  -25.3251   24.4560 N   0  0  0  0  0  0  0  0  0  0  0  0
  -25.1945  -26.5390   21.6793 N   0  0  0  0  0  0  0  0  0  0  0  0
  -30.7475  -12.8801   22.6687 N   0  0  0  0  0  0  0  0  0  0  0  0
  -24.2178  -25.9216   18.2541 N   0  3  0  0  0  0  0  0  0  0  0  0
  -22.5170  -14.6896   20.9708 O   0  0  0  0  0  0  0  0  0  0  0  0
  -29.1162  -24.6748   24.9358 O   0  0  0  0  0  0  0  0  0  0  0  0
  -27.6423  -27.4499   22.8570 O   0  0  0  0  0  0  0  0  0  0  0  0
  -24.5986  -24.5365   20.6734 O   0  0  0  0  0  0  0  0  0  0  0  0
  -32.2606  -13.2380   20.9837 O   0  0  0  0  0  0  0  0  0  0  0  0
  -21.7249   -6.9760   21.6488 O   0  0  0  0  0  0  0  0  0  0  0  0
  -28.7869  -19.2022   21.2688 O   0  0  0  0  0  0  0  0  0  1  0  0
  -18.1727   -6.9005   25.8654 F   0  0  0  0  0  0  0  0  0  0  0  0
  -19.6191   -8.7636   21.7615 F   0  0  0  0  0  0  0  0  0  0  0  0
  1  2  1  0  0  0  0
  1  5  2  0  0  0  0
  2  6  2  0  0  0  0
  3  8  2  0  0  0  0
  3 17  1  0  0  0  0
  4  9  1  0  0  0  0
  4 17  2  0  0  0  0
  5 19  1  0  0  0  0
  6 21  1  0  0  0  0
  7 10  2  0  0  0  0
  7 20  1  0  0  0  0
  8 25  1  0  0  0  0
  9 25  2  0  0  0  0
 10 26  1  0  0  0  0
 11 12  2  0  0  0  0
 11 27  1  0  0  0  0
 12 28  1  0  0  0  0
 13 22  1  0  0  0  0
 13 26  2  0  0  0  0
 14 23  2  0  0  0  0
 14 24  1  0  0  0  0
 15 28  2  0  0  0  0
 15 29  1  0  0  0  0
 16 23  1  0  0  0  0
 16 65  2  0  0  0  0
 17 30  1  0  0  0  0
 18 30  1  0  0  0  0
 18 32  2  0  0  0  0
 18 33  1  0  0  0  0
 19 21  2  0  0  0  0
 19 38  1  0  0  0  0
 20 22  2  0  0  0  0
 20 39  1  0  0  0  0
 21 47  1  0  0  0  0
 22 40  1  0  0  0  0
 23 50  1  0  0  0  0
 24 31  2  0  0  0  0
 24 56  1  0  0  0  0
 25 81  1  0  0  0  0
 26 82  1  0  0  0  0
 27 29  2  0  0  0  0
 27 81  1  0  0  0  0
 28 83  1  0  0  0  0
 29 84  1  0  0  0  0
 30 66  2  0  0  0  0
 31 57  1  0  0  0  0
 31 65  1  0  0  0  0
 32 67  1  0  0  0  0
 32 70  1  0  0  0  0
 33 71  1  0  0  0  0
 33 76  2  0  0  0  0
 34 48  1  0  0  0  0
 34 72  1  0  0  0  0
 34 77  2  0  0  0  0
 35 62  1  0  0  0  0
 35 68  1  0  0  0  0
 35 78  2  0  0  0  0
 36 63  1  0  0  0  0
 36 73  1  0  0  0  0
 36 79  2  0  0  0  0
 37 69  1  0  0  0  0
 37 74  1  0  0  0  0
 37 80  2  0  0  0  0
 38 41  1  0  0  0  0
 39 48  1  0  0  0  0
 40 68  1  0  0  0  0
 41 43  1  0  0  0  0
 42 44  1  0  0  0  0
 42 45  1  0  0  0  0
 43 47  1  0  0  0  0
 44 49  1  0  0  0  0
 45 69  1  0  0  0  0
 46 49  1  0  0  0  0
 46 69  1  0  0  0  0
 47 72  1  0  0  0  0
 48 68  1  0  0  0  0
 49 67  1  0  0  0  0
 51 63  1  0  0  0  0
 52 64  1  0  0  0  0
 53 64  1  0  0  0  0
 54 64  1  0  0  0  0
 55 75  1  0  0  0  0
 56 58  1  0  0  0  0
 57 59  1  0  0  0  0
 58 61  1  0  0  0  0
 59 60  1  0  0  0  0
 60 74  1  0  0  0  0
 61 82  1  0  0  0  0
 62 64  1  0  0  0  0
 62 73  1  0  0  0  0
 63 75  1  0  0  0  0
 66 67  1  0  0  0  0
M  CHG  1  75   1
M  ISO  4  37 100  61 101  74 100  82 101
M  END
> <Batch ID>
0040

> <Smiles>
CNC(C)C(=O)NC(C(=O)N1Cc2cc([101O:1][101CH2:1]CCc3cc(C)cnc3CCC[100NH:0][100C:0](=O)N3CCCC(n4nc(-c5ccc(Oc6ccc(F)cc6F)cc5)c(C(N)=O)c4N)C3)ccc2CC1C(=O)NC1CCCc2ccccc21)C(C)(C)C

> <Shape>
0.185

> <Color>
0.178

> <Negative vol penalty>
0.000

$$$$

  -OEChem-04052317073D

 84 92  0     1  0  0  0  0  0999 V2000
  -24.7550  -25.3027   23.3120 C   0  0  0  0  0  0  0  0  0  0  0  0
  -25.2106  -24.5456   22.2374 C   0  0  0  0  0  0  0  0  0  0  0  0
  -26.2136  -27.9870   18.9005 C   0  0  0  0  0  0  0  0  0  0  0  0
  -26.4366  -27.6875   21.2875 C   0  0  0  0  0  0  0  0  0  0  0  0
  -24.5601  -24.7008   24.5544 C   0  0  0  0  0  0  0  0  0  0  0  0
  -25.4727  -23.1863   22.4050 C   0  0  0  0  0  0  0  0  0  0  0  0
  -25.2304  -16.9738   18.8467 C   0  0  0  0  0  0  0  0  0  0  0  0
  -25.0969  -28.7970   19.1064 C   0  0  0  0  0  0  0  0  0  0  0  0
  -25.3198  -28.4976   21.4934 C   0  0  0  0  0  0  0  0  0  0  0  0
  -26.0367  -15.8808   18.5316 C   0  0  0  0  0  0  0  0  0  0  0  0
  -21.9569  -28.1963   21.3172 C   0  0  0  0  0  0  0  0  0  0  0  0
  -21.0008  -27.7608   22.2346 C   0  0  0  0  0  0  0  0  0  0  0  0
  -25.5880  -14.9315   20.7034 C   0  0  0  0  0  0  0  0  0  0  0  0
  -29.5873  -15.5459   20.7880 C   0  0  0  0  0  0  0  0  0  0  0  0
  -21.3545  -29.7560   23.5503 C   0  0  0  0  0  0  0  0  0  0  0  0
  -26.8834  -27.4322   19.9911 C   0  0  0  0  0  0  0  0  0  0  0  0
  -29.3818  -27.0036   19.7048 C   0  0  0  0  0  0  0  0  0  0  0  0
  -24.8107  -23.3314   24.7349 C   0  0  0  0  0  0  0  0  0  0  0  0
  -24.6046  -17.0591   20.0987 C   0  0  0  0  0  0  0  0  0  0  0  0
  -25.2823  -22.5658   23.6514 C   0  0  0  0  0  0  0  0  0  0  0  0
  -24.7723  -16.0252   21.0309 C   0  0  0  0  0  0  0  0  0  0  0  0
  -30.2072  -16.7634   21.0463 C   0  0  0  0  0  0  0  0  0  0  0  0
  -31.5716  -16.9045   20.8191 C   0  0  0  0  0  0  0  0  0  0  0  0
  -24.6500  -29.0523   20.4028 C   0  0  0  0  0  0  0  0  0  0  0  0
  -26.2179  -14.8609   19.4611 C   0  0  0  0  0  0  0  0  0  0  0  0
  -22.6120  -29.4116   21.5163 C   0  0  0  0  0  0  0  0  0  0  0  0
  -20.6996  -28.5407   23.3511 C   0  0  0  0  0  0  0  0  0  0  0  0
  -22.3108  -30.1915   22.6328 C   0  0  0  0  0  0  0  0  0  0  0  0
  -28.0367  -26.5949   19.7790 C   0  0  0  0  0  0  0  0  0  0  0  0
  -30.3701  -14.5087   20.3071 C   0  0  0  0  0  0  0  0  0  0  0  0
  -32.2657  -15.8064   20.3370 C   0  0  0  0  0  0  0  0  0  0  0  0
  -30.0827  -25.8412   19.4944 C   0  0  0  0  0  0  0  0  0  0  0  0
  -29.9472  -28.3164   19.8162 C   0  0  0  0  0  0  0  0  0  0  0  0
  -24.7550  -19.0789   22.5485 C   0  0  0  0  0  0  0  0  0  0  0  0
  -22.3176  -17.2671   23.6882 C   0  0  0  0  0  0  0  0  0  0  0  0
  -20.6907  -14.2671   23.6857 C   0  0  0  0  0  0  0  0  0  0  0  0
  -28.8874  -20.2244   20.8649 C   0  0  0  0  0  0  0  0  0  0  0  0
  -24.6304  -22.7352   26.1085 C   0  0  0  0  0  0  0  0  0  0  0  0
  -23.7166  -18.2317   20.4131 C   0  0  0  0  0  0  0  0  0  0  0  0
  -24.1062  -16.0594   22.3814 C   0  0  0  0  0  0  0  0  0  0  0  0
  -24.5737  -21.2098   26.1078 C   0  0  0  0  0  0  0  0  0  0  0  0
  -29.6227  -21.4898   17.5550 C   0  0  0  0  0  0  0  0  0  0  0  0
  -25.6938  -20.6344   25.2469 C   0  0  0  0  0  0  0  0  0  0  0  0
  -29.4236  -22.9936   17.7531 C   0  0  0  0  0  0  0  0  0  0  0  0
  -28.6016  -20.6868   18.3555 C   0  0  0  0  0  0  0  0  0  0  0  0
  -28.3831  -22.4968   20.0138 C   0  0  0  0  0  0  0  0  0  0  0  0
  -25.5540  -21.0833   23.7874 C   0  0  1  0  0  0  0  0  0  0  0  0
  -23.5415  -18.4640   21.9107 C   0  0  1  0  0  0  0  0  0  0  0  0
  -29.3994  -23.3635   19.2480 C   0  0  2  0  0  0  0  0  0  0  0  0
  -32.2631  -18.1994   21.0848 C   0  0  0  0  0  0  0  0  0  0  0  0
  -34.4472  -14.5708   20.3121 C   0  0  0  0  0  0  0  0  0  0  0  0
  -18.7551  -13.0750   24.7485 C   0  0  0  0  0  0  0  0  0  0  0  0
  -23.9448  -16.9091   26.2443 C   0  0  0  0  0  0  0  0  0  0  0  0
  -22.4453  -14.9973   26.8483 C   0  0  0  0  0  0  0  0  0  0  0  0
  -21.5007  -17.2936   26.6088 C   0  0  0  0  0  0  0  0  0  0  0  0
  -19.3455  -13.8829   21.0777 C   0  0  0  0  0  0  0  0  0  0  0  0
  -29.3890  -17.8982   21.5677 C   0  0  0  0  0  0  0  0  0  0  0  0
  -29.7318  -13.1743   20.0144 C   0  0  0  0  0  0  0  0  0  0  0  0
  -33.7330  -15.8973   20.0720 C   0  0  0  0  0  0  0  0  0  0  0  0
  -29.2099  -13.0422   18.5820 C   0  0  0  0  0  0  0  0  0  0  0  0
  -28.0879  -14.0209   18.2555 C   0  0  0  0  0  0  0  0  0  1  0  0
  -22.2164  -16.0260   24.5417 C   0  0  1  0  0  0  0  0  0  0  0  0
  -19.2172  -13.9204   23.5719 C   0  0  2  0  0  0  0  0  0  0  0  0
  -22.5410  -16.3065   26.0362 C   0  0  0  0  0  0  0  0  0  0  0  0
  -27.8894  -25.2760   19.6278 N   0  0  0  0  0  0  0  0  0  0  0  0
  -31.6981  -14.6079   20.0742 N   0  0  0  0  0  0  0  0  0  0  0  0
  -29.1510  -24.8459   19.4564 N   0  0  0  0  0  0  0  0  0  0  0  0
  -23.2527  -17.2299   22.6441 N   0  0  0  0  0  0  0  0  0  0  0  0
  -28.6426  -21.0735   19.7729 N   0  0  0  0  0  0  0  0  0  0  0  0
  -31.3988  -25.5837   19.3399 N   0  0  0  0  0  0  0  0  0  0  0  0
  -29.0842  -29.3995   20.0319 N   0  0  0  0  0  0  0  0  0  0  0  0
  -24.5248  -20.3163   23.1190 N   0  0  0  0  0  0  0  0  0  0  0  0
  -20.8831  -15.4803   24.3121 N   0  0  0  0  0  0  0  0  0  0  0  0
  -29.1168  -18.8903   20.5516 N   0  0  0  0  0  0  0  0  0  0  0  0
  -18.9595  -13.1596   22.3166 N   0  3  0  0  0  0  0  0  0  0  0  0
  -31.1796  -28.5250   19.7107 O   0  0  0  0  0  0  0  0  0  0  0  0
  -25.8210  -18.4748   22.5261 O   0  0  0  0  0  0  0  0  0  0  0  0
  -21.5886  -18.2313   23.9341 O   0  0  0  0  0  0  0  0  0  0  0  0
  -21.5821  -13.5332   23.2646 O   0  0  0  0  0  0  0  0  0  0  0  0
  -28.9056  -20.6267   22.0333 O   0  0  0  0  0  0  0  0  0  0  0  0
  -23.5605  -29.8429   20.6041 O   0  0  0  0  0  0  0  0  0  0  0  0
  -27.0049  -13.7933   19.1564 O   0  0  0  0  0  0  0  0  0  1  0  0
  -19.7802  -28.1231   24.2313 F   0  0  0  0  0  0  0  0  0  0  0  0
  -22.9359  -31.3605   22.8289 F   0  0  0  0  0  0  0  0  0  0  0  0
  1  2  1  0  0  0  0
  1  5  2  0  0  0  0
  2  6  2  0  0  0  0
  3  8  2  0  0  0  0
  3 16  1  0  0  0  0
  4  9  1  0  0  0  0
  4 16  2  0  0  0  0
  5 18  1  0  0  0  0
  6 20  1  0  0  0  0
  7 10  2  0  0  0  0
  7 19  1  0  0  0  0
  8 24  1  0  0  0  0
  9 24  2  0  0  0  0
 10 25  1  0  0  0  0
 11 12  2  0  0  0  0
 11 26  1  0  0  0  0
 12 27  1  0  0  0  0
 13 21  1  0  0  0  0
 13 25  2  0  0  0  0
 14 22  2  0  0  0  0
 14 30  1  0  0  0  0
 15 27  2  0  0  0  0
 15 28  1  0  0  0  0
 16 29  1  0  0  0  0
 17 29  1  0  0  0  0
 17 32  2  0  0  0  0
 17 33  1  0  0  0  0
 18 20  2  0  0  0  0
 18 38  1  0  0  0  0
 19 21  2  0  0  0  0
 19 39  1  0  0  0  0
 20 47  1  0  0  0  0
 21 40  1  0  0  0  0
 22 23  1  0  0  0  0
 22 57  1  0  0  0  0
 23 31  2  0  0  0  0
 23 50  1  0  0  0  0
 24 81  1  0  0  0  0
 25 82  1  0  0  0  0
 26 28  2  0  0  0  0
 26 81  1  0  0  0  0
 27 83  1  0  0  0  0
 28 84  1  0  0  0  0
 29 65  2  0  0  0  0
 30 58  1  0  0  0  0
 30 66  2  0  0  0  0
 31 59  1  0  0  0  0
 31 66  1  0  0  0  0
 32 67  1  0  0  0  0
 32 70  1  0  0  0  0
 33 71  1  0  0  0  0
 33 76  2  0  0  0  0
 34 48  1  0  0  0  0
 34 72  1  0  0  0  0
 34 77  2  0  0  0  0
 35 62  1  0  0  0  0
 35 68  1  0  0  0  0
 35 78  2  0  0  0  0
 36 63  1  0  0  0  0
 36 73  1  0  0  0  0
 36 79  2  0  0  0  0
 37 69  1  0  0  0  0
 37 74  1  0  0  0  0
 37 80  2  0  0  0  0
 38 41  1  0  0  0  0
 39 48  1  0  0  0  0
 40 68  1  0  0  0  0
 41 43  1  0  0  0  0
 42 44  1  0  0  0  0
 42 45  1  0  0  0  0
 43 47  1  0  0  0  0
 44 49  1  0  0  0  0
 45 69  1  0  0  0  0
 46 49  1  0  0  0  0
 46 69  1  0  0  0  0
 47 72  1  0  0  0  0
 48 68  1  0  0  0  0
 49 67  1  0  0  0  0
 51 59  1  0  0  0  0
 52 63  1  0  0  0  0
 53 64  1  0  0  0  0
 54 64  1  0  0  0  0
 55 64  1  0  0  0  0
 56 75  1  0  0  0  0
 57 74  1  0  0  0  0
 58 60  1  0  0  0  0
 60 61  1  0  0  0  0
 61 82  1  0  0  0  0
 62 64  1  0  0  0  0
 62 73  1  0  0  0  0
 63 75  1  0  0  0  0
 65 67  1  0  0  0  0
M  CHG  1  75   1
M  ISO  4  37 100  61 101  74 100  82 101
M  END
> <Batch ID>
0040

> <Smiles>
CCc1nc(CC[101CH2:1][101O:1]c2ccc3c(c2)CN(C(=O)C(NC(=O)C(C)NC)C(C)(C)C)C(C(=O)NC2CCCc4ccccc42)C3)cc(C[100NH:0][100C:0](=O)N2CCCC(n3nc(-c4ccc(Oc5ccc(F)cc5F)cc4)c(C(N)=O)c3N)C2)c1C

> <Shape>
0.231

> <Color>
0.049

> <Negative vol penalty>
0.000

$$$$

  -OEChem-04052317073D

 91 99  0     1  0  0  0  0  0999 V2000
  -29.0668  -37.8259   17.6900 C   0  0  0  0  0  0  0  0  0  0  0  0
  -27.8995  -37.2085   18.1276 C   0  0  0  0  0  0  0  0  0  0  0  0
  -22.9667  -10.1332   20.4468 C   0  0  0  0  0  0  0  0  0  0  0  0
  -24.3667   -9.1273   22.1395 C   0  0  0  0  0  0  0  0  0  0  0  0
  -30.0326  -37.0858   17.0094 C   0  0  0  0  0  0  0  0  0  0  0  0
  -27.6968  -35.8506   17.8837 C   0  0  0  0  0  0  0  0  0  0  0  0
  -24.8220  -31.8465   21.5181 C   0  0  0  0  0  0  0  0  0  0  0  0
  -22.1746   -8.9855   20.4199 C   0  0  0  0  0  0  0  0  0  0  0  0
  -23.5745   -7.9796   22.1126 C   0  0  0  0  0  0  0  0  0  0  0  0
  -23.5246  -31.3361   21.5102 C   0  0  0  0  0  0  0  0  0  0  0  0
  -20.5921   -6.9839   23.3514 C   0  0  0  0  0  0  0  0  0  0  0  0
  -20.2197   -6.4266   24.5746 C   0  0  0  0  0  0  0  0  0  0  0  0
  -24.2998  -29.4009   20.2965 C   0  0  0  0  0  0  0  0  0  0  0  0
  -21.3349   -4.3685   23.9764 C   0  0  0  0  0  0  0  0  0  0  0  0
  -20.9943  -25.3300   22.0027 C   0  0  0  0  0  0  0  0  0  0  0  0
  -24.0629  -10.2041   21.3065 C   0  0  0  0  0  0  0  0  0  0  0  0
  -24.7093  -12.5229   22.1510 C   0  0  0  0  0  0  0  0  0  0  0  0
  -29.8460  -35.7160   16.7655 C   0  0  0  0  0  0  0  0  0  0  0  0
  -25.8678  -31.1419   20.9048 C   0  0  0  0  0  0  0  0  0  0  0  0
  -28.6604  -35.0917   17.1980 C   0  0  0  0  0  0  0  0  0  0  0  0
  -25.6101  -29.9032   20.3003 C   0  0  0  0  0  0  0  0  0  0  0  0
  -21.8361  -25.1490   23.0812 C   0  0  0  0  0  0  0  0  0  0  0  0
  -22.4784   -7.9086   21.2528 C   0  0  0  0  0  0  0  0  0  0  0  0
  -23.2628  -30.1145   20.8968 C   0  0  0  0  0  0  0  0  0  0  0  0
  -21.3359   -6.2336   22.4406 C   0  0  0  0  0  0  0  0  0  0  0  0
  -20.5912   -5.1189   24.8872 C   0  0  0  0  0  0  0  0  0  0  0  0
  -21.7073   -4.9259   22.7531 C   0  0  0  0  0  0  0  0  0  0  0  0
  -24.8819  -11.3892   21.3344 C   0  0  0  0  0  0  0  0  0  0  0  0
  -22.0729  -26.2712   23.8486 C   0  0  0  0  0  0  0  0  0  0  0  0
  -25.7392  -13.3603   21.7981 C   0  0  0  0  0  0  0  0  0  0  0  0
  -20.7310  -27.5294   22.5132 C   0  0  0  0  0  0  0  0  0  0  0  0
  -23.7077  -12.7946   23.1403 C   0  0  0  0  0  0  0  0  0  0  0  0
  -27.8556  -31.7264   18.4943 C   0  0  0  0  0  0  0  0  0  0  0  0
  -29.2117  -28.9385   19.4485 C   0  0  0  0  0  0  0  0  0  0  0  0
  -28.8622  -25.9465   21.0524 C   0  0  0  0  0  0  0  0  0  0  0  0
  -31.1177  -14.2136   20.5780 C   0  0  0  0  0  0  0  0  0  0  0  0
  -30.8970  -34.9679   15.9842 C   0  0  0  0  0  0  0  0  0  0  0  0
  -27.2666  -31.6933   20.9454 C   0  0  0  0  0  0  0  0  0  0  0  0
  -26.7015  -29.0979   19.6456 C   0  0  0  0  0  0  0  0  0  0  0  0
  -30.7734  -33.4504   16.0951 C   0  0  0  0  0  0  0  0  0  0  0  0
  -28.9950  -13.1274   17.9339 C   0  0  0  0  0  0  0  0  0  0  0  0
  -29.3248  -33.0167   15.8945 C   0  0  0  0  0  0  0  0  0  0  0  0
  -27.7247  -12.6664   18.6506 C   0  0  0  0  0  0  0  0  0  0  0  0
  -30.2492  -12.7976   18.7402 C   0  0  0  0  0  0  0  0  0  0  0  0
  -28.9698  -12.8313   20.8463 C   0  0  0  0  0  0  0  0  0  0  0  0
  -28.4152  -33.6152   16.9743 C   0  0  1  0  0  0  0  0  0  0  0  0
  -28.1607  -31.1362   19.8419 C   0  0  1  0  0  0  0  0  0  0  0  0
  -27.6752  -13.1920   20.0978 C   0  0  2  0  0  0  0  0  0  0  0  0
  -22.9678  -26.1945   25.0414 C   0  0  0  0  0  0  0  0  0  0  0  0
  -30.1347  -23.8638   21.6362 C   0  0  0  0  0  0  0  0  0  0  0  0
  -28.9227  -27.9588   16.5733 C   0  0  0  0  0  0  0  0  0  0  0  0
  -29.3029  -25.6275   17.4031 C   0  0  0  0  0  0  0  0  0  0  0  0
  -31.0865  -27.3509   17.6700 C   0  0  0  0  0  0  0  0  0  0  0  0
  -28.5363  -26.4218   23.9553 C   0  0  0  0  0  0  0  0  0  0  0  0
  -22.4354  -23.8223   23.3745 C   0  0  0  0  0  0  0  0  0  0  0  0
  -20.1093  -28.8674   22.1945 C   0  0  0  0  0  0  0  0  0  0  0  0
  -23.9039  -23.6682   22.9290 C   0  0  0  0  0  0  0  0  0  0  0  0
  -30.0649  -17.3776   22.7943 C   0  0  0  0  0  0  0  0  0  0  0  0
  -29.6360  -18.8232   22.5239 C   0  0  0  0  0  0  0  0  0  0  0  0
  -31.4662  -17.0515   22.2674 C   0  0  0  0  0  0  0  0  0  0  0  0
  -24.4592  -22.2654   23.1935 C   0  0  0  0  0  0  0  0  0  0  0  0
  -28.2091  -19.1303   22.9829 C   0  0  0  0  0  0  0  0  0  0  0  0
  -31.8535  -15.5945   22.5043 C   0  0  0  0  0  0  0  0  0  0  0  0
  -25.9178  -22.1694   22.7693 C   0  0  0  0  0  0  0  0  0  0  0  0
  -27.8341  -20.5708   22.6639 C   0  0  0  0  0  0  0  0  0  0  0  0
  -21.1547  -29.9577   21.9864 C   0  0  0  0  0  0  0  0  0  1  0  0
  -29.0118  -27.4811   19.1090 C   0  0  1  0  0  0  0  0  0  0  0  0
  -29.7239  -25.2549   22.0934 C   0  0  2  0  0  0  0  0  0  0  0  0
  -29.5599  -27.1204   17.6994 C   0  0  0  0  0  0  0  0  0  0  0  0
  -20.4222  -26.5108   21.6883 N   0  0  0  0  0  0  0  0  0  0  0  0
  -25.9382  -11.4938   20.5236 N   0  0  0  0  0  0  0  0  0  0  0  0
  -21.5351  -27.4817   23.5924 N   0  0  0  0  0  0  0  0  0  0  0  0
  -26.4386  -12.7031   20.8290 N   0  0  0  0  0  0  0  0  0  0  0  0
  -28.0515  -29.6823   19.7060 N   0  0  0  0  0  0  0  0  0  0  0  0
  -30.1391  -13.3253   20.1024 N   0  0  0  0  0  0  0  0  0  0  0  0
  -26.1057  -14.5873   22.2252 N   0  0  0  0  0  0  0  0  0  0  0  0
  -22.7231  -11.8258   23.3778 N   0  0  0  0  0  0  0  0  0  0  0  0
  -28.5560  -32.8845   18.2156 N   0  0  0  0  0  0  0  0  0  0  0  0
  -29.6170  -26.7217   20.1977 N   0  0  0  0  0  0  0  0  0  0  0  0
  -30.9345  -14.6711   21.8771 N   0  0  0  0  0  0  0  0  0  0  0  0
  -28.9807  -25.1268   23.3788 N   0  3  0  0  0  0  0  0  0  0  0  0
  -26.4267  -20.8129   23.0844 N   0  3  0  0  0  0  0  0  0  0  0  0
  -23.6768  -13.8716   23.7825 O   0  0  0  0  0  0  0  0  0  0  0  0
  -27.0458  -31.1713   17.7609 O   0  0  0  0  0  0  0  0  0  0  0  0
  -30.3556  -29.3981   19.4908 O   0  0  0  0  0  0  0  0  0  0  0  0
  -27.6419  -25.8095   21.0002 O   0  0  0  0  0  0  0  0  0  0  0  0
  -32.0804  -14.5765   19.8935 O   0  0  0  0  0  0  0  0  0  0  0  0
  -21.7055   -6.7886   21.2270 O   0  0  0  0  0  0  0  0  0  0  0  0
  -21.9973  -29.6144   20.8870 O   0  0  0  0  0  0  0  0  0  1  0  0
  -20.2348   -4.5843   26.0625 F   0  0  0  0  0  0  0  0  0  0  0  0
  -22.4228   -4.2005   21.8827 F   0  0  0  0  0  0  0  0  0  0  0  0
  1  2  1  0  0  0  0
  1  5  2  0  0  0  0
  2  6  2  0  0  0  0
  3  8  2  0  0  0  0
  3 16  1  0  0  0  0
  4  9  1  0  0  0  0
  4 16  2  0  0  0  0
  5 18  1  0  0  0  0
  6 20  1  0  0  0  0
  7 10  2  0  0  0  0
  7 19  1  0  0  0  0
  8 23  1  0  0  0  0
  9 23  2  0  0  0  0
 10 24  1  0  0  0  0
 11 12  2  0  0  0  0
 11 25  1  0  0  0  0
 12 26  1  0  0  0  0
 13 21  1  0  0  0  0
 13 24  2  0  0  0  0
 14 26  2  0  0  0  0
 14 27  1  0  0  0  0
 15 22  1  0  0  0  0
 15 70  2  0  0  0  0
 16 28  1  0  0  0  0
 17 28  1  0  0  0  0
 17 30  2  0  0  0  0
 17 32  1  0  0  0  0
 18 20  2  0  0  0  0
 18 37  1  0  0  0  0
 19 21  2  0  0  0  0
 19 38  1  0  0  0  0
 20 46  1  0  0  0  0
 21 39  1  0  0  0  0
 22 29  2  0  0  0  0
 22 55  1  0  0  0  0
 23 88  1  0  0  0  0
 24 89  1  0  0  0  0
 25 27  2  0  0  0  0
 25 88  1  0  0  0  0
 26 90  1  0  0  0  0
 27 91  1  0  0  0  0
 28 71  2  0  0  0  0
 29 49  1  0  0  0  0
 29 72  1  0  0  0  0
 30 73  1  0  0  0  0
 30 76  1  0  0  0  0
 31 56  1  0  0  0  0
 31 70  1  0  0  0  0
 31 72  2  0  0  0  0
 32 77  1  0  0  0  0
 32 83  2  0  0  0  0
 33 47  1  0  0  0  0
 33 78  1  0  0  0  0
 33 84  2  0  0  0  0
 34 67  1  0  0  0  0
 34 74  1  0  0  0  0
 34 85  2  0  0  0  0
 35 68  1  0  0  0  0
 35 79  1  0  0  0  0
 35 86  2  0  0  0  0
 36 75  1  0  0  0  0
 36 80  1  0  0  0  0
 36 87  2  0  0  0  0
 37 40  1  0  0  0  0
 38 47  1  0  0  0  0
 39 74  1  0  0  0  0
 40 42  1  0  0  0  0
 41 43  1  0  0  0  0
 41 44  1  0  0  0  0
 42 46  1  0  0  0  0
 43 48  1  0  0  0  0
 44 75  1  0  0  0  0
 45 48  1  0  0  0  0
 45 75  1  0  0  0  0
 46 78  1  0  0  0  0
 47 74  1  0  0  0  0
 48 73  1  0  0  0  0
 50 68  1  0  0  0  0
 51 69  1  0  0  0  0
 52 69  1  0  0  0  0
 53 69  1  0  0  0  0
 54 81  1  0  0  0  0
 55 57  1  0  0  0  0
 56 66  1  0  0  0  0
 57 61  1  0  0  0  0
 58 59  1  0  0  0  0
 58 60  1  0  0  0  0
 59 62  1  0  0  0  0
 60 63  1  0  0  0  0
 61 64  1  0  0  0  0
 62 65  1  0  0  0  0
 63 80  1  0  0  0  0
 64 82  1  0  0  0  0
 65 82  1  0  0  0  0
 66 89  1  0  0  0  0
 67 69  1  0  0  0  0
 67 79  1  0  0  0  0
 68 81  1  0  0  0  0
 71 73  1  0  0  0  0
M  CHG  2  81   1  82   1
M  ISO  4  36 100  66 101  80 100  89 101
M  END
> <Batch ID>
0040

> <Smiles>
CNC(C)C(=O)NC(C(=O)N1Cc2cc([101O:1][101CH2:1]Cc3ncc(CCCCNCCCCCC[100NH:0][100C:0](=O)N4CCCC(n5nc(-c6ccc(Oc7ccc(F)cc7F)cc6)c(C(N)=O)c5N)C4)c(C)n3)ccc2CC1C(=O)NC1CCCc2ccccc21)C(C)(C)C

> <Shape>
0.296

> <Color>
0.126

> <Negative vol penalty>
0.000

$$$$

  -OEChem-04052317073D

 92101  0     1  0  0  0  0  0999 V2000
  -32.6538  -17.2067   17.5668 C   0  0  0  0  0  0  0  0  0  0  0  0
  -32.8966  -18.5331   17.2245 C   0  0  0  0  0  0  0  0  0  0  0  0
  -25.6601  -15.3030   21.4361 C   0  0  0  0  0  0  0  0  0  0  0  0
  -24.8716  -15.3371   19.1527 C   0  0  0  0  0  0  0  0  0  0  0  0
  -31.4252  -16.8437   18.1172 C   0  0  0  0  0  0  0  0  0  0  0  0
  -31.9105  -19.4971   17.4314 C   0  0  0  0  0  0  0  0  0  0  0  0
  -31.1335  -26.4179   19.1095 C   0  0  0  0  0  0  0  0  0  0  0  0
  -26.8854  -14.7942   21.0055 C   0  0  0  0  0  0  0  0  0  0  0  0
  -26.0969  -14.8283   18.7220 C   0  0  0  0  0  0  0  0  0  0  0  0
  -30.4990  -27.5722   18.6528 C   0  0  0  0  0  0  0  0  0  0  0  0
  -28.1449  -11.8056   20.0534 C   0  0  0  0  0  0  0  0  0  0  0  0
  -28.6932  -10.7432   20.7718 C   0  0  0  0  0  0  0  0  0  0  0  0
  -28.4436  -26.8428   19.6837 C   0  0  0  0  0  0  0  0  0  0  0  0
  -30.6425  -12.0826   21.2649 C   0  0  0  0  0  0  0  0  0  0  0  0
  -23.5224  -30.1417   21.0683 C   0  0  0  0  0  0  0  0  0  0  0  0
  -24.6532  -15.5743   20.5097 C   0  0  0  0  0  0  0  0  0  0  0  0
  -22.4840  -15.4963   21.8499 C   0  0  0  0  0  0  0  0  0  0  0  0
  -30.4271  -17.8054   18.3398 C   0  0  0  0  0  0  0  0  0  0  0  0
  -30.4239  -25.4605   19.8487 C   0  0  0  0  0  0  0  0  0  0  0  0
  -30.6670  -19.1464   17.9840 C   0  0  0  0  0  0  0  0  0  0  0  0
  -29.0721  -25.6784   20.1508 C   0  0  0  0  0  0  0  0  0  0  0  0
  -27.1038  -14.5569   19.6484 C   0  0  0  0  0  0  0  0  0  0  0  0
  -29.1530  -27.7835   18.9374 C   0  0  0  0  0  0  0  0  0  0  0  0
  -28.8454  -13.0066   19.9407 C   0  0  0  0  0  0  0  0  0  0  0  0
  -29.9420  -10.8817   21.3776 C   0  0  0  0  0  0  0  0  0  0  0  0
  -30.0942  -13.1451   20.5465 C   0  0  0  0  0  0  0  0  0  0  0  0
  -23.3871  -16.0993   20.9541 C   0  0  0  0  0  0  0  0  0  0  0  0
  -24.0148  -29.5262   22.1820 C   0  0  0  0  0  0  0  0  0  0  0  0
  -21.4440  -16.3888   21.9419 C   0  0  0  0  0  0  0  0  0  0  0  0
  -25.6949  -29.8109   20.7587 C   0  0  0  0  0  0  0  0  0  0  0  0
  -22.5769  -14.2416   22.5376 C   0  0  0  0  0  0  0  0  0  0  0  0
  -29.6719  -22.4019   19.4207 C   0  0  0  0  0  0  0  0  0  0  0  0
  -21.2674  -22.2627   21.0811 C   0  0  0  0  0  0  0  0  0  0  0  0
  -28.5203  -22.6659   22.4417 C   0  0  0  0  0  0  0  0  0  0  0  0
  -27.3067  -24.6815   24.9139 C   0  0  0  0  0  0  0  0  0  0  0  0
  -29.0977  -17.3571   18.8934 C   0  0  0  0  0  0  0  0  0  0  0  0
  -31.1298  -24.2334   20.3568 C   0  0  0  0  0  0  0  0  0  0  0  0
  -28.2708  -24.6911   20.9579 C   0  0  0  0  0  0  0  0  0  0  0  0
  -27.0522  -29.7792   20.1581 C   0  0  0  0  0  0  0  0  0  0  0  0
  -28.2427  -18.5033   19.4276 C   0  0  0  0  0  0  0  0  0  0  0  0
  -19.1740  -19.7751   19.4512 C   0  0  0  0  0  0  0  0  0  0  0  0
  -28.2222  -19.6616   18.4352 C   0  0  0  0  0  0  0  0  0  0  0  0
  -19.9615  -18.4925   19.7154 C   0  0  0  0  0  0  0  0  0  0  0  0
  -26.4897  -29.8267   17.6689 C   0  0  0  0  0  0  0  0  0  0  0  0
  -24.5108  -30.9392   18.8733 C   0  0  0  0  0  0  0  0  0  0  0  0
  -20.1011  -20.9675   19.2307 C   0  0  0  0  0  0  0  0  0  0  0  0
  -21.8615  -19.9077   20.6098 C   0  0  0  0  0  0  0  0  0  0  0  0
  -29.6314  -20.2252   18.2161 C   0  0  1  0  0  0  0  0  0  0  0  0
  -30.1787  -23.0803   20.6620 C   0  0  1  0  0  0  0  0  0  0  0  0
  -24.9642  -30.0242   17.7297 C   0  0  2  0  0  0  0  0  0  0  0  0
  -20.9625  -18.6869   20.8677 C   0  0  2  0  0  0  0  0  0  0  0  0
  -27.1484  -29.0614   18.8209 C   0  0  1  0  0  0  0  0  0  1  0  0
  -23.3395  -24.4192   15.2111 C   0  0  0  0  0  0  0  0  0  0  0  0
  -26.4134  -24.6043   27.2577 C   0  0  0  0  0  0  0  0  0  0  0  0
  -25.8714  -21.5728   21.3936 C   0  0  0  0  0  0  0  0  0  0  0  0
  -24.7805  -22.4002   23.4897 C   0  0  0  0  0  0  0  0  0  0  0  0
  -26.5679  -20.6648   23.6173 C   0  0  0  0  0  0  0  0  0  0  0  0
  -29.4832  -26.4137   25.9242 C   0  0  0  0  0  0  0  0  0  0  0  0
  -23.3616  -29.1000   23.4223 C   0  0  0  0  0  0  0  0  0  0  0  0
  -20.4359  -23.4645   20.7095 C   0  0  0  0  0  0  0  0  0  0  0  0
  -24.2029  -28.6975   17.7196 C   0  0  0  0  0  0  0  0  0  0  0  0
  -24.0935  -25.7394   15.2189 C   0  0  0  0  0  0  0  0  0  0  0  0
  -21.8689  -28.7028   23.2772 C   0  0  0  0  0  0  0  0  0  0  0  0
  -20.7706  -24.6554   21.6032 C   0  0  0  0  0  0  0  0  0  0  0  0
  -24.5319  -27.8876   16.4716 C   0  0  0  0  0  0  0  0  0  0  0  0
  -23.7460  -26.5756   16.4503 C   0  0  0  0  0  0  0  0  0  0  0  0
  -21.6672  -27.5540   22.2834 C   0  0  0  0  0  0  0  0  0  0  0  0
  -19.9562  -25.9027   21.2438 C   0  0  0  0  0  0  0  0  0  0  0  0
  -20.2111  -27.0880   22.1813 C   0  0  0  0  0  0  0  0  0  0  0  0
  -27.1926  -23.0481   23.0501 C   0  0  1  0  0  0  0  0  0  0  0  0
  -27.6489  -24.7834   26.3893 C   0  0  2  0  0  0  0  0  0  0  0  0
  -26.1174  -21.9393   22.8708 C   0  0  0  0  0  0  0  0  0  0  0  0
  -22.9583  -17.2833   20.5086 N   0  0  0  0  0  0  0  0  0  0  0  0
  -24.5810  -30.3092   20.1895 N   0  0  0  0  0  0  0  0  0  0  0  0
  -21.7744  -17.4314   21.1270 N   0  0  0  0  0  0  0  0  0  0  0  0
  -25.3532  -29.3355   21.9646 N   0  3  0  0  0  0  0  0  0  0  0  0
  -29.0041  -23.5038   21.4270 N   0  0  0  0  0  0  0  0  0  0  0  0
  -21.0570  -21.1020   20.3364 N   0  0  0  0  0  0  0  0  0  0  0  0
  -20.2883  -16.3755   22.6395 N   0  0  0  0  0  0  0  0  0  0  0  0
  -22.0576  -13.0984   21.9149 N   0  0  0  0  0  0  0  0  0  0  0  0
  -30.0176  -21.0672   19.3280 N   0  0  0  0  0  0  0  0  0  0  0  0
  -27.4657  -23.3963   24.4403 N   0  0  0  0  0  0  0  0  0  0  0  0
  -28.2468  -26.1147   26.6915 N   0  3  0  0  0  0  0  0  0  0  0  0
  -23.0901  -14.1402   23.6777 O   0  0  0  0  0  0  0  0  0  0  0  0
  -29.0146  -23.0416   18.6081 O   0  0  0  0  0  0  0  0  0  0  0  0
  -22.0770  -22.3540   22.0076 O   0  0  0  0  0  0  0  0  0  0  0  0
  -29.1099  -21.6650   22.8566 O   0  0  0  0  0  0  0  0  0  0  0  0
  -26.9318  -25.6447   24.2489 O   0  0  0  0  0  0  0  0  0  0  0  0
  -28.2994  -14.0607   19.2278 O   0  0  0  0  0  0  0  0  0  0  0  0
  -28.5310  -28.9090   18.4923 O   0  0  0  0  0  0  0  0  0  1  0  0
  -30.4677   -9.8618   22.0688 F   0  0  0  0  0  0  0  0  0  0  0  0
  -30.7714  -14.2968   20.4426 F   0  0  0  0  0  0  0  0  0  0  0  0
  1  2  1  0  0  0  0
  1  5  2  0  0  0  0
  2  6  2  0  0  0  0
  3  8  2  0  0  0  0
  3 16  1  0  0  0  0
  4  9  1  0  0  0  0
  4 16  2  0  0  0  0
  5 18  1  0  0  0  0
  6 20  1  0  0  0  0
  7 10  2  0  0  0  0
  7 19  1  0  0  0  0
  8 22  1  0  0  0  0
  9 22  2  0  0  0  0
 10 23  1  0  0  0  0
 11 12  2  0  0  0  0
 11 24  1  0  0  0  0
 12 25  1  0  0  0  0
 13 21  1  0  0  0  0
 13 23  2  0  0  0  0
 14 25  2  0  0  0  0
 14 26  1  0  0  0  0
 15 28  2  0  0  0  0
 15 74  1  0  0  0  0
 16 27  1  0  0  0  0
 17 27  1  0  0  0  0
 17 29  2  0  0  0  0
 17 31  1  0  0  0  0
 18 20  2  0  0  0  0
 18 36  1  0  0  0  0
 19 21  2  0  0  0  0
 19 37  1  0  0  0  0
 20 48  1  0  0  0  0
 21 38  1  0  0  0  0
 22 89  1  0  0  0  0
 23 90  1  0  0  0  0
 24 26  2  0  0  0  0
 24 89  1  0  0  0  0
 25 91  1  0  0  0  0
 26 92  1  0  0  0  0
 27 73  2  0  0  0  0
 28 59  1  0  0  0  0
 28 76  1  0  0  0  0
 29 75  1  0  0  0  0
 29 79  1  0  0  0  0
 30 39  1  0  0  0  0
 30 74  1  0  0  0  0
 30 76  2  0  0  0  0
 31 80  1  0  0  0  0
 31 84  2  0  0  0  0
 32 49  1  0  0  0  0
 32 81  1  0  0  0  0
 32 85  2  0  0  0  0
 33 60  1  0  0  0  0
 33 78  1  0  0  0  0
 33 86  2  0  0  0  0
 34 70  1  0  0  0  0
 34 77  1  0  0  0  0
 34 87  2  0  0  0  0
 35 71  1  0  0  0  0
 35 82  1  0  0  0  0
 35 88  2  0  0  0  0
 36 40  1  0  0  0  0
 37 49  1  0  0  0  0
 38 77  1  0  0  0  0
 39 52  1  0  0  0  0
 40 42  1  0  0  0  0
 41 43  1  0  0  0  0
 41 46  1  0  0  0  0
 42 48  1  0  0  0  0
 43 51  1  0  0  0  0
 44 50  1  0  0  0  0
 44 52  1  0  0  0  0
 45 50  1  0  0  0  0
 45 74  1  0  0  0  0
 46 78  1  0  0  0  0
 47 51  1  0  0  0  0
 47 78  1  0  0  0  0
 48 81  1  0  0  0  0
 49 77  1  0  0  0  0
 50 61  1  0  0  0  0
 51 75  1  0  0  0  0
 52 90  1  0  0  0  0
 53 62  1  0  0  0  0
 54 71  1  0  0  0  0
 55 72  1  0  0  0  0
 56 72  1  0  0  0  0
 57 72  1  0  0  0  0
 58 83  1  0  0  0  0
 59 63  1  0  0  0  0
 60 64  1  0  0  0  0
 61 65  1  0  0  0  0
 62 66  1  0  0  0  0
 63 67  1  0  0  0  0
 64 68  1  0  0  0  0
 65 66  1  0  0  0  0
 67 69  1  0  0  0  0
 68 69  1  0  0  0  0
 70 72  1  0  0  0  0
 70 82  1  0  0  0  0
 71 83  1  0  0  0  0
 73 75  1  0  0  0  0
M  CHG  2  76   1  83   1
M  ISO  4  33 100  52 101  60 100  90 101
M  END
> <Batch ID>
0040

> <Smiles>
CCCCCC1Cn2cc(CCCCCC[100CH2:0][100C:0](=O)N3CCCC(n4nc(-c5ccc(Oc6ccc(F)cc6F)cc5)c(C(N)=O)c4N)C3)nc2C[101CH:1]([101O:1]c2ccc3c(c2)CN(C(=O)C(NC(=O)C(C)NC)C(C)(C)C)C(C(=O)NC2CCCc4ccccc42)C3)C1

> <Shape>
0.215

> <Color>
0.052

> <Negative vol penalty>
0.000

$$$$

  -OEChem-04052317073D

 84 92  0     1  0  0  0  0  0999 V2000
  -30.4750  -35.6632   21.4315 C   0  0  0  0  0  0  0  0  0  0  0  0
  -30.7059  -34.4870   20.7254 C   0  0  0  0  0  0  0  0  0  0  0  0
  -22.3532  -10.2667   20.9298 C   0  0  0  0  0  0  0  0  0  0  0  0
  -24.4076   -9.1180   21.4747 C   0  0  0  0  0  0  0  0  0  0  0  0
  -29.6563  -35.6482   22.5600 C   0  0  0  0  0  0  0  0  0  0  0  0
  -30.1191  -33.2947   21.1481 C   0  0  0  0  0  0  0  0  0  0  0  0
  -27.4579  -27.1623   18.5737 C   0  0  0  0  0  0  0  0  0  0  0  0
  -21.6611   -9.0571   20.9894 C   0  0  0  0  0  0  0  0  0  0  0  0
  -23.7155   -7.9084   21.5343 C   0  0  0  0  0  0  0  0  0  0  0  0
  -27.5774  -25.7830   18.7387 C   0  0  0  0  0  0  0  0  0  0  0  0
  -22.4262   -4.5719   22.1847 C   0  0  0  0  0  0  0  0  0  0  0  0
  -22.6942   -3.7228   23.2584 C   0  0  0  0  0  0  0  0  0  0  0  0
  -26.1177  -25.8921   20.6562 C   0  0  0  0  0  0  0  0  0  0  0  0
  -21.9769   -5.4418   24.7971 C   0  0  0  0  0  0  0  0  0  0  0  0
  -23.7265  -10.2971   21.1724 C   0  0  0  0  0  0  0  0  0  0  0  0
  -24.6677  -12.4500   22.1658 C   0  0  0  0  0  0  0  0  0  0  0  0
  -29.0515  -34.4570   22.9911 C   0  0  0  0  0  0  0  0  0  0  0  0
  -26.6749  -27.9196   19.4567 C   0  0  0  0  0  0  0  0  0  0  0  0
  -29.2927  -33.2635   22.2842 C   0  0  0  0  0  0  0  0  0  0  0  0
  -25.9880  -27.2805   20.4987 C   0  0  0  0  0  0  0  0  0  0  0  0
  -28.5306  -21.1521   20.4202 C   0  0  0  0  0  0  0  0  0  0  0  0
  -22.3422   -7.8780   21.2917 C   0  0  0  0  0  0  0  0  0  0  0  0
  -26.9095  -25.1481   19.7818 C   0  0  0  0  0  0  0  0  0  0  0  0
  -21.9335   -5.8560   22.4172 C   0  0  0  0  0  0  0  0  0  0  0  0
  -22.4696   -4.1577   24.5645 C   0  0  0  0  0  0  0  0  0  0  0  0
  -21.7089   -6.2909   23.7234 C   0  0  0  0  0  0  0  0  0  0  0  0
  -24.4421  -11.5462   21.1103 C   0  0  0  0  0  0  0  0  0  0  0  0
  -28.4395  -19.7912   20.6299 C   0  0  0  0  0  0  0  0  0  0  0  0
  -27.8227  -21.6384   19.3401 C   0  0  0  0  0  0  0  0  0  0  0  0
  -25.3900  -13.4699   21.5961 C   0  0  0  0  0  0  0  0  0  0  0  0
  -27.0709  -19.5547   18.8304 C   0  0  0  0  0  0  0  0  0  0  0  0
  -24.2608  -12.3743   23.5386 C   0  0  0  0  0  0  0  0  0  0  0  0
  -27.2502  -30.2860   21.4995 C   0  0  0  0  0  0  0  0  0  0  0  0
  -24.0202  -30.2916   21.7986 C   0  0  0  0  0  0  0  0  0  0  0  0
  -21.0821  -28.5774   21.5228 C   0  0  0  0  0  0  0  0  0  0  0  0
  -29.5091  -15.2545   18.2805 C   0  0  0  0  0  0  0  0  0  0  0  0
  -28.2125  -34.4810   24.2442 C   0  0  0  0  0  0  0  0  0  0  0  0
  -26.5349  -29.4027   19.2491 C   0  0  0  0  0  0  0  0  0  0  0  0
  -25.1185  -28.0453   21.4618 C   0  0  0  0  0  0  0  0  0  0  0  0
  -27.3273  -33.2482   24.4083 C   0  0  0  0  0  0  0  0  0  0  0  0
  -26.3922  -14.4825   16.7426 C   0  0  0  0  0  0  0  0  0  0  0  0
  -28.1262  -31.9775   24.1365 C   0  0  0  0  0  0  0  0  0  0  0  0
  -25.6286  -13.7193   17.8263 C   0  0  0  0  0  0  0  0  0  0  0  0
  -27.8839  -14.1566   16.7674 C   0  0  0  0  0  0  0  0  0  0  0  0
  -27.7731  -13.5789   19.1606 C   0  0  0  0  0  0  0  0  0  0  0  0
  -28.6542  -31.9550   22.6970 C   0  0  1  0  0  0  0  0  0  0  0  0
  -26.1232  -30.1471   20.5156 C   0  0  1  0  0  0  0  0  0  0  0  0
  -26.2733  -13.9173   19.2114 C   0  0  2  0  0  0  0  0  0  0  0  0
  -29.3379  -22.0370   21.3022 C   0  0  0  0  0  0  0  0  0  0  0  0
  -26.2580  -18.6680   17.9492 C   0  0  0  0  0  0  0  0  0  0  0  0
  -18.6107  -28.8351   21.8737 C   0  0  0  0  0  0  0  0  0  0  0  0
  -24.4240  -30.0361   24.8122 C   0  0  0  0  0  0  0  0  0  0  0  0
  -22.0237  -29.3510   25.0054 C   0  0  0  0  0  0  0  0  0  0  0  0
  -22.6066  -31.6143   24.1332 C   0  0  0  0  0  0  0  0  0  0  0  0
  -20.5061  -28.0718   18.6642 C   0  0  0  0  0  0  0  0  0  0  0  0
  -29.1629  -19.1517   21.7692 C   0  0  0  0  0  0  0  0  0  0  0  0
  -27.8466  -23.1024   19.0119 C   0  0  0  0  0  0  0  0  0  1  0  0
  -29.6133  -17.7207   21.4397 C   0  0  0  0  0  0  0  0  0  0  0  0
  -30.5891  -17.6931   20.2596 C   0  0  0  0  0  0  0  0  0  0  0  0
  -31.0611  -16.2826   19.9217 C   0  0  0  0  0  0  0  0  0  0  0  0
  -23.0277  -29.5828   22.6882 C   0  0  1  0  0  0  0  0  0  0  0  0
  -19.7571  -28.9466   20.8806 C   0  0  2  0  0  0  0  0  0  0  0  0
  -23.0384  -30.1316   24.1429 C   0  0  0  0  0  0  0  0  0  0  0  0
  -24.9775  -11.9559   19.9573 N   0  0  0  0  0  0  0  0  0  0  0  0
  -27.7160  -18.9597   19.8518 N   0  0  0  0  0  0  0  0  0  0  0  0
  -27.0799  -20.8653   18.5210 N   0  0  0  0  0  0  0  0  0  0  0  0
  -25.5467  -13.1284   20.2850 N   0  0  0  0  0  0  0  0  0  0  0  0
  -25.0185  -29.4943   21.2210 N   0  0  0  0  0  0  0  0  0  0  0  0
  -28.4344  -14.3666   18.1085 N   0  0  0  0  0  0  0  0  0  0  0  0
  -25.9000  -14.6165   22.0937 N   0  0  0  0  0  0  0  0  0  0  0  0
  -23.5246  -11.2574   23.9566 N   0  0  0  0  0  0  0  0  0  0  0  0
  -27.5972  -31.5945   21.7765 N   0  0  0  0  0  0  0  0  0  0  0  0
  -21.7348  -29.6855   22.0203 N   0  0  0  0  0  0  0  0  0  0  0  0
  -29.9663  -15.4003   19.5845 N   0  0  0  0  0  0  0  0  0  0  0  0
  -19.4706  -28.0450   19.7291 N   0  3  0  0  0  0  0  0  0  0  0  0
  -24.5277  -13.2785   24.3661 O   0  0  0  0  0  0  0  0  0  0  0  0
  -27.7658  -29.2804   21.9735 O   0  0  0  0  0  0  0  0  0  0  0  0
  -23.9095  -31.5066   21.6169 O   0  0  0  0  0  0  0  0  0  0  0  0
  -21.4951  -27.4213   21.5808 O   0  0  0  0  0  0  0  0  0  0  0  0
  -30.0197  -15.8758   17.3422 O   0  0  0  0  0  0  0  0  0  0  0  0
  -21.6672   -6.6976   21.3503 O   0  0  0  0  0  0  0  0  0  0  0  0
  -27.0249  -23.8021   19.9455 O   0  0  0  0  0  0  0  0  0  1  0  0
  -22.7256   -3.3416   25.5954 F   0  0  0  0  0  0  0  0  0  0  0  0
  -21.2346   -7.5231   23.9530 F   0  0  0  0  0  0  0  0  0  0  0  0
  1  2  1  0  0  0  0
  1  5  2  0  0  0  0
  2  6  2  0  0  0  0
  3  8  2  0  0  0  0
  3 15  1  0  0  0  0
  4  9  1  0  0  0  0
  4 15  2  0  0  0  0
  5 17  1  0  0  0  0
  6 19  1  0  0  0  0
  7 10  2  0  0  0  0
  7 18  1  0  0  0  0
  8 22  1  0  0  0  0
  9 22  2  0  0  0  0
 10 23  1  0  0  0  0
 11 12  2  0  0  0  0
 11 24  1  0  0  0  0
 12 25  1  0  0  0  0
 13 20  1  0  0  0  0
 13 23  2  0  0  0  0
 14 25  2  0  0  0  0
 14 26  1  0  0  0  0
 15 27  1  0  0  0  0
 16 27  1  0  0  0  0
 16 30  2  0  0  0  0
 16 32  1  0  0  0  0
 17 19  2  0  0  0  0
 17 37  1  0  0  0  0
 18 20  2  0  0  0  0
 18 38  1  0  0  0  0
 19 46  1  0  0  0  0
 20 39  1  0  0  0  0
 21 28  1  0  0  0  0
 21 29  2  0  0  0  0
 21 49  1  0  0  0  0
 22 81  1  0  0  0  0
 23 82  1  0  0  0  0
 24 26  2  0  0  0  0
 24 81  1  0  0  0  0
 25 83  1  0  0  0  0
 26 84  1  0  0  0  0
 27 64  2  0  0  0  0
 28 56  1  0  0  0  0
 28 65  2  0  0  0  0
 29 57  1  0  0  0  0
 29 66  1  0  0  0  0
 30 67  1  0  0  0  0
 30 70  1  0  0  0  0
 31 50  1  0  0  0  0
 31 65  1  0  0  0  0
 31 66  2  0  0  0  0
 32 71  1  0  0  0  0
 32 76  2  0  0  0  0
 33 47  1  0  0  0  0
 33 72  1  0  0  0  0
 33 77  2  0  0  0  0
 34 61  1  0  0  0  0
 34 68  1  0  0  0  0
 34 78  2  0  0  0  0
 35 62  1  0  0  0  0
 35 73  1  0  0  0  0
 35 79  2  0  0  0  0
 36 69  1  0  0  0  0
 36 74  1  0  0  0  0
 36 80  2  0  0  0  0
 37 40  1  0  0  0  0
 38 47  1  0  0  0  0
 39 68  1  0  0  0  0
 40 42  1  0  0  0  0
 41 43  1  0  0  0  0
 41 44  1  0  0  0  0
 42 46  1  0  0  0  0
 43 48  1  0  0  0  0
 44 69  1  0  0  0  0
 45 48  1  0  0  0  0
 45 69  1  0  0  0  0
 46 72  1  0  0  0  0
 47 68  1  0  0  0  0
 48 67  1  0  0  0  0
 51 62  1  0  0  0  0
 52 63  1  0  0  0  0
 53 63  1  0  0  0  0
 54 63  1  0  0  0  0
 55 75  1  0  0  0  0
 56 58  1  0  0  0  0
 57 82  1  0  0  0  0
 58 59  1  0  0  0  0
 59 60  1  0  0  0  0
 60 74  1  0  0  0  0
 61 63  1  0  0  0  0
 61 73  1  0  0  0  0
 62 75  1  0  0  0  0
 64 67  1  0  0  0  0
M  CHG  1  75   1
M  ISO  4  36 100  57 101  74 100  82 101
M  END
> <Batch ID>
0040

> <Smiles>
CNC(C)C(=O)NC(C(=O)N1Cc2cc([101O:1][101CH2:1]c3nc(C)nc(CCCC[100NH:0][100C:0](=O)N4CCCC(n5nc(-c6ccc(Oc7ccc(F)cc7F)cc6)c(C(N)=O)c5N)C4)c3C)ccc2CC1C(=O)NC1CCCc2ccccc21)C(C)(C)C

> <Shape>
0.297

> <Color>
0.103

> <Negative vol penalty>
0.000

$$$$

  -OEChem-04052317073D

 86 94  0     1  0  0  0  0  0999 V2000
  -21.4416  -14.3692   17.3418 C   0  0  0  0  0  0  0  0  0  0  0  0
  -22.2977  -15.4464   17.5465 C   0  0  0  0  0  0  0  0  0  0  0  0
  -23.0682   -9.8794   19.9377 C   0  0  0  0  0  0  0  0  0  0  0  0
  -23.8353   -9.8724   22.2287 C   0  0  0  0  0  0  0  0  0  0  0  0
  -20.4091  -14.4681   16.4100 C   0  0  0  0  0  0  0  0  0  0  0  0
  -22.1226  -16.6229   16.8187 C   0  0  0  0  0  0  0  0  0  0  0  0
  -22.4736  -20.7661   19.7093 C   0  0  0  0  0  0  0  0  0  0  0  0
  -22.3232   -8.7261   20.1836 C   0  0  0  0  0  0  0  0  0  0  0  0
  -23.0902   -8.7191   22.4747 C   0  0  0  0  0  0  0  0  0  0  0  0
  -23.7539  -21.1864   20.0669 C   0  0  0  0  0  0  0  0  0  0  0  0
  -20.5035   -5.5785   20.1135 C   0  0  0  0  0  0  0  0  0  0  0  0
  -20.5621   -4.5532   19.1697 C   0  0  0  0  0  0  0  0  0  0  0  0
  -23.6849  -22.8563   18.3273 C   0  0  0  0  0  0  0  0  0  0  0  0
  -22.9477   -4.3772   19.5091 C   0  0  0  0  0  0  0  0  0  0  0  0
  -28.4468  -20.8132   20.3055 C   0  0  0  0  0  0  0  0  0  0  0  0
  -23.8243  -10.4525   20.9603 C   0  0  0  0  0  0  0  0  0  0  0  0
  -24.1701  -12.9777   20.8531 C   0  0  0  0  0  0  0  0  0  0  0  0
  -20.2153  -15.6497   15.6773 C   0  0  0  0  0  0  0  0  0  0  0  0
  -21.7925  -21.3815   18.6492 C   0  0  0  0  0  0  0  0  0  0  0  0
  -21.0874  -16.7372   15.8752 C   0  0  0  0  0  0  0  0  0  0  0  0
  -22.3951  -22.4436   17.9599 C   0  0  0  0  0  0  0  0  0  0  0  0
  -28.7414  -19.5247   19.9323 C   0  0  0  0  0  0  0  0  0  0  0  0
  -22.3342   -8.1460   21.4521 C   0  0  0  0  0  0  0  0  0  0  0  0
  -24.3610  -22.2297   19.3740 C   0  0  0  0  0  0  0  0  0  0  0  0
  -21.6670   -6.0032   20.7551 C   0  0  0  0  0  0  0  0  0  0  0  0
  -21.7842   -3.9525   18.8675 C   0  0  0  0  0  0  0  0  0  0  0  0
  -22.8891   -5.4025   20.4529 C   0  0  0  0  0  0  0  0  0  0  0  0
  -24.5946  -11.6435   20.7067 C   0  0  0  0  0  0  0  0  0  0  0  0
  -28.6956  -19.5466   18.5254 C   0  0  0  0  0  0  0  0  0  0  0  0
  -25.2623  -13.7274   20.4906 C   0  0  0  0  0  0  0  0  0  0  0  0
  -22.9018  -13.4933   21.2789 C   0  0  0  0  0  0  0  0  0  0  0  0
  -20.6639  -20.4077   15.8418 C   0  0  0  0  0  0  0  0  0  0  0  0
  -19.4403  -23.4098   15.7319 C   0  0  0  0  0  0  0  0  0  0  0  0
  -19.6195  -26.6517   16.7829 C   0  0  0  0  0  0  0  0  0  0  0  0
  -30.7484  -14.7362   20.6674 C   0  0  0  0  0  0  0  0  0  0  0  0
  -19.1146  -15.6928   14.6471 C   0  0  0  0  0  0  0  0  0  0  0  0
  -20.4013  -20.9341   18.2933 C   0  0  0  0  0  0  0  0  0  0  0  0
  -21.6982  -23.1509   16.8274 C   0  0  0  0  0  0  0  0  0  0  0  0
  -18.7662  -17.1059   14.1867 C   0  0  0  0  0  0  0  0  0  0  0  0
  -29.5993  -12.3668   18.2710 C   0  0  0  0  0  0  0  0  0  0  0  0
  -20.0347  -17.8939   13.8753 C   0  0  0  0  0  0  0  0  0  0  0  0
  -28.1627  -12.0731   18.7068 C   0  0  0  0  0  0  0  0  0  0  0  0
  -30.5205  -12.5795   19.4703 C   0  0  0  0  0  0  0  0  0  0  0  0
  -28.6244  -13.3060   20.8668 C   0  0  0  0  0  0  0  0  0  0  0  0
  -20.9144  -18.0388   15.1230 C   0  0  1  0  0  0  0  0  0  0  0  0
  -20.0062  -21.2913   16.8637 C   0  0  1  0  0  0  0  0  0  0  0  0
  -27.6462  -13.1396   19.6913 C   0  0  2  0  0  0  0  0  0  0  0  0
  -26.9008  -14.7707   14.7113 C   0  0  0  0  0  0  0  0  0  0  0  0
  -18.5061  -28.8817   16.4909 C   0  0  0  0  0  0  0  0  0  0  0  0
  -20.7953  -23.7281   13.0166 C   0  0  0  0  0  0  0  0  0  0  0  0
  -20.4655  -26.2016   13.2199 C   0  0  0  0  0  0  0  0  0  0  0  0
  -18.4877  -24.6830   13.1492 C   0  0  0  0  0  0  0  0  0  0  0  0
  -18.8947  -26.7953   19.6488 C   0  0  0  0  0  0  0  0  0  0  0  0
  -29.0368  -18.3844   20.8161 C   0  0  0  0  0  0  0  0  0  0  0  0
  -28.9338  -18.4279   17.5965 C   0  0  0  0  0  0  0  0  0  0  0  0
  -26.6313  -15.9859   15.5845 C   0  0  0  0  0  0  0  0  0  0  0  0
  -30.5402  -18.0396   20.9632 C   0  0  0  0  0  0  0  0  0  0  0  0
  -27.6501  -17.7960   17.0219 C   0  0  0  0  0  0  0  0  0  0  0  0
  -27.9306  -16.5960   16.1118 C   0  0  0  0  0  0  0  0  0  0  0  0
  -27.8991  -22.9645   19.0196 C   0  0  0  0  0  0  0  0  0  0  0  0
  -30.8217  -16.8797   21.9159 C   0  0  0  0  0  0  0  0  0  0  0  0
  -26.4279  -23.1813   18.6825 C   0  0  0  0  0  0  0  0  0  1  0  0
  -19.9288  -24.7456   15.2257 C   0  0  1  0  0  0  0  0  0  0  0  0
  -18.5573  -27.6004   17.3086 C   0  0  2  0  0  0  0  0  0  0  0  0
  -19.9335  -24.8251   13.6729 C   0  0  0  0  0  0  0  0  0  0  0  0
  -25.8580  -11.5479   20.2839 N   0  0  0  0  0  0  0  0  0  0  0  0
  -28.3954  -20.7533   18.0380 N   0  0  0  0  0  0  0  0  0  0  0  0
  -28.2498  -21.5017   19.1447 N   0  0  0  0  0  0  0  0  0  0  0  0
  -26.2367  -12.8315   20.1615 N   0  0  0  0  0  0  0  0  0  0  0  0
  -20.3417  -22.6728   16.5129 N   0  0  0  0  0  0  0  0  0  0  0  0
  -29.9745  -13.6040   20.3636 N   0  0  0  0  0  0  0  0  0  0  0  0
  -25.4748  -15.0589   20.4243 N   0  0  0  0  0  0  0  0  0  0  0  0
  -21.8894  -12.5840   21.6143 N   0  0  0  0  0  0  0  0  0  0  0  0
  -20.3857  -19.0632   15.9979 N   0  0  0  0  0  0  0  0  0  0  0  0
  -19.0990  -25.7558   15.8732 N   0  0  0  0  0  0  0  0  0  0  0  0
  -30.1534  -15.6613   21.5164 N   0  0  0  0  0  0  0  0  0  0  0  0
  -18.8394  -27.9592   18.7272 N   0  3  0  0  0  0  0  0  0  0  0  0
  -22.6678  -14.7240   21.3438 O   0  0  0  0  0  0  0  0  0  0  0  0
  -21.3704  -20.9088   14.9748 O   0  0  0  0  0  0  0  0  0  0  0  0
  -18.2984  -23.0374   15.4508 O   0  0  0  0  0  0  0  0  0  0  0  0
  -20.7942  -26.7030   17.1406 O   0  0  0  0  0  0  0  0  0  0  0  0
  -31.8832  -14.9122   20.2112 O   0  0  0  0  0  0  0  0  0  0  0  0
  -21.6071   -7.0208   21.6925 O   0  0  0  0  0  0  0  0  0  0  0  0
  -25.6108  -22.6415   19.7205 O   0  0  0  0  0  0  0  0  0  1  0  0
  -21.8401   -2.9668   17.9622 F   0  0  0  0  0  0  0  0  0  0  0  0
  -24.0101   -5.8055   21.0668 F   0  0  0  0  0  0  0  0  0  0  0  0
  1  2  1  0  0  0  0
  1  5  2  0  0  0  0
  2  6  2  0  0  0  0
  3  8  2  0  0  0  0
  3 16  1  0  0  0  0
  4  9  1  0  0  0  0
  4 16  2  0  0  0  0
  5 18  1  0  0  0  0
  6 20  1  0  0  0  0
  7 10  2  0  0  0  0
  7 19  1  0  0  0  0
  8 23  1  0  0  0  0
  9 23  2  0  0  0  0
 10 24  1  0  0  0  0
 11 12  2  0  0  0  0
 11 25  1  0  0  0  0
 12 26  1  0  0  0  0
 13 21  1  0  0  0  0
 13 24  2  0  0  0  0
 14 26  2  0  0  0  0
 14 27  1  0  0  0  0
 15 22  2  0  0  0  0
 15 68  1  0  0  0  0
 16 28  1  0  0  0  0
 17 28  1  0  0  0  0
 17 30  2  0  0  0  0
 17 31  1  0  0  0  0
 18 20  2  0  0  0  0
 18 36  1  0  0  0  0
 19 21  2  0  0  0  0
 19 37  1  0  0  0  0
 20 45  1  0  0  0  0
 21 38  1  0  0  0  0
 22 29  1  0  0  0  0
 22 54  1  0  0  0  0
 23 83  1  0  0  0  0
 24 84  1  0  0  0  0
 25 27  2  0  0  0  0
 25 83  1  0  0  0  0
 26 85  1  0  0  0  0
 27 86  1  0  0  0  0
 28 66  2  0  0  0  0
 29 55  1  0  0  0  0
 29 67  2  0  0  0  0
 30 69  1  0  0  0  0
 30 72  1  0  0  0  0
 31 73  1  0  0  0  0
 31 78  2  0  0  0  0
 32 46  1  0  0  0  0
 32 74  1  0  0  0  0
 32 79  2  0  0  0  0
 33 63  1  0  0  0  0
 33 70  1  0  0  0  0
 33 80  2  0  0  0  0
 34 64  1  0  0  0  0
 34 75  1  0  0  0  0
 34 81  2  0  0  0  0
 35 71  1  0  0  0  0
 35 76  1  0  0  0  0
 35 82  2  0  0  0  0
 36 39  1  0  0  0  0
 37 46  1  0  0  0  0
 38 70  1  0  0  0  0
 39 41  1  0  0  0  0
 40 42  1  0  0  0  0
 40 43  1  0  0  0  0
 41 45  1  0  0  0  0
 42 47  1  0  0  0  0
 43 71  1  0  0  0  0
 44 47  1  0  0  0  0
 44 71  1  0  0  0  0
 45 74  1  0  0  0  0
 46 70  1  0  0  0  0
 47 69  1  0  0  0  0
 48 56  1  0  0  0  0
 49 64  1  0  0  0  0
 50 65  1  0  0  0  0
 51 65  1  0  0  0  0
 52 65  1  0  0  0  0
 53 77  1  0  0  0  0
 54 57  1  0  0  0  0
 55 58  1  0  0  0  0
 56 59  1  0  0  0  0
 57 61  1  0  0  0  0
 58 59  1  0  0  0  0
 60 62  1  0  0  0  0
 60 68  1  0  0  0  0
 61 76  1  0  0  0  0
 62 84  1  0  0  0  0
 63 65  1  0  0  0  0
 63 75  1  0  0  0  0
 64 77  1  0  0  0  0
 66 69  1  0  0  0  0
 67 68  1  0  0  0  0
M  CHG  1  77   1
M  ISO  4  35 100  62 101  76 100  84 101
M  END
> <Batch ID>
0040

> <Smiles>
CCCCCc1nn(C[101CH2:1][101O:1]c2ccc3c(c2)CN(C(=O)C(NC(=O)C(C)NC)C(C)(C)C)C(C(=O)NC2CCCc4ccccc42)C3)cc1CCC[100NH:0][100C:0](=O)N1CCCC(n2nc(-c3ccc(Oc4ccc(F)cc4F)cc3)c(C(N)=O)c2N)C1

> <Shape>
0.191

> <Color>
0.188

> <Negative vol penalty>
0.000

$$$$

  -OEChem-04052317073D

 79 87  0     1  0  0  0  0  0999 V2000
  -21.1983  -28.9535   22.4837 C   0  0  0  0  0  0  0  0  0  0  0  0
  -21.8891  -27.7582   22.6557 C   0  0  0  0  0  0  0  0  0  0  0  0
  -22.9013   -9.9959   20.0594 C   0  0  0  0  0  0  0  0  0  0  0  0
  -23.6583  -10.0753   22.3523 C   0  0  0  0  0  0  0  0  0  0  0  0
  -21.8324  -30.0448   21.8915 C   0  0  0  0  0  0  0  0  0  0  0  0
  -23.2142  -27.6533   22.2346 C   0  0  0  0  0  0  0  0  0  0  0  0
  -27.6759  -24.4078   24.8928 C   0  0  0  0  0  0  0  0  0  0  0  0
  -22.1006   -8.8946   20.3618 C   0  0  0  0  0  0  0  0  0  0  0  0
  -22.8575   -8.9740   22.6548 C   0  0  0  0  0  0  0  0  0  0  0  0
  -28.2121  -23.1504   24.6187 C   0  0  0  0  0  0  0  0  0  0  0  0
  -22.9829   -5.6187   22.2585 C   0  0  0  0  0  0  0  0  0  0  0  0
  -23.5458   -4.5997   23.0269 C   0  0  0  0  0  0  0  0  0  0  0  0
  -29.9762  -24.1878   23.3416 C   0  0  0  0  0  0  0  0  0  0  0  0
  -21.8535   -4.9397   24.7174 C   0  0  0  0  0  0  0  0  0  0  0  0
  -23.6802  -10.5863   21.0546 C   0  0  0  0  0  0  0  0  0  0  0  0
  -24.1477  -13.0826   20.8147 C   0  0  0  0  0  0  0  0  0  0  0  0
  -23.1691  -29.9562   21.4717 C   0  0  0  0  0  0  0  0  0  0  0  0
  -28.2806  -25.5660   24.3835 C   0  0  0  0  0  0  0  0  0  0  0  0
  -23.8665  -28.7441   21.6350 C   0  0  0  0  0  0  0  0  0  0  0  0
  -29.4472  -25.4589   23.6129 C   0  0  0  0  0  0  0  0  0  0  0  0
  -29.9837  -18.7952   22.4852 C   0  0  0  0  0  0  0  0  0  0  0  0
  -22.0786   -8.3836   21.6596 C   0  0  0  0  0  0  0  0  0  0  0  0
  -29.3608  -23.0401   23.8405 C   0  0  0  0  0  0  0  0  0  0  0  0
  -21.8553   -6.2982   22.7195 C   0  0  0  0  0  0  0  0  0  0  0  0
  -22.9811   -4.2602   24.2563 C   0  0  0  0  0  0  0  0  0  0  0  0
  -21.2906   -5.9587   23.9489 C   0  0  0  0  0  0  0  0  0  0  0  0
  -24.5080  -11.7236   20.7426 C   0  0  0  0  0  0  0  0  0  0  0  0
  -29.9514  -19.4363   23.7357 C   0  0  0  0  0  0  0  0  0  0  0  0
  -30.8039  -17.7179   22.6927 C   0  0  0  0  0  0  0  0  0  0  0  0
  -25.2762  -13.7584   20.4196 C   0  0  0  0  0  0  0  0  0  0  0  0
  -22.9041  -13.6805   21.2041 C   0  0  0  0  0  0  0  0  0  0  0  0
  -27.3764  -27.8845   22.4061 C   0  0  0  0  0  0  0  0  0  0  0  0
  -30.8212  -14.4485   20.6775 C   0  0  0  0  0  0  0  0  0  0  0  0
  -30.2232  -29.1870   23.2555 C   0  0  0  0  0  0  0  0  0  0  0  0
  -33.3873  -28.7123   24.4431 C   0  0  0  0  0  0  0  0  0  0  0  0
  -23.7975  -31.1479   20.7937 C   0  0  0  0  0  0  0  0  0  0  0  0
  -27.7051  -26.9166   24.7106 C   0  0  0  0  0  0  0  0  0  0  0  0
  -30.1461  -26.6728   23.0594 C   0  0  0  0  0  0  0  0  0  0  0  0
  -25.3201  -31.0714   20.7157 C   0  0  0  0  0  0  0  0  0  0  0  0
  -29.5457  -12.0955   18.2949 C   0  0  0  0  0  0  0  0  0  0  0  0
  -25.7615  -29.6922   20.2366 C   0  0  0  0  0  0  0  0  0  0  0  0
  -28.1012  -11.8778   18.7434 C   0  0  0  0  0  0  0  0  0  0  0  0
  -30.4740  -12.3096   19.4864 C   0  0  0  0  0  0  0  0  0  0  0  0
  -28.6083  -13.2046   20.8428 C   0  0  0  0  0  0  0  0  0  0  0  0
  -25.3127  -28.5989   21.2137 C   0  0  1  0  0  0  0  0  0  0  0  0
  -28.1105  -27.9966   23.7123 C   0  0  1  0  0  0  0  0  0  0  0  0
  -27.6322  -13.0149   19.6682 C   0  0  2  0  0  0  0  0  0  0  0  0
  -29.2995  -19.1848   21.2417 C   0  0  0  0  0  0  0  0  0  0  0  0
  -35.4930  -29.9616   24.9931 C   0  0  0  0  0  0  0  0  0  0  0  0
  -30.8720  -29.3981   20.2815 C   0  0  0  0  0  0  0  0  0  0  0  0
  -33.2738  -29.7384   20.9008 C   0  0  0  0  0  0  0  0  0  0  0  0
  -31.5515  -31.3841   21.6410 C   0  0  0  0  0  0  0  0  0  0  0  0
  -33.2569  -27.9112   27.2891 C   0  0  0  0  0  0  0  0  0  0  0  0
  -29.2086  -20.6829   24.1171 C   0  0  0  0  0  0  0  0  0  1  0  0
  -31.2844  -16.6230   21.8399 C   0  0  0  0  0  0  0  0  0  0  0  0
  -30.2426  -15.5168   21.5708 C   0  0  0  0  0  0  0  0  0  0  0  0
  -31.6361  -29.1041   22.7301 C   0  0  1  0  0  0  0  0  0  0  0  0
  -34.1738  -29.4262   25.5276 C   0  0  2  0  0  0  0  0  0  0  0  0
  -31.8193  -29.8830   21.3970 C   0  0  0  0  0  0  0  0  0  0  0  0
  -25.7669  -11.5449   20.3337 N   0  0  0  0  0  0  0  0  0  0  0  0
  -30.6946  -18.8050   24.6488 N   0  0  0  0  0  0  0  0  0  0  0  0
  -26.2075  -12.8005   20.1452 N   0  0  0  0  0  0  0  0  0  0  0  0
  -29.5412  -27.9707   23.4016 N   0  0  0  0  0  0  0  0  0  0  0  0
  -29.9821  -13.3826   20.3524 N   0  0  0  0  0  0  0  0  0  0  0  0
  -25.5528  -15.0727   20.2835 N   0  0  0  0  0  0  0  0  0  0  0  0
  -21.8477  -12.8401   21.5812 N   0  0  0  0  0  0  0  0  0  0  0  0
  -26.1779  -28.5715   22.3736 N   0  0  0  0  0  0  0  0  0  0  0  0
  -32.5015  -29.5602   23.8124 N   0  0  0  0  0  0  0  0  0  0  0  0
  -34.4663  -28.4947   26.6536 N   0  3  0  0  0  0  0  0  0  0  0  0
  -22.7294  -14.9227   21.2015 O   0  0  0  0  0  0  0  0  0  0  0  0
  -27.8622  -27.2249   21.4947 O   0  0  0  0  0  0  0  0  0  0  0  0
  -31.9835  -14.5612   20.2793 O   0  0  0  0  0  0  0  0  0  0  0  0
  -29.7449  -30.2896   23.5329 O   0  0  0  0  0  0  0  0  0  0  0  0
  -33.5457  -27.5224   24.1790 O   0  0  0  0  0  0  0  0  0  0  0  0
  -31.2345  -17.7128   23.9802 O   0  0  0  0  0  0  0  0  0  0  0  0
  -21.2972   -7.3091   21.9551 O   0  0  0  0  0  0  0  0  0  0  0  0
  -29.8859  -21.8139   23.5709 O   0  0  0  0  0  0  0  0  0  1  0  0
  -23.5208   -3.2806   24.9934 F   0  0  0  0  0  0  0  0  0  0  0  0
  -20.2067   -6.6072   24.3966 F   0  0  0  0  0  0  0  0  0  0  0  0
  1  2  1  0  0  0  0
  1  5  2  0  0  0  0
  2  6  2  0  0  0  0
  3  8  2  0  0  0  0
  3 15  1  0  0  0  0
  4  9  1  0  0  0  0
  4 15  2  0  0  0  0
  5 17  1  0  0  0  0
  6 19  1  0  0  0  0
  7 10  2  0  0  0  0
  7 18  1  0  0  0  0
  8 22  1  0  0  0  0
  9 22  2  0  0  0  0
 10 23  1  0  0  0  0
 11 12  2  0  0  0  0
 11 24  1  0  0  0  0
 12 25  1  0  0  0  0
 13 20  1  0  0  0  0
 13 23  2  0  0  0  0
 14 25  2  0  0  0  0
 14 26  1  0  0  0  0
 15 27  1  0  0  0  0
 16 27  1  0  0  0  0
 16 30  2  0  0  0  0
 16 31  1  0  0  0  0
 17 19  2  0  0  0  0
 17 36  1  0  0  0  0
 18 20  2  0  0  0  0
 18 37  1  0  0  0  0
 19 45  1  0  0  0  0
 20 38  1  0  0  0  0
 21 28  1  0  0  0  0
 21 29  2  0  0  0  0
 21 48  1  0  0  0  0
 22 76  1  0  0  0  0
 23 77  1  0  0  0  0
 24 26  2  0  0  0  0
 24 76  1  0  0  0  0
 25 78  1  0  0  0  0
 26 79  1  0  0  0  0
 27 60  2  0  0  0  0
 28 54  1  0  0  0  0
 28 61  2  0  0  0  0
 29 55  1  0  0  0  0
 29 75  1  0  0  0  0
 30 62  1  0  0  0  0
 30 65  1  0  0  0  0
 31 66  1  0  0  0  0
 31 70  2  0  0  0  0
 32 46  1  0  0  0  0
 32 67  1  0  0  0  0
 32 71  2  0  0  0  0
 33 56  1  0  0  0  0
 33 64  1  0  0  0  0
 33 72  2  0  0  0  0
 34 57  1  0  0  0  0
 34 63  1  0  0  0  0
 34 73  2  0  0  0  0
 35 58  1  0  0  0  0
 35 68  1  0  0  0  0
 35 74  2  0  0  0  0
 36 39  1  0  0  0  0
 37 46  1  0  0  0  0
 38 63  1  0  0  0  0
 39 41  1  0  0  0  0
 40 42  1  0  0  0  0
 40 43  1  0  0  0  0
 41 45  1  0  0  0  0
 42 47  1  0  0  0  0
 43 64  1  0  0  0  0
 44 47  1  0  0  0  0
 44 64  1  0  0  0  0
 45 67  1  0  0  0  0
 46 63  1  0  0  0  0
 47 62  1  0  0  0  0
 49 58  1  0  0  0  0
 50 59  1  0  0  0  0
 51 59  1  0  0  0  0
 52 59  1  0  0  0  0
 53 69  1  0  0  0  0
 54 77  1  0  0  0  0
 55 56  1  0  0  0  0
 57 59  1  0  0  0  0
 57 68  1  0  0  0  0
 58 69  1  0  0  0  0
 60 62  1  0  0  0  0
 61 75  1  0  0  0  0
M  CHG  1  69   1
M  ISO  4  33 100  54 101  56 100  77 101
M  END
> <Batch ID>
0040

> <Smiles>
CNC(C)C(=O)NC(C(=O)N1Cc2cc([101O:1][101CH2:1]c3noc(C[100CH2:0][100C:0](=O)N4CCCC(n5nc(-c6ccc(Oc7ccc(F)cc7F)cc6)c(C(N)=O)c5N)C4)c3C)ccc2CC1C(=O)NC1CCCc2ccccc21)C(C)(C)C

> <Shape>
0.260

> <Color>
0.226

> <Negative vol penalty>
0.000

$$$$

  -OEChem-04052317073D

 87 95  0     1  0  0  0  0  0999 V2000
  -19.1630  -29.6112   22.8071 C   0  0  0  0  0  0  0  0  0  0  0  0
  -20.3767  -29.2402   23.3770 C   0  0  0  0  0  0  0  0  0  0  0  0
  -24.3428   -9.1242   21.5381 C   0  0  0  0  0  0  0  0  0  0  0  0
  -24.6953  -10.3727   23.5762 C   0  0  0  0  0  0  0  0  0  0  0  0
  -18.3481  -28.6468   22.2158 C   0  0  0  0  0  0  0  0  0  0  0  0
  -20.7757  -27.9043   23.3568 C   0  0  0  0  0  0  0  0  0  0  0  0
  -25.6348  -27.3475   22.0438 C   0  0  0  0  0  0  0  0  0  0  0  0
  -23.9817   -8.0041   22.2867 C   0  0  0  0  0  0  0  0  0  0  0  0
  -24.3341   -9.2526   24.3248 C   0  0  0  0  0  0  0  0  0  0  0  0
  -26.5929  -27.6114   23.0216 C   0  0  0  0  0  0  0  0  0  0  0  0
  -21.2613   -6.9004   23.9643 C   0  0  0  0  0  0  0  0  0  0  0  0
  -20.1310   -6.1889   23.5622 C   0  0  0  0  0  0  0  0  0  0  0  0
  -26.8167  -25.2449   23.4324 C   0  0  0  0  0  0  0  0  0  0  0  0
  -21.4853   -4.2122   23.2531 C   0  0  0  0  0  0  0  0  0  0  0  0
  -24.6996  -10.3086   22.1828 C   0  0  0  0  0  0  0  0  0  0  0  0
  -24.2224  -12.4819   20.9351 C   0  0  0  0  0  0  0  0  0  0  0  0
  -18.7418  -27.2998   22.1798 C   0  0  0  0  0  0  0  0  0  0  0  0
  -25.2519  -26.0287   21.7600 C   0  0  0  0  0  0  0  0  0  0  0  0
  -19.9647  -26.9207   22.7657 C   0  0  0  0  0  0  0  0  0  0  0  0
  -25.8554  -24.9668   22.4487 C   0  0  0  0  0  0  0  0  0  0  0  0
  -31.9769  -24.6782   24.2886 C   0  0  0  0  0  0  0  0  0  0  0  0
  -23.9773   -8.0682   23.6800 C   0  0  0  0  0  0  0  0  0  0  0  0
  -27.1819  -26.5602   23.7182 C   0  0  0  0  0  0  0  0  0  0  0  0
  -22.5037   -6.2679   24.0107 C   0  0  0  0  0  0  0  0  0  0  0  0
  -20.2430   -4.8448   23.2066 C   0  0  0  0  0  0  0  0  0  0  0  0
  -22.6157   -4.9237   23.6551 C   0  0  0  0  0  0  0  0  0  0  0  0
  -25.0733  -11.4659   21.4101 C   0  0  0  0  0  0  0  0  0  0  0  0
  -32.2340  -25.5803   23.2388 C   0  0  0  0  0  0  0  0  0  0  0  0
  -31.1980  -25.3888   25.1689 C   0  0  0  0  0  0  0  0  0  0  0  0
  -25.0565  -13.3427   20.2645 C   0  0  0  0  0  0  0  0  0  0  0  0
  -22.8048  -12.6339   21.0866 C   0  0  0  0  0  0  0  0  0  0  0  0
  -22.5321  -24.3938   21.9432 C   0  0  0  0  0  0  0  0  0  0  0  0
  -24.2829  -22.0745   20.5018 C   0  0  0  0  0  0  0  0  0  0  0  0
  -27.3593  -20.7442   19.8591 C   0  0  0  0  0  0  0  0  0  0  0  0
  -30.9073  -14.5319   20.7173 C   0  0  0  0  0  0  0  0  0  0  0  0
  -17.8056  -26.2858   21.5714 C   0  0  0  0  0  0  0  0  0  0  0  0
  -24.2364  -25.7593   20.6836 C   0  0  0  0  0  0  0  0  0  0  0  0
  -25.4940  -23.5319   22.1675 C   0  0  0  0  0  0  0  0  0  0  0  0
  -18.4742  -24.9493   21.2600 C   0  0  0  0  0  0  0  0  0  0  0  0
  -29.1654  -13.4275   17.8150 C   0  0  0  0  0  0  0  0  0  0  0  0
  -19.3190  -24.4866   22.4428 C   0  0  0  0  0  0  0  0  0  0  0  0
  -27.8424  -12.8912   18.3645 C   0  0  0  0  0  0  0  0  0  0  0  0
  -30.3296  -13.1309   18.7577 C   0  0  0  0  0  0  0  0  0  0  0  0
  -28.8100  -13.0495   20.6963 C   0  0  0  0  0  0  0  0  0  0  0  0
  -20.4436  -25.4853   22.7417 C   0  0  1  0  0  0  0  0  0  0  0  0
  -23.5483  -24.4064   20.8364 C   0  0  1  0  0  0  0  0  0  0  0  0
  -27.5975  -13.3736   19.8069 C   0  0  2  0  0  0  0  0  0  0  0  0
  -33.0258  -25.3449   22.0186 C   0  0  0  0  0  0  0  0  0  0  0  0
  -30.5999  -25.0119   26.4636 C   0  0  0  0  0  0  0  0  0  0  0  0
  -28.4690  -18.8246   18.6839 C   0  0  0  0  0  0  0  0  0  0  0  0
  -23.4323  -20.2046   22.7579 C   0  0  0  0  0  0  0  0  0  0  0  0
  -25.2764  -18.6550   22.0751 C   0  0  0  0  0  0  0  0  0  0  0  0
  -23.4249  -19.1656   20.4831 C   0  0  0  0  0  0  0  0  0  0  0  0
  -28.8567  -22.5583   18.0631 C   0  0  0  0  0  0  0  0  0  0  0  0
  -32.4383  -23.2852   24.4177 C   0  0  0  0  0  0  0  0  0  0  0  0
  -31.6415  -22.2536   23.5828 C   0  0  0  0  0  0  0  0  0  0  0  0
  -32.1297  -20.8180   23.8062 C   0  0  0  0  0  0  0  0  0  0  0  0
  -31.3135  -19.7738   23.0378 C   0  0  0  0  0  0  0  0  0  0  0  0
  -31.7527  -18.3342   23.3172 C   0  0  0  0  0  0  0  0  0  0  0  0
  -30.9236  -17.3354   22.5028 C   0  0  0  0  0  0  0  0  0  0  0  0
  -30.2670  -27.7859   25.1891 C   0  0  0  0  0  0  0  0  0  0  0  0
  -31.3445  -15.8897   22.7482 C   0  0  0  0  0  0  0  0  0  0  0  0
  -28.9203  -27.9817   24.5013 C   0  0  0  0  0  0  0  0  0  1  0  0
  -25.1556  -20.9399   20.9816 C   0  0  1  0  0  0  0  0  0  0  0  0
  -28.0007  -20.2669   18.5687 C   0  0  2  0  0  0  0  0  0  0  0  0
  -24.3279  -19.7683   21.5813 C   0  0  0  0  0  0  0  0  0  0  0  0
  -26.3500  -11.6617   21.0699 N   0  0  0  0  0  0  0  0  0  0  0  0
  -31.6644  -26.7728   23.4326 N   0  0  0  0  0  0  0  0  0  0  0  0
  -31.0417  -26.6250   24.6143 N   0  0  0  0  0  0  0  0  0  0  0  0
  -26.3075  -12.8106   20.3740 N   0  0  0  0  0  0  0  0  0  0  0  0
  -24.4914  -23.3203   21.1104 N   0  0  0  0  0  0  0  0  0  0  0  0
  -30.0345  -13.6150   20.1085 N   0  0  0  0  0  0  0  0  0  0  0  0
  -24.8345  -14.4953   19.5977 N   0  0  0  0  0  0  0  0  0  0  0  0
  -22.1011  -11.6578   21.8054 N   0  0  0  0  0  0  0  0  0  0  0  0
  -21.5249  -25.3278   21.7928 N   0  0  0  0  0  0  0  0  0  0  0  0
  -25.9927  -20.5614   19.8482 N   0  0  0  0  0  0  0  0  0  0  0  0
  -30.5504  -14.9445   21.9952 N   0  0  0  0  0  0  0  0  0  0  0  0
  -29.1767  -21.1172   18.2294 N   0  3  0  0  0  0  0  0  0  0  0  0
  -22.1781  -13.5979   20.5852 O   0  0  0  0  0  0  0  0  0  0  0  0
  -22.6521  -23.5949   22.8646 O   0  0  0  0  0  0  0  0  0  0  0  0
  -23.4519  -21.8648   19.6146 O   0  0  0  0  0  0  0  0  0  0  0  0
  -28.0064  -21.2272   20.7857 O   0  0  0  0  0  0  0  0  0  0  0  0
  -31.9260  -14.9558   20.1610 O   0  0  0  0  0  0  0  0  0  0  0  0
  -23.6248   -6.9754   24.4108 O   0  0  0  0  0  0  0  0  0  0  0  0
  -28.1168  -26.8150   24.6736 O   0  0  0  0  0  0  0  0  0  1  0  0
  -19.1572   -4.1612   22.8220 F   0  0  0  0  0  0  0  0  0  0  0  0
  -23.8063   -4.3103   23.6988 F   0  0  0  0  0  0  0  0  0  0  0  0
  1  2  1  0  0  0  0
  1  5  2  0  0  0  0
  2  6  2  0  0  0  0
  3  8  2  0  0  0  0
  3 15  1  0  0  0  0
  4  9  1  0  0  0  0
  4 15  2  0  0  0  0
  5 17  1  0  0  0  0
  6 19  1  0  0  0  0
  7 10  2  0  0  0  0
  7 18  1  0  0  0  0
  8 22  1  0  0  0  0
  9 22  2  0  0  0  0
 10 23  1  0  0  0  0
 11 12  2  0  0  0  0
 11 24  1  0  0  0  0
 12 25  1  0  0  0  0
 13 20  1  0  0  0  0
 13 23  2  0  0  0  0
 14 25  2  0  0  0  0
 14 26  1  0  0  0  0
 15 27  1  0  0  0  0
 16 27  1  0  0  0  0
 16 30  2  0  0  0  0
 16 31  1  0  0  0  0
 17 19  2  0  0  0  0
 17 36  1  0  0  0  0
 18 20  2  0  0  0  0
 18 37  1  0  0  0  0
 19 45  1  0  0  0  0
 20 38  1  0  0  0  0
 21 28  1  0  0  0  0
 21 29  2  0  0  0  0
 21 55  1  0  0  0  0
 22 84  1  0  0  0  0
 23 85  1  0  0  0  0
 24 26  2  0  0  0  0
 24 84  1  0  0  0  0
 25 86  1  0  0  0  0
 26 87  1  0  0  0  0
 27 67  2  0  0  0  0
 28 48  1  0  0  0  0
 28 68  2  0  0  0  0
 29 49  1  0  0  0  0
 29 69  1  0  0  0  0
 30 70  1  0  0  0  0
 30 73  1  0  0  0  0
 31 74  1  0  0  0  0
 31 79  2  0  0  0  0
 32 46  1  0  0  0  0
 32 75  1  0  0  0  0
 32 80  2  0  0  0  0
 33 64  1  0  0  0  0
 33 71  1  0  0  0  0
 33 81  2  0  0  0  0
 34 65  1  0  0  0  0
 34 76  1  0  0  0  0
 34 82  2  0  0  0  0
 35 72  1  0  0  0  0
 35 77  1  0  0  0  0
 35 83  2  0  0  0  0
 36 39  1  0  0  0  0
 37 46  1  0  0  0  0
 38 71  1  0  0  0  0
 39 41  1  0  0  0  0
 40 42  1  0  0  0  0
 40 43  1  0  0  0  0
 41 45  1  0  0  0  0
 42 47  1  0  0  0  0
 43 72  1  0  0  0  0
 44 47  1  0  0  0  0
 44 72  1  0  0  0  0
 45 75  1  0  0  0  0
 46 71  1  0  0  0  0
 47 70  1  0  0  0  0
 50 65  1  0  0  0  0
 51 66  1  0  0  0  0
 52 66  1  0  0  0  0
 53 66  1  0  0  0  0
 54 78  1  0  0  0  0
 55 56  1  0  0  0  0
 56 57  1  0  0  0  0
 57 58  1  0  0  0  0
 58 59  1  0  0  0  0
 59 60  1  0  0  0  0
 60 62  1  0  0  0  0
 61 63  1  0  0  0  0
 61 69  1  0  0  0  0
 62 77  1  0  0  0  0
 63 85  1  0  0  0  0
 64 66  1  0  0  0  0
 64 76  1  0  0  0  0
 65 78  1  0  0  0  0
 67 70  1  0  0  0  0
 68 69  1  0  0  0  0
M  CHG  1  78   1
M  ISO  4  35 100  63 101  77 100  85 101
M  END
> <Batch ID>
0040

> <Smiles>
CNC(C)C(=O)NC(C(=O)N1Cc2cc([101O:1][101CH2:1]Cn3nc(C)c(CCCCCCC[100NH:0][100C:0](=O)N4CCCC(n5nc(-c6ccc(Oc7ccc(F)cc7F)cc6)c(C(N)=O)c5N)C4)c3C)ccc2CC1C(=O)NC1CCCc2ccccc21)C(C)(C)C

> <Shape>
0.233

> <Color>
0.113

> <Negative vol penalty>
0.000

$$$$

  -OEChem-04052317073D

 84 92  0     1  0  0  0  0  0999 V2000
  -22.4121  -20.7458   17.0869 C   0  0  0  0  0  0  0  0  0  0  0  0
  -23.6262  -20.1270   16.8066 C   0  0  0  0  0  0  0  0  0  0  0  0
  -23.7322  -24.6888   18.9565 C   0  0  0  0  0  0  0  0  0  0  0  0
  -23.9655  -24.5185   21.3552 C   0  0  0  0  0  0  0  0  0  0  0  0
  -21.8025  -20.5532   18.3260 C   0  0  0  0  0  0  0  0  0  0  0  0
  -24.2320  -19.3162   17.7657 C   0  0  0  0  0  0  0  0  0  0  0  0
  -28.3148  -13.4593   18.3520 C   0  0  0  0  0  0  0  0  0  0  0  0
  -22.4029  -25.0813   19.1137 C   0  0  0  0  0  0  0  0  0  0  0  0
  -22.6362  -24.9110   21.5124 C   0  0  0  0  0  0  0  0  0  0  0  0
  -29.4953  -13.0251   18.9533 C   0  0  0  0  0  0  0  0  0  0  0  0
  -20.8652  -27.7882   21.4400 C   0  0  0  0  0  0  0  0  0  0  0  0
  -20.5846  -28.7456   22.4149 C   0  0  0  0  0  0  0  0  0  0  0  0
  -28.3112  -12.7013   21.0299 C   0  0  0  0  0  0  0  0  0  0  0  0
  -19.1295  -27.1768   23.5368 C   0  0  0  0  0  0  0  0  0  0  0  0
  -32.1919  -15.4421   24.4039 C   0  0  0  0  0  0  0  0  0  0  0  0
  -24.5135  -24.4074   20.0773 C   0  0  0  0  0  0  0  0  0  0  0  0
  -27.0193  -24.8357   19.8648 C   0  0  0  0  0  0  0  0  0  0  0  0
  -22.3964  -19.7318   19.2972 C   0  0  0  0  0  0  0  0  0  0  0  0
  -27.1240  -13.5283   19.0892 C   0  0  0  0  0  0  0  0  0  0  0  0
  -23.6305  -19.1135   19.0195 C   0  0  0  0  0  0  0  0  0  0  0  0
  -27.1164  -13.1343   20.4349 C   0  0  0  0  0  0  0  0  0  0  0  0
  -31.2485  -16.1978   25.0559 C   0  0  0  0  0  0  0  0  0  0  0  0
  -21.8550  -25.1924   20.3916 C   0  0  0  0  0  0  0  0  0  0  0  0
  -29.4943  -12.6487   20.2933 C   0  0  0  0  0  0  0  0  0  0  0  0
  -20.2778  -26.5251   21.5135 C   0  0  0  0  0  0  0  0  0  0  0  0
  -19.7168  -28.4399   23.4633 C   0  0  0  0  0  0  0  0  0  0  0  0
  -19.4101  -26.2194   22.5619 C   0  0  0  0  0  0  0  0  0  0  0  0
  -25.8865  -24.0014   19.9156 C   0  0  0  0  0  0  0  0  0  0  0  0
  -30.3618  -15.2541   25.6082 C   0  0  0  0  0  0  0  0  0  0  0  0
  -28.0747  -23.9720   19.7017 C   0  0  0  0  0  0  0  0  0  0  0  0
  -27.1094  -26.2637   19.9570 C   0  0  0  0  0  0  0  0  0  0  0  0
  -25.1356  -15.8629   19.9256 C   0  0  0  0  0  0  0  0  0  0  0  0
  -23.3554  -13.4066   21.0743 C   0  0  0  0  0  0  0  0  0  0  0  0
  -23.2510  -10.1991   22.2352 C   0  0  0  0  0  0  0  0  0  0  0  0
  -28.8697  -18.1993   21.0780 C   0  0  0  0  0  0  0  0  0  0  0  0
  -21.7231  -19.5916   20.6395 C   0  0  0  0  0  0  0  0  0  0  0  0
  -25.8533  -13.9734   18.4187 C   0  0  0  0  0  0  0  0  0  0  0  0
  -25.8601  -13.1707   21.2648 C   0  0  0  0  0  0  0  0  0  0  0  0
  -22.2453  -18.4172   21.4631 C   0  0  0  0  0  0  0  0  0  0  0  0
  -29.1606  -19.6923   17.8589 C   0  0  0  0  0  0  0  0  0  0  0  0
  -23.7705  -18.3919   21.4496 C   0  0  0  0  0  0  0  0  0  0  0  0
  -28.4566  -21.0413   18.0164 C   0  0  0  0  0  0  0  0  0  0  0  0
  -28.4679  -18.5966   18.6661 C   0  0  0  0  0  0  0  0  0  0  0  0
  -27.5723  -20.2564   20.2526 C   0  0  0  0  0  0  0  0  0  0  0  0
  -24.3066  -18.2068   20.0249 C   0  0  1  0  0  0  0  0  0  0  0  0
  -24.8091  -14.4929   19.4021 C   0  0  1  0  0  0  0  0  0  0  0  0
  -28.2672  -21.4049   19.5014 C   0  0  2  0  0  0  0  0  0  0  0  0
  -29.4770  -15.8875   27.8671 C   0  0  0  0  0  0  0  0  0  0  0  0
  -21.6588   -8.4803   23.1341 C   0  0  0  0  0  0  0  0  0  0  0  0
  -23.2906  -14.8699   23.7510 C   0  0  0  0  0  0  0  0  0  0  0  0
  -22.5438  -12.7335   24.8217 C   0  0  0  0  0  0  0  0  0  0  0  0
  -21.1214  -13.8192   23.0837 C   0  0  0  0  0  0  0  0  0  0  0  0
  -23.8295   -8.3322   20.0128 C   0  0  0  0  0  0  0  0  0  0  0  0
  -31.1889  -17.6663   25.1487 C   0  0  0  0  0  0  0  0  0  0  0  0
  -29.1564  -15.5117   26.4154 C   0  0  0  0  0  0  0  0  0  0  0  0
  -30.6190  -18.3809   23.8977 C   0  0  0  0  0  0  0  0  0  0  0  0
  -32.2716  -12.6311   22.5995 C   0  0  0  0  0  0  0  0  0  0  0  0
  -32.5466  -12.9239   24.0761 C   0  0  0  0  0  0  0  0  0  0  0  0
  -29.2034  -17.9463   23.5242 C   0  0  0  0  0  0  0  0  0  0  0  0
  -30.7893  -12.4752   22.2804 C   0  0  0  0  0  0  0  0  0  1  0  0
  -23.2671  -12.6749   22.3918 C   0  0  1  0  0  0  0  0  0  0  0  0
  -22.3416   -9.0329   21.8926 C   0  0  2  0  0  0  0  0  0  0  0  0
  -22.5800  -13.5254   23.4972 C   0  0  0  0  0  0  0  0  0  0  0  0
  -26.1934  -22.7072   19.7944 N   0  0  0  0  0  0  0  0  0  0  0  0
  -30.7108  -13.9949   25.3311 N   0  0  0  0  0  0  0  0  0  0  0  0
  -31.8271  -14.1422   24.5974 N   0  0  0  0  0  0  0  0  0  0  0  0
  -27.5311  -22.7217   19.6657 N   0  0  0  0  0  0  0  0  0  0  0  0
  -24.6445  -13.6192   20.5657 N   0  0  0  0  0  0  0  0  0  0  0  0
  -28.3205  -19.0034   20.0657 N   0  0  0  0  0  0  0  0  0  0  0  0
  -29.4055  -24.1677   19.5869 N   0  0  0  0  0  0  0  0  0  0  0  0
  -25.9276  -26.9984   20.1234 N   0  0  0  0  0  0  0  0  0  0  0  0
  -24.1908  -16.8230   19.6172 N   0  0  0  0  0  0  0  0  0  0  0  0
  -22.5999  -11.4082   22.1113 N   0  0  0  0  0  0  0  0  0  0  0  0
  -28.6904  -18.6606   22.3764 N   0  0  0  0  0  0  0  0  0  0  0  0
  -23.1241   -7.9346   21.2583 N   0  3  0  0  0  0  0  0  0  0  0  0
  -28.2040  -26.8712   19.8772 O   0  0  0  0  0  0  0  0  0  0  0  0
  -26.1676  -16.0359   20.5634 O   0  0  0  0  0  0  0  0  0  0  0  0
  -22.3184  -13.7696   20.5135 O   0  0  0  0  0  0  0  0  0  0  0  0
  -24.4209  -10.0519   22.5819 O   0  0  0  0  0  0  0  0  0  0  0  0
  -29.4795  -17.1508   20.8419 O   0  0  0  0  0  0  0  0  0  0  0  0
  -20.5580  -25.5755   20.5453 O   0  0  0  0  0  0  0  0  0  0  0  0
  -30.6452  -12.2251   20.8829 O   0  0  0  0  0  0  0  0  0  1  0  0
  -19.4487  -29.3588   24.4002 F   0  0  0  0  0  0  0  0  0  0  0  0
  -18.8438  -25.0073   22.6384 F   0  0  0  0  0  0  0  0  0  0  0  0
  1  2  1  0  0  0  0
  1  5  2  0  0  0  0
  2  6  2  0  0  0  0
  3  8  2  0  0  0  0
  3 16  1  0  0  0  0
  4  9  1  0  0  0  0
  4 16  2  0  0  0  0
  5 18  1  0  0  0  0
  6 20  1  0  0  0  0
  7 10  2  0  0  0  0
  7 19  1  0  0  0  0
  8 23  1  0  0  0  0
  9 23  2  0  0  0  0
 10 24  1  0  0  0  0
 11 12  2  0  0  0  0
 11 25  1  0  0  0  0
 12 26  1  0  0  0  0
 13 21  1  0  0  0  0
 13 24  2  0  0  0  0
 14 26  2  0  0  0  0
 14 27  1  0  0  0  0
 15 22  2  0  0  0  0
 15 66  1  0  0  0  0
 16 28  1  0  0  0  0
 17 28  1  0  0  0  0
 17 30  2  0  0  0  0
 17 31  1  0  0  0  0
 18 20  2  0  0  0  0
 18 36  1  0  0  0  0
 19 21  2  0  0  0  0
 19 37  1  0  0  0  0
 20 45  1  0  0  0  0
 21 38  1  0  0  0  0
 22 29  1  0  0  0  0
 22 54  1  0  0  0  0
 23 81  1  0  0  0  0
 24 82  1  0  0  0  0
 25 27  2  0  0  0  0
 25 81  1  0  0  0  0
 26 83  1  0  0  0  0
 27 84  1  0  0  0  0
 28 64  2  0  0  0  0
 29 55  1  0  0  0  0
 29 65  2  0  0  0  0
 30 67  1  0  0  0  0
 30 70  1  0  0  0  0
 31 71  1  0  0  0  0
 31 76  2  0  0  0  0
 32 46  1  0  0  0  0
 32 72  1  0  0  0  0
 32 77  2  0  0  0  0
 33 61  1  0  0  0  0
 33 68  1  0  0  0  0
 33 78  2  0  0  0  0
 34 62  1  0  0  0  0
 34 73  1  0  0  0  0
 34 79  2  0  0  0  0
 35 69  1  0  0  0  0
 35 74  1  0  0  0  0
 35 80  2  0  0  0  0
 36 39  1  0  0  0  0
 37 46  1  0  0  0  0
 38 68  1  0  0  0  0
 39 41  1  0  0  0  0
 40 42  1  0  0  0  0
 40 43  1  0  0  0  0
 41 45  1  0  0  0  0
 42 47  1  0  0  0  0
 43 69  1  0  0  0  0
 44 47  1  0  0  0  0
 44 69  1  0  0  0  0
 45 72  1  0  0  0  0
 46 68  1  0  0  0  0
 47 67  1  0  0  0  0
 48 55  1  0  0  0  0
 49 62  1  0  0  0  0
 50 63  1  0  0  0  0
 51 63  1  0  0  0  0
 52 63  1  0  0  0  0
 53 75  1  0  0  0  0
 54 56  1  0  0  0  0
 56 59  1  0  0  0  0
 57 58  1  0  0  0  0
 57 60  1  0  0  0  0
 58 66  1  0  0  0  0
 59 74  1  0  0  0  0
 60 82  1  0  0  0  0
 61 63  1  0  0  0  0
 61 73  1  0  0  0  0
 62 75  1  0  0  0  0
 64 67  1  0  0  0  0
 65 66  1  0  0  0  0
M  CHG  1  75   1
M  ISO  4  35 100  60 101  74 100  82 101
M  END
> <Batch ID>
0040

> <Smiles>
CCc1nn(CC[101CH2:1][101O:1]c2ccc3c(c2)CN(C(=O)C(NC(=O)C(C)NC)C(C)(C)C)C(C(=O)NC2CCCc4ccccc42)C3)cc1CCC[100NH:0][100C:0](=O)N1CCCC(n2nc(-c3ccc(Oc4ccc(F)cc4F)cc3)c(C(N)=O)c2N)C1

> <Shape>
0.230

> <Color>
0.066

> <Negative vol penalty>
0.000

$$$$

  -OEChem-04052317073D

 84 92  0     1  0  0  0  0  0999 V2000
  -18.6837  -32.9071   20.0977 C   0  0  0  0  0  0  0  0  0  0  0  0
  -19.8899  -32.3938   19.6318 C   0  0  0  0  0  0  0  0  0  0  0  0
  -28.5951  -13.9564   21.6153 C   0  0  0  0  0  0  0  0  0  0  0  0
  -26.8108  -15.1796   20.5396 C   0  0  0  0  0  0  0  0  0  0  0  0
  -18.3493  -32.7840   21.4456 C   0  0  0  0  0  0  0  0  0  0  0  0
  -20.7629  -31.7579   20.5138 C   0  0  0  0  0  0  0  0  0  0  0  0
  -24.4131  -26.9957   19.2881 C   0  0  0  0  0  0  0  0  0  0  0  0
  -27.9083  -12.7622   21.3967 C   0  0  0  0  0  0  0  0  0  0  0  0
  -26.1240  -13.9853   20.3209 C   0  0  0  0  0  0  0  0  0  0  0  0
  -25.7680  -26.9096   18.9711 C   0  0  0  0  0  0  0  0  0  0  0  0
  -23.7330  -11.2982   19.7992 C   0  0  0  0  0  0  0  0  0  0  0  0
  -22.3662  -11.2761   20.0767 C   0  0  0  0  0  0  0  0  0  0  0  0
  -26.2759  -26.4696   21.2879 C   0  0  0  0  0  0  0  0  0  0  0  0
  -31.4952  -22.9743   19.4086 C   0  0  0  0  0  0  0  0  0  0  0  0
  -30.6009  -24.3498   17.6500 C   0  0  0  0  0  0  0  0  0  0  0  0
  -22.8252  -11.8363   22.3817 C   0  0  0  0  0  0  0  0  0  0  0  0
  -28.0463  -15.1651   21.1869 C   0  0  0  0  0  0  0  0  0  0  0  0
  -29.6903  -17.0113   20.5574 C   0  0  0  0  0  0  0  0  0  0  0  0
  -19.2143  -32.1378   22.3428 C   0  0  0  0  0  0  0  0  0  0  0  0
  -23.9798  -26.8299   20.6114 C   0  0  0  0  0  0  0  0  0  0  0  0
  -20.4403  -31.6272   21.8753 C   0  0  0  0  0  0  0  0  0  0  0  0
  -24.9147  -26.5516   21.6187 C   0  0  0  0  0  0  0  0  0  0  0  0
  -31.1243  -23.1349   18.0783 C   0  0  0  0  0  0  0  0  0  0  0  0
  -26.6728  -12.7766   20.7494 C   0  0  0  0  0  0  0  0  0  0  0  0
  -26.7000  -26.6494   19.9715 C   0  0  0  0  0  0  0  0  0  0  0  0
  -24.6459  -11.5892   20.8129 C   0  0  0  0  0  0  0  0  0  0  0  0
  -21.9123  -11.5452   21.3679 C   0  0  0  0  0  0  0  0  0  0  0  0
  -24.1920  -11.8583   22.1041 C   0  0  0  0  0  0  0  0  0  0  0  0
  -28.7550  -16.3991   21.4130 C   0  0  0  0  0  0  0  0  0  0  0  0
  -31.3241  -24.0507   20.2641 C   0  0  0  0  0  0  0  0  0  0  0  0
  -30.4696  -25.3646   18.5843 C   0  0  0  0  0  0  0  0  0  0  0  0
  -30.0695  -18.1514   21.2228 C   0  0  0  0  0  0  0  0  0  0  0  0
  -30.1730  -16.5875   19.2756 C   0  0  0  0  0  0  0  0  0  0  0  0
  -22.4826  -28.6685   22.7284 C   0  0  0  0  0  0  0  0  0  0  0  0
  -22.4698  -25.9497   24.4977 C   0  0  0  0  0  0  0  0  0  0  0  0
  -23.8826  -22.9131   25.1534 C   0  0  0  0  0  0  0  0  0  0  0  0
  -28.8027  -22.6939   24.2073 C   0  0  0  0  0  0  0  0  0  0  0  0
  -18.8309  -32.0707   23.7999 C   0  0  0  0  0  0  0  0  0  0  0  0
  -22.5120  -26.8993   20.9326 C   0  0  0  0  0  0  0  0  0  0  0  0
  -24.4990  -26.3455   23.0516 C   0  0  0  0  0  0  0  0  0  0  0  0
  -19.6419  -31.0522   24.5968 C   0  0  0  0  0  0  0  0  0  0  0  0
  -29.1960  -19.6314   25.9802 C   0  0  0  0  0  0  0  0  0  0  0  0
  -21.1278  -31.1868   24.2793 C   0  0  0  0  0  0  0  0  0  0  0  0
  -29.1872  -18.5683   24.8804 C   0  0  0  0  0  0  0  0  0  0  0  0
  -28.2339  -20.7752   25.6673 C   0  0  0  0  0  0  0  0  0  0  0  0
  -28.4202  -20.3422   23.2483 C   0  0  0  0  0  0  0  0  0  0  0  0
  -21.4024  -30.9089   22.7964 C   0  0  1  0  0  0  0  0  0  0  0  0
  -22.2355  -27.2238   22.3974 C   0  0  1  0  0  0  0  0  0  0  0  0
  -29.4164  -19.1957   23.4922 C   0  0  2  0  0  0  0  0  0  0  0  0
  -30.0503  -21.1180   17.0461 C   0  0  0  0  0  0  0  0  0  0  0  0
  -23.6772  -20.9337   26.6822 C   0  0  0  0  0  0  0  0  0  0  0  0
  -23.7609  -27.5564   26.7475 C   0  0  0  0  0  0  0  0  0  0  0  0
  -24.3881  -25.3922   27.8390 C   0  0  0  0  0  0  0  0  0  0  0  0
  -21.9843  -25.9612   27.4914 C   0  0  0  0  0  0  0  0  0  0  0  0
  -23.3532  -21.0764   22.8940 C   0  0  0  0  0  0  0  0  0  0  0  0
  -31.2880  -22.0090   17.1143 C   0  0  0  0  0  0  0  0  0  0  0  0
  -31.7128  -23.9151   21.6984 C   0  0  0  0  0  0  0  0  0  0  0  0
  -29.9034  -26.6963   18.1550 C   0  0  0  0  0  0  0  0  0  0  0  0
  -30.8828  -24.7790   22.6680 C   0  0  0  0  0  0  0  0  0  0  0  0
  -29.3800  -24.5115   22.6191 C   0  0  0  0  0  0  0  0  0  0  0  0
  -28.3864  -26.7546   18.2980 C   0  0  0  0  0  0  0  0  0  1  0  0
  -23.4072  -25.3229   25.5014 C   0  0  1  0  0  0  0  0  0  0  0  0
  -23.2699  -21.5378   25.3473 C   0  0  2  0  0  0  0  0  0  0  0  0
  -23.3935  -26.0639   26.8682 C   0  0  0  0  0  0  0  0  0  0  0  0
  -28.5525  -17.0927   22.5364 N   0  0  0  0  0  0  0  0  0  0  0  0
  -30.8191  -25.2460   19.8849 N   0  0  0  0  0  0  0  0  0  0  0  0
  -29.3660  -18.1525   22.3912 N   0  0  0  0  0  0  0  0  0  0  0  0
  -23.0531  -26.4293   23.3164 N   0  0  0  0  0  0  0  0  0  0  0  0
  -28.5055  -21.3273   24.3378 N   0  0  0  0  0  0  0  0  0  0  0  0
  -30.9329  -19.1430   20.9167 N   0  0  0  0  0  0  0  0  0  0  0  0
  -29.6786  -15.3915   18.7375 N   0  0  0  0  0  0  0  0  0  0  0  0
  -21.3845  -29.4852   22.5372 N   0  0  0  0  0  0  0  0  0  0  0  0
  -23.0366  -23.9142   25.5817 N   0  0  0  0  0  0  0  0  0  0  0  0
  -29.0537  -23.1339   22.9134 N   0  0  0  0  0  0  0  0  0  0  0  0
  -23.7095  -20.6171   24.2611 N   0  3  0  0  0  0  0  0  0  0  0  0
  -31.0301  -17.2412   18.6340 O   0  0  0  0  0  0  0  0  0  0  0  0
  -23.5872  -29.0162   23.1292 O   0  0  0  0  0  0  0  0  0  0  0  0
  -21.2634  -26.0050   24.7493 O   0  0  0  0  0  0  0  0  0  0  0  0
  -25.0015  -23.0822   24.6737 O   0  0  0  0  0  0  0  0  0  0  0  0
  -28.8469  -23.4636   25.1729 O   0  0  0  0  0  0  0  0  0  0  0  0
  -26.0025  -11.6115   20.5356 O   0  0  0  0  0  0  0  0  0  0  0  0
  -28.0232  -26.5655   19.6650 O   0  0  0  0  0  0  0  0  0  1  0  0
  -20.5997  -11.5255   21.6339 F   0  0  0  0  0  0  0  0  0  0  0  0
  -25.0642  -12.1397   23.0819 F   0  0  0  0  0  0  0  0  0  0  0  0
  1  2  1  0  0  0  0
  1  5  2  0  0  0  0
  2  6  2  0  0  0  0
  3  8  2  0  0  0  0
  3 17  1  0  0  0  0
  4  9  1  0  0  0  0
  4 17  2  0  0  0  0
  5 19  1  0  0  0  0
  6 21  1  0  0  0  0
  7 10  2  0  0  0  0
  7 20  1  0  0  0  0
  8 24  1  0  0  0  0
  9 24  2  0  0  0  0
 10 25  1  0  0  0  0
 11 12  2  0  0  0  0
 11 26  1  0  0  0  0
 12 27  1  0  0  0  0
 13 22  1  0  0  0  0
 13 25  2  0  0  0  0
 14 23  1  0  0  0  0
 14 30  2  0  0  0  0
 15 23  2  0  0  0  0
 15 31  1  0  0  0  0
 16 27  2  0  0  0  0
 16 28  1  0  0  0  0
 17 29  1  0  0  0  0
 18 29  1  0  0  0  0
 18 32  2  0  0  0  0
 18 33  1  0  0  0  0
 19 21  2  0  0  0  0
 19 38  1  0  0  0  0
 20 22  2  0  0  0  0
 20 39  1  0  0  0  0
 21 47  1  0  0  0  0
 22 40  1  0  0  0  0
 23 56  1  0  0  0  0
 24 81  1  0  0  0  0
 25 82  1  0  0  0  0
 26 28  2  0  0  0  0
 26 81  1  0  0  0  0
 27 83  1  0  0  0  0
 28 84  1  0  0  0  0
 29 65  2  0  0  0  0
 30 57  1  0  0  0  0
 30 66  1  0  0  0  0
 31 58  1  0  0  0  0
 31 66  2  0  0  0  0
 32 67  1  0  0  0  0
 32 70  1  0  0  0  0
 33 71  1  0  0  0  0
 33 76  2  0  0  0  0
 34 48  1  0  0  0  0
 34 72  1  0  0  0  0
 34 77  2  0  0  0  0
 35 62  1  0  0  0  0
 35 68  1  0  0  0  0
 35 78  2  0  0  0  0
 36 63  1  0  0  0  0
 36 73  1  0  0  0  0
 36 79  2  0  0  0  0
 37 69  1  0  0  0  0
 37 74  1  0  0  0  0
 37 80  2  0  0  0  0
 38 41  1  0  0  0  0
 39 48  1  0  0  0  0
 40 68  1  0  0  0  0
 41 43  1  0  0  0  0
 42 44  1  0  0  0  0
 42 45  1  0  0  0  0
 43 47  1  0  0  0  0
 44 49  1  0  0  0  0
 45 69  1  0  0  0  0
 46 49  1  0  0  0  0
 46 69  1  0  0  0  0
 47 72  1  0  0  0  0
 48 68  1  0  0  0  0
 49 67  1  0  0  0  0
 50 56  1  0  0  0  0
 51 63  1  0  0  0  0
 52 64  1  0  0  0  0
 53 64  1  0  0  0  0
 54 64  1  0  0  0  0
 55 75  1  0  0  0  0
 57 59  1  0  0  0  0
 58 61  1  0  0  0  0
 59 60  1  0  0  0  0
 60 74  1  0  0  0  0
 61 82  1  0  0  0  0
 62 64  1  0  0  0  0
 62 73  1  0  0  0  0
 63 75  1  0  0  0  0
 65 67  1  0  0  0  0
M  CHG  1  75   1
M  ISO  4  37 100  61 101  74 100  82 101
M  END
> <Batch ID>
0040

> <Smiles>
CCc1cc(CCC[100NH:0][100C:0](=O)N2CCCC(n3nc(-c4ccc(Oc5ccc(F)cc5F)cc4)c(C(N)=O)c3N)C2)nc(C[101CH2:1][101O:1]c2ccc3c(c2)CN(C(=O)C(NC(=O)C(C)NC)C(C)(C)C)C(C(=O)NC2CCCc4ccccc42)C3)c1

> <Shape>
0.185

> <Color>
0.090

> <Negative vol penalty>
0.000

$$$$

  -OEChem-04052317073D

 84 92  0     1  0  0  0  0  0999 V2000
  -27.7523  -33.9165   17.4207 C   0  0  0  0  0  0  0  0  0  0  0  0
  -28.3986  -32.7288   17.7480 C   0  0  0  0  0  0  0  0  0  0  0  0
  -23.1101   -9.8340   19.9169 C   0  0  0  0  0  0  0  0  0  0  0  0
  -23.8966   -9.8104   22.2011 C   0  0  0  0  0  0  0  0  0  0  0  0
  -26.3611  -33.9514   17.3365 C   0  0  0  0  0  0  0  0  0  0  0  0
  -27.6539  -31.5755   17.9923 C   0  0  0  0  0  0  0  0  0  0  0  0
  -29.2350  -25.8163   16.6370 C   0  0  0  0  0  0  0  0  0  0  0  0
  -22.4070   -8.6514   20.1467 C   0  0  0  0  0  0  0  0  0  0  0  0
  -23.1934   -8.6278   22.4310 C   0  0  0  0  0  0  0  0  0  0  0  0
  -29.7881  -24.7906   17.4023 C   0  0  0  0  0  0  0  0  0  0  0  0
  -20.0002   -7.7107   23.0495 C   0  0  0  0  0  0  0  0  0  0  0  0
  -19.2589   -7.6178   24.2274 C   0  0  0  0  0  0  0  0  0  0  0  0
  -27.5806  -23.9000   17.7932 C   0  0  0  0  0  0  0  0  0  0  0  0
  -20.5710   -5.7047   24.9023 C   0  0  0  0  0  0  0  0  0  0  0  0
  -23.8550  -10.4134   20.9441 C   0  0  0  0  0  0  0  0  0  0  0  0
  -24.1134  -12.9506   20.8822 C   0  0  0  0  0  0  0  0  0  0  0  0
  -25.5994  -32.7957   17.5704 C   0  0  0  0  0  0  0  0  0  0  0  0
  -27.8472  -25.8979   16.4527 C   0  0  0  0  0  0  0  0  0  0  0  0
  -26.2511  -31.5953   17.9124 C   0  0  0  0  0  0  0  0  0  0  0  0
  -27.0126  -24.9262   17.0230 C   0  0  0  0  0  0  0  0  0  0  0  0
  -22.4486   -8.0484   21.4038 C   0  0  0  0  0  0  0  0  0  0  0  0
  -28.9607  -23.8339   17.9830 C   0  0  0  0  0  0  0  0  0  0  0  0
  -21.0269   -6.8005   22.7980 C   0  0  0  0  0  0  0  0  0  0  0  0
  -19.5443   -6.6148   25.1538 C   0  0  0  0  0  0  0  0  0  0  0  0
  -21.3123   -5.7976   23.7244 C   0  0  0  0  0  0  0  0  0  0  0  0
  -28.3583  -18.6993   17.6190 C   0  0  0  0  0  0  0  0  0  0  0  0
  -24.5820  -11.6347   20.7071 C   0  0  0  0  0  0  0  0  0  0  0  0
  -29.2278  -18.8820   16.5271 C   0  0  0  0  0  0  0  0  0  0  0  0
  -28.9091  -19.4531   18.6264 C   0  0  0  0  0  0  0  0  0  0  0  0
  -25.1763  -13.7439   20.5254 C   0  0  0  0  0  0  0  0  0  0  0  0
  -22.8320  -13.4143   21.3278 C   0  0  0  0  0  0  0  0  0  0  0  0
  -25.6077  -28.0287   17.1926 C   0  0  0  0  0  0  0  0  0  0  0  0
  -23.7047  -26.0492   15.4655 C   0  0  0  0  0  0  0  0  0  0  0  0
  -23.1355  -22.9132   14.2455 C   0  0  0  0  0  0  0  0  0  0  0  0
  -30.6260  -14.9366   20.6779 C   0  0  0  0  0  0  0  0  0  0  0  0
  -24.0955  -32.8936   17.5140 C   0  0  0  0  0  0  0  0  0  0  0  0
  -27.2684  -26.9951   15.6022 C   0  0  0  0  0  0  0  0  0  0  0  0
  -25.5181  -24.9574   16.8385 C   0  0  0  0  0  0  0  0  0  0  0  0
  -23.3999  -31.5381   17.4204 C   0  0  0  0  0  0  0  0  0  0  0  0
  -29.5380  -12.5746   18.2461 C   0  0  0  0  0  0  0  0  0  0  0  0
  -23.9908  -30.5636   18.4344 C   0  0  0  0  0  0  0  0  0  0  0  0
  -28.1160  -12.2237   18.6876 C   0  0  0  0  0  0  0  0  0  0  0  0
  -30.4617  -12.7962   19.4418 C   0  0  0  0  0  0  0  0  0  0  0  0
  -28.5539  -13.4310   20.8669 C   0  0  0  0  0  0  0  0  0  0  0  0
  -25.4793  -30.3174   18.1602 C   0  0  1  0  0  0  0  0  0  0  0  0
  -25.8001  -27.2757   15.9067 C   0  0  1  0  0  0  0  0  0  0  0  0
  -27.5719  -13.2532   19.6962 C   0  0  2  0  0  0  0  0  0  0  0  0
  -29.1251  -18.3018   15.1757 C   0  0  0  0  0  0  0  0  0  0  0  0
  -21.4781  -21.5936   12.9005 C   0  0  0  0  0  0  0  0  0  0  0  0
  -21.8296  -25.9575   17.8708 C   0  0  0  0  0  0  0  0  0  0  0  0
  -20.7421  -23.9425   16.8582 C   0  0  0  0  0  0  0  0  0  0  0  0
  -20.6789  -26.1279   15.6569 C   0  0  0  0  0  0  0  0  0  0  0  0
  -25.1452  -22.2907   12.1640 C   0  0  0  0  0  0  0  0  0  0  0  0
  -28.4806  -19.6852   20.0196 C   0  0  0  0  0  0  0  0  0  0  0  0
  -28.8034  -18.4972   20.9493 C   0  0  0  0  0  0  0  0  0  0  0  0
  -30.3075  -18.2226   21.0386 C   0  0  0  0  0  0  0  0  0  0  0  0
  -30.9993  -20.9418   18.7977 C   0  0  0  0  0  0  0  0  0  0  0  0
  -30.6369  -17.0577   21.9663 C   0  0  0  0  0  0  0  0  0  0  0  0
  -30.8133  -22.3984   18.3872 C   0  0  0  0  0  0  0  0  0  1  0  0
  -22.8529  -24.8429   15.7788 C   0  0  1  0  0  0  0  0  0  0  0  0
  -22.7503  -22.4259   12.8604 C   0  0  2  0  0  0  0  0  0  0  0  0
  -21.5538  -25.2179   16.5464 C   0  0  0  0  0  0  0  0  0  0  0  0
  -25.8442  -11.5903   20.2726 N   0  0  0  0  0  0  0  0  0  0  0  0
  -30.2529  -19.6889   16.8136 N   0  0  0  0  0  0  0  0  0  0  0  0
  -30.0311  -20.0198   18.0971 N   0  0  0  0  0  0  0  0  0  0  0  0
  -26.1778  -12.8882   20.1716 N   0  0  0  0  0  0  0  0  0  0  0  0
  -24.9994  -26.0535   16.0036 N   0  0  0  0  0  0  0  0  0  0  0  0
  -29.8887  -13.7844   20.3588 N   0  0  0  0  0  0  0  0  0  0  0  0
  -25.3426  -15.0829   20.4827 N   0  0  0  0  0  0  0  0  0  0  0  0
  -21.8541  -12.4647   21.6538 N   0  0  0  0  0  0  0  0  0  0  0  0
  -25.6443  -29.4028   17.0509 N   0  0  0  0  0  0  0  0  0  0  0  0
  -22.6213  -24.1655   14.5076 N   0  0  0  0  0  0  0  0  0  0  0  0
  -30.0072  -15.8248   21.5490 N   0  0  0  0  0  0  0  0  0  0  0  0
  -23.8408  -21.5898   12.2836 N   0  3  0  0  0  0  0  0  0  0  0  0
  -22.5567  -14.6348   21.4179 O   0  0  0  0  0  0  0  0  0  0  0  0
  -25.4370  -27.4090   18.2359 O   0  0  0  0  0  0  0  0  0  0  0  0
  -23.2411  -26.9511   14.7632 O   0  0  0  0  0  0  0  0  0  0  0  0
  -23.8207  -22.2479   15.0191 O   0  0  0  0  0  0  0  0  0  0  0  0
  -31.7503  -15.1600   20.2161 O   0  0  0  0  0  0  0  0  0  0  0  0
  -21.7624   -6.8946   21.6285 O   0  0  0  0  0  0  0  0  0  0  0  0
  -29.4979  -22.8321   18.7311 O   0  0  0  0  0  0  0  0  0  1  0  0
  -18.8334   -6.5267   26.2856 F   0  0  0  0  0  0  0  0  0  0  0  0
  -22.2982   -4.9211   23.4888 F   0  0  0  0  0  0  0  0  0  0  0  0
  -26.9543  -17.7546   17.6545 Cl  0  0  0  0  0  0  0  0  0  0  0  0
  1  2  1  0  0  0  0
  1  5  2  0  0  0  0
  2  6  2  0  0  0  0
  3  8  2  0  0  0  0
  3 15  1  0  0  0  0
  4  9  1  0  0  0  0
  4 15  2  0  0  0  0
  5 17  1  0  0  0  0
  6 19  1  0  0  0  0
  7 10  2  0  0  0  0
  7 18  1  0  0  0  0
  8 21  1  0  0  0  0
  9 21  2  0  0  0  0
 10 22  1  0  0  0  0
 11 12  2  0  0  0  0
 11 23  1  0  0  0  0
 12 24  1  0  0  0  0
 13 20  1  0  0  0  0
 13 22  2  0  0  0  0
 14 24  2  0  0  0  0
 14 25  1  0  0  0  0
 15 27  1  0  0  0  0
 16 27  1  0  0  0  0
 16 30  2  0  0  0  0
 16 31  1  0  0  0  0
 17 19  2  0  0  0  0
 17 36  1  0  0  0  0
 18 20  2  0  0  0  0
 18 37  1  0  0  0  0
 19 45  1  0  0  0  0
 20 38  1  0  0  0  0
 21 80  1  0  0  0  0
 22 81  1  0  0  0  0
 23 25  2  0  0  0  0
 23 80  1  0  0  0  0
 24 82  1  0  0  0  0
 25 83  1  0  0  0  0
 26 28  1  0  0  0  0
 26 29  2  0  0  0  0
 26 84  1  0  0  0  0
 27 63  2  0  0  0  0
 28 48  1  0  0  0  0
 28 64  2  0  0  0  0
 29 54  1  0  0  0  0
 29 65  1  0  0  0  0
 30 66  1  0  0  0  0
 30 69  1  0  0  0  0
 31 70  1  0  0  0  0
 31 75  2  0  0  0  0
 32 46  1  0  0  0  0
 32 71  1  0  0  0  0
 32 76  2  0  0  0  0
 33 60  1  0  0  0  0
 33 67  1  0  0  0  0
 33 77  2  0  0  0  0
 34 61  1  0  0  0  0
 34 72  1  0  0  0  0
 34 78  2  0  0  0  0
 35 68  1  0  0  0  0
 35 73  1  0  0  0  0
 35 79  2  0  0  0  0
 36 39  1  0  0  0  0
 37 46  1  0  0  0  0
 38 67  1  0  0  0  0
 39 41  1  0  0  0  0
 40 42  1  0  0  0  0
 40 43  1  0  0  0  0
 41 45  1  0  0  0  0
 42 47  1  0  0  0  0
 43 68  1  0  0  0  0
 44 47  1  0  0  0  0
 44 68  1  0  0  0  0
 45 71  1  0  0  0  0
 46 67  1  0  0  0  0
 47 66  1  0  0  0  0
 49 61  1  0  0  0  0
 50 62  1  0  0  0  0
 51 62  1  0  0  0  0
 52 62  1  0  0  0  0
 53 74  1  0  0  0  0
 54 55  1  0  0  0  0
 55 56  1  0  0  0  0
 56 58  1  0  0  0  0
 57 59  1  0  0  0  0
 57 65  1  0  0  0  0
 58 73  1  0  0  0  0
 59 81  1  0  0  0  0
 60 62  1  0  0  0  0
 60 72  1  0  0  0  0
 61 74  1  0  0  0  0
 63 66  1  0  0  0  0
 64 65  1  0  0  0  0
M  CHG  1  74   1
M  ISO  4  35 100  59 101  73 100  81 101
M  END
> <Batch ID>
0040

> <Smiles>
CNC(C)C(=O)NC(C(=O)N1Cc2cc([101O:1][101CH2:1]Cn3nc(C)c(Cl)c3CCCC[100NH:0][100C:0](=O)N3CCCC(n4nc(-c5ccc(Oc6ccc(F)cc6F)cc5)c(C(N)=O)c4N)C3)ccc2CC1C(=O)NC1CCCc2ccccc21)C(C)(C)C

> <Shape>
0.233

> <Color>
0.210

> <Negative vol penalty>
0.000

$$$$

  -OEChem-04052317072D

  0  0  0     0  0  0  0  0  0999 V2000
M  END
$$$$
