
  -OEChem-04052317093D

 83 91  0     1  0  0  0  0  0999 V2000
  -31.3875  -26.0933   14.2191 C   0  0  0  0  0  0  0  0  0  0  0  0
  -30.0372  -26.0188   14.5457 C   0  0  0  0  0  0  0  0  0  0  0  0
  -26.3727  -12.8396   19.2162 C   0  0  0  0  0  0  0  0  0  0  0  0
  -25.1051  -13.3202   21.2161 C   0  0  0  0  0  0  0  0  0  0  0  0
  -32.3423  -26.2085   15.2286 C   0  0  0  0  0  0  0  0  0  0  0  0
  -29.6410  -26.0584   15.8820 C   0  0  0  0  0  0  0  0  0  0  0  0
  -24.5519  -28.6103   18.1390 C   0  0  0  0  0  0  0  0  0  0  0  0
  -26.1950  -11.4731   19.4320 C   0  0  0  0  0  0  0  0  0  0  0  0
  -24.9273  -11.9536   21.4318 C   0  0  0  0  0  0  0  0  0  0  0  0
  -23.3177  -28.0756   18.5058 C   0  0  0  0  0  0  0  0  0  0  0  0
  -22.9570   -9.4809   20.2386 C   0  0  0  0  0  0  0  0  0  0  0  0
  -21.6802   -9.0424   20.5897 C   0  0  0  0  0  0  0  0  0  0  0  0
  -24.0572  -27.9570   20.7989 C   0  0  0  0  0  0  0  0  0  0  0  0
  -22.5527   -8.1625   22.6637 C   0  0  0  0  0  0  0  0  0  0  0  0
  -22.7935  -23.7698   23.4829 C   0  0  0  0  0  0  0  0  0  0  0  0
  -25.8278  -13.7632   20.1083 C   0  0  0  0  0  0  0  0  0  0  0  0
  -25.1756  -16.0356   19.1499 C   0  0  0  0  0  0  0  0  0  0  0  0
  -31.9570  -26.2593   16.5775 C   0  0  0  0  0  0  0  0  0  0  0  0
  -25.5536  -28.8126   19.0993 C   0  0  0  0  0  0  0  0  0  0  0  0
  -30.5917  -26.1730   16.9106 C   0  0  0  0  0  0  0  0  0  0  0  0
  -25.3024  -28.4968   20.4422 C   0  0  0  0  0  0  0  0  0  0  0  0
  -25.4723  -11.0300   20.5397 C   0  0  0  0  0  0  0  0  0  0  0  0
  -23.0712  -27.7462   19.8354 C   0  0  0  0  0  0  0  0  0  0  0  0
  -24.0316   -9.2601   21.1000 C   0  0  0  0  0  0  0  0  0  0  0  0
  -21.4781   -8.3833   21.8022 C   0  0  0  0  0  0  0  0  0  0  0  0
  -23.8295   -8.6009   22.3126 C   0  0  0  0  0  0  0  0  0  0  0  0
  -26.0116  -15.1749   19.8863 C   0  0  0  0  0  0  0  0  0  0  0  0
  -23.7903  -22.8472   23.3349 C   0  0  0  0  0  0  0  0  0  0  0  0
  -25.7827  -17.2643   19.2404 C   0  0  0  0  0  0  0  0  0  0  0  0
  -22.2939  -22.4978   21.7414 C   0  0  0  0  0  0  0  0  0  0  0  0
  -23.9591  -15.7499   18.4469 C   0  0  0  0  0  0  0  0  0  0  0  0
  -28.4913  -27.6846   19.5481 C   0  0  0  0  0  0  0  0  0  0  0  0
  -28.5404  -29.8629   21.9512 C   0  0  0  0  0  0  0  0  0  0  0  0
  -26.7829  -31.7643   24.1744 C   0  0  0  0  0  0  0  0  0  0  0  0
  -28.3592  -21.2114   22.2283 C   0  0  0  0  0  0  0  0  0  0  0  0
  -33.0284  -26.3367   17.6362 C   0  0  0  0  0  0  0  0  0  0  0  0
  -26.8702  -29.4152   18.6919 C   0  0  0  0  0  0  0  0  0  0  0  0
  -26.3373  -28.7136   21.5148 C   0  0  0  0  0  0  0  0  0  0  0  0
  -32.5006  -26.7491   19.0079 C   0  0  0  0  0  0  0  0  0  0  0  0
  -30.3618  -18.5556   20.9582 C   0  0  0  0  0  0  0  0  0  0  0  0
  -31.2425  -25.9596   19.3553 C   0  0  0  0  0  0  0  0  0  0  0  0
  -29.3401  -17.5085   20.5115 C   0  0  0  0  0  0  0  0  0  0  0  0
  -29.9105  -19.2801   22.2245 C   0  0  0  0  0  0  0  0  0  0  0  0
  -27.5439  -18.8335   21.7017 C   0  0  0  0  0  0  0  0  0  0  0  0
  -30.1208  -26.2377   18.3473 C   0  0  1  0  0  0  0  0  0  0  0  0
  -27.9994  -29.0993   19.6679 C   0  0  1  0  0  0  0  0  0  0  0  0
  -27.9287  -18.1152   20.3970 C   0  0  2  0  0  0  0  0  0  0  0  0
  -21.6043  -21.9138   20.5640 C   0  0  0  0  0  0  0  0  0  0  0  0
  -27.1005  -33.4166   26.0362 C   0  0  0  0  0  0  0  0  0  0  0  0
  -29.3521  -27.5940   23.8229 C   0  0  0  0  0  0  0  0  0  0  0  0
  -28.7322  -29.0599   25.7556 C   0  0  0  0  0  0  0  0  0  0  0  0
  -30.5636  -29.7478   24.2078 C   0  0  0  0  0  0  0  0  0  0  0  0
  -25.3078  -33.8721   22.7114 C   0  0  0  0  0  0  0  0  0  0  0  0
  -25.0179  -22.6170   24.1009 C   0  0  0  0  0  0  0  0  0  0  0  0
  -26.2663  -23.3952   23.6047 C   0  0  0  0  0  0  0  0  0  0  0  0
  -20.7120  -25.3390   21.1286 C   0  0  0  0  0  0  0  0  0  0  0  0
  -20.6128  -24.3150   22.2615 C   0  0  0  0  0  0  0  0  0  0  0  0
  -26.6878  -23.0453   22.1792 C   0  0  0  0  0  0  0  0  0  0  0  0
  -21.8542  -26.3319   21.3101 C   0  0  0  0  0  0  0  0  0  1  0  0
  -28.1655  -29.8502   23.4135 C   0  0  1  0  0  0  0  0  0  0  0  0
  -26.8822  -33.2337   24.5424 C   0  0  2  0  0  0  0  0  0  0  0  0
  -29.1843  -29.0570   24.2797 C   0  0  0  0  0  0  0  0  0  0  0  0
  -27.0691  -15.8036   20.4062 N   0  0  0  0  0  0  0  0  0  0  0  0
  -21.8814  -23.5307   22.4834 N   0  0  0  0  0  0  0  0  0  0  0  0
  -26.9019  -17.0724   19.9958 N   0  0  0  0  0  0  0  0  0  0  0  0
  -23.4550  -22.0733   22.2501 N   0  3  0  0  0  0  0  0  0  0  0  0
  -27.6110  -29.2994   21.0655 N   0  0  0  0  0  0  0  0  0  0  0  0
  -28.5655  -19.8335   22.0494 N   0  0  0  0  0  0  0  0  0  0  0  0
  -25.4630  -18.4794   18.7466 N   0  0  0  0  0  0  0  0  0  0  0  0
  -23.4756  -14.4344   18.4556 N   0  0  0  0  0  0  0  0  0  0  0  0
  -29.5016  -27.5169   18.6204 N   0  0  0  0  0  0  0  0  0  0  0  0
  -28.0065  -31.2462   23.8063 N   0  0  0  0  0  0  0  0  0  0  0  0
  -27.0561  -21.6543   22.0371 N   0  0  0  0  0  0  0  0  0  0  0  0
  -25.6324  -33.9493   24.1590 N   0  3  0  0  0  0  0  0  0  0  0  0
  -23.3286  -16.6316   17.8156 O   0  0  0  0  0  0  0  0  0  0  0  0
  -27.9922  -26.8102   20.2467 O   0  0  0  0  0  0  0  0  0  0  0  0
  -29.6151  -30.3610   21.6068 O   0  0  0  0  0  0  0  0  0  0  0  0
  -25.7263  -31.1378   24.2134 O   0  0  0  0  0  0  0  0  0  0  0  0
  -29.2699  -21.9900   22.5305 O   0  0  0  0  0  0  0  0  0  0  0  0
  -25.2985   -9.6966   20.7504 O   0  0  0  0  0  0  0  0  0  0  0  0
  -21.8676  -27.2235   20.1960 O   0  0  0  0  0  0  0  0  0  1  0  0
  -20.2517   -7.9637   22.1400 F   0  0  0  0  0  0  0  0  0  0  0  0
  -24.8579   -8.3870   23.1448 F   0  0  0  0  0  0  0  0  0  0  0  0
  1  2  1  0  0  0  0
  1  5  2  0  0  0  0
  2  6  2  0  0  0  0
  3  8  2  0  0  0  0
  3 16  1  0  0  0  0
  4  9  1  0  0  0  0
  4 16  2  0  0  0  0
  5 18  1  0  0  0  0
  6 20  1  0  0  0  0
  7 10  2  0  0  0  0
  7 19  1  0  0  0  0
  8 22  1  0  0  0  0
  9 22  2  0  0  0  0
 10 23  1  0  0  0  0
 11 12  2  0  0  0  0
 11 24  1  0  0  0  0
 12 25  1  0  0  0  0
 13 21  1  0  0  0  0
 13 23  2  0  0  0  0
 14 25  2  0  0  0  0
 14 26  1  0  0  0  0
 15 28  2  0  0  0  0
 15 64  1  0  0  0  0
 16 27  1  0  0  0  0
 17 27  1  0  0  0  0
 17 29  2  0  0  0  0
 17 31  1  0  0  0  0
 18 20  2  0  0  0  0
 18 36  1  0  0  0  0
 19 21  2  0  0  0  0
 19 37  1  0  0  0  0
 20 45  1  0  0  0  0
 21 38  1  0  0  0  0
 22 80  1  0  0  0  0
 23 81  1  0  0  0  0
 24 26  2  0  0  0  0
 24 80  1  0  0  0  0
 25 82  1  0  0  0  0
 26 83  1  0  0  0  0
 27 63  2  0  0  0  0
 28 54  1  0  0  0  0
 28 66  1  0  0  0  0
 29 65  1  0  0  0  0
 29 69  1  0  0  0  0
 30 48  1  0  0  0  0
 30 64  1  0  0  0  0
 30 66  2  0  0  0  0
 31 70  1  0  0  0  0
 31 75  2  0  0  0  0
 32 46  1  0  0  0  0
 32 71  1  0  0  0  0
 32 76  2  0  0  0  0
 33 60  1  0  0  0  0
 33 67  1  0  0  0  0
 33 77  2  0  0  0  0
 34 61  1  0  0  0  0
 34 72  1  0  0  0  0
 34 78  2  0  0  0  0
 35 68  1  0  0  0  0
 35 73  1  0  0  0  0
 35 79  2  0  0  0  0
 36 39  1  0  0  0  0
 37 46  1  0  0  0  0
 38 67  1  0  0  0  0
 39 41  1  0  0  0  0
 40 42  1  0  0  0  0
 40 43  1  0  0  0  0
 41 45  1  0  0  0  0
 42 47  1  0  0  0  0
 43 68  1  0  0  0  0
 44 47  1  0  0  0  0
 44 68  1  0  0  0  0
 45 71  1  0  0  0  0
 46 67  1  0  0  0  0
 47 65  1  0  0  0  0
 49 61  1  0  0  0  0
 50 62  1  0  0  0  0
 51 62  1  0  0  0  0
 52 62  1  0  0  0  0
 53 74  1  0  0  0  0
 54 55  1  0  0  0  0
 55 58  1  0  0  0  0
 56 57  1  0  0  0  0
 56 59  1  0  0  0  0
 57 64  1  0  0  0  0
 58 73  1  0  0  0  0
 59 81  1  0  0  0  0
 60 62  1  0  0  0  0
 60 72  1  0  0  0  0
 61 74  1  0  0  0  0
 63 65  1  0  0  0  0
M  CHG  2  66   1  74   1
M  ISO  4  35 100  59 101  73 100  81 101
M  END
> <Batch ID>
0041

> <Smiles>
CNC(C)C(=O)NC(C(=O)N1Cc2cc([101O:1][101CH2:1]CCn3cc(CCC[100NH:0][100C:0](=O)N4CCCC(n5nc(-c6ccc(Oc7ccc(F)cc7F)cc6)c(C(N)=O)c5N)C4)nc3C)ccc2CC1C(=O)NC1CCCc2ccccc21)C(C)(C)C

> <Shape>
0.231

> <Color>
0.071

> <Negative vol penalty>
0.000

$$$$

  -OEChem-04052317093D

 86 94  0     1  0  0  0  0  0999 V2000
  -27.8875  -32.9471   26.2999 C   0  0  0  0  0  0  0  0  0  0  0  0
  -28.1226  -31.6183   25.9617 C   0  0  0  0  0  0  0  0  0  0  0  0
  -23.0851   -9.9855   21.3890 C   0  0  0  0  0  0  0  0  0  0  0  0
  -23.9060  -10.7672   23.5226 C   0  0  0  0  0  0  0  0  0  0  0  0
  -26.6998  -33.5647   25.9101 C   0  0  0  0  0  0  0  0  0  0  0  0
  -27.1697  -30.9059   25.2344 C   0  0  0  0  0  0  0  0  0  0  0  0
  -28.2251  -26.5800   21.0298 C   0  0  0  0  0  0  0  0  0  0  0  0
  -22.3446   -8.9964   22.0362 C   0  0  0  0  0  0  0  0  0  0  0  0
  -23.1654   -9.7781   24.1698 C   0  0  0  0  0  0  0  0  0  0  0  0
  -28.2124  -25.1873   21.0933 C   0  0  0  0  0  0  0  0  0  0  0  0
  -20.5197   -6.0376   23.1032 C   0  0  0  0  0  0  0  0  0  0  0  0
  -20.5547   -4.7478   22.5732 C   0  0  0  0  0  0  0  0  0  0  0  0
  -25.9445  -25.1765   20.2713 C   0  0  0  0  0  0  0  0  0  0  0  0
  -22.9474   -4.6781   22.9007 C   0  0  0  0  0  0  0  0  0  0  0  0
  -27.2582  -20.3978   22.1731 C   0  0  0  0  0  0  0  0  0  0  0  0
  -23.8658  -10.8709   22.1321 C   0  0  0  0  0  0  0  0  0  0  0  0
  -24.2122  -13.1984   21.1472 C   0  0  0  0  0  0  0  0  0  0  0  0
  -25.7360  -32.8624   25.1694 C   0  0  0  0  0  0  0  0  0  0  0  0
  -27.0919  -27.2831   20.5962 C   0  0  0  0  0  0  0  0  0  0  0  0
  -25.9674  -31.5143   24.8356 C   0  0  0  0  0  0  0  0  0  0  0  0
  -25.9462  -26.5780   20.2008 C   0  0  0  0  0  0  0  0  0  0  0  0
  -22.3847   -8.8927   23.4266 C   0  0  0  0  0  0  0  0  0  0  0  0
  -27.0710  -24.4855   20.7168 C   0  0  0  0  0  0  0  0  0  0  0  0
  -21.6985   -6.6477   23.5319 C   0  0  0  0  0  0  0  0  0  0  0  0
  -21.7685   -4.0681   22.4720 C   0  0  0  0  0  0  0  0  0  0  0  0
  -22.9123   -5.9679   23.4307 C   0  0  0  0  0  0  0  0  0  0  0  0
  -24.6315  -11.8924   21.4641 C   0  0  0  0  0  0  0  0  0  0  0  0
  -27.1232  -19.0286   22.0671 C   0  0  0  0  0  0  0  0  0  0  0  0
  -28.0401  -20.9972   21.2068 C   0  0  0  0  0  0  0  0  0  0  0  0
  -25.2966  -13.7652   20.5232 C   0  0  0  0  0  0  0  0  0  0  0  0
  -28.4396  -18.9917   20.2142 C   0  0  0  0  0  0  0  0  0  0  0  0
  -22.9550  -13.8417   21.3947 C   0  0  0  0  0  0  0  0  0  0  0  0
  -25.1339  -29.4131   21.9127 C   0  0  0  0  0  0  0  0  0  0  0  0
  -23.8856  -29.5352   18.9212 C   0  0  0  0  0  0  0  0  0  0  0  0
  -23.4067  -27.9896   15.9164 C   0  0  0  0  0  0  0  0  0  0  0  0
  -30.7866  -14.7210   20.2197 C   0  0  0  0  0  0  0  0  0  0  0  0
  -24.4467  -33.5583   24.8114 C   0  0  0  0  0  0  0  0  0  0  0  0
  -27.1308  -28.7841   20.5081 C   0  0  0  0  0  0  0  0  0  0  0  0
  -24.7105  -27.2847   19.7088 C   0  0  0  0  0  0  0  0  0  0  0  0
  -23.6523  -32.8452   23.7203 C   0  0  0  0  0  0  0  0  0  0  0  0
  -29.5782  -11.6780   18.8210 C   0  0  0  0  0  0  0  0  0  0  0  0
  -23.5725  -31.3495   24.0090 C   0  0  0  0  0  0  0  0  0  0  0  0
  -28.1519  -11.5674   19.3627 C   0  0  0  0  0  0  0  0  0  0  0  0
  -30.5278  -12.2851   19.8514 C   0  0  0  0  0  0  0  0  0  0  0  0
  -28.6660  -13.4691   20.9494 C   0  0  0  0  0  0  0  0  0  0  0  0
  -24.9688  -30.7157   24.0262 C   0  0  1  0  0  0  0  0  0  0  0  0
  -25.7447  -29.4206   20.5399 C   0  0  1  0  0  0  0  0  0  0  0  0
  -27.6602  -12.9141   19.9264 C   0  0  2  0  0  0  0  0  0  0  0  0
  -28.6672  -15.9759   25.1795 C   0  0  0  0  0  0  0  0  0  0  0  0
  -22.3155  -28.3232   13.6814 C   0  0  0  0  0  0  0  0  0  0  0  0
  -26.0974  -17.5847   25.4782 C   0  0  0  0  0  0  0  0  0  0  0  0
  -21.1596  -28.9723   20.1709 C   0  0  0  0  0  0  0  0  0  0  0  0
  -20.3138  -28.3805   17.8899 C   0  0  0  0  0  0  0  0  0  0  0  0
  -21.1390  -30.6887   18.3522 C   0  0  0  0  0  0  0  0  0  0  0  0
  -25.9939  -27.7884   14.4934 C   0  0  0  0  0  0  0  0  0  0  0  0
  -26.2958  -18.2918   23.0664 C   0  0  0  0  0  0  0  0  0  0  0  0
  -28.2440  -22.4834   21.2382 C   0  0  0  0  0  0  0  0  0  1  0  0
  -29.0929  -18.2118   19.1239 C   0  0  0  0  0  0  0  0  0  0  0  0
  -27.8656  -16.5081   23.9991 C   0  0  0  0  0  0  0  0  0  0  0  0
  -30.5897  -17.9235   19.3542 C   0  0  0  0  0  0  0  0  0  0  0  0
  -30.8921  -17.1639   20.6441 C   0  0  0  0  0  0  0  0  0  0  0  0
  -22.7992  -28.7893   18.1849 C   0  0  1  0  0  0  0  0  0  0  0  0
  -23.5933  -28.4782   14.4913 C   0  0  2  0  0  0  0  0  0  0  0  0
  -27.0742  -17.7946   24.3153 C   0  0  2  0  0  0  0  0  0  0  0  0
  -21.3754  -29.1942   18.6605 C   0  0  0  0  0  0  0  0  0  0  0  0
  -25.8844  -11.6441   21.0736 N   0  0  0  0  0  0  0  0  0  0  0  0
  -27.7021  -18.2912   21.0968 N   0  0  0  0  0  0  0  0  0  0  0  0
  -28.6481  -20.3221   20.2094 N   0  0  0  0  0  0  0  0  0  0  0  0
  -26.2617  -12.8017   20.5048 N   0  0  0  0  0  0  0  0  0  0  0  0
  -24.7956  -28.7532   19.6466 N   0  0  0  0  0  0  0  0  0  0  0  0
  -30.0043  -13.5611   20.3449 N   0  0  0  0  0  0  0  0  0  0  0  0
  -25.5091  -14.9888   19.9940 N   0  0  0  0  0  0  0  0  0  0  0  0
  -21.9496  -13.1149   22.0469 N   0  0  0  0  0  0  0  0  0  0  0  0
  -25.4517  -30.5203   22.6760 N   0  0  0  0  0  0  0  0  0  0  0  0
  -23.0408  -29.0140   16.7638 N   0  0  0  0  0  0  0  0  0  0  0  0
  -30.2130  -15.8889   20.7072 N   0  0  0  0  0  0  0  0  0  0  0  0
  -24.6742  -27.7057   13.8162 N   0  3  0  0  0  0  0  0  0  0  0  0
  -22.7242  -15.0205   21.0332 O   0  0  0  0  0  0  0  0  0  0  0  0
  -24.4255  -28.4731   22.2537 O   0  0  0  0  0  0  0  0  0  0  0  0
  -23.9297  -30.7658   18.8493 O   0  0  0  0  0  0  0  0  0  0  0  0
  -23.5658  -26.8158   16.2444 O   0  0  0  0  0  0  0  0  0  0  0  0
  -31.9105  -14.7170   19.7063 O   0  0  0  0  0  0  0  0  0  0  0  0
  -21.6620   -7.9279   24.0586 O   0  0  0  0  0  0  0  0  0  0  0  0
  -27.0558  -23.1261   20.7784 O   0  0  0  0  0  0  0  0  0  1  0  0
  -21.8017   -2.8289   21.9644 F   0  0  0  0  0  0  0  0  0  0  0  0
  -24.0480   -6.5484   23.8420 F   0  0  0  0  0  0  0  0  0  0  0  0
  1  2  1  0  0  0  0
  1  5  2  0  0  0  0
  2  6  2  0  0  0  0
  3  8  2  0  0  0  0
  3 16  1  0  0  0  0
  4  9  1  0  0  0  0
  4 16  2  0  0  0  0
  5 18  1  0  0  0  0
  6 20  1  0  0  0  0
  7 10  2  0  0  0  0
  7 19  1  0  0  0  0
  8 22  1  0  0  0  0
  9 22  2  0  0  0  0
 10 23  1  0  0  0  0
 11 12  2  0  0  0  0
 11 24  1  0  0  0  0
 12 25  1  0  0  0  0
 13 21  1  0  0  0  0
 13 23  2  0  0  0  0
 14 25  2  0  0  0  0
 14 26  1  0  0  0  0
 15 28  1  0  0  0  0
 15 29  2  0  0  0  0
 16 27  1  0  0  0  0
 17 27  1  0  0  0  0
 17 30  2  0  0  0  0
 17 32  1  0  0  0  0
 18 20  2  0  0  0  0
 18 37  1  0  0  0  0
 19 21  2  0  0  0  0
 19 38  1  0  0  0  0
 20 46  1  0  0  0  0
 21 39  1  0  0  0  0
 22 83  1  0  0  0  0
 23 84  1  0  0  0  0
 24 26  2  0  0  0  0
 24 83  1  0  0  0  0
 25 85  1  0  0  0  0
 26 86  1  0  0  0  0
 27 66  2  0  0  0  0
 28 56  1  0  0  0  0
 28 67  2  0  0  0  0
 29 57  1  0  0  0  0
 29 68  1  0  0  0  0
 30 69  1  0  0  0  0
 30 72  1  0  0  0  0
 31 58  1  0  0  0  0
 31 67  1  0  0  0  0
 31 68  2  0  0  0  0
 32 73  1  0  0  0  0
 32 78  2  0  0  0  0
 33 47  1  0  0  0  0
 33 74  1  0  0  0  0
 33 79  2  0  0  0  0
 34 62  1  0  0  0  0
 34 70  1  0  0  0  0
 34 80  2  0  0  0  0
 35 63  1  0  0  0  0
 35 75  1  0  0  0  0
 35 81  2  0  0  0  0
 36 71  1  0  0  0  0
 36 76  1  0  0  0  0
 36 82  2  0  0  0  0
 37 40  1  0  0  0  0
 38 47  1  0  0  0  0
 39 70  1  0  0  0  0
 40 42  1  0  0  0  0
 41 43  1  0  0  0  0
 41 44  1  0  0  0  0
 42 46  1  0  0  0  0
 43 48  1  0  0  0  0
 44 71  1  0  0  0  0
 45 48  1  0  0  0  0
 45 71  1  0  0  0  0
 46 74  1  0  0  0  0
 47 70  1  0  0  0  0
 48 69  1  0  0  0  0
 49 59  1  0  0  0  0
 50 63  1  0  0  0  0
 51 64  1  0  0  0  0
 52 65  1  0  0  0  0
 53 65  1  0  0  0  0
 54 65  1  0  0  0  0
 55 77  1  0  0  0  0
 56 64  1  0  0  0  0
 57 84  1  0  0  0  0
 58 60  1  0  0  0  0
 59 64  1  0  0  0  0
 60 61  1  0  0  0  0
 61 76  1  0  0  0  0
 62 65  1  0  0  0  0
 62 75  1  0  0  0  0
 63 77  1  0  0  0  0
 66 69  1  0  0  0  0
M  CHG  1  77   1
M  ISO  4  36 100  57 101  76 100  84 101
M  END
> <Batch ID>
0041

> <Smiles>
CCC(C)Cc1cc([101CH2:1][101O:1]c2ccc3c(c2)CN(C(=O)C(NC(=O)C(C)NC)C(C)(C)C)C(C(=O)NC2CCCc4ccccc42)C3)nc(CCC[100NH:0][100C:0](=O)N2CCCC(n3nc(-c4ccc(Oc5ccc(F)cc5F)cc4)c(C(N)=O)c3N)C2)n1

> <Shape>
0.330

> <Color>
0.181

> <Negative vol penalty>
0.000

$$$$

  -OEChem-04052317093D

 84 92  0     1  0  0  0  0  0999 V2000
  -19.9894  -21.0133   23.0220 C   0  0  0  0  0  0  0  0  0  0  0  0
  -21.0946  -21.5499   22.3693 C   0  0  0  0  0  0  0  0  0  0  0  0
  -26.7824  -13.0295   21.0638 C   0  0  0  0  0  0  0  0  0  0  0  0
  -26.7166  -13.3719   18.6730 C   0  0  0  0  0  0  0  0  0  0  0  0
  -18.8316  -21.7756   23.1716 C   0  0  0  0  0  0  0  0  0  0  0  0
  -21.0423  -22.8489   21.8650 C   0  0  0  0  0  0  0  0  0  0  0  0
  -25.2181  -25.5123   22.9204 C   0  0  0  0  0  0  0  0  0  0  0  0
  -26.2604  -11.7471   20.8945 C   0  0  0  0  0  0  0  0  0  0  0  0
  -26.1946  -12.0895   18.5038 C   0  0  0  0  0  0  0  0  0  0  0  0
  -26.3465  -25.2627   22.1406 C   0  0  0  0  0  0  0  0  0  0  0  0
  -23.2388  -10.3434   20.3253 C   0  0  0  0  0  0  0  0  0  0  0  0
  -22.2098   -9.9455   21.1788 C   0  0  0  0  0  0  0  0  0  0  0  0
  -25.8690  -27.2310   20.8303 C   0  0  0  0  0  0  0  0  0  0  0  0
  -23.5762   -8.1187   21.9744 C   0  0  0  0  0  0  0  0  0  0  0  0
  -27.0104  -13.8419   19.9530 C   0  0  0  0  0  0  0  0  0  0  0  0
  -28.9072  -15.5372   20.1427 C   0  0  0  0  0  0  0  0  0  0  0  0
  -18.7684  -23.0880   22.6774 C   0  0  0  0  0  0  0  0  0  0  0  0
  -24.3991  -26.6190   22.6537 C   0  0  0  0  0  0  0  0  0  0  0  0
  -19.8821  -23.6290   22.0070 C   0  0  0  0  0  0  0  0  0  0  0  0
  -24.7322  -27.4939   21.6098 C   0  0  0  0  0  0  0  0  0  0  0  0
  -28.8553  -23.3364   16.6544 C   0  0  0  0  0  0  0  0  0  0  0  0
  -25.9665  -11.2771   19.6145 C   0  0  0  0  0  0  0  0  0  0  0  0
  -26.6706  -26.1205   21.0936 C   0  0  0  0  0  0  0  0  0  0  0  0
  -24.4365   -9.6289   20.2963 C   0  0  0  0  0  0  0  0  0  0  0  0
  -22.3785   -8.8331   22.0034 C   0  0  0  0  0  0  0  0  0  0  0  0
  -24.6052   -8.5166   21.1209 C   0  0  0  0  0  0  0  0  0  0  0  0
  -27.5491  -15.1669   20.1273 C   0  0  0  0  0  0  0  0  0  0  0  0
  -29.6288  -22.9752   17.7738 C   0  0  0  0  0  0  0  0  0  0  0  0
  -28.6422  -24.6849   16.8051 C   0  0  0  0  0  0  0  0  0  0  0  0
  -28.8902  -16.8967   20.3371 C   0  0  0  0  0  0  0  0  0  0  0  0
  -30.0793  -14.7248   19.9946 C   0  0  0  0  0  0  0  0  0  0  0  0
  -21.3623  -27.0082   21.7995 C   0  0  0  0  0  0  0  0  0  0  0  0
  -22.0499  -30.1488   22.2306 C   0  0  0  0  0  0  0  0  0  0  0  0
  -24.4127  -32.6090   22.3387 C   0  0  0  0  0  0  0  0  0  0  0  0
  -24.8148  -21.1295   19.1857 C   0  0  0  0  0  0  0  0  0  0  0  0
  -17.4788  -23.8567   22.8214 C   0  0  0  0  0  0  0  0  0  0  0  0
  -23.2003  -26.8892   23.5209 C   0  0  0  0  0  0  0  0  0  0  0  0
  -23.8971  -28.7072   21.2951 C   0  0  0  0  0  0  0  0  0  0  0  0
  -17.6348  -25.3572   22.5882 C   0  0  0  0  0  0  0  0  0  0  0  0
  -26.2688  -20.3600   22.3433 C   0  0  0  0  0  0  0  0  0  0  0  0
  -18.4582  -25.6193   21.3312 C   0  0  0  0  0  0  0  0  0  0  0  0
  -26.8843  -18.9752   22.1348 C   0  0  0  0  0  0  0  0  0  0  0  0
  -24.9545  -20.5140   21.5811 C   0  0  0  0  0  0  0  0  0  0  0  0
  -25.6488  -18.8182   19.9330 C   0  0  0  0  0  0  0  0  0  0  0  0
  -19.8726  -25.0430   21.4680 C   0  0  1  0  0  0  0  0  0  0  0  0
  -22.1507  -27.7585   22.8354 C   0  0  1  0  0  0  0  0  0  0  0  0
  -27.0041  -18.6345   20.6372 C   0  0  2  0  0  0  0  0  0  0  0  0
  -30.1467  -21.6402   18.1217 C   0  0  0  0  0  0  0  0  0  0  0  0
  -27.9058  -25.6537   15.9713 C   0  0  0  0  0  0  0  0  0  0  0  0
  -24.6666  -35.0829   22.6744 C   0  0  0  0  0  0  0  0  0  0  0  0
  -21.0023  -30.6371   19.4068 C   0  0  0  0  0  0  0  0  0  0  0  0
  -22.1355  -32.8692   19.4472 C   0  0  0  0  0  0  0  0  0  0  0  0
  -20.3228  -32.3628   21.0844 C   0  0  0  0  0  0  0  0  0  0  0  0
  -26.1179  -32.2271   24.7273 C   0  0  0  0  0  0  0  0  0  0  0  0
  -28.3792  -22.4665   15.5650 C   0  0  0  0  0  0  0  0  0  0  0  0
  -27.1667  -21.6027   15.9735 C   0  0  0  0  0  0  0  0  0  0  0  0
  -25.9508  -22.4507   16.3584 C   0  0  0  0  0  0  0  0  0  0  0  0
  -29.3434  -26.4119   18.5768 C   0  0  0  0  0  0  0  0  0  0  0  0
  -24.7450  -21.6030   16.7505 C   0  0  0  0  0  0  0  0  0  0  0  0
  -28.0437  -26.7987   19.2741 C   0  0  0  0  0  0  0  0  0  1  0  0
  -22.5805  -31.2572   21.3537 C   0  0  1  0  0  0  0  0  0  0  0  0
  -24.6673  -33.7176   23.3441 C   0  0  2  0  0  0  0  0  0  0  0  0
  -21.5251  -31.7577   20.3275 C   0  0  0  0  0  0  0  0  0  0  0  0
  -26.7290  -16.2072   20.2983 N   0  0  0  0  0  0  0  0  0  0  0  0
  -29.8896  -24.0106   18.5763 N   0  0  0  0  0  0  0  0  0  0  0  0
  -29.2766  -25.0357   17.9604 N   0  0  0  0  0  0  0  0  0  0  0  0
  -27.5742  -17.2445   20.4232 N   0  0  0  0  0  0  0  0  0  0  0  0
  -22.7315  -28.9251   22.1676 N   0  0  0  0  0  0  0  0  0  0  0  0
  -25.1370  -20.1776   20.1670 N   0  0  0  0  0  0  0  0  0  0  0  0
  -29.8727  -17.8167   20.4410 N   0  0  0  0  0  0  0  0  0  0  0  0
  -29.9167  -13.3461   19.8024 N   0  0  0  0  0  0  0  0  0  0  0  0
  -20.6920  -25.9050   22.2926 N   0  0  0  0  0  0  0  0  0  0  0  0
  -23.0733  -32.2917   22.2567 N   0  0  0  0  0  0  0  0  0  0  0  0
  -25.0235  -20.7321   17.8707 N   0  0  0  0  0  0  0  0  0  0  0  0
  -25.9865  -33.5209   24.0089 N   0  3  0  0  0  0  0  0  0  0  0  0
  -31.2369  -15.2049   20.0480 O   0  0  0  0  0  0  0  0  0  0  0  0
  -21.3609  -27.4019   20.6390 O   0  0  0  0  0  0  0  0  0  0  0  0
  -21.0713  -30.3631   22.9503 O   0  0  0  0  0  0  0  0  0  0  0  0
  -25.3115  -32.0803   21.6882 O   0  0  0  0  0  0  0  0  0  0  0  0
  -24.3789  -22.2525   19.4612 O   0  0  0  0  0  0  0  0  0  0  0  0
  -25.4574  -10.0257   19.4490 O   0  0  0  0  0  0  0  0  0  0  0  0
  -27.7711  -25.8788   20.3305 O   0  0  0  0  0  0  0  0  0  1  0  0
  -21.3909   -8.4521   22.8241 F   0  0  0  0  0  0  0  0  0  0  0  0
  -25.7540   -7.8270   21.0983 F   0  0  0  0  0  0  0  0  0  0  0  0
  1  2  1  0  0  0  0
  1  5  2  0  0  0  0
  2  6  2  0  0  0  0
  3  8  2  0  0  0  0
  3 15  1  0  0  0  0
  4  9  1  0  0  0  0
  4 15  2  0  0  0  0
  5 17  1  0  0  0  0
  6 19  1  0  0  0  0
  7 10  2  0  0  0  0
  7 18  1  0  0  0  0
  8 22  1  0  0  0  0
  9 22  2  0  0  0  0
 10 23  1  0  0  0  0
 11 12  2  0  0  0  0
 11 24  1  0  0  0  0
 12 25  1  0  0  0  0
 13 20  1  0  0  0  0
 13 23  2  0  0  0  0
 14 25  2  0  0  0  0
 14 26  1  0  0  0  0
 15 27  1  0  0  0  0
 16 27  1  0  0  0  0
 16 30  2  0  0  0  0
 16 31  1  0  0  0  0
 17 19  2  0  0  0  0
 17 36  1  0  0  0  0
 18 20  2  0  0  0  0
 18 37  1  0  0  0  0
 19 45  1  0  0  0  0
 20 38  1  0  0  0  0
 21 28  1  0  0  0  0
 21 29  2  0  0  0  0
 21 55  1  0  0  0  0
 22 81  1  0  0  0  0
 23 82  1  0  0  0  0
 24 26  2  0  0  0  0
 24 81  1  0  0  0  0
 25 83  1  0  0  0  0
 26 84  1  0  0  0  0
 27 64  2  0  0  0  0
 28 48  1  0  0  0  0
 28 65  2  0  0  0  0
 29 49  1  0  0  0  0
 29 66  1  0  0  0  0
 30 67  1  0  0  0  0
 30 70  1  0  0  0  0
 31 71  1  0  0  0  0
 31 76  2  0  0  0  0
 32 46  1  0  0  0  0
 32 72  1  0  0  0  0
 32 77  2  0  0  0  0
 33 61  1  0  0  0  0
 33 68  1  0  0  0  0
 33 78  2  0  0  0  0
 34 62  1  0  0  0  0
 34 73  1  0  0  0  0
 34 79  2  0  0  0  0
 35 69  1  0  0  0  0
 35 74  1  0  0  0  0
 35 80  2  0  0  0  0
 36 39  1  0  0  0  0
 37 46  1  0  0  0  0
 38 68  1  0  0  0  0
 39 41  1  0  0  0  0
 40 42  1  0  0  0  0
 40 43  1  0  0  0  0
 41 45  1  0  0  0  0
 42 47  1  0  0  0  0
 43 69  1  0  0  0  0
 44 47  1  0  0  0  0
 44 69  1  0  0  0  0
 45 72  1  0  0  0  0
 46 68  1  0  0  0  0
 47 67  1  0  0  0  0
 50 62  1  0  0  0  0
 51 63  1  0  0  0  0
 52 63  1  0  0  0  0
 53 63  1  0  0  0  0
 54 75  1  0  0  0  0
 55 56  1  0  0  0  0
 56 57  1  0  0  0  0
 57 59  1  0  0  0  0
 58 60  1  0  0  0  0
 58 66  1  0  0  0  0
 59 74  1  0  0  0  0
 60 82  1  0  0  0  0
 61 63  1  0  0  0  0
 61 73  1  0  0  0  0
 62 75  1  0  0  0  0
 64 67  1  0  0  0  0
 65 66  1  0  0  0  0
M  CHG  1  75   1
M  ISO  4  35 100  60 101  74 100  82 101
M  END
> <Batch ID>
0041

> <Smiles>
CNC(C)C(=O)NC(C(=O)N1Cc2cc([101O:1][101CH2:1]Cn3nc(C)c(CCCC[100NH:0][100C:0](=O)N4CCCC(n5nc(-c6ccc(Oc7ccc(F)cc7F)cc6)c(C(N)=O)c5N)C4)c3C)ccc2CC1C(=O)NC1CCCc2ccccc21)C(C)(C)C

> <Shape>
0.234

> <Color>
0.068

> <Negative vol penalty>
0.000

$$$$

  -OEChem-04052317093D

 83 91  0     1  0  0  0  0  0999 V2000
  -28.7023  -27.5524   18.5103 C   0  0  0  0  0  0  0  0  0  0  0  0
  -28.4030  -26.4025   17.7868 C   0  0  0  0  0  0  0  0  0  0  0  0
  -22.2332  -25.2233   20.6336 C   0  0  0  0  0  0  0  0  0  0  0  0
  -24.0870  -23.9188   19.7978 C   0  0  0  0  0  0  0  0  0  0  0  0
  -29.4154  -27.4572   19.7046 C   0  0  0  0  0  0  0  0  0  0  0  0
  -28.8176  -25.1567   18.2566 C   0  0  0  0  0  0  0  0  0  0  0  0
  -26.8023  -18.2837   18.3811 C   0  0  0  0  0  0  0  0  0  0  0  0
  -23.1251  -26.1782   21.1217 C   0  0  0  0  0  0  0  0  0  0  0  0
  -24.9790  -24.8737   20.2859 C   0  0  0  0  0  0  0  0  0  0  0  0
  -27.2899  -17.0127   18.0802 C   0  0  0  0  0  0  0  0  0  0  0  0
  -24.8963  -29.1375   22.2707 C   0  0  0  0  0  0  0  0  0  0  0  0
  -24.5984  -30.4806   22.0409 C   0  0  0  0  0  0  0  0  0  0  0  0
  -28.4470  -16.9621   20.1963 C   0  0  0  0  0  0  0  0  0  0  0  0
  -25.5471  -13.9057   19.9890 C   0  0  0  0  0  0  0  0  0  0  0  0
  -24.6550  -30.0856   19.6581 C   0  0  0  0  0  0  0  0  0  0  0  0
  -24.8615  -11.7108   21.4580 C   0  0  0  0  0  0  0  0  0  0  0  0
  -22.7141  -24.0936   19.9716 C   0  0  0  0  0  0  0  0  0  0  0  0
  -21.1959  -23.0738   18.1933 C   0  0  0  0  0  0  0  0  0  0  0  0
  -29.8306  -26.2088   20.1943 C   0  0  0  0  0  0  0  0  0  0  0  0
  -27.1428  -18.9090   19.5892 C   0  0  0  0  0  0  0  0  0  0  0  0
  -29.5381  -25.0449   19.4579 C   0  0  0  0  0  0  0  0  0  0  0  0
  -27.9603  -18.2400   20.5113 C   0  0  0  0  0  0  0  0  0  0  0  0
  -24.5476  -14.0129   20.9496 C   0  0  0  0  0  0  0  0  0  0  0  0
  -24.1922  -12.8992   21.7024 C   0  0  0  0  0  0  0  0  0  0  0  0
  -24.4980  -26.0034   20.9479 C   0  0  0  0  0  0  0  0  0  0  0  0
  -28.1147  -16.3529   18.9865 C   0  0  0  0  0  0  0  0  0  0  0  0
  -25.0737  -28.2684   21.1942 C   0  0  0  0  0  0  0  0  0  0  0  0
  -24.4777  -30.9547   20.7347 C   0  0  0  0  0  0  0  0  0  0  0  0
  -24.9530  -28.7424   19.8879 C   0  0  0  0  0  0  0  0  0  0  0  0
  -21.7933  -23.1067   19.4676 C   0  0  0  0  0  0  0  0  0  0  0  0
  -26.1558  -12.6724   19.8215 C   0  0  0  0  0  0  0  0  0  0  0  0
  -20.4115  -21.9464   18.2108 C   0  0  0  0  0  0  0  0  0  0  0  0
  -21.3373  -23.9811   17.0922 C   0  0  0  0  0  0  0  0  0  0  0  0
  -28.6970  -21.5669   20.3790 C   0  0  0  0  0  0  0  0  0  0  0  0
  -27.7510  -20.7650   23.3764 C   0  0  0  0  0  0  0  0  0  0  0  0
  -26.7628  -18.3237   25.5468 C   0  0  0  0  0  0  0  0  0  0  0  0
  -20.6581  -16.8562   21.3541 C   0  0  0  0  0  0  0  0  0  0  0  0
  -30.6400  -26.1605   21.4660 C   0  0  0  0  0  0  0  0  0  0  0  0
  -26.5869  -20.2692   19.9105 C   0  0  0  0  0  0  0  0  0  0  0  0
  -28.3389  -18.8594   21.8309 C   0  0  0  0  0  0  0  0  0  0  0  0
  -30.7178  -24.7676   22.0858 C   0  0  0  0  0  0  0  0  0  0  0  0
  -17.9397  -19.1507   21.2050 C   0  0  0  0  0  0  0  0  0  0  0  0
  -31.0439  -23.7264   21.0198 C   0  0  0  0  0  0  0  0  0  0  0  0
  -18.5652  -20.4218   20.6278 C   0  0  0  0  0  0  0  0  0  0  0  0
  -18.9039  -18.4203   22.1371 C   0  0  0  0  0  0  0  0  0  0  0  0
  -20.8483  -19.3890   20.9732 C   0  0  0  0  0  0  0  0  0  0  0  0
  -29.9491  -23.6733   19.9474 C   0  0  1  0  0  0  0  0  0  0  0  0
  -27.4155  -21.0241   20.9454 C   0  0  1  0  0  0  0  0  0  0  0  0
  -19.9337  -20.1305   19.9832 C   0  0  2  0  0  0  0  0  0  0  0  0
  -23.1287  -12.9582   22.7433 C   0  0  0  0  0  0  0  0  0  0  0  0
  -26.0951  -17.9674   27.9394 C   0  0  0  0  0  0  0  0  0  0  0  0
  -30.6749  -20.9801   24.2219 C   0  0  0  0  0  0  0  0  0  0  0  0
  -30.0926  -19.7204   26.3057 C   0  0  0  0  0  0  0  0  0  0  0  0
  -29.0430  -21.9384   25.8568 C   0  0  0  0  0  0  0  0  0  0  0  0
  -24.0762  -17.3526   24.7737 C   0  0  0  0  0  0  0  0  0  0  0  0
  -23.8723  -15.3283   21.1549 C   0  0  0  0  0  0  0  0  0  0  0  0
  -27.2437  -12.5188   18.7887 C   0  0  0  0  0  0  0  0  0  0  0  0
  -28.6483  -12.7988   19.3274 C   0  0  0  0  0  0  0  0  0  0  0  0
  -22.4897  -15.4164   20.4989 C   0  0  0  0  0  0  0  0  0  0  0  0
  -28.8403  -14.2370   19.7943 C   0  0  0  0  0  0  0  0  0  1  0  0
  -28.3312  -19.9317   24.4936 C   0  0  1  0  0  0  0  0  0  0  0  0
  -25.6068  -18.2562   26.5285 C   0  0  2  0  0  0  0  0  0  0  0  0
  -29.5300  -20.6315   25.1939 C   0  0  0  0  0  0  0  0  0  0  0  0
  -25.8376  -11.5682   20.5337 N   0  0  0  0  0  0  0  0  0  0  0  0
  -21.4203  -22.0817   20.2386 N   0  0  0  0  0  0  0  0  0  0  0  0
  -20.5800  -21.3942   19.4465 N   0  0  0  0  0  0  0  0  0  0  0  0
  -27.7754  -20.1934   22.0964 N   0  0  0  0  0  0  0  0  0  0  0  0
  -20.1817  -18.1730   21.4648 N   0  0  0  0  0  0  0  0  0  0  0  0
  -19.6010  -21.3834   17.2896 N   0  0  0  0  0  0  0  0  0  0  0  0
  -22.1834  -25.0882   17.2432 N   0  0  0  0  0  0  0  0  0  0  0  0
  -28.7984  -22.9438   20.4356 N   0  0  0  0  0  0  0  0  0  0  0  0
  -27.2208  -19.6142   25.3850 N   0  0  0  0  0  0  0  0  0  0  0  0
  -21.8736  -16.7095   20.6971 N   0  0  0  0  0  0  0  0  0  0  0  0
  -24.6528  -17.1821   26.1322 N   0  3  0  0  0  0  0  0  0  0  0  0
  -20.7186  -23.8240   16.0124 O   0  0  0  0  0  0  0  0  0  0  0  0
  -29.5326  -20.7936   19.9257 O   0  0  0  0  0  0  0  0  0  0  0  0
  -27.2866  -21.8790   23.6314 O   0  0  0  0  0  0  0  0  0  0  0  0
  -27.2168  -17.3305   24.9830 O   0  0  0  0  0  0  0  0  0  0  0  0
  -20.0429  -15.8829   21.8026 O   0  0  0  0  0  0  0  0  0  0  0  0
  -25.3686  -26.9350   21.4239 O   0  0  0  0  0  0  0  0  0  0  0  0
  -28.5926  -15.1125   18.6950 O   0  0  0  0  0  0  0  0  0  1  0  0
  -24.1901  -32.2442   20.5142 F   0  0  0  0  0  0  0  0  0  0  0  0
  -25.1211  -27.9120   18.8497 F   0  0  0  0  0  0  0  0  0  0  0  0
  1  2  1  0  0  0  0
  1  5  2  0  0  0  0
  2  6  2  0  0  0  0
  3  8  2  0  0  0  0
  3 17  1  0  0  0  0
  4  9  1  0  0  0  0
  4 17  2  0  0  0  0
  5 19  1  0  0  0  0
  6 21  1  0  0  0  0
  7 10  2  0  0  0  0
  7 20  1  0  0  0  0
  8 25  1  0  0  0  0
  9 25  2  0  0  0  0
 10 26  1  0  0  0  0
 11 12  2  0  0  0  0
 11 27  1  0  0  0  0
 12 28  1  0  0  0  0
 13 22  1  0  0  0  0
 13 26  2  0  0  0  0
 14 23  2  0  0  0  0
 14 31  1  0  0  0  0
 15 28  2  0  0  0  0
 15 29  1  0  0  0  0
 16 24  2  0  0  0  0
 16 64  1  0  0  0  0
 17 30  1  0  0  0  0
 18 30  1  0  0  0  0
 18 32  2  0  0  0  0
 18 33  1  0  0  0  0
 19 21  2  0  0  0  0
 19 38  1  0  0  0  0
 20 22  2  0  0  0  0
 20 39  1  0  0  0  0
 21 47  1  0  0  0  0
 22 40  1  0  0  0  0
 23 24  1  0  0  0  0
 23 56  1  0  0  0  0
 24 50  1  0  0  0  0
 25 80  1  0  0  0  0
 26 81  1  0  0  0  0
 27 29  2  0  0  0  0
 27 80  1  0  0  0  0
 28 82  1  0  0  0  0
 29 83  1  0  0  0  0
 30 65  2  0  0  0  0
 31 57  1  0  0  0  0
 31 64  2  0  0  0  0
 32 66  1  0  0  0  0
 32 69  1  0  0  0  0
 33 70  1  0  0  0  0
 33 75  2  0  0  0  0
 34 48  1  0  0  0  0
 34 71  1  0  0  0  0
 34 76  2  0  0  0  0
 35 61  1  0  0  0  0
 35 67  1  0  0  0  0
 35 77  2  0  0  0  0
 36 62  1  0  0  0  0
 36 72  1  0  0  0  0
 36 78  2  0  0  0  0
 37 68  1  0  0  0  0
 37 73  1  0  0  0  0
 37 79  2  0  0  0  0
 38 41  1  0  0  0  0
 39 48  1  0  0  0  0
 40 67  1  0  0  0  0
 41 43  1  0  0  0  0
 42 44  1  0  0  0  0
 42 45  1  0  0  0  0
 43 47  1  0  0  0  0
 44 49  1  0  0  0  0
 45 68  1  0  0  0  0
 46 49  1  0  0  0  0
 46 68  1  0  0  0  0
 47 71  1  0  0  0  0
 48 67  1  0  0  0  0
 49 66  1  0  0  0  0
 51 62  1  0  0  0  0
 52 63  1  0  0  0  0
 53 63  1  0  0  0  0
 54 63  1  0  0  0  0
 55 74  1  0  0  0  0
 56 59  1  0  0  0  0
 57 58  1  0  0  0  0
 58 60  1  0  0  0  0
 59 73  1  0  0  0  0
 60 81  1  0  0  0  0
 61 63  1  0  0  0  0
 61 72  1  0  0  0  0
 62 74  1  0  0  0  0
 65 66  1  0  0  0  0
M  CHG  1  74   1
M  ISO  4  37 100  60 101  73 100  81 101
M  END
> <Batch ID>
0041

> <Smiles>
CNC(C)C(=O)NC(C(=O)N1Cc2cc([101O:1][101CH2:1]CCc3cc(CC[100NH:0][100C:0](=O)N4CCCC(n5nc(-c6ccc(Oc7ccc(F)cc7F)cc6)c(C(N)=O)c5N)C4)c(C)cn3)ccc2CC1C(=O)NC1CCCc2ccccc21)C(C)(C)C

> <Shape>
0.176

> <Color>
0.070

> <Negative vol penalty>
0.000

$$$$

  -OEChem-04052317093D

 86 94  0     1  0  0  0  0  0999 V2000
  -33.8874  -21.2881   23.1252 C   0  0  0  0  0  0  0  0  0  0  0  0
  -33.0866  -21.4054   21.9936 C   0  0  0  0  0  0  0  0  0  0  0  0
  -23.1562   -9.7935   21.0129 C   0  0  0  0  0  0  0  0  0  0  0  0
  -23.9405  -10.4470   23.2026 C   0  0  0  0  0  0  0  0  0  0  0  0
  -33.5200  -21.9296   24.3073 C   0  0  0  0  0  0  0  0  0  0  0  0
  -31.9173  -22.1634   22.0439 C   0  0  0  0  0  0  0  0  0  0  0  0
  -31.3764  -25.1706   18.0054 C   0  0  0  0  0  0  0  0  0  0  0  0
  -22.4490   -8.7346   21.5823 C   0  0  0  0  0  0  0  0  0  0  0  0
  -23.2333   -9.3881   23.7720 C   0  0  0  0  0  0  0  0  0  0  0  0
  -30.9324  -24.5772   16.8245 C   0  0  0  0  0  0  0  0  0  0  0  0
  -21.9258   -6.6431   25.7632 C   0  0  0  0  0  0  0  0  0  0  0  0
  -22.5773   -5.8713   26.7253 C   0  0  0  0  0  0  0  0  0  0  0  0
  -28.7026  -25.3861   17.2636 C   0  0  0  0  0  0  0  0  0  0  0  0
  -24.2670   -5.2766   25.1041 C   0  0  0  0  0  0  0  0  0  0  0  0
  -23.9020  -10.6497   21.8231 C   0  0  0  0  0  0  0  0  0  0  0  0
  -24.1687  -13.0533   21.0111 C   0  0  0  0  0  0  0  0  0  0  0  0
  -32.3506  -22.7037   24.3693 C   0  0  0  0  0  0  0  0  0  0  0  0
  -30.4831  -25.8682   18.8311 C   0  0  0  0  0  0  0  0  0  0  0  0
  -31.5332  -22.8147   23.2283 C   0  0  0  0  0  0  0  0  0  0  0  0
  -29.1383  -25.9897   18.4531 C   0  0  0  0  0  0  0  0  0  0  0  0
  -28.5511  -19.2256   18.2147 C   0  0  0  0  0  0  0  0  0  0  0  0
  -22.4876   -8.5319   22.9618 C   0  0  0  0  0  0  0  0  0  0  0  0
  -29.5947  -24.6824   16.4549 C   0  0  0  0  0  0  0  0  0  0  0  0
  -22.4449   -6.7316   24.4715 C   0  0  0  0  0  0  0  0  0  0  0  0
  -23.7479   -5.1881   26.3957 C   0  0  0  0  0  0  0  0  0  0  0  0
  -23.6155   -6.0484   24.1420 C   0  0  0  0  0  0  0  0  0  0  0  0
  -24.6332  -11.7434   21.2354 C   0  0  0  0  0  0  0  0  0  0  0  0
  -28.5447  -18.7339   16.9254 C   0  0  0  0  0  0  0  0  0  0  0  0
  -28.2377  -20.5631   18.3451 C   0  0  0  0  0  0  0  0  0  0  0  0
  -25.2346  -13.7018   20.4366 C   0  0  0  0  0  0  0  0  0  0  0  0
  -27.9667  -20.7705   16.0978 C   0  0  0  0  0  0  0  0  0  0  0  0
  -22.8884  -13.6321   21.2965 C   0  0  0  0  0  0  0  0  0  0  0  0
  -29.4482  -25.5187   21.8162 C   0  0  0  0  0  0  0  0  0  0  0  0
  -27.9904  -28.3565   21.2295 C   0  0  0  0  0  0  0  0  0  0  0  0
  -26.7313  -30.5472   18.9356 C   0  0  0  0  0  0  0  0  0  0  0  0
  -30.6880  -14.8705   20.2379 C   0  0  0  0  0  0  0  0  0  0  0  0
  -31.9699  -23.3398   25.6828 C   0  0  0  0  0  0  0  0  0  0  0  0
  -30.9833  -26.5254   20.0882 C   0  0  0  0  0  0  0  0  0  0  0  0
  -28.1432  -26.7450   19.2943 C   0  0  0  0  0  0  0  0  0  0  0  0
  -30.9107  -24.4306   25.5470 C   0  0  0  0  0  0  0  0  0  0  0  0
  -29.5944  -11.8960   18.6152 C   0  0  0  0  0  0  0  0  0  0  0  0
  -29.7693  -23.9580   24.6522 C   0  0  0  0  0  0  0  0  0  0  0  0
  -28.1709  -11.6961   19.1385 C   0  0  0  0  0  0  0  0  0  0  0  0
  -30.5177  -12.4600   19.6928 C   0  0  0  0  0  0  0  0  0  0  0  0
  -28.6108  -13.4949   20.8617 C   0  0  0  0  0  0  0  0  0  0  0  0
  -30.2702  -23.6483   23.2363 C   0  0  1  0  0  0  0  0  0  0  0  0
  -29.8802  -26.7739   21.1122 C   0  0  1  0  0  0  0  0  0  0  0  0
  -27.6293  -12.9802   19.7949 C   0  0  2  0  0  0  0  0  0  0  0  0
  -28.8682  -17.2999   16.6614 C   0  0  0  0  0  0  0  0  0  0  0  0
  -27.5475  -22.5795   19.6660 C   0  0  0  0  0  0  0  0  0  0  0  0
  -25.5690  -32.7644   18.7603 C   0  0  0  0  0  0  0  0  0  0  0  0
  -25.3756  -27.0524   22.1079 C   0  0  0  0  0  0  0  0  0  0  0  0
  -24.1482  -28.9504   21.0311 C   0  0  0  0  0  0  0  0  0  0  0  0
  -25.7031  -29.3909   22.9314 C   0  0  0  0  0  0  0  0  0  0  0  0
  -28.9560  -31.7211   17.3762 C   0  0  0  0  0  0  0  0  0  0  0  0
  -28.8731  -18.3689   19.3875 C   0  0  0  0  0  0  0  0  0  0  0  0
  -28.2137  -21.2071   19.6923 C   0  0  0  0  0  0  0  0  0  0  0  0
  -27.6357  -21.6374   14.9093 C   0  0  0  0  0  0  0  0  0  0  0  0
  -30.3801  -18.1183   19.6048 C   0  0  0  0  0  0  0  0  0  0  0  0
  -28.8598  -22.0545   14.0912 C   0  0  0  0  0  0  0  0  0  0  0  0
  -30.7047  -17.2785   20.8384 C   0  0  0  0  0  0  0  0  0  0  0  0
  -29.8383  -22.9259   14.8702 C   0  0  0  0  0  0  0  0  0  1  0  0
  -26.6523  -28.7756   20.6703 C   0  0  1  0  0  0  0  0  0  0  0  0
  -26.9092  -32.0458   18.7705 C   0  0  2  0  0  0  0  0  0  0  0  0
  -25.4879  -28.5264   21.6701 C   0  0  0  0  0  0  0  0  0  0  0  0
  -25.8956  -11.5685   20.8360 N   0  0  0  0  0  0  0  0  0  0  0  0
  -28.2560  -19.4809   15.8396 N   0  0  0  0  0  0  0  0  0  0  0  0
  -27.9394  -21.3682   17.3043 N   0  0  0  0  0  0  0  0  0  0  0  0
  -26.2335  -12.7769   20.3547 N   0  0  0  0  0  0  0  0  0  0  0  0
  -28.6795  -27.3646   20.5174 N   0  0  0  0  0  0  0  0  0  0  0  0
  -29.9471  -13.6776   20.2740 N   0  0  0  0  0  0  0  0  0  0  0  0
  -25.4053  -14.9673   19.9986 N   0  0  0  0  0  0  0  0  0  0  0  0
  -21.9072  -12.8249   21.8881 N   0  0  0  0  0  0  0  0  0  0  0  0
  -30.4668  -24.8730   22.4907 N   0  0  0  0  0  0  0  0  0  0  0  0
  -26.7994  -30.1677   20.2594 N   0  0  0  0  0  0  0  0  0  0  0  0
  -30.0713  -15.9790   20.8049 N   0  0  0  0  0  0  0  0  0  0  0  0
  -27.6132  -32.3460   17.4917 N   0  3  0  0  0  0  0  0  0  0  0  0
  -22.6170  -14.8251   21.0196 O   0  0  0  0  0  0  0  0  0  0  0  0
  -28.2771  -25.1632   21.7533 O   0  0  0  0  0  0  0  0  0  0  0  0
  -28.4121  -28.8947   22.2563 O   0  0  0  0  0  0  0  0  0  0  0  0
  -26.5465  -29.7897   17.9856 O   0  0  0  0  0  0  0  0  0  0  0  0
  -31.8133  -14.9435   19.7326 O   0  0  0  0  0  0  0  0  0  0  0  0
  -21.7974   -7.4988   23.5177 O   0  0  0  0  0  0  0  0  0  0  0  0
  -29.1586  -24.1035   15.3031 O   0  0  0  0  0  0  0  0  0  1  0  0
  -24.3742   -4.4483   27.3202 F   0  0  0  0  0  0  0  0  0  0  0  0
  -24.1196   -6.1305   22.9031 F   0  0  0  0  0  0  0  0  0  0  0  0
  1  2  1  0  0  0  0
  1  5  2  0  0  0  0
  2  6  2  0  0  0  0
  3  8  2  0  0  0  0
  3 15  1  0  0  0  0
  4  9  1  0  0  0  0
  4 15  2  0  0  0  0
  5 17  1  0  0  0  0
  6 19  1  0  0  0  0
  7 10  2  0  0  0  0
  7 18  1  0  0  0  0
  8 22  1  0  0  0  0
  9 22  2  0  0  0  0
 10 23  1  0  0  0  0
 11 12  2  0  0  0  0
 11 24  1  0  0  0  0
 12 25  1  0  0  0  0
 13 20  1  0  0  0  0
 13 23  2  0  0  0  0
 14 25  2  0  0  0  0
 14 26  1  0  0  0  0
 15 27  1  0  0  0  0
 16 27  1  0  0  0  0
 16 30  2  0  0  0  0
 16 32  1  0  0  0  0
 17 19  2  0  0  0  0
 17 37  1  0  0  0  0
 18 20  2  0  0  0  0
 18 38  1  0  0  0  0
 19 46  1  0  0  0  0
 20 39  1  0  0  0  0
 21 28  1  0  0  0  0
 21 29  2  0  0  0  0
 21 56  1  0  0  0  0
 22 83  1  0  0  0  0
 23 84  1  0  0  0  0
 24 26  2  0  0  0  0
 24 83  1  0  0  0  0
 25 85  1  0  0  0  0
 26 86  1  0  0  0  0
 27 66  2  0  0  0  0
 28 49  1  0  0  0  0
 28 67  2  0  0  0  0
 29 57  1  0  0  0  0
 29 68  1  0  0  0  0
 30 69  1  0  0  0  0
 30 72  1  0  0  0  0
 31 58  1  0  0  0  0
 31 67  1  0  0  0  0
 31 68  2  0  0  0  0
 32 73  1  0  0  0  0
 32 78  2  0  0  0  0
 33 47  1  0  0  0  0
 33 74  1  0  0  0  0
 33 79  2  0  0  0  0
 34 63  1  0  0  0  0
 34 70  1  0  0  0  0
 34 80  2  0  0  0  0
 35 64  1  0  0  0  0
 35 75  1  0  0  0  0
 35 81  2  0  0  0  0
 36 71  1  0  0  0  0
 36 76  1  0  0  0  0
 36 82  2  0  0  0  0
 37 40  1  0  0  0  0
 38 47  1  0  0  0  0
 39 70  1  0  0  0  0
 40 42  1  0  0  0  0
 41 43  1  0  0  0  0
 41 44  1  0  0  0  0
 42 46  1  0  0  0  0
 43 48  1  0  0  0  0
 44 71  1  0  0  0  0
 45 48  1  0  0  0  0
 45 71  1  0  0  0  0
 46 74  1  0  0  0  0
 47 70  1  0  0  0  0
 48 69  1  0  0  0  0
 50 57  1  0  0  0  0
 51 64  1  0  0  0  0
 52 65  1  0  0  0  0
 53 65  1  0  0  0  0
 54 65  1  0  0  0  0
 55 77  1  0  0  0  0
 56 59  1  0  0  0  0
 58 60  1  0  0  0  0
 59 61  1  0  0  0  0
 60 62  1  0  0  0  0
 61 76  1  0  0  0  0
 62 84  1  0  0  0  0
 63 65  1  0  0  0  0
 63 75  1  0  0  0  0
 64 77  1  0  0  0  0
 66 69  1  0  0  0  0
M  CHG  1  77   1
M  ISO  4  36 100  62 101  76 100  84 101
M  END
> <Batch ID>
0041

> <Smiles>
CCc1nc(CC[101CH2:1][101O:1]c2ccc3c(c2)CN(C(=O)C(NC(=O)C(C)NC)C(C)(C)C)C(C(=O)NC2CCCc4ccccc42)C3)nc(C)c1CCC[100NH:0][100C:0](=O)N1CCCC(n2nc(-c3ccc(Oc4ccc(F)cc4F)cc3)c(C(N)=O)c2N)C1

> <Shape>
0.264

> <Color>
0.147

> <Negative vol penalty>
0.000

$$$$

  -OEChem-04052317093D

 83 91  0     1  0  0  0  0  0999 V2000
  -25.8910  -16.9985   17.2525 C   0  0  0  0  0  0  0  0  0  0  0  0
  -25.3568  -18.2390   17.5824 C   0  0  0  0  0  0  0  0  0  0  0  0
  -24.7742  -14.5427   22.8499 C   0  0  0  0  0  0  0  0  0  0  0  0
  -25.2394  -15.4750   20.6701 C   0  0  0  0  0  0  0  0  0  0  0  0
  -27.1732  -16.6601   17.6800 C   0  0  0  0  0  0  0  0  0  0  0  0
  -26.1090  -19.1460   18.3296 C   0  0  0  0  0  0  0  0  0  0  0  0
  -24.2278  -23.6526   18.9261 C   0  0  0  0  0  0  0  0  0  0  0  0
  -25.0194  -13.2621   22.3545 C   0  0  0  0  0  0  0  0  0  0  0  0
  -25.4847  -14.1943   20.1747 C   0  0  0  0  0  0  0  0  0  0  0  0
  -23.1347  -23.9097   19.7523 C   0  0  0  0  0  0  0  0  0  0  0  0
  -25.1727   -9.7138   21.5737 C   0  0  0  0  0  0  0  0  0  0  0  0
  -24.2771   -8.7013   21.9175 C   0  0  0  0  0  0  0  0  0  0  0  0
  -24.6190  -24.8167   21.4237 C   0  0  0  0  0  0  0  0  0  0  0  0
  -22.4835   -9.9298   20.8634 C   0  0  0  0  0  0  0  0  0  0  0  0
  -24.8841  -15.6492   22.0077 C   0  0  0  0  0  0  0  0  0  0  0  0
  -25.5639  -17.8545   23.0949 C   0  0  0  0  0  0  0  0  0  0  0  0
  -27.9360  -17.5592   18.4434 C   0  0  0  0  0  0  0  0  0  0  0  0
  -25.5280  -23.9661   19.3476 C   0  0  0  0  0  0  0  0  0  0  0  0
  -27.4142  -18.8324   18.7500 C   0  0  0  0  0  0  0  0  0  0  0  0
  -25.7267  -24.5649   20.5998 C   0  0  0  0  0  0  0  0  0  0  0  0
  -19.1965  -26.2632   22.2851 C   0  0  0  0  0  0  0  0  0  0  0  0
  -25.3747  -13.0879   21.0170 C   0  0  0  0  0  0  0  0  0  0  0  0
  -23.3304  -24.4892   21.0025 C   0  0  0  0  0  0  0  0  0  0  0  0
  -24.7237  -10.8344   20.8747 C   0  0  0  0  0  0  0  0  0  0  0  0
  -22.9325   -8.8092   21.5624 C   0  0  0  0  0  0  0  0  0  0  0  0
  -23.3792  -10.9423   20.5196 C   0  0  0  0  0  0  0  0  0  0  0  0
  -24.6304  -16.9723   22.5186 C   0  0  0  0  0  0  0  0  0  0  0  0
  -18.7872  -27.5253   21.8146 C   0  0  0  0  0  0  0  0  0  0  0  0
  -20.3156  -26.5237   23.0376 C   0  0  0  0  0  0  0  0  0  0  0  0
  -24.8297  -18.9705   23.4146 C   0  0  0  0  0  0  0  0  0  0  0  0
  -26.9690  -17.6809   23.3211 C   0  0  0  0  0  0  0  0  0  0  0  0
  -28.1704  -22.2899   19.9062 C   0  0  0  0  0  0  0  0  0  0  0  0
  -29.4822  -25.2289   20.3106 C   0  0  0  0  0  0  0  0  0  0  0  0
  -29.0267  -28.5263   21.0634 C   0  0  0  0  0  0  0  0  0  0  0  0
  -19.8478  -21.1834   21.1476 C   0  0  0  0  0  0  0  0  0  0  0  0
  -29.3211  -17.1445   18.8731 C   0  0  0  0  0  0  0  0  0  0  0  0
  -26.6941  -23.7069   18.4336 C   0  0  0  0  0  0  0  0  0  0  0  0
  -27.1005  -24.9391   21.0909 C   0  0  0  0  0  0  0  0  0  0  0  0
  -29.8626  -17.9846   20.0252 C   0  0  0  0  0  0  0  0  0  0  0  0
  -20.3981  -20.3192   24.6185 C   0  0  0  0  0  0  0  0  0  0  0  0
  -29.6878  -19.4641   19.7166 C   0  0  0  0  0  0  0  0  0  0  0  0
  -21.6461  -19.4401   24.5189 C   0  0  0  0  0  0  0  0  0  0  0  0
  -19.4619  -20.0859   23.4365 C   0  0  0  0  0  0  0  0  0  0  0  0
  -21.3430  -19.3999   21.9997 C   0  0  0  0  0  0  0  0  0  0  0  0
  -28.2021  -19.8232   19.5878 C   0  0  1  0  0  0  0  0  0  0  0  0
  -28.0220  -23.5948   19.1762 C   0  0  1  0  0  0  0  0  0  0  0  0
  -22.3406  -19.6055   23.1542 C   0  0  2  0  0  0  0  0  0  0  0  0
  -17.6324  -27.8382   20.9544 C   0  0  0  0  0  0  0  0  0  0  0  0
  -30.2921  -30.6741   21.3519 C   0  0  0  0  0  0  0  0  0  0  0  0
  -30.4879  -24.2688   23.0266 C   0  0  0  0  0  0  0  0  0  0  0  0
  -30.8878  -26.6613   23.6463 C   0  0  0  0  0  0  0  0  0  0  0  0
  -32.1274  -25.6460   21.7344 C   0  0  0  0  0  0  0  0  0  0  0  0
  -21.5533  -28.6356   23.6064 C   0  0  0  0  0  0  0  0  0  0  0  0
  -27.5331  -29.8361   18.8697 C   0  0  0  0  0  0  0  0  0  0  0  0
  -18.5687  -24.9553   22.0295 C   0  0  0  0  0  0  0  0  0  0  0  0
  -21.2302  -25.6074   23.8136 C   0  0  0  0  0  0  0  0  0  0  0  0
  -18.8965  -24.3281   20.6514 C   0  0  0  0  0  0  0  0  0  0  0  0
  -18.2668  -22.9550   20.4273 C   0  0  0  0  0  0  0  0  0  0  0  0
  -22.5385  -25.3360   23.0790 C   0  0  0  0  0  0  0  0  0  1  0  0
  -29.6663  -26.1658   21.4799 C   0  0  1  0  0  0  0  0  0  0  0  0
  -29.5186  -29.7918   20.3844 C   0  0  2  0  0  0  0  0  0  0  0  0
  -30.7665  -25.6768   22.4637 C   0  0  0  0  0  0  0  0  0  0  0  0
  -23.3973  -17.4837   22.4736 N   0  0  0  0  0  0  0  0  0  0  0  0
  -19.5816  -28.5141   22.2333 N   0  0  0  0  0  0  0  0  0  0  0  0
  -20.5012  -27.8734   22.9748 N   0  0  0  0  0  0  0  0  0  0  0  0
  -23.5509  -18.6993   23.0257 N   0  0  0  0  0  0  0  0  0  0  0  0
  -28.2092  -24.6600   20.1633 N   0  0  0  0  0  0  0  0  0  0  0  0
  -20.1797  -20.2772   22.1684 N   0  0  0  0  0  0  0  0  0  0  0  0
  -25.1597  -20.1474   23.9876 N   0  0  0  0  0  0  0  0  0  0  0  0
  -27.5640  -16.4729   22.9323 N   0  0  0  0  0  0  0  0  0  0  0  0
  -28.0849  -21.1768   19.0918 N   0  0  0  0  0  0  0  0  0  0  0  0
  -29.9177  -27.4852   20.9103 N   0  0  0  0  0  0  0  0  0  0  0  0
  -18.7285  -21.9724   21.3825 N   0  0  0  0  0  0  0  0  0  0  0  0
  -28.3678  -30.5747   19.8518 N   0  3  0  0  0  0  0  0  0  0  0  0
  -27.6728  -18.5641   23.8671 O   0  0  0  0  0  0  0  0  0  0  0  0
  -28.3507  -22.2928   21.1183 O   0  0  0  0  0  0  0  0  0  0  0  0
  -30.4308  -25.0155   19.5515 O   0  0  0  0  0  0  0  0  0  0  0  0
  -27.9606  -28.4683   21.6721 O   0  0  0  0  0  0  0  0  0  0  0  0
  -20.5040  -21.2858   20.1054 O   0  0  0  0  0  0  0  0  0  0  0  0
  -25.6143  -11.8384   20.5333 O   0  0  0  0  0  0  0  0  0  0  0  0
  -22.2652  -24.7406   21.8112 O   0  0  0  0  0  0  0  0  0  1  0  0
  -22.0728   -7.8361   21.8913 F   0  0  0  0  0  0  0  0  0  0  0  0
  -22.9422  -12.0159   19.8470 F   0  0  0  0  0  0  0  0  0  0  0  0
  1  2  1  0  0  0  0
  1  5  2  0  0  0  0
  2  6  2  0  0  0  0
  3  8  2  0  0  0  0
  3 15  1  0  0  0  0
  4  9  1  0  0  0  0
  4 15  2  0  0  0  0
  5 17  1  0  0  0  0
  6 19  1  0  0  0  0
  7 10  2  0  0  0  0
  7 18  1  0  0  0  0
  8 22  1  0  0  0  0
  9 22  2  0  0  0  0
 10 23  1  0  0  0  0
 11 12  2  0  0  0  0
 11 24  1  0  0  0  0
 12 25  1  0  0  0  0
 13 20  1  0  0  0  0
 13 23  2  0  0  0  0
 14 25  2  0  0  0  0
 14 26  1  0  0  0  0
 15 27  1  0  0  0  0
 16 27  1  0  0  0  0
 16 30  2  0  0  0  0
 16 31  1  0  0  0  0
 17 19  2  0  0  0  0
 17 36  1  0  0  0  0
 18 20  2  0  0  0  0
 18 37  1  0  0  0  0
 19 45  1  0  0  0  0
 20 38  1  0  0  0  0
 21 28  1  0  0  0  0
 21 29  2  0  0  0  0
 21 55  1  0  0  0  0
 22 80  1  0  0  0  0
 23 81  1  0  0  0  0
 24 26  2  0  0  0  0
 24 80  1  0  0  0  0
 25 82  1  0  0  0  0
 26 83  1  0  0  0  0
 27 63  2  0  0  0  0
 28 48  1  0  0  0  0
 28 64  2  0  0  0  0
 29 56  1  0  0  0  0
 29 65  1  0  0  0  0
 30 66  1  0  0  0  0
 30 69  1  0  0  0  0
 31 70  1  0  0  0  0
 31 75  2  0  0  0  0
 32 46  1  0  0  0  0
 32 71  1  0  0  0  0
 32 76  2  0  0  0  0
 33 60  1  0  0  0  0
 33 67  1  0  0  0  0
 33 77  2  0  0  0  0
 34 61  1  0  0  0  0
 34 72  1  0  0  0  0
 34 78  2  0  0  0  0
 35 68  1  0  0  0  0
 35 73  1  0  0  0  0
 35 79  2  0  0  0  0
 36 39  1  0  0  0  0
 37 46  1  0  0  0  0
 38 67  1  0  0  0  0
 39 41  1  0  0  0  0
 40 42  1  0  0  0  0
 40 43  1  0  0  0  0
 41 45  1  0  0  0  0
 42 47  1  0  0  0  0
 43 68  1  0  0  0  0
 44 47  1  0  0  0  0
 44 68  1  0  0  0  0
 45 71  1  0  0  0  0
 46 67  1  0  0  0  0
 47 66  1  0  0  0  0
 49 61  1  0  0  0  0
 50 62  1  0  0  0  0
 51 62  1  0  0  0  0
 52 62  1  0  0  0  0
 53 65  1  0  0  0  0
 54 74  1  0  0  0  0
 55 57  1  0  0  0  0
 56 59  1  0  0  0  0
 57 58  1  0  0  0  0
 58 73  1  0  0  0  0
 59 81  1  0  0  0  0
 60 62  1  0  0  0  0
 60 72  1  0  0  0  0
 61 74  1  0  0  0  0
 63 66  1  0  0  0  0
 64 65  1  0  0  0  0
M  CHG  1  74   1
M  ISO  4  35 100  59 101  73 100  81 101
M  END
> <Batch ID>
0041

> <Smiles>
CNC(C)C(=O)NC(C(=O)N1Cc2cc([101O:1][101CH2:1]Cc3c(CCC[100NH:0][100C:0](=O)N4CCCC(n5nc(-c6ccc(Oc7ccc(F)cc7F)cc6)c(C(N)=O)c5N)C4)c(C)nn3C)ccc2CC1C(=O)NC1CCCc2ccccc21)C(C)(C)C

> <Shape>
0.198

> <Color>
0.058

> <Negative vol penalty>
0.000

$$$$

  -OEChem-04052317093D

 83 91  0     1  0  0  0  0  0999 V2000
  -22.2437  -12.1383   18.4364 C   0  0  0  0  0  0  0  0  0  0  0  0
  -21.9496  -13.4288   18.8648 C   0  0  0  0  0  0  0  0  0  0  0  0
  -29.9903  -26.3156   19.8653 C   0  0  0  0  0  0  0  0  0  0  0  0
  -29.5708  -26.0944   22.2343 C   0  0  0  0  0  0  0  0  0  0  0  0
  -23.4082  -11.5084   18.8735 C   0  0  0  0  0  0  0  0  0  0  0  0
  -22.8194  -14.0898   19.7314 C   0  0  0  0  0  0  0  0  0  0  0  0
  -24.0599  -20.0861   19.8367 C   0  0  0  0  0  0  0  0  0  0  0  0
  -31.3483  -26.0843   20.0841 C   0  0  0  0  0  0  0  0  0  0  0  0
  -30.9288  -25.8631   22.4531 C   0  0  0  0  0  0  0  0  0  0  0  0
  -23.5804  -21.1294   20.6276 C   0  0  0  0  0  0  0  0  0  0  0  0
  -34.3376  -25.5712   23.6798 C   0  0  0  0  0  0  0  0  0  0  0  0
  -34.9462  -26.2397   24.7420 C   0  0  0  0  0  0  0  0  0  0  0  0
  -25.4888  -20.8940   22.0843 C   0  0  0  0  0  0  0  0  0  0  0  0
  -34.3737  -28.3602   23.7355 C   0  0  0  0  0  0  0  0  0  0  0  0
  -20.5928  -25.6473   22.5641 C   0  0  0  0  0  0  0  0  0  0  0  0
  -29.1015  -26.3207   20.9404 C   0  0  0  0  0  0  0  0  0  0  0  0
  -26.7043  -25.5998   20.4494 C   0  0  0  0  0  0  0  0  0  0  0  0
  -24.2975  -12.1656   19.7383 C   0  0  0  0  0  0  0  0  0  0  0  0
  -25.2538  -19.4306   20.1704 C   0  0  0  0  0  0  0  0  0  0  0  0
  -23.9962  -13.4675   20.1815 C   0  0  0  0  0  0  0  0  0  0  0  0
  -25.9825  -19.8444   21.2946 C   0  0  0  0  0  0  0  0  0  0  0  0
  -31.8176  -25.8580   21.3780 C   0  0  0  0  0  0  0  0  0  0  0  0
  -24.2934  -21.5316   21.7532 C   0  0  0  0  0  0  0  0  0  0  0  0
  -33.7471  -26.2972   22.6454 C   0  0  0  0  0  0  0  0  0  0  0  0
  -34.9643  -27.6342   24.7699 C   0  0  0  0  0  0  0  0  0  0  0  0
  -33.7651  -27.6916   22.6733 C   0  0  0  0  0  0  0  0  0  0  0  0
  -27.6987  -26.5602   20.7150 C   0  0  0  0  0  0  0  0  0  0  0  0
  -19.9540  -24.5395   23.1527 C   0  0  0  0  0  0  0  0  0  0  0  0
  -19.6281  -26.2183   21.7704 C   0  0  0  0  0  0  0  0  0  0  0  0
  -25.5490  -26.3301   20.3139 C   0  0  0  0  0  0  0  0  0  0  0  0
  -26.8149  -24.1748   20.3355 C   0  0  0  0  0  0  0  0  0  0  0  0
  -26.0324  -16.4513   20.9587 C   0  0  0  0  0  0  0  0  0  0  0  0
  -29.0557  -17.6182   20.8172 C   0  0  0  0  0  0  0  0  0  0  0  0
  -31.1280  -20.3240   20.9921 C   0  0  0  0  0  0  0  0  0  0  0  0
  -22.1295  -30.3922   22.0320 C   0  0  0  0  0  0  0  0  0  0  0  0
  -25.5202  -11.4262   20.2212 C   0  0  0  0  0  0  0  0  0  0  0  0
  -25.7712  -18.3247   19.2920 C   0  0  0  0  0  0  0  0  0  0  0  0
  -27.2802  -19.1867   21.6846 C   0  0  0  0  0  0  0  0  0  0  0  0
  -26.5768  -12.3365   20.8419 C   0  0  0  0  0  0  0  0  0  0  0  0
  -24.8376  -31.3223   19.9158 C   0  0  0  0  0  0  0  0  0  0  0  0
  -25.9315  -13.3154   21.8177 C   0  0  0  0  0  0  0  0  0  0  0  0
  -25.7438  -30.0899   19.9184 C   0  0  0  0  0  0  0  0  0  0  0  0
  -24.1874  -31.5476   21.2791 C   0  0  0  0  0  0  0  0  0  0  0  0
  -24.3678  -29.1503   21.8217 C   0  0  0  0  0  0  0  0  0  0  0  0
  -24.9272  -14.2267   21.1019 C   0  0  1  0  0  0  0  0  0  0  0  0
  -26.7333  -17.3875   20.0154 C   0  0  1  0  0  0  0  0  0  0  0  0
  -25.0023  -28.8498   20.4530 C   0  0  2  0  0  0  0  0  0  0  0  0
  -33.5531  -20.9588   20.8755 C   0  0  0  0  0  0  0  0  0  0  0  0
  -29.4732  -16.5323   23.6379 C   0  0  0  0  0  0  0  0  0  0  0  0
  -31.5027  -17.9867   23.8223 C   0  0  0  0  0  0  0  0  0  0  0  0
  -31.4094  -16.1922   22.0920 C   0  0  0  0  0  0  0  0  0  0  0  0
  -17.2289  -25.6423   21.2946 C   0  0  0  0  0  0  0  0  0  0  0  0
  -30.6808  -22.0562   18.6345 C   0  0  0  0  0  0  0  0  0  0  0  0
  -20.5451  -23.5447   24.1193 C   0  0  0  0  0  0  0  0  0  0  0  0
  -19.6706  -27.4049   20.8964 C   0  0  0  0  0  0  0  0  0  0  0  0
  -22.0489  -23.3276   23.9370 C   0  0  0  0  0  0  0  0  0  0  0  0
  -19.2826  -28.7380   21.5823 C   0  0  0  0  0  0  0  0  0  0  0  0
  -20.1526  -29.0950   22.7856 C   0  0  0  0  0  0  0  0  0  0  0  0
  -22.4125  -22.7263   22.5843 C   0  0  0  0  0  0  0  0  0  1  0  0
  -29.9975  -18.2693   21.8010 C   0  0  1  0  0  0  0  0  0  0  0  0
  -32.2608  -20.7851   20.0928 C   0  0  2  0  0  0  0  0  0  0  0  0
  -30.5703  -17.2564   22.8323 C   0  0  0  0  0  0  0  0  0  0  0  0
  -27.2173  -27.8057   20.7465 N   0  0  0  0  0  0  0  0  0  0  0  0
  -18.6818  -24.4125   22.7661 N   0  0  0  0  0  0  0  0  0  0  0  0
  -18.5134  -25.4479   21.9261 N   0  0  0  0  0  0  0  0  0  0  0  0
  -25.9077  -27.6329   20.4989 N   0  0  0  0  0  0  0  0  0  0  0  0
  -27.7414  -18.1061   20.7975 N   0  0  0  0  0  0  0  0  0  0  0  0
  -23.4997  -30.3346   21.7282 N   0  0  0  0  0  0  0  0  0  0  0  0
  -24.2714  -25.9786   20.0556 N   0  0  0  0  0  0  0  0  0  0  0  0
  -28.0762  -23.5871   20.5033 N   0  0  0  0  0  0  0  0  0  0  0  0
  -25.6196  -15.2689   20.3747 N   0  0  0  0  0  0  0  0  0  0  0  0
  -31.0129  -18.9501   21.0049 N   0  0  0  0  0  0  0  0  0  0  0  0
  -21.5539  -29.1966   22.4441 N   0  0  0  0  0  0  0  0  0  0  0  0
  -31.9186  -22.0880   19.4554 N   0  3  0  0  0  0  0  0  0  0  0  0
  -25.8276  -23.4459   20.0760 O   0  0  0  0  0  0  0  0  0  0  0  0
  -25.8787  -16.7769   22.1301 O   0  0  0  0  0  0  0  0  0  0  0  0
  -29.4727  -16.7150   20.0878 O   0  0  0  0  0  0  0  0  0  0  0  0
  -30.4188  -21.1045   21.6234 O   0  0  0  0  0  0  0  0  0  0  0  0
  -21.4670  -31.4310   21.9374 O   0  0  0  0  0  0  0  0  0  0  0  0
  -33.1426  -25.6320   21.5919 O   0  0  0  0  0  0  0  0  0  0  0  0
  -23.8274  -22.5492   22.5272 O   0  0  0  0  0  0  0  0  0  1  0  0
  -35.5474  -28.2760   25.7908 F   0  0  0  0  0  0  0  0  0  0  0  0
  -33.1985  -28.3945   21.6830 F   0  0  0  0  0  0  0  0  0  0  0  0
  1  2  1  0  0  0  0
  1  5  2  0  0  0  0
  2  6  2  0  0  0  0
  3  8  2  0  0  0  0
  3 16  1  0  0  0  0
  4  9  1  0  0  0  0
  4 16  2  0  0  0  0
  5 18  1  0  0  0  0
  6 20  1  0  0  0  0
  7 10  2  0  0  0  0
  7 19  1  0  0  0  0
  8 22  1  0  0  0  0
  9 22  2  0  0  0  0
 10 23  1  0  0  0  0
 11 12  2  0  0  0  0
 11 24  1  0  0  0  0
 12 25  1  0  0  0  0
 13 21  1  0  0  0  0
 13 23  2  0  0  0  0
 14 25  2  0  0  0  0
 14 26  1  0  0  0  0
 15 28  1  0  0  0  0
 15 29  2  0  0  0  0
 16 27  1  0  0  0  0
 17 27  1  0  0  0  0
 17 30  2  0  0  0  0
 17 31  1  0  0  0  0
 18 20  2  0  0  0  0
 18 36  1  0  0  0  0
 19 21  2  0  0  0  0
 19 37  1  0  0  0  0
 20 45  1  0  0  0  0
 21 38  1  0  0  0  0
 22 80  1  0  0  0  0
 23 81  1  0  0  0  0
 24 26  2  0  0  0  0
 24 80  1  0  0  0  0
 25 82  1  0  0  0  0
 26 83  1  0  0  0  0
 27 63  2  0  0  0  0
 28 54  1  0  0  0  0
 28 64  2  0  0  0  0
 29 55  1  0  0  0  0
 29 65  1  0  0  0  0
 30 66  1  0  0  0  0
 30 69  1  0  0  0  0
 31 70  1  0  0  0  0
 31 75  2  0  0  0  0
 32 46  1  0  0  0  0
 32 71  1  0  0  0  0
 32 76  2  0  0  0  0
 33 60  1  0  0  0  0
 33 67  1  0  0  0  0
 33 77  2  0  0  0  0
 34 61  1  0  0  0  0
 34 72  1  0  0  0  0
 34 78  2  0  0  0  0
 35 68  1  0  0  0  0
 35 73  1  0  0  0  0
 35 79  2  0  0  0  0
 36 39  1  0  0  0  0
 37 46  1  0  0  0  0
 38 67  1  0  0  0  0
 39 41  1  0  0  0  0
 40 42  1  0  0  0  0
 40 43  1  0  0  0  0
 41 45  1  0  0  0  0
 42 47  1  0  0  0  0
 43 68  1  0  0  0  0
 44 47  1  0  0  0  0
 44 68  1  0  0  0  0
 45 71  1  0  0  0  0
 46 67  1  0  0  0  0
 47 66  1  0  0  0  0
 48 61  1  0  0  0  0
 49 62  1  0  0  0  0
 50 62  1  0  0  0  0
 51 62  1  0  0  0  0
 52 65  1  0  0  0  0
 53 74  1  0  0  0  0
 54 56  1  0  0  0  0
 55 57  1  0  0  0  0
 56 59  1  0  0  0  0
 57 58  1  0  0  0  0
 58 73  1  0  0  0  0
 59 81  1  0  0  0  0
 60 62  1  0  0  0  0
 60 72  1  0  0  0  0
 61 74  1  0  0  0  0
 63 66  1  0  0  0  0
 64 65  1  0  0  0  0
M  CHG  1  74   1
M  ISO  4  35 100  59 101  73 100  81 101
M  END
> <Batch ID>
0041

> <Smiles>
CNC(C)C(=O)NC(C(=O)N1Cc2cc([101O:1][101CH2:1]CCc3cc(CCC[100NH:0][100C:0](=O)N4CCCC(n5nc(-c6ccc(Oc7ccc(F)cc7F)cc6)c(C(N)=O)c5N)C4)n(C)n3)ccc2CC1C(=O)NC1CCCc2ccccc21)C(C)(C)C

> <Shape>
0.215

> <Color>
0.081

> <Negative vol penalty>
0.000

$$$$

  -OEChem-04052317093D

 86 94  0     1  0  0  0  0  0999 V2000
  -18.0281  -24.8094   21.6122 C   0  0  0  0  0  0  0  0  0  0  0  0
  -19.3856  -24.6237   21.3710 C   0  0  0  0  0  0  0  0  0  0  0  0
  -26.4771  -13.2699   21.4983 C   0  0  0  0  0  0  0  0  0  0  0  0
  -24.8497  -13.2051   19.7138 C   0  0  0  0  0  0  0  0  0  0  0  0
  -17.5772  -26.0065   22.1668 C   0  0  0  0  0  0  0  0  0  0  0  0
  -20.2929  -25.6355   21.6833 C   0  0  0  0  0  0  0  0  0  0  0  0
  -24.4179  -23.8857   24.0429 C   0  0  0  0  0  0  0  0  0  0  0  0
  -26.3784  -11.8857   21.6386 C   0  0  0  0  0  0  0  0  0  0  0  0
  -24.7511  -11.8208   19.8540 C   0  0  0  0  0  0  0  0  0  0  0  0
  -25.3885  -23.2685   23.2550 C   0  0  0  0  0  0  0  0  0  0  0  0
  -23.8024   -8.3147   19.9832 C   0  0  0  0  0  0  0  0  0  0  0  0
  -22.5259   -7.7524   19.9835 C   0  0  0  0  0  0  0  0  0  0  0  0
  -26.6896  -25.2996   23.2773 C   0  0  0  0  0  0  0  0  0  0  0  0
  -28.9121  -24.5922   19.3552 C   0  0  0  0  0  0  0  0  0  0  0  0
  -21.9479   -9.0656   21.9273 C   0  0  0  0  0  0  0  0  0  0  0  0
  -27.7483  -26.0931   17.9236 C   0  0  0  0  0  0  0  0  0  0  0  0
  -25.7126  -13.9297   20.5359 C   0  0  0  0  0  0  0  0  0  0  0  0
  -26.6990  -16.0692   19.5575 C   0  0  0  0  0  0  0  0  0  0  0  0
  -18.4805  -27.0297   22.4949 C   0  0  0  0  0  0  0  0  0  0  0  0
  -24.5710  -25.2202   24.4455 C   0  0  0  0  0  0  0  0  0  0  0  0
  -19.8535  -26.8479   22.2416 C   0  0  0  0  0  0  0  0  0  0  0  0
  -25.7208  -25.9307   24.0724 C   0  0  0  0  0  0  0  0  0  0  0  0
  -28.8666  -25.8137   18.6925 C   0  0  0  0  0  0  0  0  0  0  0  0
  -27.8530  -23.7000   19.2304 C   0  0  0  0  0  0  0  0  0  0  0  0
  -25.5154  -11.1611   20.8164 C   0  0  0  0  0  0  0  0  0  0  0  0
  -26.5231  -23.9763   22.8696 C   0  0  0  0  0  0  0  0  0  0  0  0
  -24.1517   -9.2524   20.9550 C   0  0  0  0  0  0  0  0  0  0  0  0
  -21.5987   -8.1278   20.9555 C   0  0  0  0  0  0  0  0  0  0  0  0
  -23.2244   -9.6279   21.9270 C   0  0  0  0  0  0  0  0  0  0  0  0
  -25.8137  -15.3597   20.3909 C   0  0  0  0  0  0  0  0  0  0  0  0
  -26.7800  -24.0741   18.4376 C   0  0  0  0  0  0  0  0  0  0  0  0
  -26.3982  -17.3903   19.7826 C   0  0  0  0  0  0  0  0  0  0  0  0
  -27.7034  -15.5780   18.6600 C   0  0  0  0  0  0  0  0  0  0  0  0
  -22.9454  -27.9089   23.9642 C   0  0  0  0  0  0  0  0  0  0  0  0
  -25.0817  -29.1208   26.0831 C   0  0  0  0  0  0  0  0  0  0  0  0
  -28.1553  -28.8947   27.5488 C   0  0  0  0  0  0  0  0  0  0  0  0
  -22.6675  -21.4860   20.4549 C   0  0  0  0  0  0  0  0  0  0  0  0
  -17.9407  -28.3246   23.0487 C   0  0  0  0  0  0  0  0  0  0  0  0
  -23.5277  -25.8632   25.3176 C   0  0  0  0  0  0  0  0  0  0  0  0
  -25.9424  -27.3591   24.4953 C   0  0  0  0  0  0  0  0  0  0  0  0
  -19.0083  -29.2014   23.6981 C   0  0  0  0  0  0  0  0  0  0  0  0
  -23.5035  -19.5505   23.3239 C   0  0  0  0  0  0  0  0  0  0  0  0
  -20.2402  -29.2934   22.8033 C   0  0  0  0  0  0  0  0  0  0  0  0
  -24.2461  -18.3438   22.7474 C   0  0  0  0  0  0  0  0  0  0  0  0
  -22.3631  -19.9993   22.4128 C   0  0  0  0  0  0  0  0  0  0  0  0
  -23.4965  -19.0552   20.4386 C   0  0  0  0  0  0  0  0  0  0  0  0
  -20.8713  -27.9123   22.5897 C   0  0  1  0  0  0  0  0  0  0  0  0
  -23.5412  -27.3867   25.2409 C   0  0  1  0  0  0  0  0  0  0  0  0
  -24.6908  -18.6006   21.2949 C   0  0  2  0  0  0  0  0  0  0  0  0
  -29.6329  -30.0510   29.2153 C   0  0  0  0  0  0  0  0  0  0  0  0
  -25.7092  -31.2826   24.0232 C   0  0  0  0  0  0  0  0  0  0  0  0
  -27.7941  -31.8034   25.3076 C   0  0  0  0  0  0  0  0  0  0  0  0
  -25.5625  -32.1004   26.3820 C   0  0  0  0  0  0  0  0  0  0  0  0
  -28.2311  -26.5151   29.3068 C   0  0  0  0  0  0  0  0  0  0  0  0
  -27.8968  -22.3715   19.9456 C   0  0  0  0  0  0  0  0  0  0  0  0
  -25.6138  -23.1561   18.2677 C   0  0  0  0  0  0  0  0  0  0  0  0
  -24.2557  -23.7771   18.6460 C   0  0  0  0  0  0  0  0  0  0  0  0
  -23.0584  -22.8558   18.4226 C   0  0  0  0  0  0  0  0  0  0  0  0
  -27.0310  -22.3599   21.2008 C   0  0  0  0  0  0  0  0  0  1  0  0
  -26.4430  -29.7650   25.9788 C   0  0  1  0  0  0  0  0  0  0  0  0
  -28.5859  -28.9687   29.0026 C   0  0  2  0  0  0  0  0  0  0  0  0
  -29.9826  -26.7902   18.8060 C   0  0  0  0  0  0  0  0  0  0  0  0
  -26.3724  -31.2115   25.4132 C   0  0  0  0  0  0  0  0  0  0  0  0
  -26.7001  -25.2517   17.7785 N   0  0  0  0  0  0  0  0  0  0  0  0
  -25.0108  -16.1635   21.0932 N   0  0  0  0  0  0  0  0  0  0  0  0
  -25.3905  -17.3917   20.7017 N   0  0  0  0  0  0  0  0  0  0  0  0
  -24.8908  -27.9459   25.3423 N   0  0  0  0  0  0  0  0  0  0  0  0
  -22.8517  -20.2275   21.0508 N   0  0  0  0  0  0  0  0  0  0  0  0
  -26.9001  -18.5392   19.2822 N   0  0  0  0  0  0  0  0  0  0  0  0
  -27.8808  -14.1921   18.5496 N   0  0  0  0  0  0  0  0  0  0  0  0
  -21.6360  -27.5204   23.7542 N   0  0  0  0  0  0  0  0  0  0  0  0
  -27.0419  -29.6708   27.3058 N   0  0  0  0  0  0  0  0  0  0  0  0
  -23.1660  -21.6195   19.1648 N   0  0  0  0  0  0  0  0  0  0  0  0
  -29.1618  -27.6654   29.4393 N   0  3  0  0  0  0  0  0  0  0  0  0
  -28.4335  -16.3457   17.9884 O   0  0  0  0  0  0  0  0  0  0  0  0
  -23.6229  -28.6134   23.2251 O   0  0  0  0  0  0  0  0  0  0  0  0
  -24.2218  -29.6371   26.8012 O   0  0  0  0  0  0  0  0  0  0  0  0
  -28.7497  -28.2191   26.7116 O   0  0  0  0  0  0  0  0  0  0  0  0
  -22.1055  -22.4231   21.0319 O   0  0  0  0  0  0  0  0  0  0  0  0
  -25.4191   -9.8103   20.9529 O   0  0  0  0  0  0  0  0  0  0  0  0
  -27.4717  -23.3765   22.1000 O   0  0  0  0  0  0  0  0  0  1  0  0
  -20.3724   -7.5889   20.9548 F   0  0  0  0  0  0  0  0  0  0  0  0
  -23.5538  -10.5292   22.8624 F   0  0  0  0  0  0  0  0  0  0  0  0
  -31.0098  -26.3638   19.6019 F   0  0  0  0  0  0  0  0  0  0  0  0
  -30.5687  -27.0985   17.6095 F   0  0  0  0  0  0  0  0  0  0  0  0
  -29.5872  -27.9866   19.3348 F   0  0  0  0  0  0  0  0  0  0  0  0
  1  2  1  0  0  0  0
  1  5  2  0  0  0  0
  2  6  2  0  0  0  0
  3  8  2  0  0  0  0
  3 17  1  0  0  0  0
  4  9  1  0  0  0  0
  4 17  2  0  0  0  0
  5 19  1  0  0  0  0
  6 21  1  0  0  0  0
  7 10  2  0  0  0  0
  7 20  1  0  0  0  0
  8 25  1  0  0  0  0
  9 25  2  0  0  0  0
 10 26  1  0  0  0  0
 11 12  2  0  0  0  0
 11 27  1  0  0  0  0
 12 28  1  0  0  0  0
 13 22  1  0  0  0  0
 13 26  2  0  0  0  0
 14 23  2  0  0  0  0
 14 24  1  0  0  0  0
 15 28  2  0  0  0  0
 15 29  1  0  0  0  0
 16 23  1  0  0  0  0
 16 64  2  0  0  0  0
 17 30  1  0  0  0  0
 18 30  1  0  0  0  0
 18 32  2  0  0  0  0
 18 33  1  0  0  0  0
 19 21  2  0  0  0  0
 19 38  1  0  0  0  0
 20 22  2  0  0  0  0
 20 39  1  0  0  0  0
 21 47  1  0  0  0  0
 22 40  1  0  0  0  0
 23 62  1  0  0  0  0
 24 31  2  0  0  0  0
 24 55  1  0  0  0  0
 25 80  1  0  0  0  0
 26 81  1  0  0  0  0
 27 29  2  0  0  0  0
 27 80  1  0  0  0  0
 28 82  1  0  0  0  0
 29 83  1  0  0  0  0
 30 65  2  0  0  0  0
 31 56  1  0  0  0  0
 31 64  1  0  0  0  0
 32 66  1  0  0  0  0
 32 69  1  0  0  0  0
 33 70  1  0  0  0  0
 33 75  2  0  0  0  0
 34 48  1  0  0  0  0
 34 71  1  0  0  0  0
 34 76  2  0  0  0  0
 35 60  1  0  0  0  0
 35 67  1  0  0  0  0
 35 77  2  0  0  0  0
 36 61  1  0  0  0  0
 36 72  1  0  0  0  0
 36 78  2  0  0  0  0
 37 68  1  0  0  0  0
 37 73  1  0  0  0  0
 37 79  2  0  0  0  0
 38 41  1  0  0  0  0
 39 48  1  0  0  0  0
 40 67  1  0  0  0  0
 41 43  1  0  0  0  0
 42 44  1  0  0  0  0
 42 45  1  0  0  0  0
 43 47  1  0  0  0  0
 44 49  1  0  0  0  0
 45 68  1  0  0  0  0
 46 49  1  0  0  0  0
 46 68  1  0  0  0  0
 47 71  1  0  0  0  0
 48 67  1  0  0  0  0
 49 66  1  0  0  0  0
 50 61  1  0  0  0  0
 51 63  1  0  0  0  0
 52 63  1  0  0  0  0
 53 63  1  0  0  0  0
 54 74  1  0  0  0  0
 55 59  1  0  0  0  0
 56 57  1  0  0  0  0
 57 58  1  0  0  0  0
 58 73  1  0  0  0  0
 59 81  1  0  0  0  0
 60 63  1  0  0  0  0
 60 72  1  0  0  0  0
 61 74  1  0  0  0  0
 62 84  1  0  0  0  0
 62 85  1  0  0  0  0
 62 86  1  0  0  0  0
 65 66  1  0  0  0  0
M  CHG  1  74   1
M  ISO  4  37 100  59 101  73 100  81 101
M  END
> <Batch ID>
0041

> <Smiles>
CNC(C)C(=O)NC(C(=O)N1Cc2cc([101O:1][101CH2:1]Cc3cc(C(F)(F)F)cnc3CCC[100NH:0][100C:0](=O)N3CCCC(n4nc(-c5ccc(Oc6ccc(F)cc6F)cc5)c(C(N)=O)c4N)C3)ccc2CC1C(=O)NC1CCCc2ccccc21)C(C)(C)C

> <Shape>
0.213

> <Color>
0.086

> <Negative vol penalty>
0.000

$$$$

  -OEChem-04052317093D

 83 91  0     1  0  0  0  0  0999 V2000
  -16.4395  -28.5151   22.8219 C   0  0  0  0  0  0  0  0  0  0  0  0
  -17.4019  -28.0326   21.9408 C   0  0  0  0  0  0  0  0  0  0  0  0
  -24.4356  -14.0346   23.1820 C   0  0  0  0  0  0  0  0  0  0  0  0
  -26.6451  -14.2476   22.2282 C   0  0  0  0  0  0  0  0  0  0  0  0
  -16.7681  -29.5227   23.7279 C   0  0  0  0  0  0  0  0  0  0  0  0
  -18.6932  -28.5582   21.9644 C   0  0  0  0  0  0  0  0  0  0  0  0
  -23.9158  -25.5414   20.9013 C   0  0  0  0  0  0  0  0  0  0  0  0
  -24.1178  -13.0662   22.2298 C   0  0  0  0  0  0  0  0  0  0  0  0
  -26.3273  -13.2791   21.2759 C   0  0  0  0  0  0  0  0  0  0  0  0
  -24.7225  -25.4327   19.7694 C   0  0  0  0  0  0  0  0  0  0  0  0
  -22.8466  -10.2778   20.2744 C   0  0  0  0  0  0  0  0  0  0  0  0
  -22.1908   -9.1276   20.7131 C   0  0  0  0  0  0  0  0  0  0  0  0
  -26.1288  -27.2037   20.6091 C   0  0  0  0  0  0  0  0  0  0  0  0
  -24.0506   -8.6230   22.1703 C   0  0  0  0  0  0  0  0  0  0  0  0
  -29.3246  -24.0474   20.6170 C   0  0  0  0  0  0  0  0  0  0  0  0
  -25.6992  -14.6254   23.1812 C   0  0  0  0  0  0  0  0  0  0  0  0
  -26.5969  -15.4155   25.4346 C   0  0  0  0  0  0  0  0  0  0  0  0
  -18.0667  -30.0541   23.7692 C   0  0  0  0  0  0  0  0  0  0  0  0
  -24.2037  -26.4911   21.8921 C   0  0  0  0  0  0  0  0  0  0  0  0
  -19.0391  -29.5747   22.8709 C   0  0  0  0  0  0  0  0  0  0  0  0
  -25.3257  -27.3207   21.7538 C   0  0  0  0  0  0  0  0  0  0  0  0
  -29.3986  -22.7952   21.1766 C   0  0  0  0  0  0  0  0  0  0  0  0
  -25.0636  -12.6884   21.2768 C   0  0  0  0  0  0  0  0  0  0  0  0
  -25.8276  -26.2659   19.6218 C   0  0  0  0  0  0  0  0  0  0  0  0
  -24.1045  -10.6006   20.7836 C   0  0  0  0  0  0  0  0  0  0  0  0
  -22.7928   -8.3002   21.6611 C   0  0  0  0  0  0  0  0  0  0  0  0
  -24.7065   -9.7732   21.7316 C   0  0  0  0  0  0  0  0  0  0  0  0
  -26.0279  -15.6262   24.1643 C   0  0  0  0  0  0  0  0  0  0  0  0
  -29.4333  -21.9190   20.0753 C   0  0  0  0  0  0  0  0  0  0  0  0
  -26.7092  -16.6738   25.9735 C   0  0  0  0  0  0  0  0  0  0  0  0
  -26.9888  -14.1917   26.0705 C   0  0  0  0  0  0  0  0  0  0  0  0
  -22.6843  -29.0120   23.0921 C   0  0  0  0  0  0  0  0  0  0  0  0
  -25.1755  -29.0350   25.1695 C   0  0  0  0  0  0  0  0  0  0  0  0
  -28.4127  -28.1728   25.8210 C   0  0  0  0  0  0  0  0  0  0  0  0
  -27.1565  -22.1265   23.5405 C   0  0  0  0  0  0  0  0  0  0  0  0
  -18.3620  -31.1752   24.7338 C   0  0  0  0  0  0  0  0  0  0  0  0
  -23.3390  -26.5775   23.1198 C   0  0  0  0  0  0  0  0  0  0  0  0
  -25.6897  -28.3428   22.7985 C   0  0  0  0  0  0  0  0  0  0  0  0
  -19.8538  -31.4167   24.9488 C   0  0  0  0  0  0  0  0  0  0  0  0
  -24.6757  -21.0023   25.8336 C   0  0  0  0  0  0  0  0  0  0  0  0
  -20.5882  -31.4447   23.6121 C   0  0  0  0  0  0  0  0  0  0  0  0
  -24.7923  -19.4780   25.7805 C   0  0  0  0  0  0  0  0  0  0  0  0
  -24.9110  -21.6345   24.4636 C   0  0  0  0  0  0  0  0  0  0  0  0
  -26.2900  -19.7183   23.7561 C   0  0  0  0  0  0  0  0  0  0  0  0
  -20.4575  -30.1021   22.8827 C   0  0  1  0  0  0  0  0  0  0  0  0
  -23.4298  -27.9296   23.8205 C   0  0  1  0  0  0  0  0  0  0  0  0
  -26.1158  -19.0394   25.1255 C   0  0  2  0  0  0  0  0  0  0  0  0
  -28.2496  -18.2565   19.7757 C   0  0  0  0  0  0  0  0  0  0  0  0
  -30.1837  -28.3610   27.5889 C   0  0  0  0  0  0  0  0  0  0  0  0
  -25.6184  -31.9572   24.4114 C   0  0  0  0  0  0  0  0  0  0  0  0
  -27.8962  -31.8062   25.4397 C   0  0  0  0  0  0  0  0  0  0  0  0
  -25.8676  -31.4628   26.8503 C   0  0  0  0  0  0  0  0  0  0  0  0
  -28.6071  -25.2332   26.1032 C   0  0  0  0  0  0  0  0  0  0  0  0
  -29.4330  -22.4583   22.6097 C   0  0  0  0  0  0  0  0  0  0  0  0
  -29.5129  -20.4479   20.0938 C   0  0  0  0  0  0  0  0  0  0  0  0
  -28.1573  -19.7741   19.7944 C   0  0  0  0  0  0  0  0  0  0  0  0
  -28.0782  -24.7550   17.2377 C   0  0  0  0  0  0  0  0  0  0  0  0
  -29.2487  -24.9244   18.2088 C   0  0  0  0  0  0  0  0  0  0  0  0
  -26.7147  -24.8759   17.9081 C   0  0  0  0  0  0  0  0  0  1  0  0
  -26.5419  -29.6764   25.1932 C   0  0  1  0  0  0  0  0  0  0  0  0
  -29.0557  -27.5104   27.0261 C   0  0  2  0  0  0  0  0  0  0  0  0
  -26.4733  -31.2078   25.4529 C   0  0  0  0  0  0  0  0  0  0  0  0
  -25.7949  -16.9168   23.9113 N   0  0  0  0  0  0  0  0  0  0  0  0
  -29.3850  -22.5602   18.9046 N   0  0  0  0  0  0  0  0  0  0  0  0
  -29.3192  -23.8526   19.2671 N   0  0  0  0  0  0  0  0  0  0  0  0
  -26.2195  -17.5284   25.0301 N   0  0  0  0  0  0  0  0  0  0  0  0
  -24.8098  -28.3932   23.9778 N   0  0  0  0  0  0  0  0  0  0  0  0
  -26.1832  -21.1789   23.8981 N   0  0  0  0  0  0  0  0  0  0  0  0
  -27.1780  -17.1215   27.1576 N   0  0  0  0  0  0  0  0  0  0  0  0
  -26.8040  -12.9886   25.3757 N   0  0  0  0  0  0  0  0  0  0  0  0
  -21.3566  -29.1248   23.4580 N   0  0  0  0  0  0  0  0  0  0  0  0
  -27.3227  -28.9374   26.1795 N   0  0  0  0  0  0  0  0  0  0  0  0
  -28.3357  -21.6097   23.0179 N   0  0  0  0  0  0  0  0  0  0  0  0
  -29.6126  -26.1802   26.6502 N   0  3  0  0  0  0  0  0  0  0  0  0
  -27.4730  -14.1644   27.2274 O   0  0  0  0  0  0  0  0  0  0  0  0
  -23.2707  -29.6952   22.2609 O   0  0  0  0  0  0  0  0  0  0  0  0
  -24.4619  -29.0948   26.1739 O   0  0  0  0  0  0  0  0  0  0  0  0
  -28.8373  -28.0295   24.6766 O   0  0  0  0  0  0  0  0  0  0  0  0
  -26.9892  -23.3426   23.6818 O   0  0  0  0  0  0  0  0  0  0  0  0
  -24.7540  -11.7433   20.3476 O   0  0  0  0  0  0  0  0  0  0  0  0
  -26.6163  -26.1624   18.5177 O   0  0  0  0  0  0  0  0  0  1  0  0
  -22.1622   -7.1965   22.0834 F   0  0  0  0  0  0  0  0  0  0  0  0
  -25.9142  -10.0787   22.2253 F   0  0  0  0  0  0  0  0  0  0  0  0
  1  2  1  0  0  0  0
  1  5  2  0  0  0  0
  2  6  2  0  0  0  0
  3  8  2  0  0  0  0
  3 16  1  0  0  0  0
  4  9  1  0  0  0  0
  4 16  2  0  0  0  0
  5 18  1  0  0  0  0
  6 20  1  0  0  0  0
  7 10  2  0  0  0  0
  7 19  1  0  0  0  0
  8 23  1  0  0  0  0
  9 23  2  0  0  0  0
 10 24  1  0  0  0  0
 11 12  2  0  0  0  0
 11 25  1  0  0  0  0
 12 26  1  0  0  0  0
 13 21  1  0  0  0  0
 13 24  2  0  0  0  0
 14 26  2  0  0  0  0
 14 27  1  0  0  0  0
 15 22  2  0  0  0  0
 15 65  1  0  0  0  0
 16 28  1  0  0  0  0
 17 28  1  0  0  0  0
 17 30  2  0  0  0  0
 17 31  1  0  0  0  0
 18 20  2  0  0  0  0
 18 36  1  0  0  0  0
 19 21  2  0  0  0  0
 19 37  1  0  0  0  0
 20 45  1  0  0  0  0
 21 38  1  0  0  0  0
 22 29  1  0  0  0  0
 22 54  1  0  0  0  0
 23 80  1  0  0  0  0
 24 81  1  0  0  0  0
 25 27  2  0  0  0  0
 25 80  1  0  0  0  0
 26 82  1  0  0  0  0
 27 83  1  0  0  0  0
 28 63  2  0  0  0  0
 29 55  1  0  0  0  0
 29 64  2  0  0  0  0
 30 66  1  0  0  0  0
 30 69  1  0  0  0  0
 31 70  1  0  0  0  0
 31 75  2  0  0  0  0
 32 46  1  0  0  0  0
 32 71  1  0  0  0  0
 32 76  2  0  0  0  0
 33 60  1  0  0  0  0
 33 67  1  0  0  0  0
 33 77  2  0  0  0  0
 34 61  1  0  0  0  0
 34 72  1  0  0  0  0
 34 78  2  0  0  0  0
 35 68  1  0  0  0  0
 35 73  1  0  0  0  0
 35 79  2  0  0  0  0
 36 39  1  0  0  0  0
 37 46  1  0  0  0  0
 38 67  1  0  0  0  0
 39 41  1  0  0  0  0
 40 42  1  0  0  0  0
 40 43  1  0  0  0  0
 41 45  1  0  0  0  0
 42 47  1  0  0  0  0
 43 68  1  0  0  0  0
 44 47  1  0  0  0  0
 44 68  1  0  0  0  0
 45 71  1  0  0  0  0
 46 67  1  0  0  0  0
 47 66  1  0  0  0  0
 48 56  1  0  0  0  0
 49 61  1  0  0  0  0
 50 62  1  0  0  0  0
 51 62  1  0  0  0  0
 52 62  1  0  0  0  0
 53 74  1  0  0  0  0
 54 73  1  0  0  0  0
 55 56  1  0  0  0  0
 57 58  1  0  0  0  0
 57 59  1  0  0  0  0
 58 65  1  0  0  0  0
 59 81  1  0  0  0  0
 60 62  1  0  0  0  0
 60 72  1  0  0  0  0
 61 74  1  0  0  0  0
 63 66  1  0  0  0  0
 64 65  1  0  0  0  0
M  CHG  1  74   1
M  ISO  4  35 100  59 101  73 100  81 101
M  END
> <Batch ID>
0041

> <Smiles>
CCCc1nn(CC[101CH2:1][101O:1]c2ccc3c(c2)CN(C(=O)C(NC(=O)C(C)NC)C(C)(C)C)C(C(=O)NC2CCCc4ccccc42)C3)cc1C[100NH:0][100C:0](=O)N1CCCC(n2nc(-c3ccc(Oc4ccc(F)cc4F)cc3)c(C(N)=O)c2N)C1

> <Shape>
0.240

> <Color>
0.074

> <Negative vol penalty>
0.000

$$$$

  -OEChem-04052317093D

 87 95  0     1  0  0  0  0  0999 V2000
  -16.6341  -30.1648   22.5958 C   0  0  0  0  0  0  0  0  0  0  0  0
  -17.8102  -30.2419   21.8567 C   0  0  0  0  0  0  0  0  0  0  0  0
  -26.6663  -12.7014   21.7982 C   0  0  0  0  0  0  0  0  0  0  0  0
  -25.9723  -13.8018   19.7624 C   0  0  0  0  0  0  0  0  0  0  0  0
  -16.6702  -29.7201   23.9167 C   0  0  0  0  0  0  0  0  0  0  0  0
  -19.0233  -29.8753   22.4384 C   0  0  0  0  0  0  0  0  0  0  0  0
  -23.7665  -27.1690   19.6664 C   0  0  0  0  0  0  0  0  0  0  0  0
  -25.4301  -12.0596   21.8728 C   0  0  0  0  0  0  0  0  0  0  0  0
  -24.7361  -13.1599   19.8370 C   0  0  0  0  0  0  0  0  0  0  0  0
  -24.9581  -27.6699   19.1440 C   0  0  0  0  0  0  0  0  0  0  0  0
  -23.4727  -10.1030   19.1443 C   0  0  0  0  0  0  0  0  0  0  0  0
  -22.9666   -9.5367   17.9743 C   0  0  0  0  0  0  0  0  0  0  0  0
  -26.0848  -27.1231   21.2057 C   0  0  0  0  0  0  0  0  0  0  0  0
  -29.6937  -25.5797   17.5855 C   0  0  0  0  0  0  0  0  0  0  0  0
  -30.1757  -26.8609   19.5631 C   0  0  0  0  0  0  0  0  0  0  0  0
  -21.0244  -10.9660   18.1227 C   0  0  0  0  0  0  0  0  0  0  0  0
  -26.9374  -13.5725   20.7431 C   0  0  0  0  0  0  0  0  0  0  0  0
  -29.3753  -13.7727   20.0191 C   0  0  0  0  0  0  0  0  0  0  0  0
  -17.8830  -29.3386   24.5119 C   0  0  0  0  0  0  0  0  0  0  0  0
  -23.7226  -26.6504   20.9686 C   0  0  0  0  0  0  0  0  0  0  0  0
  -19.0758  -29.4263   23.7689 C   0  0  0  0  0  0  0  0  0  0  0  0
  -24.8920  -26.6138   21.7414 C   0  0  0  0  0  0  0  0  0  0  0  0
  -29.6243  -26.7768   18.2894 C   0  0  0  0  0  0  0  0  0  0  0  0
  -24.4650  -12.2889   20.8922 C   0  0  0  0  0  0  0  0  0  0  0  0
  -26.1168  -27.6497   19.9147 C   0  0  0  0  0  0  0  0  0  0  0  0
  -22.7546  -11.1008   19.8035 C   0  0  0  0  0  0  0  0  0  0  0  0
  -21.7425   -9.9682   17.4635 C   0  0  0  0  0  0  0  0  0  0  0  0
  -21.5304  -11.5323   19.2926 C   0  0  0  0  0  0  0  0  0  0  0  0
  -28.2139  -14.2362   20.6658 C   0  0  0  0  0  0  0  0  0  0  0  0
  -30.3202  -24.5045   18.1948 C   0  0  0  0  0  0  0  0  0  0  0  0
  -30.7804  -25.7282   20.0839 C   0  0  0  0  0  0  0  0  0  0  0  0
  -30.3055  -14.7599   20.2346 C   0  0  0  0  0  0  0  0  0  0  0  0
  -29.5936  -12.5583   19.2888 C   0  0  0  0  0  0  0  0  0  0  0  0
  -22.1723  -27.4146   23.6363 C   0  0  0  0  0  0  0  0  0  0  0  0
  -23.5181  -24.6772   24.7398 C   0  0  0  0  0  0  0  0  0  0  0  0
  -26.0274  -22.3775   24.4914 C   0  0  0  0  0  0  0  0  0  0  0  0
  -29.8430  -20.6216   21.3650 C   0  0  0  0  0  0  0  0  0  0  0  0
  -17.8787  -28.9091   25.9577 C   0  0  0  0  0  0  0  0  0  0  0  0
  -22.4353  -26.0894   21.5077 C   0  0  0  0  0  0  0  0  0  0  0  0
  -24.9024  -26.0492   23.1376 C   0  0  0  0  0  0  0  0  0  0  0  0
  -19.1532  -28.1836   26.3813 C   0  0  0  0  0  0  0  0  0  0  0  0
  -31.4809  -18.1774   23.3700 C   0  0  0  0  0  0  0  0  0  0  0  0
  -20.3850  -28.9363   25.8883 C   0  0  0  0  0  0  0  0  0  0  0  0
  -30.9341  -16.8483   22.8459 C   0  0  0  0  0  0  0  0  0  0  0  0
  -30.4136  -19.2696   23.3607 C   0  0  0  0  0  0  0  0  0  0  0  0
  -29.1977  -18.1416   21.5378 C   0  0  0  0  0  0  0  0  0  0  0  0
  -20.4078  -29.0140   24.3570 C   0  0  1  0  0  0  0  0  0  0  0  0
  -22.3902  -26.0562   23.0323 C   0  0  1  0  0  0  0  0  0  0  0  0
  -30.2525  -17.0237   21.4755 C   0  0  2  0  0  0  0  0  0  0  0  0
  -26.8819  -20.2716   25.5555 C   0  0  0  0  0  0  0  0  0  0  0  0
  -29.8608  -25.0136   24.9721 C   0  0  0  0  0  0  0  0  0  0  0  0
  -32.1481  -24.4728   24.1140 C   0  0  0  0  0  0  0  0  0  0  0  0
  -24.6120  -26.3051   27.0773 C   0  0  0  0  0  0  0  0  0  0  0  0
  -26.1925  -24.4236   27.5573 C   0  0  0  0  0  0  0  0  0  0  0  0
  -23.7304  -24.0489   27.6993 C   0  0  0  0  0  0  0  0  0  0  0  0
  -25.7051  -20.8412   21.9825 C   0  0  0  0  0  0  0  0  0  0  0  0
  -28.9540  -27.9805   17.6729 C   0  0  0  0  0  0  0  0  0  0  0  0
  -30.4148  -23.2045   17.4684 C   0  0  0  0  0  0  0  0  0  0  0  0
  -31.3809  -25.7821   21.4489 C   0  0  0  0  0  0  0  0  0  0  0  0
  -30.4313  -21.9636   18.3823 C   0  0  0  0  0  0  0  0  0  0  0  0
  -30.3655  -25.3983   22.5410 C   0  0  0  0  0  0  0  0  0  0  0  0
  -29.2141  -21.8396   19.2962 C   0  0  0  0  0  0  0  0  0  0  0  0
  -27.4650  -28.0436   17.9956 C   0  0  0  0  0  0  0  0  0  1  0  0
  -24.8132  -24.3259   25.4315 C   0  0  1  0  0  0  0  0  0  0  0  0
  -26.0037  -20.8600   24.4622 C   0  0  2  0  0  0  0  0  0  0  0  0
  -30.9464  -25.4072   23.9672 C   0  0  0  0  0  0  0  0  0  0  0  0
  -24.8367  -24.7884   26.9158 C   0  0  0  0  0  0  0  0  0  0  0  0
  -28.3881  -15.4253   21.2486 N   0  0  0  0  0  0  0  0  0  0  0  0
  -30.8673  -24.5481   19.4302 N   0  0  0  0  0  0  0  0  0  0  0  0
  -29.6697  -15.7173   20.9690 N   0  0  0  0  0  0  0  0  0  0  0  0
  -23.6176  -25.5183   23.6225 N   0  0  0  0  0  0  0  0  0  0  0  0
  -29.8076  -19.3860   22.0322 N   0  0  0  0  0  0  0  0  0  0  0  0
  -31.5972  -14.8938   19.8658 N   0  0  0  0  0  0  0  0  0  0  0  0
  -28.5304  -11.6538   19.1633 N   0  0  0  0  0  0  0  0  0  0  0  0
  -20.8420  -27.7536   23.7935 N   0  0  0  0  0  0  0  0  0  0  0  0
  -24.9964  -22.8900   25.2501 N   0  0  0  0  0  0  0  0  0  0  0  0
  -29.2515  -20.6436   20.1078 N   0  0  0  0  0  0  0  0  0  0  0  0
  -26.4926  -20.3594   23.1464 N   0  3  0  0  0  0  0  0  0  0  0  0
  -30.7036  -12.2759   18.7772 O   0  0  0  0  0  0  0  0  0  0  0  0
  -23.1396  -28.1035   23.9387 O   0  0  0  0  0  0  0  0  0  0  0  0
  -22.4581  -24.2164   25.1707 O   0  0  0  0  0  0  0  0  0  0  0  0
  -26.8779  -23.0418   23.9033 O   0  0  0  0  0  0  0  0  0  0  0  0
  -30.3678  -21.6291   21.8513 O   0  0  0  0  0  0  0  0  0  0  0  0
  -23.2587  -11.6626   20.9645 O   0  0  0  0  0  0  0  0  0  0  0  0
  -27.2811  -28.1386   19.4075 O   0  0  0  0  0  0  0  0  0  1  0  0
  -21.2574   -9.4254   16.3392 F   0  0  0  0  0  0  0  0  0  0  0  0
  -20.8366  -12.4913   19.9209 F   0  0  0  0  0  0  0  0  0  0  0  0
  1  2  1  0  0  0  0
  1  5  2  0  0  0  0
  2  6  2  0  0  0  0
  3  8  2  0  0  0  0
  3 17  1  0  0  0  0
  4  9  1  0  0  0  0
  4 17  2  0  0  0  0
  5 19  1  0  0  0  0
  6 21  1  0  0  0  0
  7 10  2  0  0  0  0
  7 20  1  0  0  0  0
  8 24  1  0  0  0  0
  9 24  2  0  0  0  0
 10 25  1  0  0  0  0
 11 12  2  0  0  0  0
 11 26  1  0  0  0  0
 12 27  1  0  0  0  0
 13 22  1  0  0  0  0
 13 25  2  0  0  0  0
 14 23  1  0  0  0  0
 14 30  2  0  0  0  0
 15 23  2  0  0  0  0
 15 31  1  0  0  0  0
 16 27  2  0  0  0  0
 16 28  1  0  0  0  0
 17 29  1  0  0  0  0
 18 29  1  0  0  0  0
 18 32  2  0  0  0  0
 18 33  1  0  0  0  0
 19 21  2  0  0  0  0
 19 38  1  0  0  0  0
 20 22  2  0  0  0  0
 20 39  1  0  0  0  0
 21 47  1  0  0  0  0
 22 40  1  0  0  0  0
 23 57  1  0  0  0  0
 24 84  1  0  0  0  0
 25 85  1  0  0  0  0
 26 28  2  0  0  0  0
 26 84  1  0  0  0  0
 27 86  1  0  0  0  0
 28 87  1  0  0  0  0
 29 68  2  0  0  0  0
 30 58  1  0  0  0  0
 30 69  1  0  0  0  0
 31 59  1  0  0  0  0
 31 69  2  0  0  0  0
 32 70  1  0  0  0  0
 32 73  1  0  0  0  0
 33 74  1  0  0  0  0
 33 79  2  0  0  0  0
 34 48  1  0  0  0  0
 34 75  1  0  0  0  0
 34 80  2  0  0  0  0
 35 64  1  0  0  0  0
 35 71  1  0  0  0  0
 35 81  2  0  0  0  0
 36 65  1  0  0  0  0
 36 76  1  0  0  0  0
 36 82  2  0  0  0  0
 37 72  1  0  0  0  0
 37 77  1  0  0  0  0
 37 83  2  0  0  0  0
 38 41  1  0  0  0  0
 39 48  1  0  0  0  0
 40 71  1  0  0  0  0
 41 43  1  0  0  0  0
 42 44  1  0  0  0  0
 42 45  1  0  0  0  0
 43 47  1  0  0  0  0
 44 49  1  0  0  0  0
 45 72  1  0  0  0  0
 46 49  1  0  0  0  0
 46 72  1  0  0  0  0
 47 75  1  0  0  0  0
 48 71  1  0  0  0  0
 49 70  1  0  0  0  0
 50 65  1  0  0  0  0
 51 66  1  0  0  0  0
 52 66  1  0  0  0  0
 53 67  1  0  0  0  0
 54 67  1  0  0  0  0
 55 67  1  0  0  0  0
 56 78  1  0  0  0  0
 57 63  1  0  0  0  0
 58 60  1  0  0  0  0
 59 61  1  0  0  0  0
 60 62  1  0  0  0  0
 61 66  1  0  0  0  0
 62 77  1  0  0  0  0
 63 85  1  0  0  0  0
 64 67  1  0  0  0  0
 64 76  1  0  0  0  0
 65 78  1  0  0  0  0
 68 70  1  0  0  0  0
M  CHG  1  78   1
M  ISO  4  37 100  63 101  77 100  85 101
M  END
> <Batch ID>
0041

> <Smiles>
CNC(C)C(=O)NC(C(=O)N1Cc2cc([101O:1][101CH2:1]Cc3cc(CCC[100NH:0][100C:0](=O)N4CCCC(n5nc(-c6ccc(Oc7ccc(F)cc7F)cc6)c(C(N)=O)c5N)C4)nc(CCC(C)C)c3)ccc2CC1C(=O)NC1CCCc2ccccc21)C(C)(C)C

> <Shape>
0.243

> <Color>
0.066

> <Negative vol penalty>
0.000

$$$$

  -OEChem-04052317093D

 85 93  0     1  0  0  0  0  0999 V2000
  -30.1075  -23.9254   17.7809 C   0  0  0  0  0  0  0  0  0  0  0  0
  -28.8417  -24.0020   18.3531 C   0  0  0  0  0  0  0  0  0  0  0  0
  -27.7962  -15.5485   19.0227 C   0  0  0  0  0  0  0  0  0  0  0  0
  -27.7540  -16.1059   21.3732 C   0  0  0  0  0  0  0  0  0  0  0  0
  -31.1606  -24.6633   18.3197 C   0  0  0  0  0  0  0  0  0  0  0  0
  -28.6287  -24.8157   19.4653 C   0  0  0  0  0  0  0  0  0  0  0  0
  -24.3899  -27.5598   19.0813 C   0  0  0  0  0  0  0  0  0  0  0  0
  -28.9442  -16.3238   18.8595 C   0  0  0  0  0  0  0  0  0  0  0  0
  -28.9020  -16.8812   21.2099 C   0  0  0  0  0  0  0  0  0  0  0  0
  -23.1841  -26.9079   19.3363 C   0  0  0  0  0  0  0  0  0  0  0  0
  -29.6877  -19.9529   20.0360 C   0  0  0  0  0  0  0  0  0  0  0  0
  -29.7093  -21.2128   20.6340 C   0  0  0  0  0  0  0  0  0  0  0  0
  -23.1520  -27.8490   21.5572 C   0  0  0  0  0  0  0  0  0  0  0  0
  -17.2189  -24.3865   22.3444 C   0  0  0  0  0  0  0  0  0  0  0  0
  -19.5344  -24.6322   22.9463 C   0  0  0  0  0  0  0  0  0  0  0  0
  -31.6351  -20.5604   21.9389 C   0  0  0  0  0  0  0  0  0  0  0  0
  -27.2011  -15.4396   20.2796 C   0  0  0  0  0  0  0  0  0  0  0  0
  -25.9517  -13.2708   20.7724 C   0  0  0  0  0  0  0  0  0  0  0  0
  -30.9582  -25.4939   19.4331 C   0  0  0  0  0  0  0  0  0  0  0  0
  -24.9923  -28.3537   20.0678 C   0  0  0  0  0  0  0  0  0  0  0  0
  -29.6805  -25.5644   20.0203 C   0  0  0  0  0  0  0  0  0  0  0  0
  -24.3641  -28.5119   21.3113 C   0  0  0  0  0  0  0  0  0  0  0  0
  -18.3450  -23.9149   23.0098 C   0  0  0  0  0  0  0  0  0  0  0  0
  -29.4971  -16.9901   19.9530 C   0  0  0  0  0  0  0  0  0  0  0  0
  -22.5664  -27.0502   20.5753 C   0  0  0  0  0  0  0  0  0  0  0  0
  -30.6398  -18.9967   20.3894 C   0  0  0  0  0  0  0  0  0  0  0  0
  -30.6830  -21.5166   21.5855 C   0  0  0  0  0  0  0  0  0  0  0  0
  -31.6135  -19.3004   21.3408 C   0  0  0  0  0  0  0  0  0  0  0  0
  -26.0149  -14.6394   20.4487 C   0  0  0  0  0  0  0  0  0  0  0  0
  -17.3334  -25.5712   21.6349 C   0  0  0  0  0  0  0  0  0  0  0  0
  -19.5453  -25.8058   22.2098 C   0  0  0  0  0  0  0  0  0  0  0  0
  -24.6080  -12.9898   20.8157 C   0  0  0  0  0  0  0  0  0  0  0  0
  -27.0128  -12.3369   21.0124 C   0  0  0  0  0  0  0  0  0  0  0  0
  -27.7479  -28.2597   21.6493 C   0  0  0  0  0  0  0  0  0  0  0  0
  -19.8103  -16.4721   21.7998 C   0  0  0  0  0  0  0  0  0  0  0  0
  -26.7339  -31.1157   22.8057 C   0  0  0  0  0  0  0  0  0  0  0  0
  -24.1205  -33.1999   23.4933 C   0  0  0  0  0  0  0  0  0  0  0  0
  -32.1380  -26.2361   20.0092 C   0  0  0  0  0  0  0  0  0  0  0  0
  -26.2795  -29.0717   19.7678 C   0  0  0  0  0  0  0  0  0  0  0  0
  -24.9594  -29.3693   22.3971 C   0  0  0  0  0  0  0  0  0  0  0  0
  -31.7433  -27.3636   20.9596 C   0  0  0  0  0  0  0  0  0  0  0  0
  -20.4250  -14.3675   18.9656 C   0  0  0  0  0  0  0  0  0  0  0  0
  -30.6812  -26.8846   21.9442 C   0  0  0  0  0  0  0  0  0  0  0  0
  -21.9274  -14.0976   19.0379 C   0  0  0  0  0  0  0  0  0  0  0  0
  -20.0871  -15.7763   19.4432 C   0  0  0  0  0  0  0  0  0  0  0  0
  -22.0946  -15.8215   20.8887 C   0  0  0  0  0  0  0  0  0  0  0  0
  -29.4041  -26.4550   21.2122 C   0  0  1  0  0  0  0  0  0  0  0  0
  -27.0638  -29.4417   21.0229 C   0  0  1  0  0  0  0  0  0  0  0  0
  -22.4759  -14.3984   20.4440 C   0  0  2  0  0  0  0  0  0  0  0  0
  -16.1449  -26.1083   20.9099 C   0  0  0  0  0  0  0  0  0  0  0  0
  -20.4471  -15.3912   23.9100 C   0  0  0  0  0  0  0  0  0  0  0  0
  -23.6014  -35.4519   24.4715 C   0  0  0  0  0  0  0  0  0  0  0  0
  -27.1856  -29.9994   25.6092 C   0  0  0  0  0  0  0  0  0  0  0  0
  -25.7892  -31.8743   26.5053 C   0  0  0  0  0  0  0  0  0  0  0  0
  -27.9163  -32.3711   25.3005 C   0  0  0  0  0  0  0  0  0  0  0  0
  -22.9358  -34.1578   20.9560 C   0  0  0  0  0  0  0  0  0  0  0  0
  -18.2770  -22.6455   23.7892 C   0  0  0  0  0  0  0  0  0  0  0  0
  -20.8123  -26.6044   22.1181 C   0  0  0  0  0  0  0  0  0  1  0  0
  -19.6890  -19.1384   23.1600 C   0  0  0  0  0  0  0  0  0  0  0  0
  -19.7110  -17.8030   23.9162 C   0  0  0  0  0  0  0  0  0  0  0  0
  -18.9345  -20.2383   23.8977 C   0  0  0  0  0  0  0  0  0  0  0  0
  -20.4563  -16.7086   23.1417 C   0  0  2  0  0  0  0  0  0  0  0  0
  -25.9117  -31.5576   23.9922 C   0  0  1  0  0  0  0  0  0  0  0  0
  -23.9032  -34.6735   23.2003 C   0  0  2  0  0  0  0  0  0  0  0  0
  -26.6902  -31.4328   25.3322 C   0  0  0  0  0  0  0  0  0  0  0  0
  -24.8073  -15.1896   20.2971 N   0  0  0  0  0  0  0  0  0  0  0  0
  -18.4717  -26.2956   21.5502 N   0  0  0  0  0  0  0  0  0  0  0  0
  -23.9727  -14.1615   20.5263 N   0  0  0  0  0  0  0  0  0  0  0  0
  -26.2222  -30.0458   22.0577 N   0  0  0  0  0  0  0  0  0  0  0  0
  -20.6447  -16.0306   20.7727 N   0  0  0  0  0  0  0  0  0  0  0  0
  -23.9196  -11.8573   21.0727 N   0  0  0  0  0  0  0  0  0  0  0  0
  -28.3356  -12.7923   20.9274 N   0  0  0  0  0  0  0  0  0  0  0  0
  -28.6371  -27.6148   20.8109 N   0  0  0  0  0  0  0  0  0  0  0  0
  -25.4539  -32.9096   23.6907 N   0  0  0  0  0  0  0  0  0  0  0  0
  -22.7624  -34.8516   22.2582 N   0  3  0  0  0  0  0  0  0  0  0  0
  -18.9422  -21.4988   23.1107 N   0  3  0  0  0  0  0  0  0  0  0  0
  -26.7948  -11.1305   21.2778 O   0  0  0  0  0  0  0  0  0  0  0  0
  -27.4894  -27.9561   22.8080 O   0  0  0  0  0  0  0  0  0  0  0  0
  -18.5996  -16.6716   21.6709 O   0  0  0  0  0  0  0  0  0  0  0  0
  -27.7876  -31.7029   22.5477 O   0  0  0  0  0  0  0  0  0  0  0  0
  -23.1991  -32.3883   23.5458 O   0  0  0  0  0  0  0  0  0  0  0  0
  -30.6175  -17.7465   19.7942 O   0  0  0  0  0  0  0  0  0  0  0  0
  -21.3898  -26.4145   20.8271 O   0  0  0  0  0  0  0  0  0  1  0  0
  -30.7046  -22.7271   22.1586 F   0  0  0  0  0  0  0  0  0  0  0  0
  -32.5315  -18.3863   21.6836 F   0  0  0  0  0  0  0  0  0  0  0  0
  1  2  1  0  0  0  0
  1  5  2  0  0  0  0
  2  6  2  0  0  0  0
  3  8  2  0  0  0  0
  3 17  1  0  0  0  0
  4  9  1  0  0  0  0
  4 17  2  0  0  0  0
  5 19  1  0  0  0  0
  6 21  1  0  0  0  0
  7 10  2  0  0  0  0
  7 20  1  0  0  0  0
  8 24  1  0  0  0  0
  9 24  2  0  0  0  0
 10 25  1  0  0  0  0
 11 12  2  0  0  0  0
 11 26  1  0  0  0  0
 12 27  1  0  0  0  0
 13 22  1  0  0  0  0
 13 25  2  0  0  0  0
 14 23  1  0  0  0  0
 14 30  2  0  0  0  0
 15 23  2  0  0  0  0
 15 31  1  0  0  0  0
 16 27  2  0  0  0  0
 16 28  1  0  0  0  0
 17 29  1  0  0  0  0
 18 29  1  0  0  0  0
 18 32  2  0  0  0  0
 18 33  1  0  0  0  0
 19 21  2  0  0  0  0
 19 38  1  0  0  0  0
 20 22  2  0  0  0  0
 20 39  1  0  0  0  0
 21 47  1  0  0  0  0
 22 40  1  0  0  0  0
 23 57  1  0  0  0  0
 24 82  1  0  0  0  0
 25 83  1  0  0  0  0
 26 28  2  0  0  0  0
 26 82  1  0  0  0  0
 27 84  1  0  0  0  0
 28 85  1  0  0  0  0
 29 66  2  0  0  0  0
 30 50  1  0  0  0  0
 30 67  1  0  0  0  0
 31 58  1  0  0  0  0
 31 67  2  0  0  0  0
 32 68  1  0  0  0  0
 32 71  1  0  0  0  0
 33 72  1  0  0  0  0
 33 77  2  0  0  0  0
 34 48  1  0  0  0  0
 34 73  1  0  0  0  0
 34 78  2  0  0  0  0
 35 62  1  0  0  0  0
 35 70  1  0  0  0  0
 35 79  2  0  0  0  0
 36 63  1  0  0  0  0
 36 69  1  0  0  0  0
 36 80  2  0  0  0  0
 37 64  1  0  0  0  0
 37 74  1  0  0  0  0
 37 81  2  0  0  0  0
 38 41  1  0  0  0  0
 39 48  1  0  0  0  0
 40 69  1  0  0  0  0
 41 43  1  0  0  0  0
 42 44  1  0  0  0  0
 42 45  1  0  0  0  0
 43 47  1  0  0  0  0
 44 49  1  0  0  0  0
 45 70  1  0  0  0  0
 46 49  1  0  0  0  0
 46 70  1  0  0  0  0
 47 73  1  0  0  0  0
 48 69  1  0  0  0  0
 49 68  1  0  0  0  0
 51 62  1  0  0  0  0
 52 64  1  0  0  0  0
 53 65  1  0  0  0  0
 54 65  1  0  0  0  0
 55 65  1  0  0  0  0
 56 75  1  0  0  0  0
 57 76  1  0  0  0  0
 58 83  1  0  0  0  0
 59 60  1  0  0  0  0
 59 61  1  0  0  0  0
 60 62  1  0  0  0  0
 61 76  1  0  0  0  0
 63 65  1  0  0  0  0
 63 74  1  0  0  0  0
 64 75  1  0  0  0  0
 66 68  1  0  0  0  0
M  CHG  2  75   1  76   1
M  ISO  4  35 100  58 101  62 100  83 101
M  END
> <Batch ID>
0041

> <Smiles>
CNC(C)C(=O)NC(C(=O)N1Cc2cc([101O:1][101CH2:1]c3cc(CNCCC[100CH:0](C)[100C:0](=O)N4CCCC(n5nc(-c6ccc(Oc7ccc(F)cc7F)cc6)c(C(N)=O)c5N)C4)cc(C)n3)ccc2CC1C(=O)NC1CCCc2ccccc21)C(C)(C)C

> <Shape>
0.295

> <Color>
0.079

> <Negative vol penalty>
0.000

$$$$

  -OEChem-04052317093D

 82 90  0     1  0  0  0  0  0999 V2000
  -22.3583  -32.8851   25.2179 C   0  0  0  0  0  0  0  0  0  0  0  0
  -23.3634  -32.0115   24.8153 C   0  0  0  0  0  0  0  0  0  0  0  0
  -25.6241  -14.9156   22.4401 C   0  0  0  0  0  0  0  0  0  0  0  0
  -25.4947  -14.2447   20.1227 C   0  0  0  0  0  0  0  0  0  0  0  0
  -21.0234  -32.4881   25.1518 C   0  0  0  0  0  0  0  0  0  0  0  0
  -23.0341  -30.7398   24.3474 C   0  0  0  0  0  0  0  0  0  0  0  0
  -25.5967  -29.4855   20.1635 C   0  0  0  0  0  0  0  0  0  0  0  0
  -24.6453  -13.9770   22.7665 C   0  0  0  0  0  0  0  0  0  0  0  0
  -24.5159  -13.3060   20.4491 C   0  0  0  0  0  0  0  0  0  0  0  0
  -26.9193  -29.0755   20.3259 C   0  0  0  0  0  0  0  0  0  0  0  0
  -24.3858  -10.2177   21.8152 C   0  0  0  0  0  0  0  0  0  0  0  0
  -24.5067   -8.9405   21.2678 C   0  0  0  0  0  0  0  0  0  0  0  0
  -26.2217  -26.7735   20.1428 C   0  0  0  0  0  0  0  0  0  0  0  0
  -22.3649   -9.2036   20.1811 C   0  0  0  0  0  0  0  0  0  0  0  0
  -30.5280  -24.2450   17.8036 C   0  0  0  0  0  0  0  0  0  0  0  0
  -26.0488  -15.0495   21.1182 C   0  0  0  0  0  0  0  0  0  0  0  0
  -28.4532  -15.8224   20.7593 C   0  0  0  0  0  0  0  0  0  0  0  0
  -20.6770  -31.2145   24.6738 C   0  0  0  0  0  0  0  0  0  0  0  0
  -24.5735  -28.5406   20.0002 C   0  0  0  0  0  0  0  0  0  0  0  0
  -21.6934  -30.3249   24.2761 C   0  0  0  0  0  0  0  0  0  0  0  0
  -24.8873  -27.1742   19.9760 C   0  0  0  0  0  0  0  0  0  0  0  0
  -30.0347  -24.6254   16.5722 C   0  0  0  0  0  0  0  0  0  0  0  0
  -24.0912  -13.1722   21.7710 C   0  0  0  0  0  0  0  0  0  0  0  0
  -27.2316  -27.7192   20.3184 C   0  0  0  0  0  0  0  0  0  0  0  0
  -23.2544  -10.9879   21.5456 C   0  0  0  0  0  0  0  0  0  0  0  0
  -23.4963   -8.4334   20.4507 C   0  0  0  0  0  0  0  0  0  0  0  0
  -22.2440  -10.4808   20.7286 C   0  0  0  0  0  0  0  0  0  0  0  0
  -27.0595  -16.0193   20.7803 C   0  0  0  0  0  0  0  0  0  0  0  0
  -29.8031  -25.9764   16.4133 C   0  0  0  0  0  0  0  0  0  0  0  0
  -28.9660  -17.0382   20.3778 C   0  0  0  0  0  0  0  0  0  0  0  0
  -30.5129  -26.3985   18.5311 C   0  0  0  0  0  0  0  0  0  0  0  0
  -29.2162  -14.6458   21.0578 C   0  0  0  0  0  0  0  0  0  0  0  0
  -21.9667  -27.7513   21.6389 C   0  0  0  0  0  0  0  0  0  0  0  0
  -21.4213  -25.8220   19.0889 C   0  0  0  0  0  0  0  0  0  0  0  0
  -22.6987  -24.0937   16.4379 C   0  0  0  0  0  0  0  0  0  0  0  0
  -27.7744  -21.3377   16.8414 C   0  0  0  0  0  0  0  0  0  0  0  0
  -19.2233  -30.8129   24.6652 C   0  0  0  0  0  0  0  0  0  0  0  0
  -23.1554  -29.0002   19.7996 C   0  0  0  0  0  0  0  0  0  0  0  0
  -23.8283  -26.1207   19.7837 C   0  0  0  0  0  0  0  0  0  0  0  0
  -18.9356  -29.5851   23.8050 C   0  0  0  0  0  0  0  0  0  0  0  0
  -27.2933  -21.6916   20.4108 C   0  0  0  0  0  0  0  0  0  0  0  0
  -19.9541  -28.4851   24.0870 C   0  0  0  0  0  0  0  0  0  0  0  0
  -27.3210  -20.2320   20.8676 C   0  0  0  0  0  0  0  0  0  0  0  0
  -26.5901  -21.8362   19.0643 C   0  0  0  0  0  0  0  0  0  0  0  0
  -27.1878  -19.5303   18.4325 C   0  0  0  0  0  0  0  0  0  0  0  0
  -21.3747  -28.9463   23.7395 C   0  0  1  0  0  0  0  0  0  0  0  0
  -22.1253  -27.9328   20.1558 C   0  0  1  0  0  0  0  0  0  0  0  0
  -27.9056  -19.3146   19.7773 C   0  0  2  0  0  0  0  0  0  0  0  0
  -29.2697  -26.5037   15.1222 C   0  0  0  0  0  0  0  0  0  0  0  0
  -22.0119  -22.5797   14.5581 C   0  0  0  0  0  0  0  0  0  0  0  0
  -21.1411  -23.5081   21.0581 C   0  0  0  0  0  0  0  0  0  0  0  0
  -21.4095  -21.9293   19.1337 C   0  0  0  0  0  0  0  0  0  0  0  0
  -19.4728  -23.5003   19.1950 C   0  0  0  0  0  0  0  0  0  0  0  0
  -23.6609  -26.0046   14.3930 C   0  0  0  0  0  0  0  0  0  0  0  0
  -29.7780  -23.6255   15.5046 C   0  0  0  0  0  0  0  0  0  0  0  0
  -30.7824  -27.3955   19.6318 C   0  0  0  0  0  0  0  0  0  0  0  0
  -28.2968  -23.2501   15.3491 C   0  0  0  0  0  0  0  0  0  0  0  0
  -29.5401  -28.1971   20.0050 C   0  0  0  0  0  0  0  0  0  1  0  0
  -21.7868  -24.4034   18.7241 C   0  0  1  0  0  0  0  0  0  0  0  0
  -22.2687  -24.0169   14.9840 C   0  0  2  0  0  0  0  0  0  0  0  0
  -20.9725  -23.3548   19.5333 C   0  0  0  0  0  0  0  0  0  0  0  0
  -30.7797  -25.1083   18.8095 N   0  0  0  0  0  0  0  0  0  0  0  0
  -26.7090  -17.2623   20.4395 N   0  0  0  0  0  0  0  0  0  0  0  0
  -30.0316  -26.8944   17.3752 N   0  0  0  0  0  0  0  0  0  0  0  0
  -27.8901  -17.8575   20.2007 N   0  0  0  0  0  0  0  0  0  0  0  0
  -22.4557  -26.6199   19.5979 N   0  0  0  0  0  0  0  0  0  0  0  0
  -27.2063  -20.9505   18.0664 N   0  0  0  0  0  0  0  0  0  0  0  0
  -30.2277  -17.4757   20.1800 N   0  0  0  0  0  0  0  0  0  0  0  0
  -28.5308  -13.4825   21.4336 N   0  0  0  0  0  0  0  0  0  0  0  0
  -21.5857  -28.8985   22.3085 N   0  0  0  0  0  0  0  0  0  0  0  0
  -21.6248  -24.2992   17.2780 N   0  0  0  0  0  0  0  0  0  0  0  0
  -27.7455  -22.6996   16.5673 N   0  0  0  0  0  0  0  0  0  0  0  0
  -23.3246  -24.5874   14.1007 N   0  3  0  0  0  0  0  0  0  0  0  0
  -30.4696  -14.6312   21.0091 O   0  0  0  0  0  0  0  0  0  0  0  0
  -22.1731  -26.6516   22.1386 O   0  0  0  0  0  0  0  0  0  0  0  0
  -20.2624  -26.2100   18.9216 O   0  0  0  0  0  0  0  0  0  0  0  0
  -23.8697  -23.9789   16.7931 O   0  0  0  0  0  0  0  0  0  0  0  0
  -28.2756  -20.5297   16.0520 O   0  0  0  0  0  0  0  0  0  0  0  0
  -23.1363  -12.2560   22.0892 O   0  0  0  0  0  0  0  0  0  0  0  0
  -28.5216  -27.3162   20.4773 O   0  0  0  0  0  0  0  0  0  1  0  0
  -23.6132   -7.2075   19.9238 F   0  0  0  0  0  0  0  0  0  0  0  0
  -21.1554  -11.2164   20.4651 F   0  0  0  0  0  0  0  0  0  0  0  0
  1  2  1  0  0  0  0
  1  5  2  0  0  0  0
  2  6  2  0  0  0  0
  3  8  2  0  0  0  0
  3 16  1  0  0  0  0
  4  9  1  0  0  0  0
  4 16  2  0  0  0  0
  5 18  1  0  0  0  0
  6 20  1  0  0  0  0
  7 10  2  0  0  0  0
  7 19  1  0  0  0  0
  8 23  1  0  0  0  0
  9 23  2  0  0  0  0
 10 24  1  0  0  0  0
 11 12  2  0  0  0  0
 11 25  1  0  0  0  0
 12 26  1  0  0  0  0
 13 21  1  0  0  0  0
 13 24  2  0  0  0  0
 14 26  2  0  0  0  0
 14 27  1  0  0  0  0
 15 22  1  0  0  0  0
 15 62  2  0  0  0  0
 16 28  1  0  0  0  0
 17 28  1  0  0  0  0
 17 30  2  0  0  0  0
 17 32  1  0  0  0  0
 18 20  2  0  0  0  0
 18 37  1  0  0  0  0
 19 21  2  0  0  0  0
 19 38  1  0  0  0  0
 20 46  1  0  0  0  0
 21 39  1  0  0  0  0
 22 29  2  0  0  0  0
 22 55  1  0  0  0  0
 23 79  1  0  0  0  0
 24 80  1  0  0  0  0
 25 27  2  0  0  0  0
 25 79  1  0  0  0  0
 26 81  1  0  0  0  0
 27 82  1  0  0  0  0
 28 63  2  0  0  0  0
 29 49  1  0  0  0  0
 29 64  1  0  0  0  0
 30 65  1  0  0  0  0
 30 68  1  0  0  0  0
 31 56  1  0  0  0  0
 31 62  1  0  0  0  0
 31 64  2  0  0  0  0
 32 69  1  0  0  0  0
 32 74  2  0  0  0  0
 33 47  1  0  0  0  0
 33 70  1  0  0  0  0
 33 75  2  0  0  0  0
 34 59  1  0  0  0  0
 34 66  1  0  0  0  0
 34 76  2  0  0  0  0
 35 60  1  0  0  0  0
 35 71  1  0  0  0  0
 35 77  2  0  0  0  0
 36 67  1  0  0  0  0
 36 72  1  0  0  0  0
 36 78  2  0  0  0  0
 37 40  1  0  0  0  0
 38 47  1  0  0  0  0
 39 66  1  0  0  0  0
 40 42  1  0  0  0  0
 41 43  1  0  0  0  0
 41 44  1  0  0  0  0
 42 46  1  0  0  0  0
 43 48  1  0  0  0  0
 44 67  1  0  0  0  0
 45 48  1  0  0  0  0
 45 67  1  0  0  0  0
 46 70  1  0  0  0  0
 47 66  1  0  0  0  0
 48 65  1  0  0  0  0
 50 60  1  0  0  0  0
 51 61  1  0  0  0  0
 52 61  1  0  0  0  0
 53 61  1  0  0  0  0
 54 73  1  0  0  0  0
 55 57  1  0  0  0  0
 56 58  1  0  0  0  0
 57 72  1  0  0  0  0
 58 80  1  0  0  0  0
 59 61  1  0  0  0  0
 59 71  1  0  0  0  0
 60 73  1  0  0  0  0
 63 65  1  0  0  0  0
M  CHG  1  73   1
M  ISO  4  36 100  58 101  72 100  80 101
M  END
> <Batch ID>
0041

> <Smiles>
CNC(C)C(=O)NC(C(=O)N1Cc2cc([101O:1][101CH2:1]Cc3ncc(CC[100NH:0][100C:0](=O)N4CCCC(n5nc(-c6ccc(Oc7ccc(F)cc7F)cc6)c(C(N)=O)c5N)C4)c(C)n3)ccc2CC1C(=O)NC1CCCc2ccccc21)C(C)(C)C

> <Shape>
0.251

> <Color>
0.092

> <Negative vol penalty>
0.000

$$$$

  -OEChem-04052317093D

 80 88  0     1  0  0  0  0  0999 V2000
  -16.7439  -28.5917   22.9082 C   0  0  0  0  0  0  0  0  0  0  0  0
  -17.6302  -27.5221   22.8309 C   0  0  0  0  0  0  0  0  0  0  0  0
  -23.5159   -9.6706   20.3142 C   0  0  0  0  0  0  0  0  0  0  0  0
  -23.9857  -10.1864   22.6272 C   0  0  0  0  0  0  0  0  0  0  0  0
  -17.2318  -29.8940   23.0076 C   0  0  0  0  0  0  0  0  0  0  0  0
  -19.0050  -27.7544   22.8519 C   0  0  0  0  0  0  0  0  0  0  0  0
  -23.3018  -24.1962   25.3783 C   0  0  0  0  0  0  0  0  0  0  0  0
  -22.9164   -8.4727   20.7030 C   0  0  0  0  0  0  0  0  0  0  0  0
  -23.3861   -8.9885   23.0161 C   0  0  0  0  0  0  0  0  0  0  0  0
  -24.1675  -23.2450   24.8401 C   0  0  0  0  0  0  0  0  0  0  0  0
  -20.2529   -7.7997   23.4521 C   0  0  0  0  0  0  0  0  0  0  0  0
  -19.3736   -7.8382   24.5342 C   0  0  0  0  0  0  0  0  0  0  0  0
  -25.8998  -24.9168   24.6876 C   0  0  0  0  0  0  0  0  0  0  0  0
  -20.7766   -6.2764   25.7297 C   0  0  0  0  0  0  0  0  0  0  0  0
  -28.1529  -19.8434   21.4596 C   0  0  0  0  0  0  0  0  0  0  0  0
  -24.0506  -10.5274   21.2763 C   0  0  0  0  0  0  0  0  0  0  0  0
  -24.0470  -13.0176   20.7225 C   0  0  0  0  0  0  0  0  0  0  0  0
  -18.6132  -30.1416   23.0395 C   0  0  0  0  0  0  0  0  0  0  0  0
  -23.7259  -25.5196   25.5653 C   0  0  0  0  0  0  0  0  0  0  0  0
  -19.5118  -29.0613   22.9504 C   0  0  0  0  0  0  0  0  0  0  0  0
  -25.0383  -25.8823   25.2307 C   0  0  0  0  0  0  0  0  0  0  0  0
  -28.8278  -18.9211   22.2331 C   0  0  0  0  0  0  0  0  0  0  0  0
  -22.8515   -8.1316   22.0540 C   0  0  0  0  0  0  0  0  0  0  0  0
  -25.4658  -23.6059   24.4920 C   0  0  0  0  0  0  0  0  0  0  0  0
  -21.3940   -6.9995   23.5087 C   0  0  0  0  0  0  0  0  0  0  0  0
  -19.6355   -7.0766   25.6730 C   0  0  0  0  0  0  0  0  0  0  0  0
  -21.6559   -6.2378   24.6476 C   0  0  0  0  0  0  0  0  0  0  0  0
  -24.6705  -11.7647   20.8751 C   0  0  0  0  0  0  0  0  0  0  0  0
  -28.4413  -18.8546   23.5561 C   0  0  0  0  0  0  0  0  0  0  0  0
  -25.0590  -13.8593   20.3302 C   0  0  0  0  0  0  0  0  0  0  0  0
  -26.8888  -20.4840   23.2369 C   0  0  0  0  0  0  0  0  0  0  0  0
  -22.6756  -13.3876   20.9181 C   0  0  0  0  0  0  0  0  0  0  0  0
  -22.8227  -28.3466   24.4269 C   0  0  0  0  0  0  0  0  0  0  0  0
  -24.9858  -29.4643   26.5704 C   0  0  0  0  0  0  0  0  0  0  0  0
  -27.7786  -28.8782   28.4422 C   0  0  0  0  0  0  0  0  0  0  0  0
  -30.2828  -15.7567   20.8375 C   0  0  0  0  0  0  0  0  0  0  0  0
  -19.0935  -31.5700   23.1002 C   0  0  0  0  0  0  0  0  0  0  0  0
  -22.7883  -26.5273   26.1719 C   0  0  0  0  0  0  0  0  0  0  0  0
  -25.5489  -27.2850   25.4306 C   0  0  0  0  0  0  0  0  0  0  0  0
  -20.5625  -31.7025   23.4936 C   0  0  0  0  0  0  0  0  0  0  0  0
  -29.7864  -12.8524   18.8386 C   0  0  0  0  0  0  0  0  0  0  0  0
  -21.4182  -30.7195   22.7010 C   0  0  0  0  0  0  0  0  0  0  0  0
  -28.3627  -12.4107   19.1824 C   0  0  0  0  0  0  0  0  0  0  0  0
  -30.5122  -13.4165   20.0580 C   0  0  0  0  0  0  0  0  0  0  0  0
  -28.3738  -14.0589   21.1013 C   0  0  0  0  0  0  0  0  0  0  0  0
  -21.0099  -29.2709   22.9951 C   0  0  1  0  0  0  0  0  0  0  0  0
  -23.1641  -27.9683   25.8404 C   0  0  1  0  0  0  0  0  0  0  0  0
  -27.5826  -13.5345   19.8907 C   0  0  2  0  0  0  0  0  0  0  0  0
  -29.1019  -17.8926   24.4877 C   0  0  0  0  0  0  0  0  0  0  0  0
  -29.3310  -29.9948   30.0671 C   0  0  0  0  0  0  0  0  0  0  0  0
  -26.2816  -30.9993   24.2738 C   0  0  0  0  0  0  0  0  0  0  0  0
  -28.3077  -31.3037   25.7126 C   0  0  0  0  0  0  0  0  0  0  0  0
  -26.1207  -32.2728   26.4201 C   0  0  0  0  0  0  0  0  0  0  0  0
  -27.1396  -26.9259   30.5728 C   0  0  0  0  0  0  0  0  0  0  0  0
  -29.8971  -18.0681   21.6548 C   0  0  0  0  0  0  0  0  0  0  0  0
  -25.8048  -21.3567   23.7978 C   0  0  0  0  0  0  0  0  0  1  0  0
  -26.4636  -29.7706   26.5372 C   0  0  1  0  0  0  0  0  0  0  0  0
  -28.0834  -29.1403   29.9060 C   0  0  2  0  0  0  0  0  0  0  0  0
  -26.7835  -31.0605   25.7302 C   0  0  0  0  0  0  0  0  0  0  0  0
  -27.1745  -20.6440   21.9306 N   0  0  0  0  0  0  0  0  0  0  0  0
  -25.9774  -11.8025   20.6018 N   0  0  0  0  0  0  0  0  0  0  0  0
  -27.4721  -19.6240   24.0936 N   0  0  0  0  0  0  0  0  0  0  0  0
  -26.1833  -13.0893   20.2735 N   0  0  0  0  0  0  0  0  0  0  0  0
  -24.5924  -28.2358   26.0210 N   0  0  0  0  0  0  0  0  0  0  0  0
  -29.7203  -14.4789   20.6826 N   0  0  0  0  0  0  0  0  0  0  0  0
  -25.0879  -15.1755   20.0315 N   0  0  0  0  0  0  0  0  0  0  0  0
  -21.7680  -12.3990   21.3221 N   0  0  0  0  0  0  0  0  0  0  0  0
  -21.5432  -28.8447   24.2711 N   0  0  0  0  0  0  0  0  0  0  0  0
  -26.9034  -29.8112   27.9277 N   0  0  0  0  0  0  0  0  0  0  0  0
  -29.4624  -16.7070   21.4330 N   0  0  0  0  0  0  0  0  0  0  0  0
  -28.2977  -27.8548   30.6288 N   0  3  0  0  0  0  0  0  0  0  0  0
  -22.2640  -14.5565   20.7239 O   0  0  0  0  0  0  0  0  0  0  0  0
  -23.6589  -28.1991   23.5433 O   0  0  0  0  0  0  0  0  0  0  0  0
  -24.2099  -30.2816   27.0719 O   0  0  0  0  0  0  0  0  0  0  0  0
  -28.2707  -27.9417   27.8166 O   0  0  0  0  0  0  0  0  0  0  0  0
  -31.4292  -16.0318   20.4673 O   0  0  0  0  0  0  0  0  0  0  0  0
  -22.2664   -6.9629   22.4339 O   0  0  0  0  0  0  0  0  0  0  0  0
  -26.3126  -22.6797   23.9659 O   0  0  0  0  0  0  0  0  0  1  0  0
  -18.7919   -7.1149   26.7127 F   0  0  0  0  0  0  0  0  0  0  0  0
  -22.7511   -5.4681   24.7083 F   0  0  0  0  0  0  0  0  0  0  0  0
  1  2  1  0  0  0  0
  1  5  2  0  0  0  0
  2  6  2  0  0  0  0
  3  8  2  0  0  0  0
  3 16  1  0  0  0  0
  4  9  1  0  0  0  0
  4 16  2  0  0  0  0
  5 18  1  0  0  0  0
  6 20  1  0  0  0  0
  7 10  2  0  0  0  0
  7 19  1  0  0  0  0
  8 23  1  0  0  0  0
  9 23  2  0  0  0  0
 10 24  1  0  0  0  0
 11 12  2  0  0  0  0
 11 25  1  0  0  0  0
 12 26  1  0  0  0  0
 13 21  1  0  0  0  0
 13 24  2  0  0  0  0
 14 26  2  0  0  0  0
 14 27  1  0  0  0  0
 15 22  1  0  0  0  0
 15 60  2  0  0  0  0
 16 28  1  0  0  0  0
 17 28  1  0  0  0  0
 17 30  2  0  0  0  0
 17 32  1  0  0  0  0
 18 20  2  0  0  0  0
 18 37  1  0  0  0  0
 19 21  2  0  0  0  0
 19 38  1  0  0  0  0
 20 46  1  0  0  0  0
 21 39  1  0  0  0  0
 22 29  2  0  0  0  0
 22 55  1  0  0  0  0
 23 77  1  0  0  0  0
 24 78  1  0  0  0  0
 25 27  2  0  0  0  0
 25 77  1  0  0  0  0
 26 79  1  0  0  0  0
 27 80  1  0  0  0  0
 28 61  2  0  0  0  0
 29 49  1  0  0  0  0
 29 62  1  0  0  0  0
 30 63  1  0  0  0  0
 30 66  1  0  0  0  0
 31 56  1  0  0  0  0
 31 60  1  0  0  0  0
 31 62  2  0  0  0  0
 32 67  1  0  0  0  0
 32 72  2  0  0  0  0
 33 47  1  0  0  0  0
 33 68  1  0  0  0  0
 33 73  2  0  0  0  0
 34 57  1  0  0  0  0
 34 64  1  0  0  0  0
 34 74  2  0  0  0  0
 35 58  1  0  0  0  0
 35 69  1  0  0  0  0
 35 75  2  0  0  0  0
 36 65  1  0  0  0  0
 36 70  1  0  0  0  0
 36 76  2  0  0  0  0
 37 40  1  0  0  0  0
 38 47  1  0  0  0  0
 39 64  1  0  0  0  0
 40 42  1  0  0  0  0
 41 43  1  0  0  0  0
 41 44  1  0  0  0  0
 42 46  1  0  0  0  0
 43 48  1  0  0  0  0
 44 65  1  0  0  0  0
 45 48  1  0  0  0  0
 45 65  1  0  0  0  0
 46 68  1  0  0  0  0
 47 64  1  0  0  0  0
 48 63  1  0  0  0  0
 50 58  1  0  0  0  0
 51 59  1  0  0  0  0
 52 59  1  0  0  0  0
 53 59  1  0  0  0  0
 54 71  1  0  0  0  0
 55 70  1  0  0  0  0
 56 78  1  0  0  0  0
 57 59  1  0  0  0  0
 57 69  1  0  0  0  0
 58 71  1  0  0  0  0
 61 63  1  0  0  0  0
M  CHG  1  71   1
M  ISO  4  36 100  56 101  70 100  78 101
M  END
> <Batch ID>
0041

> <Smiles>
CNC(C)C(=O)NC(C(=O)N1Cc2cc([101O:1][101CH2:1]c3ncc(C[100NH:0][100C:0](=O)N4CCCC(n5nc(-c6ccc(Oc7ccc(F)cc7F)cc6)c(C(N)=O)c5N)C4)c(C)n3)ccc2CC1C(=O)NC1CCCc2ccccc21)C(C)(C)C

> <Shape>
0.268

> <Color>
0.185

> <Negative vol penalty>
0.000

$$$$

  -OEChem-04052317093D

 85 93  0     1  0  0  0  0  0999 V2000
  -21.6912  -19.0983   19.6865 C   0  0  0  0  0  0  0  0  0  0  0  0
  -22.3321  -20.1875   20.2681 C   0  0  0  0  0  0  0  0  0  0  0  0
  -28.7165  -17.4670   20.3719 C   0  0  0  0  0  0  0  0  0  0  0  0
  -26.9632  -17.8831   18.7627 C   0  0  0  0  0  0  0  0  0  0  0  0
  -20.5746  -19.2991   18.8761 C   0  0  0  0  0  0  0  0  0  0  0  0
  -21.8573  -21.4784   20.0387 C   0  0  0  0  0  0  0  0  0  0  0  0
  -21.8889  -26.1669   23.9786 C   0  0  0  0  0  0  0  0  0  0  0  0
  -28.3519  -16.1216   20.4214 C   0  0  0  0  0  0  0  0  0  0  0  0
  -26.5985  -16.5377   18.8121 C   0  0  0  0  0  0  0  0  0  0  0  0
  -22.7483  -27.2532   24.1370 C   0  0  0  0  0  0  0  0  0  0  0  0
  -28.8023  -13.3480   18.5407 C   0  0  0  0  0  0  0  0  0  0  0  0
  -29.8223  -12.3977   18.4926 C   0  0  0  0  0  0  0  0  0  0  0  0
  -21.2625  -28.6143   22.8107 C   0  0  0  0  0  0  0  0  0  0  0  0
  -24.6092  -28.7250   20.3757 C   0  0  0  0  0  0  0  0  0  0  0  0
  -29.1366  -11.5525   20.6496 C   0  0  0  0  0  0  0  0  0  0  0  0
  -28.0221  -18.3478   19.5426 C   0  0  0  0  0  0  0  0  0  0  0  0
  -29.3341  -20.3341   18.6255 C   0  0  0  0  0  0  0  0  0  0  0  0
  -20.0801  -20.5923   18.6444 C   0  0  0  0  0  0  0  0  0  0  0  0
  -20.7133  -26.2934   23.2247 C   0  0  0  0  0  0  0  0  0  0  0  0
  -20.7338  -21.6968   19.2233 C   0  0  0  0  0  0  0  0  0  0  0  0
  -20.3885  -27.5288   22.6464 C   0  0  0  0  0  0  0  0  0  0  0  0
  -25.5842  -29.5625   20.9060 C   0  0  0  0  0  0  0  0  0  0  0  0
  -24.9795  -27.6819   19.5342 C   0  0  0  0  0  0  0  0  0  0  0  0
  -27.2929  -15.6569   19.6415 C   0  0  0  0  0  0  0  0  0  0  0  0
  -22.4366  -28.4764   23.5506 C   0  0  0  0  0  0  0  0  0  0  0  0
  -27.9496  -13.4006   19.6433 C   0  0  0  0  0  0  0  0  0  0  0  0
  -29.9894  -11.5000   19.5470 C   0  0  0  0  0  0  0  0  0  0  0  0
  -28.1167  -12.5028   20.6978 C   0  0  0  0  0  0  0  0  0  0  0  0
  -28.3980  -19.7379   19.4916 C   0  0  0  0  0  0  0  0  0  0  0  0
  -26.9049  -29.3166   20.5668 C   0  0  0  0  0  0  0  0  0  0  0  0
  -26.3272  -27.5203   19.2561 C   0  0  0  0  0  0  0  0  0  0  0  0
  -29.3275  -21.6624   18.9749 C   0  0  0  0  0  0  0  0  0  0  0  0
  -30.1376  -19.7404   17.5972 C   0  0  0  0  0  0  0  0  0  0  0  0
  -19.5887  -24.9379   20.5786 C   0  0  0  0  0  0  0  0  0  0  0  0
  -16.9185  -26.6262   21.3150 C   0  0  0  0  0  0  0  0  0  0  0  0
  -15.5322  -29.3006   22.9189 C   0  0  0  0  0  0  0  0  0  0  0  0
  -25.2316  -25.1763   21.5685 C   0  0  0  0  0  0  0  0  0  0  0  0
  -18.8985  -20.7635   17.7229 C   0  0  0  0  0  0  0  0  0  0  0  0
  -19.7834  -25.1193   23.0856 C   0  0  0  0  0  0  0  0  0  0  0  0
  -19.1285  -27.7222   21.8444 C   0  0  0  0  0  0  0  0  0  0  0  0
  -18.2336  -22.1332   17.8329 C   0  0  0  0  0  0  0  0  0  0  0  0
  -28.5450  -24.5481   22.7101 C   0  0  0  0  0  0  0  0  0  0  0  0
  -19.2842  -23.2390   17.8212 C   0  0  0  0  0  0  0  0  0  0  0  0
  -28.9675  -23.2978   21.9365 C   0  0  0  0  0  0  0  0  0  0  0  0
  -27.0667  -24.5036   23.0904 C   0  0  0  0  0  0  0  0  0  0  0  0
  -26.5669  -23.0151   21.1909 C   0  0  0  0  0  0  0  0  0  0  0  0
  -20.2339  -23.1104   19.0183 C   0  0  1  0  0  0  0  0  0  0  0  0
  -18.8704  -25.2212   21.8676 C   0  0  1  0  0  0  0  0  0  0  0  0
  -28.0364  -23.0395   20.7367 C   0  0  2  0  0  0  0  0  0  0  0  0
  -27.9951  -30.1840   21.1054 C   0  0  0  0  0  0  0  0  0  0  0  0
  -28.2915  -26.2022   18.4251 C   0  0  0  0  0  0  0  0  0  0  0  0
  -13.3304  -30.4404   23.3068 C   0  0  0  0  0  0  0  0  0  0  0  0
  -17.0224  -27.7819   18.4930 C   0  0  0  0  0  0  0  0  0  0  0  0
  -15.4327  -29.5659   19.2402 C   0  0  0  0  0  0  0  0  0  0  0  0
  -14.7305  -27.1727   19.2871 C   0  0  0  0  0  0  0  0  0  0  0  0
  -15.7007  -28.8852   25.8443 C   0  0  0  0  0  0  0  0  0  0  0  0
  -25.1893  -30.6954   21.8194 C   0  0  0  0  0  0  0  0  0  0  0  0
  -23.9397  -26.7811   18.9624 C   0  0  0  0  0  0  0  0  0  0  0  0
  -26.7823  -26.4157   18.3595 C   0  0  0  0  0  0  0  0  0  0  0  0
  -25.4683  -30.4200   23.2985 C   0  0  0  0  0  0  0  0  0  0  0  0
  -23.4317  -25.7224   19.9495 C   0  0  0  0  0  0  0  0  0  0  0  0
  -24.6636  -29.2524   23.8576 C   0  0  0  0  0  0  0  0  0  1  0  0
  -16.4032  -28.0073   20.9894 C   0  0  1  0  0  0  0  0  0  0  0  0
  -14.3225  -29.4130   23.8292 C   0  0  2  0  0  0  0  0  0  0  0  0
  -15.9220  -28.1281   19.5159 C   0  0  0  0  0  0  0  0  0  0  0  0
  -27.8376  -20.6154   20.3282 N   0  0  0  0  0  0  0  0  0  0  0  0
  -27.3029  -28.3135   19.7526 N   0  0  0  0  0  0  0  0  0  0  0  0
  -28.4234  -21.7766   19.9896 N   0  0  0  0  0  0  0  0  0  0  0  0
  -18.2546  -26.5428   21.7318 N   0  0  0  0  0  0  0  0  0  0  0  0
  -26.2381  -24.2571   21.9079 N   0  0  0  0  0  0  0  0  0  0  0  0
  -30.0071  -22.7323   18.5100 N   0  0  0  0  0  0  0  0  0  0  0  0
  -30.0204  -18.3624   17.3697 N   0  0  0  0  0  0  0  0  0  0  0  0
  -19.5994  -23.6029   20.2221 N   0  0  0  0  0  0  0  0  0  0  0  0
  -15.3740  -28.3031   21.9802 N   0  0  0  0  0  0  0  0  0  0  0  0
  -24.4967  -24.8703   20.4297 N   0  0  0  0  0  0  0  0  0  0  0  0
  -14.7420  -29.8195   25.2002 N   0  3  0  0  0  0  0  0  0  0  0  0
  -30.9479  -20.4091   16.9117 O   0  0  0  0  0  0  0  0  0  0  0  0
  -20.0944  -25.8623   19.9530 O   0  0  0  0  0  0  0  0  0  0  0  0
  -16.1614  -25.6580   21.2105 O   0  0  0  0  0  0  0  0  0  0  0  0
  -16.5172  -30.0276   23.0272 O   0  0  0  0  0  0  0  0  0  0  0  0
  -25.0082  -26.1969   22.2284 O   0  0  0  0  0  0  0  0  0  0  0  0
  -26.9370  -14.3441   19.6893 O   0  0  0  0  0  0  0  0  0  0  0  0
  -23.2740  -29.5381   23.7031 O   0  0  0  0  0  0  0  0  0  1  0  0
  -30.9679  -10.5865   19.5000 F   0  0  0  0  0  0  0  0  0  0  0  0
  -27.2998  -12.5478   21.7591 F   0  0  0  0  0  0  0  0  0  0  0  0
  1  2  1  0  0  0  0
  1  5  2  0  0  0  0
  2  6  2  0  0  0  0
  3  8  2  0  0  0  0
  3 16  1  0  0  0  0
  4  9  1  0  0  0  0
  4 16  2  0  0  0  0
  5 18  1  0  0  0  0
  6 20  1  0  0  0  0
  7 10  2  0  0  0  0
  7 19  1  0  0  0  0
  8 24  1  0  0  0  0
  9 24  2  0  0  0  0
 10 25  1  0  0  0  0
 11 12  2  0  0  0  0
 11 26  1  0  0  0  0
 12 27  1  0  0  0  0
 13 21  1  0  0  0  0
 13 25  2  0  0  0  0
 14 22  2  0  0  0  0
 14 23  1  0  0  0  0
 15 27  2  0  0  0  0
 15 28  1  0  0  0  0
 16 29  1  0  0  0  0
 17 29  1  0  0  0  0
 17 32  2  0  0  0  0
 17 33  1  0  0  0  0
 18 20  2  0  0  0  0
 18 38  1  0  0  0  0
 19 21  2  0  0  0  0
 19 39  1  0  0  0  0
 20 47  1  0  0  0  0
 21 40  1  0  0  0  0
 22 30  1  0  0  0  0
 22 57  1  0  0  0  0
 23 31  2  0  0  0  0
 23 58  1  0  0  0  0
 24 82  1  0  0  0  0
 25 83  1  0  0  0  0
 26 28  2  0  0  0  0
 26 82  1  0  0  0  0
 27 84  1  0  0  0  0
 28 85  1  0  0  0  0
 29 66  2  0  0  0  0
 30 50  1  0  0  0  0
 30 67  2  0  0  0  0
 31 59  1  0  0  0  0
 31 67  1  0  0  0  0
 32 68  1  0  0  0  0
 32 71  1  0  0  0  0
 33 72  1  0  0  0  0
 33 77  2  0  0  0  0
 34 48  1  0  0  0  0
 34 73  1  0  0  0  0
 34 78  2  0  0  0  0
 35 63  1  0  0  0  0
 35 69  1  0  0  0  0
 35 79  2  0  0  0  0
 36 64  1  0  0  0  0
 36 74  1  0  0  0  0
 36 80  2  0  0  0  0
 37 70  1  0  0  0  0
 37 75  1  0  0  0  0
 37 81  2  0  0  0  0
 38 41  1  0  0  0  0
 39 48  1  0  0  0  0
 40 69  1  0  0  0  0
 41 43  1  0  0  0  0
 42 44  1  0  0  0  0
 42 45  1  0  0  0  0
 43 47  1  0  0  0  0
 44 49  1  0  0  0  0
 45 70  1  0  0  0  0
 46 49  1  0  0  0  0
 46 70  1  0  0  0  0
 47 73  1  0  0  0  0
 48 69  1  0  0  0  0
 49 68  1  0  0  0  0
 51 59  1  0  0  0  0
 52 64  1  0  0  0  0
 53 65  1  0  0  0  0
 54 65  1  0  0  0  0
 55 65  1  0  0  0  0
 56 76  1  0  0  0  0
 57 60  1  0  0  0  0
 58 61  1  0  0  0  0
 60 62  1  0  0  0  0
 61 75  1  0  0  0  0
 62 83  1  0  0  0  0
 63 65  1  0  0  0  0
 63 74  1  0  0  0  0
 64 76  1  0  0  0  0
 66 68  1  0  0  0  0
M  CHG  1  76   1
M  ISO  4  37 100  62 101  75 100  83 101
M  END
> <Batch ID>
0041

> <Smiles>
CCc1nc(C)c(CC[101CH2:1][101O:1]c2ccc3c(c2)CN(C(=O)C(NC(=O)C(C)NC)C(C)(C)C)C(C(=O)NC2CCCc4ccccc42)C3)cc1CC[100NH:0][100C:0](=O)N1CCCC(n2nc(-c3ccc(Oc4ccc(F)cc4F)cc3)c(C(N)=O)c2N)C1

> <Shape>
0.246

> <Color>
0.056

> <Negative vol penalty>
0.000

$$$$

  -OEChem-04052317093D

 82 90  0     1  0  0  0  0  0999 V2000
  -28.9581  -35.3333   22.5022 C   0  0  0  0  0  0  0  0  0  0  0  0
  -29.4251  -34.3997   21.5826 C   0  0  0  0  0  0  0  0  0  0  0  0
  -23.4456   -9.8668   22.0355 C   0  0  0  0  0  0  0  0  0  0  0  0
  -24.2730  -11.2524   23.8335 C   0  0  0  0  0  0  0  0  0  0  0  0
  -28.2591  -34.9085   23.6313 C   0  0  0  0  0  0  0  0  0  0  0  0
  -29.1944  -33.0406   21.7922 C   0  0  0  0  0  0  0  0  0  0  0  0
  -27.9878  -26.9633   18.1968 C   0  0  0  0  0  0  0  0  0  0  0  0
  -28.8819  -19.1505   18.3962 C   0  0  0  0  0  0  0  0  0  0  0  0
  -22.8668   -9.0044   22.9665 C   0  0  0  0  0  0  0  0  0  0  0  0
  -23.6941  -10.3900   24.7645 C   0  0  0  0  0  0  0  0  0  0  0  0
  -28.4656  -25.6573   18.0980 C   0  0  0  0  0  0  0  0  0  0  0  0
  -23.8754   -6.5163   25.0199 C   0  0  0  0  0  0  0  0  0  0  0  0
  -24.0449   -5.1455   24.8253 C   0  0  0  0  0  0  0  0  0  0  0  0
  -28.2667  -20.3799   18.6040 C   0  0  0  0  0  0  0  0  0  0  0  0
  -27.1775  -25.0452   20.0436 C   0  0  0  0  0  0  0  0  0  0  0  0
  -21.6488   -4.8692   24.6850 C   0  0  0  0  0  0  0  0  0  0  0  0
  -24.1488  -10.9908   22.4690 C   0  0  0  0  0  0  0  0  0  0  0  0
  -24.1549  -13.0106   20.9108 C   0  0  0  0  0  0  0  0  0  0  0  0
  -28.0113  -33.5442   23.8499 C   0  0  0  0  0  0  0  0  0  0  0  0
  -27.1082  -27.3233   19.2280 C   0  0  0  0  0  0  0  0  0  0  0  0
  -28.4926  -32.5970   22.9260 C   0  0  0  0  0  0  0  0  0  0  0  0
  -26.6879  -26.3558   20.1518 C   0  0  0  0  0  0  0  0  0  0  0  0
  -29.9136  -18.7449   19.2355 C   0  0  0  0  0  0  0  0  0  0  0  0
  -22.9910   -9.2659   24.3309 C   0  0  0  0  0  0  0  0  0  0  0  0
  -28.0628  -24.6987   19.0232 C   0  0  0  0  0  0  0  0  0  0  0  0
  -22.5926   -7.0635   25.0471 C   0  0  0  0  0  0  0  0  0  0  0  0
  -22.9316   -4.3220   24.6578 C   0  0  0  0  0  0  0  0  0  0  0  0
  -21.4793   -6.2400   24.8797 C   0  0  0  0  0  0  0  0  0  0  0  0
  -24.7475  -11.8818   21.5078 C   0  0  0  0  0  0  0  0  0  0  0  0
  -28.7166  -21.1606   19.6567 C   0  0  0  0  0  0  0  0  0  0  0  0
  -30.2899  -19.5988   20.2597 C   0  0  0  0  0  0  0  0  0  0  0  0
  -25.1277  -13.5098   20.0795 C   0  0  0  0  0  0  0  0  0  0  0  0
  -22.8426  -13.5590   21.0915 C   0  0  0  0  0  0  0  0  0  0  0  0
  -27.2189  -29.3683   21.6589 C   0  0  0  0  0  0  0  0  0  0  0  0
  -30.4679  -14.9347   19.2182 C   0  0  0  0  0  0  0  0  0  0  0  0
  -24.1260  -28.4706   22.0471 C   0  0  0  0  0  0  0  0  0  0  0  0
  -21.7070  -26.1170   21.5414 C   0  0  0  0  0  0  0  0  0  0  0  0
  -27.2922  -33.1296   25.1092 C   0  0  0  0  0  0  0  0  0  0  0  0
  -26.5809  -28.7298   19.3049 C   0  0  0  0  0  0  0  0  0  0  0  0
  -25.7293  -26.6863   21.2654 C   0  0  0  0  0  0  0  0  0  0  0  0
  -26.7643  -31.6980   25.0659 C   0  0  0  0  0  0  0  0  0  0  0  0
  -29.5308  -11.5334   18.5911 C   0  0  0  0  0  0  0  0  0  0  0  0
  -27.8362  -30.7494   24.5387 C   0  0  0  0  0  0  0  0  0  0  0  0
  -28.1682  -11.4053   19.2709 C   0  0  0  0  0  0  0  0  0  0  0  0
  -30.4559  -12.4664   19.3661 C   0  0  0  0  0  0  0  0  0  0  0  0
  -28.5201  -13.6990   20.2909 C   0  0  0  0  0  0  0  0  0  0  0  0
  -28.2407  -31.1157   23.1057 C   0  0  1  0  0  0  0  0  0  0  0  0
  -26.0920  -29.1092   20.6993 C   0  0  1  0  0  0  0  0  0  0  0  0
  -27.5443  -12.7893   19.5237 C   0  0  2  0  0  0  0  0  0  0  0  0
  -32.5379  -19.7094   23.3965 C   0  0  0  0  0  0  0  0  0  0  0  0
  -19.2856  -25.6496   22.0057 C   0  0  0  0  0  0  0  0  0  0  0  0
  -24.8111  -27.8145   24.9471 C   0  0  0  0  0  0  0  0  0  0  0  0
  -22.6854  -26.4984   25.0785 C   0  0  0  0  0  0  0  0  0  0  0  0
  -22.6062  -28.9505   24.6275 C   0  0  0  0  0  0  0  0  0  0  0  0
  -21.0608  -25.9786   18.6566 C   0  0  0  0  0  0  0  0  0  0  0  0
  -30.5774  -17.4294   19.0170 C   0  0  0  0  0  0  0  0  0  0  0  0
  -31.3899  -19.2142   21.1940 C   0  0  0  0  0  0  0  0  0  0  0  0
  -28.0742  -22.4924   19.9111 C   0  0  0  0  0  0  0  0  0  1  0  0
  -29.7472  -16.2302   19.4942 C   0  0  0  0  0  0  0  0  0  0  0  0
  -31.4391  -20.1232   22.4305 C   0  0  0  0  0  0  0  0  0  0  0  0
  -23.4171  -27.3828   22.8172 C   0  0  1  0  0  0  0  0  0  0  0  0
  -20.2864  -26.2289   21.0181 C   0  0  2  0  0  0  0  0  0  0  0  0
  -23.3995  -27.6555   24.3479 C   0  0  0  0  0  0  0  0  0  0  0  0
  -25.9996  -11.6756   21.0911 N   0  0  0  0  0  0  0  0  0  0  0  0
  -29.7159  -20.8004   20.4928 N   0  0  0  0  0  0  0  0  0  0  0  0
  -26.2019  -12.6817   20.2233 N   0  0  0  0  0  0  0  0  0  0  0  0
  -25.2466  -28.0767   21.3022 N   0  0  0  0  0  0  0  0  0  0  0  0
  -29.8184  -13.7624   19.6054 N   0  0  0  0  0  0  0  0  0  0  0  0
  -25.1606  -14.5719   19.2469 N   0  0  0  0  0  0  0  0  0  0  0  0
  -21.9692  -12.9218   21.9834 N   0  0  0  0  0  0  0  0  0  0  0  0
  -27.2425  -30.6538   22.1651 N   0  0  0  0  0  0  0  0  0  0  0  0
  -22.0932  -27.2548   22.2179 N   0  0  0  0  0  0  0  0  0  0  0  0
  -20.1508  -25.4964   19.7273 N   0  3  0  0  0  0  0  0  0  0  0  0
  -22.4502  -14.5741   20.4678 O   0  0  0  0  0  0  0  0  0  0  0  0
  -28.0076  -28.4680   21.9218 O   0  0  0  0  0  0  0  0  0  0  0  0
  -31.5738  -14.9655   18.6720 O   0  0  0  0  0  0  0  0  0  0  0  0
  -23.6969  -29.6260   22.0986 O   0  0  0  0  0  0  0  0  0  0  0  0
  -22.4031  -25.1186   21.3707 O   0  0  0  0  0  0  0  0  0  0  0  0
  -22.4261   -8.4247   25.2397 O   0  0  0  0  0  0  0  0  0  0  0  0
  -28.5283  -23.4234   18.9294 O   0  0  0  0  0  0  0  0  0  1  0  0
  -23.0945   -3.0059   24.4694 F   0  0  0  0  0  0  0  0  0  0  0  0
  -20.2446   -6.7602   24.9037 F   0  0  0  0  0  0  0  0  0  0  0  0
  1  2  1  0  0  0  0
  1  5  2  0  0  0  0
  2  6  2  0  0  0  0
  3  9  2  0  0  0  0
  3 17  1  0  0  0  0
  4 10  1  0  0  0  0
  4 17  2  0  0  0  0
  5 19  1  0  0  0  0
  6 21  1  0  0  0  0
  7 11  2  0  0  0  0
  7 20  1  0  0  0  0
  8 14  2  0  0  0  0
  8 23  1  0  0  0  0
  9 24  1  0  0  0  0
 10 24  2  0  0  0  0
 11 25  1  0  0  0  0
 12 13  2  0  0  0  0
 12 26  1  0  0  0  0
 13 27  1  0  0  0  0
 14 30  1  0  0  0  0
 15 22  1  0  0  0  0
 15 25  2  0  0  0  0
 16 27  2  0  0  0  0
 16 28  1  0  0  0  0
 17 29  1  0  0  0  0
 18 29  1  0  0  0  0
 18 32  2  0  0  0  0
 18 33  1  0  0  0  0
 19 21  2  0  0  0  0
 19 38  1  0  0  0  0
 20 22  2  0  0  0  0
 20 39  1  0  0  0  0
 21 47  1  0  0  0  0
 22 40  1  0  0  0  0
 23 31  2  0  0  0  0
 23 56  1  0  0  0  0
 24 79  1  0  0  0  0
 25 80  1  0  0  0  0
 26 28  2  0  0  0  0
 26 79  1  0  0  0  0
 27 81  1  0  0  0  0
 28 82  1  0  0  0  0
 29 64  2  0  0  0  0
 30 58  1  0  0  0  0
 30 65  2  0  0  0  0
 31 57  1  0  0  0  0
 31 65  1  0  0  0  0
 32 66  1  0  0  0  0
 32 69  1  0  0  0  0
 33 70  1  0  0  0  0
 33 74  2  0  0  0  0
 34 48  1  0  0  0  0
 34 71  1  0  0  0  0
 34 75  2  0  0  0  0
 35 59  1  0  0  0  0
 35 68  1  0  0  0  0
 35 76  2  0  0  0  0
 36 61  1  0  0  0  0
 36 67  1  0  0  0  0
 36 77  2  0  0  0  0
 37 62  1  0  0  0  0
 37 72  1  0  0  0  0
 37 78  2  0  0  0  0
 38 41  1  0  0  0  0
 39 48  1  0  0  0  0
 40 67  1  0  0  0  0
 41 43  1  0  0  0  0
 42 44  1  0  0  0  0
 42 45  1  0  0  0  0
 43 47  1  0  0  0  0
 44 49  1  0  0  0  0
 45 68  1  0  0  0  0
 46 49  1  0  0  0  0
 46 68  1  0  0  0  0
 47 71  1  0  0  0  0
 48 67  1  0  0  0  0
 49 66  1  0  0  0  0
 50 60  1  0  0  0  0
 51 62  1  0  0  0  0
 52 63  1  0  0  0  0
 53 63  1  0  0  0  0
 54 63  1  0  0  0  0
 55 73  1  0  0  0  0
 56 59  1  0  0  0  0
 57 60  1  0  0  0  0
 58 80  1  0  0  0  0
 61 63  1  0  0  0  0
 61 72  1  0  0  0  0
 62 73  1  0  0  0  0
 64 66  1  0  0  0  0
M  CHG  1  73   1
M  ISO  4  35 100  58 101  59 100  80 101
M  END
> <Batch ID>
0041

> <Smiles>
CCCc1nc([101CH2:1][101O:1]c2ccc3c(c2)CN(C(=O)C(NC(=O)C(C)NC)C(C)(C)C)C(C(=O)NC2CCCc4ccccc42)C3)ccc1C[100CH2:0][100C:0](=O)N1CCCC(n2nc(-c3ccc(Oc4ccc(F)cc4F)cc3)c(C(N)=O)c2N)C1

> <Shape>
0.288

> <Color>
0.151

> <Negative vol penalty>
0.000

$$$$

  -OEChem-04052317093D

 84 92  0     1  0  0  0  0  0999 V2000
  -21.8148  -11.5155   19.6690 C   0  0  0  0  0  0  0  0  0  0  0  0
  -21.5432  -12.7645   20.2182 C   0  0  0  0  0  0  0  0  0  0  0  0
  -30.0112  -26.2205   19.1620 C   0  0  0  0  0  0  0  0  0  0  0  0
  -29.2337  -27.6209   17.3532 C   0  0  0  0  0  0  0  0  0  0  0  0
  -23.1239  -11.0364   19.6432 C   0  0  0  0  0  0  0  0  0  0  0  0
  -22.5804  -13.5347   20.7429 C   0  0  0  0  0  0  0  0  0  0  0  0
  -23.0648  -19.6383   20.6095 C   0  0  0  0  0  0  0  0  0  0  0  0
  -31.2722  -26.1552   18.5694 C   0  0  0  0  0  0  0  0  0  0  0  0
  -30.4948  -27.5556   16.7607 C   0  0  0  0  0  0  0  0  0  0  0  0
  -22.7793  -20.6228   21.5545 C   0  0  0  0  0  0  0  0  0  0  0  0
  -34.0107  -28.1224   18.3170 C   0  0  0  0  0  0  0  0  0  0  0  0
  -35.1233  -28.2985   19.1396 C   0  0  0  0  0  0  0  0  0  0  0  0
  -25.0945  -20.6356   22.2318 C   0  0  0  0  0  0  0  0  0  0  0  0
  -35.9133  -26.0947   18.5427 C   0  0  0  0  0  0  0  0  0  0  0  0
  -28.9919  -26.9533   18.5538 C   0  0  0  0  0  0  0  0  0  0  0  0
  -26.8273  -25.9446   19.4510 C   0  0  0  0  0  0  0  0  0  0  0  0
  -24.1791  -11.8053   20.1590 C   0  0  0  0  0  0  0  0  0  0  0  0
  -24.3674  -19.1364   20.4757 C   0  0  0  0  0  0  0  0  0  0  0  0
  -23.9047  -13.0649   20.7251 C   0  0  0  0  0  0  0  0  0  0  0  0
  -25.3945  -19.6466   21.2825 C   0  0  0  0  0  0  0  0  0  0  0  0
  -22.0724  -23.6033   24.4209 C   0  0  0  0  0  0  0  0  0  0  0  0
  -31.5140  -26.8228   17.3688 C   0  0  0  0  0  0  0  0  0  0  0  0
  -23.7936  -21.1195   22.3678 C   0  0  0  0  0  0  0  0  0  0  0  0
  -33.8493  -26.9324   17.6073 C   0  0  0  0  0  0  0  0  0  0  0  0
  -36.0746  -27.2846   19.2524 C   0  0  0  0  0  0  0  0  0  0  0  0
  -34.8006  -25.9186   17.7201 C   0  0  0  0  0  0  0  0  0  0  0  0
  -27.6889  -27.0206   19.1651 C   0  0  0  0  0  0  0  0  0  0  0  0
  -22.0920  -23.4477   25.8199 C   0  0  0  0  0  0  0  0  0  0  0  0
  -21.9464  -24.9573   24.2277 C   0  0  0  0  0  0  0  0  0  0  0  0
  -25.7250  -26.5302   20.0241 C   0  0  0  0  0  0  0  0  0  0  0  0
  -27.0074  -24.5412   19.2193 C   0  0  0  0  0  0  0  0  0  0  0  0
  -25.7191  -16.2819   20.8335 C   0  0  0  0  0  0  0  0  0  0  0  0
  -28.3351  -17.8073   19.6707 C   0  0  0  0  0  0  0  0  0  0  0  0
  -30.0014  -20.7471   19.1938 C   0  0  0  0  0  0  0  0  0  0  0  0
  -24.3090  -30.9049   23.5414 C   0  0  0  0  0  0  0  0  0  0  0  0
  -25.5712  -11.2251   20.1517 C   0  0  0  0  0  0  0  0  0  0  0  0
  -24.6643  -18.0937   19.4332 C   0  0  0  0  0  0  0  0  0  0  0  0
  -26.8135  -19.1558   21.1646 C   0  0  0  0  0  0  0  0  0  0  0  0
  -26.6650  -12.2632   20.3890 C   0  0  0  0  0  0  0  0  0  0  0  0
  -23.8023  -31.0849   20.0219 C   0  0  0  0  0  0  0  0  0  0  0  0
  -26.2991  -13.1653   21.5634 C   0  0  0  0  0  0  0  0  0  0  0  0
  -24.6727  -29.9552   19.4687 C   0  0  0  0  0  0  0  0  0  0  0  0
  -24.4560  -31.7647   21.2229 C   0  0  0  0  0  0  0  0  0  0  0  0
  -25.7266  -29.7215   21.7564 C   0  0  0  0  0  0  0  0  0  0  0  0
  -25.0063  -13.9406   21.2817 C   0  0  1  0  0  0  0  0  0  0  0  0
  -25.9236  -17.2876   19.7361 C   0  0  1  0  0  0  0  0  0  0  0  0
  -25.0837  -28.9692   20.5787 C   0  0  2  0  0  0  0  0  0  0  0  0
  -21.8663  -25.7618   22.9939 C   0  0  0  0  0  0  0  0  0  0  0  0
  -23.6141  -21.9795   27.1668 C   0  0  0  0  0  0  0  0  0  0  0  0
  -31.7815  -22.3054   18.3570 C   0  0  0  0  0  0  0  0  0  0  0  0
  -29.8531  -16.8071   22.1213 C   0  0  0  0  0  0  0  0  0  0  0  0
  -31.6299  -18.4997   21.6250 C   0  0  0  0  0  0  0  0  0  0  0  0
  -31.1382  -16.6910   19.9789 C   0  0  0  0  0  0  0  0  0  0  0  0
  -28.5556  -21.2217   16.6555 C   0  0  0  0  0  0  0  0  0  0  0  0
  -22.1669  -22.5332   23.3734 C   0  0  0  0  0  0  0  0  0  1  0  0
  -22.2106  -22.1960   26.5884 C   0  0  0  0  0  0  0  0  0  0  0  0
  -23.0930  -27.6590   25.6133 C   0  0  0  0  0  0  0  0  0  0  0  0
  -22.9530  -29.1339   26.0017 C   0  0  0  0  0  0  0  0  0  0  0  0
  -21.7708  -26.9105   25.7993 C   0  0  0  0  0  0  0  0  0  0  0  0
  -24.2501  -29.9146   25.8163 C   0  0  0  0  0  0  0  0  0  0  0  0
  -29.4820  -18.5776   20.2791 C   0  0  1  0  0  0  0  0  0  0  0  0
  -30.6777  -21.3344   17.9681 C   0  0  2  0  0  0  0  0  0  0  0  0
  -30.4988  -17.6519   21.0049 C   0  0  0  0  0  0  0  0  0  0  0  0
  -27.1777  -28.2005   19.5267 N   0  0  0  0  0  0  0  0  0  0  0  0
  -21.9870  -24.6100   26.4695 N   0  0  0  0  0  0  0  0  0  0  0  0
  -21.9004  -25.5089   25.4742 N   0  0  0  0  0  0  0  0  0  0  0  0
  -25.9831  -27.8693   20.0455 N   0  0  0  0  0  0  0  0  0  0  0  0
  -27.0523  -18.1311   20.1348 N   0  0  0  0  0  0  0  0  0  0  0  0
  -24.8200  -30.7748   22.2396 N   0  0  0  0  0  0  0  0  0  0  0  0
  -24.5698  -26.0252   20.5067 N   0  0  0  0  0  0  0  0  0  0  0  0
  -26.5754  -24.0047   17.9987 N   0  0  0  0  0  0  0  0  0  0  0  0
  -25.2673  -15.0526   20.3930 N   0  0  0  0  0  0  0  0  0  0  0  0
  -30.0604  -19.3696   19.1989 N   0  0  0  0  0  0  0  0  0  0  0  0
  -24.6985  -29.9207   24.4417 N   0  0  0  0  0  0  0  0  0  0  0  0
  -29.6853  -22.0628   17.1281 N   0  3  0  0  0  0  0  0  0  0  0  0
  -27.5208  -23.7823   20.0760 O   0  0  0  0  0  0  0  0  0  0  0  0
  -25.9553  -16.5974   21.9939 O   0  0  0  0  0  0  0  0  0  0  0  0
  -28.5682  -16.9549   18.8100 O   0  0  0  0  0  0  0  0  0  0  0  0
  -29.4769  -21.4412   20.0620 O   0  0  0  0  0  0  0  0  0  0  0  0
  -23.5567  -31.8266   23.8753 O   0  0  0  0  0  0  0  0  0  0  0  0
  -32.7445  -26.7595   16.7905 O   0  0  0  0  0  0  0  0  0  0  0  0
  -23.5176  -22.0800   23.2915 O   0  0  0  0  0  0  0  0  0  1  0  0
  -37.1438  -27.4544   20.0411 F   0  0  0  0  0  0  0  0  0  0  0  0
  -34.6516  -24.7737   17.0398 F   0  0  0  0  0  0  0  0  0  0  0  0
  1  2  1  0  0  0  0
  1  5  2  0  0  0  0
  2  6  2  0  0  0  0
  3  8  2  0  0  0  0
  3 15  1  0  0  0  0
  4  9  1  0  0  0  0
  4 15  2  0  0  0  0
  5 17  1  0  0  0  0
  6 19  1  0  0  0  0
  7 10  2  0  0  0  0
  7 18  1  0  0  0  0
  8 22  1  0  0  0  0
  9 22  2  0  0  0  0
 10 23  1  0  0  0  0
 11 12  2  0  0  0  0
 11 24  1  0  0  0  0
 12 25  1  0  0  0  0
 13 20  1  0  0  0  0
 13 23  2  0  0  0  0
 14 25  2  0  0  0  0
 14 26  1  0  0  0  0
 15 27  1  0  0  0  0
 16 27  1  0  0  0  0
 16 30  2  0  0  0  0
 16 31  1  0  0  0  0
 17 19  2  0  0  0  0
 17 36  1  0  0  0  0
 18 20  2  0  0  0  0
 18 37  1  0  0  0  0
 19 45  1  0  0  0  0
 20 38  1  0  0  0  0
 21 28  1  0  0  0  0
 21 29  2  0  0  0  0
 21 55  1  0  0  0  0
 22 81  1  0  0  0  0
 23 82  1  0  0  0  0
 24 26  2  0  0  0  0
 24 81  1  0  0  0  0
 25 83  1  0  0  0  0
 26 84  1  0  0  0  0
 27 64  2  0  0  0  0
 28 56  1  0  0  0  0
 28 65  2  0  0  0  0
 29 48  1  0  0  0  0
 29 66  1  0  0  0  0
 30 67  1  0  0  0  0
 30 70  1  0  0  0  0
 31 71  1  0  0  0  0
 31 76  2  0  0  0  0
 32 46  1  0  0  0  0
 32 72  1  0  0  0  0
 32 77  2  0  0  0  0
 33 61  1  0  0  0  0
 33 68  1  0  0  0  0
 33 78  2  0  0  0  0
 34 62  1  0  0  0  0
 34 73  1  0  0  0  0
 34 79  2  0  0  0  0
 35 69  1  0  0  0  0
 35 74  1  0  0  0  0
 35 80  2  0  0  0  0
 36 39  1  0  0  0  0
 37 46  1  0  0  0  0
 38 68  1  0  0  0  0
 39 41  1  0  0  0  0
 40 42  1  0  0  0  0
 40 43  1  0  0  0  0
 41 45  1  0  0  0  0
 42 47  1  0  0  0  0
 43 69  1  0  0  0  0
 44 47  1  0  0  0  0
 44 69  1  0  0  0  0
 45 72  1  0  0  0  0
 46 68  1  0  0  0  0
 47 67  1  0  0  0  0
 49 56  1  0  0  0  0
 50 62  1  0  0  0  0
 51 63  1  0  0  0  0
 52 63  1  0  0  0  0
 53 63  1  0  0  0  0
 54 75  1  0  0  0  0
 55 82  1  0  0  0  0
 57 58  1  0  0  0  0
 57 59  1  0  0  0  0
 58 60  1  0  0  0  0
 59 66  1  0  0  0  0
 60 74  1  0  0  0  0
 61 63  1  0  0  0  0
 61 73  1  0  0  0  0
 62 75  1  0  0  0  0
 64 67  1  0  0  0  0
 65 66  1  0  0  0  0
M  CHG  1  75   1
M  ISO  4  35 100  55 101  74 100  82 101
M  END
> <Batch ID>
0041

> <Smiles>
CCc1nn(CCCC[100NH:0][100C:0](=O)N2CCCC(n3nc(-c4ccc(Oc5ccc(F)cc5F)cc4)c(C(N)=O)c3N)C2)c(C)c1[101CH2:1][101O:1]c1ccc2c(c1)CN(C(=O)C(NC(=O)C(C)NC)C(C)(C)C)C(C(=O)NC1CCCc3ccccc31)C2

> <Shape>
0.202

> <Color>
0.084

> <Negative vol penalty>
0.000

$$$$

  -OEChem-04052317093D

 82 90  0     1  0  0  0  0  0999 V2000
  -18.1596  -25.2948   21.7883 C   0  0  0  0  0  0  0  0  0  0  0  0
  -19.4391  -25.3445   21.2444 C   0  0  0  0  0  0  0  0  0  0  0  0
  -23.6877  -14.9941   20.2527 C   0  0  0  0  0  0  0  0  0  0  0  0
  -25.5075  -16.5557   19.9590 C   0  0  0  0  0  0  0  0  0  0  0  0
  -17.5261  -26.4716   22.1857 C   0  0  0  0  0  0  0  0  0  0  0  0
  -20.0855  -26.5712   21.0966 C   0  0  0  0  0  0  0  0  0  0  0  0
  -24.9177  -26.4146   22.6033 C   0  0  0  0  0  0  0  0  0  0  0  0
  -24.4732  -13.9767   19.7109 C   0  0  0  0  0  0  0  0  0  0  0  0
  -26.2931  -15.5384   19.4172 C   0  0  0  0  0  0  0  0  0  0  0  0
  -25.8378  -25.8329   21.7321 C   0  0  0  0  0  0  0  0  0  0  0  0
  -28.9018  -13.2710   18.2895 C   0  0  0  0  0  0  0  0  0  0  0  0
  -30.2219  -13.1668   18.7277 C   0  0  0  0  0  0  0  0  0  0  0  0
  -26.5231  -28.0271   21.0006 C   0  0  0  0  0  0  0  0  0  0  0  0
  -29.4442  -12.8272   20.9898 C   0  0  0  0  0  0  0  0  0  0  0  0
  -26.0707  -25.0514   16.7016 C   0  0  0  0  0  0  0  0  0  0  0  0
  -24.2048  -16.2836   20.3767 C   0  0  0  0  0  0  0  0  0  0  0  0
  -23.2959  -17.7041   22.2907 C   0  0  0  0  0  0  0  0  0  0  0  0
  -18.1690  -27.7123   22.0517 C   0  0  0  0  0  0  0  0  0  0  0  0
  -24.7855  -27.8089   22.6719 C   0  0  0  0  0  0  0  0  0  0  0  0
  -19.4595  -27.7657   21.4914 C   0  0  0  0  0  0  0  0  0  0  0  0
  -25.6024  -28.6240   21.8753 C   0  0  0  0  0  0  0  0  0  0  0  0
  -25.3838  -23.8626   16.6649 C   0  0  0  0  0  0  0  0  0  0  0  0
  -25.7759  -14.2488   19.2932 C   0  0  0  0  0  0  0  0  0  0  0  0
  -26.6386  -26.6391   20.9285 C   0  0  0  0  0  0  0  0  0  0  0  0
  -27.8529  -13.1534   19.2015 C   0  0  0  0  0  0  0  0  0  0  0  0
  -30.4932  -12.9449   20.0778 C   0  0  0  0  0  0  0  0  0  0  0  0
  -28.1241  -12.9315   20.5516 C   0  0  0  0  0  0  0  0  0  0  0  0
  -23.3937  -17.3351   20.9357 C   0  0  0  0  0  0  0  0  0  0  0  0
  -26.1711  -22.9776   17.4256 C   0  0  0  0  0  0  0  0  0  0  0  0
  -22.4029  -18.7477   22.2988 C   0  0  0  0  0  0  0  0  0  0  0  0
  -23.9536  -17.1531   23.4394 C   0  0  0  0  0  0  0  0  0  0  0  0
  -22.4359  -29.8705   22.0948 C   0  0  0  0  0  0  0  0  0  0  0  0
  -24.5522  -32.0185   23.2906 C   0  0  0  0  0  0  0  0  0  0  0  0
  -27.8045  -32.8401   23.9181 C   0  0  0  0  0  0  0  0  0  0  0  0
  -20.7619  -22.7422   18.1512 C   0  0  0  0  0  0  0  0  0  0  0  0
  -17.4255  -28.9621   22.4517 C   0  0  0  0  0  0  0  0  0  0  0  0
  -23.8071  -28.4215   23.6362 C   0  0  0  0  0  0  0  0  0  0  0  0
  -25.5136  -30.1267   21.9260 C   0  0  0  0  0  0  0  0  0  0  0  0
  -18.3274  -30.1838   22.6077 C   0  0  0  0  0  0  0  0  0  0  0  0
  -18.6426  -20.4767   19.8984 C   0  0  0  0  0  0  0  0  0  0  0  0
  -19.2818  -30.2974   21.4232 C   0  0  0  0  0  0  0  0  0  0  0  0
  -19.6111  -19.4479   20.4847 C   0  0  0  0  0  0  0  0  0  0  0  0
  -19.0906  -20.9508   18.5177 C   0  0  0  0  0  0  0  0  0  0  0  0
  -21.4419  -20.4314   19.0425 C   0  0  0  0  0  0  0  0  0  0  0  0
  -20.2033  -29.0747   21.3379 C   0  0  1  0  0  0  0  0  0  0  0  0
  -23.3957  -29.8389   23.2504 C   0  0  1  0  0  0  0  0  0  0  0  0
  -21.0620  -19.9651   20.4584 C   0  0  2  0  0  0  0  0  0  0  0  0
  -25.9068  -21.5581   17.7190 C   0  0  0  0  0  0  0  0  0  0  0  0
  -29.2236  -34.6778   24.8701 C   0  0  0  0  0  0  0  0  0  0  0  0
  -24.1462  -33.6483   20.7433 C   0  0  0  0  0  0  0  0  0  0  0  0
  -26.2304  -34.9164   21.3056 C   0  0  0  0  0  0  0  0  0  0  0  0
  -24.2665  -35.0043   22.8412 C   0  0  0  0  0  0  0  0  0  0  0  0
  -28.8700  -31.0752   26.0414 C   0  0  0  0  0  0  0  0  0  0  0  0
  -24.1099  -23.5882   15.9791 C   0  0  0  0  0  0  0  0  0  0  0  0
  -22.9367  -24.5196   16.3751 C   0  0  0  0  0  0  0  0  0  0  0  0
  -28.2656  -25.8133   17.7892 C   0  0  0  0  0  0  0  0  0  0  0  0
  -22.5486  -24.4380   17.8499 C   0  0  0  0  0  0  0  0  0  0  0  0
  -27.8350  -26.7895   18.8786 C   0  0  0  0  0  0  0  0  0  1  0  0
  -25.6404  -32.8862   22.7061 C   0  0  1  0  0  0  0  0  0  0  0  0
  -28.4846  -33.3813   25.1627 C   0  0  2  0  0  0  0  0  0  0  0  0
  -25.0715  -34.0855   21.8964 C   0  0  0  0  0  0  0  0  0  0  0  0
  -22.6240  -18.0832   20.1407 N   0  0  0  0  0  0  0  0  0  0  0  0
  -27.2738  -23.5549   17.9101 N   0  0  0  0  0  0  0  0  0  0  0  0
  -27.1844  -24.8154   17.4526 N   0  0  0  0  0  0  0  0  0  0  0  0
  -22.0341  -18.9327   20.9988 N   0  0  0  0  0  0  0  0  0  0  0  0
  -24.5374  -30.6779   22.8803 N   0  0  0  0  0  0  0  0  0  0  0  0
  -20.4742  -21.4300   18.5618 N   0  0  0  0  0  0  0  0  0  0  0  0
  -21.9049  -19.5157   23.2910 N   0  0  0  0  0  0  0  0  0  0  0  0
  -24.8401  -16.0837   23.2527 N   0  0  0  0  0  0  0  0  0  0  0  0
  -21.2644  -29.1723   22.3172 N   0  0  0  0  0  0  0  0  0  0  0  0
  -26.4985  -33.2715   23.8213 N   0  0  0  0  0  0  0  0  0  0  0  0
  -22.0972  -23.1182   18.2307 N   0  0  0  0  0  0  0  0  0  0  0  0
  -29.4650  -32.3902   25.6897 N   0  3  0  0  0  0  0  0  0  0  0  0
  -23.7483  -17.5851   24.5990 O   0  0  0  0  0  0  0  0  0  0  0  0
  -22.7354  -30.4842   21.0772 O   0  0  0  0  0  0  0  0  0  0  0  0
  -23.7492  -32.5103   24.0875 O   0  0  0  0  0  0  0  0  0  0  0  0
  -28.3759  -32.1109   23.1104 O   0  0  0  0  0  0  0  0  0  0  0  0
  -19.8924  -23.5226   17.7490 O   0  0  0  0  0  0  0  0  0  0  0  0
  -26.5428  -13.2563   18.7647 O   0  0  0  0  0  0  0  0  0  0  0  0
  -27.5370  -26.0740   20.0768 O   0  0  0  0  0  0  0  0  0  1  0  0
  -31.7609  -12.8433   20.4982 F   0  0  0  0  0  0  0  0  0  0  0  0
  -27.1206  -12.8165   21.4322 F   0  0  0  0  0  0  0  0  0  0  0  0
  1  2  1  0  0  0  0
  1  5  2  0  0  0  0
  2  6  2  0  0  0  0
  3  8  2  0  0  0  0
  3 16  1  0  0  0  0
  4  9  1  0  0  0  0
  4 16  2  0  0  0  0
  5 18  1  0  0  0  0
  6 20  1  0  0  0  0
  7 10  2  0  0  0  0
  7 19  1  0  0  0  0
  8 23  1  0  0  0  0
  9 23  2  0  0  0  0
 10 24  1  0  0  0  0
 11 12  2  0  0  0  0
 11 25  1  0  0  0  0
 12 26  1  0  0  0  0
 13 21  1  0  0  0  0
 13 24  2  0  0  0  0
 14 26  2  0  0  0  0
 14 27  1  0  0  0  0
 15 22  2  0  0  0  0
 15 64  1  0  0  0  0
 16 28  1  0  0  0  0
 17 28  1  0  0  0  0
 17 30  2  0  0  0  0
 17 31  1  0  0  0  0
 18 20  2  0  0  0  0
 18 36  1  0  0  0  0
 19 21  2  0  0  0  0
 19 37  1  0  0  0  0
 20 45  1  0  0  0  0
 21 38  1  0  0  0  0
 22 29  1  0  0  0  0
 22 54  1  0  0  0  0
 23 79  1  0  0  0  0
 24 80  1  0  0  0  0
 25 27  2  0  0  0  0
 25 79  1  0  0  0  0
 26 81  1  0  0  0  0
 27 82  1  0  0  0  0
 28 62  2  0  0  0  0
 29 48  1  0  0  0  0
 29 63  2  0  0  0  0
 30 65  1  0  0  0  0
 30 68  1  0  0  0  0
 31 69  1  0  0  0  0
 31 74  2  0  0  0  0
 32 46  1  0  0  0  0
 32 70  1  0  0  0  0
 32 75  2  0  0  0  0
 33 59  1  0  0  0  0
 33 66  1  0  0  0  0
 33 76  2  0  0  0  0
 34 60  1  0  0  0  0
 34 71  1  0  0  0  0
 34 77  2  0  0  0  0
 35 67  1  0  0  0  0
 35 72  1  0  0  0  0
 35 78  2  0  0  0  0
 36 39  1  0  0  0  0
 37 46  1  0  0  0  0
 38 66  1  0  0  0  0
 39 41  1  0  0  0  0
 40 42  1  0  0  0  0
 40 43  1  0  0  0  0
 41 45  1  0  0  0  0
 42 47  1  0  0  0  0
 43 67  1  0  0  0  0
 44 47  1  0  0  0  0
 44 67  1  0  0  0  0
 45 70  1  0  0  0  0
 46 66  1  0  0  0  0
 47 65  1  0  0  0  0
 49 60  1  0  0  0  0
 50 61  1  0  0  0  0
 51 61  1  0  0  0  0
 52 61  1  0  0  0  0
 53 73  1  0  0  0  0
 54 55  1  0  0  0  0
 55 57  1  0  0  0  0
 56 58  1  0  0  0  0
 56 64  1  0  0  0  0
 57 72  1  0  0  0  0
 58 80  1  0  0  0  0
 59 61  1  0  0  0  0
 59 71  1  0  0  0  0
 60 73  1  0  0  0  0
 62 65  1  0  0  0  0
 63 64  1  0  0  0  0
M  CHG  1  73   1
M  ISO  4  35 100  58 101  72 100  80 101
M  END
> <Batch ID>
0041

> <Smiles>
CNC(C)C(=O)NC(C(=O)N1Cc2cc([101O:1][101CH2:1]Cn3cc(CCC[100NH:0][100C:0](=O)N4CCCC(n5nc(-c6ccc(Oc7ccc(F)cc7F)cc6)c(C(N)=O)c5N)C4)c(C)n3)ccc2CC1C(=O)NC1CCCc2ccccc21)C(C)(C)C

> <Shape>
0.216

> <Color>
0.066

> <Negative vol penalty>
0.000

$$$$

  -OEChem-04052317093D

 85 94  0     1  0  0  0  0  0999 V2000
  -17.2835  -13.8845   21.2464 C   0  0  0  0  0  0  0  0  0  0  0  0
  -18.4474  -14.4174   21.7912 C   0  0  0  0  0  0  0  0  0  0  0  0
  -23.0015   -9.8944   19.9803 C   0  0  0  0  0  0  0  0  0  0  0  0
  -23.7322   -9.9431   22.2826 C   0  0  0  0  0  0  0  0  0  0  0  0
  -17.0462  -13.9866   19.8763 C   0  0  0  0  0  0  0  0  0  0  0  0
  -19.3752  -15.0519   20.9660 C   0  0  0  0  0  0  0  0  0  0  0  0
  -21.0653  -19.4032   22.9292 C   0  0  0  0  0  0  0  0  0  0  0  0
  -22.2369   -8.7587   20.2469 C   0  0  0  0  0  0  0  0  0  0  0  0
  -22.9675   -8.8074   22.5493 C   0  0  0  0  0  0  0  0  0  0  0  0
  -22.0284  -19.3170   23.9335 C   0  0  0  0  0  0  0  0  0  0  0  0
  -23.2144   -5.4693   22.0723 C   0  0  0  0  0  0  0  0  0  0  0  0
  -23.8048   -4.4518   22.8216 C   0  0  0  0  0  0  0  0  0  0  0  0
  -23.7501  -19.8067   22.3164 C   0  0  0  0  0  0  0  0  0  0  0  0
  -22.0847   -4.6905   24.5013 C   0  0  0  0  0  0  0  0  0  0  0  0
  -23.7493  -10.4865   20.9981 C   0  0  0  0  0  0  0  0  0  0  0  0
  -24.1314  -13.0028   20.8246 C   0  0  0  0  0  0  0  0  0  0  0  0
  -17.9670  -14.6312   19.0353 C   0  0  0  0  0  0  0  0  0  0  0  0
  -21.4392  -19.6815   21.6066 C   0  0  0  0  0  0  0  0  0  0  0  0
  -19.1506  -15.1616   19.5831 C   0  0  0  0  0  0  0  0  0  0  0  0
  -22.7895  -19.8985   21.2975 C   0  0  0  0  0  0  0  0  0  0  0  0
  -22.2199   -8.2152   21.5314 C   0  0  0  0  0  0  0  0  0  0  0  0
  -23.3713  -19.5159   23.6267 C   0  0  0  0  0  0  0  0  0  0  0  0
  -22.0591   -6.0976   22.5375 C   0  0  0  0  0  0  0  0  0  0  0  0
  -23.2400   -4.0624   24.0361 C   0  0  0  0  0  0  0  0  0  0  0  0
  -21.4943   -5.7082   23.7520 C   0  0  0  0  0  0  0  0  0  0  0  0
  -24.5398  -11.6594   20.7232 C   0  0  0  0  0  0  0  0  0  0  0  0
  -27.7543  -18.2220   25.2186 C   0  0  0  0  0  0  0  0  0  0  0  0
  -28.7510  -19.1710   25.3021 C   0  0  0  0  0  0  0  0  0  0  0  0
  -25.2395  -13.7271   20.4585 C   0  0  0  0  0  0  0  0  0  0  0  0
  -29.7434  -17.3582   24.7736 C   0  0  0  0  0  0  0  0  0  0  0  0
  -22.8638  -13.5473   21.2149 C   0  0  0  0  0  0  0  0  0  0  0  0
  -21.2183  -18.1323   18.8398 C   0  0  0  0  0  0  0  0  0  0  0  0
  -22.3666  -20.9166   17.6352 C   0  0  0  0  0  0  0  0  0  0  0  0
  -24.1177  -23.7980   18.1626 C   0  0  0  0  0  0  0  0  0  0  0  0
  -30.7354  -14.6674   20.6950 C   0  0  0  0  0  0  0  0  0  0  0  0
  -17.6894  -14.6754   17.5535 C   0  0  0  0  0  0  0  0  0  0  0  0
  -20.3854  -19.7976   20.5396 C   0  0  0  0  0  0  0  0  0  0  0  0
  -23.2408  -20.2200   19.8970 C   0  0  0  0  0  0  0  0  0  0  0  0
  -18.5453  -15.6930   16.8036 C   0  0  0  0  0  0  0  0  0  0  0  0
  -26.2790  -15.8552   24.5998 C   0  0  0  0  0  0  0  0  0  0  0  0
  -29.5917  -12.2456   18.3490 C   0  0  0  0  0  0  0  0  0  0  0  0
  -20.0056  -15.5793   17.2294 C   0  0  0  0  0  0  0  0  0  0  0  0
  -25.6917  -16.8605   25.5958 C   0  0  0  0  0  0  0  0  0  0  0  0
  -28.1445  -11.9837   18.7698 C   0  0  0  0  0  0  0  0  0  0  0  0
  -27.7981  -15.7684   24.7435 C   0  0  0  0  0  0  0  0  0  0  0  0
  -30.4968  -12.4804   19.5564 C   0  0  0  0  0  0  0  0  0  0  0  0
  -28.5890  -13.2720   20.9009 C   0  0  0  0  0  0  0  0  0  0  0  0
  -20.1693  -15.8791   18.7243 C   0  0  1  0  0  0  0  0  0  0  0  0
  -26.2718  -18.2763   25.4014 C   0  0  2  0  0  0  0  0  0  0  0  0
  -20.9329  -19.5782   19.1327 C   0  0  1  0  0  0  0  0  0  0  0  0
  -27.6274  -13.0849   19.7149 C   0  0  2  0  0  0  0  0  0  0  0  0
  -28.6520  -20.5958   25.6560 C   0  0  0  0  0  0  0  0  0  0  0  0
  -24.9216  -25.8593   16.9786 C   0  0  0  0  0  0  0  0  0  0  0  0
  -24.5608  -19.2822   16.2847 C   0  0  0  0  0  0  0  0  0  0  0  0
  -25.8333  -21.4096   15.9342 C   0  0  0  0  0  0  0  0  0  0  0  0
  -23.5978  -21.1057   14.8699 C   0  0  0  0  0  0  0  0  0  0  0  0
  -22.5697  -25.5723   19.9556 C   0  0  0  0  0  0  0  0  0  0  0  0
  -30.7564  -16.3451   24.4133 C   0  0  0  0  0  0  0  0  0  0  0  0
  -25.6144  -18.9914   24.2177 C   0  0  0  0  0  0  0  0  0  1  0  0
  -31.6173  -16.6949   23.1760 C   0  0  0  0  0  0  0  0  0  0  0  0
  -30.8186  -16.8448   21.8829 C   0  0  0  0  0  0  0  0  0  0  0  0
  -23.7416  -21.4788   17.3664 C   0  0  1  0  0  0  0  0  0  0  0  0
  -23.8093  -25.2426   17.8124 C   0  0  2  0  0  0  0  0  0  0  0  0
  -24.4254  -20.8111   16.1399 C   0  0  0  0  0  0  0  0  0  0  0  0
  -25.8082  -11.5348   20.3238 N   0  0  0  0  0  0  0  0  0  0  0  0
  -29.9814  -18.6280   25.0209 N   0  0  0  0  0  0  0  0  0  0  0  0
  -28.4157  -17.0704   24.8808 N   0  0  0  0  0  0  0  0  0  0  0  0
  -26.2065  -12.8092   20.1709 N   0  0  0  0  0  0  0  0  0  0  0  0
  -22.1735  -20.3164   18.8875 N   0  0  0  0  0  0  0  0  0  0  0  0
  -29.9509  -13.5373   20.4112 N   0  0  0  0  0  0  0  0  0  0  0  0
  -25.4713  -15.0532   20.3576 N   0  0  0  0  0  0  0  0  0  0  0  0
  -21.8338  -12.6616   21.5597 N   0  0  0  0  0  0  0  0  0  0  0  0
  -20.1178  -17.3056   18.9623 N   0  0  0  0  0  0  0  0  0  0  0  0
  -23.5756  -22.9231   17.2451 N   0  0  0  0  0  0  0  0  0  0  0  0
  -30.1400  -15.6244   21.5076 N   0  0  0  0  0  0  0  0  0  0  0  0
  -23.6469  -26.0529   19.0525 N   0  3  0  0  0  0  0  0  0  0  0  0
  -22.6458  -14.7823   21.2408 O   0  0  0  0  0  0  0  0  0  0  0  0
  -22.3525  -17.7922   18.5246 O   0  0  0  0  0  0  0  0  0  0  0  0
  -21.4938  -21.0131   16.7688 O   0  0  0  0  0  0  0  0  0  0  0  0
  -24.7768  -23.4780   19.1494 O   0  0  0  0  0  0  0  0  0  0  0  0
  -31.8796  -14.8151   20.2524 O   0  0  0  0  0  0  0  0  0  0  0  0
  -21.4736   -7.1071   21.7920 O   0  0  0  0  0  0  0  0  0  0  0  0
  -24.3135  -19.4317   24.6050 O   0  0  0  0  0  0  0  0  0  1  0  0
  -23.8063   -3.0841   24.7548 F   0  0  0  0  0  0  0  0  0  0  0  0
  -20.3838   -6.3072   24.2035 F   0  0  0  0  0  0  0  0  0  0  0  0
  1  2  1  0  0  0  0
  1  5  2  0  0  0  0
  2  6  2  0  0  0  0
  3  8  2  0  0  0  0
  3 15  1  0  0  0  0
  4  9  1  0  0  0  0
  4 15  2  0  0  0  0
  5 17  1  0  0  0  0
  6 19  1  0  0  0  0
  7 10  2  0  0  0  0
  7 18  1  0  0  0  0
  8 21  1  0  0  0  0
  9 21  2  0  0  0  0
 10 22  1  0  0  0  0
 11 12  2  0  0  0  0
 11 23  1  0  0  0  0
 12 24  1  0  0  0  0
 13 20  1  0  0  0  0
 13 22  2  0  0  0  0
 14 24  2  0  0  0  0
 14 25  1  0  0  0  0
 15 26  1  0  0  0  0
 16 26  1  0  0  0  0
 16 29  2  0  0  0  0
 16 31  1  0  0  0  0
 17 19  2  0  0  0  0
 17 36  1  0  0  0  0
 18 20  2  0  0  0  0
 18 37  1  0  0  0  0
 19 48  1  0  0  0  0
 20 38  1  0  0  0  0
 21 82  1  0  0  0  0
 22 83  1  0  0  0  0
 23 25  2  0  0  0  0
 23 82  1  0  0  0  0
 24 84  1  0  0  0  0
 25 85  1  0  0  0  0
 26 65  2  0  0  0  0
 27 28  2  0  0  0  0
 27 49  1  0  0  0  0
 27 67  1  0  0  0  0
 28 52  1  0  0  0  0
 28 66  1  0  0  0  0
 29 68  1  0  0  0  0
 29 71  1  0  0  0  0
 30 58  1  0  0  0  0
 30 66  2  0  0  0  0
 30 67  1  0  0  0  0
 31 72  1  0  0  0  0
 31 77  2  0  0  0  0
 32 50  1  0  0  0  0
 32 73  1  0  0  0  0
 32 78  2  0  0  0  0
 33 62  1  0  0  0  0
 33 69  1  0  0  0  0
 33 79  2  0  0  0  0
 34 63  1  0  0  0  0
 34 74  1  0  0  0  0
 34 80  2  0  0  0  0
 35 70  1  0  0  0  0
 35 75  1  0  0  0  0
 35 81  2  0  0  0  0
 36 39  1  0  0  0  0
 37 50  1  0  0  0  0
 38 69  1  0  0  0  0
 39 42  1  0  0  0  0
 40 43  1  0  0  0  0
 40 45  1  0  0  0  0
 41 44  1  0  0  0  0
 41 46  1  0  0  0  0
 42 48  1  0  0  0  0
 43 49  1  0  0  0  0
 44 51  1  0  0  0  0
 45 67  1  0  0  0  0
 46 70  1  0  0  0  0
 47 51  1  0  0  0  0
 47 70  1  0  0  0  0
 48 73  1  0  0  0  0
 49 59  1  0  0  0  0
 50 69  1  0  0  0  0
 51 68  1  0  0  0  0
 53 63  1  0  0  0  0
 54 64  1  0  0  0  0
 55 64  1  0  0  0  0
 56 64  1  0  0  0  0
 57 76  1  0  0  0  0
 58 60  1  0  0  0  0
 59 83  1  0  0  0  0
 60 61  1  0  0  0  0
 61 75  1  0  0  0  0
 62 64  1  0  0  0  0
 62 74  1  0  0  0  0
 63 76  1  0  0  0  0
 65 68  1  0  0  0  0
M  CHG  1  76   1
M  ISO  4  35 100  59 101  75 100  83 101
M  END
> <Batch ID>
0041

> <Smiles>
CNC(C)C(=O)NC(C(=O)N1Cc2cc([101O:1][101CH2:1]C3CCCn4c(CCC[100NH:0][100C:0](=O)N5CCCC(n6nc(-c7ccc(Oc8ccc(F)cc8F)cc7)c(C(N)=O)c6N)C5)nc(C)c43)ccc2CC1C(=O)NC1CCCc2ccccc21)C(C)(C)C

> <Shape>
0.170

> <Color>
0.193

> <Negative vol penalty>
0.000

$$$$

  -OEChem-04052317093D

 89 97  0     1  0  0  0  0  0999 V2000
  -19.5841  -34.0023   22.0535 C   0  0  0  0  0  0  0  0  0  0  0  0
  -20.8814  -33.6606   21.6854 C   0  0  0  0  0  0  0  0  0  0  0  0
  -25.4043  -15.5633   20.6343 C   0  0  0  0  0  0  0  0  0  0  0  0
  -27.6756  -15.0109   21.2450 C   0  0  0  0  0  0  0  0  0  0  0  0
  -18.8606  -33.1700   22.9066 C   0  0  0  0  0  0  0  0  0  0  0  0
  -21.4565  -32.4868   22.1711 C   0  0  0  0  0  0  0  0  0  0  0  0
  -25.3708  -28.8120   19.2249 C   0  0  0  0  0  0  0  0  0  0  0  0
  -25.1093  -14.2063   20.5036 C   0  0  0  0  0  0  0  0  0  0  0  0
  -27.3806  -13.6538   21.1144 C   0  0  0  0  0  0  0  0  0  0  0  0
  -26.7593  -28.6937   19.2674 C   0  0  0  0  0  0  0  0  0  0  0  0
  -24.4044  -11.6029   22.5428 C   0  0  0  0  0  0  0  0  0  0  0  0
  -23.2138  -11.1414   23.1041 C   0  0  0  0  0  0  0  0  0  0  0  0
  -26.5512  -26.8936   20.8597 C   0  0  0  0  0  0  0  0  0  0  0  0
  -22.4688  -10.4123   20.9246 C   0  0  0  0  0  0  0  0  0  0  0  0
  -26.6875  -15.9656   21.0049 C   0  0  0  0  0  0  0  0  0  0  0  0
  -26.8731  -18.1560   22.2994 C   0  0  0  0  0  0  0  0  0  0  0  0
  -19.4236  -31.9805   23.3953 C   0  0  0  0  0  0  0  0  0  0  0  0
  -24.5611  -27.9778   20.0091 C   0  0  0  0  0  0  0  0  0  0  0  0
  -20.7404  -31.6385   23.0326 C   0  0  0  0  0  0  0  0  0  0  0  0
  -25.1526  -27.0016   20.8234 C   0  0  0  0  0  0  0  0  0  0  0  0
  -26.0975  -13.2515   20.7437 C   0  0  0  0  0  0  0  0  0  0  0  0
  -27.3498  -27.7364   20.0871 C   0  0  0  0  0  0  0  0  0  0  0  0
  -24.6271  -11.4692   21.1723 C   0  0  0  0  0  0  0  0  0  0  0  0
  -22.2460  -10.5460   22.2950 C   0  0  0  0  0  0  0  0  0  0  0  0
  -23.6593  -10.8739   20.3632 C   0  0  0  0  0  0  0  0  0  0  0  0
  -26.9930  -17.3673   21.1394 C   0  0  0  0  0  0  0  0  0  0  0  0
  -32.6309  -27.7964   20.3107 C   0  0  0  0  0  0  0  0  0  0  0  0
  -33.4054  -26.7651   20.7945 C   0  0  0  0  0  0  0  0  0  0  0  0
  -30.7407  -26.6647   20.9239 C   0  0  0  0  0  0  0  0  0  0  0  0
  -31.5151  -25.6329   21.4070 C   0  0  0  0  0  0  0  0  0  0  0  0
  -27.2835  -19.4069   21.9080 C   0  0  0  0  0  0  0  0  0  0  0  0
  -26.4304  -17.7904   23.6132 C   0  0  0  0  0  0  0  0  0  0  0  0
  -22.4705  -28.4441   22.3577 C   0  0  0  0  0  0  0  0  0  0  0  0
  -21.9620  -25.2591   22.0119 C   0  0  0  0  0  0  0  0  0  0  0  0
  -23.1526  -22.2296   20.9864 C   0  0  0  0  0  0  0  0  0  0  0  0
  -30.8949  -21.3313   17.5370 C   0  0  0  0  0  0  0  0  0  0  0  0
  -18.6199  -31.1367   24.3527 C   0  0  0  0  0  0  0  0  0  0  0  0
  -23.0639  -28.1002   19.9317 C   0  0  0  0  0  0  0  0  0  0  0  0
  -24.3271  -26.0680   21.6693 C   0  0  0  0  0  0  0  0  0  0  0  0
  -19.1667  -29.7218   24.5243 C   0  0  0  0  0  0  0  0  0  0  0  0
  -27.4943  -22.2458   18.0626 C   0  0  0  0  0  0  0  0  0  0  0  0
  -20.6773  -29.7552   24.7341 C   0  0  0  0  0  0  0  0  0  0  0  0
  -26.9694  -21.1704   19.0154 C   0  0  0  0  0  0  0  0  0  0  0  0
  -28.4888  -21.6714   17.0561 C   0  0  0  0  0  0  0  0  0  0  0  0
  -29.0883  -19.8510   18.6054 C   0  0  0  0  0  0  0  0  0  0  0  0
  -21.3898  -30.3610   23.5189 C   0  0  1  0  0  0  0  0  0  0  0  0
  -22.3544  -27.5422   21.1616 C   0  0  1  0  0  0  0  0  0  0  0  0
  -28.1246  -20.3932   19.6748 C   0  0  2  0  0  0  0  0  0  0  0  0
  -33.2446  -29.0082   19.6974 C   0  0  0  0  0  0  0  0  0  0  0  0
  -31.2944  -24.2447   23.4993 C   0  0  0  0  0  0  0  0  0  0  0  0
  -31.2263  -23.1346   21.2370 C   0  0  0  0  0  0  0  0  0  0  0  0
  -23.1292  -19.7771   20.4556 C   0  0  0  0  0  0  0  0  0  0  0  0
  -22.4930  -24.9765   25.0033 C   0  0  0  0  0  0  0  0  0  0  0  0
  -22.7913  -22.5163   24.6471 C   0  0  0  0  0  0  0  0  0  0  0  0
  -20.5966  -23.5904   24.1448 C   0  0  0  0  0  0  0  0  0  0  0  0
  -22.1846  -22.7166   18.2324 C   0  0  0  0  0  0  0  0  0  0  0  0
  -34.8936  -26.8132   20.7273 C   0  0  0  0  0  0  0  0  0  0  0  0
  -29.2426  -26.6169   20.9927 C   0  0  0  0  0  0  0  0  0  1  0  0
  -33.7345  -21.8906   19.1657 C   0  0  0  0  0  0  0  0  0  0  0  0
  -35.2398  -22.1665   19.0722 C   0  0  0  0  0  0  0  0  0  0  0  0
  -33.2621  -20.8767   18.1277 C   0  0  0  0  0  0  0  0  0  0  0  0
  -35.5772  -25.4690   20.9844 C   0  0  0  0  0  0  0  0  0  0  0  0
  -35.7467  -23.1223   20.1459 C   0  0  0  0  0  0  0  0  0  0  0  0
  -30.9010  -24.4211   22.0200 C   0  0  0  0  0  0  0  0  0  0  0  0
  -22.5617  -24.0096   22.6103 C   0  0  1  0  0  0  0  0  0  0  0  0
  -22.5287  -21.1373   20.1366 C   0  0  2  0  0  0  0  0  0  0  0  0
  -22.1265  -23.7919   24.0870 C   0  0  0  0  0  0  0  0  0  0  0  0
  -27.4440  -18.0593   20.0898 N   0  0  0  0  0  0  0  0  0  0  0  0
  -31.2847  -27.7648   20.3668 N   0  0  0  0  0  0  0  0  0  0  0  0
  -32.8614  -25.6648   21.3512 N   0  0  0  0  0  0  0  0  0  0  0  0
  -27.6111  -19.2959   20.5887 N   0  0  0  0  0  0  0  0  0  0  0  0
  -22.8677  -26.2311   21.5639 N   0  0  0  0  0  0  0  0  0  0  0  0
  -29.5598  -20.9482   17.7459 N   0  0  0  0  0  0  0  0  0  0  0  0
  -27.3924  -20.5800   22.5670 N   0  0  0  0  0  0  0  0  0  0  0  0
  -26.0449  -16.4627   23.8430 N   0  0  0  0  0  0  0  0  0  0  0  0
  -21.4701  -29.3933   22.4458 N   0  0  0  0  0  0  0  0  0  0  0  0
  -22.2034  -22.9154   21.7143 N   0  0  0  0  0  0  0  0  0  0  0  0
  -31.8473  -20.5979   18.2340 N   0  0  0  0  0  0  0  0  0  0  0  0
  -22.7458  -21.4193   18.6895 N   0  3  0  0  0  0  0  0  0  0  0  0
  -35.0964  -24.4546   20.0142 N   0  3  0  0  0  0  0  0  0  0  0  0
  -26.3627  -18.6205   24.5512 O   0  0  0  0  0  0  0  0  0  0  0  0
  -23.3981  -28.2893   23.1433 O   0  0  0  0  0  0  0  0  0  0  0  0
  -20.7353  -25.3656   21.9379 O   0  0  0  0  0  0  0  0  0  0  0  0
  -24.3616  -22.4499   21.0055 O   0  0  0  0  0  0  0  0  0  0  0  0
  -31.2142  -22.2617   16.7892 O   0  0  0  0  0  0  0  0  0  0  0  0
  -25.8099  -11.9273   20.6166 O   0  0  0  0  0  0  0  0  0  0  0  0
  -28.7049  -27.6193   20.1310 O   0  0  0  0  0  0  0  0  0  1  0  0
  -21.1034  -10.1015   22.8345 F   0  0  0  0  0  0  0  0  0  0  0  0
  -23.8682  -10.7417   19.0461 F   0  0  0  0  0  0  0  0  0  0  0  0
  1  2  1  0  0  0  0
  1  5  2  0  0  0  0
  2  6  2  0  0  0  0
  3  8  2  0  0  0  0
  3 15  1  0  0  0  0
  4  9  1  0  0  0  0
  4 15  2  0  0  0  0
  5 17  1  0  0  0  0
  6 19  1  0  0  0  0
  7 10  2  0  0  0  0
  7 18  1  0  0  0  0
  8 21  1  0  0  0  0
  9 21  2  0  0  0  0
 10 22  1  0  0  0  0
 11 12  2  0  0  0  0
 11 23  1  0  0  0  0
 12 24  1  0  0  0  0
 13 20  1  0  0  0  0
 13 22  2  0  0  0  0
 14 24  2  0  0  0  0
 14 25  1  0  0  0  0
 15 26  1  0  0  0  0
 16 26  1  0  0  0  0
 16 31  2  0  0  0  0
 16 32  1  0  0  0  0
 17 19  2  0  0  0  0
 17 37  1  0  0  0  0
 18 20  2  0  0  0  0
 18 38  1  0  0  0  0
 19 46  1  0  0  0  0
 20 39  1  0  0  0  0
 21 86  1  0  0  0  0
 22 87  1  0  0  0  0
 23 25  2  0  0  0  0
 23 86  1  0  0  0  0
 24 88  1  0  0  0  0
 25 89  1  0  0  0  0
 26 68  2  0  0  0  0
 27 28  1  0  0  0  0
 27 49  1  0  0  0  0
 27 69  2  0  0  0  0
 28 57  1  0  0  0  0
 28 70  2  0  0  0  0
 29 30  2  0  0  0  0
 29 58  1  0  0  0  0
 29 69  1  0  0  0  0
 30 64  1  0  0  0  0
 30 70  1  0  0  0  0
 31 71  1  0  0  0  0
 31 74  1  0  0  0  0
 32 75  1  0  0  0  0
 32 81  2  0  0  0  0
 33 47  1  0  0  0  0
 33 76  1  0  0  0  0
 33 82  2  0  0  0  0
 34 65  1  0  0  0  0
 34 72  1  0  0  0  0
 34 83  2  0  0  0  0
 35 66  1  0  0  0  0
 35 77  1  0  0  0  0
 35 84  2  0  0  0  0
 36 73  1  0  0  0  0
 36 78  1  0  0  0  0
 36 85  2  0  0  0  0
 37 40  1  0  0  0  0
 38 47  1  0  0  0  0
 39 72  1  0  0  0  0
 40 42  1  0  0  0  0
 41 43  1  0  0  0  0
 41 44  1  0  0  0  0
 42 46  1  0  0  0  0
 43 48  1  0  0  0  0
 44 73  1  0  0  0  0
 45 48  1  0  0  0  0
 45 73  1  0  0  0  0
 46 76  1  0  0  0  0
 47 72  1  0  0  0  0
 48 71  1  0  0  0  0
 50 64  1  0  0  0  0
 51 64  1  0  0  0  0
 52 66  1  0  0  0  0
 53 67  1  0  0  0  0
 54 67  1  0  0  0  0
 55 67  1  0  0  0  0
 56 79  1  0  0  0  0
 57 62  1  0  0  0  0
 58 87  1  0  0  0  0
 59 60  1  0  0  0  0
 59 61  1  0  0  0  0
 60 63  1  0  0  0  0
 61 78  1  0  0  0  0
 62 80  1  0  0  0  0
 63 80  1  0  0  0  0
 65 67  1  0  0  0  0
 65 77  1  0  0  0  0
 66 79  1  0  0  0  0
 68 71  1  0  0  0  0
M  CHG  2  79   1  80   1
M  ISO  4  36 100  58 101  78 100  87 101
M  END
> <Batch ID>
0041

> <Smiles>
CNC(C)C(=O)NC(C(=O)N1Cc2cc([101O:1][101CH2:1]c3nc(C)c(CCNCCCC[100NH:0][100C:0](=O)N4CCCC(n5nc(-c6ccc(Oc7ccc(F)cc7F)cc6)c(C(N)=O)c5N)C4)nc3C(C)C)ccc2CC1C(=O)NC1CCCc2ccccc21)C(C)(C)C

> <Shape>
0.179

> <Color>
0.072

> <Negative vol penalty>
0.000

$$$$

  -OEChem-04052317093D

 84 92  0     1  0  0  0  0  0999 V2000
  -21.5357  -27.8864   21.1384 C   0  0  0  0  0  0  0  0  0  0  0  0
  -22.3241  -26.8501   20.6485 C   0  0  0  0  0  0  0  0  0  0  0  0
  -23.7223   -9.8856   22.0462 C   0  0  0  0  0  0  0  0  0  0  0  0
  -24.3020  -11.2404   23.9607 C   0  0  0  0  0  0  0  0  0  0  0  0
  -22.1100  -29.1261   21.4166 C   0  0  0  0  0  0  0  0  0  0  0  0
  -23.6871  -27.0533   20.4355 C   0  0  0  0  0  0  0  0  0  0  0  0
  -26.5148  -23.2219   22.1589 C   0  0  0  0  0  0  0  0  0  0  0  0
  -23.1714   -8.9241   22.8933 C   0  0  0  0  0  0  0  0  0  0  0  0
  -23.7510  -10.2789   24.8079 C   0  0  0  0  0  0  0  0  0  0  0  0
  -26.5715  -22.0699   21.3757 C   0  0  0  0  0  0  0  0  0  0  0  0
  -20.3066   -8.4869   24.6354 C   0  0  0  0  0  0  0  0  0  0  0  0
  -19.0656   -7.9525   24.2892 C   0  0  0  0  0  0  0  0  0  0  0  0
  -28.7105  -22.7717   20.5088 C   0  0  0  0  0  0  0  0  0  0  0  0
  -29.5345  -17.5616   21.3159 C   0  0  0  0  0  0  0  0  0  0  0  0
  -20.0447   -5.7462   24.1852 C   0  0  0  0  0  0  0  0  0  0  0  0
  -24.2876  -11.0437   22.5799 C   0  0  0  0  0  0  0  0  0  0  0  0
  -24.1986  -13.1380   21.1260 C   0  0  0  0  0  0  0  0  0  0  0  0
  -23.4825  -29.3416   21.2160 C   0  0  0  0  0  0  0  0  0  0  0  0
  -27.5522  -24.1644   22.1146 C   0  0  0  0  0  0  0  0  0  0  0  0
  -24.2800  -28.2974   20.7100 C   0  0  0  0  0  0  0  0  0  0  0  0
  -28.6658  -23.9336   21.2943 C   0  0  0  0  0  0  0  0  0  0  0  0
  -30.8797  -17.4933   21.6609 C   0  0  0  0  0  0  0  0  0  0  0  0
  -31.8345  -18.0707   20.8314 C   0  0  0  0  0  0  0  0  0  0  0  0
  -23.1857   -9.1208   24.2742 C   0  0  0  0  0  0  0  0  0  0  0  0
  -27.6680  -21.8460   20.5483 C   0  0  0  0  0  0  0  0  0  0  0  0
  -21.4167   -7.6510   24.7565 C   0  0  0  0  0  0  0  0  0  0  0  0
  -18.9346   -6.5822   24.0641 C   0  0  0  0  0  0  0  0  0  0  0  0
  -21.2857   -6.2806   24.5314 C   0  0  0  0  0  0  0  0  0  0  0  0
  -24.8574  -12.0370   21.7054 C   0  0  0  0  0  0  0  0  0  0  0  0
  -29.1987  -18.2134   20.1402 C   0  0  0  0  0  0  0  0  0  0  0  0
  -31.3958  -18.6995   19.6773 C   0  0  0  0  0  0  0  0  0  0  0  0
  -25.1692  -13.7688   20.3868 C   0  0  0  0  0  0  0  0  0  0  0  0
  -22.8315  -13.5533   21.2454 C   0  0  0  0  0  0  0  0  0  0  0  0
  -27.7694  -27.2237   21.2795 C   0  0  0  0  0  0  0  0  0  0  0  0
  -30.7980  -26.9107   22.3984 C   0  0  0  0  0  0  0  0  0  0  0  0
  -33.4285  -24.8535   23.1022 C   0  0  0  0  0  0  0  0  0  0  0  0
  -31.1405  -13.9369   20.7947 C   0  0  0  0  0  0  0  0  0  0  0  0
  -24.0492  -30.7129   21.4864 C   0  0  0  0  0  0  0  0  0  0  0  0
  -27.4885  -25.3890   22.9857 C   0  0  0  0  0  0  0  0  0  0  0  0
  -29.8151  -24.9046   21.2259 C   0  0  0  0  0  0  0  0  0  0  0  0
  -25.5722  -30.7336   21.5875 C   0  0  0  0  0  0  0  0  0  0  0  0
  -29.2150  -12.8877   17.9897 C   0  0  0  0  0  0  0  0  0  0  0  0
  -26.1941  -29.9434   20.4405 C   0  0  0  0  0  0  0  0  0  0  0  0
  -27.8204  -12.6500   18.5716 C   0  0  0  0  0  0  0  0  0  0  0  0
  -30.3126  -12.4802   18.9701 C   0  0  0  0  0  0  0  0  0  0  0  0
  -28.8127  -12.8557   20.8893 C   0  0  0  0  0  0  0  0  0  0  0  0
  -25.7670  -28.4714   20.4893 C   0  0  1  0  0  0  0  0  0  0  0  0
  -28.3608  -26.5316   22.4749 C   0  0  1  0  0  0  0  0  0  0  0  0
  -27.6728  -13.3038   19.9587 C   0  0  2  0  0  0  0  0  0  0  0  0
  -33.2846  -18.0151   21.1771 C   0  0  0  0  0  0  0  0  0  0  0  0
  -31.9185  -19.2728   17.2930 C   0  0  0  0  0  0  0  0  0  0  0  0
  -35.7822  -24.8927   23.9716 C   0  0  0  0  0  0  0  0  0  0  0  0
  -31.7672  -28.0009   19.7184 C   0  0  0  0  0  0  0  0  0  0  0  0
  -34.0511  -27.1378   20.2723 C   0  0  0  0  0  0  0  0  0  0  0  0
  -32.9968  -28.8828   21.7096 C   0  0  0  0  0  0  0  0  0  0  0  0
  -32.7322  -23.1216   25.3988 C   0  0  0  0  0  0  0  0  0  0  0  0
  -31.2712  -16.7946   22.9209 C   0  0  0  0  0  0  0  0  0  0  0  0
  -27.7480  -18.3083   19.7344 C   0  0  0  0  0  0  0  0  0  0  0  0
  -32.3743  -19.3395   18.7474 C   0  0  0  0  0  0  0  0  0  0  0  0
  -31.8229  -15.3830   22.6926 C   0  0  0  0  0  0  0  0  0  0  0  0
  -27.0721  -19.5586   20.2865 C   0  0  0  0  0  0  0  0  0  1  0  0
  -32.1239  -26.5116   21.7971 C   0  0  1  0  0  0  0  0  0  0  0  0
  -34.3129  -24.7335   24.3301 C   0  0  2  0  0  0  0  0  0  0  0  0
  -32.7124  -27.6157   20.8739 C   0  0  0  0  0  0  0  0  0  0  0  0
  -26.1468  -11.9694   21.3635 N   0  0  0  0  0  0  0  0  0  0  0  0
  -30.0979  -18.7861   19.3090 N   0  0  0  0  0  0  0  0  0  0  0  0
  -26.3060  -13.0357   20.5612 N   0  0  0  0  0  0  0  0  0  0  0  0
  -29.7033  -26.0900   22.0917 N   0  0  0  0  0  0  0  0  0  0  0  0
  -30.1154  -13.1358   20.2652 N   0  0  0  0  0  0  0  0  0  0  0  0
  -25.1526  -14.8735   19.6110 N   0  0  0  0  0  0  0  0  0  0  0  0
  -21.9691  -12.7911   22.0450 N   0  0  0  0  0  0  0  0  0  0  0  0
  -26.5162  -27.7611   21.5035 N   0  0  0  0  0  0  0  0  0  0  0  0
  -32.9860  -26.1461   22.9158 N   0  0  0  0  0  0  0  0  0  0  0  0
  -30.8694  -14.5265   22.0233 N   0  0  0  0  0  0  0  0  0  0  0  0
  -34.1277  -23.4021   24.9736 N   0  3  0  0  0  0  0  0  0  0  0  0
  -22.3840  -14.5610   20.6473 O   0  0  0  0  0  0  0  0  0  0  0  0
  -28.4037  -27.2682   20.2320 O   0  0  0  0  0  0  0  0  0  0  0  0
  -30.7372  -27.9096   23.1196 O   0  0  0  0  0  0  0  0  0  0  0  0
  -33.1602  -23.8971   22.3784 O   0  0  0  0  0  0  0  0  0  0  0  0
  -32.2156  -14.1178   20.2129 O   0  0  0  0  0  0  0  0  0  0  0  0
  -22.6480   -8.1829   25.1011 O   0  0  0  0  0  0  0  0  0  0  0  0
  -27.7256  -20.7227   19.7824 O   0  0  0  0  0  0  0  0  0  1  0  0
  -17.7425   -6.0689   23.7331 F   0  0  0  0  0  0  0  0  0  0  0  0
  -22.3483   -5.4724   24.6474 F   0  0  0  0  0  0  0  0  0  0  0  0
  1  2  1  0  0  0  0
  1  5  2  0  0  0  0
  2  6  2  0  0  0  0
  3  8  2  0  0  0  0
  3 16  1  0  0  0  0
  4  9  1  0  0  0  0
  4 16  2  0  0  0  0
  5 18  1  0  0  0  0
  6 20  1  0  0  0  0
  7 10  2  0  0  0  0
  7 19  1  0  0  0  0
  8 24  1  0  0  0  0
  9 24  2  0  0  0  0
 10 25  1  0  0  0  0
 11 12  2  0  0  0  0
 11 26  1  0  0  0  0
 12 27  1  0  0  0  0
 13 21  1  0  0  0  0
 13 25  2  0  0  0  0
 14 22  2  0  0  0  0
 14 30  1  0  0  0  0
 15 27  2  0  0  0  0
 15 28  1  0  0  0  0
 16 29  1  0  0  0  0
 17 29  1  0  0  0  0
 17 32  2  0  0  0  0
 17 33  1  0  0  0  0
 18 20  2  0  0  0  0
 18 38  1  0  0  0  0
 19 21  2  0  0  0  0
 19 39  1  0  0  0  0
 20 47  1  0  0  0  0
 21 40  1  0  0  0  0
 22 23  1  0  0  0  0
 22 57  1  0  0  0  0
 23 31  2  0  0  0  0
 23 50  1  0  0  0  0
 24 81  1  0  0  0  0
 25 82  1  0  0  0  0
 26 28  2  0  0  0  0
 26 81  1  0  0  0  0
 27 83  1  0  0  0  0
 28 84  1  0  0  0  0
 29 65  2  0  0  0  0
 30 58  1  0  0  0  0
 30 66  2  0  0  0  0
 31 59  1  0  0  0  0
 31 66  1  0  0  0  0
 32 67  1  0  0  0  0
 32 70  1  0  0  0  0
 33 71  1  0  0  0  0
 33 76  2  0  0  0  0
 34 48  1  0  0  0  0
 34 72  1  0  0  0  0
 34 77  2  0  0  0  0
 35 62  1  0  0  0  0
 35 68  1  0  0  0  0
 35 78  2  0  0  0  0
 36 63  1  0  0  0  0
 36 73  1  0  0  0  0
 36 79  2  0  0  0  0
 37 69  1  0  0  0  0
 37 74  1  0  0  0  0
 37 80  2  0  0  0  0
 38 41  1  0  0  0  0
 39 48  1  0  0  0  0
 40 68  1  0  0  0  0
 41 43  1  0  0  0  0
 42 44  1  0  0  0  0
 42 45  1  0  0  0  0
 43 47  1  0  0  0  0
 44 49  1  0  0  0  0
 45 69  1  0  0  0  0
 46 49  1  0  0  0  0
 46 69  1  0  0  0  0
 47 72  1  0  0  0  0
 48 68  1  0  0  0  0
 49 67  1  0  0  0  0
 51 59  1  0  0  0  0
 52 63  1  0  0  0  0
 53 64  1  0  0  0  0
 54 64  1  0  0  0  0
 55 64  1  0  0  0  0
 56 75  1  0  0  0  0
 57 60  1  0  0  0  0
 58 61  1  0  0  0  0
 60 74  1  0  0  0  0
 61 82  1  0  0  0  0
 62 64  1  0  0  0  0
 62 73  1  0  0  0  0
 63 75  1  0  0  0  0
 65 67  1  0  0  0  0
M  CHG  1  75   1
M  ISO  4  37 100  61 101  74 100  82 101
M  END
> <Batch ID>
0041

> <Smiles>
CCc1nc(C[101CH2:1][101O:1]c2ccc3c(c2)CN(C(=O)C(NC(=O)C(C)NC)C(C)(C)C)C(C(=O)NC2CCCc4ccccc42)C3)cc(CC[100NH:0][100C:0](=O)N2CCCC(n3nc(-c4ccc(Oc5ccc(F)cc5F)cc4)c(C(N)=O)c3N)C2)c1C

> <Shape>
0.279

> <Color>
0.155

> <Negative vol penalty>
0.000

$$$$

  -OEChem-04052317093D

 84 92  0     1  0  0  0  0  0999 V2000
  -19.4016  -34.3067   22.6674 C   0  0  0  0  0  0  0  0  0  0  0  0
  -19.6679  -33.3264   21.7169 C   0  0  0  0  0  0  0  0  0  0  0  0
  -26.1888  -13.0898   21.5156 C   0  0  0  0  0  0  0  0  0  0  0  0
  -25.8625  -13.7398   19.2117 C   0  0  0  0  0  0  0  0  0  0  0  0
  -20.4401  -35.0900   23.1692 C   0  0  0  0  0  0  0  0  0  0  0  0
  -20.9729  -33.1296   21.2667 C   0  0  0  0  0  0  0  0  0  0  0  0
  -22.2309  -28.2296   21.0382 C   0  0  0  0  0  0  0  0  0  0  0  0
  -24.9971  -12.3658   21.4801 C   0  0  0  0  0  0  0  0  0  0  0  0
  -24.6708  -13.0158   19.1762 C   0  0  0  0  0  0  0  0  0  0  0  0
  -21.7533  -27.4997   19.9506 C   0  0  0  0  0  0  0  0  0  0  0  0
  -22.2239  -10.0508   21.8869 C   0  0  0  0  0  0  0  0  0  0  0  0
  -22.2256   -8.7714   22.4426 C   0  0  0  0  0  0  0  0  0  0  0  0
  -23.8981  -27.7200   18.8686 C   0  0  0  0  0  0  0  0  0  0  0  0
  -24.5143  -23.0179   15.9439 C   0  0  0  0  0  0  0  0  0  0  0  0
  -23.9348   -8.0931   20.8755 C   0  0  0  0  0  0  0  0  0  0  0  0
  -24.0651  -22.5294   18.2278 C   0  0  0  0  0  0  0  0  0  0  0  0
  -26.6215  -13.7769   20.3814 C   0  0  0  0  0  0  0  0  0  0  0  0
  -29.1417  -14.0569   20.1025 C   0  0  0  0  0  0  0  0  0  0  0  0
  -21.7600  -34.8962   22.7320 C   0  0  0  0  0  0  0  0  0  0  0  0
  -23.5445  -28.7204   21.0444 C   0  0  0  0  0  0  0  0  0  0  0  0
  -22.0299  -33.9120   21.7620 C   0  0  0  0  0  0  0  0  0  0  0  0
  -24.3907  -28.4537   19.9586 C   0  0  0  0  0  0  0  0  0  0  0  0
  -24.9126  -22.4247   17.1367 C   0  0  0  0  0  0  0  0  0  0  0  0
  -23.2979  -23.6884   15.8796 C   0  0  0  0  0  0  0  0  0  0  0  0
  -24.2381  -12.3288   20.3104 C   0  0  0  0  0  0  0  0  0  0  0  0
  -22.5860  -27.2472   18.8643 C   0  0  0  0  0  0  0  0  0  0  0  0
  -23.0776  -10.3513   20.8254 C   0  0  0  0  0  0  0  0  0  0  0  0
  -23.0810   -7.7926   21.9369 C   0  0  0  0  0  0  0  0  0  0  0  0
  -23.9330   -9.3724   20.3198 C   0  0  0  0  0  0  0  0  0  0  0  0
  -27.8521  -14.5255   20.4176 C   0  0  0  0  0  0  0  0  0  0  0  0
  -22.5226  -23.7364   17.0270 C   0  0  0  0  0  0  0  0  0  0  0  0
  -29.9583  -15.1448   20.2929 C   0  0  0  0  0  0  0  0  0  0  0  0
  -29.5637  -12.7548   19.6759 C   0  0  0  0  0  0  0  0  0  0  0  0
  -24.8579  -31.6129   21.1542 C   0  0  0  0  0  0  0  0  0  0  0  0
  -27.6173  -29.9243   21.3921 C   0  0  0  0  0  0  0  0  0  0  0  0
  -29.2879  -27.0064   20.8075 C   0  0  0  0  0  0  0  0  0  0  0  0
  -28.9805  -21.0504   20.1574 C   0  0  0  0  0  0  0  0  0  0  0  0
  -22.8423  -35.7992   23.2684 C   0  0  0  0  0  0  0  0  0  0  0  0
  -24.0529  -29.4832   22.2369 C   0  0  0  0  0  0  0  0  0  0  0  0
  -25.8155  -28.9410   19.9252 C   0  0  0  0  0  0  0  0  0  0  0  0
  -24.2536  -35.2750   23.0158 C   0  0  0  0  0  0  0  0  0  0  0  0
  -30.3047  -19.1614   22.8693 C   0  0  0  0  0  0  0  0  0  0  0  0
  -24.3984  -34.8062   21.5715 C   0  0  0  0  0  0  0  0  0  0  0  0
  -29.9427  -17.7168   22.5201 C   0  0  0  0  0  0  0  0  0  0  0  0
  -29.2069  -20.1359   22.4484 C   0  0  0  0  0  0  0  0  0  0  0  0
  -28.4408  -18.5952   20.6840 C   0  0  0  0  0  0  0  0  0  0  0  0
  -23.4361  -33.6517   21.2671 C   0  0  1  0  0  0  0  0  0  0  0  0
  -25.2472  -30.3747   21.9111 C   0  0  1  0  0  0  0  0  0  0  0  0
  -29.5421  -17.5816   21.0387 C   0  0  2  0  0  0  0  0  0  0  0  0
  -21.8054  -23.5085   13.8729 C   0  0  0  0  0  0  0  0  0  0  0  0
  -31.5430  -25.9393   21.0783 C   0  0  0  0  0  0  0  0  0  0  0  0
  -28.6631  -31.5389   19.0237 C   0  0  0  0  0  0  0  0  0  0  0  0
  -30.4694  -29.8279   18.7443 C   0  0  0  0  0  0  0  0  0  0  0  0
  -30.3321  -31.1620   20.8477 C   0  0  0  0  0  0  0  0  0  0  0  0
  -28.2022  -24.8857   22.5633 C   0  0  0  0  0  0  0  0  0  0  0  0
  -26.2071  -21.6996   17.2381 C   0  0  0  0  0  0  0  0  0  0  0  0
  -22.8659  -24.3278   14.6053 C   0  0  0  0  0  0  0  0  0  0  0  0
  -21.1923  -24.4495   17.0164 C   0  0  0  0  0  0  0  0  0  0  0  0
  -27.4034  -22.5774   17.6624 C   0  0  0  0  0  0  0  0  0  0  0  0
  -28.7185  -21.8154   17.8111 C   0  0  0  0  0  0  0  0  0  0  0  0
  -21.1189  -25.5553   18.0637 C   0  0  0  0  0  0  0  0  0  1  0  0
  -28.6137  -29.3602   20.4083 C   0  0  1  0  0  0  0  0  0  0  0  0
  -30.1725  -26.1558   21.7010 C   0  0  2  0  0  0  0  0  0  0  0  0
  -29.4922  -30.4646   19.7555 C   0  0  0  0  0  0  0  0  0  0  0  0
  -22.8761  -23.1723   18.2036 N   0  0  0  0  0  0  0  0  0  0  0  0
  -27.8449  -15.8108   20.7807 N   0  0  0  0  0  0  0  0  0  0  0  0
  -29.1401  -16.1592   20.6951 N   0  0  0  0  0  0  0  0  0  0  0  0
  -26.2640  -29.6878   21.1120 N   0  0  0  0  0  0  0  0  0  0  0  0
  -28.8748  -19.9571   21.0329 N   0  0  0  0  0  0  0  0  0  0  0  0
  -31.2892  -15.3230   20.1540 N   0  0  0  0  0  0  0  0  0  0  0  0
  -28.5948  -11.7525   19.5311 N   0  0  0  0  0  0  0  0  0  0  0  0
  -23.9445  -32.4122   21.8146 N   0  0  0  0  0  0  0  0  0  0  0  0
  -29.3708  -28.3442   21.1313 N   0  0  0  0  0  0  0  0  0  0  0  0
  -28.6531  -20.7933   18.8317 N   0  0  0  0  0  0  0  0  0  0  0  0
  -29.5460  -24.8236   21.9330 N   0  3  0  0  0  0  0  0  0  0  0  0
  -30.7667  -12.4835   19.4461 O   0  0  0  0  0  0  0  0  0  0  0  0
  -25.3509  -31.8280   20.0531 O   0  0  0  0  0  0  0  0  0  0  0  0
  -28.0250  -30.5455   22.3768 O   0  0  0  0  0  0  0  0  0  0  0  0
  -28.5957  -26.5321   19.9095 O   0  0  0  0  0  0  0  0  0  0  0  0
  -29.3451  -22.1713   20.5286 O   0  0  0  0  0  0  0  0  0  0  0  0
  -23.0753  -11.6222   20.2754 O   0  0  0  0  0  0  0  0  0  0  0  0
  -22.1222  -26.5356   17.8012 O   0  0  0  0  0  0  0  0  0  1  0  0
  -23.0837   -6.5645   22.4716 F   0  0  0  0  0  0  0  0  0  0  0  0
  -24.7563   -9.6555   19.3010 F   0  0  0  0  0  0  0  0  0  0  0  0
  1  2  1  0  0  0  0
  1  5  2  0  0  0  0
  2  6  2  0  0  0  0
  3  8  2  0  0  0  0
  3 17  1  0  0  0  0
  4  9  1  0  0  0  0
  4 17  2  0  0  0  0
  5 19  1  0  0  0  0
  6 21  1  0  0  0  0
  7 10  2  0  0  0  0
  7 20  1  0  0  0  0
  8 25  1  0  0  0  0
  9 25  2  0  0  0  0
 10 26  1  0  0  0  0
 11 12  2  0  0  0  0
 11 27  1  0  0  0  0
 12 28  1  0  0  0  0
 13 22  1  0  0  0  0
 13 26  2  0  0  0  0
 14 23  2  0  0  0  0
 14 24  1  0  0  0  0
 15 28  2  0  0  0  0
 15 29  1  0  0  0  0
 16 23  1  0  0  0  0
 16 65  2  0  0  0  0
 17 30  1  0  0  0  0
 18 30  1  0  0  0  0
 18 32  2  0  0  0  0
 18 33  1  0  0  0  0
 19 21  2  0  0  0  0
 19 38  1  0  0  0  0
 20 22  2  0  0  0  0
 20 39  1  0  0  0  0
 21 47  1  0  0  0  0
 22 40  1  0  0  0  0
 23 56  1  0  0  0  0
 24 31  2  0  0  0  0
 24 57  1  0  0  0  0
 25 81  1  0  0  0  0
 26 82  1  0  0  0  0
 27 29  2  0  0  0  0
 27 81  1  0  0  0  0
 28 83  1  0  0  0  0
 29 84  1  0  0  0  0
 30 66  2  0  0  0  0
 31 58  1  0  0  0  0
 31 65  1  0  0  0  0
 32 67  1  0  0  0  0
 32 70  1  0  0  0  0
 33 71  1  0  0  0  0
 33 76  2  0  0  0  0
 34 48  1  0  0  0  0
 34 72  1  0  0  0  0
 34 77  2  0  0  0  0
 35 62  1  0  0  0  0
 35 68  1  0  0  0  0
 35 78  2  0  0  0  0
 36 63  1  0  0  0  0
 36 73  1  0  0  0  0
 36 79  2  0  0  0  0
 37 69  1  0  0  0  0
 37 74  1  0  0  0  0
 37 80  2  0  0  0  0
 38 41  1  0  0  0  0
 39 48  1  0  0  0  0
 40 68  1  0  0  0  0
 41 43  1  0  0  0  0
 42 44  1  0  0  0  0
 42 45  1  0  0  0  0
 43 47  1  0  0  0  0
 44 49  1  0  0  0  0
 45 69  1  0  0  0  0
 46 49  1  0  0  0  0
 46 69  1  0  0  0  0
 47 72  1  0  0  0  0
 48 68  1  0  0  0  0
 49 67  1  0  0  0  0
 50 57  1  0  0  0  0
 51 63  1  0  0  0  0
 52 64  1  0  0  0  0
 53 64  1  0  0  0  0
 54 64  1  0  0  0  0
 55 75  1  0  0  0  0
 56 59  1  0  0  0  0
 58 61  1  0  0  0  0
 59 60  1  0  0  0  0
 60 74  1  0  0  0  0
 61 82  1  0  0  0  0
 62 64  1  0  0  0  0
 62 73  1  0  0  0  0
 63 75  1  0  0  0  0
 66 67  1  0  0  0  0
M  CHG  1  75   1
M  ISO  4  37 100  61 101  74 100  82 101
M  END
> <Batch ID>
0041

> <Smiles>
CCc1cc(CCC[100NH:0][100C:0](=O)N2CCCC(n3nc(-c4ccc(Oc5ccc(F)cc5F)cc4)c(C(N)=O)c3N)C2)cnc1C[101CH2:1][101O:1]c1ccc2c(c1)CN(C(=O)C(NC(=O)C(C)NC)C(C)(C)C)C(C(=O)NC1CCCc3ccccc31)C2

> <Shape>
0.254

> <Color>
0.070

> <Negative vol penalty>
0.000

$$$$

  -OEChem-04052317093D

 83 91  0     1  0  0  0  0  0999 V2000
  -25.8071  -11.4639   20.9900 C   0  0  0  0  0  0  0  0  0  0  0  0
  -26.6161  -12.5798   21.1791 C   0  0  0  0  0  0  0  0  0  0  0  0
  -26.6893  -28.3870   19.0402 C   0  0  0  0  0  0  0  0  0  0  0  0
  -26.4082  -27.2415   21.1487 C   0  0  0  0  0  0  0  0  0  0  0  0
  -24.5201  -11.6164   20.4759 C   0  0  0  0  0  0  0  0  0  0  0  0
  -26.1389  -13.8488   20.8531 C   0  0  0  0  0  0  0  0  0  0  0  0
  -27.1782  -17.2904   24.4196 C   0  0  0  0  0  0  0  0  0  0  0  0
  -25.4922  -29.0708   19.2520 C   0  0  0  0  0  0  0  0  0  0  0  0
  -25.2111  -27.9253   21.3606 C   0  0  0  0  0  0  0  0  0  0  0  0
  -28.4768  -17.7963   24.4571 C   0  0  0  0  0  0  0  0  0  0  0  0
  -22.0045  -27.7193   20.3088 C   0  0  0  0  0  0  0  0  0  0  0  0
  -20.9097  -26.9838   20.7627 C   0  0  0  0  0  0  0  0  0  0  0  0
  -27.7343  -19.7724   23.2897 C   0  0  0  0  0  0  0  0  0  0  0  0
  -31.6228  -17.4997   20.4752 C   0  0  0  0  0  0  0  0  0  0  0  0
  -20.8025  -28.3648   22.7422 C   0  0  0  0  0  0  0  0  0  0  0  0
  -33.9408  -17.2656   19.9971 C   0  0  0  0  0  0  0  0  0  0  0  0
  -27.1474  -27.4723   19.9885 C   0  0  0  0  0  0  0  0  0  0  0  0
  -29.6743  -27.1686   20.1614 C   0  0  0  0  0  0  0  0  0  0  0  0
  -24.0234  -12.8889   20.1525 C   0  0  0  0  0  0  0  0  0  0  0  0
  -26.1483  -18.0181   23.8062 C   0  0  0  0  0  0  0  0  0  0  0  0
  -24.8445  -14.0183   20.3329 C   0  0  0  0  0  0  0  0  0  0  0  0
  -26.4230  -19.2747   23.2480 C   0  0  0  0  0  0  0  0  0  0  0  0
  -32.9144  -17.2542   20.9277 C   0  0  0  0  0  0  0  0  0  0  0  0
  -31.4001  -17.7456   19.1250 C   0  0  0  0  0  0  0  0  0  0  0  0
  -24.7531  -28.8400   20.4122 C   0  0  0  0  0  0  0  0  0  0  0  0
  -28.7557  -19.0361   23.8895 C   0  0  0  0  0  0  0  0  0  0  0  0
  -22.4984  -28.7775   21.0717 C   0  0  0  0  0  0  0  0  0  0  0  0
  -20.3086  -27.3066   21.9793 C   0  0  0  0  0  0  0  0  0  0  0  0
  -21.8974  -29.1003   22.2883 C   0  0  0  0  0  0  0  0  0  0  0  0
  -28.3836  -26.7652   19.7700 C   0  0  0  0  0  0  0  0  0  0  0  0
  -32.4943  -17.7353   18.2750 C   0  0  0  0  0  0  0  0  0  0  0  0
  -30.4969  -26.1595   19.7238 C   0  0  0  0  0  0  0  0  0  0  0  0
  -30.0923  -28.3499   20.8583 C   0  0  0  0  0  0  0  0  0  0  0  0
  -24.2134  -17.5186   21.3343 C   0  0  0  0  0  0  0  0  0  0  0  0
  -22.8440  -20.2790   22.3477 C   0  0  0  0  0  0  0  0  0  0  0  0
  -23.1658  -23.2164   24.0550 C   0  0  0  0  0  0  0  0  0  0  0  0
  -29.4943  -20.4320   18.7014 C   0  0  0  0  0  0  0  0  0  0  0  0
  -22.6429  -12.9991   19.5553 C   0  0  0  0  0  0  0  0  0  0  0  0
  -24.7474  -17.4705   23.7977 C   0  0  0  0  0  0  0  0  0  0  0  0
  -25.3487  -20.1045   22.5955 C   0  0  0  0  0  0  0  0  0  0  0  0
  -22.0770  -14.4165   19.5866 C   0  0  0  0  0  0  0  0  0  0  0  0
  -30.8301  -22.8093   16.3220 C   0  0  0  0  0  0  0  0  0  0  0  0
  -23.1204  -15.4187   19.1032 C   0  0  0  0  0  0  0  0  0  0  0  0
  -30.4701  -24.1394   16.9863 C   0  0  0  0  0  0  0  0  0  0  0  0
  -29.7278  -21.7740   16.5248 C   0  0  0  0  0  0  0  0  0  0  0  0
  -29.0044  -22.8600   18.6155 C   0  0  0  0  0  0  0  0  0  0  0  0
  -24.3537  -15.4140   20.0145 C   0  0  1  0  0  0  0  0  0  0  0  0
  -23.8798  -18.0661   22.6932 C   0  0  1  0  0  0  0  0  0  0  0  0
  -30.0892  -23.9420   18.4655 C   0  0  2  0  0  0  0  0  0  0  0  0
  -32.3153  -17.9939   16.8146 C   0  0  0  0  0  0  0  0  0  0  0  0
  -22.4712  -25.3861   25.1074 C   0  0  0  0  0  0  0  0  0  0  0  0
  -23.2000  -21.3499   19.5129 C   0  0  0  0  0  0  0  0  0  0  0  0
  -22.8078  -23.6546   20.4090 C   0  0  0  0  0  0  0  0  0  0  0  0
  -21.0139  -21.9297   20.5802 C   0  0  0  0  0  0  0  0  0  0  0  0
  -22.4414  -21.8852   26.5970 C   0  0  0  0  0  0  0  0  0  0  0  0
  -33.1898  -16.9849   22.3856 C   0  0  0  0  0  0  0  0  0  0  0  0
  -30.0185  -18.0076   18.6332 C   0  0  0  0  0  0  0  0  0  0  0  0
  -33.4862  -18.2470   23.2032 C   0  0  0  0  0  0  0  0  0  0  0  0
  -32.3056  -19.2178   23.2548 C   0  0  0  0  0  0  0  0  0  0  0  0
  -31.0906  -18.5857   23.9202 C   0  0  0  0  0  0  0  0  0  1  0  0
  -23.0554  -21.7458   22.0601 C   0  0  1  0  0  0  0  0  0  0  0  0
  -22.2829  -23.8770   25.0983 C   0  0  2  0  0  0  0  0  0  0  0  0
  -22.5401  -22.1538   20.6510 C   0  0  0  0  0  0  0  0  0  0  0  0
  -33.7634  -17.5007   18.6776 N   0  0  0  0  0  0  0  0  0  0  0  0
  -28.3814  -25.5915   19.1326 N   0  0  0  0  0  0  0  0  0  0  0  0
  -29.6808  -25.2487   19.1201 N   0  0  0  0  0  0  0  0  0  0  0  0
  -23.9961  -19.5232   22.6068 N   0  0  0  0  0  0  0  0  0  0  0  0
  -29.4258  -21.6201   17.9550 N   0  0  0  0  0  0  0  0  0  0  0  0
  -31.8315  -25.9714   19.8003 N   0  0  0  0  0  0  0  0  0  0  0  0
  -29.1173  -29.2837   21.2348 N   0  0  0  0  0  0  0  0  0  0  0  0
  -24.0843  -16.1465   21.2332 N   0  0  0  0  0  0  0  0  0  0  0  0
  -22.4281  -22.4719   23.1591 N   0  0  0  0  0  0  0  0  0  0  0  0
  -29.8950  -19.3016   17.9997 N   0  0  0  0  0  0  0  0  0  0  0  0
  -22.6061  -23.3549   26.4562 N   0  3  0  0  0  0  0  0  0  0  0  0
  -31.2966  -28.5786   21.1244 O   0  0  0  0  0  0  0  0  0  0  0  0
  -24.5608  -18.2845   20.4430 O   0  0  0  0  0  0  0  0  0  0  0  0
  -21.6981  -19.8222   22.3497 O   0  0  0  0  0  0  0  0  0  0  0  0
  -24.3873  -23.3507   24.0345 O   0  0  0  0  0  0  0  0  0  0  0  0
  -29.2234  -20.3830   19.9061 O   0  0  0  0  0  0  0  0  0  0  0  0
  -23.5850  -29.5072   20.6194 O   0  0  0  0  0  0  0  0  0  0  0  0
  -30.0225  -19.5319   23.9242 O   0  0  0  0  0  0  0  0  0  1  0  0
  -19.2562  -26.6012   22.4142 F   0  0  0  0  0  0  0  0  0  0  0  0
  -22.3667  -30.1166   23.0250 F   0  0  0  0  0  0  0  0  0  0  0  0
  1  2  1  0  0  0  0
  1  5  2  0  0  0  0
  2  6  2  0  0  0  0
  3  8  2  0  0  0  0
  3 17  1  0  0  0  0
  4  9  1  0  0  0  0
  4 17  2  0  0  0  0
  5 19  1  0  0  0  0
  6 21  1  0  0  0  0
  7 10  2  0  0  0  0
  7 20  1  0  0  0  0
  8 25  1  0  0  0  0
  9 25  2  0  0  0  0
 10 26  1  0  0  0  0
 11 12  2  0  0  0  0
 11 27  1  0  0  0  0
 12 28  1  0  0  0  0
 13 22  1  0  0  0  0
 13 26  2  0  0  0  0
 14 23  2  0  0  0  0
 14 24  1  0  0  0  0
 15 28  2  0  0  0  0
 15 29  1  0  0  0  0
 16 23  1  0  0  0  0
 16 64  2  0  0  0  0
 17 30  1  0  0  0  0
 18 30  1  0  0  0  0
 18 32  2  0  0  0  0
 18 33  1  0  0  0  0
 19 21  2  0  0  0  0
 19 38  1  0  0  0  0
 20 22  2  0  0  0  0
 20 39  1  0  0  0  0
 21 47  1  0  0  0  0
 22 40  1  0  0  0  0
 23 56  1  0  0  0  0
 24 31  2  0  0  0  0
 24 57  1  0  0  0  0
 25 80  1  0  0  0  0
 26 81  1  0  0  0  0
 27 29  2  0  0  0  0
 27 80  1  0  0  0  0
 28 82  1  0  0  0  0
 29 83  1  0  0  0  0
 30 65  2  0  0  0  0
 31 50  1  0  0  0  0
 31 64  1  0  0  0  0
 32 66  1  0  0  0  0
 32 69  1  0  0  0  0
 33 70  1  0  0  0  0
 33 75  2  0  0  0  0
 34 48  1  0  0  0  0
 34 71  1  0  0  0  0
 34 76  2  0  0  0  0
 35 61  1  0  0  0  0
 35 67  1  0  0  0  0
 35 77  2  0  0  0  0
 36 62  1  0  0  0  0
 36 72  1  0  0  0  0
 36 78  2  0  0  0  0
 37 68  1  0  0  0  0
 37 73  1  0  0  0  0
 37 79  2  0  0  0  0
 38 41  1  0  0  0  0
 39 48  1  0  0  0  0
 40 67  1  0  0  0  0
 41 43  1  0  0  0  0
 42 44  1  0  0  0  0
 42 45  1  0  0  0  0
 43 47  1  0  0  0  0
 44 49  1  0  0  0  0
 45 68  1  0  0  0  0
 46 49  1  0  0  0  0
 46 68  1  0  0  0  0
 47 71  1  0  0  0  0
 48 67  1  0  0  0  0
 49 66  1  0  0  0  0
 51 62  1  0  0  0  0
 52 63  1  0  0  0  0
 53 63  1  0  0  0  0
 54 63  1  0  0  0  0
 55 74  1  0  0  0  0
 56 58  1  0  0  0  0
 57 73  1  0  0  0  0
 58 59  1  0  0  0  0
 59 60  1  0  0  0  0
 60 81  1  0  0  0  0
 61 63  1  0  0  0  0
 61 72  1  0  0  0  0
 62 74  1  0  0  0  0
 65 66  1  0  0  0  0
M  CHG  1  74   1
M  ISO  4  37 100  60 101  73 100  81 101
M  END
> <Batch ID>
0041

> <Smiles>
CNC(C)C(=O)NC(C(=O)N1Cc2cc([101O:1][101CH2:1]CCCc3cnc(C)c(C[100NH:0][100C:0](=O)N4CCCC(n5nc(-c6ccc(Oc7ccc(F)cc7F)cc6)c(C(N)=O)c5N)C4)c3)ccc2CC1C(=O)NC1CCCc2ccccc21)C(C)(C)C

> <Shape>
0.200

> <Color>
0.064

> <Negative vol penalty>
0.000

$$$$

  -OEChem-04052317093D

 86 94  0     1  0  0  0  0  0999 V2000
  -19.5603  -34.4319   22.6788 C   0  0  0  0  0  0  0  0  0  0  0  0
  -20.8856  -34.1342   22.3783 C   0  0  0  0  0  0  0  0  0  0  0  0
  -28.0944  -17.2242   19.7758 C   0  0  0  0  0  0  0  0  0  0  0  0
  -29.7159  -17.8478   21.4548 C   0  0  0  0  0  0  0  0  0  0  0  0
  -18.7607  -33.4830   23.3144 C   0  0  0  0  0  0  0  0  0  0  0  0
  -21.4124  -32.8875   22.7142 C   0  0  0  0  0  0  0  0  0  0  0  0
  -25.5766  -29.6819   19.5694 C   0  0  0  0  0  0  0  0  0  0  0  0
  -28.1635  -15.8978   20.2017 C   0  0  0  0  0  0  0  0  0  0  0  0
  -29.7849  -16.5214   21.8808 C   0  0  0  0  0  0  0  0  0  0  0  0
  -26.9552  -29.5358   19.7173 C   0  0  0  0  0  0  0  0  0  0  0  0
  -30.2443  -13.2626   19.8135 C   0  0  0  0  0  0  0  0  0  0  0  0
  -30.3373  -12.2726   18.8354 C   0  0  0  0  0  0  0  0  0  0  0  0
  -26.5997  -27.5028   20.9662 C   0  0  0  0  0  0  0  0  0  0  0  0
  -31.6388  -28.2315   21.1103 C   0  0  0  0  0  0  0  0  0  0  0  0
  -28.2765  -11.2937   19.6302 C   0  0  0  0  0  0  0  0  0  0  0  0
  -28.8707  -18.1992   20.4023 C   0  0  0  0  0  0  0  0  0  0  0  0
  -27.9284  -20.5696   20.4330 C   0  0  0  0  0  0  0  0  0  0  0  0
  -19.2751  -32.2206   23.6495 C   0  0  0  0  0  0  0  0  0  0  0  0
  -24.6973  -28.7438   20.1292 C   0  0  0  0  0  0  0  0  0  0  0  0
  -20.6192  -31.9212   23.3560 C   0  0  0  0  0  0  0  0  0  0  0  0
  -25.2105  -27.6379   20.8218 C   0  0  0  0  0  0  0  0  0  0  0  0
  -32.9499  -27.7431   21.3331 C   0  0  0  0  0  0  0  0  0  0  0  0
  -29.0087  -15.5463   21.2542 C   0  0  0  0  0  0  0  0  0  0  0  0
  -27.4669  -28.4477   20.4182 C   0  0  0  0  0  0  0  0  0  0  0  0
  -29.1675  -13.2682   20.7001 C   0  0  0  0  0  0  0  0  0  0  0  0
  -29.3534  -11.2882   18.7437 C   0  0  0  0  0  0  0  0  0  0  0  0
  -28.1835  -12.2837   20.6085 C   0  0  0  0  0  0  0  0  0  0  0  0
  -28.8002  -19.5695   19.9624 C   0  0  0  0  0  0  0  0  0  0  0  0
  -30.7654  -27.1986   21.3703 C   0  0  0  0  0  0  0  0  0  0  0  0
  -32.8378  -26.4265   21.7222 C   0  0  0  0  0  0  0  0  0  0  0  0
  -28.2582  -21.6845   19.7017 C   0  0  0  0  0  0  0  0  0  0  0  0
  -26.9116  -20.4974   21.4412 C   0  0  0  0  0  0  0  0  0  0  0  0
  -22.4005  -28.8529   22.3238 C   0  0  0  0  0  0  0  0  0  0  0  0
  -21.9223  -25.7762   21.4140 C   0  0  0  0  0  0  0  0  0  0  0  0
  -23.1987  -22.9367   20.0158 C   0  0  0  0  0  0  0  0  0  0  0  0
  -33.2665  -23.3857   16.8956 C   0  0  0  0  0  0  0  0  0  0  0  0
  -18.3859  -31.2445   24.3783 C   0  0  0  0  0  0  0  0  0  0  0  0
  -23.2138  -28.9014   19.9379 C   0  0  0  0  0  0  0  0  0  0  0  0
  -24.3098  -26.5919   21.4245 C   0  0  0  0  0  0  0  0  0  0  0  0
  -18.9131  -29.8120   24.3635 C   0  0  0  0  0  0  0  0  0  0  0  0
  -30.0354  -22.9858   15.4544 C   0  0  0  0  0  0  0  0  0  0  0  0
  -20.3980  -29.7860   24.7116 C   0  0  0  0  0  0  0  0  0  0  0  0
  -29.2738  -22.1551   16.4888 C   0  0  0  0  0  0  0  0  0  0  0  0
  -31.5010  -22.5670   15.3627 C   0  0  0  0  0  0  0  0  0  0  0  0
  -31.4642  -21.7333   17.6816 C   0  0  0  0  0  0  0  0  0  0  0  0
  -21.2198  -30.5710   23.6821 C   0  0  1  0  0  0  0  0  0  0  0  0
  -22.3937  -28.1611   20.9900 C   0  0  1  0  0  0  0  0  0  0  0  0
  -29.9949  -22.1565   17.8501 C   0  0  2  0  0  0  0  0  0  0  0  0
  -34.2012  -28.5108   21.1755 C   0  0  0  0  0  0  0  0  0  0  0  0
  -29.2855  -23.3970   25.2917 C   0  0  0  0  0  0  0  0  0  0  0  0
  -22.5799  -20.5734   19.4422 C   0  0  0  0  0  0  0  0  0  0  0  0
  -22.1760  -24.9990   24.3536 C   0  0  0  0  0  0  0  0  0  0  0  0
  -22.5031  -22.6259   23.6259 C   0  0  0  0  0  0  0  0  0  0  0  0
  -20.3650  -23.8031   23.1109 C   0  0  0  0  0  0  0  0  0  0  0  0
  -23.6702  -23.3910   17.1295 C   0  0  0  0  0  0  0  0  0  0  0  0
  -33.8855  -25.4457   22.0777 C   0  0  0  0  0  0  0  0  0  0  0  0
  -29.2673  -27.1645   21.2945 C   0  0  0  0  0  0  0  0  0  1  0  0
  -29.8267  -23.4259   23.8713 C   0  0  0  0  0  0  0  0  0  0  0  0
  -34.1620  -24.4350   20.9469 C   0  0  0  0  0  0  0  0  0  0  0  0
  -30.3838  -24.8026   23.5122 C   0  0  0  0  0  0  0  0  0  0  0  0
  -34.6706  -25.1175   19.6736 C   0  0  0  0  0  0  0  0  0  0  0  0
  -30.9620  -24.8126   22.0980 C   0  0  0  0  0  0  0  0  0  0  0  0
  -34.9601  -24.1252   18.5520 C   0  0  0  0  0  0  0  0  0  0  0  0
  -22.4631  -24.4360   21.8503 C   0  0  1  0  0  0  0  0  0  0  0  0
  -22.6542  -22.0086   18.9450 C   0  0  2  0  0  0  0  0  0  0  0  0
  -21.8940  -23.9865   23.2256 C   0  0  0  0  0  0  0  0  0  0  0  0
  -29.6219  -20.0100   19.0059 N   0  0  0  0  0  0  0  0  0  0  0  0
  -31.5054  -26.1063   21.7410 N   0  0  0  0  0  0  0  0  0  0  0  0
  -29.2678  -21.2992   18.8696 N   0  0  0  0  0  0  0  0  0  0  0  0
  -22.8664  -26.7937   21.2158 N   0  0  0  0  0  0  0  0  0  0  0  0
  -32.1271  -22.5910   16.6869 N   0  0  0  0  0  0  0  0  0  0  0  0
  -27.7800  -22.9469   19.6956 N   0  0  0  0  0  0  0  0  0  0  0  0
  -26.7041  -19.2749   22.0945 N   0  0  0  0  0  0  0  0  0  0  0  0
  -21.3973  -29.7909   22.4761 N   0  0  0  0  0  0  0  0  0  0  0  0
  -22.1874  -23.5093   20.7578 N   0  0  0  0  0  0  0  0  0  0  0  0
  -33.7933  -23.3559   18.1810 N   0  0  0  0  0  0  0  0  0  0  0  0
  -23.5267  -22.0430   17.7373 N   0  3  0  0  0  0  0  0  0  0  0  0
  -26.1967  -21.4833   21.7419 O   0  0  0  0  0  0  0  0  0  0  0  0
  -23.2519  -28.5565   23.1538 O   0  0  0  0  0  0  0  0  0  0  0  0
  -20.7077  -25.9132   21.2480 O   0  0  0  0  0  0  0  0  0  0  0  0
  -24.4011  -23.1313   20.1801 O   0  0  0  0  0  0  0  0  0  0  0  0
  -33.7732  -24.0750   16.0039 O   0  0  0  0  0  0  0  0  0  0  0  0
  -29.0762  -14.2521   21.6702 O   0  0  0  0  0  0  0  0  0  0  0  0
  -28.8121  -28.3030   20.5645 O   0  0  0  0  0  0  0  0  0  1  0  0
  -29.4420  -10.3385   17.8033 F   0  0  0  0  0  0  0  0  0  0  0  0
  -27.1460  -12.2845   21.4566 F   0  0  0  0  0  0  0  0  0  0  0  0
  1  2  1  0  0  0  0
  1  5  2  0  0  0  0
  2  6  2  0  0  0  0
  3  8  2  0  0  0  0
  3 16  1  0  0  0  0
  4  9  1  0  0  0  0
  4 16  2  0  0  0  0
  5 18  1  0  0  0  0
  6 20  1  0  0  0  0
  7 10  2  0  0  0  0
  7 19  1  0  0  0  0
  8 23  1  0  0  0  0
  9 23  2  0  0  0  0
 10 24  1  0  0  0  0
 11 12  2  0  0  0  0
 11 25  1  0  0  0  0
 12 26  1  0  0  0  0
 13 21  1  0  0  0  0
 13 24  2  0  0  0  0
 14 22  1  0  0  0  0
 14 29  2  0  0  0  0
 15 26  2  0  0  0  0
 15 27  1  0  0  0  0
 16 28  1  0  0  0  0
 17 28  1  0  0  0  0
 17 31  2  0  0  0  0
 17 32  1  0  0  0  0
 18 20  2  0  0  0  0
 18 37  1  0  0  0  0
 19 21  2  0  0  0  0
 19 38  1  0  0  0  0
 20 46  1  0  0  0  0
 21 39  1  0  0  0  0
 22 30  2  0  0  0  0
 22 49  1  0  0  0  0
 23 83  1  0  0  0  0
 24 84  1  0  0  0  0
 25 27  2  0  0  0  0
 25 83  1  0  0  0  0
 26 85  1  0  0  0  0
 27 86  1  0  0  0  0
 28 67  2  0  0  0  0
 29 57  1  0  0  0  0
 29 68  1  0  0  0  0
 30 56  1  0  0  0  0
 30 68  1  0  0  0  0
 31 69  1  0  0  0  0
 31 72  1  0  0  0  0
 32 73  1  0  0  0  0
 32 78  2  0  0  0  0
 33 47  1  0  0  0  0
 33 74  1  0  0  0  0
 33 79  2  0  0  0  0
 34 64  1  0  0  0  0
 34 70  1  0  0  0  0
 34 80  2  0  0  0  0
 35 65  1  0  0  0  0
 35 75  1  0  0  0  0
 35 81  2  0  0  0  0
 36 71  1  0  0  0  0
 36 76  1  0  0  0  0
 36 82  2  0  0  0  0
 37 40  1  0  0  0  0
 38 47  1  0  0  0  0
 39 70  1  0  0  0  0
 40 42  1  0  0  0  0
 41 43  1  0  0  0  0
 41 44  1  0  0  0  0
 42 46  1  0  0  0  0
 43 48  1  0  0  0  0
 44 71  1  0  0  0  0
 45 48  1  0  0  0  0
 45 71  1  0  0  0  0
 46 74  1  0  0  0  0
 47 70  1  0  0  0  0
 48 69  1  0  0  0  0
 50 58  1  0  0  0  0
 51 65  1  0  0  0  0
 52 66  1  0  0  0  0
 53 66  1  0  0  0  0
 54 66  1  0  0  0  0
 55 77  1  0  0  0  0
 56 59  1  0  0  0  0
 57 84  1  0  0  0  0
 58 60  1  0  0  0  0
 59 61  1  0  0  0  0
 60 62  1  0  0  0  0
 61 63  1  0  0  0  0
 62 68  1  0  0  0  0
 63 76  1  0  0  0  0
 64 66  1  0  0  0  0
 64 75  1  0  0  0  0
 65 77  1  0  0  0  0
 67 69  1  0  0  0  0
M  CHG  1  77   1
M  ISO  4  36 100  57 101  76 100  84 101
M  END
> <Batch ID>
0041

> <Smiles>
CCCCn1c([101CH2:1][101O:1]c2ccc3c(c2)CN(C(=O)C(NC(=O)C(C)NC)C(C)(C)C)C(C(=O)NC2CCCc4ccccc42)C3)cc(C)c1CCCC[100NH:0][100C:0](=O)N1CCCC(n2nc(-c3ccc(Oc4ccc(F)cc4F)cc3)c(C(N)=O)c2N)C1

> <Shape>
0.210

> <Color>
0.074

> <Negative vol penalty>
0.000

$$$$

  -OEChem-04052317093D

 82 90  0     1  0  0  0  0  0999 V2000
  -28.6511  -35.3775   20.7928 C   0  0  0  0  0  0  0  0  0  0  0  0
  -29.2086  -34.1030   20.7780 C   0  0  0  0  0  0  0  0  0  0  0  0
  -22.4731  -10.6368   22.2514 C   0  0  0  0  0  0  0  0  0  0  0  0
  -22.4224  -10.3318   19.8553 C   0  0  0  0  0  0  0  0  0  0  0  0
  -27.3731  -35.5720   21.3153 C   0  0  0  0  0  0  0  0  0  0  0  0
  -28.4889  -33.0224   21.2866 C   0  0  0  0  0  0  0  0  0  0  0  0
  -28.5578  -27.2558   19.2256 C   0  0  0  0  0  0  0  0  0  0  0  0
  -21.9530   -9.3543   22.4257 C   0  0  0  0  0  0  0  0  0  0  0  0
  -21.9023   -9.0493   20.0295 C   0  0  0  0  0  0  0  0  0  0  0  0
  -29.2387  -26.1159   19.6506 C   0  0  0  0  0  0  0  0  0  0  0  0
  -23.0947   -6.1724   22.3548 C   0  0  0  0  0  0  0  0  0  0  0  0
  -23.6828   -5.3607   23.3247 C   0  0  0  0  0  0  0  0  0  0  0  0
  -27.3051  -25.4442   20.9270 C   0  0  0  0  0  0  0  0  0  0  0  0
  -21.5674   -5.2111   24.4822 C   0  0  0  0  0  0  0  0  0  0  0  0
  -28.6647  -20.7279   18.8372 C   0  0  0  0  0  0  0  0  0  0  0  0
  -22.7077  -11.1255   20.9662 C   0  0  0  0  0  0  0  0  0  0  0  0
  -24.6022  -12.8147   20.7102 C   0  0  0  0  0  0  0  0  0  0  0  0
  -26.6335  -34.4917   21.8217 C   0  0  0  0  0  0  0  0  0  0  0  0
  -27.2471  -27.5045   19.6575 C   0  0  0  0  0  0  0  0  0  0  0  0
  -27.2004  -33.2028   21.8175 C   0  0  0  0  0  0  0  0  0  0  0  0
  -26.6088  -26.5867   20.5039 C   0  0  0  0  0  0  0  0  0  0  0  0
  -21.6676   -8.5605   21.3148 C   0  0  0  0  0  0  0  0  0  0  0  0
  -28.6134  -25.2113   20.5038 C   0  0  0  0  0  0  0  0  0  0  0  0
  -21.7429   -6.5036   22.4486 C   0  0  0  0  0  0  0  0  0  0  0  0
  -22.9192   -4.8800   24.3884 C   0  0  0  0  0  0  0  0  0  0  0  0
  -20.9793   -6.0229   23.5123 C   0  0  0  0  0  0  0  0  0  0  0  0
  -23.2444  -12.4505   20.7855 C   0  0  0  0  0  0  0  0  0  0  0  0
  -29.1073  -21.3064   20.0419 C   0  0  0  0  0  0  0  0  0  0  0  0
  -27.4482  -20.1722   19.1497 C   0  0  0  0  0  0  0  0  0  0  0  0
  -24.5831  -14.1770   20.5363 C   0  0  0  0  0  0  0  0  0  0  0  0
  -25.7757  -11.9949   20.7902 C   0  0  0  0  0  0  0  0  0  0  0  0
  -25.8391  -29.8003   21.3459 C   0  0  0  0  0  0  0  0  0  0  0  0
  -23.1373  -28.1914   20.5496 C   0  0  0  0  0  0  0  0  0  0  0  0
  -21.6893  -25.2485   19.6065 C   0  0  0  0  0  0  0  0  0  0  0  0
  -22.5173  -18.7408   18.0768 C   0  0  0  0  0  0  0  0  0  0  0  0
  -25.2748  -34.7588   22.4194 C   0  0  0  0  0  0  0  0  0  0  0  0
  -26.5168  -28.7251   19.1685 C   0  0  0  0  0  0  0  0  0  0  0  0
  -25.1956  -26.7972   20.9802 C   0  0  0  0  0  0  0  0  0  0  0  0
  -24.4291  -33.5003   22.5963 C   0  0  0  0  0  0  0  0  0  0  0  0
  -20.7827  -17.4926   20.9245 C   0  0  0  0  0  0  0  0  0  0  0  0
  -25.2558  -32.3864   23.2309 C   0  0  0  0  0  0  0  0  0  0  0  0
  -21.3759  -16.0979   21.1318 C   0  0  0  0  0  0  0  0  0  0  0  0
  -20.6580  -17.8382   19.4423 C   0  0  0  0  0  0  0  0  0  0  0  0
  -22.4968  -16.2991   18.8731 C   0  0  0  0  0  0  0  0  0  0  0  0
  -26.4411  -32.0015   22.3374 C   0  0  1  0  0  0  0  0  0  0  0  0
  -25.3671  -29.1394   20.0817 C   0  0  1  0  0  0  0  0  0  0  0  0
  -22.6940  -15.9277   20.3528 C   0  0  2  0  0  0  0  0  0  0  0  0
  -19.4579  -24.2347   19.0679 C   0  0  0  0  0  0  0  0  0  0  0  0
  -22.4601  -28.1082   23.5236 C   0  0  0  0  0  0  0  0  0  0  0  0
  -20.7861  -26.3156   23.0210 C   0  0  0  0  0  0  0  0  0  0  0  0
  -20.5166  -28.5863   22.0240 C   0  0  0  0  0  0  0  0  0  0  0  0
  -26.0994  -20.0629   21.2671 C   0  0  0  0  0  0  0  0  0  0  0  0
  -22.5277  -24.5827   16.8473 C   0  0  0  0  0  0  0  0  0  0  0  0
  -30.3953  -22.0552   20.2839 C   0  0  0  0  0  0  0  0  0  0  0  0
  -26.4838  -19.4244   18.3223 C   0  0  0  0  0  0  0  0  0  0  0  0
  -25.4180  -20.2942   17.6111 C   0  0  0  0  0  0  0  0  0  0  0  0
  -24.4565  -19.5020   16.7279 C   0  0  0  0  0  0  0  0  0  0  0  0
  -30.2513  -23.5524   20.0335 C   0  0  0  0  0  0  0  0  0  1  0  0
  -22.3436  -27.0643   21.1650 C   0  0  1  0  0  0  0  0  0  0  0  0
  -20.6934  -24.9224   18.5082 C   0  0  2  0  0  0  0  0  0  0  0  0
  -21.5539  -27.5153   22.4262 C   0  0  0  0  0  0  0  0  0  0  0  0
  -22.4226  -13.4969   20.6692 N   0  0  0  0  0  0  0  0  0  0  0  0
  -28.2421  -21.1343   21.0449 N   0  0  0  0  0  0  0  0  0  0  0  0
  -27.2438  -20.4414   20.4710 N   0  0  0  0  0  0  0  0  0  0  0  0
  -23.2664  -14.5321   20.5191 N   0  0  0  0  0  0  0  0  0  0  0  0
  -24.5257  -28.0088   20.4795 N   0  0  0  0  0  0  0  0  0  0  0  0
  -21.9426  -17.6575   18.7617 N   0  0  0  0  0  0  0  0  0  0  0  0
  -25.5643  -15.0938   20.3982 N   0  0  0  0  0  0  0  0  0  0  0  0
  -25.6152  -10.6142   20.9701 N   0  0  0  0  0  0  0  0  0  0  0  0
  -25.9973  -31.1689   21.2400 N   0  0  0  0  0  0  0  0  0  0  0  0
  -21.5078  -26.5238   20.0984 N   0  0  0  0  0  0  0  0  0  0  0  0
  -23.7385  -18.4860   17.4648 N   0  0  0  0  0  0  0  0  0  0  0  0
  -21.3146  -24.0220   17.4962 N   0  3  0  0  0  0  0  0  0  0  0  0
  -26.9327  -12.4746   20.7211 O   0  0  0  0  0  0  0  0  0  0  0  0
  -26.0433  -29.1191   22.3439 O   0  0  0  0  0  0  0  0  0  0  0  0
  -22.5465  -29.1936   20.1396 O   0  0  0  0  0  0  0  0  0  0  0  0
  -22.5406  -24.4503   19.9922 O   0  0  0  0  0  0  0  0  0  0  0  0
  -21.9845  -19.8543   18.0197 O   0  0  0  0  0  0  0  0  0  0  0  0
  -21.1603   -7.3090   21.4844 O   0  0  0  0  0  0  0  0  0  0  0  0
  -29.2760  -24.0982   20.9207 O   0  0  0  0  0  0  0  0  0  1  0  0
  -23.4837   -4.0992   25.3189 F   0  0  0  0  0  0  0  0  0  0  0  0
  -19.6799   -6.3367   23.6071 F   0  0  0  0  0  0  0  0  0  0  0  0
  1  2  1  0  0  0  0
  1  5  2  0  0  0  0
  2  6  2  0  0  0  0
  3  8  2  0  0  0  0
  3 16  1  0  0  0  0
  4  9  1  0  0  0  0
  4 16  2  0  0  0  0
  5 18  1  0  0  0  0
  6 20  1  0  0  0  0
  7 10  2  0  0  0  0
  7 19  1  0  0  0  0
  8 22  1  0  0  0  0
  9 22  2  0  0  0  0
 10 23  1  0  0  0  0
 11 12  2  0  0  0  0
 11 24  1  0  0  0  0
 12 25  1  0  0  0  0
 13 21  1  0  0  0  0
 13 23  2  0  0  0  0
 14 25  2  0  0  0  0
 14 26  1  0  0  0  0
 15 28  1  0  0  0  0
 15 29  2  0  0  0  0
 16 27  1  0  0  0  0
 17 27  1  0  0  0  0
 17 30  2  0  0  0  0
 17 31  1  0  0  0  0
 18 20  2  0  0  0  0
 18 36  1  0  0  0  0
 19 21  2  0  0  0  0
 19 37  1  0  0  0  0
 20 45  1  0  0  0  0
 21 38  1  0  0  0  0
 22 79  1  0  0  0  0
 23 80  1  0  0  0  0
 24 26  2  0  0  0  0
 24 79  1  0  0  0  0
 25 81  1  0  0  0  0
 26 82  1  0  0  0  0
 27 62  2  0  0  0  0
 28 54  1  0  0  0  0
 28 63  2  0  0  0  0
 29 55  1  0  0  0  0
 29 64  1  0  0  0  0
 30 65  1  0  0  0  0
 30 68  1  0  0  0  0
 31 69  1  0  0  0  0
 31 74  2  0  0  0  0
 32 46  1  0  0  0  0
 32 70  1  0  0  0  0
 32 75  2  0  0  0  0
 33 59  1  0  0  0  0
 33 66  1  0  0  0  0
 33 76  2  0  0  0  0
 34 60  1  0  0  0  0
 34 71  1  0  0  0  0
 34 77  2  0  0  0  0
 35 67  1  0  0  0  0
 35 72  1  0  0  0  0
 35 78  2  0  0  0  0
 36 39  1  0  0  0  0
 37 46  1  0  0  0  0
 38 66  1  0  0  0  0
 39 41  1  0  0  0  0
 40 42  1  0  0  0  0
 40 43  1  0  0  0  0
 41 45  1  0  0  0  0
 42 47  1  0  0  0  0
 43 67  1  0  0  0  0
 44 47  1  0  0  0  0
 44 67  1  0  0  0  0
 45 70  1  0  0  0  0
 46 66  1  0  0  0  0
 47 65  1  0  0  0  0
 48 60  1  0  0  0  0
 49 61  1  0  0  0  0
 50 61  1  0  0  0  0
 51 61  1  0  0  0  0
 52 64  1  0  0  0  0
 53 73  1  0  0  0  0
 54 58  1  0  0  0  0
 55 56  1  0  0  0  0
 56 57  1  0  0  0  0
 57 72  1  0  0  0  0
 58 80  1  0  0  0  0
 59 61  1  0  0  0  0
 59 71  1  0  0  0  0
 60 73  1  0  0  0  0
 62 65  1  0  0  0  0
 63 64  1  0  0  0  0
M  CHG  1  73   1
M  ISO  4  35 100  58 101  72 100  80 101
M  END
> <Batch ID>
0041

> <Smiles>
CNC(C)C(=O)NC(C(=O)N1Cc2cc([101O:1][101CH2:1]Cc3cc(CCC[100NH:0][100C:0](=O)N4CCCC(n5nc(-c6ccc(Oc7ccc(F)cc7F)cc6)c(C(N)=O)c5N)C4)n(C)n3)ccc2CC1C(=O)NC1CCCc2ccccc21)C(C)(C)C

> <Shape>
0.262

> <Color>
0.094

> <Negative vol penalty>
0.000

$$$$

  -OEChem-04052317093D

 83 91  0     1  0  0  0  0  0999 V2000
  -22.4980   -8.2167   20.6016 C   0  0  0  0  0  0  0  0  0  0  0  0
  -22.2408   -9.4899   20.1033 C   0  0  0  0  0  0  0  0  0  0  0  0
  -27.6073  -29.6370   19.2013 C   0  0  0  0  0  0  0  0  0  0  0  0
  -26.7776  -29.0170   21.3840 C   0  0  0  0  0  0  0  0  0  0  0  0
  -23.4519   -8.0408   21.6032 C   0  0  0  0  0  0  0  0  0  0  0  0
  -22.9366  -10.5882   20.6073 C   0  0  0  0  0  0  0  0  0  0  0  0
  -24.7142  -15.5598   17.5042 C   0  0  0  0  0  0  0  0  0  0  0  0
  -26.6400  -30.6385   19.1180 C   0  0  0  0  0  0  0  0  0  0  0  0
  -25.8103  -30.0186   21.3008 C   0  0  0  0  0  0  0  0  0  0  0  0
  -24.1653  -16.8355   17.3825 C   0  0  0  0  0  0  0  0  0  0  0  0
  -25.6571  -33.3707   21.7013 C   0  0  0  0  0  0  0  0  0  0  0  0
  -25.4628  -34.1767   22.8230 C   0  0  0  0  0  0  0  0  0  0  0  0
  -25.6292  -17.6256   19.1294 C   0  0  0  0  0  0  0  0  0  0  0  0
  -23.1601  -33.4552   22.9425 C   0  0  0  0  0  0  0  0  0  0  0  0
  -21.3125  -20.4663   22.1639 C   0  0  0  0  0  0  0  0  0  0  0  0
  -27.6760  -28.8262   20.3342 C   0  0  0  0  0  0  0  0  0  0  0  0
  -29.9749  -27.9062   20.9477 C   0  0  0  0  0  0  0  0  0  0  0  0
  -24.1665   -9.1363   22.1129 C   0  0  0  0  0  0  0  0  0  0  0  0
  -25.7189  -15.3043   18.4486 C   0  0  0  0  0  0  0  0  0  0  0  0
  -23.8999  -10.4271   21.6176 C   0  0  0  0  0  0  0  0  0  0  0  0
  -26.1911  -16.3463   19.2594 C   0  0  0  0  0  0  0  0  0  0  0  0
  -22.5047  -21.0534   21.6993 C   0  0  0  0  0  0  0  0  0  0  0  0
  -25.7415  -30.8293   20.1677 C   0  0  0  0  0  0  0  0  0  0  0  0
  -24.6207  -17.8680   18.1971 C   0  0  0  0  0  0  0  0  0  0  0  0
  -24.6029  -32.6070   21.2002 C   0  0  0  0  0  0  0  0  0  0  0  0
  -24.2143  -34.2189   23.4436 C   0  0  0  0  0  0  0  0  0  0  0  0
  -23.3545  -32.6492   21.8208 C   0  0  0  0  0  0  0  0  0  0  0  0
  -28.6747  -27.7911   20.4206 C   0  0  0  0  0  0  0  0  0  0  0  0
  -23.4159  -20.8179   22.6997 C   0  0  0  0  0  0  0  0  0  0  0  0
  -30.5178  -26.6533   20.7991 C   0  0  0  0  0  0  0  0  0  0  0  0
  -30.6331  -29.0438   21.5206 C   0  0  0  0  0  0  0  0  0  0  0  0
  -25.9776  -13.4183   20.9941 C   0  0  0  0  0  0  0  0  0  0  0  0
  -29.0470  -14.4675   20.9747 C   0  0  0  0  0  0  0  0  0  0  0  0
  -31.2775  -16.8824   20.0584 C   0  0  0  0  0  0  0  0  0  0  0  0
  -28.1069  -21.1887   20.3784 C   0  0  0  0  0  0  0  0  0  0  0  0
  -25.1542   -8.9031   23.2285 C   0  0  0  0  0  0  0  0  0  0  0  0
  -26.3195  -13.9290   18.5490 C   0  0  0  0  0  0  0  0  0  0  0  0
  -27.2820  -16.1289   20.2749 C   0  0  0  0  0  0  0  0  0  0  0  0
  -26.1151  -10.0693   23.4450 C   0  0  0  0  0  0  0  0  0  0  0  0
  -30.2598  -22.7660   18.0218 C   0  0  0  0  0  0  0  0  0  0  0  0
  -25.3548  -11.3916   23.4612 C   0  0  0  0  0  0  0  0  0  0  0  0
  -30.2150  -24.2431   18.4169 C   0  0  0  0  0  0  0  0  0  0  0  0
  -28.9042  -22.0894   18.2129 C   0  0  0  0  0  0  0  0  0  0  0  0
  -28.2769  -23.7162   19.9547 C   0  0  0  0  0  0  0  0  0  0  0  0
  -24.6516  -11.6401   22.1213 C   0  0  1  0  0  0  0  0  0  0  0  0
  -26.9774  -13.6614   19.8991 C   0  0  1  0  0  0  0  0  0  0  0  0
  -29.6352  -24.4277   19.8322 C   0  0  2  0  0  0  0  0  0  0  0  0
  -33.7098  -17.4795   20.2163 C   0  0  0  0  0  0  0  0  0  0  0  0
  -28.6555  -15.2809   23.8894 C   0  0  0  0  0  0  0  0  0  0  0  0
  -30.7160  -16.6904   23.7001 C   0  0  0  0  0  0  0  0  0  0  0  0
  -30.8644  -14.2196   23.3901 C   0  0  0  0  0  0  0  0  0  0  0  0
  -23.2691  -19.6530   24.9215 C   0  0  0  0  0  0  0  0  0  0  0  0
  -31.5932  -16.8605   17.1158 C   0  0  0  0  0  0  0  0  0  0  0  0
  -22.7256  -21.7771   20.3951 C   0  0  0  0  0  0  0  0  0  0  0  0
  -24.8411  -21.1781   22.8231 C   0  0  0  0  0  0  0  0  0  0  0  0
  -22.8477  -20.8458   19.1870 C   0  0  0  0  0  0  0  0  0  0  0  0
  -25.8349  -20.0327   22.5104 C   0  0  0  0  0  0  0  0  0  0  0  0
  -27.3038  -20.4398   22.6041 C   0  0  0  0  0  0  0  0  0  0  0  0
  -24.0571  -19.9208   19.2576 C   0  0  0  0  0  0  0  0  0  1  0  0
  -29.7828  -15.6315   21.5932 C   0  0  1  0  0  0  0  0  0  0  0  0
  -32.6353  -16.7962   19.3849 C   0  0  2  0  0  0  0  0  0  0  0  0
  -29.9828  -15.4596   23.1255 C   0  0  0  0  0  0  0  0  0  0  0  0
  -21.4507  -19.9003   23.3658 N   0  0  0  0  0  0  0  0  0  0  0  0
  -28.4076  -26.5622   19.9706 N   0  0  0  0  0  0  0  0  0  0  0  0
  -22.7405  -20.1305   23.6648 N   0  0  0  0  0  0  0  0  0  0  0  0
  -29.5476  -25.8937   20.2145 N   0  0  0  0  0  0  0  0  0  0  0  0
  -27.8330  -14.7652   20.3396 N   0  0  0  0  0  0  0  0  0  0  0  0
  -28.4109  -22.3007   19.5760 N   0  0  0  0  0  0  0  0  0  0  0  0
  -31.7256  -26.1384   21.1128 N   0  0  0  0  0  0  0  0  0  0  0  0
  -29.9305  -30.2542   21.5965 N   0  0  0  0  0  0  0  0  0  0  0  0
  -25.6015  -12.0955   21.1289 N   0  0  0  0  0  0  0  0  0  0  0  0
  -31.0245  -15.7757   20.8410 N   0  0  0  0  0  0  0  0  0  0  0  0
  -27.6513  -21.4775   21.6590 N   0  0  0  0  0  0  0  0  0  0  0  0
  -32.5915  -17.4485   18.0457 N   0  3  0  0  0  0  0  0  0  0  0  0
  -31.8152  -28.9930   21.9374 O   0  0  0  0  0  0  0  0  0  0  0  0
  -25.5781  -14.3608   21.6677 O   0  0  0  0  0  0  0  0  0  0  0  0
  -29.5350  -13.3368   21.0461 O   0  0  0  0  0  0  0  0  0  0  0  0
  -30.5190  -17.8377   19.9085 O   0  0  0  0  0  0  0  0  0  0  0  0
  -28.2372  -20.0246   19.9849 O   0  0  0  0  0  0  0  0  0  0  0  0
  -24.7977  -31.8067   20.0869 O   0  0  0  0  0  0  0  0  0  0  0  0
  -24.0861  -19.1140   18.0808 O   0  0  0  0  0  0  0  0  0  1  0  0
  -24.0283  -34.9918   24.5217 F   0  0  0  0  0  0  0  0  0  0  0  0
  -22.3382  -31.9168   21.3446 F   0  0  0  0  0  0  0  0  0  0  0  0
  1  2  1  0  0  0  0
  1  5  2  0  0  0  0
  2  6  2  0  0  0  0
  3  8  2  0  0  0  0
  3 16  1  0  0  0  0
  4  9  1  0  0  0  0
  4 16  2  0  0  0  0
  5 18  1  0  0  0  0
  6 20  1  0  0  0  0
  7 10  2  0  0  0  0
  7 19  1  0  0  0  0
  8 23  1  0  0  0  0
  9 23  2  0  0  0  0
 10 24  1  0  0  0  0
 11 12  2  0  0  0  0
 11 25  1  0  0  0  0
 12 26  1  0  0  0  0
 13 21  1  0  0  0  0
 13 24  2  0  0  0  0
 14 26  2  0  0  0  0
 14 27  1  0  0  0  0
 15 22  1  0  0  0  0
 15 63  2  0  0  0  0
 16 28  1  0  0  0  0
 17 28  1  0  0  0  0
 17 30  2  0  0  0  0
 17 31  1  0  0  0  0
 18 20  2  0  0  0  0
 18 36  1  0  0  0  0
 19 21  2  0  0  0  0
 19 37  1  0  0  0  0
 20 45  1  0  0  0  0
 21 38  1  0  0  0  0
 22 29  2  0  0  0  0
 22 54  1  0  0  0  0
 23 80  1  0  0  0  0
 24 81  1  0  0  0  0
 25 27  2  0  0  0  0
 25 80  1  0  0  0  0
 26 82  1  0  0  0  0
 27 83  1  0  0  0  0
 28 64  2  0  0  0  0
 29 55  1  0  0  0  0
 29 65  1  0  0  0  0
 30 66  1  0  0  0  0
 30 69  1  0  0  0  0
 31 70  1  0  0  0  0
 31 75  2  0  0  0  0
 32 46  1  0  0  0  0
 32 71  1  0  0  0  0
 32 76  2  0  0  0  0
 33 60  1  0  0  0  0
 33 67  1  0  0  0  0
 33 77  2  0  0  0  0
 34 61  1  0  0  0  0
 34 72  1  0  0  0  0
 34 78  2  0  0  0  0
 35 68  1  0  0  0  0
 35 73  1  0  0  0  0
 35 79  2  0  0  0  0
 36 39  1  0  0  0  0
 37 46  1  0  0  0  0
 38 67  1  0  0  0  0
 39 41  1  0  0  0  0
 40 42  1  0  0  0  0
 40 43  1  0  0  0  0
 41 45  1  0  0  0  0
 42 47  1  0  0  0  0
 43 68  1  0  0  0  0
 44 47  1  0  0  0  0
 44 68  1  0  0  0  0
 45 71  1  0  0  0  0
 46 67  1  0  0  0  0
 47 66  1  0  0  0  0
 48 61  1  0  0  0  0
 49 62  1  0  0  0  0
 50 62  1  0  0  0  0
 51 62  1  0  0  0  0
 52 65  1  0  0  0  0
 53 74  1  0  0  0  0
 54 56  1  0  0  0  0
 55 57  1  0  0  0  0
 56 59  1  0  0  0  0
 57 58  1  0  0  0  0
 58 73  1  0  0  0  0
 59 81  1  0  0  0  0
 60 62  1  0  0  0  0
 60 72  1  0  0  0  0
 61 74  1  0  0  0  0
 63 65  1  0  0  0  0
 64 66  1  0  0  0  0
M  CHG  1  74   1
M  ISO  4  35 100  59 101  73 100  81 101
M  END
> <Batch ID>
0041

> <Smiles>
CNC(C)C(=O)NC(C(=O)N1Cc2cc([101O:1][101CH2:1]CCc3cnn(C)c3CCC[100NH:0][100C:0](=O)N3CCCC(n4nc(-c5ccc(Oc6ccc(F)cc6F)cc5)c(C(N)=O)c4N)C3)ccc2CC1C(=O)NC1CCCc2ccccc21)C(C)(C)C

> <Shape>
0.242

> <Color>
0.064

> <Negative vol penalty>
0.000

$$$$

  -OEChem-04052317093D

 86 94  0     1  0  0  0  0  0999 V2000
  -31.7298  -25.8458   17.7884 C   0  0  0  0  0  0  0  0  0  0  0  0
  -30.6647  -25.0636   18.2236 C   0  0  0  0  0  0  0  0  0  0  0  0
  -24.0616   -9.6958   21.9225 C   0  0  0  0  0  0  0  0  0  0  0  0
  -24.5050  -11.1256   23.8188 C   0  0  0  0  0  0  0  0  0  0  0  0
  -31.9645  -27.0894   18.3733 C   0  0  0  0  0  0  0  0  0  0  0  0
  -29.8344  -25.5242   19.2447 C   0  0  0  0  0  0  0  0  0  0  0  0
  -24.9256  -24.7986   18.2336 C   0  0  0  0  0  0  0  0  0  0  0  0
  -23.6246   -8.6892   22.7836 C   0  0  0  0  0  0  0  0  0  0  0  0
  -24.0679  -10.1191   24.6800 C   0  0  0  0  0  0  0  0  0  0  0  0
  -24.4218  -23.5112   18.4145 C   0  0  0  0  0  0  0  0  0  0  0  0
  -20.8372   -7.9623   24.5543 C   0  0  0  0  0  0  0  0  0  0  0  0
  -19.6590   -7.2929   24.2239 C   0  0  0  0  0  0  0  0  0  0  0  0
  -23.5047  -24.1759   20.5443 C   0  0  0  0  0  0  0  0  0  0  0  0
  -20.8709   -5.2048   24.1329 C   0  0  0  0  0  0  0  0  0  0  0  0
  -26.7460  -19.1444   21.6998 C   0  0  0  0  0  0  0  0  0  0  0  0
  -24.5019  -10.9140   22.4401 C   0  0  0  0  0  0  0  0  0  0  0  0
  -24.1753  -12.9707   20.9668 C   0  0  0  0  0  0  0  0  0  0  0  0
  -31.1308  -27.5697   19.3956 C   0  0  0  0  0  0  0  0  0  0  0  0
  -24.7318  -25.7829   19.2133 C   0  0  0  0  0  0  0  0  0  0  0  0
  -30.0590  -26.7749   19.8448 C   0  0  0  0  0  0  0  0  0  0  0  0
  -24.0049  -25.4757   20.3723 C   0  0  0  0  0  0  0  0  0  0  0  0
  -23.6277   -8.9009   24.1623 C   0  0  0  0  0  0  0  0  0  0  0  0
  -23.7138  -23.1989   19.5713 C   0  0  0  0  0  0  0  0  0  0  0  0
  -22.0324   -7.2530   24.6740 C   0  0  0  0  0  0  0  0  0  0  0  0
  -19.6758   -5.9141   24.0132 C   0  0  0  0  0  0  0  0  0  0  0  0
  -22.0492   -5.8743   24.4633 C   0  0  0  0  0  0  0  0  0  0  0  0
  -24.9540  -11.9539   21.5512 C   0  0  0  0  0  0  0  0  0  0  0  0
  -25.6976  -20.0103   21.5656 C   0  0  0  0  0  0  0  0  0  0  0  0
  -25.0662  -13.6953   20.2133 C   0  0  0  0  0  0  0  0  0  0  0  0
  -27.5573  -21.2041   21.6954 C   0  0  0  0  0  0  0  0  0  0  0  0
  -22.7721  -13.2366   21.0939 C   0  0  0  0  0  0  0  0  0  0  0  0
  -26.6504  -27.5125   21.0657 C   0  0  0  0  0  0  0  0  0  0  0  0
  -23.8802  -28.9808   21.8978 C   0  0  0  0  0  0  0  0  0  0  0  0
  -20.4816  -28.8194   22.1621 C   0  0  0  0  0  0  0  0  0  0  0  0
  -30.0185  -16.1940   19.6002 C   0  0  0  0  0  0  0  0  0  0  0  0
  -31.4525  -28.8997   20.0299 C   0  0  0  0  0  0  0  0  0  0  0  0
  -25.2587  -27.1741   18.9910 C   0  0  0  0  0  0  0  0  0  0  0  0
  -23.7519  -26.5021   21.4451 C   0  0  0  0  0  0  0  0  0  0  0  0
  -30.3016  -29.4782   20.8490 C   0  0  0  0  0  0  0  0  0  0  0  0
  -29.8545  -12.7031   18.9195 C   0  0  0  0  0  0  0  0  0  0  0  0
  -29.7007  -28.4083   21.7552 C   0  0  0  0  0  0  0  0  0  0  0  0
  -28.5042  -12.2801   19.5007 C   0  0  0  0  0  0  0  0  0  0  0  0
  -30.5259  -13.7756   19.7745 C   0  0  0  0  0  0  0  0  0  0  0  0
  -28.3431  -14.5397   20.6263 C   0  0  0  0  0  0  0  0  0  0  0  0
  -29.1212  -27.2508   20.9330 C   0  0  1  0  0  0  0  0  0  0  0  0
  -25.4446  -27.9569   20.2872 C   0  0  1  0  0  0  0  0  0  0  0  0
  -27.6021  -13.4999   19.7684 C   0  0  2  0  0  0  0  0  0  0  0  0
  -27.9836  -23.6557   25.3782 C   0  0  0  0  0  0  0  0  0  0  0  0
  -18.4981  -30.1614   22.9122 C   0  0  0  0  0  0  0  0  0  0  0  0
  -24.5984  -28.4112   24.8080 C   0  0  0  0  0  0  0  0  0  0  0  0
  -22.2180  -28.8923   25.4168 C   0  0  0  0  0  0  0  0  0  0  0  0
  -23.6285  -30.6795   24.3976 C   0  0  0  0  0  0  0  0  0  0  0  0
  -19.2876  -28.7843   19.4544 C   0  0  0  0  0  0  0  0  0  0  0  0
  -24.2153  -19.7672   21.4340 C   0  0  0  0  0  0  0  0  0  0  0  0
  -28.4841  -22.3626   21.7376 C   0  0  0  0  0  0  0  0  0  0  0  0
  -28.2747  -22.6727   24.2555 C   0  0  0  0  0  0  0  0  0  0  0  0
  -23.7426  -19.6130   19.9869 C   0  0  0  0  0  0  0  0  0  0  0  0
  -28.1524  -23.3363   22.8838 C   0  0  0  0  0  0  0  0  0  0  0  0
  -30.0299  -19.3582   20.6157 C   0  0  0  0  0  0  0  0  0  0  0  0
  -29.2296  -19.3912   21.9247 C   0  0  0  0  0  0  0  0  0  0  0  0
  -29.3605  -18.5840   19.4822 C   0  0  0  0  0  0  0  0  0  0  0  0
  -23.9443  -20.8699   19.1486 C   0  0  0  0  0  0  0  0  0  1  0  0
  -22.8300  -28.7596   22.9594 C   0  0  1  0  0  0  0  0  0  0  0  0
  -19.3913  -29.7874   21.7395 C   0  0  2  0  0  0  0  0  0  0  0  0
  -23.3250  -29.1655   24.3763 C   0  0  0  0  0  0  0  0  0  0  0  0
  -26.2405  -12.0229   21.1990 N   0  0  0  0  0  0  0  0  0  0  0  0
  -27.8843  -19.9103   21.7773 N   0  0  0  0  0  0  0  0  0  0  0  0
  -26.2771  -13.0917   20.3851 N   0  0  0  0  0  0  0  0  0  0  0  0
  -26.2287  -21.2776   21.5663 N   0  3  0  0  0  0  0  0  0  0  0  0
  -24.2926  -27.8464   21.1844 N   0  0  0  0  0  0  0  0  0  0  0  0
  -29.6183  -14.9051   19.9897 N   0  0  0  0  0  0  0  0  0  0  0  0
  -24.9240  -14.7834   19.4270 N   0  0  0  0  0  0  0  0  0  0  0  0
  -22.0034  -12.3938   21.9082 N   0  0  0  0  0  0  0  0  0  0  0  0
  -27.8401  -27.6217   20.3712 N   0  0  0  0  0  0  0  0  0  0  0  0
  -21.6411  -29.4778   22.5133 N   0  0  0  0  0  0  0  0  0  0  0  0
  -29.0962  -17.2066   19.8340 N   0  0  0  0  0  0  0  0  0  0  0  0
  -18.5417  -29.1788   20.6770 N   0  3  0  0  0  0  0  0  0  0  0  0
  -22.2134  -14.1835   20.4898 O   0  0  0  0  0  0  0  0  0  0  0  0
  -26.5120  -27.1023   22.2121 O   0  0  0  0  0  0  0  0  0  0  0  0
  -24.3134  -30.1193   21.7035 O   0  0  0  0  0  0  0  0  0  0  0  0
  -20.3196  -27.6013   22.1826 O   0  0  0  0  0  0  0  0  0  0  0  0
  -31.1143  -16.4243   19.0775 O   0  0  0  0  0  0  0  0  0  0  0  0
  -23.2011   -7.9190   25.0029 O   0  0  0  0  0  0  0  0  0  0  0  0
  -23.2215  -21.9430   19.7506 O   0  0  0  0  0  0  0  0  0  1  0  0
  -18.5440   -5.2712   23.6974 F   0  0  0  0  0  0  0  0  0  0  0  0
  -23.1941   -5.1873   24.5780 F   0  0  0  0  0  0  0  0  0  0  0  0
  1  2  1  0  0  0  0
  1  5  2  0  0  0  0
  2  6  2  0  0  0  0
  3  8  2  0  0  0  0
  3 16  1  0  0  0  0
  4  9  1  0  0  0  0
  4 16  2  0  0  0  0
  5 18  1  0  0  0  0
  6 20  1  0  0  0  0
  7 10  2  0  0  0  0
  7 19  1  0  0  0  0
  8 22  1  0  0  0  0
  9 22  2  0  0  0  0
 10 23  1  0  0  0  0
 11 12  2  0  0  0  0
 11 24  1  0  0  0  0
 12 25  1  0  0  0  0
 13 21  1  0  0  0  0
 13 23  2  0  0  0  0
 14 25  2  0  0  0  0
 14 26  1  0  0  0  0
 15 28  2  0  0  0  0
 15 67  1  0  0  0  0
 16 27  1  0  0  0  0
 17 27  1  0  0  0  0
 17 29  2  0  0  0  0
 17 31  1  0  0  0  0
 18 20  2  0  0  0  0
 18 36  1  0  0  0  0
 19 21  2  0  0  0  0
 19 37  1  0  0  0  0
 20 45  1  0  0  0  0
 21 38  1  0  0  0  0
 22 83  1  0  0  0  0
 23 84  1  0  0  0  0
 24 26  2  0  0  0  0
 24 83  1  0  0  0  0
 25 85  1  0  0  0  0
 26 86  1  0  0  0  0
 27 66  2  0  0  0  0
 28 54  1  0  0  0  0
 28 69  1  0  0  0  0
 29 68  1  0  0  0  0
 29 72  1  0  0  0  0
 30 55  1  0  0  0  0
 30 67  1  0  0  0  0
 30 69  2  0  0  0  0
 31 73  1  0  0  0  0
 31 78  2  0  0  0  0
 32 46  1  0  0  0  0
 32 74  1  0  0  0  0
 32 79  2  0  0  0  0
 33 63  1  0  0  0  0
 33 70  1  0  0  0  0
 33 80  2  0  0  0  0
 34 64  1  0  0  0  0
 34 75  1  0  0  0  0
 34 81  2  0  0  0  0
 35 71  1  0  0  0  0
 35 76  1  0  0  0  0
 35 82  2  0  0  0  0
 36 39  1  0  0  0  0
 37 46  1  0  0  0  0
 38 70  1  0  0  0  0
 39 41  1  0  0  0  0
 40 42  1  0  0  0  0
 40 43  1  0  0  0  0
 41 45  1  0  0  0  0
 42 47  1  0  0  0  0
 43 71  1  0  0  0  0
 44 47  1  0  0  0  0
 44 71  1  0  0  0  0
 45 74  1  0  0  0  0
 46 70  1  0  0  0  0
 47 68  1  0  0  0  0
 48 56  1  0  0  0  0
 49 64  1  0  0  0  0
 50 65  1  0  0  0  0
 51 65  1  0  0  0  0
 52 65  1  0  0  0  0
 53 77  1  0  0  0  0
 54 57  1  0  0  0  0
 55 58  1  0  0  0  0
 56 58  1  0  0  0  0
 57 62  1  0  0  0  0
 59 60  1  0  0  0  0
 59 61  1  0  0  0  0
 60 67  1  0  0  0  0
 61 76  1  0  0  0  0
 62 84  1  0  0  0  0
 63 65  1  0  0  0  0
 63 75  1  0  0  0  0
 64 77  1  0  0  0  0
 66 68  1  0  0  0  0
M  CHG  2  69   1  77   1
M  ISO  4  35 100  62 101  76 100  84 101
M  END
> <Batch ID>
0041

> <Smiles>
CCCCc1nc(CC[101CH2:1][101O:1]c2ccc3c(c2)CN(C(=O)C(NC(=O)C(C)NC)C(C)(C)C)C(C(=O)NC2CCCc4ccccc42)C3)cn1CCC[100NH:0][100C:0](=O)N1CCCC(n2nc(-c3ccc(Oc4ccc(F)cc4F)cc3)c(C(N)=O)c2N)C1

> <Shape>
0.281

> <Color>
0.100

> <Negative vol penalty>
0.000

$$$$

  -OEChem-04052317093D

 77 85  0     1  0  0  0  0  0999 V2000
  -21.7760  -34.2383   22.4962 C   0  0  0  0  0  0  0  0  0  0  0  0
  -22.8931  -33.4096   22.5251 C   0  0  0  0  0  0  0  0  0  0  0  0
  -26.5645  -15.4463   22.2191 C   0  0  0  0  0  0  0  0  0  0  0  0
  -26.1425  -14.7219   19.9533 C   0  0  0  0  0  0  0  0  0  0  0  0
  -20.5137  -33.7147   22.7722 C   0  0  0  0  0  0  0  0  0  0  0  0
  -22.7485  -32.0568   22.8311 C   0  0  0  0  0  0  0  0  0  0  0  0
  -25.4054  -29.0675   19.7247 C   0  0  0  0  0  0  0  0  0  0  0  0
  -25.5401  -14.6167   22.6752 C   0  0  0  0  0  0  0  0  0  0  0  0
  -25.1182  -13.8922   20.4093 C   0  0  0  0  0  0  0  0  0  0  0  0
  -26.7764  -28.9661   19.9570 C   0  0  0  0  0  0  0  0  0  0  0  0
  -24.8383  -10.8732   21.9019 C   0  0  0  0  0  0  0  0  0  0  0  0
  -24.7846   -9.5745   21.3960 C   0  0  0  0  0  0  0  0  0  0  0  0
  -26.4242  -26.8609   21.0809 C   0  0  0  0  0  0  0  0  0  0  0  0
  -22.5788  -10.0102   20.5117 C   0  0  0  0  0  0  0  0  0  0  0  0
  -30.4313  -24.5139   18.2852 C   0  0  0  0  0  0  0  0  0  0  0  0
  -30.7461  -25.1210   20.3751 C   0  0  0  0  0  0  0  0  0  0  0  0
  -26.8657  -15.4990   20.8582 C   0  0  0  0  0  0  0  0  0  0  0  0
  -30.5732  -24.0066   19.5908 C   0  0  0  0  0  0  0  0  0  0  0  0
  -29.2837  -16.0253   20.2386 C   0  0  0  0  0  0  0  0  0  0  0  0
  -20.3523  -32.3529   23.0723 C   0  0  0  0  0  0  0  0  0  0  0  0
  -24.5308  -28.0700   20.1792 C   0  0  0  0  0  0  0  0  0  0  0  0
  -21.4829  -31.5148   23.1127 C   0  0  0  0  0  0  0  0  0  0  0  0
  -25.0428  -26.9507   20.8510 C   0  0  0  0  0  0  0  0  0  0  0  0
  -24.8170  -13.8396   21.7703 C   0  0  0  0  0  0  0  0  0  0  0  0
  -27.2857  -27.8641   20.6377 C   0  0  0  0  0  0  0  0  0  0  0  0
  -23.7623  -11.7405   21.7128 C   0  0  0  0  0  0  0  0  0  0  0  0
  -23.6549   -9.1430   20.7009 C   0  0  0  0  0  0  0  0  0  0  0  0
  -22.6326  -11.3090   21.0177 C   0  0  0  0  0  0  0  0  0  0  0  0
  -27.9234  -16.3562   20.3864 C   0  0  0  0  0  0  0  0  0  0  0  0
  -29.8666  -17.1740   19.7619 C   0  0  0  0  0  0  0  0  0  0  0  0
  -30.5485  -22.6160   20.0608 C   0  0  0  0  0  0  0  0  0  0  0  0
  -29.9599  -14.7901   20.5081 C   0  0  0  0  0  0  0  0  0  0  0  0
  -22.0942  -27.9821   22.2185 C   0  0  0  0  0  0  0  0  0  0  0  0
  -21.8020  -24.9393   21.1331 C   0  0  0  0  0  0  0  0  0  0  0  0
  -23.2811  -22.2238   19.6891 C   0  0  0  0  0  0  0  0  0  0  0  0
  -18.9739  -31.8424   23.4102 C   0  0  0  0  0  0  0  0  0  0  0  0
  -23.0576  -28.1811   19.8973 C   0  0  0  0  0  0  0  0  0  0  0  0
  -24.1485  -25.8426   21.3416 C   0  0  0  0  0  0  0  0  0  0  0  0
  -18.8581  -30.3211   23.3580 C   0  0  0  0  0  0  0  0  0  0  0  0
  -27.8002  -21.4393   18.0043 C   0  0  0  0  0  0  0  0  0  0  0  0
  -20.0321  -29.6712   24.0832 C   0  0  0  0  0  0  0  0  0  0  0  0
  -27.6908  -19.9804   18.4493 C   0  0  0  0  0  0  0  0  0  0  0  0
  -28.1766  -22.3492   19.1697 C   0  0  0  0  0  0  0  0  0  0  0  0
  -29.3211  -20.4862   20.3242 C   0  0  0  0  0  0  0  0  0  0  0  0
  -21.3635  -30.0370   23.4162 C   0  0  1  0  0  0  0  0  0  0  0  0
  -22.2020  -27.3585   20.8558 C   0  0  1  0  0  0  0  0  0  0  0  0
  -28.9680  -19.5229   19.1776 C   0  0  1  0  0  0  0  0  0  0  0  0
  -22.7977  -19.8707   18.9635 C   0  0  0  0  0  0  0  0  0  0  0  0
  -21.8964  -24.0252   24.0427 C   0  0  0  0  0  0  0  0  0  0  0  0
  -22.3665  -21.7057   23.2259 C   0  0  0  0  0  0  0  0  0  0  0  0
  -20.2199  -22.8261   22.6264 C   0  0  0  0  0  0  0  0  0  0  0  0
  -23.9194  -22.8400   16.8657 C   0  0  0  0  0  0  0  0  0  0  0  0
  -30.8346  -27.6411   19.9034 C   0  0  0  0  0  0  0  0  0  0  0  0
  -29.4932  -28.3661   19.9093 C   0  0  0  0  0  0  0  0  0  1  0  0
  -22.3677  -23.6001   21.5400 C   0  0  1  0  0  0  0  0  0  0  0  0
  -22.8454  -21.3309   18.5413 C   0  0  2  0  0  0  0  0  0  0  0  0
  -21.7296  -23.0609   22.8513 C   0  0  0  0  0  0  0  0  0  0  0  0
  -30.5076  -25.8465   18.2385 N   0  0  0  0  0  0  0  0  0  0  0  0
  -27.6578  -17.6164   20.0324 N   0  0  0  0  0  0  0  0  0  0  0  0
  -30.6991  -26.1863   19.5246 N   0  0  0  0  0  0  0  0  0  0  0  0
  -28.8593  -18.0876   19.6576 N   0  0  0  0  0  0  0  0  0  0  0  0
  -29.3929  -21.8643   19.8344 N   0  0  0  0  0  0  0  0  0  0  0  0
  -22.7146  -26.0002   21.0471 N   0  0  0  0  0  0  0  0  0  0  0  0
  -31.1375  -17.4816   19.4261 N   0  0  0  0  0  0  0  0  0  0  0  0
  -29.2102  -13.7101   20.9938 N   0  0  0  0  0  0  0  0  0  0  0  0
  -21.5579  -29.2556   22.2136 N   0  0  0  0  0  0  0  0  0  0  0  0
  -22.2013  -22.7198   20.3886 N   0  0  0  0  0  0  0  0  0  0  0  0
  -23.7921  -21.4587   17.3975 N   0  3  0  0  0  0  0  0  0  0  0  0
  -31.5689  -22.2132   20.6172 O   0  0  0  0  0  0  0  0  0  0  0  0
  -31.1953  -14.6532   20.3392 O   0  0  0  0  0  0  0  0  0  0  0  0
  -22.4684  -27.3538   23.2018 O   0  0  0  0  0  0  0  0  0  0  0  0
  -20.5961  -25.0387   20.8932 O   0  0  0  0  0  0  0  0  0  0  0  0
  -24.4613  -22.4549   19.9423 O   0  0  0  0  0  0  0  0  0  0  0  0
  -23.8175  -13.0298   22.2150 O   0  0  0  0  0  0  0  0  0  0  0  0
  -28.6233  -27.7629   20.8663 O   0  0  0  0  0  0  0  0  0  1  0  0
  -23.6040   -7.8962   20.2138 F   0  0  0  0  0  0  0  0  0  0  0  0
  -21.5962  -12.1379   20.8318 F   0  0  0  0  0  0  0  0  0  0  0  0
  1  2  1  0  0  0  0
  1  5  2  0  0  0  0
  2  6  2  0  0  0  0
  3  8  2  0  0  0  0
  3 17  1  0  0  0  0
  4  9  1  0  0  0  0
  4 17  2  0  0  0  0
  5 20  1  0  0  0  0
  6 22  1  0  0  0  0
  7 10  2  0  0  0  0
  7 21  1  0  0  0  0
  8 24  1  0  0  0  0
  9 24  2  0  0  0  0
 10 25  1  0  0  0  0
 11 12  2  0  0  0  0
 11 26  1  0  0  0  0
 12 27  1  0  0  0  0
 13 23  1  0  0  0  0
 13 25  2  0  0  0  0
 14 27  2  0  0  0  0
 14 28  1  0  0  0  0
 15 18  1  0  0  0  0
 15 58  2  0  0  0  0
 16 18  2  0  0  0  0
 16 60  1  0  0  0  0
 17 29  1  0  0  0  0
 18 31  1  0  0  0  0
 19 29  1  0  0  0  0
 19 30  2  0  0  0  0
 19 32  1  0  0  0  0
 20 22  2  0  0  0  0
 20 36  1  0  0  0  0
 21 23  2  0  0  0  0
 21 37  1  0  0  0  0
 22 45  1  0  0  0  0
 23 38  1  0  0  0  0
 24 74  1  0  0  0  0
 25 75  1  0  0  0  0
 26 28  2  0  0  0  0
 26 74  1  0  0  0  0
 27 76  1  0  0  0  0
 28 77  1  0  0  0  0
 29 59  2  0  0  0  0
 30 61  1  0  0  0  0
 30 64  1  0  0  0  0
 31 62  1  0  0  0  0
 31 69  2  0  0  0  0
 32 65  1  0  0  0  0
 32 70  2  0  0  0  0
 33 46  1  0  0  0  0
 33 66  1  0  0  0  0
 33 71  2  0  0  0  0
 34 55  1  0  0  0  0
 34 63  1  0  0  0  0
 34 72  2  0  0  0  0
 35 56  1  0  0  0  0
 35 67  1  0  0  0  0
 35 73  2  0  0  0  0
 36 39  1  0  0  0  0
 37 46  1  0  0  0  0
 38 63  1  0  0  0  0
 39 41  1  0  0  0  0
 40 42  1  0  0  0  0
 40 43  1  0  0  0  0
 41 45  1  0  0  0  0
 42 47  1  0  0  0  0
 43 62  1  0  0  0  0
 44 47  1  0  0  0  0
 44 62  1  0  0  0  0
 45 66  1  0  0  0  0
 46 63  1  0  0  0  0
 47 61  1  0  0  0  0
 48 56  1  0  0  0  0
 49 57  1  0  0  0  0
 50 57  1  0  0  0  0
 51 57  1  0  0  0  0
 52 68  1  0  0  0  0
 53 54  1  0  0  0  0
 53 60  1  0  0  0  0
 54 75  1  0  0  0  0
 55 57  1  0  0  0  0
 55 67  1  0  0  0  0
 56 68  1  0  0  0  0
 58 60  1  0  0  0  0
 59 61  1  0  0  0  0
M  CHG  1  68   1
M  ISO  4  18 100  31 100  54 101  75 101
M  END
> <Batch ID>
0041

> <Smiles>
CNC(C)C(=O)NC(C(=O)N1Cc2cc([101O:1][101CH2:1]Cn3c[100c:0]([100C:0](=O)N4CCCC(n5nc(-c6ccc(Oc7ccc(F)cc7F)cc6)c(C(N)=O)c5N)C4)cn3)ccc2CC1C(=O)NC1CCCc2ccccc21)C(C)(C)C

> <Shape>
0.259

> <Color>
0.067

> <Negative vol penalty>
0.000

$$$$

  -OEChem-04052317093D

 83 91  0     1  0  0  0  0  0999 V2000
  -21.7718  -11.9094   20.6116 C   0  0  0  0  0  0  0  0  0  0  0  0
  -21.6126  -13.1957   21.1173 C   0  0  0  0  0  0  0  0  0  0  0  0
  -25.0365  -28.5601   19.4444 C   0  0  0  0  0  0  0  0  0  0  0  0
  -25.8683  -26.9738   21.0658 C   0  0  0  0  0  0  0  0  0  0  0  0
  -23.0489  -11.4241   20.3335 C   0  0  0  0  0  0  0  0  0  0  0  0
  -22.7306  -13.9970   21.3461 C   0  0  0  0  0  0  0  0  0  0  0  0
  -23.1038  -20.0733   20.6787 C   0  0  0  0  0  0  0  0  0  0  0  0
  -26.2892  -29.1718   19.4002 C   0  0  0  0  0  0  0  0  0  0  0  0
  -27.1211  -27.5855   21.0215 C   0  0  0  0  0  0  0  0  0  0  0  0
  -23.0208  -21.1240   21.5913 C   0  0  0  0  0  0  0  0  0  0  0  0
  -30.6381  -28.5056   21.0659 C   0  0  0  0  0  0  0  0  0  0  0  0
  -31.7606  -27.6815   20.9858 C   0  0  0  0  0  0  0  0  0  0  0  0
  -25.4278  -21.1753   21.7421 C   0  0  0  0  0  0  0  0  0  0  0  0
  -30.9422  -26.7695   18.9035 C   0  0  0  0  0  0  0  0  0  0  0  0
  -23.7221  -21.7672   26.8377 C   0  0  0  0  0  0  0  0  0  0  0  0
  -24.8260  -27.4611   20.2773 C   0  0  0  0  0  0  0  0  0  0  0  0
  -23.0749  -25.7676   19.5200 C   0  0  0  0  0  0  0  0  0  0  0  0
  -24.1825  -12.2234   20.5499 C   0  0  0  0  0  0  0  0  0  0  0  0
  -24.3512  -19.5575   20.2986 C   0  0  0  0  0  0  0  0  0  0  0  0
  -24.0242  -13.5214   21.0719 C   0  0  0  0  0  0  0  0  0  0  0  0
  -25.5241  -20.1197   20.8225 C   0  0  0  0  0  0  0  0  0  0  0  0
  -27.3315  -28.6845   20.1887 C   0  0  0  0  0  0  0  0  0  0  0  0
  -24.1827  -21.6732   22.1253 C   0  0  0  0  0  0  0  0  0  0  0  0
  -29.6676  -28.4616   20.0650 C   0  0  0  0  0  0  0  0  0  0  0  0
  -31.9127  -26.8134   19.9046 C   0  0  0  0  0  0  0  0  0  0  0  0
  -29.8197  -27.5936   18.9838 C   0  0  0  0  0  0  0  0  0  0  0  0
  -23.5319  -26.8291   20.3238 C   0  0  0  0  0  0  0  0  0  0  0  0
  -23.4744  -22.7256   25.8799 C   0  0  0  0  0  0  0  0  0  0  0  0
  -21.4775  -21.3692   27.0200 C   0  0  0  0  0  0  0  0  0  0  0  0
  -21.2297  -22.3282   26.0627 C   0  0  0  0  0  0  0  0  0  0  0  0
  -21.7922  -25.5365   19.9532 C   0  0  0  0  0  0  0  0  0  0  0  0
  -23.7495  -25.0542   18.4752 C   0  0  0  0  0  0  0  0  0  0  0  0
  -25.7812  -16.7301   20.5523 C   0  0  0  0  0  0  0  0  0  0  0  0
  -28.0616  -18.1572   18.7397 C   0  0  0  0  0  0  0  0  0  0  0  0
  -29.5492  -21.0483   17.7027 C   0  0  0  0  0  0  0  0  0  0  0  0
  -18.9959  -26.5614   25.1476 C   0  0  0  0  0  0  0  0  0  0  0  0
  -25.5458  -11.6382   20.2788 C   0  0  0  0  0  0  0  0  0  0  0  0
  -24.4247  -18.4416   19.2927 C   0  0  0  0  0  0  0  0  0  0  0  0
  -26.8884  -19.6156   20.4315 C   0  0  0  0  0  0  0  0  0  0  0  0
  -26.6530  -12.6859   20.1966 C   0  0  0  0  0  0  0  0  0  0  0  0
  -18.0499  -27.7651   21.9331 C   0  0  0  0  0  0  0  0  0  0  0  0
  -26.5426  -13.6712   21.3559 C   0  0  0  0  0  0  0  0  0  0  0  0
  -19.3064  -27.5659   21.0837 C   0  0  0  0  0  0  0  0  0  0  0  0
  -18.3948  -28.1720   23.3640 C   0  0  0  0  0  0  0  0  0  0  0  0
  -20.5949  -27.0731   23.2039 C   0  0  0  0  0  0  0  0  0  0  0  0
  -25.2108  -14.4299   21.3102 C   0  0  1  0  0  0  0  0  0  0  0  0
  -25.7290  -17.6539   19.3685 C   0  0  1  0  0  0  0  0  0  0  0  0
  -20.2997  -26.6075   21.7678 C   0  0  2  0  0  0  0  0  0  0  0  0
  -20.3690  -20.6072   27.6621 C   0  0  0  0  0  0  0  0  0  0  0  0
  -31.4122  -21.8938   16.2495 C   0  0  0  0  0  0  0  0  0  0  0  0
  -30.0905  -17.3283   20.8625 C   0  0  0  0  0  0  0  0  0  0  0  0
  -31.6960  -18.9735   19.8706 C   0  0  0  0  0  0  0  0  0  0  0  0
  -30.8768  -17.0539   18.5044 C   0  0  0  0  0  0  0  0  0  0  0  0
  -27.6747  -22.5508   15.9742 C   0  0  0  0  0  0  0  0  0  0  0  0
  -24.6134  -23.4841   25.2429 C   0  0  0  0  0  0  0  0  0  0  0  0
  -19.8414  -22.6483   25.6245 C   0  0  0  0  0  0  0  0  0  0  0  0
  -19.0633  -23.5672   26.5876 C   0  0  0  0  0  0  0  0  0  0  0  0
  -19.7341  -24.9138   26.8504 C   0  0  0  0  0  0  0  0  0  0  0  0
  -25.1426  -22.7924   23.9914 C   0  0  0  0  0  0  0  0  0  1  0  0
  -29.3049  -18.9642   19.0260 C   0  0  1  0  0  0  0  0  0  0  0  0
  -29.9340  -21.5435   16.3203 C   0  0  2  0  0  0  0  0  0  0  0  0
  -30.4664  -18.0884   19.5749 C   0  0  0  0  0  0  0  0  0  0  0  0
  -22.7281  -21.0717   27.4250 N   0  0  0  0  0  0  0  0  0  0  0  0
  -22.6141  -27.2437   21.2012 N   0  0  0  0  0  0  0  0  0  0  0  0
  -22.2237  -23.0234   25.4752 N   0  0  0  0  0  0  0  0  0  0  0  0
  -21.5675  -26.4387   20.9511 N   0  0  0  0  0  0  0  0  0  0  0  0
  -26.9078  -18.5189   19.4495 N   0  0  0  0  0  0  0  0  0  0  0  0
  -19.3391  -27.2215   23.9562 N   0  0  0  0  0  0  0  0  0  0  0  0
  -20.8457  -24.6516   19.5741 N   0  0  0  0  0  0  0  0  0  0  0  0
  -25.0646  -25.4202   18.1576 N   0  0  0  0  0  0  0  0  0  0  0  0
  -25.2581  -15.4744   20.3096 N   0  0  0  0  0  0  0  0  0  0  0  0
  -29.6237  -19.6744   17.7921 N   0  0  0  0  0  0  0  0  0  0  0  0
  -19.9448  -25.6725   25.6377 N   0  0  0  0  0  0  0  0  0  0  0  0
  -29.1458  -22.7580   15.9671 N   0  3  0  0  0  0  0  0  0  0  0  0
  -23.1967  -24.1307   17.8310 O   0  0  0  0  0  0  0  0  0  0  0  0
  -26.2620  -17.1267   21.6075 O   0  0  0  0  0  0  0  0  0  0  0  0
  -28.1104  -17.2445   17.9114 O   0  0  0  0  0  0  0  0  0  0  0  0
  -29.2195  -21.8049   18.6134 O   0  0  0  0  0  0  0  0  0  0  0  0
  -17.9211  -26.7463   25.7285 O   0  0  0  0  0  0  0  0  0  0  0  0
  -28.5542  -29.2810   20.1456 O   0  0  0  0  0  0  0  0  0  0  0  0
  -24.1045  -22.6985   23.0168 O   0  0  0  0  0  0  0  0  0  1  0  0
  -32.9914  -26.0232   19.8269 F   0  0  0  0  0  0  0  0  0  0  0  0
  -28.8913  -27.5477   18.0185 F   0  0  0  0  0  0  0  0  0  0  0  0
  1  2  1  0  0  0  0
  1  5  2  0  0  0  0
  2  6  2  0  0  0  0
  3  8  2  0  0  0  0
  3 16  1  0  0  0  0
  4  9  1  0  0  0  0
  4 16  2  0  0  0  0
  5 18  1  0  0  0  0
  6 20  1  0  0  0  0
  7 10  2  0  0  0  0
  7 19  1  0  0  0  0
  8 22  1  0  0  0  0
  9 22  2  0  0  0  0
 10 23  1  0  0  0  0
 11 12  2  0  0  0  0
 11 24  1  0  0  0  0
 12 25  1  0  0  0  0
 13 21  1  0  0  0  0
 13 23  2  0  0  0  0
 14 25  2  0  0  0  0
 14 26  1  0  0  0  0
 15 28  1  0  0  0  0
 15 63  2  0  0  0  0
 16 27  1  0  0  0  0
 17 27  1  0  0  0  0
 17 31  2  0  0  0  0
 17 32  1  0  0  0  0
 18 20  2  0  0  0  0
 18 37  1  0  0  0  0
 19 21  2  0  0  0  0
 19 38  1  0  0  0  0
 20 46  1  0  0  0  0
 21 39  1  0  0  0  0
 22 80  1  0  0  0  0
 23 81  1  0  0  0  0
 24 26  2  0  0  0  0
 24 80  1  0  0  0  0
 25 82  1  0  0  0  0
 26 83  1  0  0  0  0
 27 64  2  0  0  0  0
 28 55  1  0  0  0  0
 28 65  2  0  0  0  0
 29 30  2  0  0  0  0
 29 49  1  0  0  0  0
 29 63  1  0  0  0  0
 30 56  1  0  0  0  0
 30 65  1  0  0  0  0
 31 66  1  0  0  0  0
 31 69  1  0  0  0  0
 32 70  1  0  0  0  0
 32 75  2  0  0  0  0
 33 47  1  0  0  0  0
 33 71  1  0  0  0  0
 33 76  2  0  0  0  0
 34 60  1  0  0  0  0
 34 67  1  0  0  0  0
 34 77  2  0  0  0  0
 35 61  1  0  0  0  0
 35 72  1  0  0  0  0
 35 78  2  0  0  0  0
 36 68  1  0  0  0  0
 36 73  1  0  0  0  0
 36 79  2  0  0  0  0
 37 40  1  0  0  0  0
 38 47  1  0  0  0  0
 39 67  1  0  0  0  0
 40 42  1  0  0  0  0
 41 43  1  0  0  0  0
 41 44  1  0  0  0  0
 42 46  1  0  0  0  0
 43 48  1  0  0  0  0
 44 68  1  0  0  0  0
 45 48  1  0  0  0  0
 45 68  1  0  0  0  0
 46 71  1  0  0  0  0
 47 67  1  0  0  0  0
 48 66  1  0  0  0  0
 50 61  1  0  0  0  0
 51 62  1  0  0  0  0
 52 62  1  0  0  0  0
 53 62  1  0  0  0  0
 54 74  1  0  0  0  0
 55 59  1  0  0  0  0
 56 57  1  0  0  0  0
 57 58  1  0  0  0  0
 58 73  1  0  0  0  0
 59 81  1  0  0  0  0
 60 62  1  0  0  0  0
 60 72  1  0  0  0  0
 61 74  1  0  0  0  0
 64 66  1  0  0  0  0
M  CHG  1  74   1
M  ISO  4  36 100  59 101  73 100  81 101
M  END
> <Batch ID>
0041

> <Smiles>
CNC(C)C(=O)NC(C(=O)N1Cc2cc([101O:1][101CH2:1]Cc3cnc(C)c(CCC[100NH:0][100C:0](=O)N4CCCC(n5nc(-c6ccc(Oc7ccc(F)cc7F)cc6)c(C(N)=O)c5N)C4)n3)ccc2CC1C(=O)NC1CCCc2ccccc21)C(C)(C)C

> <Shape>
0.196

> <Color>
0.074

> <Negative vol penalty>
0.000

$$$$

  -OEChem-04052317093D

 83 91  0     1  0  0  0  0  0999 V2000
  -20.6923  -33.5744   27.4547 C   0  0  0  0  0  0  0  0  0  0  0  0
  -21.1126  -32.2709   27.6989 C   0  0  0  0  0  0  0  0  0  0  0  0
  -23.0078  -10.2718   21.5170 C   0  0  0  0  0  0  0  0  0  0  0  0
  -23.9806  -11.0752   23.5774 C   0  0  0  0  0  0  0  0  0  0  0  0
  -20.5683  -34.0315   26.1434 C   0  0  0  0  0  0  0  0  0  0  0  0
  -21.4082  -31.4234   26.6317 C   0  0  0  0  0  0  0  0  0  0  0  0
  -25.7380  -27.0957   26.4574 C   0  0  0  0  0  0  0  0  0  0  0  0
  -28.2881  -16.5787   22.1205 C   0  0  0  0  0  0  0  0  0  0  0  0
  -22.2561   -9.3415   22.2346 C   0  0  0  0  0  0  0  0  0  0  0  0
  -23.2288  -10.1449   24.2951 C   0  0  0  0  0  0  0  0  0  0  0  0
  -25.6919  -25.7148   26.6436 C   0  0  0  0  0  0  0  0  0  0  0  0
  -19.4351   -9.3241   24.0986 C   0  0  0  0  0  0  0  0  0  0  0  0
  -18.0875   -9.1851   23.7668 C   0  0  0  0  0  0  0  0  0  0  0  0
  -27.6367  -17.3776   23.0537 C   0  0  0  0  0  0  0  0  0  0  0  0
  -25.5412  -25.4038   24.2562 C   0  0  0  0  0  0  0  0  0  0  0  0
  -18.4605   -6.8603   23.2253 C   0  0  0  0  0  0  0  0  0  0  0  0
  -30.3289  -17.6517   22.7036 C   0  0  0  0  0  0  0  0  0  0  0  0
  -23.8701  -11.1386   22.1884 C   0  0  0  0  0  0  0  0  0  0  0  0
  -24.2758  -13.4148   21.1102 C   0  0  0  0  0  0  0  0  0  0  0  0
  -20.8718  -33.1922   25.0598 C   0  0  0  0  0  0  0  0  0  0  0  0
  -25.6749  -27.6424   25.1676 C   0  0  0  0  0  0  0  0  0  0  0  0
  -21.2869  -31.8693   25.3046 C   0  0  0  0  0  0  0  0  0  0  0  0
  -25.5892  -26.7919   24.0561 C   0  0  0  0  0  0  0  0  0  0  0  0
  -29.6597  -16.7121   21.9361 C   0  0  0  0  0  0  0  0  0  0  0  0
  -22.3666   -9.2780   23.6237 C   0  0  0  0  0  0  0  0  0  0  0  0
  -25.5906  -24.8687   25.5432 C   0  0  0  0  0  0  0  0  0  0  0  0
  -20.2955   -8.2312   23.9937 C   0  0  0  0  0  0  0  0  0  0  0  0
  -17.6001   -7.9532   23.3302 C   0  0  0  0  0  0  0  0  0  0  0  0
  -19.8082   -6.9993   23.5571 C   0  0  0  0  0  0  0  0  0  0  0  0
  -24.6473  -12.0995   21.4475 C   0  0  0  0  0  0  0  0  0  0  0  0
  -28.3965  -18.2873   23.7713 C   0  0  0  0  0  0  0  0  0  0  0  0
  -25.3511  -13.9069   20.4117 C   0  0  0  0  0  0  0  0  0  0  0  0
  -23.0668  -14.1280   21.4024 C   0  0  0  0  0  0  0  0  0  0  0  0
  -23.6605  -29.5740   23.6461 C   0  0  0  0  0  0  0  0  0  0  0  0
  -31.1495  -13.5523   20.4182 C   0  0  0  0  0  0  0  0  0  0  0  0
  -25.9041  -29.4330   21.3076 C   0  0  0  0  0  0  0  0  0  0  0  0
  -28.4874  -27.7279   19.8702 C   0  0  0  0  0  0  0  0  0  0  0  0
  -20.6772  -33.7162   23.6590 C   0  0  0  0  0  0  0  0  0  0  0  0
  -25.7526  -29.1330   24.9819 C   0  0  0  0  0  0  0  0  0  0  0  0
  -25.5387  -27.3279   22.6495 C   0  0  0  0  0  0  0  0  0  0  0  0
  -21.3697  -32.8728   22.5915 C   0  0  0  0  0  0  0  0  0  0  0  0
  -29.1348  -11.9037   17.9558 C   0  0  0  0  0  0  0  0  0  0  0  0
  -21.0916  -31.3903   22.8190 C   0  0  0  0  0  0  0  0  0  0  0  0
  -27.7424  -11.8850   18.5852 C   0  0  0  0  0  0  0  0  0  0  0  0
  -30.2260  -11.7420   19.0094 C   0  0  0  0  0  0  0  0  0  0  0  0
  -28.7651  -12.7283   20.7457 C   0  0  0  0  0  0  0  0  0  0  0  0
  -21.6406  -30.9276   24.1740 C   0  0  1  0  0  0  0  0  0  0  0  0
  -25.1627  -29.6015   23.6553 C   0  0  1  0  0  0  0  0  0  0  0  0
  -27.6345  -12.9196   19.7194 C   0  0  2  0  0  0  0  0  0  0  0  0
  -32.2291  -14.7452   22.2800 C   0  0  0  0  0  0  0  0  0  0  0  0
  -30.0974  -27.8443   17.9488 C   0  0  0  0  0  0  0  0  0  0  0  0
  -23.6779  -28.5990   19.3949 C   0  0  0  0  0  0  0  0  0  0  0  0
  -25.4394  -27.8245   17.7932 C   0  0  0  0  0  0  0  0  0  0  0  0
  -25.3161  -30.2303   18.4411 C   0  0  0  0  0  0  0  0  0  0  0  0
  -30.8266  -27.7807   21.6824 C   0  0  0  0  0  0  0  0  0  0  0  0
  -30.3853  -15.8727   20.9455 C   0  0  0  0  0  0  0  0  0  0  0  0
  -27.7234  -19.1698   24.7921 C   0  0  0  0  0  0  0  0  0  0  0  0
  -27.2198  -20.5011   24.2236 C   0  0  0  0  0  0  0  0  0  0  0  0
  -26.6098  -21.4142   25.2882 C   0  0  0  0  0  0  0  0  0  0  0  0
  -26.0855  -22.7083   24.6809 C   0  0  0  0  0  0  0  0  0  1  0  0
  -30.9171  -14.5458   21.5286 C   0  0  1  0  0  0  0  0  0  0  0  0
  -26.1552  -28.5360   20.1196 C   0  0  1  0  0  0  0  0  0  0  0  0
  -29.8625  -28.1804   19.4132 C   0  0  2  0  0  0  0  0  0  0  0  0
  -25.1461  -28.7871   18.9637 C   0  0  0  0  0  0  0  0  0  0  0  0
  -29.7306  -18.4456   23.6197 N   0  0  0  0  0  0  0  0  0  0  0  0
  -25.8636  -11.7764   20.9999 N   0  0  0  0  0  0  0  0  0  0  0  0
  -26.2656  -12.8957   20.3741 N   0  0  0  0  0  0  0  0  0  0  0  0
  -25.6115  -28.7926   22.5202 N   0  0  0  0  0  0  0  0  0  0  0  0
  -30.0755  -12.7286   20.0806 N   0  0  0  0  0  0  0  0  0  0  0  0
  -25.5941  -15.1015   19.8319 N   0  0  0  0  0  0  0  0  0  0  0  0
  -22.0640  -13.4731   22.1303 N   0  0  0  0  0  0  0  0  0  0  0  0
  -23.0737  -30.7394   24.1011 N   0  0  0  0  0  0  0  0  0  0  0  0
  -27.5518  -28.7333   19.7471 N   0  0  0  0  0  0  0  0  0  0  0  0
  -30.9222  -27.5163   20.2237 N   0  3  0  0  0  0  0  0  0  0  0  0
  -22.8746  -15.3054   21.0148 O   0  0  0  0  0  0  0  0  0  0  0  0
  -23.0769  -28.5704   23.2538 O   0  0  0  0  0  0  0  0  0  0  0  0
  -32.2524  -13.5131   19.8665 O   0  0  0  0  0  0  0  0  0  0  0  0
  -25.9723  -30.6565   21.1667 O   0  0  0  0  0  0  0  0  0  0  0  0
  -28.2646  -26.5947   20.2905 O   0  0  0  0  0  0  0  0  0  0  0  0
  -21.6330   -8.3705   24.3243 O   0  0  0  0  0  0  0  0  0  0  0  0
  -25.5448  -23.5205   25.7222 O   0  0  0  0  0  0  0  0  0  1  0  0
  -16.3056   -7.8195   23.0130 F   0  0  0  0  0  0  0  0  0  0  0  0
  -20.6297   -5.9454   23.4555 F   0  0  0  0  0  0  0  0  0  0  0  0
  1  2  1  0  0  0  0
  1  5  2  0  0  0  0
  2  6  2  0  0  0  0
  3  9  2  0  0  0  0
  3 18  1  0  0  0  0
  4 10  1  0  0  0  0
  4 18  2  0  0  0  0
  5 20  1  0  0  0  0
  6 22  1  0  0  0  0
  7 11  2  0  0  0  0
  7 21  1  0  0  0  0
  8 14  2  0  0  0  0
  8 24  1  0  0  0  0
  9 25  1  0  0  0  0
 10 25  2  0  0  0  0
 11 26  1  0  0  0  0
 12 13  2  0  0  0  0
 12 27  1  0  0  0  0
 13 28  1  0  0  0  0
 14 31  1  0  0  0  0
 15 23  1  0  0  0  0
 15 26  2  0  0  0  0
 16 28  2  0  0  0  0
 16 29  1  0  0  0  0
 17 24  2  0  0  0  0
 17 65  1  0  0  0  0
 18 30  1  0  0  0  0
 19 30  1  0  0  0  0
 19 32  2  0  0  0  0
 19 33  1  0  0  0  0
 20 22  2  0  0  0  0
 20 38  1  0  0  0  0
 21 23  2  0  0  0  0
 21 39  1  0  0  0  0
 22 47  1  0  0  0  0
 23 40  1  0  0  0  0
 24 56  1  0  0  0  0
 25 80  1  0  0  0  0
 26 81  1  0  0  0  0
 27 29  2  0  0  0  0
 27 80  1  0  0  0  0
 28 82  1  0  0  0  0
 29 83  1  0  0  0  0
 30 66  2  0  0  0  0
 31 57  1  0  0  0  0
 31 65  2  0  0  0  0
 32 67  1  0  0  0  0
 32 70  1  0  0  0  0
 33 71  1  0  0  0  0
 33 75  2  0  0  0  0
 34 48  1  0  0  0  0
 34 72  1  0  0  0  0
 34 76  2  0  0  0  0
 35 61  1  0  0  0  0
 35 69  1  0  0  0  0
 35 77  2  0  0  0  0
 36 62  1  0  0  0  0
 36 68  1  0  0  0  0
 36 78  2  0  0  0  0
 37 63  1  0  0  0  0
 37 73  1  0  0  0  0
 37 79  2  0  0  0  0
 38 41  1  0  0  0  0
 39 48  1  0  0  0  0
 40 68  1  0  0  0  0
 41 43  1  0  0  0  0
 42 44  1  0  0  0  0
 42 45  1  0  0  0  0
 43 47  1  0  0  0  0
 44 49  1  0  0  0  0
 45 69  1  0  0  0  0
 46 49  1  0  0  0  0
 46 69  1  0  0  0  0
 47 72  1  0  0  0  0
 48 68  1  0  0  0  0
 49 67  1  0  0  0  0
 50 61  1  0  0  0  0
 51 63  1  0  0  0  0
 52 64  1  0  0  0  0
 53 64  1  0  0  0  0
 54 64  1  0  0  0  0
 55 74  1  0  0  0  0
 56 61  1  0  0  0  0
 57 58  1  0  0  0  0
 58 59  1  0  0  0  0
 59 60  1  0  0  0  0
 60 81  1  0  0  0  0
 62 64  1  0  0  0  0
 62 73  1  0  0  0  0
 63 74  1  0  0  0  0
 66 67  1  0  0  0  0
M  CHG  1  74   1
M  ISO  4  35 100  60 101  61 100  81 101
M  END
> <Batch ID>
0041

> <Smiles>
CNC(C)C(=O)NC(C(=O)N1Cc2cc([101O:1][101CH2:1]CCCc3ccc(C[100CH:0](C)[100C:0](=O)N4CCCC(n5nc(-c6ccc(Oc7ccc(F)cc7F)cc6)c(C(N)=O)c5N)C4)cn3)ccc2CC1C(=O)NC1CCCc2ccccc21)C(C)(C)C

> <Shape>
0.223

> <Color>
0.143

> <Negative vol penalty>
0.000

$$$$

  -OEChem-04052317093D

 85 93  0     1  0  0  0  0  0999 V2000
  -22.2402   -8.3639   20.6048 C   0  0  0  0  0  0  0  0  0  0  0  0
  -22.1814   -9.7521   20.5354 C   0  0  0  0  0  0  0  0  0  0  0  0
  -28.2260  -27.2711   21.2327 C   0  0  0  0  0  0  0  0  0  0  0  0
  -26.9269  -26.4585   19.3647 C   0  0  0  0  0  0  0  0  0  0  0  0
  -23.2985   -7.7444   21.2683 C   0  0  0  0  0  0  0  0  0  0  0  0
  -23.1804  -10.5217   21.1305 C   0  0  0  0  0  0  0  0  0  0  0  0
  -24.7598  -14.2974   18.1481 C   0  0  0  0  0  0  0  0  0  0  0  0
  -29.0910  -26.1845   21.1038 C   0  0  0  0  0  0  0  0  0  0  0  0
  -27.7919  -25.3719   19.2358 C   0  0  0  0  0  0  0  0  0  0  0  0
  -23.9473  -15.4275   18.0674 C   0  0  0  0  0  0  0  0  0  0  0  0
  -29.4490  -22.1921   18.6418 C   0  0  0  0  0  0  0  0  0  0  0  0
  -28.8827  -20.9315   18.4527 C   0  0  0  0  0  0  0  0  0  0  0  0
  -25.3815  -16.5636   19.6395 C   0  0  0  0  0  0  0  0  0  0  0  0
  -21.1674  -21.7414   20.3015 C   0  0  0  0  0  0  0  0  0  0  0  0
  -27.7296  -21.1324   20.5663 C   0  0  0  0  0  0  0  0  0  0  0  0
  -19.6140  -21.4614   18.5224 C   0  0  0  0  0  0  0  0  0  0  0  0
  -27.1438  -27.4081   20.3632 C   0  0  0  0  0  0  0  0  0  0  0  0
  -26.3628  -29.7861   19.8708 C   0  0  0  0  0  0  0  0  0  0  0  0
  -24.3160   -8.5067   21.8635 C   0  0  0  0  0  0  0  0  0  0  0  0
  -25.8850  -14.2881   18.9849 C   0  0  0  0  0  0  0  0  0  0  0  0
  -24.2526   -9.9119   21.8037 C   0  0  0  0  0  0  0  0  0  0  0  0
  -26.2081  -15.4330   19.7271 C   0  0  0  0  0  0  0  0  0  0  0  0
  -20.7917  -21.0740   19.1410 C   0  0  0  0  0  0  0  0  0  0  0  0
  -20.3653  -22.7614   20.8009 C   0  0  0  0  0  0  0  0  0  0  0  0
  -28.8740  -25.2349   20.1054 C   0  0  0  0  0  0  0  0  0  0  0  0
  -24.2564  -16.5598   18.8153 C   0  0  0  0  0  0  0  0  0  0  0  0
  -29.1557  -22.9229   19.7932 C   0  0  0  0  0  0  0  0  0  0  0  0
  -28.0230  -20.4017   19.4149 C   0  0  0  0  0  0  0  0  0  0  0  0
  -28.2959  -22.3931   20.7554 C   0  0  0  0  0  0  0  0  0  0  0  0
  -26.2496  -28.5300   20.4962 C   0  0  0  0  0  0  0  0  0  0  0  0
  -19.2067  -23.0734   20.1079 C   0  0  0  0  0  0  0  0  0  0  0  0
  -25.2738  -30.4926   20.3197 C   0  0  0  0  0  0  0  0  0  0  0  0
  -27.3628  -30.2710   18.9649 C   0  0  0  0  0  0  0  0  0  0  0  0
  -26.7851  -12.5869   21.5146 C   0  0  0  0  0  0  0  0  0  0  0  0
  -29.5502  -14.2450   21.1579 C   0  0  0  0  0  0  0  0  0  0  0  0
  -31.1246  -17.0339   19.9788 C   0  0  0  0  0  0  0  0  0  0  0  0
  -19.9043  -28.8315   22.3837 C   0  0  0  0  0  0  0  0  0  0  0  0
  -25.4150   -7.7932   22.6104 C   0  0  0  0  0  0  0  0  0  0  0  0
  -26.7664  -13.0705   19.0404 C   0  0  0  0  0  0  0  0  0  0  0  0
  -27.4164  -15.4811   20.6250 C   0  0  0  0  0  0  0  0  0  0  0  0
  -26.6307   -8.6726   22.8916 C   0  0  0  0  0  0  0  0  0  0  0  0
  -22.3184  -30.8358   24.0665 C   0  0  0  0  0  0  0  0  0  0  0  0
  -26.1940  -10.0291   23.4356 C   0  0  0  0  0  0  0  0  0  0  0  0
  -23.6098  -30.5855   23.2858 C   0  0  0  0  0  0  0  0  0  0  0  0
  -21.4623  -29.5747   24.1604 C   0  0  0  0  0  0  0  0  0  0  0  0
  -22.4511  -28.6835   22.0864 C   0  0  0  0  0  0  0  0  0  0  0  0
  -25.3303  -10.7806   22.4154 C   0  0  1  0  0  0  0  0  0  0  0  0
  -27.5975  -12.9922   20.3173 C   0  0  1  0  0  0  0  0  0  0  0  0
  -23.3215  -29.9405   21.9168 C   0  0  2  0  0  0  0  0  0  0  0  0
  -20.7610  -23.4793   22.0448 C   0  0  0  0  0  0  0  0  0  0  0  0
  -33.3819  -18.1249   19.8716 C   0  0  0  0  0  0  0  0  0  0  0  0
  -29.2915  -15.0626   24.0861 C   0  0  0  0  0  0  0  0  0  0  0  0
  -30.9830  -16.8590   23.6616 C   0  0  0  0  0  0  0  0  0  0  0  0
  -31.6118  -14.4625   23.3716 C   0  0  0  0  0  0  0  0  0  0  0  0
  -31.1416  -16.9738   17.0199 C   0  0  0  0  0  0  0  0  0  0  0  0
  -21.6396  -19.9641   18.5728 C   0  0  0  0  0  0  0  0  0  0  0  0
  -18.3068  -24.1607   20.5973 C   0  0  0  0  0  0  0  0  0  0  0  0
  -21.2765  -18.5767   19.1065 C   0  0  0  0  0  0  0  0  0  0  0  0
  -18.8553  -25.5575   20.2703 C   0  0  0  0  0  0  0  0  0  0  0  0
  -17.9425  -26.6630   20.8093 C   0  0  0  0  0  0  0  0  0  0  0  0
  -18.4735  -28.0607   20.5081 C   0  0  0  0  0  0  0  0  0  0  0  0
  -22.0806  -17.4529   18.4631 C   0  0  0  0  0  0  0  0  0  1  0  0
  -30.0851  -15.5568   21.6794 C   0  0  1  0  0  0  0  0  0  0  0  0
  -32.3960  -17.2058   19.1674 C   0  0  2  0  0  0  0  0  0  0  0  0
  -30.4689  -15.4840   23.1843 C   0  0  0  0  0  0  0  0  0  0  0  0
  -18.8089  -22.4474   18.9776 N   0  0  0  0  0  0  0  0  0  0  0  0
  -25.1737  -28.4407   21.2826 N   0  0  0  0  0  0  0  0  0  0  0  0
  -24.6010  -29.6496   21.1545 N   0  0  0  0  0  0  0  0  0  0  0  0
  -28.2435  -14.2634   20.6500 N   0  0  0  0  0  0  0  0  0  0  0  0
  -21.2242  -29.0137   22.8283 N   0  0  0  0  0  0  0  0  0  0  0  0
  -24.8358  -31.7464   20.0780 N   0  0  0  0  0  0  0  0  0  0  0  0
  -28.4130  -29.4142   18.6082 N   0  0  0  0  0  0  0  0  0  0  0  0
  -26.1598  -11.3619   21.3817 N   0  0  0  0  0  0  0  0  0  0  0  0
  -31.1877  -15.9272   20.7988 N   0  0  0  0  0  0  0  0  0  0  0  0
  -19.7676  -28.3004   21.1070 N   0  0  0  0  0  0  0  0  0  0  0  0
  -32.0832  -17.7874   17.8314 N   0  3  0  0  0  0  0  0  0  0  0  0
  -27.3351  -31.4353   18.4988 O   0  0  0  0  0  0  0  0  0  0  0  0
  -26.7310  -13.3299   22.4876 O   0  0  0  0  0  0  0  0  0  0  0  0
  -30.2681  -13.2425   21.1930 O   0  0  0  0  0  0  0  0  0  0  0  0
  -30.1722  -17.8065   19.8965 O   0  0  0  0  0  0  0  0  0  0  0  0
  -18.9207  -29.1256   23.0713 O   0  0  0  0  0  0  0  0  0  0  0  0
  -29.7180  -24.1746   19.9791 O   0  0  0  0  0  0  0  0  0  0  0  0
  -23.4647  -17.6640   18.7389 O   0  0  0  0  0  0  0  0  0  1  0  0
  -27.4781  -19.1917   19.2325 F   0  0  0  0  0  0  0  0  0  0  0  0
  -28.0094  -23.0909   21.8630 F   0  0  0  0  0  0  0  0  0  0  0  0
  1  2  1  0  0  0  0
  1  5  2  0  0  0  0
  2  6  2  0  0  0  0
  3  8  2  0  0  0  0
  3 17  1  0  0  0  0
  4  9  1  0  0  0  0
  4 17  2  0  0  0  0
  5 19  1  0  0  0  0
  6 21  1  0  0  0  0
  7 10  2  0  0  0  0
  7 20  1  0  0  0  0
  8 25  1  0  0  0  0
  9 25  2  0  0  0  0
 10 26  1  0  0  0  0
 11 12  2  0  0  0  0
 11 27  1  0  0  0  0
 12 28  1  0  0  0  0
 13 22  1  0  0  0  0
 13 26  2  0  0  0  0
 14 23  2  0  0  0  0
 14 24  1  0  0  0  0
 15 28  2  0  0  0  0
 15 29  1  0  0  0  0
 16 23  1  0  0  0  0
 16 66  2  0  0  0  0
 17 30  1  0  0  0  0
 18 30  1  0  0  0  0
 18 32  2  0  0  0  0
 18 33  1  0  0  0  0
 19 21  2  0  0  0  0
 19 38  1  0  0  0  0
 20 22  2  0  0  0  0
 20 39  1  0  0  0  0
 21 47  1  0  0  0  0
 22 40  1  0  0  0  0
 23 56  1  0  0  0  0
 24 31  2  0  0  0  0
 24 50  1  0  0  0  0
 25 82  1  0  0  0  0
 26 83  1  0  0  0  0
 27 29  2  0  0  0  0
 27 82  1  0  0  0  0
 28 84  1  0  0  0  0
 29 85  1  0  0  0  0
 30 67  2  0  0  0  0
 31 57  1  0  0  0  0
 31 66  1  0  0  0  0
 32 68  1  0  0  0  0
 32 71  1  0  0  0  0
 33 72  1  0  0  0  0
 33 77  2  0  0  0  0
 34 48  1  0  0  0  0
 34 73  1  0  0  0  0
 34 78  2  0  0  0  0
 35 63  1  0  0  0  0
 35 69  1  0  0  0  0
 35 79  2  0  0  0  0
 36 64  1  0  0  0  0
 36 74  1  0  0  0  0
 36 80  2  0  0  0  0
 37 70  1  0  0  0  0
 37 75  1  0  0  0  0
 37 81  2  0  0  0  0
 38 41  1  0  0  0  0
 39 48  1  0  0  0  0
 40 69  1  0  0  0  0
 41 43  1  0  0  0  0
 42 44  1  0  0  0  0
 42 45  1  0  0  0  0
 43 47  1  0  0  0  0
 44 49  1  0  0  0  0
 45 70  1  0  0  0  0
 46 49  1  0  0  0  0
 46 70  1  0  0  0  0
 47 73  1  0  0  0  0
 48 69  1  0  0  0  0
 49 68  1  0  0  0  0
 51 64  1  0  0  0  0
 52 65  1  0  0  0  0
 53 65  1  0  0  0  0
 54 65  1  0  0  0  0
 55 76  1  0  0  0  0
 56 58  1  0  0  0  0
 57 59  1  0  0  0  0
 58 62  1  0  0  0  0
 59 60  1  0  0  0  0
 60 61  1  0  0  0  0
 61 75  1  0  0  0  0
 62 83  1  0  0  0  0
 63 65  1  0  0  0  0
 63 74  1  0  0  0  0
 64 76  1  0  0  0  0
 67 68  1  0  0  0  0
M  CHG  1  76   1
M  ISO  4  37 100  62 101  75 100  83 101
M  END
> <Batch ID>
0041

> <Smiles>
CNC(C)C(=O)NC(C(=O)N1Cc2cc([101O:1][101CH2:1]CCc3cnc(CCCC[100NH:0][100C:0](=O)N4CCCC(n5nc(-c6ccc(Oc7ccc(F)cc7F)cc6)c(C(N)=O)c5N)C4)c(C)c3)ccc2CC1C(=O)NC1CCCc2ccccc21)C(C)(C)C

> <Shape>
0.275

> <Color>
0.047

> <Negative vol penalty>
0.000

$$$$

  -OEChem-04052317093D

 84 92  0     1  0  0  0  0  0999 V2000
  -16.8316  -29.6948   24.6451 C   0  0  0  0  0  0  0  0  0  0  0  0
  -17.4951  -28.4878   24.4490 C   0  0  0  0  0  0  0  0  0  0  0  0
  -24.4400  -11.8219   19.5937 C   0  0  0  0  0  0  0  0  0  0  0  0
  -24.9631  -11.1013   21.8396 C   0  0  0  0  0  0  0  0  0  0  0  0
  -17.1425  -30.7970   23.8498 C   0  0  0  0  0  0  0  0  0  0  0  0
  -18.4690  -28.3820   23.4567 C   0  0  0  0  0  0  0  0  0  0  0  0
  -22.6214  -25.9669   25.0598 C   0  0  0  0  0  0  0  0  0  0  0  0
  -24.1001  -10.5127   19.2528 C   0  0  0  0  0  0  0  0  0  0  0  0
  -24.6232   -9.7921   21.4987 C   0  0  0  0  0  0  0  0  0  0  0  0
  -22.5592  -24.5762   25.1370 C   0  0  0  0  0  0  0  0  0  0  0  0
  -23.5490   -6.3233   21.3208 C   0  0  0  0  0  0  0  0  0  0  0  0
  -22.7555   -5.6047   22.2150 C   0  0  0  0  0  0  0  0  0  0  0  0
  -23.7264  -24.4133   23.0322 C   0  0  0  0  0  0  0  0  0  0  0  0
  -21.0065   -7.2563   21.9902 C   0  0  0  0  0  0  0  0  0  0  0  0
  -26.2499  -20.5522   25.6336 C   0  0  0  0  0  0  0  0  0  0  0  0
  -24.8715  -12.1161   20.8871 C   0  0  0  0  0  0  0  0  0  0  0  0
  -24.3701  -14.4612   21.7572 C   0  0  0  0  0  0  0  0  0  0  0  0
  -18.1275  -30.7074   22.8537 C   0  0  0  0  0  0  0  0  0  0  0  0
  -23.2279  -26.5924   23.9611 C   0  0  0  0  0  0  0  0  0  0  0  0
  -18.7924  -29.4837   22.6465 C   0  0  0  0  0  0  0  0  0  0  0  0
  -23.7972  -25.8120   22.9447 C   0  0  0  0  0  0  0  0  0  0  0  0
  -24.1917   -9.4978   20.2053 C   0  0  0  0  0  0  0  0  0  0  0  0
  -23.1092  -23.7992   24.1217 C   0  0  0  0  0  0  0  0  0  0  0  0
  -23.0712   -7.5084   20.7613 C   0  0  0  0  0  0  0  0  0  0  0  0
  -21.4843   -6.0712   22.5497 C   0  0  0  0  0  0  0  0  0  0  0  0
  -21.8000   -7.9749   21.0960 C   0  0  0  0  0  0  0  0  0  0  0  0
  -25.2233  -13.4682   21.2397 C   0  0  0  0  0  0  0  0  0  0  0  0
  -25.0682  -20.4564   24.9544 C   0  0  0  0  0  0  0  0  0  0  0  0
  -25.1800  -15.5582   21.9215 C   0  0  0  0  0  0  0  0  0  0  0  0
  -26.7143  -20.3743   23.4765 C   0  0  0  0  0  0  0  0  0  0  0  0
  -22.9706  -14.3975   22.0623 C   0  0  0  0  0  0  0  0  0  0  0  0
  -22.2367  -28.5649   21.6741 C   0  0  0  0  0  0  0  0  0  0  0  0
  -25.3870  -28.6288   20.9034 C   0  0  0  0  0  0  0  0  0  0  0  0
  -28.6150  -27.0868   20.4355 C   0  0  0  0  0  0  0  0  0  0  0  0
  -29.9855  -17.8539   23.5895 C   0  0  0  0  0  0  0  0  0  0  0  0
  -18.3957  -31.9125   21.9875 C   0  0  0  0  0  0  0  0  0  0  0  0
  -23.3104  -28.0932   23.9058 C   0  0  0  0  0  0  0  0  0  0  0  0
  -24.4775  -26.4345   21.7538 C   0  0  0  0  0  0  0  0  0  0  0  0
  -19.7048  -31.8227   21.2073 C   0  0  0  0  0  0  0  0  0  0  0  0
  -29.8990  -16.4353   20.3250 C   0  0  0  0  0  0  0  0  0  0  0  0
  -19.8401  -30.4541   20.5474 C   0  0  0  0  0  0  0  0  0  0  0  0
  -28.6083  -15.6143   20.3171 C   0  0  0  0  0  0  0  0  0  0  0  0
  -30.5896  -16.3880   21.6862 C   0  0  0  0  0  0  0  0  0  0  0  0
  -28.4456  -15.9481   22.8193 C   0  0  0  0  0  0  0  0  0  0  0  0
  -19.8724  -29.3364   21.5968 C   0  0  1  0  0  0  0  0  0  0  0  0
  -23.4968  -28.6297   22.4899 C   0  0  1  0  0  0  0  0  0  0  0  0
  -27.6842  -16.0110   21.4841 C   0  0  2  0  0  0  0  0  0  0  0  0
  -30.8239  -28.0888   19.7918 C   0  0  0  0  0  0  0  0  0  0  0  0
  -28.6966  -21.4605   20.3045 C   0  0  0  0  0  0  0  0  0  0  0  0
  -26.8018  -22.6221   21.4552 C   0  0  0  0  0  0  0  0  0  0  0  0
  -24.5793  -27.8617   18.0628 C   0  0  0  0  0  0  0  0  0  0  0  0
  -26.9640  -27.2348   17.6286 C   0  0  0  0  0  0  0  0  0  0  0  0
  -26.3805  -29.5908   18.2042 C   0  0  0  0  0  0  0  0  0  0  0  0
  -29.9492  -25.9743   22.8315 C   0  0  0  0  0  0  0  0  0  0  0  0
  -23.6380  -20.4562   25.4367 C   0  0  0  0  0  0  0  0  0  0  0  0
  -27.4416  -20.2812   22.1861 C   0  0  0  0  0  0  0  0  0  0  0  0
  -28.6702  -20.5653   24.9842 C   0  0  0  0  0  0  0  0  0  0  0  0
  -29.2362  -19.2458   25.5027 C   0  0  0  0  0  0  0  0  0  0  0  0
  -23.0464  -21.8603   25.4974 C   0  0  0  0  0  0  0  0  0  1  0  0
  -26.2837  -27.8154   20.0016 C   0  0  1  0  0  0  0  0  0  0  0  0
  -29.9507  -27.6038   20.9386 C   0  0  2  0  0  0  0  0  0  0  0  0
  -27.9588  -21.6360   21.6342 C   0  0  0  0  0  0  0  0  0  0  0  0
  -26.0374  -28.1137   18.4957 C   0  0  0  0  0  0  0  0  0  0  0  0
  -26.4790  -13.8966   21.0852 N   0  0  0  0  0  0  0  0  0  0  0  0
  -27.2516  -20.4982   24.6945 N   0  0  0  0  0  0  0  0  0  0  0  0
  -26.4207  -15.1709   21.5081 N   0  0  0  0  0  0  0  0  0  0  0  0
  -25.3856  -20.3476   23.6219 N   0  3  0  0  0  0  0  0  0  0  0  0
  -24.5271  -27.9058   21.7423 N   0  0  0  0  0  0  0  0  0  0  0  0
  -29.6595  -16.7766   22.7492 N   0  0  0  0  0  0  0  0  0  0  0  0
  -24.9448  -16.8068   22.3777 N   0  0  0  0  0  0  0  0  0  0  0  0
  -22.2910  -13.1933   21.8335 N   0  0  0  0  0  0  0  0  0  0  0  0
  -21.1771  -29.2649   22.2189 N   0  0  0  0  0  0  0  0  0  0  0  0
  -27.6496  -28.0712   20.4458 N   0  0  0  0  0  0  0  0  0  0  0  0
  -29.0463  -18.1602   24.5666 N   0  0  0  0  0  0  0  0  0  0  0  0
  -30.6828  -26.5275   21.6641 N   0  3  0  0  0  0  0  0  0  0  0  0
  -22.3379  -15.3843   22.5088 O   0  0  0  0  0  0  0  0  0  0  0  0
  -22.2268  -27.9283   20.6270 O   0  0  0  0  0  0  0  0  0  0  0  0
  -25.4523  -29.8602   20.8701 O   0  0  0  0  0  0  0  0  0  0  0  0
  -28.4461  -25.9267   20.0664 O   0  0  0  0  0  0  0  0  0  0  0  0
  -31.0334  -18.4986   23.4740 O   0  0  0  0  0  0  0  0  0  0  0  0
  -23.8599   -8.2203   19.8731 O   0  0  0  0  0  0  0  0  0  0  0  0
  -23.0494  -22.4416   24.1942 O   0  0  0  0  0  0  0  0  0  1  0  0
  -20.7218   -5.3802   23.4072 F   0  0  0  0  0  0  0  0  0  0  0  0
  -21.3351   -9.1121   20.5608 F   0  0  0  0  0  0  0  0  0  0  0  0
  1  2  1  0  0  0  0
  1  5  2  0  0  0  0
  2  6  2  0  0  0  0
  3  8  2  0  0  0  0
  3 16  1  0  0  0  0
  4  9  1  0  0  0  0
  4 16  2  0  0  0  0
  5 18  1  0  0  0  0
  6 20  1  0  0  0  0
  7 10  2  0  0  0  0
  7 19  1  0  0  0  0
  8 22  1  0  0  0  0
  9 22  2  0  0  0  0
 10 23  1  0  0  0  0
 11 12  2  0  0  0  0
 11 24  1  0  0  0  0
 12 25  1  0  0  0  0
 13 21  1  0  0  0  0
 13 23  2  0  0  0  0
 14 25  2  0  0  0  0
 14 26  1  0  0  0  0
 15 28  2  0  0  0  0
 15 65  1  0  0  0  0
 16 27  1  0  0  0  0
 17 27  1  0  0  0  0
 17 29  2  0  0  0  0
 17 31  1  0  0  0  0
 18 20  2  0  0  0  0
 18 36  1  0  0  0  0
 19 21  2  0  0  0  0
 19 37  1  0  0  0  0
 20 45  1  0  0  0  0
 21 38  1  0  0  0  0
 22 81  1  0  0  0  0
 23 82  1  0  0  0  0
 24 26  2  0  0  0  0
 24 81  1  0  0  0  0
 25 83  1  0  0  0  0
 26 84  1  0  0  0  0
 27 64  2  0  0  0  0
 28 55  1  0  0  0  0
 28 67  1  0  0  0  0
 29 66  1  0  0  0  0
 29 70  1  0  0  0  0
 30 56  1  0  0  0  0
 30 65  1  0  0  0  0
 30 67  2  0  0  0  0
 31 71  1  0  0  0  0
 31 76  2  0  0  0  0
 32 46  1  0  0  0  0
 32 72  1  0  0  0  0
 32 77  2  0  0  0  0
 33 60  1  0  0  0  0
 33 68  1  0  0  0  0
 33 78  2  0  0  0  0
 34 61  1  0  0  0  0
 34 73  1  0  0  0  0
 34 79  2  0  0  0  0
 35 69  1  0  0  0  0
 35 74  1  0  0  0  0
 35 80  2  0  0  0  0
 36 39  1  0  0  0  0
 37 46  1  0  0  0  0
 38 68  1  0  0  0  0
 39 41  1  0  0  0  0
 40 42  1  0  0  0  0
 40 43  1  0  0  0  0
 41 45  1  0  0  0  0
 42 47  1  0  0  0  0
 43 69  1  0  0  0  0
 44 47  1  0  0  0  0
 44 69  1  0  0  0  0
 45 72  1  0  0  0  0
 46 68  1  0  0  0  0
 47 66  1  0  0  0  0
 48 61  1  0  0  0  0
 49 62  1  0  0  0  0
 50 62  1  0  0  0  0
 51 63  1  0  0  0  0
 52 63  1  0  0  0  0
 53 63  1  0  0  0  0
 54 75  1  0  0  0  0
 55 59  1  0  0  0  0
 56 62  1  0  0  0  0
 57 58  1  0  0  0  0
 57 65  1  0  0  0  0
 58 74  1  0  0  0  0
 59 82  1  0  0  0  0
 60 63  1  0  0  0  0
 60 73  1  0  0  0  0
 61 75  1  0  0  0  0
 64 66  1  0  0  0  0
M  CHG  2  67   1  75   1
M  ISO  4  35 100  59 101  74 100  82 101
M  END
> <Batch ID>
0041

> <Smiles>
CNC(C)C(=O)NC(C(=O)N1Cc2cc([101O:1][101CH2:1]Cc3cn(CC[100NH:0][100C:0](=O)N4CCCC(n5nc(-c6ccc(Oc7ccc(F)cc7F)cc6)c(C(N)=O)c5N)C4)c(CC(C)C)n3)ccc2CC1C(=O)NC1CCCc2ccccc21)C(C)(C)C

> <Shape>
0.234

> <Color>
0.061

> <Negative vol penalty>
0.000

$$$$

  -OEChem-04052317093D

 85 93  0     1  0  0  0  0  0999 V2000
  -28.8515  -24.6978   16.8114 C   0  0  0  0  0  0  0  0  0  0  0  0
  -27.6763  -24.7527   17.5538 C   0  0  0  0  0  0  0  0  0  0  0  0
  -28.0130  -15.2412   19.4941 C   0  0  0  0  0  0  0  0  0  0  0  0
  -27.5966  -16.5703   21.4683 C   0  0  0  0  0  0  0  0  0  0  0  0
  -29.9844  -25.3820   17.2499 C   0  0  0  0  0  0  0  0  0  0  0  0
  -27.6336  -25.4911   18.7359 C   0  0  0  0  0  0  0  0  0  0  0  0
  -23.4465  -28.3145   19.1126 C   0  0  0  0  0  0  0  0  0  0  0  0
  -29.1904  -15.9526   19.2635 C   0  0  0  0  0  0  0  0  0  0  0  0
  -28.7741  -17.2817   21.2376 C   0  0  0  0  0  0  0  0  0  0  0  0
  -22.2711  -27.6638   19.4851 C   0  0  0  0  0  0  0  0  0  0  0  0
  -29.8161  -19.7885   19.2224 C   0  0  0  0  0  0  0  0  0  0  0  0
  -29.7689  -21.1771   19.3449 C   0  0  0  0  0  0  0  0  0  0  0  0
  -22.5596  -28.4505   21.7472 C   0  0  0  0  0  0  0  0  0  0  0  0
  -31.4367  -21.0799   21.0902 C   0  0  0  0  0  0  0  0  0  0  0  0
  -22.8137  -24.3451   22.4210 C   0  0  0  0  0  0  0  0  0  0  0  0
  -27.2160  -15.5501   20.5965 C   0  0  0  0  0  0  0  0  0  0  0  0
  -25.8509  -13.6405   21.5953 C   0  0  0  0  0  0  0  0  0  0  0  0
  -29.9527  -26.1370   18.4330 C   0  0  0  0  0  0  0  0  0  0  0  0
  -24.1943  -29.0303   20.0586 C   0  0  0  0  0  0  0  0  0  0  0  0
  -28.7675  -26.1850   19.1914 C   0  0  0  0  0  0  0  0  0  0  0  0
  -23.7427  -29.1116   21.3836 C   0  0  0  0  0  0  0  0  0  0  0  0
  -21.5579  -23.7773   22.3488 C   0  0  0  0  0  0  0  0  0  0  0  0
  -29.5710  -16.9728   20.1352 C   0  0  0  0  0  0  0  0  0  0  0  0
  -21.8290  -27.7293   20.8032 C   0  0  0  0  0  0  0  0  0  0  0  0
  -30.6736  -19.0455   20.0339 C   0  0  0  0  0  0  0  0  0  0  0  0
  -30.5791  -21.8229   20.2787 C   0  0  0  0  0  0  0  0  0  0  0  0
  -31.4839  -19.6913   20.9678 C   0  0  0  0  0  0  0  0  0  0  0  0
  -25.9993  -14.8160   20.8350 C   0  0  0  0  0  0  0  0  0  0  0  0
  -21.5257  -22.4411   22.0056 C   0  0  0  0  0  0  0  0  0  0  0  0
  -24.5121  -13.3451   21.5129 C   0  0  0  0  0  0  0  0  0  0  0  0
  -23.7928  -22.3735   21.8541 C   0  0  0  0  0  0  0  0  0  0  0  0
  -26.8351  -12.8835   22.3121 C   0  0  0  0  0  0  0  0  0  0  0  0
  -27.1345  -28.7890   21.2421 C   0  0  0  0  0  0  0  0  0  0  0  0
  -26.3517  -31.5729   22.7116 C   0  0  0  0  0  0  0  0  0  0  0  0
  -23.9035  -33.6417   23.8836 C   0  0  0  0  0  0  0  0  0  0  0  0
  -19.6527  -16.6931   20.4983 C   0  0  0  0  0  0  0  0  0  0  0  0
  -31.2162  -26.8212   18.8916 C   0  0  0  0  0  0  0  0  0  0  0  0
  -25.4459  -29.7490   19.6349 C   0  0  0  0  0  0  0  0  0  0  0  0
  -24.4983  -29.8839   22.4329 C   0  0  0  0  0  0  0  0  0  0  0  0
  -30.9791  -27.8862   19.9592 C   0  0  0  0  0  0  0  0  0  0  0  0
  -20.7337  -13.8653   18.6242 C   0  0  0  0  0  0  0  0  0  0  0  0
  -30.0480  -27.3557   21.0448 C   0  0  0  0  0  0  0  0  0  0  0  0
  -22.1924  -13.6822   19.0469 C   0  0  0  0  0  0  0  0  0  0  0  0
  -20.3506  -15.3413   18.5432 C   0  0  0  0  0  0  0  0  0  0  0  0
  -22.0878  -15.9383   20.1862 C   0  0  0  0  0  0  0  0  0  0  0  0
  -28.6745  -26.9954   20.4660 C   0  0  1  0  0  0  0  0  0  0  0  0
  -26.4001  -30.0208   20.7938 C   0  0  1  0  0  0  0  0  0  0  0  0
  -22.5051  -14.4653   20.3362 C   0  0  2  0  0  0  0  0  0  0  0  0
  -25.0339  -21.5935   21.5800 C   0  0  0  0  0  0  0  0  0  0  0  0
  -23.5731  -35.8282   25.0699 C   0  0  0  0  0  0  0  0  0  0  0  0
  -27.1499  -30.2605   25.3480 C   0  0  0  0  0  0  0  0  0  0  0  0
  -25.9305  -32.0890   26.5471 C   0  0  0  0  0  0  0  0  0  0  0  0
  -27.8874  -32.6373   25.1006 C   0  0  0  0  0  0  0  0  0  0  0  0
  -22.4113  -34.7881   21.5994 C   0  0  0  0  0  0  0  0  0  0  0  0
  -20.3176  -24.5871   22.6309 C   0  0  0  0  0  0  0  0  0  0  0  0
  -20.2221  -21.7211   21.8973 C   0  0  0  0  0  0  0  0  0  0  0  0
  -19.5464  -24.9910   21.3725 C   0  0  0  0  0  0  0  0  0  0  0  0
  -20.3423  -20.2416   22.2922 C   0  0  0  0  0  0  0  0  0  0  0  0
  -19.0073  -19.5060   22.1415 C   0  0  0  0  0  0  0  0  0  0  0  0
  -19.1052  -18.0307   22.5157 C   0  0  0  0  0  0  0  0  0  0  0  0
  -20.3363  -25.9119   20.4498 C   0  0  0  0  0  0  0  0  0  1  0  0
  -25.7068  -31.9439   24.0252 C   0  0  1  0  0  0  0  0  0  0  0  0
  -23.6832  -35.1348   23.7209 C   0  0  2  0  0  0  0  0  0  0  0  0
  -26.6552  -31.7164   25.2361 C   0  0  0  0  0  0  0  0  0  0  0  0
  -23.9565  -23.6700   22.1791 N   0  0  0  0  0  0  0  0  0  0  0  0
  -24.8469  -15.2383   20.3082 N   0  0  0  0  0  0  0  0  0  0  0  0
  -22.6278  -21.7059   21.7504 N   0  0  0  0  0  0  0  0  0  0  0  0
  -23.9615  -14.3233   20.7381 N   0  0  0  0  0  0  0  0  0  0  0  0
  -25.7194  -30.5643   21.9709 N   0  0  0  0  0  0  0  0  0  0  0  0
  -20.6714  -16.0261   19.7978 N   0  0  0  0  0  0  0  0  0  0  0  0
  -23.7638  -12.3466   22.0282 N   0  0  0  0  0  0  0  0  0  0  0  0
  -28.1643  -13.3276   22.2925 N   0  0  0  0  0  0  0  0  0  0  0  0
  -27.8877  -28.1908   20.2500 N   0  0  0  0  0  0  0  0  0  0  0  0
  -25.2443  -33.3197   23.8787 N   0  0  0  0  0  0  0  0  0  0  0  0
  -20.0408  -17.3105   21.6810 N   0  0  0  0  0  0  0  0  0  0  0  0
  -22.4306  -35.3932   22.9560 N   0  3  0  0  0  0  0  0  0  0  0  0
  -26.5474  -11.8348   22.9374 O   0  0  0  0  0  0  0  0  0  0  0  0
  -27.0270  -28.4103   22.4026 O   0  0  0  0  0  0  0  0  0  0  0  0
  -27.3745  -32.1615   22.3526 O   0  0  0  0  0  0  0  0  0  0  0  0
  -22.9789  -32.8414   24.0068 O   0  0  0  0  0  0  0  0  0  0  0  0
  -18.4830  -16.7307   20.1018 O   0  0  0  0  0  0  0  0  0  0  0  0
  -30.7200  -17.6670   19.9106 O   0  0  0  0  0  0  0  0  0  0  0  0
  -20.6824  -27.0945   21.1695 O   0  0  0  0  0  0  0  0  0  1  0  0
  -30.5348  -23.1565   20.3952 F   0  0  0  0  0  0  0  0  0  0  0  0
  -32.3105  -18.9830   21.7493 F   0  0  0  0  0  0  0  0  0  0  0  0
  1  2  1  0  0  0  0
  1  5  2  0  0  0  0
  2  6  2  0  0  0  0
  3  8  2  0  0  0  0
  3 16  1  0  0  0  0
  4  9  1  0  0  0  0
  4 16  2  0  0  0  0
  5 18  1  0  0  0  0
  6 20  1  0  0  0  0
  7 10  2  0  0  0  0
  7 19  1  0  0  0  0
  8 23  1  0  0  0  0
  9 23  2  0  0  0  0
 10 24  1  0  0  0  0
 11 12  2  0  0  0  0
 11 25  1  0  0  0  0
 12 26  1  0  0  0  0
 13 21  1  0  0  0  0
 13 24  2  0  0  0  0
 14 26  2  0  0  0  0
 14 27  1  0  0  0  0
 15 22  1  0  0  0  0
 15 65  2  0  0  0  0
 16 28  1  0  0  0  0
 17 28  1  0  0  0  0
 17 30  2  0  0  0  0
 17 32  1  0  0  0  0
 18 20  2  0  0  0  0
 18 37  1  0  0  0  0
 19 21  2  0  0  0  0
 19 38  1  0  0  0  0
 20 46  1  0  0  0  0
 21 39  1  0  0  0  0
 22 29  2  0  0  0  0
 22 55  1  0  0  0  0
 23 82  1  0  0  0  0
 24 83  1  0  0  0  0
 25 27  2  0  0  0  0
 25 82  1  0  0  0  0
 26 84  1  0  0  0  0
 27 85  1  0  0  0  0
 28 66  2  0  0  0  0
 29 56  1  0  0  0  0
 29 67  1  0  0  0  0
 30 68  1  0  0  0  0
 30 71  1  0  0  0  0
 31 49  1  0  0  0  0
 31 65  1  0  0  0  0
 31 67  2  0  0  0  0
 32 72  1  0  0  0  0
 32 77  2  0  0  0  0
 33 47  1  0  0  0  0
 33 73  1  0  0  0  0
 33 78  2  0  0  0  0
 34 62  1  0  0  0  0
 34 69  1  0  0  0  0
 34 79  2  0  0  0  0
 35 63  1  0  0  0  0
 35 74  1  0  0  0  0
 35 80  2  0  0  0  0
 36 70  1  0  0  0  0
 36 75  1  0  0  0  0
 36 81  2  0  0  0  0
 37 40  1  0  0  0  0
 38 47  1  0  0  0  0
 39 69  1  0  0  0  0
 40 42  1  0  0  0  0
 41 43  1  0  0  0  0
 41 44  1  0  0  0  0
 42 46  1  0  0  0  0
 43 48  1  0  0  0  0
 44 70  1  0  0  0  0
 45 48  1  0  0  0  0
 45 70  1  0  0  0  0
 46 73  1  0  0  0  0
 47 69  1  0  0  0  0
 48 68  1  0  0  0  0
 50 63  1  0  0  0  0
 51 64  1  0  0  0  0
 52 64  1  0  0  0  0
 53 64  1  0  0  0  0
 54 76  1  0  0  0  0
 55 57  1  0  0  0  0
 56 58  1  0  0  0  0
 57 61  1  0  0  0  0
 58 59  1  0  0  0  0
 59 60  1  0  0  0  0
 60 75  1  0  0  0  0
 61 83  1  0  0  0  0
 62 64  1  0  0  0  0
 62 74  1  0  0  0  0
 63 76  1  0  0  0  0
 66 68  1  0  0  0  0
M  CHG  1  76   1
M  ISO  4  36 100  61 101  75 100  83 101
M  END
> <Batch ID>
0041

> <Smiles>
CNC(C)C(=O)NC(C(=O)N1Cc2cc([101O:1][101CH2:1]CCc3cnc(C)nc3CCCC[100NH:0][100C:0](=O)N3CCCC(n4nc(-c5ccc(Oc6ccc(F)cc6F)cc5)c(C(N)=O)c4N)C3)ccc2CC1C(=O)NC1CCCc2ccccc21)C(C)(C)C

> <Shape>
0.269

> <Color>
0.084

> <Negative vol penalty>
0.000

$$$$

  -OEChem-04052317093D

 82 90  0     1  0  0  0  0  0999 V2000
  -23.5523   -8.0890   21.6956 C   0  0  0  0  0  0  0  0  0  0  0  0
  -24.1873   -9.0639   20.9329 C   0  0  0  0  0  0  0  0  0  0  0  0
  -25.0545  -26.2746   21.0219 C   0  0  0  0  0  0  0  0  0  0  0  0
  -26.3286  -26.7271   23.0241 C   0  0  0  0  0  0  0  0  0  0  0  0
  -22.3040   -8.3499   22.2592 C   0  0  0  0  0  0  0  0  0  0  0  0
  -23.5738  -10.2999   20.7323 C   0  0  0  0  0  0  0  0  0  0  0  0
  -26.7747  -14.1779   21.3322 C   0  0  0  0  0  0  0  0  0  0  0  0
  -24.0031  -27.0462   21.5166 C   0  0  0  0  0  0  0  0  0  0  0  0
  -25.2772  -27.4987   23.5188 C   0  0  0  0  0  0  0  0  0  0  0  0
  -27.6496  -14.4498   20.2813 C   0  0  0  0  0  0  0  0  0  0  0  0
  -21.4828  -26.6880   23.7401 C   0  0  0  0  0  0  0  0  0  0  0  0
  -20.1917  -26.1728   23.6248 C   0  0  0  0  0  0  0  0  0  0  0  0
  -26.2045  -16.2370   19.5485 C   0  0  0  0  0  0  0  0  0  0  0  0
  -19.5476  -28.0846   22.2954 C   0  0  0  0  0  0  0  0  0  0  0  0
  -33.0547  -15.6792   21.2105 C   0  0  0  0  0  0  0  0  0  0  0  0
  -26.2173  -26.1150   21.7756 C   0  0  0  0  0  0  0  0  0  0  0  0
  -28.3846  -25.7579   20.4783 C   0  0  0  0  0  0  0  0  0  0  0  0
  -21.6792   -9.5931   22.0734 C   0  0  0  0  0  0  0  0  0  0  0  0
  -25.6007  -14.9278   21.4930 C   0  0  0  0  0  0  0  0  0  0  0  0
  -22.3153  -10.5772   21.2927 C   0  0  0  0  0  0  0  0  0  0  0  0
  -25.3177  -15.9743   20.6038 C   0  0  0  0  0  0  0  0  0  0  0  0
  -33.0361  -17.0849   21.2834 C   0  0  0  0  0  0  0  0  0  0  0  0
  -24.1144  -27.6582   22.7650 C   0  0  0  0  0  0  0  0  0  0  0  0
  -27.3632  -15.4776   19.3876 C   0  0  0  0  0  0  0  0  0  0  0  0
  -21.8062  -27.9015   23.1332 C   0  0  0  0  0  0  0  0  0  0  0  0
  -19.2241  -26.8710   22.9024 C   0  0  0  0  0  0  0  0  0  0  0  0
  -20.8387  -28.5998   22.4108 C   0  0  0  0  0  0  0  0  0  0  0  0
  -27.3036  -25.3177   21.2654 C   0  0  0  0  0  0  0  0  0  0  0  0
  -32.6104  -17.4875   20.0411 C   0  0  0  0  0  0  0  0  0  0  0  0
  -29.1325  -24.6270   20.2589 C   0  0  0  0  0  0  0  0  0  0  0  0
  -28.6857  -27.0716   19.9893 C   0  0  0  0  0  0  0  0  0  0  0  0
  -22.4923  -14.2644   21.4532 C   0  0  0  0  0  0  0  0  0  0  0  0
  -22.2153  -17.3686   22.3530 C   0  0  0  0  0  0  0  0  0  0  0  0
  -23.5767  -20.4972   22.4233 C   0  0  0  0  0  0  0  0  0  0  0  0
  -30.7922  -19.9189   22.9960 C   0  0  0  0  0  0  0  0  0  0  0  0
  -20.3083   -9.8119   22.6629 C   0  0  0  0  0  0  0  0  0  0  0  0
  -24.6807  -14.6393   22.6475 C   0  0  0  0  0  0  0  0  0  0  0  0
  -24.0807  -16.8220   20.7446 C   0  0  0  0  0  0  0  0  0  0  0  0
  -19.8947  -11.2805   22.7143 C   0  0  0  0  0  0  0  0  0  0  0  0
  -28.2370  -19.7670   20.4376 C   0  0  0  0  0  0  0  0  0  0  0  0
  -20.1917  -11.9656   21.3842 C   0  0  0  0  0  0  0  0  0  0  0  0
  -27.8411  -21.2395   20.3154 C   0  0  0  0  0  0  0  0  0  0  0  0
  -28.5372  -19.3937   21.8863 C   0  0  0  0  0  0  0  0  0  0  0  0
  -29.1824  -21.7122   22.4171 C   0  0  0  0  0  0  0  0  0  0  0  0
  -21.6930  -11.9390   21.0730 C   0  0  1  0  0  0  0  0  0  0  0  0
  -23.2558  -15.1318   22.4135 C   0  0  1  0  0  0  0  0  0  0  0  0
  -28.8881  -22.1578   20.9732 C   0  0  2  0  0  0  0  0  0  0  0  0
  -32.3830  -18.8320   19.4782 C   0  0  0  0  0  0  0  0  0  0  0  0
  -23.8043  -22.9248   23.0171 C   0  0  0  0  0  0  0  0  0  0  0  0
  -20.3037  -17.7483   20.0054 C   0  0  0  0  0  0  0  0  0  0  0  0
  -20.6116  -20.2214   20.2449 C   0  0  0  0  0  0  0  0  0  0  0  0
  -19.6111  -18.9043   22.1122 C   0  0  0  0  0  0  0  0  0  0  0  0
  -25.0355  -19.8691   24.9206 C   0  0  0  0  0  0  0  0  0  0  0  0
  -33.3937  -17.9288   22.4356 C   0  0  0  0  0  0  0  0  0  0  0  0
  -30.4270  -16.4301   17.7329 C   0  0  0  0  0  0  0  0  0  0  0  0
  -31.9359  -16.2370   17.8993 C   0  0  0  0  0  0  0  0  0  0  0  0
  -32.3005  -18.0190   23.5181 C   0  0  0  0  0  0  0  0  0  0  0  0
  -29.5983  -15.4673   18.5753 C   0  0  0  0  0  0  0  0  0  1  0  0
  -22.0824  -18.6847   21.6257 C   0  0  1  0  0  0  0  0  0  0  0  0
  -23.7341  -21.5022   23.5501 C   0  0  2  0  0  0  0  0  0  0  0  0
  -20.6746  -18.8726   20.9930 C   0  0  0  0  0  0  0  0  0  0  0  0
  -32.6712  -15.2196   20.0164 N   0  0  0  0  0  0  0  0  0  0  0  0
  -27.3563  -24.0092   21.5282 N   0  0  0  0  0  0  0  0  0  0  0  0
  -32.4075  -16.3430   19.3276 N   0  0  0  0  0  0  0  0  0  0  0  0
  -28.4793  -23.6174   20.9026 N   0  0  0  0  0  0  0  0  0  0  0  0
  -23.2091  -16.4969   21.8857 N   0  0  0  0  0  0  0  0  0  0  0  0
  -29.5545  -20.2938   22.4475 N   0  0  0  0  0  0  0  0  0  0  0  0
  -30.2786  -24.4076   19.5801 N   0  0  0  0  0  0  0  0  0  0  0  0
  -27.8115  -28.1198   20.3078 N   0  0  0  0  0  0  0  0  0  0  0  0
  -22.3877  -12.9444   21.8483 N   0  0  0  0  0  0  0  0  0  0  0  0
  -22.4491  -19.7204   22.5855 N   0  0  0  0  0  0  0  0  0  0  0  0
  -31.0650  -18.5565   22.9930 N   0  0  0  0  0  0  0  0  0  0  0  0
  -24.9802  -21.2266   24.3197 N   0  3  0  0  0  0  0  0  0  0  0  0
  -29.6912  -27.3058   19.2768 O   0  0  0  0  0  0  0  0  0  0  0  0
  -22.0308  -14.7566   20.4302 O   0  0  0  0  0  0  0  0  0  0  0  0
  -21.4698  -17.1259   23.3054 O   0  0  0  0  0  0  0  0  0  0  0  0
  -24.3724  -20.4125   21.4904 O   0  0  0  0  0  0  0  0  0  0  0  0
  -31.5978  -20.7387   23.4501 O   0  0  0  0  0  0  0  0  0  0  0  0
  -23.0887  -28.4113   23.2480 O   0  0  0  0  0  0  0  0  0  0  0  0
  -28.2151  -15.7446   18.3605 O   0  0  0  0  0  0  0  0  0  1  0  0
  -17.9848  -26.3754   22.7904 F   0  0  0  0  0  0  0  0  0  0  0  0
  -21.1438  -29.7656   21.8245 F   0  0  0  0  0  0  0  0  0  0  0  0
  1  2  1  0  0  0  0
  1  5  2  0  0  0  0
  2  6  2  0  0  0  0
  3  8  2  0  0  0  0
  3 16  1  0  0  0  0
  4  9  1  0  0  0  0
  4 16  2  0  0  0  0
  5 18  1  0  0  0  0
  6 20  1  0  0  0  0
  7 10  2  0  0  0  0
  7 19  1  0  0  0  0
  8 23  1  0  0  0  0
  9 23  2  0  0  0  0
 10 24  1  0  0  0  0
 11 12  2  0  0  0  0
 11 25  1  0  0  0  0
 12 26  1  0  0  0  0
 13 21  1  0  0  0  0
 13 24  2  0  0  0  0
 14 26  2  0  0  0  0
 14 27  1  0  0  0  0
 15 22  1  0  0  0  0
 15 62  2  0  0  0  0
 16 28  1  0  0  0  0
 17 28  1  0  0  0  0
 17 30  2  0  0  0  0
 17 31  1  0  0  0  0
 18 20  2  0  0  0  0
 18 36  1  0  0  0  0
 19 21  2  0  0  0  0
 19 37  1  0  0  0  0
 20 45  1  0  0  0  0
 21 38  1  0  0  0  0
 22 29  2  0  0  0  0
 22 54  1  0  0  0  0
 23 79  1  0  0  0  0
 24 80  1  0  0  0  0
 25 27  2  0  0  0  0
 25 79  1  0  0  0  0
 26 81  1  0  0  0  0
 27 82  1  0  0  0  0
 28 63  2  0  0  0  0
 29 48  1  0  0  0  0
 29 64  1  0  0  0  0
 30 65  1  0  0  0  0
 30 68  1  0  0  0  0
 31 69  1  0  0  0  0
 31 74  2  0  0  0  0
 32 46  1  0  0  0  0
 32 70  1  0  0  0  0
 32 75  2  0  0  0  0
 33 59  1  0  0  0  0
 33 66  1  0  0  0  0
 33 76  2  0  0  0  0
 34 60  1  0  0  0  0
 34 71  1  0  0  0  0
 34 77  2  0  0  0  0
 35 67  1  0  0  0  0
 35 72  1  0  0  0  0
 35 78  2  0  0  0  0
 36 39  1  0  0  0  0
 37 46  1  0  0  0  0
 38 66  1  0  0  0  0
 39 41  1  0  0  0  0
 40 42  1  0  0  0  0
 40 43  1  0  0  0  0
 41 45  1  0  0  0  0
 42 47  1  0  0  0  0
 43 67  1  0  0  0  0
 44 47  1  0  0  0  0
 44 67  1  0  0  0  0
 45 70  1  0  0  0  0
 46 66  1  0  0  0  0
 47 65  1  0  0  0  0
 49 60  1  0  0  0  0
 50 61  1  0  0  0  0
 51 61  1  0  0  0  0
 52 61  1  0  0  0  0
 53 73  1  0  0  0  0
 54 57  1  0  0  0  0
 55 56  1  0  0  0  0
 55 58  1  0  0  0  0
 56 64  1  0  0  0  0
 57 72  1  0  0  0  0
 58 80  1  0  0  0  0
 59 61  1  0  0  0  0
 59 71  1  0  0  0  0
 60 73  1  0  0  0  0
 62 64  1  0  0  0  0
 63 65  1  0  0  0  0
M  CHG  1  73   1
M  ISO  4  35 100  58 101  72 100  80 101
M  END
> <Batch ID>
0041

> <Smiles>
CNC(C)C(=O)NC(C(=O)N1Cc2cc([101O:1][101CH2:1]CCn3ncc(CC[100NH:0][100C:0](=O)N4CCCC(n5nc(-c6ccc(Oc7ccc(F)cc7F)cc6)c(C(N)=O)c5N)C4)c3C)ccc2CC1C(=O)NC1CCCc2ccccc21)C(C)(C)C

> <Shape>
0.191

> <Color>
0.084

> <Negative vol penalty>
0.000

$$$$

  -OEChem-04052317093D

 96106  0     1  0  0  0  0  0999 V2000
  -29.3844  -33.3378   27.6409 C   0  0  0  0  0  0  0  0  0  0  0  0
  -28.8585  -32.0570   27.5058 C   0  0  0  0  0  0  0  0  0  0  0  0
  -23.2711  -10.1315   22.1732 C   0  0  0  0  0  0  0  0  0  0  0  0
  -23.4926   -9.5666   19.8346 C   0  0  0  0  0  0  0  0  0  0  0  0
  -29.2362  -34.2635   26.6089 C   0  0  0  0  0  0  0  0  0  0  0  0
  -28.1830  -31.7014   26.3388 C   0  0  0  0  0  0  0  0  0  0  0  0
  -29.5509  -27.1403   24.6154 C   0  0  0  0  0  0  0  0  0  0  0  0
  -22.5163   -8.9769   22.3806 C   0  0  0  0  0  0  0  0  0  0  0  0
  -22.7379   -8.4120   20.0420 C   0  0  0  0  0  0  0  0  0  0  0  0
  -29.0099  -26.0280   25.2588 C   0  0  0  0  0  0  0  0  0  0  0  0
  -23.0839   -5.6666   22.7711 C   0  0  0  0  0  0  0  0  0  0  0  0
  -23.3846   -4.8877   23.8885 C   0  0  0  0  0  0  0  0  0  0  0  0
  -27.3868  -25.8010   23.4887 C   0  0  0  0  0  0  0  0  0  0  0  0
  -28.4170  -19.4628   20.9143 C   0  0  0  0  0  0  0  0  0  0  0  0
  -21.1387   -5.2110   24.7182 C   0  0  0  0  0  0  0  0  0  0  0  0
  -26.5626  -21.2016   24.0777 C   0  0  0  0  0  0  0  0  0  0  0  0
  -23.7592  -10.4263   20.9002 C   0  0  0  0  0  0  0  0  0  0  0  0
  -24.1341  -12.9496   20.9045 C   0  0  0  0  0  0  0  0  0  0  0  0
  -28.5670  -33.9161   25.4248 C   0  0  0  0  0  0  0  0  0  0  0  0
  -29.0060  -27.5986   23.4073 C   0  0  0  0  0  0  0  0  0  0  0  0
  -28.0246  -32.6237   25.2905 C   0  0  0  0  0  0  0  0  0  0  0  0
  -27.9243  -26.9178   22.8307 C   0  0  0  0  0  0  0  0  0  0  0  0
  -29.1901  -19.8841   22.0026 C   0  0  0  0  0  0  0  0  0  0  0  0
  -26.9984  -20.6011   22.9317 C   0  0  0  0  0  0  0  0  0  0  0  0
  -28.4300  -20.4692   23.0316 C   0  0  0  0  0  0  0  0  0  0  0  0
  -22.2498   -8.1172   21.3150 C   0  0  0  0  0  0  0  0  0  0  0  0
  -27.9259  -25.3599   24.6970 C   0  0  0  0  0  0  0  0  0  0  0  0
  -21.8107   -6.2179   22.6273 C   0  0  0  0  0  0  0  0  0  0  0  0
  -22.4119   -4.6598   24.8620 C   0  0  0  0  0  0  0  0  0  0  0  0
  -20.8381   -5.9901   23.6009 C   0  0  0  0  0  0  0  0  0  0  0  0
  -24.5384  -11.6191   20.6852 C   0  0  0  0  0  0  0  0  0  0  0  0
  -27.0173  -19.6357   20.9091 C   0  0  0  0  0  0  0  0  0  0  0  0
  -25.2272  -13.7030   20.5522 C   0  0  0  0  0  0  0  0  0  0  0  0
  -22.8826  -13.4589   21.3839 C   0  0  0  0  0  0  0  0  0  0  0  0
  -27.6150  -30.2927   22.4530 C   0  0  0  0  0  0  0  0  0  0  0  0
  -30.7505  -14.5673   20.7400 C   0  0  0  0  0  0  0  0  0  0  0  0
  -27.7296  -28.8632   19.5434 C   0  0  0  0  0  0  0  0  0  0  0  0
  -27.1601  -25.5602   18.2080 C   0  0  0  0  0  0  0  0  0  0  0  0
  -28.3906  -34.9654   24.3560 C   0  0  0  0  0  0  0  0  0  0  0  0
  -29.6180  -28.7838   22.7122 C   0  0  0  0  0  0  0  0  0  0  0  0
  -27.3156  -27.3574   21.5251 C   0  0  0  0  0  0  0  0  0  0  0  0
  -27.9877  -34.3919   22.9999 C   0  0  0  0  0  0  0  0  0  0  0  0
  -26.4507  -17.2339   26.9251 C   0  0  0  0  0  0  0  0  0  0  0  0
  -27.5367  -16.9074   27.9445 C   0  0  0  0  0  0  0  0  0  0  0  0
  -26.9099  -17.6467   25.5308 C   0  0  0  0  0  0  0  0  0  0  0  0
  -28.7809  -17.7852   27.8662 C   0  0  0  0  0  0  0  0  0  0  0  0
  -29.4882  -12.4218   18.1625 C   0  0  0  0  0  0  0  0  0  0  0  0
  -26.8612  -33.3765   23.1632 C   0  0  0  0  0  0  0  0  0  0  0  0
  -28.0968  -16.8619   24.9778 C   0  0  0  0  0  0  0  0  0  0  0  0
  -29.8111  -17.2629   26.8649 C   0  0  0  0  0  0  0  0  0  0  0  0
  -28.0654  -12.1068   18.6225 C   0  0  0  0  0  0  0  0  0  0  0  0
  -30.4424  -12.5484   19.3459 C   0  0  0  0  0  0  0  0  0  0  0  0
  -28.5870  -13.2324   20.8329 C   0  0  0  0  0  0  0  0  0  0  0  0
  -27.3070  -32.1926   24.0299 C   0  0  1  0  0  0  0  0  0  0  0  0
  -28.6574  -29.4723   21.7474 C   0  0  1  0  0  0  0  0  0  0  0  0
  -29.4545  -17.4587   25.3846 C   0  0  0  0  0  0  0  0  0  0  0  0
  -27.5846  -13.1266   19.6700 C   0  0  2  0  0  0  0  0  0  0  0  0
  -26.1415  -20.2395   18.6387 C   0  0  0  0  0  0  0  0  0  0  0  0
  -28.1034  -24.4392   16.1706 C   0  0  0  0  0  0  0  0  0  0  0  0
  -25.2041  -29.8834   18.1683 C   0  0  0  0  0  0  0  0  0  0  0  0
  -25.1105  -27.7291   16.8961 C   0  0  0  0  0  0  0  0  0  0  0  0
  -27.0598  -29.2596   16.6122 C   0  0  0  0  0  0  0  0  0  0  0  0
  -28.1558  -23.2653   19.7894 C   0  0  0  0  0  0  0  0  0  0  0  0
  -30.6661  -19.7078   22.0200 C   0  0  0  0  0  0  0  0  0  0  0  0
  -26.2689  -19.1564   19.7033 C   0  0  0  0  0  0  0  0  0  0  0  0
  -30.1617  -15.5179   21.7517 C   0  0  0  0  0  0  0  0  0  0  0  0
  -30.5639  -16.8512   24.5168 C   0  0  0  0  0  0  0  0  0  0  0  0
  -27.7735  -22.0443   26.1692 C   0  0  0  0  0  0  0  0  0  0  0  0
  -31.1871  -18.8603   23.1842 C   0  0  0  0  0  0  0  0  0  0  0  0
  -31.1483  -16.6154   22.1075 C   0  0  0  0  0  0  0  0  0  0  0  0
  -28.2830  -23.4803   26.1095 C   0  0  0  0  0  0  0  0  0  1  0  0
  -26.8125  -27.9531   18.7625 C   0  0  1  0  0  0  0  0  0  0  0  0
  -28.2104  -24.6003   17.6790 C   0  0  2  0  0  0  0  0  0  0  0  0
  -26.0470  -28.7063   17.6382 C   0  0  0  0  0  0  0  0  0  0  0  0
  -26.2426  -20.1977   21.8857 N   0  0  0  0  0  0  0  0  0  0  0  0
  -28.8300  -20.9804   24.2106 N   0  0  0  0  0  0  0  0  0  0  0  0
  -25.7904  -11.5291   20.2287 N   0  0  0  0  0  0  0  0  0  0  0  0
  -27.6977  -21.4049   24.8041 N   0  0  0  0  0  0  0  0  0  0  0  0
  -26.1823  -12.8127   20.1583 N   0  0  0  0  0  0  0  0  0  0  0  0
  -27.9453  -28.5253   20.8870 N   0  0  0  0  0  0  0  0  0  0  0  0
  -29.9393  -13.5096   20.3289 N   0  0  0  0  0  0  0  0  0  0  0  0
  -25.4548  -15.0337   20.5440 N   0  0  0  0  0  0  0  0  0  0  0  0
  -21.8820  -13.7603   20.4499 N   0  0  0  0  0  0  0  0  0  0  0  0
  -28.1332  -31.2864   23.2614 N   0  0  0  0  0  0  0  0  0  0  0  0
  -27.6404  -26.8503   18.2864 N   0  0  0  0  0  0  0  0  0  0  0  0
  -28.0495  -23.2587   18.3076 N   0  3  0  0  0  0  0  0  0  0  0  0
  -30.5566  -17.5173   23.1628 N   0  3  1  0  0  0  0  0  0  0  0  0
  -22.6640  -13.6569   22.6032 O   0  0  0  0  0  0  0  0  0  0  0  0
  -26.4283  -30.0436   22.2760 O   0  0  0  0  0  0  0  0  0  0  0  0
  -31.8964  -14.7625   20.3262 O   0  0  0  0  0  0  0  0  0  0  0  0
  -28.2415  -29.8339   18.9801 O   0  0  0  0  0  0  0  0  0  0  0  0
  -26.0257  -25.2021   18.5170 O   0  0  0  0  0  0  0  0  0  0  0  0
  -21.5135   -6.9904   21.5171 O   0  0  0  0  0  0  0  0  0  0  0  0
  -27.3956  -24.2744   25.3232 O   0  0  0  0  0  0  0  0  0  1  0  0
  -22.7003   -3.9105   25.9341 F   0  0  0  0  0  0  0  0  0  0  0  0
  -19.6127   -6.5160   23.4676 F   0  0  0  0  0  0  0  0  0  0  0  0
  1  2  1  0  0  0  0
  1  5  2  0  0  0  0
  2  6  2  0  0  0  0
  3  8  2  0  0  0  0
  3 17  1  0  0  0  0
  4  9  1  0  0  0  0
  4 17  2  0  0  0  0
  5 19  1  0  0  0  0
  6 21  1  0  0  0  0
  7 10  2  0  0  0  0
  7 20  1  0  0  0  0
  8 26  1  0  0  0  0
  9 26  2  0  0  0  0
 10 27  1  0  0  0  0
 11 12  2  0  0  0  0
 11 28  1  0  0  0  0
 12 29  1  0  0  0  0
 13 22  1  0  0  0  0
 13 27  2  0  0  0  0
 14 23  2  0  0  0  0
 14 32  1  0  0  0  0
 15 29  2  0  0  0  0
 15 30  1  0  0  0  0
 16 24  2  0  0  0  0
 16 78  1  0  0  0  0
 17 31  1  0  0  0  0
 18 31  1  0  0  0  0
 18 33  2  0  0  0  0
 18 34  1  0  0  0  0
 19 21  2  0  0  0  0
 19 39  1  0  0  0  0
 20 22  2  0  0  0  0
 20 40  1  0  0  0  0
 21 54  1  0  0  0  0
 22 41  1  0  0  0  0
 23 25  1  0  0  0  0
 23 64  1  0  0  0  0
 24 25  1  0  0  0  0
 24 75  1  0  0  0  0
 25 76  2  0  0  0  0
 26 93  1  0  0  0  0
 27 94  1  0  0  0  0
 28 30  2  0  0  0  0
 28 93  1  0  0  0  0
 29 95  1  0  0  0  0
 30 96  1  0  0  0  0
 31 77  2  0  0  0  0
 32 65  1  0  0  0  0
 32 75  2  0  0  0  0
 33 79  1  0  0  0  0
 33 82  1  0  0  0  0
 34 83  1  0  0  0  0
 34 88  2  0  0  0  0
 35 55  1  0  0  0  0
 35 84  1  0  0  0  0
 35 89  2  0  0  0  0
 36 66  1  0  0  0  0
 36 81  1  0  0  0  0
 36 90  2  0  0  0  0
 37 72  1  0  0  0  0
 37 80  1  0  0  0  0
 37 91  2  0  0  0  0
 38 73  1  0  0  0  0
 38 85  1  0  0  0  0
 38 92  2  0  0  0  0
 39 42  1  0  0  0  0
 40 55  1  0  0  0  0
 41 80  1  0  0  0  0
 42 48  1  0  0  0  0
 43 44  1  0  0  0  0
 43 45  1  0  0  0  0
 44 46  1  0  0  0  0
 45 49  1  0  0  0  0
 46 50  1  0  0  0  0
 47 51  1  0  0  0  0
 47 52  1  0  0  0  0
 48 54  1  0  0  0  0
 49 56  1  0  0  0  0
 50 56  1  0  0  0  0
 51 57  1  0  0  0  0
 52 81  1  0  0  0  0
 53 57  1  0  0  0  0
 53 81  1  0  0  0  0
 54 84  1  0  0  0  0
 55 80  1  0  0  0  0
 56 67  1  0  0  0  0
 57 79  1  0  0  0  0
 58 65  1  0  0  0  0
 59 73  1  0  0  0  0
 60 74  1  0  0  0  0
 61 74  1  0  0  0  0
 62 74  1  0  0  0  0
 63 86  1  0  0  0  0
 64 69  1  0  0  0  0
 66 70  1  0  0  0  0
 67 87  1  0  0  0  0
 68 71  1  0  0  0  0
 68 78  1  0  0  0  0
 69 87  1  0  0  0  0
 70 87  1  0  0  0  0
 71 94  1  0  0  0  0
 72 74  1  0  0  0  0
 72 85  1  0  0  0  0
 73 86  1  0  0  0  0
 76 78  1  0  0  0  0
 77 79  1  0  0  0  0
M  CHG  2  86   1  87   1
M  ISO  4  36 100  66 100  71 101  94 101
M  END
> <Batch ID>
0041

> <Smiles>
CCc1cc(CCN(C[100CH2:0][100C:0](=O)N2CCCC(n3nc(-c4ccc(Oc5ccc(F)cc5F)cc4)c(C(N)=O)c3N)C2)CC2CCCCCC2)c2nn(C[101CH2:1][101O:1]c3ccc4c(c3)CN(C(=O)C(NC(=O)C(C)NC)C(C)(C)C)C(C(=O)NC3CCCc5ccccc53)C4)cc2n1

> <Shape>
0.268

> <Color>
0.161

> <Negative vol penalty>
0.000

$$$$

  -OEChem-04052317093D

 83 91  0     1  0  0  0  0  0999 V2000
  -42.1170  -22.9228   26.5845 C   0  0  0  0  0  0  0  0  0  0  0  0
  -41.0440  -22.1611   27.0362 C   0  0  0  0  0  0  0  0  0  0  0  0
  -23.0793   -9.8623   19.9481 C   0  0  0  0  0  0  0  0  0  0  0  0
  -23.8381   -9.8822   22.2417 C   0  0  0  0  0  0  0  0  0  0  0  0
  -41.8850  -24.1237   25.9152 C   0  0  0  0  0  0  0  0  0  0  0  0
  -39.7384  -22.6005   26.8198 C   0  0  0  0  0  0  0  0  0  0  0  0
  -33.1420  -20.1019   25.5706 C   0  0  0  0  0  0  0  0  0  0  0  0
  -22.3393   -8.7077   20.2029 C   0  0  0  0  0  0  0  0  0  0  0  0
  -23.0981   -8.7276   22.4966 C   0  0  0  0  0  0  0  0  0  0  0  0
  -31.8392  -20.2112   26.0550 C   0  0  0  0  0  0  0  0  0  0  0  0
  -20.5362   -5.5501   20.1578 C   0  0  0  0  0  0  0  0  0  0  0  0
  -20.6035   -4.5157   19.2245 C   0  0  0  0  0  0  0  0  0  0  0  0
  -31.5575  -22.2625   24.8173 C   0  0  0  0  0  0  0  0  0  0  0  0
  -22.9887   -4.3555   19.5741 C   0  0  0  0  0  0  0  0  0  0  0  0
  -27.4778  -17.9573   22.8011 C   0  0  0  0  0  0  0  0  0  0  0  0
  -23.8287  -10.4495   20.9675 C   0  0  0  0  0  0  0  0  0  0  0  0
  -24.1618  -12.9753   20.8363 C   0  0  0  0  0  0  0  0  0  0  0  0
  -40.5757  -24.5732   25.6820 C   0  0  0  0  0  0  0  0  0  0  0  0
  -33.6669  -21.0795   24.7132 C   0  0  0  0  0  0  0  0  0  0  0  0
  -39.4888  -23.8092   26.1480 C   0  0  0  0  0  0  0  0  0  0  0  0
  -32.8663  -22.1620   24.3214 C   0  0  0  0  0  0  0  0  0  0  0  0
  -28.3098  -18.7721   22.0101 C   0  0  0  0  0  0  0  0  0  0  0  0
  -22.3487   -8.1403   21.4771 C   0  0  0  0  0  0  0  0  0  0  0  0
  -31.0477  -21.2931   25.6807 C   0  0  0  0  0  0  0  0  0  0  0  0
  -21.6952   -5.9873   20.7992 C   0  0  0  0  0  0  0  0  0  0  0  0
  -21.8297   -3.9183   18.9327 C   0  0  0  0  0  0  0  0  0  0  0  0
  -22.9214   -5.3899   20.5074 C   0  0  0  0  0  0  0  0  0  0  0  0
  -24.5937  -11.6419   20.7047 C   0  0  0  0  0  0  0  0  0  0  0  0
  -28.3302  -19.9796   22.6645 C   0  0  0  0  0  0  0  0  0  0  0  0
  -25.2515  -13.7269   20.4701 C   0  0  0  0  0  0  0  0  0  0  0  0
  -22.8893  -13.4885   21.2523 C   0  0  0  0  0  0  0  0  0  0  0  0
  -36.0900  -23.1310   24.8670 C   0  0  0  0  0  0  0  0  0  0  0  0
  -35.2611  -23.7391   21.7903 C   0  0  0  0  0  0  0  0  0  0  0  0
  -32.8492  -23.6930   19.3764 C   0  0  0  0  0  0  0  0  0  0  0  0
  -30.7315  -14.7659   20.6563 C   0  0  0  0  0  0  0  0  0  0  0  0
  -40.3756  -25.9012   24.9957 C   0  0  0  0  0  0  0  0  0  0  0  0
  -35.0650  -20.9331   24.1781 C   0  0  0  0  0  0  0  0  0  0  0  0
  -33.3758  -23.2278   23.3870 C   0  0  0  0  0  0  0  0  0  0  0  0
  -38.9554  -26.1107   24.4767 C   0  0  0  0  0  0  0  0  0  0  0  0
  -29.6033  -12.3668   18.2797 C   0  0  0  0  0  0  0  0  0  0  0  0
  -37.9350  -25.7236   25.5425 C   0  0  0  0  0  0  0  0  0  0  0  0
  -28.1667  -12.0700   18.7134 C   0  0  0  0  0  0  0  0  0  0  0  0
  -30.5192  -12.5962   19.4800 C   0  0  0  0  0  0  0  0  0  0  0  0
  -28.6142  -13.3268   20.8625 C   0  0  0  0  0  0  0  0  0  0  0  0
  -38.0577  -24.2400   25.9106 C   0  0  1  0  0  0  0  0  0  0  0  0
  -35.6709  -22.2560   23.7196 C   0  0  1  0  0  0  0  0  0  0  0  0
  -27.6412  -13.1436   19.6852 C   0  0  2  0  0  0  0  0  0  0  0  0
  -29.0162  -21.2468   22.3486 C   0  0  0  0  0  0  0  0  0  0  0  0
  -32.4592  -24.2877   16.9698 C   0  0  0  0  0  0  0  0  0  0  0  0
  -35.1012  -26.6904   22.5481 C   0  0  0  0  0  0  0  0  0  0  0  0
  -33.8196  -27.0917   20.4351 C   0  0  0  0  0  0  0  0  0  0  0  0
  -36.1615  -26.2392   20.3285 C   0  0  0  0  0  0  0  0  0  0  0  0
  -32.2284  -20.8885   18.6634 C   0  0  0  0  0  0  0  0  0  0  0  0
  -29.0005  -18.4065   20.7623 C   0  0  0  0  0  0  0  0  0  0  0  0
  -30.5052  -18.0711   20.9182 C   0  0  0  0  0  0  0  0  0  0  0  0
  -27.5902  -20.4170   26.2376 C   0  0  0  0  0  0  0  0  0  0  0  0
  -27.2317  -20.8564   24.8163 C   0  0  0  0  0  0  0  0  0  0  0  0
  -30.7893  -16.9223   21.8835 C   0  0  0  0  0  0  0  0  0  0  0  0
  -29.0835  -20.1886   26.4407 C   0  0  0  0  0  0  0  0  0  1  0  0
  -34.3154  -24.6972   21.1073 C   0  0  1  0  0  0  0  0  0  0  0  0
  -32.8680  -23.1930   17.9431 C   0  0  2  0  0  0  0  0  0  0  0  0
  -34.8402  -26.1607   21.1239 C   0  0  0  0  0  0  0  0  0  0  0  0
  -27.0041  -18.5933   23.8758 N   0  0  0  0  0  0  0  0  0  0  0  0
  -25.8591  -11.5486   20.2874 N   0  0  0  0  0  0  0  0  0  0  0  0
  -27.5402  -19.8206   23.7649 N   0  0  0  0  0  0  0  0  0  0  0  0
  -26.2316  -12.8329   20.1535 N   0  0  0  0  0  0  0  0  0  0  0  0
  -34.7514  -23.0434   22.8958 N   0  0  0  0  0  0  0  0  0  0  0  0
  -29.9646  -13.6268   20.3611 N   0  0  0  0  0  0  0  0  0  0  0  0
  -25.4573  -15.0588   20.3912 N   0  0  0  0  0  0  0  0  0  0  0  0
  -21.8804  -12.5773   21.5932 N   0  0  0  0  0  0  0  0  0  0  0  0
  -37.4421  -23.4145   24.8937 N   0  0  0  0  0  0  0  0  0  0  0  0
  -34.0852  -24.1601   19.7705 N   0  0  0  0  0  0  0  0  0  0  0  0
  -30.1288  -15.6964   21.4939 N   0  0  0  0  0  0  0  0  0  0  0  0
  -31.9296  -22.0465   17.7821 N   0  3  0  0  0  0  0  0  0  0  0  0
  -22.6487  -14.7185   21.3040 O   0  0  0  0  0  0  0  0  0  0  0  0
  -35.2486  -23.5214   25.6678 O   0  0  0  0  0  0  0  0  0  0  0  0
  -36.4076  -23.6072   21.3546 O   0  0  0  0  0  0  0  0  0  0  0  0
  -31.8383  -23.6746   20.0751 O   0  0  0  0  0  0  0  0  0  0  0  0
  -31.8671  -14.9433   20.2024 O   0  0  0  0  0  0  0  0  0  0  0  0
  -21.6266   -7.0138   21.7262 O   0  0  0  0  0  0  0  0  0  0  0  0
  -29.7760  -21.4025   26.1525 O   0  0  0  0  0  0  0  0  0  1  0  0
  -21.8940   -2.9240   18.0375 F   0  0  0  0  0  0  0  0  0  0  0  0
  -24.0380   -5.8048   21.1213 F   0  0  0  0  0  0  0  0  0  0  0  0
  1  2  1  0  0  0  0
  1  5  2  0  0  0  0
  2  6  2  0  0  0  0
  3  8  2  0  0  0  0
  3 16  1  0  0  0  0
  4  9  1  0  0  0  0
  4 16  2  0  0  0  0
  5 18  1  0  0  0  0
  6 20  1  0  0  0  0
  7 10  2  0  0  0  0
  7 19  1  0  0  0  0
  8 23  1  0  0  0  0
  9 23  2  0  0  0  0
 10 24  1  0  0  0  0
 11 12  2  0  0  0  0
 11 25  1  0  0  0  0
 12 26  1  0  0  0  0
 13 21  1  0  0  0  0
 13 24  2  0  0  0  0
 14 26  2  0  0  0  0
 14 27  1  0  0  0  0
 15 22  1  0  0  0  0
 15 63  2  0  0  0  0
 16 28  1  0  0  0  0
 17 28  1  0  0  0  0
 17 30  2  0  0  0  0
 17 31  1  0  0  0  0
 18 20  2  0  0  0  0
 18 36  1  0  0  0  0
 19 21  2  0  0  0  0
 19 37  1  0  0  0  0
 20 45  1  0  0  0  0
 21 38  1  0  0  0  0
 22 29  2  0  0  0  0
 22 54  1  0  0  0  0
 23 80  1  0  0  0  0
 24 81  1  0  0  0  0
 25 27  2  0  0  0  0
 25 80  1  0  0  0  0
 26 82  1  0  0  0  0
 27 83  1  0  0  0  0
 28 64  2  0  0  0  0
 29 48  1  0  0  0  0
 29 65  1  0  0  0  0
 30 66  1  0  0  0  0
 30 69  1  0  0  0  0
 31 70  1  0  0  0  0
 31 75  2  0  0  0  0
 32 46  1  0  0  0  0
 32 71  1  0  0  0  0
 32 76  2  0  0  0  0
 33 60  1  0  0  0  0
 33 67  1  0  0  0  0
 33 77  2  0  0  0  0
 34 61  1  0  0  0  0
 34 72  1  0  0  0  0
 34 78  2  0  0  0  0
 35 68  1  0  0  0  0
 35 73  1  0  0  0  0
 35 79  2  0  0  0  0
 36 39  1  0  0  0  0
 37 46  1  0  0  0  0
 38 67  1  0  0  0  0
 39 41  1  0  0  0  0
 40 42  1  0  0  0  0
 40 43  1  0  0  0  0
 41 45  1  0  0  0  0
 42 47  1  0  0  0  0
 43 68  1  0  0  0  0
 44 47  1  0  0  0  0
 44 68  1  0  0  0  0
 45 71  1  0  0  0  0
 46 67  1  0  0  0  0
 47 66  1  0  0  0  0
 49 61  1  0  0  0  0
 50 62  1  0  0  0  0
 51 62  1  0  0  0  0
 52 62  1  0  0  0  0
 53 74  1  0  0  0  0
 54 55  1  0  0  0  0
 55 58  1  0  0  0  0
 56 57  1  0  0  0  0
 56 59  1  0  0  0  0
 57 65  1  0  0  0  0
 58 73  1  0  0  0  0
 59 81  1  0  0  0  0
 60 62  1  0  0  0  0
 60 72  1  0  0  0  0
 61 74  1  0  0  0  0
 63 65  1  0  0  0  0
 64 66  1  0  0  0  0
M  CHG  1  74   1
M  ISO  4  35 100  59 101  73 100  81 101
M  END
> <Batch ID>
0041

> <Smiles>
CNC(C)C(=O)NC(C(=O)N1Cc2cc([101O:1][101CH2:1]CCn3ncc(CCC[100NH:0][100C:0](=O)N4CCCC(n5nc(-c6ccc(Oc7ccc(F)cc7F)cc6)c(C(N)=O)c5N)C4)c3C)ccc2CC1C(=O)NC1CCCc2ccccc21)C(C)(C)C

> <Shape>
0.169

> <Color>
0.196

> <Negative vol penalty>
0.000

$$$$

  -OEChem-04052317093D

 85 93  0     1  0  0  0  0  0999 V2000
  -30.3632  -23.2736   13.8542 C   0  0  0  0  0  0  0  0  0  0  0  0
  -29.3005  -23.1135   14.7361 C   0  0  0  0  0  0  0  0  0  0  0  0
  -30.8095  -19.0259   21.1376 C   0  0  0  0  0  0  0  0  0  0  0  0
  -28.4354  -18.7933   20.7542 C   0  0  0  0  0  0  0  0  0  0  0  0
  -31.2811  -24.3025   14.0543 C   0  0  0  0  0  0  0  0  0  0  0  0
  -29.1485  -23.9894   15.8116 C   0  0  0  0  0  0  0  0  0  0  0  0
  -25.0407  -23.5557   18.4839 C   0  0  0  0  0  0  0  0  0  0  0  0
  -31.0368  -17.8311   20.4547 C   0  0  0  0  0  0  0  0  0  0  0  0
  -28.6627  -17.5985   20.0713 C   0  0  0  0  0  0  0  0  0  0  0  0
  -24.8138  -22.4863   19.3492 C   0  0  0  0  0  0  0  0  0  0  0  0
  -28.5840  -14.3037   18.5390 C   0  0  0  0  0  0  0  0  0  0  0  0
  -27.7527  -13.2221   18.8304 C   0  0  0  0  0  0  0  0  0  0  0  0
  -25.3293  -23.9065   21.2298 C   0  0  0  0  0  0  0  0  0  0  0  0
  -23.1629  -21.8009   24.1125 C   0  0  0  0  0  0  0  0  0  0  0  0
  -28.4749  -13.2880   21.1350 C   0  0  0  0  0  0  0  0  0  0  0  0
  -29.5088  -19.5070   21.2874 C   0  0  0  0  0  0  0  0  0  0  0  0
  -29.2340  -22.0381   21.4477 C   0  0  0  0  0  0  0  0  0  0  0  0
  -31.1466  -25.1834   15.1401 C   0  0  0  0  0  0  0  0  0  0  0  0
  -25.4248  -24.8078   18.9852 C   0  0  0  0  0  0  0  0  0  0  0  0
  -30.0509  -25.0487   16.0168 C   0  0  0  0  0  0  0  0  0  0  0  0
  -25.5580  -24.9908   20.3690 C   0  0  0  0  0  0  0  0  0  0  0  0
  -22.4879  -22.7069   24.9229 C   0  0  0  0  0  0  0  0  0  0  0  0
  -22.4439  -20.9618   23.2685 C   0  0  0  0  0  0  0  0  0  0  0  0
  -29.9635  -17.1174   19.9216 C   0  0  0  0  0  0  0  0  0  0  0  0
  -24.9609  -22.6608   20.7221 C   0  0  0  0  0  0  0  0  0  0  0  0
  -29.3608  -14.8773   19.5456 C   0  0  0  0  0  0  0  0  0  0  0  0
  -27.6982  -12.7143   20.1284 C   0  0  0  0  0  0  0  0  0  0  0  0
  -29.3062  -14.3695   20.8436 C   0  0  0  0  0  0  0  0  0  0  0  0
  -29.2732  -20.7409   21.9932 C   0  0  0  0  0  0  0  0  0  0  0  0
  -21.1044  -22.7342   24.8527 C   0  0  0  0  0  0  0  0  0  0  0  0
  -21.0624  -21.0671   23.2725 C   0  0  0  0  0  0  0  0  0  0  0  0
  -28.9797  -22.8548   22.5223 C   0  0  0  0  0  0  0  0  0  0  0  0
  -29.4116  -22.4665   20.0910 C   0  0  0  0  0  0  0  0  0  0  0  0
  -27.9798  -26.6692   18.6527 C   0  0  0  0  0  0  0  0  0  0  0  0
  -26.1961  -28.7619   20.3736 C   0  0  0  0  0  0  0  0  0  0  0  0
  -23.6535  -29.2587   22.5951 C   0  0  0  0  0  0  0  0  0  0  0  0
  -26.3335  -21.9272   27.8127 C   0  0  0  0  0  0  0  0  0  0  0  0
  -32.1644  -26.2843   15.3049 C   0  0  0  0  0  0  0  0  0  0  0  0
  -25.6398  -25.9583   18.0404 C   0  0  0  0  0  0  0  0  0  0  0  0
  -25.9488  -26.3203   20.9590 C   0  0  0  0  0  0  0  0  0  0  0  0
  -32.1740  -26.8798   16.7090 C   0  0  0  0  0  0  0  0  0  0  0  0
  -29.6368  -23.1320   27.2533 C   0  0  0  0  0  0  0  0  0  0  0  0
  -30.7559  -27.2294   17.1350 C   0  0  0  0  0  0  0  0  0  0  0  0
  -29.9147  -22.7728   25.7925 C   0  0  0  0  0  0  0  0  0  0  0  0
  -28.8034  -22.0585   27.9497 C   0  0  0  0  0  0  0  0  0  0  0  0
  -27.8238  -21.3493   25.8023 C   0  0  0  0  0  0  0  0  0  0  0  0
  -29.8826  -25.9706   17.2111 C   0  0  1  0  0  0  0  0  0  0  0  0
  -26.5274  -27.0531   18.6244 C   0  0  1  0  0  0  0  0  0  0  0  0
  -28.6138  -22.4285   25.0426 C   0  0  2  0  0  0  0  0  0  0  0  0
  -20.3257  -23.6859   25.7007 C   0  0  0  0  0  0  0  0  0  0  0  0
  -18.7910  -20.6614   22.2913 C   0  0  0  0  0  0  0  0  0  0  0  0
  -22.4543  -31.0764   23.8422 C   0  0  0  0  0  0  0  0  0  0  0  0
  -28.5481  -28.9856   22.3044 C   0  0  0  0  0  0  0  0  0  0  0  0
  -26.9916  -30.0190   23.9710 C   0  0  0  0  0  0  0  0  0  0  0  0
  -27.4116  -31.1529   21.7891 C   0  0  0  0  0  0  0  0  0  0  0  0
  -21.0750  -28.6081   21.2964 C   0  0  0  0  0  0  0  0  0  0  0  0
  -23.2524  -23.6087   25.8292 C   0  0  0  0  0  0  0  0  0  0  0  0
  -23.1706  -19.9758   22.3864 C   0  0  0  0  0  0  0  0  0  0  0  0
  -20.2394  -20.1916   22.3851 C   0  0  0  0  0  0  0  0  0  0  0  0
  -23.2877  -23.1549   27.3027 C   0  0  0  0  0  0  0  0  0  0  0  0
  -23.8750  -21.7614   27.5165 C   0  0  0  0  0  0  0  0  0  0  0  0
  -23.7864  -20.6396   21.1596 C   0  0  0  0  0  0  0  0  0  1  0  0
  -26.0085  -29.0504   21.8435 C   0  0  1  0  0  0  0  0  0  0  0  0
  -22.4804  -30.2220   22.5844 C   0  0  2  0  0  0  0  0  0  0  0  0
  -27.2345  -29.7763   22.4661 C   0  0  0  0  0  0  0  0  0  0  0  0
  -29.0609  -20.7293   23.3118 N   0  0  0  0  0  0  0  0  0  0  0  0
  -20.3716  -21.9348   24.0455 N   0  0  0  0  0  0  0  0  0  0  0  0
  -28.8860  -22.0294   23.6040 N   0  0  0  0  0  0  0  0  0  0  0  0
  -26.1541  -27.4129   19.9938 N   0  0  0  0  0  0  0  0  0  0  0  0
  -27.5832  -21.7798   27.1885 N   0  0  0  0  0  0  0  0  0  0  0  0
  -28.8293  -24.1914   22.6380 N   0  0  0  0  0  0  0  0  0  0  0  0
  -29.6655  -21.4964   19.1119 N   0  0  0  0  0  0  0  0  0  0  0  0
  -28.5051  -26.3631   17.4118 N   0  0  0  0  0  0  0  0  0  0  0  0
  -24.7555  -29.7887   21.9579 N   0  0  0  0  0  0  0  0  0  0  0  0
  -25.2278  -21.6491   27.0183 N   0  0  0  0  0  0  0  0  0  0  0  0
  -21.1953  -29.4723   22.4988 N   0  3  0  0  0  0  0  0  0  0  0  0
  -29.3633  -23.6753   19.7596 O   0  0  0  0  0  0  0  0  0  0  0  0
  -28.5799  -26.6535   19.7210 O   0  0  0  0  0  0  0  0  0  0  0  0
  -26.3663  -29.6994   19.5902 O   0  0  0  0  0  0  0  0  0  0  0  0
  -23.5992  -28.1486   23.1199 O   0  0  0  0  0  0  0  0  0  0  0  0
  -26.2119  -22.2856   28.9890 O   0  0  0  0  0  0  0  0  0  0  0  0
  -30.1849  -15.9515   19.2549 O   0  0  0  0  0  0  0  0  0  0  0  0
  -24.7407  -21.6185   21.5689 O   0  0  0  0  0  0  0  0  0  1  0  0
  -26.8987  -11.6767   20.4084 F   0  0  0  0  0  0  0  0  0  0  0  0
  -30.0492  -14.9172   21.8151 F   0  0  0  0  0  0  0  0  0  0  0  0
  1  2  1  0  0  0  0
  1  5  2  0  0  0  0
  2  6  2  0  0  0  0
  3  8  2  0  0  0  0
  3 16  1  0  0  0  0
  4  9  1  0  0  0  0
  4 16  2  0  0  0  0
  5 18  1  0  0  0  0
  6 20  1  0  0  0  0
  7 10  2  0  0  0  0
  7 19  1  0  0  0  0
  8 24  1  0  0  0  0
  9 24  2  0  0  0  0
 10 25  1  0  0  0  0
 11 12  2  0  0  0  0
 11 26  1  0  0  0  0
 12 27  1  0  0  0  0
 13 21  1  0  0  0  0
 13 25  2  0  0  0  0
 14 22  2  0  0  0  0
 14 23  1  0  0  0  0
 15 27  2  0  0  0  0
 15 28  1  0  0  0  0
 16 29  1  0  0  0  0
 17 29  1  0  0  0  0
 17 32  2  0  0  0  0
 17 33  1  0  0  0  0
 18 20  2  0  0  0  0
 18 38  1  0  0  0  0
 19 21  2  0  0  0  0
 19 39  1  0  0  0  0
 20 47  1  0  0  0  0
 21 40  1  0  0  0  0
 22 30  1  0  0  0  0
 22 57  1  0  0  0  0
 23 31  2  0  0  0  0
 23 58  1  0  0  0  0
 24 82  1  0  0  0  0
 25 83  1  0  0  0  0
 26 28  2  0  0  0  0
 26 82  1  0  0  0  0
 27 84  1  0  0  0  0
 28 85  1  0  0  0  0
 29 66  2  0  0  0  0
 30 50  1  0  0  0  0
 30 67  2  0  0  0  0
 31 59  1  0  0  0  0
 31 67  1  0  0  0  0
 32 68  1  0  0  0  0
 32 71  1  0  0  0  0
 33 72  1  0  0  0  0
 33 77  2  0  0  0  0
 34 48  1  0  0  0  0
 34 73  1  0  0  0  0
 34 78  2  0  0  0  0
 35 63  1  0  0  0  0
 35 69  1  0  0  0  0
 35 79  2  0  0  0  0
 36 64  1  0  0  0  0
 36 74  1  0  0  0  0
 36 80  2  0  0  0  0
 37 70  1  0  0  0  0
 37 75  1  0  0  0  0
 37 81  2  0  0  0  0
 38 41  1  0  0  0  0
 39 48  1  0  0  0  0
 40 69  1  0  0  0  0
 41 43  1  0  0  0  0
 42 44  1  0  0  0  0
 42 45  1  0  0  0  0
 43 47  1  0  0  0  0
 44 49  1  0  0  0  0
 45 70  1  0  0  0  0
 46 49  1  0  0  0  0
 46 70  1  0  0  0  0
 47 73  1  0  0  0  0
 48 69  1  0  0  0  0
 49 68  1  0  0  0  0
 51 59  1  0  0  0  0
 52 64  1  0  0  0  0
 53 65  1  0  0  0  0
 54 65  1  0  0  0  0
 55 65  1  0  0  0  0
 56 76  1  0  0  0  0
 57 60  1  0  0  0  0
 58 62  1  0  0  0  0
 60 61  1  0  0  0  0
 61 75  1  0  0  0  0
 62 83  1  0  0  0  0
 63 65  1  0  0  0  0
 63 74  1  0  0  0  0
 64 76  1  0  0  0  0
 66 68  1  0  0  0  0
M  CHG  1  76   1
M  ISO  4  37 100  62 101  75 100  83 101
M  END
> <Batch ID>
0041

> <Smiles>
CCc1nc(C)c(CCC[100NH:0][100C:0](=O)N2CCCC(n3nc(-c4ccc(Oc5ccc(F)cc5F)cc4)c(C(N)=O)c3N)C2)cc1C[101CH2:1][101O:1]c1ccc2c(c1)CN(C(=O)C(NC(=O)C(C)NC)C(C)(C)C)C(C(=O)NC1CCCc3ccccc31)C2

> <Shape>
0.186

> <Color>
0.056

> <Negative vol penalty>
0.000

$$$$

  -OEChem-04052317093D

 82 90  0     1  0  0  0  0  0999 V2000
  -28.2357  -26.1594   22.6933 C   0  0  0  0  0  0  0  0  0  0  0  0
  -27.2269  -25.2146   22.5344 C   0  0  0  0  0  0  0  0  0  0  0  0
  -24.9044  -31.4236   24.2280 C   0  0  0  0  0  0  0  0  0  0  0  0
  -25.8557  -29.2614   24.7348 C   0  0  0  0  0  0  0  0  0  0  0  0
  -29.4243  -26.0359   21.9751 C   0  0  0  0  0  0  0  0  0  0  0  0
  -27.4059  -24.1463   21.6563 C   0  0  0  0  0  0  0  0  0  0  0  0
  -25.9198  -19.7305   23.6407 C   0  0  0  0  0  0  0  0  0  0  0  0
  -25.7205  -32.0095   25.1956 C   0  0  0  0  0  0  0  0  0  0  0  0
  -26.6719  -29.8473   25.7024 C   0  0  0  0  0  0  0  0  0  0  0  0
  -24.5500  -19.4721   23.6646 C   0  0  0  0  0  0  0  0  0  0  0  0
  -28.9440  -32.9921   25.4725 C   0  0  0  0  0  0  0  0  0  0  0  0
  -29.6002  -34.1761   25.1364 C   0  0  0  0  0  0  0  0  0  0  0  0
  -24.7829  -18.0891   21.7018 C   0  0  0  0  0  0  0  0  0  0  0  0
  -28.4708  -35.3148   26.9434 C   0  0  0  0  0  0  0  0  0  0  0  0
  -18.4849  -17.7933   22.0540 C   0  0  0  0  0  0  0  0  0  0  0  0
  -24.9719  -30.0495   23.9977 C   0  0  0  0  0  0  0  0  0  0  0  0
  -24.4263  -29.2549   21.6358 C   0  0  0  0  0  0  0  0  0  0  0  0
  -29.6217  -24.9602   21.0950 C   0  0  0  0  0  0  0  0  0  0  0  0
  -26.7310  -19.1781   22.6391 C   0  0  0  0  0  0  0  0  0  0  0  0
  -28.5978  -24.0090   20.9246 C   0  0  0  0  0  0  0  0  0  0  0  0
  -26.1631  -18.3401   21.6689 C   0  0  0  0  0  0  0  0  0  0  0  0
  -19.6773  -18.4433   21.8481 C   0  0  0  0  0  0  0  0  0  0  0  0
  -26.6043  -31.2214   25.9327 C   0  0  0  0  0  0  0  0  0  0  0  0
  -23.9808  -18.6536   22.6934 C   0  0  0  0  0  0  0  0  0  0  0  0
  -28.0511  -32.9693   26.5439 C   0  0  0  0  0  0  0  0  0  0  0  0
  -29.3636  -35.3375   25.8719 C   0  0  0  0  0  0  0  0  0  0  0  0
  -27.8146  -34.1307   27.2794 C   0  0  0  0  0  0  0  0  0  0  0  0
  -24.1287  -29.4436   22.9987 C   0  0  0  0  0  0  0  0  0  0  0  0
  -20.6435  -17.4197   21.8647 C   0  0  0  0  0  0  0  0  0  0  0  0
  -23.3095  -28.6421   21.1221 C   0  0  0  0  0  0  0  0  0  0  0  0
  -25.6067  -29.6023   20.8999 C   0  0  0  0  0  0  0  0  0  0  0  0
  -28.5533  -20.3641   20.3203 C   0  0  0  0  0  0  0  0  0  0  0  0
  -29.3841  -17.2547   19.9151 C   0  0  0  0  0  0  0  0  0  0  0  0
  -28.5755  -13.9637   20.3178 C   0  0  0  0  0  0  0  0  0  0  0  0
  -19.0196  -25.2628   23.5772 C   0  0  0  0  0  0  0  0  0  0  0  0
  -30.9047  -24.8948   20.3049 C   0  0  0  0  0  0  0  0  0  0  0  0
  -28.2113  -19.4450   22.6429 C   0  0  0  0  0  0  0  0  0  0  0  0
  -26.9937  -17.7062   20.5841 C   0  0  0  0  0  0  0  0  0  0  0  0
  -31.1638  -23.5282   19.6761 C   0  0  0  0  0  0  0  0  0  0  0  0
  -18.5830  -28.3079   21.7846 C   0  0  0  0  0  0  0  0  0  0  0  0
  -29.9039  -23.0082   18.9912 C   0  0  0  0  0  0  0  0  0  0  0  0
  -19.9816  -28.9272   21.7696 C   0  0  0  0  0  0  0  0  0  0  0  0
  -18.3002  -27.5846   23.0995 C   0  0  0  0  0  0  0  0  0  0  0  0
  -20.7062  -27.1965   23.4661 C   0  0  0  0  0  0  0  0  0  0  0  0
  -28.7642  -22.8225   20.0002 C   0  0  1  0  0  0  0  0  0  0  0  0
  -28.8580  -19.2451   21.2757 C   0  0  1  0  0  0  0  0  0  0  0  0
  -21.0585  -27.8892   22.1386 C   0  0  2  0  0  0  0  0  0  0  0  0
  -29.4361  -11.6527   19.8532 C   0  0  0  0  0  0  0  0  0  0  0  0
  -28.6192  -17.5631   16.9775 C   0  0  0  0  0  0  0  0  0  0  0  0
  -28.5834  -15.0663   16.7968 C   0  0  0  0  0  0  0  0  0  0  0  0
  -30.7046  -16.2426   17.3794 C   0  0  0  0  0  0  0  0  0  0  0  0
  -17.8695  -15.3899   22.4058 C   0  0  0  0  0  0  0  0  0  0  0  0
  -28.6396  -13.2831   23.1973 C   0  0  0  0  0  0  0  0  0  0  0  0
  -19.8848  -19.8884   21.6549 C   0  0  0  0  0  0  0  0  0  0  0  0
  -22.1276  -17.5529   21.6884 C   0  0  0  0  0  0  0  0  0  1  0  0
  -19.8077  -20.6876   22.9737 C   0  0  0  0  0  0  0  0  0  0  0  0
  -19.9833  -22.1931   22.7538 C   0  0  0  0  0  0  0  0  0  0  0  0
  -19.8949  -22.9895   24.0516 C   0  0  0  0  0  0  0  0  0  0  0  0
  -28.8526  -16.1043   19.0949 C   0  0  1  0  0  0  0  0  0  0  0  0
  -29.3710  -12.7901   20.8605 C   0  0  2  0  0  0  0  0  0  0  0  0
  -29.1737  -16.2574   17.5813 C   0  0  0  0  0  0  0  0  0  0  0  0
  -22.9176  -28.9878   23.3299 N   0  0  0  0  0  0  0  0  0  0  0  0
  -20.1111  -16.2112   22.0654 N   0  0  0  0  0  0  0  0  0  0  0  0
  -18.7974  -16.4714   22.1770 N   0  0  0  0  0  0  0  0  0  0  0  0
  -22.4444  -28.5067   22.1678 N   0  0  0  0  0  0  0  0  0  0  0  0
  -28.4352  -18.0025   20.6267 N   0  0  0  0  0  0  0  0  0  0  0  0
  -19.3575  -26.6133   23.3905 N   0  0  0  0  0  0  0  0  0  0  0  0
  -22.9929  -28.2115   19.8824 N   0  0  0  0  0  0  0  0  0  0  0  0
  -26.6599  -30.2264   21.5822 N   0  0  0  0  0  0  0  0  0  0  0  0
  -28.9580  -21.6086   20.7639 N   0  0  0  0  0  0  0  0  0  0  0  0
  -29.3889  -14.8897   19.6996 N   0  0  0  0  0  0  0  0  0  0  0  0
  -20.0824  -24.4079   23.8426 N   0  0  0  0  0  0  0  0  0  0  0  0
  -28.7459  -12.2749   22.1114 N   0  3  0  0  0  0  0  0  0  0  0  0
  -25.7176  -29.3810   19.6701 O   0  0  0  0  0  0  0  0  0  0  0  0
  -27.9937  -20.1164   19.2586 O   0  0  0  0  0  0  0  0  0  0  0  0
  -30.5973  -17.4772   19.9299 O   0  0  0  0  0  0  0  0  0  0  0  0
  -27.3544  -14.0485   20.4279 O   0  0  0  0  0  0  0  0  0  0  0  0
  -17.8575  -24.8486   23.5069 O   0  0  0  0  0  0  0  0  0  0  0  0
  -27.4010  -31.7928   26.8768 O   0  0  0  0  0  0  0  0  0  0  0  0
  -22.6440  -18.4002   22.7140 O   0  0  0  0  0  0  0  0  0  1  0  0
  -29.9950  -36.4741   25.5500 F   0  0  0  0  0  0  0  0  0  0  0  0
  -26.9589  -34.1147   28.3106 F   0  0  0  0  0  0  0  0  0  0  0  0
  1  2  1  0  0  0  0
  1  5  2  0  0  0  0
  2  6  2  0  0  0  0
  3  8  2  0  0  0  0
  3 16  1  0  0  0  0
  4  9  1  0  0  0  0
  4 16  2  0  0  0  0
  5 18  1  0  0  0  0
  6 20  1  0  0  0  0
  7 10  2  0  0  0  0
  7 19  1  0  0  0  0
  8 23  1  0  0  0  0
  9 23  2  0  0  0  0
 10 24  1  0  0  0  0
 11 12  2  0  0  0  0
 11 25  1  0  0  0  0
 12 26  1  0  0  0  0
 13 21  1  0  0  0  0
 13 24  2  0  0  0  0
 14 26  2  0  0  0  0
 14 27  1  0  0  0  0
 15 22  2  0  0  0  0
 15 64  1  0  0  0  0
 16 28  1  0  0  0  0
 17 28  1  0  0  0  0
 17 30  2  0  0  0  0
 17 31  1  0  0  0  0
 18 20  2  0  0  0  0
 18 36  1  0  0  0  0
 19 21  2  0  0  0  0
 19 37  1  0  0  0  0
 20 45  1  0  0  0  0
 21 38  1  0  0  0  0
 22 29  1  0  0  0  0
 22 54  1  0  0  0  0
 23 79  1  0  0  0  0
 24 80  1  0  0  0  0
 25 27  2  0  0  0  0
 25 79  1  0  0  0  0
 26 81  1  0  0  0  0
 27 82  1  0  0  0  0
 28 62  2  0  0  0  0
 29 55  1  0  0  0  0
 29 63  2  0  0  0  0
 30 65  1  0  0  0  0
 30 68  1  0  0  0  0
 31 69  1  0  0  0  0
 31 74  2  0  0  0  0
 32 46  1  0  0  0  0
 32 70  1  0  0  0  0
 32 75  2  0  0  0  0
 33 59  1  0  0  0  0
 33 66  1  0  0  0  0
 33 76  2  0  0  0  0
 34 60  1  0  0  0  0
 34 71  1  0  0  0  0
 34 77  2  0  0  0  0
 35 67  1  0  0  0  0
 35 72  1  0  0  0  0
 35 78  2  0  0  0  0
 36 39  1  0  0  0  0
 37 46  1  0  0  0  0
 38 66  1  0  0  0  0
 39 41  1  0  0  0  0
 40 42  1  0  0  0  0
 40 43  1  0  0  0  0
 41 45  1  0  0  0  0
 42 47  1  0  0  0  0
 43 67  1  0  0  0  0
 44 47  1  0  0  0  0
 44 67  1  0  0  0  0
 45 70  1  0  0  0  0
 46 66  1  0  0  0  0
 47 65  1  0  0  0  0
 48 60  1  0  0  0  0
 49 61  1  0  0  0  0
 50 61  1  0  0  0  0
 51 61  1  0  0  0  0
 52 64  1  0  0  0  0
 53 73  1  0  0  0  0
 54 56  1  0  0  0  0
 55 80  1  0  0  0  0
 56 57  1  0  0  0  0
 57 58  1  0  0  0  0
 58 72  1  0  0  0  0
 59 61  1  0  0  0  0
 59 71  1  0  0  0  0
 60 73  1  0  0  0  0
 62 65  1  0  0  0  0
 63 64  1  0  0  0  0
M  CHG  1  73   1
M  ISO  4  35 100  55 101  72 100  80 101
M  END
> <Batch ID>
0041

> <Smiles>
CNC(C)C(=O)NC(C(=O)N1Cc2cc([101O:1][101CH2:1]c3nn(C)cc3CCCC[100NH:0][100C:0](=O)N3CCCC(n4nc(-c5ccc(Oc6ccc(F)cc6F)cc5)c(C(N)=O)c4N)C3)ccc2CC1C(=O)NC1CCCc2ccccc21)C(C)(C)C

> <Shape>
0.239

> <Color>
0.051

> <Negative vol penalty>
0.000

$$$$

  -OEChem-04052317093D

 83 91  0     1  0  0  0  0  0999 V2000
  -28.8569  -27.5383   26.3801 C   0  0  0  0  0  0  0  0  0  0  0  0
  -28.7750  -26.7106   25.2650 C   0  0  0  0  0  0  0  0  0  0  0  0
  -22.9901  -10.0153   19.8913 C   0  0  0  0  0  0  0  0  0  0  0  0
  -23.8733   -9.7448   22.1238 C   0  0  0  0  0  0  0  0  0  0  0  0
  -28.1701  -28.7515   26.3983 C   0  0  0  0  0  0  0  0  0  0  0  0
  -28.0053  -27.0952   24.1676 C   0  0  0  0  0  0  0  0  0  0  0  0
  -30.3815  -26.3249   19.7624 C   0  0  0  0  0  0  0  0  0  0  0  0
  -22.2313   -8.8559   20.0510 C   0  0  0  0  0  0  0  0  0  0  0  0
  -23.1144   -8.5853   22.2835 C   0  0  0  0  0  0  0  0  0  0  0  0
  -30.4112  -25.0191   19.2748 C   0  0  0  0  0  0  0  0  0  0  0  0
  -19.3465   -7.9561   21.5680 C   0  0  0  0  0  0  0  0  0  0  0  0
  -18.0145   -7.9913   21.1557 C   0  0  0  0  0  0  0  0  0  0  0  0
  -28.5927  -25.5428   17.7788 C   0  0  0  0  0  0  0  0  0  0  0  0
  -18.4511   -6.2018   19.5922 C   0  0  0  0  0  0  0  0  0  0  0  0
  -23.8112  -10.4597   20.9277 C   0  0  0  0  0  0  0  0  0  0  0  0
  -24.2112  -12.9749   21.0752 C   0  0  0  0  0  0  0  0  0  0  0  0
  -27.3994  -29.1556   25.2967 C   0  0  0  0  0  0  0  0  0  0  0  0
  -29.4484  -27.2480   19.2688 C   0  0  0  0  0  0  0  0  0  0  0  0
  -27.3065  -28.3143   24.1716 C   0  0  0  0  0  0  0  0  0  0  0  0
  -28.5549  -26.8604   18.2600 C   0  0  0  0  0  0  0  0  0  0  0  0
  -22.2934   -8.1409   21.2470 C   0  0  0  0  0  0  0  0  0  0  0  0
  -29.5148  -24.6270   18.2849 C   0  0  0  0  0  0  0  0  0  0  0  0
  -20.2309   -7.0438   20.9923 C   0  0  0  0  0  0  0  0  0  0  0  0
  -17.5667   -7.1141   20.1678 C   0  0  0  0  0  0  0  0  0  0  0  0
  -19.7832   -6.1667   20.0045 C   0  0  0  0  0  0  0  0  0  0  0  0
  -24.5957  -11.6570   20.7632 C   0  0  0  0  0  0  0  0  0  0  0  0
  -28.6298  -20.7831   21.0462 C   0  0  0  0  0  0  0  0  0  0  0  0
  -28.8868  -19.5008   20.6216 C   0  0  0  0  0  0  0  0  0  0  0  0
  -25.3011  -13.7395   20.7377 C   0  0  0  0  0  0  0  0  0  0  0  0
  -28.4988  -20.8499   18.9228 C   0  0  0  0  0  0  0  0  0  0  0  0
  -22.9791  -13.4640   21.6214 C   0  0  0  0  0  0  0  0  0  0  0  0
  -27.0522  -28.9098   20.5338 C   0  0  0  0  0  0  0  0  0  0  0  0
  -26.9570  -30.2702   17.5905 C   0  0  0  0  0  0  0  0  0  0  0  0
  -27.6607  -30.0228   14.2603 C   0  0  0  0  0  0  0  0  0  0  0  0
  -30.8116  -14.6229   20.7281 C   0  0  0  0  0  0  0  0  0  0  0  0
  -26.6368  -30.4540   25.3815 C   0  0  0  0  0  0  0  0  0  0  0  0
  -29.4469  -28.6603   19.7863 C   0  0  0  0  0  0  0  0  0  0  0  0
  -27.5470  -27.8189   17.6822 C   0  0  0  0  0  0  0  0  0  0  0  0
  -26.1448  -30.9609   24.0283 C   0  0  0  0  0  0  0  0  0  0  0  0
  -29.4848  -12.5502   18.1552 C   0  0  0  0  0  0  0  0  0  0  0  0
  -25.4955  -29.8291   23.2382 C   0  0  0  0  0  0  0  0  0  0  0  0
  -28.0658  -12.2369   18.6331 C   0  0  0  0  0  0  0  0  0  0  0  0
  -30.4711  -12.6140   19.3193 C   0  0  0  0  0  0  0  0  0  0  0  0
  -28.6670  -13.2185   20.8856 C   0  0  0  0  0  0  0  0  0  0  0  0
  -26.5019  -28.7081   22.9519 C   0  0  1  0  0  0  0  0  0  0  0  0
  -28.1141  -29.3722   19.5765 C   0  0  1  0  0  0  0  0  0  0  0  0
  -27.6261  -13.1990   19.7531 C   0  0  2  0  0  0  0  0  0  0  0  0
  -28.5915  -21.3005   22.4232 C   0  0  0  0  0  0  0  0  0  0  0  0
  -27.4305  -31.2782   12.0997 C   0  0  0  0  0  0  0  0  0  0  0  0
  -23.9931  -29.5521   17.4919 C   0  0  0  0  0  0  0  0  0  0  0  0
  -24.0509  -29.9479   15.0204 C   0  0  0  0  0  0  0  0  0  0  0  0
  -24.5477  -31.8192   16.5933 C   0  0  0  0  0  0  0  0  0  0  0  0
  -28.9917  -18.4580   18.3432 C   0  0  0  0  0  0  0  0  0  0  0  0
  -30.5926  -30.1158   13.8677 C   0  0  0  0  0  0  0  0  0  0  0  0
  -29.1983  -18.2641   21.3606 C   0  0  0  0  0  0  0  0  0  0  0  0
  -28.3288  -21.2888   17.4887 C   0  0  0  0  0  0  0  0  0  0  0  0
  -30.6979  -17.8778   21.3893 C   0  0  0  0  0  0  0  0  0  0  0  0
  -31.0001  -16.6160   22.1949 C   0  0  0  0  0  0  0  0  0  0  0  0
  -28.3065  -22.8067   17.3456 C   0  0  0  0  0  0  0  0  0  1  0  0
  -26.2430  -29.9674   16.2954 C   0  0  1  0  0  0  0  0  0  0  0  0
  -28.3237  -30.9901   13.2963 C   0  0  2  0  0  0  0  0  0  0  0  0
  -24.7263  -30.3028   16.3623 C   0  0  0  0  0  0  0  0  0  0  0  0
  -25.8331  -11.5850   20.2655 N   0  0  0  0  0  0  0  0  0  0  0  0
  -28.3887  -21.6180   19.9839 N   0  0  0  0  0  0  0  0  0  0  0  0
  -28.7989  -19.5592   19.2592 N   0  0  0  0  0  0  0  0  0  0  0  0
  -26.2356  -12.8673   20.2622 N   0  0  0  0  0  0  0  0  0  0  0  0
  -27.5808  -29.1869   18.2254 N   0  0  0  0  0  0  0  0  0  0  0  0
  -29.9962  -13.5449   20.3459 N   0  0  0  0  0  0  0  0  0  0  0  0
  -25.5417  -15.0662   20.8041 N   0  0  0  0  0  0  0  0  0  0  0  0
  -21.9638  -12.5422   21.9106 N   0  0  0  0  0  0  0  0  0  0  0  0
  -27.3805  -29.0831   21.8648 N   0  0  0  0  0  0  0  0  0  0  0  0
  -26.9681  -30.6845   15.2521 N   0  0  0  0  0  0  0  0  0  0  0  0
  -30.2832  -15.4608   21.7027 N   0  0  0  0  0  0  0  0  0  0  0  0
  -29.6094  -30.4249   12.7978 N   0  3  0  0  0  0  0  0  0  0  0  0
  -22.7783  -14.6844   21.8311 O   0  0  0  0  0  0  0  0  0  0  0  0
  -26.0113  -28.4327   20.0971 O   0  0  0  0  0  0  0  0  0  0  0  0
  -26.9670  -31.4268   18.0194 O   0  0  0  0  0  0  0  0  0  0  0  0
  -27.7454  -28.8023   14.1429 O   0  0  0  0  0  0  0  0  0  0  0  0
  -31.9254  -14.8270   20.2335 O   0  0  0  0  0  0  0  0  0  0  0  0
  -21.5529   -7.0096   21.4032 O   0  0  0  0  0  0  0  0  0  0  0  0
  -29.5412  -23.3529   17.8077 O   0  0  0  0  0  0  0  0  0  1  0  0
  -16.2872   -7.1470   19.7731 F   0  0  0  0  0  0  0  0  0  0  0  0
  -20.6279   -5.2873   19.4486 F   0  0  0  0  0  0  0  0  0  0  0  0
  1  2  1  0  0  0  0
  1  5  2  0  0  0  0
  2  6  2  0  0  0  0
  3  8  2  0  0  0  0
  3 15  1  0  0  0  0
  4  9  1  0  0  0  0
  4 15  2  0  0  0  0
  5 17  1  0  0  0  0
  6 19  1  0  0  0  0
  7 10  2  0  0  0  0
  7 18  1  0  0  0  0
  8 21  1  0  0  0  0
  9 21  2  0  0  0  0
 10 22  1  0  0  0  0
 11 12  2  0  0  0  0
 11 23  1  0  0  0  0
 12 24  1  0  0  0  0
 13 20  1  0  0  0  0
 13 22  2  0  0  0  0
 14 24  2  0  0  0  0
 14 25  1  0  0  0  0
 15 26  1  0  0  0  0
 16 26  1  0  0  0  0
 16 29  2  0  0  0  0
 16 31  1  0  0  0  0
 17 19  2  0  0  0  0
 17 36  1  0  0  0  0
 18 20  2  0  0  0  0
 18 37  1  0  0  0  0
 19 45  1  0  0  0  0
 20 38  1  0  0  0  0
 21 80  1  0  0  0  0
 22 81  1  0  0  0  0
 23 25  2  0  0  0  0
 23 80  1  0  0  0  0
 24 82  1  0  0  0  0
 25 83  1  0  0  0  0
 26 63  2  0  0  0  0
 27 28  2  0  0  0  0
 27 48  1  0  0  0  0
 27 64  1  0  0  0  0
 28 55  1  0  0  0  0
 28 65  1  0  0  0  0
 29 66  1  0  0  0  0
 29 69  1  0  0  0  0
 30 56  1  0  0  0  0
 30 64  2  0  0  0  0
 30 65  1  0  0  0  0
 31 70  1  0  0  0  0
 31 75  2  0  0  0  0
 32 46  1  0  0  0  0
 32 71  1  0  0  0  0
 32 76  2  0  0  0  0
 33 60  1  0  0  0  0
 33 67  1  0  0  0  0
 33 77  2  0  0  0  0
 34 61  1  0  0  0  0
 34 72  1  0  0  0  0
 34 78  2  0  0  0  0
 35 68  1  0  0  0  0
 35 73  1  0  0  0  0
 35 79  2  0  0  0  0
 36 39  1  0  0  0  0
 37 46  1  0  0  0  0
 38 67  1  0  0  0  0
 39 41  1  0  0  0  0
 40 42  1  0  0  0  0
 40 43  1  0  0  0  0
 41 45  1  0  0  0  0
 42 47  1  0  0  0  0
 43 68  1  0  0  0  0
 44 47  1  0  0  0  0
 44 68  1  0  0  0  0
 45 71  1  0  0  0  0
 46 67  1  0  0  0  0
 47 66  1  0  0  0  0
 49 61  1  0  0  0  0
 50 62  1  0  0  0  0
 51 62  1  0  0  0  0
 52 62  1  0  0  0  0
 53 65  1  0  0  0  0
 54 74  1  0  0  0  0
 55 57  1  0  0  0  0
 56 59  1  0  0  0  0
 57 58  1  0  0  0  0
 58 73  1  0  0  0  0
 59 81  1  0  0  0  0
 60 62  1  0  0  0  0
 60 72  1  0  0  0  0
 61 74  1  0  0  0  0
 63 66  1  0  0  0  0
M  CHG  1  74   1
M  ISO  4  35 100  59 101  73 100  81 101
M  END
> <Batch ID>
0041

> <Smiles>
CNC(C)C(=O)NC(C(=O)N1Cc2cc([101O:1][101CH2:1]Cc3nc(C)c(CCC[100NH:0][100C:0](=O)N4CCCC(n5nc(-c6ccc(Oc7ccc(F)cc7F)cc6)c(C(N)=O)c5N)C4)n3C)ccc2CC1C(=O)NC1CCCc2ccccc21)C(C)(C)C

> <Shape>
0.299

> <Color>
0.188

> <Negative vol penalty>
0.000

$$$$

  -OEChem-04052317093D

 85 93  0     1  0  0  0  0  0999 V2000
  -29.3477  -22.0970   10.6433 C   0  0  0  0  0  0  0  0  0  0  0  0
  -29.0251  -21.2146   11.6693 C   0  0  0  0  0  0  0  0  0  0  0  0
  -29.3962  -26.7421   18.7845 C   0  0  0  0  0  0  0  0  0  0  0  0
  -28.3997  -25.8914   20.8144 C   0  0  0  0  0  0  0  0  0  0  0  0
  -28.7968  -23.3777   10.6279 C   0  0  0  0  0  0  0  0  0  0  0  0
  -28.1523  -21.6129   12.6812 C   0  0  0  0  0  0  0  0  0  0  0  0
  -24.0765  -18.1096   15.6173 C   0  0  0  0  0  0  0  0  0  0  0  0
  -28.7276  -27.9531   18.9637 C   0  0  0  0  0  0  0  0  0  0  0  0
  -27.7311  -27.1024   20.9937 C   0  0  0  0  0  0  0  0  0  0  0  0
  -24.1132  -17.4610   16.8510 C   0  0  0  0  0  0  0  0  0  0  0  0
  -24.9849  -28.6389   19.7572 C   0  0  0  0  0  0  0  0  0  0  0  0
  -23.6371  -28.5886   20.1125 C   0  0  0  0  0  0  0  0  0  0  0  0
  -22.9636  -19.3268   17.8592 C   0  0  0  0  0  0  0  0  0  0  0  0
  -24.1291  -29.7908   22.1496 C   0  0  0  0  0  0  0  0  0  0  0  0
  -25.1178  -13.4201   21.7993 C   0  0  0  0  0  0  0  0  0  0  0  0
  -29.2322  -25.7112   19.7098 C   0  0  0  0  0  0  0  0  0  0  0  0
  -31.1988  -24.1137   20.0067 C   0  0  0  0  0  0  0  0  0  0  0  0
  -27.9092  -23.7885   11.6348 C   0  0  0  0  0  0  0  0  0  0  0  0
  -23.4918  -19.3785   15.4974 C   0  0  0  0  0  0  0  0  0  0  0  0
  -27.5900  -22.9007   12.6800 C   0  0  0  0  0  0  0  0  0  0  0  0
  -22.9185  -19.9882   16.6224 C   0  0  0  0  0  0  0  0  0  0  0  0
  -25.9322  -14.1803   20.9843 C   0  0  0  0  0  0  0  0  0  0  0  0
  -26.5184  -13.5603   19.8949 C   0  0  0  0  0  0  0  0  0  0  0  0
  -27.8951  -28.1332   20.0683 C   0  0  0  0  0  0  0  0  0  0  0  0
  -23.5593  -18.0709   17.9727 C   0  0  0  0  0  0  0  0  0  0  0  0
  -25.9050  -29.2651   20.5982 C   0  0  0  0  0  0  0  0  0  0  0  0
  -23.2091  -29.1645   21.3087 C   0  0  0  0  0  0  0  0  0  0  0  0
  -25.4770  -29.8410   21.7943 C   0  0  0  0  0  0  0  0  0  0  0  0
  -29.9221  -24.4599   19.5249 C   0  0  0  0  0  0  0  0  0  0  0  0
  -26.2515  -12.2211   19.6927 C   0  0  0  0  0  0  0  0  0  0  0  0
  -31.3953  -22.8280   19.5654 C   0  0  0  0  0  0  0  0  0  0  0  0
  -32.1242  -24.8853   20.7839 C   0  0  0  0  0  0  0  0  0  0  0  0
  -24.5398  -22.2616   14.6651 C   0  0  0  0  0  0  0  0  0  0  0  0
  -21.3987  -23.0400   14.8889 C   0  0  0  0  0  0  0  0  0  0  0  0
  -18.3298  -22.3489   16.2121 C   0  0  0  0  0  0  0  0  0  0  0  0
  -29.5977  -17.7036   18.8901 C   0  0  0  0  0  0  0  0  0  0  0  0
  -27.3759  -25.1989   11.6013 C   0  0  0  0  0  0  0  0  0  0  0  0
  -23.4364  -20.0531   14.1542 C   0  0  0  0  0  0  0  0  0  0  0  0
  -22.2609  -21.3408   16.5426 C   0  0  0  0  0  0  0  0  0  0  0  0
  -26.1667  -25.4146   12.5078 C   0  0  0  0  0  0  0  0  0  0  0  0
  -28.7717  -20.0434   16.2557 C   0  0  0  0  0  0  0  0  0  0  0  0
  -26.4144  -24.8025   13.8829 C   0  0  0  0  0  0  0  0  0  0  0  0
  -29.1067  -21.3801   16.9200 C   0  0  0  0  0  0  0  0  0  0  0  0
  -28.1608  -19.0667   17.2561 C   0  0  0  0  0  0  0  0  0  0  0  0
  -29.3315  -20.1558   19.1315 C   0  0  0  0  0  0  0  0  0  0  0  0
  -26.6276  -23.2873   13.7820 C   0  0  1  0  0  0  0  0  0  0  0  0
  -23.2732  -21.5668   14.2521 C   0  0  1  0  0  0  0  0  0  0  0  0
  -29.9735  -21.1793   18.1772 C   0  0  2  0  0  0  0  0  0  0  0  0
  -26.1879  -10.1267   18.3158 C   0  0  0  0  0  0  0  0  0  0  0  0
  -15.9637  -23.1844   16.2413 C   0  0  0  0  0  0  0  0  0  0  0  0
  -22.2200  -25.2923   16.7763 C   0  0  0  0  0  0  0  0  0  0  0  0
  -19.8288  -25.4655   17.4979 C   0  0  0  0  0  0  0  0  0  0  0  0
  -20.4484  -25.9106   15.1229 C   0  0  0  0  0  0  0  0  0  0  0  0
  -17.3033  -19.8300   15.0457 C   0  0  0  0  0  0  0  0  0  0  0  0
  -26.1597  -15.6386   21.2927 C   0  0  0  0  0  0  0  0  0  0  0  0
  -27.4100  -14.3182   18.9700 C   0  0  0  0  0  0  0  0  0  0  0  0
  -26.8472  -11.4849   18.5402 C   0  0  0  0  0  0  0  0  0  0  0  0
  -24.9810  -16.5389   20.9163 C   0  0  0  0  0  0  0  0  0  0  0  0
  -28.8452  -14.5239   19.4933 C   0  0  0  0  0  0  0  0  0  0  0  0
  -29.7694  -15.2556   18.5224 C   0  0  0  0  0  0  0  0  0  0  0  0
  -24.6924  -16.5615   19.4198 C   0  0  0  0  0  0  0  0  0  1  0  0
  -20.4964  -23.5371   15.9924 C   0  0  1  0  0  0  0  0  0  0  0  0
  -16.9568  -22.2469   15.5725 C   0  0  2  0  0  0  0  0  0  0  0  0
  -20.7625  -25.0267   16.3496 C   0  0  0  0  0  0  0  0  0  0  0  0
  -24.8742  -12.1110   21.5775 N   0  0  0  0  0  0  0  0  0  0  0  0
  -29.3482  -23.4737   18.8305 N   0  0  0  0  0  0  0  0  0  0  0  0
  -25.4506  -11.5017   20.5069 N   0  0  0  0  0  0  0  0  0  0  0  0
  -30.2685  -22.4953   18.8727 N   0  0  0  0  0  0  0  0  0  0  0  0
  -22.2375  -21.9629   15.2085 N   0  0  0  0  0  0  0  0  0  0  0  0
  -29.0436  -18.9058   18.4202 N   0  0  0  0  0  0  0  0  0  0  0  0
  -32.4204  -21.9609   19.7061 N   0  0  0  0  0  0  0  0  0  0  0  0
  -31.7634  -26.1886   21.1521 N   0  0  0  0  0  0  0  0  0  0  0  0
  -25.3609  -22.6091   13.6094 N   0  0  0  0  0  0  0  0  0  0  0  0
  -19.1311  -23.2612   15.5587 N   0  0  0  0  0  0  0  0  0  0  0  0
  -29.2704  -16.5648   18.1644 N   0  0  0  0  0  0  0  0  0  0  0  0
  -16.4364  -20.8548   15.6823 N   0  3  0  0  0  0  0  0  0  0  0  0
  -33.2448  -24.4383   21.1272 O   0  0  0  0  0  0  0  0  0  0  0  0
  -24.7554  -22.4687   15.8535 O   0  0  0  0  0  0  0  0  0  0  0  0
  -21.3556  -23.5826   13.7819 O   0  0  0  0  0  0  0  0  0  0  0  0
  -18.6573  -21.6883   17.1954 O   0  0  0  0  0  0  0  0  0  0  0  0
  -30.3346  -17.6495   19.8807 O   0  0  0  0  0  0  0  0  0  0  0  0
  -27.2427  -29.3149   20.2437 O   0  0  0  0  0  0  0  0  0  0  0  0
  -23.5944  -17.4404   19.1782 O   0  0  0  0  0  0  0  0  0  1  0  0
  -21.9145  -29.1175   21.6489 F   0  0  0  0  0  0  0  0  0  0  0  0
  -26.3560  -30.4450   22.6057 F   0  0  0  0  0  0  0  0  0  0  0  0
  1  2  1  0  0  0  0
  1  5  2  0  0  0  0
  2  6  2  0  0  0  0
  3  8  2  0  0  0  0
  3 16  1  0  0  0  0
  4  9  1  0  0  0  0
  4 16  2  0  0  0  0
  5 18  1  0  0  0  0
  6 20  1  0  0  0  0
  7 10  2  0  0  0  0
  7 19  1  0  0  0  0
  8 24  1  0  0  0  0
  9 24  2  0  0  0  0
 10 25  1  0  0  0  0
 11 12  2  0  0  0  0
 11 26  1  0  0  0  0
 12 27  1  0  0  0  0
 13 21  1  0  0  0  0
 13 25  2  0  0  0  0
 14 27  2  0  0  0  0
 14 28  1  0  0  0  0
 15 22  2  0  0  0  0
 15 65  1  0  0  0  0
 16 29  1  0  0  0  0
 17 29  1  0  0  0  0
 17 31  2  0  0  0  0
 17 32  1  0  0  0  0
 18 20  2  0  0  0  0
 18 37  1  0  0  0  0
 19 21  2  0  0  0  0
 19 38  1  0  0  0  0
 20 46  1  0  0  0  0
 21 39  1  0  0  0  0
 22 23  1  0  0  0  0
 22 55  1  0  0  0  0
 23 30  2  0  0  0  0
 23 56  1  0  0  0  0
 24 82  1  0  0  0  0
 25 83  1  0  0  0  0
 26 28  2  0  0  0  0
 26 82  1  0  0  0  0
 27 84  1  0  0  0  0
 28 85  1  0  0  0  0
 29 66  2  0  0  0  0
 30 57  1  0  0  0  0
 30 67  1  0  0  0  0
 31 68  1  0  0  0  0
 31 71  1  0  0  0  0
 32 72  1  0  0  0  0
 32 77  2  0  0  0  0
 33 47  1  0  0  0  0
 33 73  1  0  0  0  0
 33 78  2  0  0  0  0
 34 62  1  0  0  0  0
 34 69  1  0  0  0  0
 34 79  2  0  0  0  0
 35 63  1  0  0  0  0
 35 74  1  0  0  0  0
 35 80  2  0  0  0  0
 36 70  1  0  0  0  0
 36 75  1  0  0  0  0
 36 81  2  0  0  0  0
 37 40  1  0  0  0  0
 38 47  1  0  0  0  0
 39 69  1  0  0  0  0
 40 42  1  0  0  0  0
 41 43  1  0  0  0  0
 41 44  1  0  0  0  0
 42 46  1  0  0  0  0
 43 48  1  0  0  0  0
 44 70  1  0  0  0  0
 45 48  1  0  0  0  0
 45 70  1  0  0  0  0
 46 73  1  0  0  0  0
 47 69  1  0  0  0  0
 48 68  1  0  0  0  0
 49 57  1  0  0  0  0
 50 63  1  0  0  0  0
 51 64  1  0  0  0  0
 52 64  1  0  0  0  0
 53 64  1  0  0  0  0
 54 76  1  0  0  0  0
 55 58  1  0  0  0  0
 56 59  1  0  0  0  0
 58 61  1  0  0  0  0
 59 60  1  0  0  0  0
 60 75  1  0  0  0  0
 61 83  1  0  0  0  0
 62 64  1  0  0  0  0
 62 74  1  0  0  0  0
 63 76  1  0  0  0  0
 65 67  2  0  0  0  0
 66 68  1  0  0  0  0
M  CHG  1  76   1
M  ISO  4  36 100  61 101  75 100  83 101
M  END
> <Batch ID>
0041

> <Smiles>
CCc1nncc(CC[101CH2:1][101O:1]c2ccc3c(c2)CN(C(=O)C(NC(=O)C(C)NC)C(C)(C)C)C(C(=O)NC2CCCc4ccccc42)C3)c1CCC[100NH:0][100C:0](=O)N1CCCC(n2nc(-c3ccc(Oc4ccc(F)cc4F)cc3)c(C(N)=O)c2N)C1

> <Shape>
0.170

> <Color>
0.071

> <Negative vol penalty>
0.000

$$$$

  -OEChem-04052317093D

 87 95  0     1  0  0  0  0  0999 V2000
  -31.1818  -11.8558   22.6218 C   0  0  0  0  0  0  0  0  0  0  0  0
  -30.9819  -13.2189   22.8155 C   0  0  0  0  0  0  0  0  0  0  0  0
  -29.8252  -28.6377   20.6157 C   0  0  0  0  0  0  0  0  0  0  0  0
  -27.8582  -27.4122   19.9328 C   0  0  0  0  0  0  0  0  0  0  0  0
  -30.5648  -11.2069   21.5532 C   0  0  0  0  0  0  0  0  0  0  0  0
  -30.1656  -13.9340   21.9399 C   0  0  0  0  0  0  0  0  0  0  0  0
  -26.5051  -18.6415   23.3347 C   0  0  0  0  0  0  0  0  0  0  0  0
  -30.6275  -27.5623   20.2345 C   0  0  0  0  0  0  0  0  0  0  0  0
  -28.6605  -26.3368   19.5516 C   0  0  0  0  0  0  0  0  0  0  0  0
  -26.6659  -20.0215   23.2178 C   0  0  0  0  0  0  0  0  0  0  0  0
  -30.2799  -23.7797   21.0582 C   0  0  0  0  0  0  0  0  0  0  0  0
  -29.8732  -22.5008   21.4388 C   0  0  0  0  0  0  0  0  0  0  0  0
  -25.4967  -19.9730   21.1084 C   0  0  0  0  0  0  0  0  0  0  0  0
  -29.7537  -21.8476   19.1158 C   0  0  0  0  0  0  0  0  0  0  0  0
  -28.4405  -28.5627   20.4649 C   0  0  0  0  0  0  0  0  0  0  0  0
  -27.6553  -30.9874   20.3568 C   0  0  0  0  0  0  0  0  0  0  0  0
  -29.7328  -11.9125   20.6697 C   0  0  0  0  0  0  0  0  0  0  0  0
  -25.8473  -17.9142   22.3324 C   0  0  0  0  0  0  0  0  0  0  0  0
  -29.5379  -13.2942   20.8577 C   0  0  0  0  0  0  0  0  0  0  0  0
  -25.3266  -18.5842   21.2161 C   0  0  0  0  0  0  0  0  0  0  0  0
  -30.0452  -26.4118   19.7025 C   0  0  0  0  0  0  0  0  0  0  0  0
  -26.1642  -20.6870   22.1031 C   0  0  0  0  0  0  0  0  0  0  0  0
  -30.4233  -24.0925   19.7064 C   0  0  0  0  0  0  0  0  0  0  0  0
  -29.6101  -21.5348   20.4676 C   0  0  0  0  0  0  0  0  0  0  0  0
  -30.1603  -23.1264   18.7353 C   0  0  0  0  0  0  0  0  0  0  0  0
  -27.6111  -29.6730   20.8589 C   0  0  0  0  0  0  0  0  0  0  0  0
  -22.9614  -23.9596   20.7486 C   0  0  0  0  0  0  0  0  0  0  0  0
  -21.9279  -24.2997   21.5933 C   0  0  0  0  0  0  0  0  0  0  0  0
  -23.4193  -24.5846   23.3034 C   0  0  0  0  0  0  0  0  0  0  0  0
  -24.4527  -24.2437   22.4587 C   0  0  0  0  0  0  0  0  0  0  0  0
  -26.6740  -31.6530   21.0499 C   0  0  0  0  0  0  0  0  0  0  0  0
  -28.5073  -31.5559   19.3535 C   0  0  0  0  0  0  0  0  0  0  0  0
  -26.6788  -15.5777   20.3441 C   0  0  0  0  0  0  0  0  0  0  0  0
  -23.5259  -15.6313   19.5833 C   0  0  0  0  0  0  0  0  0  0  0  0
  -20.6025  -17.3884   19.4695 C   0  0  0  0  0  0  0  0  0  0  0  0
  -21.6690  -29.8358   23.7883 C   0  0  0  0  0  0  0  0  0  0  0  0
  -29.1251  -11.1774   19.5014 C   0  0  0  0  0  0  0  0  0  0  0  0
  -25.6586  -16.4299   22.4863 C   0  0  0  0  0  0  0  0  0  0  0  0
  -24.5947  -17.8523   20.1220 C   0  0  0  0  0  0  0  0  0  0  0  0
  -27.9758  -11.9319   18.8381 C   0  0  0  0  0  0  0  0  0  0  0  0
  -24.3792  -31.6247   25.2480 C   0  0  0  0  0  0  0  0  0  0  0  0
  -28.3551  -13.3922   18.6133 C   0  0  0  0  0  0  0  0  0  0  0  0
  -25.5188  -31.4460   24.2434 C   0  0  0  0  0  0  0  0  0  0  0  0
  -23.5155  -30.3696   25.3509 C   0  0  0  0  0  0  0  0  0  0  0  0
  -24.1282  -29.6946   23.0612 C   0  0  0  0  0  0  0  0  0  0  0  0
  -28.6397  -14.0994   19.9439 C   0  0  1  0  0  0  0  0  0  0  0  0
  -25.4236  -15.7166   21.1583 C   0  0  1  0  0  0  0  0  0  0  0  0
  -24.9936  -30.9536   22.8814 C   0  0  2  0  0  0  0  0  0  0  0  0
  -22.7156  -23.6088   19.3210 C   0  0  0  0  0  0  0  0  0  0  0  0
  -22.3788  -24.9681   25.5521 C   0  0  0  0  0  0  0  0  0  0  0  0
  -18.2042  -17.1784   18.7612 C   0  0  0  0  0  0  0  0  0  0  0  0
  -24.3635  -15.9372   16.6652 C   0  0  0  0  0  0  0  0  0  0  0  0
  -22.0257  -16.6654   16.1431 C   0  0  0  0  0  0  0  0  0  0  0  0
  -22.4458  -14.3767   17.0421 C   0  0  0  0  0  0  0  0  0  0  0  0
  -19.6272  -17.8493   22.2255 C   0  0  0  0  0  0  0  0  0  0  0  0
  -23.6656  -24.9357   24.7308 C   0  0  0  0  0  0  0  0  0  0  0  0
  -20.5152  -24.3324   21.1189 C   0  0  0  0  0  0  0  0  0  0  0  0
  -25.8832  -24.2093   22.9393 C   0  0  0  0  0  0  0  0  0  0  0  0
  -19.6839  -25.4056   21.8387 C   0  0  0  0  0  0  0  0  0  0  0  0
  -20.2320  -26.8122   21.5888 C   0  0  0  0  0  0  0  0  0  0  0  0
  -19.4180  -27.8675   22.3434 C   0  0  0  0  0  0  0  0  0  0  0  0
  -19.9309  -29.2839   22.1049 C   0  0  0  0  0  0  0  0  0  0  0  0
  -26.3745  -22.7888   23.1959 C   0  0  0  0  0  0  0  0  0  1  0  0
  -22.6819  -16.3732   18.5752 C   0  0  1  0  0  0  0  0  0  0  0  0
  -19.1937  -17.0292   19.9064 C   0  0  2  0  0  0  0  0  0  0  0  0
  -22.8947  -15.8519   17.1259 C   0  0  0  0  0  0  0  0  0  0  0  0
  -26.6757  -29.5112   21.7986 N   0  0  0  0  0  0  0  0  0  0  0  0
  -24.2424  -23.9254   21.1661 N   0  0  0  0  0  0  0  0  0  0  0  0
  -22.1383  -24.6184   22.8859 N   0  0  0  0  0  0  0  0  0  0  0  0
  -26.1232  -30.7327   21.8925 N   0  0  0  0  0  0  0  0  0  0  0  0
  -24.4413  -16.4009   20.3152 N   0  0  0  0  0  0  0  0  0  0  0  0
  -23.0482  -29.9562   24.0255 N   0  0  0  0  0  0  0  0  0  0  0  0
  -26.2371  -32.9298   21.0148 N   0  0  0  0  0  0  0  0  0  0  0  0
  -28.0848  -31.5168   18.0177 N   0  0  0  0  0  0  0  0  0  0  0  0
  -27.4011  -14.4313   20.6149 N   0  0  0  0  0  0  0  0  0  0  0  0
  -21.3048  -16.2793   19.0478 N   0  0  0  0  0  0  0  0  0  0  0  0
  -21.3114  -29.4452   22.5036 N   0  0  0  0  0  0  0  0  0  0  0  0
  -18.7565  -17.9134   21.0235 N   0  3  0  0  0  0  0  0  0  0  0  0
  -29.6181  -32.0683   19.6313 O   0  0  0  0  0  0  0  0  0  0  0  0
  -26.9696  -16.4457   19.5293 O   0  0  0  0  0  0  0  0  0  0  0  0
  -23.3735  -14.4151   19.7214 O   0  0  0  0  0  0  0  0  0  0  0  0
  -21.0352  -18.5384   19.4960 O   0  0  0  0  0  0  0  0  0  0  0  0
  -20.8190  -30.0648   24.6555 O   0  0  0  0  0  0  0  0  0  0  0  0
  -30.8279  -25.3623   19.3302 O   0  0  0  0  0  0  0  0  0  0  0  0
  -26.3203  -22.0338   21.9862 O   0  0  0  0  0  0  0  0  0  1  0  0
  -29.2212  -20.3063   20.8333 F   0  0  0  0  0  0  0  0  0  0  0  0
  -30.2975  -23.4207   17.4351 F   0  0  0  0  0  0  0  0  0  0  0  0
  1  2  1  0  0  0  0
  1  5  2  0  0  0  0
  2  6  2  0  0  0  0
  3  8  2  0  0  0  0
  3 15  1  0  0  0  0
  4  9  1  0  0  0  0
  4 15  2  0  0  0  0
  5 17  1  0  0  0  0
  6 19  1  0  0  0  0
  7 10  2  0  0  0  0
  7 18  1  0  0  0  0
  8 21  1  0  0  0  0
  9 21  2  0  0  0  0
 10 22  1  0  0  0  0
 11 12  2  0  0  0  0
 11 23  1  0  0  0  0
 12 24  1  0  0  0  0
 13 20  1  0  0  0  0
 13 22  2  0  0  0  0
 14 24  2  0  0  0  0
 14 25  1  0  0  0  0
 15 26  1  0  0  0  0
 16 26  1  0  0  0  0
 16 31  2  0  0  0  0
 16 32  1  0  0  0  0
 17 19  2  0  0  0  0
 17 37  1  0  0  0  0
 18 20  2  0  0  0  0
 18 38  1  0  0  0  0
 19 46  1  0  0  0  0
 20 39  1  0  0  0  0
 21 84  1  0  0  0  0
 22 85  1  0  0  0  0
 23 25  2  0  0  0  0
 23 84  1  0  0  0  0
 24 86  1  0  0  0  0
 25 87  1  0  0  0  0
 26 67  2  0  0  0  0
 27 28  1  0  0  0  0
 27 49  1  0  0  0  0
 27 68  2  0  0  0  0
 28 57  1  0  0  0  0
 28 69  2  0  0  0  0
 29 30  2  0  0  0  0
 29 56  1  0  0  0  0
 29 69  1  0  0  0  0
 30 58  1  0  0  0  0
 30 68  1  0  0  0  0
 31 70  1  0  0  0  0
 31 73  1  0  0  0  0
 32 74  1  0  0  0  0
 32 79  2  0  0  0  0
 33 47  1  0  0  0  0
 33 75  1  0  0  0  0
 33 80  2  0  0  0  0
 34 64  1  0  0  0  0
 34 71  1  0  0  0  0
 34 81  2  0  0  0  0
 35 65  1  0  0  0  0
 35 76  1  0  0  0  0
 35 82  2  0  0  0  0
 36 72  1  0  0  0  0
 36 77  1  0  0  0  0
 36 83  2  0  0  0  0
 37 40  1  0  0  0  0
 38 47  1  0  0  0  0
 39 71  1  0  0  0  0
 40 42  1  0  0  0  0
 41 43  1  0  0  0  0
 41 44  1  0  0  0  0
 42 46  1  0  0  0  0
 43 48  1  0  0  0  0
 44 72  1  0  0  0  0
 45 48  1  0  0  0  0
 45 72  1  0  0  0  0
 46 75  1  0  0  0  0
 47 71  1  0  0  0  0
 48 70  1  0  0  0  0
 50 56  1  0  0  0  0
 51 65  1  0  0  0  0
 52 66  1  0  0  0  0
 53 66  1  0  0  0  0
 54 66  1  0  0  0  0
 55 78  1  0  0  0  0
 57 59  1  0  0  0  0
 58 63  1  0  0  0  0
 59 60  1  0  0  0  0
 60 61  1  0  0  0  0
 61 62  1  0  0  0  0
 62 77  1  0  0  0  0
 63 85  1  0  0  0  0
 64 66  1  0  0  0  0
 64 76  1  0  0  0  0
 65 78  1  0  0  0  0
 67 70  1  0  0  0  0
M  CHG  1  78   1
M  ISO  4  36 100  63 101  77 100  85 101
M  END
> <Batch ID>
0041

> <Smiles>
CCc1nc(CCCCC[100NH:0][100C:0](=O)N2CCCC(n3nc(-c4ccc(Oc5ccc(F)cc5F)cc4)c(C(N)=O)c3N)C2)c(C)nc1C[101CH2:1][101O:1]c1ccc2c(c1)CN(C(=O)C(NC(=O)C(C)NC)C(C)(C)C)C(C(=O)NC1CCCc3ccccc31)C2

> <Shape>
0.227

> <Color>
0.056

> <Negative vol penalty>
0.000

$$$$

  -OEChem-04052317093D

 82 90  0     1  0  0  0  0  0999 V2000
  -22.8733  -21.1855   15.7715 C   0  0  0  0  0  0  0  0  0  0  0  0
  -23.8307  -20.2581   15.3731 C   0  0  0  0  0  0  0  0  0  0  0  0
  -25.3596  -27.1828   20.7172 C   0  0  0  0  0  0  0  0  0  0  0  0
  -26.0485  -26.0461   22.7348 C   0  0  0  0  0  0  0  0  0  0  0  0
  -22.5520  -21.3178   17.1217 C   0  0  0  0  0  0  0  0  0  0  0  0
  -24.4682  -19.4632   16.3250 C   0  0  0  0  0  0  0  0  0  0  0  0
  -27.2763  -12.9265   17.1639 C   0  0  0  0  0  0  0  0  0  0  0  0
  -24.2466  -27.6935   21.3849 C   0  0  0  0  0  0  0  0  0  0  0  0
  -24.9354  -26.5569   23.4025 C   0  0  0  0  0  0  0  0  0  0  0  0
  -28.4509  -12.3049   17.5853 C   0  0  0  0  0  0  0  0  0  0  0  0
  -21.0301  -29.0048   22.4613 C   0  0  0  0  0  0  0  0  0  0  0  0
  -19.7994  -28.9537   21.8067 C   0  0  0  0  0  0  0  0  0  0  0  0
  -27.7580  -12.5651   19.8812 C   0  0  0  0  0  0  0  0  0  0  0  0
  -19.9628  -26.5461   21.6876 C   0  0  0  0  0  0  0  0  0  0  0  0
  -31.2416  -14.9381   19.6371 C   0  0  0  0  0  0  0  0  0  0  0  0
  -26.2606  -26.3591   21.3921 C   0  0  0  0  0  0  0  0  0  0  0  0
  -28.6847  -26.4199   20.5998 C   0  0  0  0  0  0  0  0  0  0  0  0
  -23.1789  -20.5174   18.0897 C   0  0  0  0  0  0  0  0  0  0  0  0
  -26.3372  -13.3827   18.1001 C   0  0  0  0  0  0  0  0  0  0  0  0
  -24.1560  -19.5858   17.6897 C   0  0  0  0  0  0  0  0  0  0  0  0
  -26.5711  -13.1900   19.4691 C   0  0  0  0  0  0  0  0  0  0  0  0
  -24.0344  -27.3806   22.7275 C   0  0  0  0  0  0  0  0  0  0  0  0
  -28.6933  -12.1267   18.9441 C   0  0  0  0  0  0  0  0  0  0  0  0
  -21.7272  -27.8266   22.7289 C   0  0  0  0  0  0  0  0  0  0  0  0
  -19.2658  -27.7244   21.4199 C   0  0  0  0  0  0  0  0  0  0  0  0
  -21.1935  -26.5973   22.3421 C   0  0  0  0  0  0  0  0  0  0  0  0
  -27.4103  -25.8307   20.7028 C   0  0  0  0  0  0  0  0  0  0  0  0
  -32.3249  -14.0958   19.9515 C   0  0  0  0  0  0  0  0  0  0  0  0
  -31.8268  -16.0970   19.1886 C   0  0  0  0  0  0  0  0  0  0  0  0
  -29.4147  -25.5301   19.8503 C   0  0  0  0  0  0  0  0  0  0  0  0
  -29.1655  -27.6605   21.1340 C   0  0  0  0  0  0  0  0  0  0  0  0
  -25.1316  -16.2221   18.8671 C   0  0  0  0  0  0  0  0  0  0  0  0
  -23.2117  -14.4524   20.7918 C   0  0  0  0  0  0  0  0  0  0  0  0
  -22.7302  -11.5558   22.5309 C   0  0  0  0  0  0  0  0  0  0  0  0
  -28.9035  -19.7012   19.0641 C   0  0  0  0  0  0  0  0  0  0  0  0
  -22.8327  -20.7295   19.5422 C   0  0  0  0  0  0  0  0  0  0  0  0
  -25.0626  -14.0274   17.6284 C   0  0  0  0  0  0  0  0  0  0  0  0
  -25.5852  -13.6434   20.5136 C   0  0  0  0  0  0  0  0  0  0  0  0
  -23.2835  -19.5872   20.4489 C   0  0  0  0  0  0  0  0  0  0  0  0
  -28.9106  -22.2018   16.4479 C   0  0  0  0  0  0  0  0  0  0  0  0
  -24.7221  -19.1907   20.1328 C   0  0  0  0  0  0  0  0  0  0  0  0
  -28.6453  -23.4790   17.2472 C   0  0  0  0  0  0  0  0  0  0  0  0
  -28.1184  -21.0244   17.0085 C   0  0  0  0  0  0  0  0  0  0  0  0
  -28.0869  -22.0333   19.2567 C   0  0  0  0  0  0  0  0  0  0  0  0
  -24.8515  -18.6881   18.6899 C   0  0  1  0  0  0  0  0  0  0  0  0
  -24.4143  -14.9142   18.6870 C   0  0  1  0  0  0  0  0  0  0  0  0
  -28.8763  -23.2555   18.7535 C   0  0  2  0  0  0  0  0  0  0  0  0
  -21.0807  -10.4146   24.0390 C   0  0  0  0  0  0  0  0  0  0  0  0
  -24.0926  -16.2390   23.1031 C   0  0  0  0  0  0  0  0  0  0  0  0
  -23.2005  -14.5148   24.6842 C   0  0  0  0  0  0  0  0  0  0  0  0
  -21.6583  -15.6657   23.0968 C   0  0  0  0  0  0  0  0  0  0  0  0
  -34.2166  -16.8156   18.8938 C   0  0  0  0  0  0  0  0  0  0  0  0
  -22.3624   -9.3189   20.6283 C   0  0  0  0  0  0  0  0  0  0  0  0
  -32.2683  -12.6898   20.4934 C   0  0  0  0  0  0  0  0  0  0  0  0
  -31.2336  -17.3590   18.7099 C   0  0  0  0  0  0  0  0  0  0  0  0
  -32.2363  -11.6120   19.4076 C   0  0  0  0  0  0  0  0  0  0  0  0
  -29.6934  -17.3749   18.7160 C   0  0  0  0  0  0  0  0  0  0  0  0
  -30.9914  -11.6755   18.5304 C   0  0  0  0  0  0  0  0  0  1  0  0
  -23.2928  -13.9510   22.2134 C   0  0  1  0  0  0  0  0  0  0  0  0
  -21.5450  -10.6100   22.6041 C   0  0  2  0  0  0  0  0  0  0  0  0
  -23.0807  -15.0857   23.2550 C   0  0  0  0  0  0  0  0  0  0  0  0
  -27.3319  -24.6575   20.0692 N   0  0  0  0  0  0  0  0  0  0  0  0
  -33.5085  -14.6705   19.7220 N   0  0  0  0  0  0  0  0  0  0  0  0
  -33.1725  -15.8864   19.2586 N   0  0  0  0  0  0  0  0  0  0  0  0
  -28.5662  -24.5023   19.5609 N   0  0  0  0  0  0  0  0  0  0  0  0
  -24.3569  -14.2740   20.0027 N   0  0  0  0  0  0  0  0  0  0  0  0
  -28.3975  -20.8543   18.4414 N   0  0  0  0  0  0  0  0  0  0  0  0
  -30.6933  -25.5345   19.4171 N   0  0  0  0  0  0  0  0  0  0  0  0
  -28.2833  -28.4531   21.8808 N   0  0  0  0  0  0  0  0  0  0  0  0
  -24.3591  -17.3316   18.5811 N   0  0  0  0  0  0  0  0  0  0  0  0
  -22.3317  -12.8582   22.3162 N   0  0  0  0  0  0  0  0  0  0  0  0
  -29.1646  -18.6270   18.2224 N   0  0  0  0  0  0  0  0  0  0  0  0
  -21.9095   -9.2785   22.0426 N   0  3  0  0  0  0  0  0  0  0  0  0
  -30.3380  -28.0623   20.9405 O   0  0  0  0  0  0  0  0  0  0  0  0
  -26.2991  -16.2246   19.2395 O   0  0  0  0  0  0  0  0  0  0  0  0
  -22.1683  -14.9764   20.3939 O   0  0  0  0  0  0  0  0  0  0  0  0
  -23.8929  -11.1776   22.6557 O   0  0  0  0  0  0  0  0  0  0  0  0
  -29.1123  -19.6355   20.2803 O   0  0  0  0  0  0  0  0  0  0  0  0
  -22.9485  -27.8789   23.3795 O   0  0  0  0  0  0  0  0  0  0  0  0
  -29.8393  -11.5207   19.3581 O   0  0  0  0  0  0  0  0  0  1  0  0
  -18.0832  -27.6753   20.7928 F   0  0  0  0  0  0  0  0  0  0  0  0
  -21.8580  -25.4619   22.5975 F   0  0  0  0  0  0  0  0  0  0  0  0
  1  2  1  0  0  0  0
  1  5  2  0  0  0  0
  2  6  2  0  0  0  0
  3  8  2  0  0  0  0
  3 16  1  0  0  0  0
  4  9  1  0  0  0  0
  4 16  2  0  0  0  0
  5 18  1  0  0  0  0
  6 20  1  0  0  0  0
  7 10  2  0  0  0  0
  7 19  1  0  0  0  0
  8 22  1  0  0  0  0
  9 22  2  0  0  0  0
 10 23  1  0  0  0  0
 11 12  2  0  0  0  0
 11 24  1  0  0  0  0
 12 25  1  0  0  0  0
 13 21  1  0  0  0  0
 13 23  2  0  0  0  0
 14 25  2  0  0  0  0
 14 26  1  0  0  0  0
 15 28  1  0  0  0  0
 15 29  2  0  0  0  0
 16 27  1  0  0  0  0
 17 27  1  0  0  0  0
 17 30  2  0  0  0  0
 17 31  1  0  0  0  0
 18 20  2  0  0  0  0
 18 36  1  0  0  0  0
 19 21  2  0  0  0  0
 19 37  1  0  0  0  0
 20 45  1  0  0  0  0
 21 38  1  0  0  0  0
 22 79  1  0  0  0  0
 23 80  1  0  0  0  0
 24 26  2  0  0  0  0
 24 79  1  0  0  0  0
 25 81  1  0  0  0  0
 26 82  1  0  0  0  0
 27 62  2  0  0  0  0
 28 54  1  0  0  0  0
 28 63  2  0  0  0  0
 29 55  1  0  0  0  0
 29 64  1  0  0  0  0
 30 65  1  0  0  0  0
 30 68  1  0  0  0  0
 31 69  1  0  0  0  0
 31 74  2  0  0  0  0
 32 46  1  0  0  0  0
 32 70  1  0  0  0  0
 32 75  2  0  0  0  0
 33 59  1  0  0  0  0
 33 66  1  0  0  0  0
 33 76  2  0  0  0  0
 34 60  1  0  0  0  0
 34 71  1  0  0  0  0
 34 77  2  0  0  0  0
 35 67  1  0  0  0  0
 35 72  1  0  0  0  0
 35 78  2  0  0  0  0
 36 39  1  0  0  0  0
 37 46  1  0  0  0  0
 38 66  1  0  0  0  0
 39 41  1  0  0  0  0
 40 42  1  0  0  0  0
 40 43  1  0  0  0  0
 41 45  1  0  0  0  0
 42 47  1  0  0  0  0
 43 67  1  0  0  0  0
 44 47  1  0  0  0  0
 44 67  1  0  0  0  0
 45 70  1  0  0  0  0
 46 66  1  0  0  0  0
 47 65  1  0  0  0  0
 48 60  1  0  0  0  0
 49 61  1  0  0  0  0
 50 61  1  0  0  0  0
 51 61  1  0  0  0  0
 52 64  1  0  0  0  0
 53 73  1  0  0  0  0
 54 56  1  0  0  0  0
 55 57  1  0  0  0  0
 56 58  1  0  0  0  0
 57 72  1  0  0  0  0
 58 80  1  0  0  0  0
 59 61  1  0  0  0  0
 59 71  1  0  0  0  0
 60 73  1  0  0  0  0
 62 65  1  0  0  0  0
 63 64  1  0  0  0  0
M  CHG  1  73   1
M  ISO  4  35 100  58 101  72 100  80 101
M  END
> <Batch ID>
0041

> <Smiles>
CNC(C)C(=O)NC(C(=O)N1Cc2cc([101O:1][101CH2:1]CCc3cc(CC[100NH:0][100C:0](=O)N4CCCC(n5nc(-c6ccc(Oc7ccc(F)cc7F)cc6)c(C(N)=O)c5N)C4)n(C)n3)ccc2CC1C(=O)NC1CCCc2ccccc21)C(C)(C)C

> <Shape>
0.232

> <Color>
0.071

> <Negative vol penalty>
0.000

$$$$

  -OEChem-04052317093D

 87 95  0     1  0  0  0  0  0999 V2000
  -19.6753  -14.3985   19.4616 C   0  0  0  0  0  0  0  0  0  0  0  0
  -20.4783  -15.5345   19.4692 C   0  0  0  0  0  0  0  0  0  0  0  0
  -19.6622  -27.4400   21.1965 C   0  0  0  0  0  0  0  0  0  0  0  0
  -20.2424  -27.2336   23.5327 C   0  0  0  0  0  0  0  0  0  0  0  0
  -20.1227  -13.2260   20.0690 C   0  0  0  0  0  0  0  0  0  0  0  0
  -21.7288  -15.4990   20.0851 C   0  0  0  0  0  0  0  0  0  0  0  0
  -26.7876  -18.4651   18.3198 C   0  0  0  0  0  0  0  0  0  0  0  0
  -18.4342  -27.9987   21.5508 C   0  0  0  0  0  0  0  0  0  0  0  0
  -19.0144  -27.7923   23.8871 C   0  0  0  0  0  0  0  0  0  0  0  0
  -27.3760  -19.6539   18.7493 C   0  0  0  0  0  0  0  0  0  0  0  0
  -14.9972  -29.1482   21.8492 C   0  0  0  0  0  0  0  0  0  0  0  0
  -13.8586  -28.6878   21.1880 C   0  0  0  0  0  0  0  0  0  0  0  0
  -28.8377  -18.3990   20.2011 C   0  0  0  0  0  0  0  0  0  0  0  0
  -14.2906  -26.4536   21.9999 C   0  0  0  0  0  0  0  0  0  0  0  0
  -20.5663  -27.0574   22.1875 C   0  0  0  0  0  0  0  0  0  0  0  0
  -23.0424  -27.1625   21.5828 C   0  0  0  0  0  0  0  0  0  0  0  0
  -21.3834  -13.1732   20.6842 C   0  0  0  0  0  0  0  0  0  0  0  0
  -27.2132  -17.2330   18.8368 C   0  0  0  0  0  0  0  0  0  0  0  0
  -22.1930  -14.3250   20.7024 C   0  0  0  0  0  0  0  0  0  0  0  0
  -28.2549  -17.1958   19.7747 C   0  0  0  0  0  0  0  0  0  0  0  0
  -18.1103  -28.1748   22.8961 C   0  0  0  0  0  0  0  0  0  0  0  0
  -28.3992  -19.6212   19.6922 C   0  0  0  0  0  0  0  0  0  0  0  0
  -15.7826  -28.2613   22.5857 C   0  0  0  0  0  0  0  0  0  0  0  0
  -13.5053  -27.3405   21.2633 C   0  0  0  0  0  0  0  0  0  0  0  0
  -15.4292  -26.9141   22.6610 C   0  0  0  0  0  0  0  0  0  0  0  0
  -21.8347  -26.4797   21.8221 C   0  0  0  0  0  0  0  0  0  0  0  0
  -23.9414  -26.1715   21.2728 C   0  0  0  0  0  0  0  0  0  0  0  0
  -29.0614  -23.0072   23.2189 C   0  0  0  0  0  0  0  0  0  0  0  0
  -28.9082  -24.0023   21.2966 C   0  0  0  0  0  0  0  0  0  0  0  0
  -23.3261  -28.5669   21.6360 C   0  0  0  0  0  0  0  0  0  0  0  0
  -25.8368  -14.9061   20.5086 C   0  0  0  0  0  0  0  0  0  0  0  0
  -28.6648  -13.4000   20.0023 C   0  0  0  0  0  0  0  0  0  0  0  0
  -31.9997  -13.6505   19.3222 C   0  0  0  0  0  0  0  0  0  0  0  0
  -24.2024  -20.3400   22.6060 C   0  0  0  0  0  0  0  0  0  0  0  0
  -21.8041  -11.8970   21.3690 C   0  0  0  0  0  0  0  0  0  0  0  0
  -26.5865  -15.9578   18.3434 C   0  0  0  0  0  0  0  0  0  0  0  0
  -28.7620  -15.8976   20.3455 C   0  0  0  0  0  0  0  0  0  0  0  0
  -23.2987  -11.8331   21.6732 C   0  0  0  0  0  0  0  0  0  0  0  0
  -24.1758  -21.7940   19.3561 C   0  0  0  0  0  0  0  0  0  0  0  0
  -23.7725  -13.1410   22.2989 C   0  0  0  0  0  0  0  0  0  0  0  0
  -23.6818  -23.2214   19.5980 C   0  0  0  0  0  0  0  0  0  0  0  0
  -23.4839  -20.7933   20.2790 C   0  0  0  0  0  0  0  0  0  0  0  0
  -23.0638  -22.5489   21.9569 C   0  0  0  0  0  0  0  0  0  0  0  0
  -23.5660  -14.3187   21.3387 C   0  0  1  0  0  0  0  0  0  0  0  0
  -26.7482  -14.7961   19.3191 C   0  0  1  0  0  0  0  0  0  0  0  0
  -23.7734  -23.6015   21.0881 C   0  0  2  0  0  0  0  0  0  0  0  0
  -31.9904  -26.0537   18.2987 C   0  0  0  0  0  0  0  0  0  0  0  0
  -34.0566  -12.2480   19.0066 C   0  0  0  0  0  0  0  0  0  0  0  0
  -28.8381  -12.9795   23.0194 C   0  0  0  0  0  0  0  0  0  0  0  0
  -31.2705  -12.4582   22.7369 C   0  0  0  0  0  0  0  0  0  0  0  0
  -29.5525  -11.0131   21.6494 C   0  0  0  0  0  0  0  0  0  0  0  0
  -32.3654  -14.6049   16.5447 C   0  0  0  0  0  0  0  0  0  0  0  0
  -29.4998  -22.0642   24.2631 C   0  0  0  0  0  0  0  0  0  0  0  0
  -29.1503  -24.3316   19.8807 C   0  0  0  0  0  0  0  0  0  0  0  0
  -28.3800  -21.7186   25.2669 C   0  0  0  0  0  0  0  0  0  0  0  0
  -27.1881  -21.0317   24.5970 C   0  0  0  0  0  0  0  0  0  0  0  0
  -26.0770  -20.7362   25.6087 C   0  0  0  0  0  0  0  0  0  0  0  0
  -30.5876  -22.0552   21.3802 C   0  0  0  0  0  0  0  0  0  0  0  0
  -24.8778  -20.0387   24.9750 C   0  0  0  0  0  0  0  0  0  0  0  0
  -30.6586  -25.3393   18.3867 C   0  0  0  0  0  0  0  0  0  0  0  0
  -30.0177  -20.6728   21.0816 C   0  0  0  0  0  0  0  0  0  1  0  0
  -29.9842  -13.3293   20.7325 C   0  0  1  0  0  0  0  0  0  0  0  0
  -32.8807  -12.9258   18.3206 C   0  0  2  0  0  0  0  0  0  0  0  0
  -29.9007  -12.4698   22.0254 C   0  0  0  0  0  0  0  0  0  0  0  0
  -21.9524  -25.1573   21.6765 N   0  0  0  0  0  0  0  0  0  0  0  0
  -28.1723  -23.9669   23.3410 N   0  0  0  0  0  0  0  0  0  0  0  0
  -28.0749  -24.6001   22.1180 N   0  0  0  0  0  0  0  0  0  0  0  0
  -23.2447  -25.0010   21.3423 N   0  0  0  0  0  0  0  0  0  0  0  0
  -29.5504  -22.9933   21.9479 N   0  0  0  0  0  0  0  0  0  0  0  0
  -28.1130  -14.6782   19.8363 N   0  0  0  0  0  0  0  0  0  0  0  0
  -23.6089  -21.2111   21.6775 N   0  0  0  0  0  0  0  0  0  0  0  0
  -25.2521  -26.1958   20.9502 N   0  0  0  0  0  0  0  0  0  0  0  0
  -22.2874  -29.4462   21.9708 N   0  0  0  0  0  0  0  0  0  0  0  0
  -24.5956  -14.3282   20.3217 N   0  0  0  0  0  0  0  0  0  0  0  0
  -30.9634  -12.8539   19.7611 N   0  0  0  0  0  0  0  0  0  0  0  0
  -24.2873  -20.8163   23.9086 N   0  0  0  0  0  0  0  0  0  0  0  0
  -33.4139  -13.8839   17.3113 N   0  3  0  0  0  0  0  0  0  0  0  0
  -24.4630  -29.0298   21.3776 O   0  0  0  0  0  0  0  0  0  0  0  0
  -26.2311  -15.4721   21.5215 O   0  0  0  0  0  0  0  0  0  0  0  0
  -28.1465  -12.3601   19.5880 O   0  0  0  0  0  0  0  0  0  0  0  0
  -32.2119  -14.8063   19.6821 O   0  0  0  0  0  0  0  0  0  0  0  0
  -24.6301  -19.2229   22.2959 O   0  0  0  0  0  0  0  0  0  0  0  0
  -16.9122  -28.7201   23.2422 O   0  0  0  0  0  0  0  0  0  0  0  0
  -28.9747  -20.7801   20.1136 O   0  0  0  0  0  0  0  0  0  1  0  0
  -30.3996  -25.0098   19.7419 O   0  0  0  0  0  0  0  0  0  0  0  0
  -12.4110  -26.8988   20.6296 F   0  0  0  0  0  0  0  0  0  0  0  0
  -16.1791  -26.0576   23.3680 F   0  0  0  0  0  0  0  0  0  0  0  0
  1  2  1  0  0  0  0
  1  5  2  0  0  0  0
  2  6  2  0  0  0  0
  3  8  2  0  0  0  0
  3 15  1  0  0  0  0
  4  9  1  0  0  0  0
  4 15  2  0  0  0  0
  5 17  1  0  0  0  0
  6 19  1  0  0  0  0
  7 10  2  0  0  0  0
  7 18  1  0  0  0  0
  8 21  1  0  0  0  0
  9 21  2  0  0  0  0
 10 22  1  0  0  0  0
 11 12  2  0  0  0  0
 11 23  1  0  0  0  0
 12 24  1  0  0  0  0
 13 20  1  0  0  0  0
 13 22  2  0  0  0  0
 14 24  2  0  0  0  0
 14 25  1  0  0  0  0
 15 26  1  0  0  0  0
 16 26  1  0  0  0  0
 16 27  2  0  0  0  0
 16 30  1  0  0  0  0
 17 19  2  0  0  0  0
 17 35  1  0  0  0  0
 18 20  2  0  0  0  0
 18 36  1  0  0  0  0
 19 44  1  0  0  0  0
 20 37  1  0  0  0  0
 21 83  1  0  0  0  0
 22 84  1  0  0  0  0
 23 25  2  0  0  0  0
 23 83  1  0  0  0  0
 24 86  1  0  0  0  0
 25 87  1  0  0  0  0
 26 65  2  0  0  0  0
 27 68  1  0  0  0  0
 27 72  1  0  0  0  0
 28 53  1  0  0  0  0
 28 66  2  0  0  0  0
 28 69  1  0  0  0  0
 29 54  1  0  0  0  0
 29 67  2  0  0  0  0
 29 69  1  0  0  0  0
 30 73  1  0  0  0  0
 30 78  2  0  0  0  0
 31 45  1  0  0  0  0
 31 74  1  0  0  0  0
 31 79  2  0  0  0  0
 32 62  1  0  0  0  0
 32 70  1  0  0  0  0
 32 80  2  0  0  0  0
 33 63  1  0  0  0  0
 33 75  1  0  0  0  0
 33 81  2  0  0  0  0
 34 71  1  0  0  0  0
 34 76  1  0  0  0  0
 34 82  2  0  0  0  0
 35 38  1  0  0  0  0
 36 45  1  0  0  0  0
 37 70  1  0  0  0  0
 38 40  1  0  0  0  0
 39 41  1  0  0  0  0
 39 42  1  0  0  0  0
 40 44  1  0  0  0  0
 41 46  1  0  0  0  0
 42 71  1  0  0  0  0
 43 46  1  0  0  0  0
 43 71  1  0  0  0  0
 44 74  1  0  0  0  0
 45 70  1  0  0  0  0
 46 68  1  0  0  0  0
 47 60  1  0  0  0  0
 48 63  1  0  0  0  0
 49 64  1  0  0  0  0
 50 64  1  0  0  0  0
 51 64  1  0  0  0  0
 52 77  1  0  0  0  0
 53 55  1  0  0  0  0
 54 85  1  0  0  0  0
 55 56  1  0  0  0  0
 56 57  1  0  0  0  0
 57 59  1  0  0  0  0
 58 61  1  0  0  0  0
 58 69  1  0  0  0  0
 59 76  1  0  0  0  0
 60 85  1  0  0  0  0
 61 84  1  0  0  0  0
 62 64  1  0  0  0  0
 62 75  1  0  0  0  0
 63 77  1  0  0  0  0
 65 68  1  0  0  0  0
 66 67  1  0  0  0  0
M  CHG  1  77   1
M  ISO  4  34 100  61 101  76 100  84 101
M  END
> <Batch ID>
0041

> <Smiles>
CCOCc1nnc(CCCCC[100NH:0][100C:0](=O)N2CCCC(n3nc(-c4ccc(Oc5ccc(F)cc5F)cc4)c(C(N)=O)c3N)C2)n1C[101CH2:1][101O:1]c1ccc2c(c1)CN(C(=O)C(NC(=O)C(C)NC)C(C)(C)C)C(C(=O)NC1CCCc3ccccc31)C2

> <Shape>
0.220

> <Color>
0.073

> <Negative vol penalty>
0.000

$$$$

  -OEChem-04052317093D

 85 93  0     1  0  0  0  0  0999 V2000
  -18.0831  -31.2199   22.2644 C   0  0  0  0  0  0  0  0  0  0  0  0
  -19.4706  -31.3202   22.2650 C   0  0  0  0  0  0  0  0  0  0  0  0
  -27.0960  -18.2062   20.0925 C   0  0  0  0  0  0  0  0  0  0  0  0
  -29.4020  -17.7609   19.5259 C   0  0  0  0  0  0  0  0  0  0  0  0
  -17.4755  -29.9722   22.3990 C   0  0  0  0  0  0  0  0  0  0  0  0
  -20.2515  -30.1730   22.4013 C   0  0  0  0  0  0  0  0  0  0  0  0
  -25.6780  -29.0805   19.7812 C   0  0  0  0  0  0  0  0  0  0  0  0
  -26.7521  -16.9088   19.7128 C   0  0  0  0  0  0  0  0  0  0  0  0
  -29.0582  -16.4635   19.1462 C   0  0  0  0  0  0  0  0  0  0  0  0
  -26.9859  -29.1915   20.2513 C   0  0  0  0  0  0  0  0  0  0  0  0
  -28.8492  -12.9183   18.3675 C   0  0  0  0  0  0  0  0  0  0  0  0
  -29.6696  -11.8764   18.7997 C   0  0  0  0  0  0  0  0  0  0  0  0
  -26.9819  -26.8423   20.7992 C   0  0  0  0  0  0  0  0  0  0  0  0
  -35.8018  -27.0473   21.6785 C   0  0  0  0  0  0  0  0  0  0  0  0
  -29.2174  -12.4731   21.0968 C   0  0  0  0  0  0  0  0  0  0  0  0
  -34.1170  -26.1648   22.8837 C   0  0  0  0  0  0  0  0  0  0  0  0
  -28.4209  -18.6322   19.9991 C   0  0  0  0  0  0  0  0  0  0  0  0
  -28.6142  -20.5586   21.6602 C   0  0  0  0  0  0  0  0  0  0  0  0
  -18.2493  -28.8080   22.5273 C   0  0  0  0  0  0  0  0  0  0  0  0
  -25.0074  -27.8499   19.8268 C   0  0  0  0  0  0  0  0  0  0  0  0
  -19.6537  -28.9088   22.5391 C   0  0  0  0  0  0  0  0  0  0  0  0
  -25.6665  -26.7177   20.3268 C   0  0  0  0  0  0  0  0  0  0  0  0
  -35.2967  -25.8513   22.2455 C   0  0  0  0  0  0  0  0  0  0  0  0
  -27.7332  -16.0374   19.2397 C   0  0  0  0  0  0  0  0  0  0  0  0
  -27.6370  -28.0730   20.7631 C   0  0  0  0  0  0  0  0  0  0  0  0
  -28.2129  -13.7378   19.2999 C   0  0  0  0  0  0  0  0  0  0  0  0
  -29.8537  -11.6537   20.1643 C   0  0  0  0  0  0  0  0  0  0  0  0
  -28.3970  -13.5151   20.6645 C   0  0  0  0  0  0  0  0  0  0  0  0
  -28.7766  -19.9725   20.3906 C   0  0  0  0  0  0  0  0  0  0  0  0
  -34.9155  -28.0554   21.9878 C   0  0  0  0  0  0  0  0  0  0  0  0
  -29.1029  -21.8339   21.5147 C   0  0  0  0  0  0  0  0  0  0  0  0
  -28.0702  -20.0001   22.8635 C   0  0  0  0  0  0  0  0  0  0  0  0
  -22.3921  -26.7729   21.2774 C   0  0  0  0  0  0  0  0  0  0  0  0
  -22.9861  -24.1110   19.5212 C   0  0  0  0  0  0  0  0  0  0  0  0
  -25.2568  -22.1948   17.8423 C   0  0  0  0  0  0  0  0  0  0  0  0
  -33.0749  -24.2744   17.7574 C   0  0  0  0  0  0  0  0  0  0  0  0
  -17.5472  -27.4869   22.7176 C   0  0  0  0  0  0  0  0  0  0  0  0
  -23.6061  -27.7409   19.2912 C   0  0  0  0  0  0  0  0  0  0  0  0
  -24.9977  -25.3692   20.3790 C   0  0  0  0  0  0  0  0  0  0  0  0
  -18.4489  -26.2782   22.4809 C   0  0  0  0  0  0  0  0  0  0  0  0
  -29.6894  -25.2676   18.2350 C   0  0  0  0  0  0  0  0  0  0  0  0
  -19.7839  -26.4599   23.1961 C   0  0  0  0  0  0  0  0  0  0  0  0
  -29.0569  -24.0760   18.9561 C   0  0  0  0  0  0  0  0  0  0  0  0
  -30.7227  -24.8195   17.2038 C   0  0  0  0  0  0  0  0  0  0  0  0
  -31.1398  -22.7335   18.4483 C   0  0  0  0  0  0  0  0  0  0  0  0
  -20.5350  -27.6845   22.6597 C   0  0  1  0  0  0  0  0  0  0  0  0
  -22.8397  -26.5509   19.8603 C   0  0  1  0  0  0  0  0  0  0  0  0
  -30.1315  -23.1376   19.5374 C   0  0  2  0  0  0  0  0  0  0  0  0
  -34.9570  -29.4922   21.6455 C   0  0  0  0  0  0  0  0  0  0  0  0
  -26.1149  -20.3339   16.3938 C   0  0  0  0  0  0  0  0  0  0  0  0
  -22.8724  -22.5210   22.1230 C   0  0  0  0  0  0  0  0  0  0  0  0
  -23.9895  -20.6238   20.9309 C   0  0  0  0  0  0  0  0  0  0  0  0
  -21.7489  -21.4211   20.1782 C   0  0  0  0  0  0  0  0  0  0  0  0
  -24.8492  -23.7734   15.3723 C   0  0  0  0  0  0  0  0  0  0  0  0
  -35.9182  -24.5155   22.1672 C   0  0  0  0  0  0  0  0  0  0  0  0
  -35.4513  -23.7102   20.9367 C   0  0  0  0  0  0  0  0  0  0  0  0
  -31.6160  -28.5348   22.2297 C   0  0  0  0  0  0  0  0  0  0  0  0
  -35.8226  -24.3964   19.6188 C   0  0  0  0  0  0  0  0  0  0  0  0
  -30.3763  -29.2031   22.8263 C   0  0  0  0  0  0  0  0  0  0  0  0
  -32.7044  -28.2508   23.2711 C   0  0  0  0  0  0  0  0  0  0  0  0
  -35.3761  -23.6002   18.3969 C   0  0  0  0  0  0  0  0  0  0  0  0
  -29.3044  -29.4372   21.7703 C   0  0  0  0  0  0  0  0  0  1  0  0
  -23.7870  -22.8486   19.7308 C   0  0  1  0  0  0  0  0  0  0  0  0
  -25.2145  -21.5574   16.4652 C   0  0  2  0  0  0  0  0  0  0  0  0
  -23.1117  -21.8793   20.7417 C   0  0  0  0  0  0  0  0  0  0  0  0
  -29.3255  -20.8070   19.5039 N   0  0  0  0  0  0  0  0  0  0  0  0
  -33.8955  -27.5074   22.7208 N   0  0  0  0  0  0  0  0  0  0  0  0
  -29.5121  -21.9305   20.2173 N   0  0  0  0  0  0  0  0  0  0  0  0
  -23.6251  -25.3151   19.8492 N   0  0  0  0  0  0  0  0  0  0  0  0
  -31.7137  -23.9336   17.8195 N   0  0  0  0  0  0  0  0  0  0  0  0
  -29.2181  -22.8709   22.3713 N   0  0  0  0  0  0  0  0  0  0  0  0
  -28.9385  -19.3472   23.7491 N   0  0  0  0  0  0  0  0  0  0  0  0
  -21.1557  -27.3798   21.3884 N   0  0  0  0  0  0  0  0  0  0  0  0
  -24.0011  -22.2764   18.4060 N   0  0  0  0  0  0  0  0  0  0  0  0
  -33.9467  -23.3836   18.3715 N   0  0  0  0  0  0  0  0  0  0  0  0
  -25.6620  -22.5312   15.4297 N   0  3  0  0  0  0  0  0  0  0  0  0
  -26.8477  -20.0634   23.1372 O   0  0  0  0  0  0  0  0  0  0  0  0
  -23.1144  -26.4183   22.2017 O   0  0  0  0  0  0  0  0  0  0  0  0
  -21.8384  -24.0322   19.0760 O   0  0  0  0  0  0  0  0  0  0  0  0
  -26.2999  -22.5783   18.3670 O   0  0  0  0  0  0  0  0  0  0  0  0
  -33.4827  -25.2996   17.2008 O   0  0  0  0  0  0  0  0  0  0  0  0
  -27.3981  -14.7713   18.8693 O   0  0  0  0  0  0  0  0  0  0  0  0
  -28.9134  -28.1787   21.2231 O   0  0  0  0  0  0  0  0  0  1  0  0
  -30.6403  -10.6521   20.5792 F   0  0  0  0  0  0  0  0  0  0  0  0
  -27.7874  -14.2983   21.5650 F   0  0  0  0  0  0  0  0  0  0  0  0
  1  2  1  0  0  0  0
  1  5  2  0  0  0  0
  2  6  2  0  0  0  0
  3  8  2  0  0  0  0
  3 17  1  0  0  0  0
  4  9  1  0  0  0  0
  4 17  2  0  0  0  0
  5 19  1  0  0  0  0
  6 21  1  0  0  0  0
  7 10  2  0  0  0  0
  7 20  1  0  0  0  0
  8 24  1  0  0  0  0
  9 24  2  0  0  0  0
 10 25  1  0  0  0  0
 11 12  2  0  0  0  0
 11 26  1  0  0  0  0
 12 27  1  0  0  0  0
 13 22  1  0  0  0  0
 13 25  2  0  0  0  0
 14 23  1  0  0  0  0
 14 30  2  0  0  0  0
 15 27  2  0  0  0  0
 15 28  1  0  0  0  0
 16 23  2  0  0  0  0
 16 67  1  0  0  0  0
 17 29  1  0  0  0  0
 18 29  1  0  0  0  0
 18 31  2  0  0  0  0
 18 32  1  0  0  0  0
 19 21  2  0  0  0  0
 19 37  1  0  0  0  0
 20 22  2  0  0  0  0
 20 38  1  0  0  0  0
 21 46  1  0  0  0  0
 22 39  1  0  0  0  0
 23 55  1  0  0  0  0
 24 82  1  0  0  0  0
 25 83  1  0  0  0  0
 26 28  2  0  0  0  0
 26 82  1  0  0  0  0
 27 84  1  0  0  0  0
 28 85  1  0  0  0  0
 29 66  2  0  0  0  0
 30 49  1  0  0  0  0
 30 67  1  0  0  0  0
 31 68  1  0  0  0  0
 31 71  1  0  0  0  0
 32 72  1  0  0  0  0
 32 77  2  0  0  0  0
 33 47  1  0  0  0  0
 33 73  1  0  0  0  0
 33 78  2  0  0  0  0
 34 63  1  0  0  0  0
 34 69  1  0  0  0  0
 34 79  2  0  0  0  0
 35 64  1  0  0  0  0
 35 74  1  0  0  0  0
 35 80  2  0  0  0  0
 36 70  1  0  0  0  0
 36 75  1  0  0  0  0
 36 81  2  0  0  0  0
 37 40  1  0  0  0  0
 38 47  1  0  0  0  0
 39 69  1  0  0  0  0
 40 42  1  0  0  0  0
 41 43  1  0  0  0  0
 41 44  1  0  0  0  0
 42 46  1  0  0  0  0
 43 48  1  0  0  0  0
 44 70  1  0  0  0  0
 45 48  1  0  0  0  0
 45 70  1  0  0  0  0
 46 73  1  0  0  0  0
 47 69  1  0  0  0  0
 48 68  1  0  0  0  0
 50 64  1  0  0  0  0
 51 65  1  0  0  0  0
 52 65  1  0  0  0  0
 53 65  1  0  0  0  0
 54 76  1  0  0  0  0
 55 56  1  0  0  0  0
 56 58  1  0  0  0  0
 57 59  1  0  0  0  0
 57 60  1  0  0  0  0
 58 61  1  0  0  0  0
 59 62  1  0  0  0  0
 60 67  1  0  0  0  0
 61 75  1  0  0  0  0
 62 83  1  0  0  0  0
 63 65  1  0  0  0  0
 63 74  1  0  0  0  0
 64 76  1  0  0  0  0
 66 68  1  0  0  0  0
M  CHG  1  76   1
M  ISO  4  36 100  62 101  75 100  83 101
M  END
> <Batch ID>
0041

> <Smiles>
CNC(C)C(=O)NC(C(=O)N1Cc2cc([101O:1][101CH2:1]CCCn3cc(CCCC[100NH:0][100C:0](=O)N4CCCC(n5nc(-c6ccc(Oc7ccc(F)cc7F)cc6)c(C(N)=O)c5N)C4)cc3C)ccc2CC1C(=O)NC1CCCc2ccccc21)C(C)(C)C

> <Shape>
0.224

> <Color>
0.070

> <Negative vol penalty>
0.000

$$$$

  -OEChem-04052317093D

 85 93  0     1  0  0  0  0  0999 V2000
  -28.2078  -33.2344   24.7218 C   0  0  0  0  0  0  0  0  0  0  0  0
  -28.2832  -31.8459   24.6795 C   0  0  0  0  0  0  0  0  0  0  0  0
  -22.2970  -10.5123   22.2539 C   0  0  0  0  0  0  0  0  0  0  0  0
  -22.3483  -10.2123   19.8571 C   0  0  0  0  0  0  0  0  0  0  0  0
  -26.9802  -33.8705   24.5423 C   0  0  0  0  0  0  0  0  0  0  0  0
  -27.1307  -31.0926   24.4587 C   0  0  0  0  0  0  0  0  0  0  0  0
  -27.8530  -27.3774   21.0941 C   0  0  0  0  0  0  0  0  0  0  0  0
  -21.7716   -9.2289   22.4033 C   0  0  0  0  0  0  0  0  0  0  0  0
  -21.8231   -8.9288   20.0065 C   0  0  0  0  0  0  0  0  0  0  0  0
  -28.5077  -26.2310   21.5422 C   0  0  0  0  0  0  0  0  0  0  0  0
  -20.7547   -5.8963   23.4400 C   0  0  0  0  0  0  0  0  0  0  0  0
  -21.2996   -5.0843   24.4347 C   0  0  0  0  0  0  0  0  0  0  0  0
  -26.3824  -25.1122   21.7668 C   0  0  0  0  0  0  0  0  0  0  0  0
  -23.4643   -5.2356   23.3724 C   0  0  0  0  0  0  0  0  0  0  0  0
  -22.5853  -11.0041   20.9808 C   0  0  0  0  0  0  0  0  0  0  0  0
  -24.4866  -12.6961   20.8089 C   0  0  0  0  0  0  0  0  0  0  0  0
  -25.8136  -33.1250   24.3096 C   0  0  0  0  0  0  0  0  0  0  0  0
  -26.4549  -27.4035   20.9892 C   0  0  0  0  0  0  0  0  0  0  0  0
  -25.8861  -31.7193   24.2773 C   0  0  0  0  0  0  0  0  0  0  0  0
  -25.7125  -26.2593   21.3147 C   0  0  0  0  0  0  0  0  0  0  0  0
  -27.3902  -20.0892   19.3831 C   0  0  0  0  0  0  0  0  0  0  0  0
  -21.5347   -8.4371   21.2797 C   0  0  0  0  0  0  0  0  0  0  0  0
  -27.7722  -25.0991   21.8814 C   0  0  0  0  0  0  0  0  0  0  0  0
  -21.5646   -6.3778   22.4115 C   0  0  0  0  0  0  0  0  0  0  0  0
  -22.6543   -4.7539   24.4009 C   0  0  0  0  0  0  0  0  0  0  0  0
  -22.9194   -6.0475   22.3777 C   0  0  0  0  0  0  0  0  0  0  0  0
  -23.1274  -12.3300   20.8258 C   0  0  0  0  0  0  0  0  0  0  0  0
  -27.0234  -20.5475   20.6320 C   0  0  0  0  0  0  0  0  0  0  0  0
  -28.6791  -20.3892   18.9919 C   0  0  0  0  0  0  0  0  0  0  0  0
  -24.4731  -14.0588   20.6372 C   0  0  0  0  0  0  0  0  0  0  0  0
  -29.0747  -21.4739   20.9500 C   0  0  0  0  0  0  0  0  0  0  0  0
  -25.6568  -11.8776   20.9369 C   0  0  0  0  0  0  0  0  0  0  0  0
  -24.1349  -29.1015   22.3450 C   0  0  0  0  0  0  0  0  0  0  0  0
  -22.2630  -27.5059   20.2302 C   0  0  0  0  0  0  0  0  0  0  0  0
  -21.8176  -24.7614   18.2513 C   0  0  0  0  0  0  0  0  0  0  0  0
  -22.5075  -18.6252   18.1016 C   0  0  0  0  0  0  0  0  0  0  0  0
  -24.5016  -33.8553   24.1685 C   0  0  0  0  0  0  0  0  0  0  0  0
  -25.7655  -28.6390   20.4787 C   0  0  0  0  0  0  0  0  0  0  0  0
  -24.2110  -26.2292   21.2003 C   0  0  0  0  0  0  0  0  0  0  0  0
  -23.3900  -32.9996   23.5664 C   0  0  0  0  0  0  0  0  0  0  0  0
  -20.6553  -17.3688   20.8706 C   0  0  0  0  0  0  0  0  0  0  0  0
  -23.3491  -31.6294   24.2356 C   0  0  0  0  0  0  0  0  0  0  0  0
  -21.2410  -15.9744   21.1000 C   0  0  0  0  0  0  0  0  0  0  0  0
  -20.5931  -17.7174   19.3851 C   0  0  0  0  0  0  0  0  0  0  0  0
  -22.4565  -16.1818   18.8913 C   0  0  0  0  0  0  0  0  0  0  0  0
  -24.6622  -30.8686   24.0154 C   0  0  1  0  0  0  0  0  0  0  0  0
  -24.3018  -28.7240   20.9003 C   0  0  1  0  0  0  0  0  0  0  0  0
  -22.5912  -15.8075   20.3773 C   0  0  2  0  0  0  0  0  0  0  0  0
  -25.6525  -20.2826   21.1621 C   0  0  0  0  0  0  0  0  0  0  0  0
  -30.7027  -20.0896   17.5422 C   0  0  0  0  0  0  0  0  0  0  0  0
  -20.1716  -23.7198   16.6692 C   0  0  0  0  0  0  0  0  0  0  0  0
  -20.5309  -26.6577   22.5946 C   0  0  0  0  0  0  0  0  0  0  0  0
  -19.5129  -24.9014   21.1292 C   0  0  0  0  0  0  0  0  0  0  0  0
  -19.2530  -27.3132   20.5473 C   0  0  0  0  0  0  0  0  0  0  0  0
  -23.7445  -24.8475   16.0066 C   0  0  0  0  0  0  0  0  0  0  0  0
  -26.4572  -19.3205   18.5162 C   0  0  0  0  0  0  0  0  0  0  0  0
  -29.1882  -19.9462   17.6598 C   0  0  0  0  0  0  0  0  0  0  0  0
  -30.0225  -22.2499   21.8319 C   0  0  0  0  0  0  0  0  0  0  0  0
  -25.4233  -20.1832   17.7626 C   0  0  0  0  0  0  0  0  0  0  0  0
  -24.5011  -19.3916   16.8377 C   0  0  0  0  0  0  0  0  0  0  0  0
  -29.7271  -23.7458   21.8257 C   0  0  0  0  0  0  0  0  0  1  0  0
  -21.5036  -26.2013   20.2469 C   0  0  1  0  0  0  0  0  0  0  0  0
  -21.3874  -24.6237   16.8020 C   0  0  2  0  0  0  0  0  0  0  0  0
  -20.2282  -26.2693   21.1336 C   0  0  0  0  0  0  0  0  0  0  0  0
  -22.3099  -13.3758   20.6768 N   0  0  0  0  0  0  0  0  0  0  0  0
  -27.8433  -21.2455   21.4450 N   0  0  0  0  0  0  0  0  0  0  0  0
  -29.5514  -21.0823   19.7529 N   0  0  0  0  0  0  0  0  0  0  0  0
  -23.1578  -14.4123   20.5648 N   0  0  0  0  0  0  0  0  0  0  0  0
  -23.5826  -27.4640   20.7023 N   0  0  0  0  0  0  0  0  0  0  0  0
  -21.9057  -17.5398   18.7593 N   0  0  0  0  0  0  0  0  0  0  0  0
  -25.4581  -14.9770   20.5426 N   0  0  0  0  0  0  0  0  0  0  0  0
  -25.4907  -10.4964   21.1070 N   0  0  0  0  0  0  0  0  0  0  0  0
  -24.7071  -30.3140   22.6794 N   0  0  0  0  0  0  0  0  0  0  0  0
  -21.2441  -25.8622   18.8519 N   0  0  0  0  0  0  0  0  0  0  0  0
  -23.7539  -18.3732   17.5414 N   0  0  0  0  0  0  0  0  0  0  0  0
  -22.4931  -24.0471   15.9860 N   0  3  0  0  0  0  0  0  0  0  0  0
  -26.8150  -12.3589   20.9179 O   0  0  0  0  0  0  0  0  0  0  0  0
  -23.5304  -28.3491   23.1001 O   0  0  0  0  0  0  0  0  0  0  0  0
  -21.7083  -28.5232   19.8070 O   0  0  0  0  0  0  0  0  0  0  0  0
  -22.5828  -23.9695   18.7971 O   0  0  0  0  0  0  0  0  0  0  0  0
  -21.9761  -19.7381   18.0243 O   0  0  0  0  0  0  0  0  0  0  0  0
  -21.0224   -7.1845   21.4251 O   0  0  0  0  0  0  0  0  0  0  0  0
  -28.4088  -23.9790   22.3197 O   0  0  0  0  0  0  0  0  0  1  0  0
  -23.1778   -3.9754   25.3570 F   0  0  0  0  0  0  0  0  0  0  0  0
  -23.7027   -6.5082   21.3928 F   0  0  0  0  0  0  0  0  0  0  0  0
  1  2  1  0  0  0  0
  1  5  2  0  0  0  0
  2  6  2  0  0  0  0
  3  8  2  0  0  0  0
  3 15  1  0  0  0  0
  4  9  1  0  0  0  0
  4 15  2  0  0  0  0
  5 17  1  0  0  0  0
  6 19  1  0  0  0  0
  7 10  2  0  0  0  0
  7 18  1  0  0  0  0
  8 22  1  0  0  0  0
  9 22  2  0  0  0  0
 10 23  1  0  0  0  0
 11 12  2  0  0  0  0
 11 24  1  0  0  0  0
 12 25  1  0  0  0  0
 13 20  1  0  0  0  0
 13 23  2  0  0  0  0
 14 25  2  0  0  0  0
 14 26  1  0  0  0  0
 15 27  1  0  0  0  0
 16 27  1  0  0  0  0
 16 30  2  0  0  0  0
 16 32  1  0  0  0  0
 17 19  2  0  0  0  0
 17 37  1  0  0  0  0
 18 20  2  0  0  0  0
 18 38  1  0  0  0  0
 19 46  1  0  0  0  0
 20 39  1  0  0  0  0
 21 28  1  0  0  0  0
 21 29  2  0  0  0  0
 21 56  1  0  0  0  0
 22 82  1  0  0  0  0
 23 83  1  0  0  0  0
 24 26  2  0  0  0  0
 24 82  1  0  0  0  0
 25 84  1  0  0  0  0
 26 85  1  0  0  0  0
 27 65  2  0  0  0  0
 28 49  1  0  0  0  0
 28 66  2  0  0  0  0
 29 57  1  0  0  0  0
 29 67  1  0  0  0  0
 30 68  1  0  0  0  0
 30 71  1  0  0  0  0
 31 58  1  0  0  0  0
 31 66  1  0  0  0  0
 31 67  2  0  0  0  0
 32 72  1  0  0  0  0
 32 77  2  0  0  0  0
 33 47  1  0  0  0  0
 33 73  1  0  0  0  0
 33 78  2  0  0  0  0
 34 62  1  0  0  0  0
 34 69  1  0  0  0  0
 34 79  2  0  0  0  0
 35 63  1  0  0  0  0
 35 74  1  0  0  0  0
 35 80  2  0  0  0  0
 36 70  1  0  0  0  0
 36 75  1  0  0  0  0
 36 81  2  0  0  0  0
 37 40  1  0  0  0  0
 38 47  1  0  0  0  0
 39 69  1  0  0  0  0
 40 42  1  0  0  0  0
 41 43  1  0  0  0  0
 41 44  1  0  0  0  0
 42 46  1  0  0  0  0
 43 48  1  0  0  0  0
 44 70  1  0  0  0  0
 45 48  1  0  0  0  0
 45 70  1  0  0  0  0
 46 73  1  0  0  0  0
 47 69  1  0  0  0  0
 48 68  1  0  0  0  0
 50 57  1  0  0  0  0
 51 63  1  0  0  0  0
 52 64  1  0  0  0  0
 53 64  1  0  0  0  0
 54 64  1  0  0  0  0
 55 76  1  0  0  0  0
 56 59  1  0  0  0  0
 58 61  1  0  0  0  0
 59 60  1  0  0  0  0
 60 75  1  0  0  0  0
 61 83  1  0  0  0  0
 62 64  1  0  0  0  0
 62 74  1  0  0  0  0
 63 76  1  0  0  0  0
 65 68  1  0  0  0  0
M  CHG  1  76   1
M  ISO  4  36 100  61 101  75 100  83 101
M  END
> <Batch ID>
0041

> <Smiles>
CCc1nc(C[101CH2:1][101O:1]c2ccc3c(c2)CN(C(=O)C(NC(=O)C(C)NC)C(C)(C)C)C(C(=O)NC2CCCc4ccccc42)C3)nc(C)c1CCC[100NH:0][100C:0](=O)N1CCCC(n2nc(-c3ccc(Oc4ccc(F)cc4F)cc3)c(C(N)=O)c2N)C1

> <Shape>
0.261

> <Color>
0.104

> <Negative vol penalty>
0.000

$$$$

  -OEChem-04052317093D

 82 90  0     1  0  0  0  0  0999 V2000
  -31.1461  -23.1333   18.6240 C   0  0  0  0  0  0  0  0  0  0  0  0
  -29.8036  -23.2114   18.9804 C   0  0  0  0  0  0  0  0  0  0  0  0
  -24.0761   -9.6786   21.6903 C   0  0  0  0  0  0  0  0  0  0  0  0
  -21.9543  -10.6751   21.1053 C   0  0  0  0  0  0  0  0  0  0  0  0
  -32.0840  -23.9432   19.2629 C   0  0  0  0  0  0  0  0  0  0  0  0
  -29.3984  -24.0987   19.9769 C   0  0  0  0  0  0  0  0  0  0  0  0
  -25.2221  -26.6673   18.7098 C   0  0  0  0  0  0  0  0  0  0  0  0
  -23.4778   -8.4189   21.7148 C   0  0  0  0  0  0  0  0  0  0  0  0
  -21.3560   -9.4153   21.1297 C   0  0  0  0  0  0  0  0  0  0  0  0
  -24.0044  -25.9976   18.8210 C   0  0  0  0  0  0  0  0  0  0  0  0
  -21.5433   -6.6212   23.8245 C   0  0  0  0  0  0  0  0  0  0  0  0
  -21.8474   -5.7808   24.8954 C   0  0  0  0  0  0  0  0  0  0  0  0
  -23.5971  -27.1008   20.9273 C   0  0  0  0  0  0  0  0  0  0  0  0
  -22.5742  -21.1125   22.0339 C   0  0  0  0  0  0  0  0  0  0  0  0
  -22.7356   -4.1426   23.3577 C   0  0  0  0  0  0  0  0  0  0  0  0
  -23.7857  -23.1583   21.9717 C   0  0  0  0  0  0  0  0  0  0  0  0
  -23.3144  -10.8068   21.3857 C   0  0  0  0  0  0  0  0  0  0  0  0
  -24.5337  -12.7429   20.2576 C   0  0  0  0  0  0  0  0  0  0  0  0
  -31.6887  -24.8479   20.2609 C   0  0  0  0  0  0  0  0  0  0  0  0
  -25.6422  -27.5520   19.7134 C   0  0  0  0  0  0  0  0  0  0  0  0
  -30.3321  -24.9206   20.6307 C   0  0  0  0  0  0  0  0  0  0  0  0
  -24.8194  -27.7824   20.8251 C   0  0  0  0  0  0  0  0  0  0  0  0
  -22.5702  -22.4968   21.9035 C   0  0  0  0  0  0  0  0  0  0  0  0
  -23.7768  -20.4415   22.2259 C   0  0  0  0  0  0  0  0  0  0  0  0
  -22.1177   -8.2872   21.4345 C   0  0  0  0  0  0  0  0  0  0  0  0
  -23.1930  -26.2121   19.9313 C   0  0  0  0  0  0  0  0  0  0  0  0
  -21.8353   -6.2223   22.5201 C   0  0  0  0  0  0  0  0  0  0  0  0
  -22.4435   -4.5416   24.6620 C   0  0  0  0  0  0  0  0  0  0  0  0
  -22.4315   -4.9830   22.2868 C   0  0  0  0  0  0  0  0  0  0  0  0
  -23.9318  -12.1084   21.3608 C   0  0  0  0  0  0  0  0  0  0  0  0
  -24.9384  -21.1949   22.2795 C   0  0  0  0  0  0  0  0  0  0  0  0
  -24.9645  -13.9509   20.7493 C   0  0  0  0  0  0  0  0  0  0  0  0
  -24.6894  -12.2816   18.9091 C   0  0  0  0  0  0  0  0  0  0  0  0
  -28.1094  -27.6661   21.7143 C   0  0  0  0  0  0  0  0  0  0  0  0
  -23.9938  -18.5370   23.8013 C   0  0  0  0  0  0  0  0  0  0  0  0
  -26.8656  -30.5662   22.4658 C   0  0  0  0  0  0  0  0  0  0  0  0
  -24.1344  -32.6102   22.5633 C   0  0  0  0  0  0  0  0  0  0  0  0
  -32.7456  -25.6690   20.9563 C   0  0  0  0  0  0  0  0  0  0  0  0
  -26.9462  -28.2870   19.5655 C   0  0  0  0  0  0  0  0  0  0  0  0
  -25.2152  -28.7375   21.9204 C   0  0  0  0  0  0  0  0  0  0  0  0
  -32.1808  -26.8510   21.7400 C   0  0  0  0  0  0  0  0  0  0  0  0
  -25.2932  -15.6569   25.4916 C   0  0  0  0  0  0  0  0  0  0  0  0
  -30.9842  -26.4128   22.5784 C   0  0  0  0  0  0  0  0  0  0  0  0
  -25.0766  -14.5242   24.4890 C   0  0  0  0  0  0  0  0  0  0  0  0
  -24.1656  -16.6823   25.4277 C   0  0  0  0  0  0  0  0  0  0  0  0
  -23.7201  -16.1189   23.0601 C   0  0  0  0  0  0  0  0  0  0  0  0
  -29.8501  -25.8884   21.6894 C   0  0  1  0  0  0  0  0  0  0  0  0
  -27.5112  -28.7751   20.8958 C   0  0  1  0  0  0  0  0  0  0  0  0
  -24.8526  -15.0769   23.0703 C   0  0  2  0  0  0  0  0  0  0  0  0
  -27.0608  -20.4251   21.1889 C   0  0  0  0  0  0  0  0  0  0  0  0
  -23.4199  -34.9110   23.2656 C   0  0  0  0  0  0  0  0  0  0  0  0
  -26.8836  -29.6781   25.3848 C   0  0  0  0  0  0  0  0  0  0  0  0
  -25.3240  -31.5685   25.8970 C   0  0  0  0  0  0  0  0  0  0  0  0
  -27.6066  -32.0426   25.0093 C   0  0  0  0  0  0  0  0  0  0  0  0
  -23.3537  -33.3366   19.8026 C   0  0  0  0  0  0  0  0  0  0  0  0
  -23.7881  -18.9586   22.3682 C   0  0  0  0  0  0  0  0  0  0  0  0
  -21.2835  -23.2545   21.6934 C   0  0  0  0  0  0  0  0  0  0  0  0
  -26.2594  -20.5277   22.4830 C   0  0  0  0  0  0  0  0  0  0  0  0
  -20.9072  -23.4329   20.2210 C   0  0  0  0  0  0  0  0  0  0  0  0
  -21.9121  -24.2700   19.4381 C   0  0  0  0  0  0  0  0  0  1  0  0
  -25.8548  -31.0688   23.4681 C   0  0  1  0  0  0  0  0  0  0  0  0
  -23.9375  -34.0499   22.1240 C   0  0  2  0  0  0  0  0  0  0  0  0
  -26.4104  -31.0700   24.9203 C   0  0  0  0  0  0  0  0  0  0  0  0
  -24.9740  -22.5408   22.1570 N   0  0  0  0  0  0  0  0  0  0  0  0
  -23.9746  -12.8518   22.4697 N   0  0  0  0  0  0  0  0  0  0  0  0
  -24.6086  -13.9658   22.0658 N   0  0  0  0  0  0  0  0  0  0  0  0
  -26.5023  -29.4274   21.7331 N   0  0  0  0  0  0  0  0  0  0  0  0
  -23.9695  -17.1664   24.0601 N   0  0  0  0  0  0  0  0  0  0  0  0
  -25.6093  -14.9911   20.1795 N   0  0  0  0  0  0  0  0  0  0  0  0
  -24.1885  -11.0163   18.5737 N   0  0  0  0  0  0  0  0  0  0  0  0
  -29.1344  -26.9895   21.0812 N   0  0  0  0  0  0  0  0  0  0  0  0
  -25.4244  -32.3789   22.9920 N   0  0  0  0  0  0  0  0  0  0  0  0
  -22.9595  -34.1198   21.0017 N   0  3  0  0  0  0  0  0  0  0  0  0
  -25.2705  -12.9642   18.0316 O   0  0  0  0  0  0  0  0  0  0  0  0
  -27.6742  -27.4419   22.8377 O   0  0  0  0  0  0  0  0  0  0  0  0
  -24.1735  -19.4012   24.6632 O   0  0  0  0  0  0  0  0  0  0  0  0
  -27.9351  -31.1663   22.3326 O   0  0  0  0  0  0  0  0  0  0  0  0
  -23.2330  -31.7753   22.5330 O   0  0  0  0  0  0  0  0  0  0  0  0
  -21.5336   -7.0581   21.4580 O   0  0  0  0  0  0  0  0  0  0  0  0
  -22.0042  -25.5592   20.0428 O   0  0  0  0  0  0  0  0  0  1  0  0
  -22.7368   -3.7353   25.6907 F   0  0  0  0  0  0  0  0  0  0  0  0
  -22.7155   -4.5948   21.0360 F   0  0  0  0  0  0  0  0  0  0  0  0
  1  2  1  0  0  0  0
  1  5  2  0  0  0  0
  2  6  2  0  0  0  0
  3  8  2  0  0  0  0
  3 17  1  0  0  0  0
  4  9  1  0  0  0  0
  4 17  2  0  0  0  0
  5 19  1  0  0  0  0
  6 21  1  0  0  0  0
  7 10  2  0  0  0  0
  7 20  1  0  0  0  0
  8 25  1  0  0  0  0
  9 25  2  0  0  0  0
 10 26  1  0  0  0  0
 11 12  2  0  0  0  0
 11 27  1  0  0  0  0
 12 28  1  0  0  0  0
 13 22  1  0  0  0  0
 13 26  2  0  0  0  0
 14 23  2  0  0  0  0
 14 24  1  0  0  0  0
 15 28  2  0  0  0  0
 15 29  1  0  0  0  0
 16 23  1  0  0  0  0
 16 64  2  0  0  0  0
 17 30  1  0  0  0  0
 18 30  1  0  0  0  0
 18 32  2  0  0  0  0
 18 33  1  0  0  0  0
 19 21  2  0  0  0  0
 19 38  1  0  0  0  0
 20 22  2  0  0  0  0
 20 39  1  0  0  0  0
 21 47  1  0  0  0  0
 22 40  1  0  0  0  0
 23 57  1  0  0  0  0
 24 31  2  0  0  0  0
 24 56  1  0  0  0  0
 25 79  1  0  0  0  0
 26 80  1  0  0  0  0
 27 29  2  0  0  0  0
 27 79  1  0  0  0  0
 28 81  1  0  0  0  0
 29 82  1  0  0  0  0
 30 65  2  0  0  0  0
 31 58  1  0  0  0  0
 31 64  1  0  0  0  0
 32 66  1  0  0  0  0
 32 69  1  0  0  0  0
 33 70  1  0  0  0  0
 33 74  2  0  0  0  0
 34 48  1  0  0  0  0
 34 71  1  0  0  0  0
 34 75  2  0  0  0  0
 35 56  1  0  0  0  0
 35 68  1  0  0  0  0
 35 76  2  0  0  0  0
 36 61  1  0  0  0  0
 36 67  1  0  0  0  0
 36 77  2  0  0  0  0
 37 62  1  0  0  0  0
 37 72  1  0  0  0  0
 37 78  2  0  0  0  0
 38 41  1  0  0  0  0
 39 48  1  0  0  0  0
 40 67  1  0  0  0  0
 41 43  1  0  0  0  0
 42 44  1  0  0  0  0
 42 45  1  0  0  0  0
 43 47  1  0  0  0  0
 44 49  1  0  0  0  0
 45 68  1  0  0  0  0
 46 49  1  0  0  0  0
 46 68  1  0  0  0  0
 47 71  1  0  0  0  0
 48 67  1  0  0  0  0
 49 66  1  0  0  0  0
 50 58  1  0  0  0  0
 51 62  1  0  0  0  0
 52 63  1  0  0  0  0
 53 63  1  0  0  0  0
 54 63  1  0  0  0  0
 55 73  1  0  0  0  0
 57 59  1  0  0  0  0
 59 60  1  0  0  0  0
 60 80  1  0  0  0  0
 61 63  1  0  0  0  0
 61 72  1  0  0  0  0
 62 73  1  0  0  0  0
 65 66  1  0  0  0  0
M  CHG  1  73   1
M  ISO  4  35 100  56 100  60 101  80 101
M  END
> <Batch ID>
0041

> <Smiles>
CCc1ncc(CC[101CH2:1][101O:1]c2ccc3c(c2)CN(C(=O)C(NC(=O)C(C)NC)C(C)(C)C)C(C(=O)NC2CCCc4ccccc42)C3)cc1[100CH2:0][100C:0](=O)N1CCCC(n2nc(-c3ccc(Oc4ccc(F)cc4F)cc3)c(C(N)=O)c2N)C1

> <Shape>
0.242

> <Color>
0.125

> <Negative vol penalty>
0.000

$$$$

  -OEChem-04052317093D

 86 95  0     1  0  0  0  0  0999 V2000
  -17.3792  -31.9433   21.8842 C   0  0  0  0  0  0  0  0  0  0  0  0
  -18.0402  -30.8690   21.2974 C   0  0  0  0  0  0  0  0  0  0  0  0
  -23.8375  -11.2468   23.6819 C   0  0  0  0  0  0  0  0  0  0  0  0
  -24.5121   -9.5721   22.0764 C   0  0  0  0  0  0  0  0  0  0  0  0
  -18.0028  -32.6776   22.8921 C   0  0  0  0  0  0  0  0  0  0  0  0
  -19.3257  -30.5291   21.7173 C   0  0  0  0  0  0  0  0  0  0  0  0
  -28.5392  -18.6543   24.1666 C   0  0  0  0  0  0  0  0  0  0  0  0
  -20.7588  -23.9742   24.3385 C   0  0  0  0  0  0  0  0  0  0  0  0
  -29.8199  -18.2068   23.8421 C   0  0  0  0  0  0  0  0  0  0  0  0
  -23.3422  -10.2460   24.5177 C   0  0  0  0  0  0  0  0  0  0  0  0
  -24.0169   -8.5713   22.9123 C   0  0  0  0  0  0  0  0  0  0  0  0
  -21.1586  -22.6755   24.6542 C   0  0  0  0  0  0  0  0  0  0  0  0
  -21.0076   -7.2475   23.7015 C   0  0  0  0  0  0  0  0  0  0  0  0
  -20.2408   -6.2379   23.1198 C   0  0  0  0  0  0  0  0  0  0  0  0
  -23.4132  -23.4546   25.0513 C   0  0  0  0  0  0  0  0  0  0  0  0
  -29.0236  -17.5008   21.6731 C   0  0  0  0  0  0  0  0  0  0  0  0
  -21.8367   -4.5895   23.8767 C   0  0  0  0  0  0  0  0  0  0  0  0
  -24.4224  -10.9099   22.4612 C   0  0  0  0  0  0  0  0  0  0  0  0
  -24.2116  -13.0084   21.0261 C   0  0  0  0  0  0  0  0  0  0  0  0
  -19.2928  -32.3406   23.3313 C   0  0  0  0  0  0  0  0  0  0  0  0
  -21.6823  -25.0218   24.3930 C   0  0  0  0  0  0  0  0  0  0  0  0
  -19.9676  -31.2605   22.7311 C   0  0  0  0  0  0  0  0  0  0  0  0
  -27.5007  -18.5249   23.2444 C   0  0  0  0  0  0  0  0  0  0  0  0
  -23.0157  -24.7595   24.7482 C   0  0  0  0  0  0  0  0  0  0  0  0
  -30.0621  -17.6301   22.5954 C   0  0  0  0  0  0  0  0  0  0  0  0
  -27.7429  -17.9482   21.9976 C   0  0  0  0  0  0  0  0  0  0  0  0
  -23.4319   -8.9082   24.1329 C   0  0  0  0  0  0  0  0  0  0  0  0
  -22.4825  -22.4163   25.0095 C   0  0  0  0  0  0  0  0  0  0  0  0
  -22.1891   -6.9280   24.3708 C   0  0  0  0  0  0  0  0  0  0  0  0
  -20.6553   -4.9090   23.2074 C   0  0  0  0  0  0  0  0  0  0  0  0
  -22.6036   -5.5991   24.4584 C   0  0  0  0  0  0  0  0  0  0  0  0
  -24.9337  -11.9433   21.5970 C   0  0  0  0  0  0  0  0  0  0  0  0
  -25.1444  -13.7026   20.2950 C   0  0  0  0  0  0  0  0  0  0  0  0
  -22.8220  -13.3405   21.1459 C   0  0  0  0  0  0  0  0  0  0  0  0
  -22.3204  -28.6947   23.9696 C   0  0  0  0  0  0  0  0  0  0  0  0
  -23.8769  -27.8008   26.4574 C   0  0  0  0  0  0  0  0  0  0  0  0
  -25.0988  -26.5044   29.3666 C   0  0  0  0  0  0  0  0  0  0  0  0
  -31.0943  -14.2219   20.7189 C   0  0  0  0  0  0  0  0  0  0  0  0
  -19.9447  -33.1931   24.3910 C   0  0  0  0  0  0  0  0  0  0  0  0
  -21.3105  -26.4262   24.0015 C   0  0  0  0  0  0  0  0  0  0  0  0
  -23.9825  -25.9119   24.7599 C   0  0  0  0  0  0  0  0  0  0  0  0
  -21.1606  -32.5357   25.0387 C   0  0  0  0  0  0  0  0  0  0  0  0
  -29.2399  -13.0858   17.8998 C   0  0  0  0  0  0  0  0  0  0  0  0
  -25.8848  -20.4728   23.1692 C   0  0  0  0  0  0  0  0  0  0  0  0
  -25.8390  -18.8570   25.1253 C   0  0  0  0  0  0  0  0  0  0  0  0
  -22.0751  -31.9384   23.9739 C   0  0  0  0  0  0  0  0  0  0  0  0
  -27.8609  -12.7602   18.4762 C   0  0  0  0  0  0  0  0  0  0  0  0
  -24.4867  -20.9570   23.5448 C   0  0  0  0  0  0  0  0  0  0  0  0
  -24.4409  -19.3493   25.4902 C   0  0  0  0  0  0  0  0  0  0  0  0
  -30.3580  -12.7353   18.8792 C   0  0  0  0  0  0  0  0  0  0  0  0
  -28.8348  -13.0033   20.7980 C   0  0  0  0  0  0  0  0  0  0  0  0
  -26.1157  -19.0195   23.6200 C   0  0  0  0  0  0  0  0  0  0  0  0
  -21.3531  -30.8455   23.1766 C   0  0  1  0  0  0  0  0  0  0  0  0
  -22.0420  -27.4974   24.8302 C   0  0  1  0  0  0  0  0  0  0  0  0
  -27.6720  -13.3913   19.8688 C   0  0  2  0  0  0  0  0  0  0  0  0
  -24.2139  -20.7900   25.0385 C   0  0  0  0  0  0  0  0  0  1  0  0
  -26.6466  -17.7989   20.9943 C   0  0  0  0  0  0  0  0  0  0  0  0
  -26.4303  -27.1350   31.3981 C   0  0  0  0  0  0  0  0  0  0  0  0
  -26.4365  -27.7196   24.8004 C   0  0  0  0  0  0  0  0  0  0  0  0
  -27.7185  -27.3977   26.9267 C   0  0  0  0  0  0  0  0  0  0  0  0
  -26.3964  -29.4832   26.5731 C   0  0  0  0  0  0  0  0  0  0  0  0
  -22.8482  -25.8710   31.1811 C   0  0  0  0  0  0  0  0  0  0  0  0
  -31.4312  -17.1514   22.2486 C   0  0  0  0  0  0  0  0  0  0  0  0
  -31.6859  -15.6885   22.6315 C   0  0  0  0  0  0  0  0  0  0  0  0
  -25.1859  -27.3094   27.0216 C   0  0  1  0  0  0  0  0  0  0  0  0
  -25.0390  -27.0078   30.7975 C   0  0  2  0  0  0  0  0  0  0  0  0
  -26.4135  -27.9594   26.3232 C   0  0  0  0  0  0  0  0  0  0  0  0
  -26.2255  -11.9556   21.2577 N   0  0  0  0  0  0  0  0  0  0  0  0
  -26.3225  -13.0369   20.4655 N   0  0  0  0  0  0  0  0  0  0  0  0
  -23.3505  -27.0918   25.3708 N   0  0  0  0  0  0  0  0  0  0  0  0
  -30.1196  -13.3661   20.1797 N   0  0  0  0  0  0  0  0  0  0  0  0
  -25.0635  -14.8114   19.5292 N   0  0  0  0  0  0  0  0  0  0  0  0
  -22.0050  -12.5210   21.9365 N   0  0  0  0  0  0  0  0  0  0  0  0
  -21.2930  -29.6182   23.9412 N   0  0  0  0  0  0  0  0  0  0  0  0
  -25.1237  -27.5433   28.4603 N   0  0  0  0  0  0  0  0  0  0  0  0
  -30.7863  -14.7830   21.9522 N   0  0  0  0  0  0  0  0  0  0  0  0
  -24.2458  -26.0715   31.6432 N   0  3  0  0  0  0  0  0  0  0  0  0
  -22.3164  -14.3253   20.5558 O   0  0  0  0  0  0  0  0  0  0  0  0
  -23.3892  -28.7765   23.3757 O   0  0  0  0  0  0  0  0  0  0  0  0
  -23.3364  -28.7896   26.9608 O   0  0  0  0  0  0  0  0  0  0  0  0
  -25.1250  -25.3092   29.0815 O   0  0  0  0  0  0  0  0  0  0  0  0
  -32.1578  -14.4718   20.1414 O   0  0  0  0  0  0  0  0  0  0  0  0
  -22.9489   -7.9313   24.9484 O   0  0  0  0  0  0  0  0  0  0  0  0
  -22.8650  -21.1469   25.3209 O   0  0  0  0  0  0  0  0  0  1  0  0
  -19.9179   -3.9395   22.6501 F   0  0  0  0  0  0  0  0  0  0  0  0
  -23.7370   -5.2859   25.1011 F   0  0  0  0  0  0  0  0  0  0  0  0
  1  2  1  0  0  0  0
  1  5  2  0  0  0  0
  2  6  2  0  0  0  0
  3 10  2  0  0  0  0
  3 18  1  0  0  0  0
  4 11  1  0  0  0  0
  4 18  2  0  0  0  0
  5 20  1  0  0  0  0
  6 22  1  0  0  0  0
  7  9  2  0  0  0  0
  7 23  1  0  0  0  0
  8 12  2  0  0  0  0
  8 21  1  0  0  0  0
  9 25  1  0  0  0  0
 10 27  1  0  0  0  0
 11 27  2  0  0  0  0
 12 28  1  0  0  0  0
 13 14  2  0  0  0  0
 13 29  1  0  0  0  0
 14 30  1  0  0  0  0
 15 24  1  0  0  0  0
 15 28  2  0  0  0  0
 16 25  2  0  0  0  0
 16 26  1  0  0  0  0
 17 30  2  0  0  0  0
 17 31  1  0  0  0  0
 18 32  1  0  0  0  0
 19 32  1  0  0  0  0
 19 33  2  0  0  0  0
 19 34  1  0  0  0  0
 20 22  2  0  0  0  0
 20 39  1  0  0  0  0
 21 24  2  0  0  0  0
 21 40  1  0  0  0  0
 22 53  1  0  0  0  0
 23 26  2  0  0  0  0
 23 52  1  0  0  0  0
 24 41  1  0  0  0  0
 25 63  1  0  0  0  0
 26 57  1  0  0  0  0
 27 83  1  0  0  0  0
 28 84  1  0  0  0  0
 29 31  2  0  0  0  0
 29 83  1  0  0  0  0
 30 85  1  0  0  0  0
 31 86  1  0  0  0  0
 32 68  2  0  0  0  0
 33 69  1  0  0  0  0
 33 72  1  0  0  0  0
 34 73  1  0  0  0  0
 34 78  2  0  0  0  0
 35 54  1  0  0  0  0
 35 74  1  0  0  0  0
 35 79  2  0  0  0  0
 36 65  1  0  0  0  0
 36 70  1  0  0  0  0
 36 80  2  0  0  0  0
 37 66  1  0  0  0  0
 37 75  1  0  0  0  0
 37 81  2  0  0  0  0
 38 71  1  0  0  0  0
 38 76  1  0  0  0  0
 38 82  2  0  0  0  0
 39 42  1  0  0  0  0
 40 54  1  0  0  0  0
 41 70  1  0  0  0  0
 42 46  1  0  0  0  0
 43 47  1  0  0  0  0
 43 50  1  0  0  0  0
 44 48  1  0  0  0  0
 44 52  1  0  0  0  0
 45 49  1  0  0  0  0
 45 52  1  0  0  0  0
 46 53  1  0  0  0  0
 47 55  1  0  0  0  0
 48 56  1  0  0  0  0
 49 56  1  0  0  0  0
 50 71  1  0  0  0  0
 51 55  1  0  0  0  0
 51 71  1  0  0  0  0
 53 74  1  0  0  0  0
 54 70  1  0  0  0  0
 55 69  1  0  0  0  0
 56 84  1  0  0  0  0
 58 66  1  0  0  0  0
 59 67  1  0  0  0  0
 60 67  1  0  0  0  0
 61 67  1  0  0  0  0
 62 77  1  0  0  0  0
 63 64  1  0  0  0  0
 64 76  1  0  0  0  0
 65 67  1  0  0  0  0
 65 75  1  0  0  0  0
 66 77  1  0  0  0  0
 68 69  1  0  0  0  0
M  CHG  1  77   1
M  ISO  4  38 100  56 101  76 100  84 101
M  END
> <Batch ID>
0041

> <Smiles>
CNC(C)C(=O)NC(C(=O)N1Cc2cc([101O:1][101CH:1]3CCC(c4ccc(CC[100NH:0][100C:0](=O)N5CCCC(n6nc(-c7ccc(Oc8ccc(F)cc8F)cc7)c(C(N)=O)c6N)C5)cc4C)CC3)ccc2CC1C(=O)NC1CCCc2ccccc21)C(C)(C)C

> <Shape>
0.186

> <Color>
0.154

> <Negative vol penalty>
0.000

$$$$

  -OEChem-04052317093D

 84 92  0     1  0  0  0  0  0999 V2000
  -20.2901  -31.0179   22.8573 C   0  0  0  0  0  0  0  0  0  0  0  0
  -21.5325  -30.4056   22.7270 C   0  0  0  0  0  0  0  0  0  0  0  0
  -25.7886  -13.8232   21.0009 C   0  0  0  0  0  0  0  0  0  0  0  0
  -24.8105  -14.5620   18.9190 C   0  0  0  0  0  0  0  0  0  0  0  0
  -19.1304  -30.2441   22.8664 C   0  0  0  0  0  0  0  0  0  0  0  0
  -21.6159  -29.0189   22.6068 C   0  0  0  0  0  0  0  0  0  0  0  0
  -24.8333  -27.5737   18.9729 C   0  0  0  0  0  0  0  0  0  0  0  0
  -24.7053  -12.9691   21.2068 C   0  0  0  0  0  0  0  0  0  0  0  0
  -23.7271  -13.7078   19.1248 C   0  0  0  0  0  0  0  0  0  0  0  0
  -26.1943  -27.6225   19.2712 C   0  0  0  0  0  0  0  0  0  0  0  0
  -23.6712   -9.9461   20.0999 C   0  0  0  0  0  0  0  0  0  0  0  0
  -23.9429   -8.6447   20.5222 C   0  0  0  0  0  0  0  0  0  0  0  0
  -26.1813  -25.2471   19.6910 C   0  0  0  0  0  0  0  0  0  0  0  0
  -22.6457   -9.0238   22.5249 C   0  0  0  0  0  0  0  0  0  0  0  0
  -32.9895  -24.9895   17.5598 C   0  0  0  0  0  0  0  0  0  0  0  0
  -25.8412  -14.6198   19.8570 C   0  0  0  0  0  0  0  0  0  0  0  0
  -28.1616  -15.2058   18.9738 C   0  0  0  0  0  0  0  0  0  0  0  0
  -19.1990  -28.8480   22.7367 C   0  0  0  0  0  0  0  0  0  0  0  0
  -24.1325  -26.3611   19.0421 C   0  0  0  0  0  0  0  0  0  0  0  0
  -20.4561  -28.2255   22.6156 C   0  0  0  0  0  0  0  0  0  0  0  0
  -24.8120  -25.1851   19.3906 C   0  0  0  0  0  0  0  0  0  0  0  0
  -32.7846  -26.3030   17.2143 C   0  0  0  0  0  0  0  0  0  0  0  0
  -23.6746  -12.9113   20.2688 C   0  0  0  0  0  0  0  0  0  0  0  0
  -26.8679  -26.4596   19.6331 C   0  0  0  0  0  0  0  0  0  0  0  0
  -22.8869  -10.7863   20.8902 C   0  0  0  0  0  0  0  0  0  0  0  0
  -23.4301   -8.1836   21.7346 C   0  0  0  0  0  0  0  0  0  0  0  0
  -22.3741  -10.3252   22.1027 C   0  0  0  0  0  0  0  0  0  0  0  0
  -26.9597  -15.5027   19.6440 C   0  0  0  0  0  0  0  0  0  0  0  0
  -32.6618  -26.2829   15.8120 C   0  0  0  0  0  0  0  0  0  0  0  0
  -28.8897  -16.3683   19.0432 C   0  0  0  0  0  0  0  0  0  0  0  0
  -28.5821  -13.9881   18.3445 C   0  0  0  0  0  0  0  0  0  0  0  0
  -21.6934  -25.2751   20.7671 C   0  0  0  0  0  0  0  0  0  0  0  0
  -21.9617  -22.7016   18.8107 C   0  0  0  0  0  0  0  0  0  0  0  0
  -23.9269  -20.8224   16.7484 C   0  0  0  0  0  0  0  0  0  0  0  0
  -29.2395  -21.9234   18.6378 C   0  0  0  0  0  0  0  0  0  0  0  0
  -17.9211  -28.0494   22.7995 C   0  0  0  0  0  0  0  0  0  0  0  0
  -22.6704  -26.3205   18.6914 C   0  0  0  0  0  0  0  0  0  0  0  0
  -24.1099  -23.8544   19.4599 C   0  0  0  0  0  0  0  0  0  0  0  0
  -18.0717  -26.6180   22.2907 C   0  0  0  0  0  0  0  0  0  0  0  0
  -28.1204  -20.5788   21.7389 C   0  0  0  0  0  0  0  0  0  0  0  0
  -19.3204  -25.9704   22.8807 C   0  0  0  0  0  0  0  0  0  0  0  0
  -27.8121  -19.1163   21.4134 C   0  0  0  0  0  0  0  0  0  0  0  0
  -27.7585  -21.5035   20.5787 C   0  0  0  0  0  0  0  0  0  0  0  0
  -28.0477  -19.6707   18.9567 C   0  0  0  0  0  0  0  0  0  0  0  0
  -20.5860  -26.7260   22.4580 C   0  0  1  0  0  0  0  0  0  0  0  0
  -21.9445  -25.1215   19.2936 C   0  0  1  0  0  0  0  0  0  0  0  0
  -28.4477  -18.6936   20.0753 C   0  0  2  0  0  0  0  0  0  0  0  0
  -32.4300  -27.4241   14.9093 C   0  0  0  0  0  0  0  0  0  0  0  0
  -23.8778  -18.7572   15.3236 C   0  0  0  0  0  0  0  0  0  0  0  0
  -22.1340  -20.9709   21.3177 C   0  0  0  0  0  0  0  0  0  0  0  0
  -23.0203  -19.1145   19.8908 C   0  0  0  0  0  0  0  0  0  0  0  0
  -20.7293  -20.0133   19.4835 C   0  0  0  0  0  0  0  0  0  0  0  0
  -24.5253  -22.3619   14.2926 C   0  0  0  0  0  0  0  0  0  0  0  0
  -32.7105  -27.4911   18.1398 C   0  0  0  0  0  0  0  0  0  0  0  0
  -31.2851  -28.0008   18.3800 C   0  0  0  0  0  0  0  0  0  0  0  0
  -30.3910  -26.9730   19.0751 C   0  0  0  0  0  0  0  0  0  0  0  0
  -32.1641  -22.0281   17.0632 C   0  0  0  0  0  0  0  0  0  0  0  0
  -33.1536  -22.8650   16.2412 C   0  0  0  0  0  0  0  0  0  0  0  0
  -30.7024  -22.1877   16.6506 C   0  0  0  0  0  0  0  0  0  0  0  0
  -28.9742  -27.4992   19.2608 C   0  0  0  0  0  0  0  0  0  1  0  0
  -22.7393  -21.4081   18.8462 C   0  0  1  0  0  0  0  0  0  0  0  0
  -23.6836  -20.2652   15.3574 C   0  0  2  0  0  0  0  0  0  0  0  0
  -22.1688  -20.4020   19.8852 C   0  0  0  0  0  0  0  0  0  0  0  0
  -26.9226  -16.7556   20.1055 N   0  0  0  0  0  0  0  0  0  0  0  0
  -32.7790  -25.0541   15.3017 N   0  0  0  0  0  0  0  0  0  0  0  0
  -32.9777  -24.2899   16.3891 N   0  0  0  0  0  0  0  0  0  0  0  0
  -28.1103  -17.2562   19.7247 N   0  0  0  0  0  0  0  0  0  0  0  0
  -22.6789  -23.8675   19.1141 N   0  0  0  0  0  0  0  0  0  0  0  0
  -28.3943  -21.0483   19.3400 N   0  0  0  0  0  0  0  0  0  0  0  0
  -30.1143  -16.7074   18.5874 N   0  0  0  0  0  0  0  0  0  0  0  0
  -27.7113  -12.8901   18.3649 N   0  0  0  0  0  0  0  0  0  0  0  0
  -20.9452  -26.3889   21.0972 N   0  0  0  0  0  0  0  0  0  0  0  0
  -22.7590  -20.9060   17.4766 N   0  0  0  0  0  0  0  0  0  0  0  0
  -29.8063  -21.4105   17.4775 N   0  0  0  0  0  0  0  0  0  0  0  0
  -24.6245  -20.8822   14.3803 N   0  3  0  0  0  0  0  0  0  0  0  0
  -29.7038  -13.8718   17.7952 O   0  0  0  0  0  0  0  0  0  0  0  0
  -22.1440  -24.4438   21.5466 O   0  0  0  0  0  0  0  0  0  0  0  0
  -20.7637  -22.6791   18.5175 O   0  0  0  0  0  0  0  0  0  0  0  0
  -25.0421  -21.1473   17.1501 O   0  0  0  0  0  0  0  0  0  0  0  0
  -29.4759  -23.0746   19.0198 O   0  0  0  0  0  0  0  0  0  0  0  0
  -22.6174  -12.0778   20.4692 O   0  0  0  0  0  0  0  0  0  0  0  0
  -28.1962  -26.5046   19.9254 O   0  0  0  0  0  0  0  0  0  1  0  0
  -23.6898   -6.9334   22.1393 F   0  0  0  0  0  0  0  0  0  0  0  0
  -21.6190  -11.1274   22.8656 F   0  0  0  0  0  0  0  0  0  0  0  0
  1  2  1  0  0  0  0
  1  5  2  0  0  0  0
  2  6  2  0  0  0  0
  3  8  2  0  0  0  0
  3 16  1  0  0  0  0
  4  9  1  0  0  0  0
  4 16  2  0  0  0  0
  5 18  1  0  0  0  0
  6 20  1  0  0  0  0
  7 10  2  0  0  0  0
  7 19  1  0  0  0  0
  8 23  1  0  0  0  0
  9 23  2  0  0  0  0
 10 24  1  0  0  0  0
 11 12  2  0  0  0  0
 11 25  1  0  0  0  0
 12 26  1  0  0  0  0
 13 21  1  0  0  0  0
 13 24  2  0  0  0  0
 14 26  2  0  0  0  0
 14 27  1  0  0  0  0
 15 22  2  0  0  0  0
 15 66  1  0  0  0  0
 16 28  1  0  0  0  0
 17 28  1  0  0  0  0
 17 30  2  0  0  0  0
 17 31  1  0  0  0  0
 18 20  2  0  0  0  0
 18 36  1  0  0  0  0
 19 21  2  0  0  0  0
 19 37  1  0  0  0  0
 20 45  1  0  0  0  0
 21 38  1  0  0  0  0
 22 29  1  0  0  0  0
 22 54  1  0  0  0  0
 23 81  1  0  0  0  0
 24 82  1  0  0  0  0
 25 27  2  0  0  0  0
 25 81  1  0  0  0  0
 26 83  1  0  0  0  0
 27 84  1  0  0  0  0
 28 64  2  0  0  0  0
 29 48  1  0  0  0  0
 29 65  2  0  0  0  0
 30 67  1  0  0  0  0
 30 70  1  0  0  0  0
 31 71  1  0  0  0  0
 31 76  2  0  0  0  0
 32 46  1  0  0  0  0
 32 72  1  0  0  0  0
 32 77  2  0  0  0  0
 33 61  1  0  0  0  0
 33 68  1  0  0  0  0
 33 78  2  0  0  0  0
 34 62  1  0  0  0  0
 34 73  1  0  0  0  0
 34 79  2  0  0  0  0
 35 69  1  0  0  0  0
 35 74  1  0  0  0  0
 35 80  2  0  0  0  0
 36 39  1  0  0  0  0
 37 46  1  0  0  0  0
 38 68  1  0  0  0  0
 39 41  1  0  0  0  0
 40 42  1  0  0  0  0
 40 43  1  0  0  0  0
 41 45  1  0  0  0  0
 42 47  1  0  0  0  0
 43 69  1  0  0  0  0
 44 47  1  0  0  0  0
 44 69  1  0  0  0  0
 45 72  1  0  0  0  0
 46 68  1  0  0  0  0
 47 67  1  0  0  0  0
 49 62  1  0  0  0  0
 50 63  1  0  0  0  0
 51 63  1  0  0  0  0
 52 63  1  0  0  0  0
 53 75  1  0  0  0  0
 54 55  1  0  0  0  0
 55 56  1  0  0  0  0
 56 60  1  0  0  0  0
 57 58  1  0  0  0  0
 57 59  1  0  0  0  0
 58 66  1  0  0  0  0
 59 74  1  0  0  0  0
 60 82  1  0  0  0  0
 61 63  1  0  0  0  0
 61 73  1  0  0  0  0
 62 75  1  0  0  0  0
 64 67  1  0  0  0  0
 65 66  1  0  0  0  0
M  CHG  1  75   1
M  ISO  4  35 100  60 101  74 100  82 101
M  END
> <Batch ID>
0041

> <Smiles>
CNC(C)C(=O)NC(C(=O)N1Cc2cc([101O:1][101CH2:1]CCCc3cn(CCC[100NH:0][100C:0](=O)N4CCCC(n5nc(-c6ccc(Oc7ccc(F)cc7F)cc6)c(C(N)=O)c5N)C4)nc3C)ccc2CC1C(=O)NC1CCCc2ccccc21)C(C)(C)C

> <Shape>
0.235

> <Color>
0.073

> <Negative vol penalty>
0.000

$$$$

  -OEChem-04052317093D

 81 89  0     1  0  0  0  0  0999 V2000
  -15.3039  -26.4958   21.2525 C   0  0  0  0  0  0  0  0  0  0  0  0
  -16.5186  -26.2074   21.8664 C   0  0  0  0  0  0  0  0  0  0  0  0
  -22.9994   -9.8960   19.9820 C   0  0  0  0  0  0  0  0  0  0  0  0
  -23.7305   -9.9446   22.2842 C   0  0  0  0  0  0  0  0  0  0  0  0
  -14.5562  -25.4712   20.6736 C   0  0  0  0  0  0  0  0  0  0  0  0
  -16.9857  -24.8940   21.9027 C   0  0  0  0  0  0  0  0  0  0  0  0
  -22.8170  -23.0504   21.5831 C   0  0  0  0  0  0  0  0  0  0  0  0
  -22.2342   -8.7608   20.2489 C   0  0  0  0  0  0  0  0  0  0  0  0
  -22.9652   -8.8094   22.5512 C   0  0  0  0  0  0  0  0  0  0  0  0
  -23.7371  -22.6753   22.5611 C   0  0  0  0  0  0  0  0  0  0  0  0
  -23.2101   -5.4712   22.0747 C   0  0  0  0  0  0  0  0  0  0  0  0
  -23.8001   -4.4534   22.8241 C   0  0  0  0  0  0  0  0  0  0  0  0
  -23.1747  -20.3585   22.1929 C   0  0  0  0  0  0  0  0  0  0  0  0
  -22.0804   -4.6934   24.5040 C   0  0  0  0  0  0  0  0  0  0  0  0
  -27.6895  -17.9177   22.8549 C   0  0  0  0  0  0  0  0  0  0  0  0
  -28.2494  -20.0072   22.4605 C   0  0  0  0  0  0  0  0  0  0  0  0
  -23.7476  -10.4879   20.9996 C   0  0  0  0  0  0  0  0  0  0  0  0
  -24.1312  -13.0039   20.8256 C   0  0  0  0  0  0  0  0  0  0  0  0
  -15.0190  -24.1461   20.6943 C   0  0  0  0  0  0  0  0  0  0  0  0
  -22.0598  -22.0815   20.9092 C   0  0  0  0  0  0  0  0  0  0  0  0
  -16.2428  -23.8506   21.3247 C   0  0  0  0  0  0  0  0  0  0  0  0
  -22.2476  -20.7238   21.2050 C   0  0  0  0  0  0  0  0  0  0  0  0
  -28.3757  -18.7414   21.9425 C   0  0  0  0  0  0  0  0  0  0  0  0
  -22.2171   -8.2175   21.5335 C   0  0  0  0  0  0  0  0  0  0  0  0
  -23.9140  -21.3293   22.8682 C   0  0  0  0  0  0  0  0  0  0  0  0
  -22.0552   -6.1002   22.5400 C   0  0  0  0  0  0  0  0  0  0  0  0
  -23.2352   -4.0645   24.0387 C   0  0  0  0  0  0  0  0  0  0  0  0
  -21.4904   -5.7112   23.7546 C   0  0  0  0  0  0  0  0  0  0  0  0
  -24.5388  -11.6603   20.7244 C   0  0  0  0  0  0  0  0  0  0  0  0
  -25.2396  -13.7275   20.4593 C   0  0  0  0  0  0  0  0  0  0  0  0
  -22.8639  -13.5492   21.2161 C   0  0  0  0  0  0  0  0  0  0  0  0
  -18.9578  -21.4349   20.6571 C   0  0  0  0  0  0  0  0  0  0  0  0
  -19.9877  -19.2454   18.4965 C   0  0  0  0  0  0  0  0  0  0  0  0
  -22.5265  -17.2674   17.3614 C   0  0  0  0  0  0  0  0  0  0  0  0
  -30.7361  -14.6648   20.6949 C   0  0  0  0  0  0  0  0  0  0  0  0
  -14.1531  -23.0653   20.0968 C   0  0  0  0  0  0  0  0  0  0  0  0
  -21.0907  -22.5008   19.8380 C   0  0  0  0  0  0  0  0  0  0  0  0
  -21.4739  -19.6433   20.4960 C   0  0  0  0  0  0  0  0  0  0  0  0
  -14.8975  -21.7558   19.8492 C   0  0  0  0  0  0  0  0  0  0  0  0
  -29.5907  -12.2433   18.3494 C   0  0  0  0  0  0  0  0  0  0  0  0
  -15.7315  -21.3769   21.0689 C   0  0  0  0  0  0  0  0  0  0  0  0
  -28.1434  -11.9823   18.7704 C   0  0  0  0  0  0  0  0  0  0  0  0
  -30.4961  -12.4777   19.5566 C   0  0  0  0  0  0  0  0  0  0  0  0
  -28.5890  -13.2706   20.9012 C   0  0  0  0  0  0  0  0  0  0  0  0
  -16.7948  -22.4421   21.3627 C   0  0  1  0  0  0  0  0  0  0  0  0
  -20.0025  -21.4637   19.5775 C   0  0  1  0  0  0  0  0  0  0  0  0
  -27.6270  -13.0838   19.7155 C   0  0  2  0  0  0  0  0  0  0  0  0
  -23.0564  -15.5588   15.6015 C   0  0  0  0  0  0  0  0  0  0  0  0
  -18.4330  -17.1447   20.0713 C   0  0  0  0  0  0  0  0  0  0  0  0
  -19.7394  -15.3785   18.8704 C   0  0  0  0  0  0  0  0  0  0  0  0
  -18.2613  -16.9240   17.5861 C   0  0  0  0  0  0  0  0  0  0  0  0
  -24.6430  -18.9677   16.1830 C   0  0  0  0  0  0  0  0  0  0  0  0
  -29.0744  -18.3390   20.7116 C   0  0  0  0  0  0  0  0  0  0  0  0
  -30.5707  -17.9780   20.8924 C   0  0  0  0  0  0  0  0  0  0  0  0
  -27.1149  -20.9789   24.5461 C   0  0  0  0  0  0  0  0  0  0  0  0
  -30.8207  -16.8423   21.8824 C   0  0  0  0  0  0  0  0  0  0  0  0
  -25.9510  -21.7999   24.0019 C   0  0  0  0  0  0  0  0  0  1  0  0
  -20.4223  -17.8012   18.5621 C   0  0  1  0  0  0  0  0  0  0  0  0
  -23.0755  -17.0353   15.9652 C   0  0  2  0  0  0  0  0  0  0  0  0
  -19.2273  -16.8323   18.7874 C   0  0  0  0  0  0  0  0  0  0  0  0
  -27.1662  -18.6026   23.8752 N   0  0  0  0  0  0  0  0  0  0  0  0
  -25.8071  -11.5349   20.3248 N   0  0  0  0  0  0  0  0  0  0  0  0
  -27.5237  -19.8701   23.6071 N   0  0  0  0  0  0  0  0  0  0  0  0
  -26.2060  -12.8091   20.1717 N   0  0  0  0  0  0  0  0  0  0  0  0
  -20.5338  -20.1041   19.4610 N   0  0  0  0  0  0  0  0  0  0  0  0
  -29.9509  -13.5351   20.4114 N   0  0  0  0  0  0  0  0  0  0  0  0
  -25.4721  -15.0535   20.3582 N   0  0  0  0  0  0  0  0  0  0  0  0
  -21.8335  -12.6641   21.5612 N   0  0  0  0  0  0  0  0  0  0  0  0
  -17.9088  -22.3098   20.4483 N   0  0  0  0  0  0  0  0  0  0  0  0
  -21.1763  -17.5459   17.3395 N   0  0  0  0  0  0  0  0  0  0  0  0
  -30.1413  -15.6222   21.5074 N   0  0  0  0  0  0  0  0  0  0  0  0
  -24.4804  -17.5239   15.8731 N   0  3  0  0  0  0  0  0  0  0  0  0
  -22.6466  -14.7844   21.2418 O   0  0  0  0  0  0  0  0  0  0  0  0
  -19.0927  -20.6740   21.6082 O   0  0  0  0  0  0  0  0  0  0  0  0
  -19.1985  -19.6001   17.6173 O   0  0  0  0  0  0  0  0  0  0  0  0
  -23.2249  -17.2041   18.3707 O   0  0  0  0  0  0  0  0  0  0  0  0
  -31.8803  -14.8118   20.2520 O   0  0  0  0  0  0  0  0  0  0  0  0
  -21.4702   -7.1099   21.7944 O   0  0  0  0  0  0  0  0  0  0  0  0
  -24.8110  -20.9605   23.8228 O   0  0  0  0  0  0  0  0  0  1  0  0
  -23.8010   -3.0860   24.7575 F   0  0  0  0  0  0  0  0  0  0  0  0
  -20.3803   -6.3110   24.2062 F   0  0  0  0  0  0  0  0  0  0  0  0
  1  2  1  0  0  0  0
  1  5  2  0  0  0  0
  2  6  2  0  0  0  0
  3  8  2  0  0  0  0
  3 17  1  0  0  0  0
  4  9  1  0  0  0  0
  4 17  2  0  0  0  0
  5 19  1  0  0  0  0
  6 21  1  0  0  0  0
  7 10  2  0  0  0  0
  7 20  1  0  0  0  0
  8 24  1  0  0  0  0
  9 24  2  0  0  0  0
 10 25  1  0  0  0  0
 11 12  2  0  0  0  0
 11 26  1  0  0  0  0
 12 27  1  0  0  0  0
 13 22  1  0  0  0  0
 13 25  2  0  0  0  0
 14 27  2  0  0  0  0
 14 28  1  0  0  0  0
 15 23  1  0  0  0  0
 15 61  2  0  0  0  0
 16 23  2  0  0  0  0
 16 63  1  0  0  0  0
 17 29  1  0  0  0  0
 18 29  1  0  0  0  0
 18 30  2  0  0  0  0
 18 31  1  0  0  0  0
 19 21  2  0  0  0  0
 19 36  1  0  0  0  0
 20 22  2  0  0  0  0
 20 37  1  0  0  0  0
 21 45  1  0  0  0  0
 22 38  1  0  0  0  0
 23 53  1  0  0  0  0
 24 78  1  0  0  0  0
 25 79  1  0  0  0  0
 26 28  2  0  0  0  0
 26 78  1  0  0  0  0
 27 80  1  0  0  0  0
 28 81  1  0  0  0  0
 29 62  2  0  0  0  0
 30 64  1  0  0  0  0
 30 67  1  0  0  0  0
 31 68  1  0  0  0  0
 31 73  2  0  0  0  0
 32 46  1  0  0  0  0
 32 69  1  0  0  0  0
 32 74  2  0  0  0  0
 33 58  1  0  0  0  0
 33 65  1  0  0  0  0
 33 75  2  0  0  0  0
 34 59  1  0  0  0  0
 34 70  1  0  0  0  0
 34 76  2  0  0  0  0
 35 66  1  0  0  0  0
 35 71  1  0  0  0  0
 35 77  2  0  0  0  0
 36 39  1  0  0  0  0
 37 46  1  0  0  0  0
 38 65  1  0  0  0  0
 39 41  1  0  0  0  0
 40 42  1  0  0  0  0
 40 43  1  0  0  0  0
 41 45  1  0  0  0  0
 42 47  1  0  0  0  0
 43 66  1  0  0  0  0
 44 47  1  0  0  0  0
 44 66  1  0  0  0  0
 45 69  1  0  0  0  0
 46 65  1  0  0  0  0
 47 64  1  0  0  0  0
 48 59  1  0  0  0  0
 49 60  1  0  0  0  0
 50 60  1  0  0  0  0
 51 60  1  0  0  0  0
 52 72  1  0  0  0  0
 53 54  1  0  0  0  0
 54 56  1  0  0  0  0
 55 57  1  0  0  0  0
 55 63  1  0  0  0  0
 56 71  1  0  0  0  0
 57 79  1  0  0  0  0
 58 60  1  0  0  0  0
 58 70  1  0  0  0  0
 59 72  1  0  0  0  0
 61 63  1  0  0  0  0
 62 64  1  0  0  0  0
M  CHG  1  72   1
M  ISO  4  35 100  57 101  71 100  79 101
M  END
> <Batch ID>
0041

> <Smiles>
CNC(C)C(=O)NC(C(=O)N1Cc2cc([101O:1][101CH2:1]Cn3cc(CCC[100NH:0][100C:0](=O)N4CCCC(n5nc(-c6ccc(Oc7ccc(F)cc7F)cc6)c(C(N)=O)c5N)C4)cn3)ccc2CC1C(=O)NC1CCCc2ccccc21)C(C)(C)C

> <Shape>
0.189

> <Color>
0.202

> <Negative vol penalty>
0.000

$$$$

  -OEChem-04052317093D

 83 91  0     1  0  0  0  0  0999 V2000
  -22.9460  -20.5052   19.0119 C   0  0  0  0  0  0  0  0  0  0  0  0
  -24.0806  -21.2739   18.7727 C   0  0  0  0  0  0  0  0  0  0  0  0
  -24.9395  -13.1711   21.7792 C   0  0  0  0  0  0  0  0  0  0  0  0
  -26.4787  -12.9764   19.9271 C   0  0  0  0  0  0  0  0  0  0  0  0
  -21.7490  -21.1239   19.3699 C   0  0  0  0  0  0  0  0  0  0  0  0
  -24.0185  -22.6620   18.8904 C   0  0  0  0  0  0  0  0  0  0  0  0
  -27.9722  -24.5771   21.4093 C   0  0  0  0  0  0  0  0  0  0  0  0
  -24.1581  -12.1508   21.2371 C   0  0  0  0  0  0  0  0  0  0  0  0
  -25.6973  -11.9560   19.3850 C   0  0  0  0  0  0  0  0  0  0  0  0
  -29.1737  -24.6972   20.7122 C   0  0  0  0  0  0  0  0  0  0  0  0
  -24.2352   -8.7744   21.0717 C   0  0  0  0  0  0  0  0  0  0  0  0
  -23.7798   -7.7782   21.9352 C   0  0  0  0  0  0  0  0  0  0  0  0
  -28.7307  -27.0429   20.3648 C   0  0  0  0  0  0  0  0  0  0  0  0
  -30.6561  -25.3051   15.6164 C   0  0  0  0  0  0  0  0  0  0  0  0
  -31.9090  -24.1188   17.2919 C   0  0  0  0  0  0  0  0  0  0  0  0
  -21.4964   -8.3513   21.3924 C   0  0  0  0  0  0  0  0  0  0  0  0
  -26.0998  -13.5840   21.1242 C   0  0  0  0  0  0  0  0  0  0  0  0
  -27.9776  -14.5010   22.5872 C   0  0  0  0  0  0  0  0  0  0  0  0
  -21.6746  -22.5195   19.5014 C   0  0  0  0  0  0  0  0  0  0  0  0
  -27.1343  -25.6885   21.5802 C   0  0  0  0  0  0  0  0  0  0  0  0
  -22.8189  -23.3000   19.2492 C   0  0  0  0  0  0  0  0  0  0  0  0
  -27.5203  -26.9348   21.0667 C   0  0  0  0  0  0  0  0  0  0  0  0
  -31.4460  -25.3174   16.7606 C   0  0  0  0  0  0  0  0  0  0  0  0
  -24.5370  -11.5432   20.0401 C   0  0  0  0  0  0  0  0  0  0  0  0
  -29.5517  -25.9296   20.1874 C   0  0  0  0  0  0  0  0  0  0  0  0
  -23.3212   -9.5592   20.3685 C   0  0  0  0  0  0  0  0  0  0  0  0
  -22.4104   -7.5666   22.0956 C   0  0  0  0  0  0  0  0  0  0  0  0
  -21.9518   -9.3476   20.5288 C   0  0  0  0  0  0  0  0  0  0  0  0
  -26.9071  -14.6383   21.6834 C   0  0  0  0  0  0  0  0  0  0  0  0
  -30.3601  -24.0776   15.0458 C   0  0  0  0  0  0  0  0  0  0  0  0
  -31.5567  -22.9444   16.6465 C   0  0  0  0  0  0  0  0  0  0  0  0
  -28.4075  -15.7866   22.8082 C   0  0  0  0  0  0  0  0  0  0  0  0
  -28.5338  -13.3172   23.1745 C   0  0  0  0  0  0  0  0  0  0  0  0
  -24.1698  -26.4197   20.6967 C   0  0  0  0  0  0  0  0  0  0  0  0
  -24.6862  -29.0437   22.5325 C   0  0  0  0  0  0  0  0  0  0  0  0
  -26.9263  -31.1986   23.9416 C   0  0  0  0  0  0  0  0  0  0  0  0
  -28.0586  -20.8149   19.5761 C   0  0  0  0  0  0  0  0  0  0  0  0
  -20.3465  -23.1465   19.8445 C   0  0  0  0  0  0  0  0  0  0  0  0
  -25.8544  -25.5483   22.3577 C   0  0  0  0  0  0  0  0  0  0  0  0
  -26.6661  -28.1631   21.2403 C   0  0  0  0  0  0  0  0  0  0  0  0
  -20.4597  -24.5949   20.3131 C   0  0  0  0  0  0  0  0  0  0  0  0
  -26.8291  -20.3027   22.8780 C   0  0  0  0  0  0  0  0  0  0  0  0
  -21.3777  -25.3856   19.3864 C   0  0  0  0  0  0  0  0  0  0  0  0
  -26.8062  -18.7805   23.0278 C   0  0  0  0  0  0  0  0  0  0  0  0
  -26.4548  -20.7361   21.4624 C   0  0  0  0  0  0  0  0  0  0  0  0
  -27.2271  -18.5847   20.5412 C   0  0  0  0  0  0  0  0  0  0  0  0
  -22.7976  -24.8065   19.3908 C   0  0  1  0  0  0  0  0  0  0  0  0
  -24.8332  -26.6327   22.0280 C   0  0  1  0  0  0  0  0  0  0  0  0
  -27.6522  -18.0969   21.9368 C   0  0  2  0  0  0  0  0  0  0  0  0
  -29.5164  -24.0262   13.8161 C   0  0  0  0  0  0  0  0  0  0  0  0
  -27.0471  -33.2676   25.3565 C   0  0  0  0  0  0  0  0  0  0  0  0
  -23.8689  -30.7335   20.1269 C   0  0  0  0  0  0  0  0  0  0  0  0
  -24.9006  -32.7153   21.2565 C   0  0  0  0  0  0  0  0  0  0  0  0
  -22.9749  -31.5386   22.3194 C   0  0  0  0  0  0  0  0  0  0  0  0
  -28.4315  -29.7961   26.0692 C   0  0  0  0  0  0  0  0  0  0  0  0
  -31.8001  -26.6267   17.4228 C   0  0  0  0  0  0  0  0  0  0  0  0
  -32.0346  -21.6396   17.1902 C   0  0  0  0  0  0  0  0  0  0  0  0
  -31.0866  -20.9921   18.2184 C   0  0  0  0  0  0  0  0  0  0  0  0
  -29.6757  -20.7309   17.6954 C   0  0  0  0  0  0  0  0  0  0  0  0
  -30.7790  -27.0376   18.4781 C   0  0  0  0  0  0  0  0  0  1  0  0
  -25.2446  -30.4252   22.2899 C   0  0  1  0  0  0  0  0  0  0  0  0
  -27.0462  -31.7469   25.3521 C   0  0  2  0  0  0  0  0  0  0  0  0
  -24.2626  -31.3298   21.4931 C   0  0  0  0  0  0  0  0  0  0  0  0
  -26.6712  -15.9108   21.3530 N   0  0  0  0  0  0  0  0  0  0  0  0
  -30.7915  -22.8928   15.5331 N   0  0  0  0  0  0  0  0  0  0  0  0
  -27.5995  -16.5848   22.0530 N   0  0  0  0  0  0  0  0  0  0  0  0
  -25.4209  -27.9736   22.0026 N   0  0  0  0  0  0  0  0  0  0  0  0
  -27.2949  -20.0530   20.4758 N   0  0  0  0  0  0  0  0  0  0  0  0
  -29.3939  -16.3009   23.5730 N   0  0  0  0  0  0  0  0  0  0  0  0
  -27.9721  -12.0777   22.8390 N   0  0  0  0  0  0  0  0  0  0  0  0
  -23.5056  -25.2131   20.5857 N   0  0  0  0  0  0  0  0  0  0  0  0
  -25.6135  -30.9521   23.5994 N   0  0  0  0  0  0  0  0  0  0  0  0
  -28.8317  -20.0889   18.6784 N   0  0  0  0  0  0  0  0  0  0  0  0
  -28.3095  -31.2743   25.9859 N   0  3  0  0  0  0  0  0  0  0  0  0
  -29.4896  -13.3586   23.9857 O   0  0  0  0  0  0  0  0  0  0  0  0
  -24.2531  -27.2866   19.8346 O   0  0  0  0  0  0  0  0  0  0  0  0
  -23.6406  -28.9183   23.1749 O   0  0  0  0  0  0  0  0  0  0  0  0
  -27.8995  -31.0114   23.2148 O   0  0  0  0  0  0  0  0  0  0  0  0
  -28.0560  -22.0506   19.5767 O   0  0  0  0  0  0  0  0  0  0  0  0
  -23.7748  -10.5473   19.5109 O   0  0  0  0  0  0  0  0  0  0  0  0
  -30.7235  -26.0494   19.5060 O   0  0  0  0  0  0  0  0  0  1  0  0
  -21.9733   -6.6089   22.9237 F   0  0  0  0  0  0  0  0  0  0  0  0
  -21.0689  -10.0976   19.8551 F   0  0  0  0  0  0  0  0  0  0  0  0
  1  2  1  0  0  0  0
  1  5  2  0  0  0  0
  2  6  2  0  0  0  0
  3  8  2  0  0  0  0
  3 17  1  0  0  0  0
  4  9  1  0  0  0  0
  4 17  2  0  0  0  0
  5 19  1  0  0  0  0
  6 21  1  0  0  0  0
  7 10  2  0  0  0  0
  7 20  1  0  0  0  0
  8 24  1  0  0  0  0
  9 24  2  0  0  0  0
 10 25  1  0  0  0  0
 11 12  2  0  0  0  0
 11 26  1  0  0  0  0
 12 27  1  0  0  0  0
 13 22  1  0  0  0  0
 13 25  2  0  0  0  0
 14 23  1  0  0  0  0
 14 30  2  0  0  0  0
 15 23  2  0  0  0  0
 15 31  1  0  0  0  0
 16 27  2  0  0  0  0
 16 28  1  0  0  0  0
 17 29  1  0  0  0  0
 18 29  1  0  0  0  0
 18 32  2  0  0  0  0
 18 33  1  0  0  0  0
 19 21  2  0  0  0  0
 19 38  1  0  0  0  0
 20 22  2  0  0  0  0
 20 39  1  0  0  0  0
 21 47  1  0  0  0  0
 22 40  1  0  0  0  0
 23 56  1  0  0  0  0
 24 80  1  0  0  0  0
 25 81  1  0  0  0  0
 26 28  2  0  0  0  0
 26 80  1  0  0  0  0
 27 82  1  0  0  0  0
 28 83  1  0  0  0  0
 29 64  2  0  0  0  0
 30 50  1  0  0  0  0
 30 65  1  0  0  0  0
 31 57  1  0  0  0  0
 31 65  2  0  0  0  0
 32 66  1  0  0  0  0
 32 69  1  0  0  0  0
 33 70  1  0  0  0  0
 33 75  2  0  0  0  0
 34 48  1  0  0  0  0
 34 71  1  0  0  0  0
 34 76  2  0  0  0  0
 35 61  1  0  0  0  0
 35 67  1  0  0  0  0
 35 77  2  0  0  0  0
 36 62  1  0  0  0  0
 36 72  1  0  0  0  0
 36 78  2  0  0  0  0
 37 68  1  0  0  0  0
 37 73  1  0  0  0  0
 37 79  2  0  0  0  0
 38 41  1  0  0  0  0
 39 48  1  0  0  0  0
 40 67  1  0  0  0  0
 41 43  1  0  0  0  0
 42 44  1  0  0  0  0
 42 45  1  0  0  0  0
 43 47  1  0  0  0  0
 44 49  1  0  0  0  0
 45 68  1  0  0  0  0
 46 49  1  0  0  0  0
 46 68  1  0  0  0  0
 47 71  1  0  0  0  0
 48 67  1  0  0  0  0
 49 66  1  0  0  0  0
 51 62  1  0  0  0  0
 52 63  1  0  0  0  0
 53 63  1  0  0  0  0
 54 63  1  0  0  0  0
 55 74  1  0  0  0  0
 56 60  1  0  0  0  0
 57 58  1  0  0  0  0
 58 59  1  0  0  0  0
 59 73  1  0  0  0  0
 60 81  1  0  0  0  0
 61 63  1  0  0  0  0
 61 72  1  0  0  0  0
 62 74  1  0  0  0  0
 64 66  1  0  0  0  0
M  CHG  1  74   1
M  ISO  4  37 100  60 101  73 100  81 101
M  END
> <Batch ID>
0041

> <Smiles>
CNC(C)C(=O)NC(C(=O)N1Cc2cc([101O:1][101CH2:1]Cc3cc(C)nc(CCC[100NH:0][100C:0](=O)N4CCCC(n5nc(-c6ccc(Oc7ccc(F)cc7F)cc6)c(C(N)=O)c5N)C4)c3)ccc2CC1C(=O)NC1CCCc2ccccc21)C(C)(C)C

> <Shape>
0.237

> <Color>
0.063

> <Negative vol penalty>
0.000

$$$$

  -OEChem-04052317093D

 84 92  0     1  0  0  0  0  0999 V2000
  -22.1578   -8.1609   20.7153 C   0  0  0  0  0  0  0  0  0  0  0  0
  -21.9401   -9.5343   20.6746 C   0  0  0  0  0  0  0  0  0  0  0  0
  -25.5515  -31.5107   22.3687 C   0  0  0  0  0  0  0  0  0  0  0  0
  -26.7398  -32.0057   20.3242 C   0  0  0  0  0  0  0  0  0  0  0  0
  -23.3564   -7.6610   21.2228 C   0  0  0  0  0  0  0  0  0  0  0  0
  -22.9205  -10.4087   21.1424 C   0  0  0  0  0  0  0  0  0  0  0  0
  -23.6671  -14.3342   18.0313 C   0  0  0  0  0  0  0  0  0  0  0  0
  -25.7459  -32.8230   22.7995 C   0  0  0  0  0  0  0  0  0  0  0  0
  -26.9341  -33.3181   20.7550 C   0  0  0  0  0  0  0  0  0  0  0  0
  -22.7334  -15.3686   18.0760 C   0  0  0  0  0  0  0  0  0  0  0  0
  -24.3863  -35.8634   22.2162 C   0  0  0  0  0  0  0  0  0  0  0  0
  -23.2960  -36.5307   22.7743 C   0  0  0  0  0  0  0  0  0  0  0  0
  -24.2337  -16.6549   19.4594 C   0  0  0  0  0  0  0  0  0  0  0  0
  -24.5228  -36.8102   24.8368 C   0  0  0  0  0  0  0  0  0  0  0  0
  -23.2271  -21.3746   16.0021 C   0  0  0  0  0  0  0  0  0  0  0  0
  -26.0485  -31.1020   21.1311 C   0  0  0  0  0  0  0  0  0  0  0  0
  -24.7660  -29.2488   19.9359 C   0  0  0  0  0  0  0  0  0  0  0  0
  -24.3559   -8.5300   21.6881 C   0  0  0  0  0  0  0  0  0  0  0  0
  -24.8886  -14.4481   18.7105 C   0  0  0  0  0  0  0  0  0  0  0  0
  -24.1330   -9.9199   21.6578 C   0  0  0  0  0  0  0  0  0  0  0  0
  -25.1823  -15.6215   19.4196 C   0  0  0  0  0  0  0  0  0  0  0  0
  -24.0479  -21.7550   17.0442 C   0  0  0  0  0  0  0  0  0  0  0  0
  -26.4372  -33.7267   21.9926 C   0  0  0  0  0  0  0  0  0  0  0  0
  -23.0154  -16.5280   18.7925 C   0  0  0  0  0  0  0  0  0  0  0  0
  -25.5449  -35.6694   22.9684 C   0  0  0  0  0  0  0  0  0  0  0  0
  -23.3642  -37.0041   24.0846 C   0  0  0  0  0  0  0  0  0  0  0  0
  -25.6131  -36.1429   24.2787 C   0  0  0  0  0  0  0  0  0  0  0  0
  -25.8485  -29.7463   20.6858 C   0  0  0  0  0  0  0  0  0  0  0  0
  -23.7329  -21.2220   18.2774 C   0  0  0  0  0  0  0  0  0  0  0  0
  -25.0452  -27.9138   19.7739 C   0  0  0  0  0  0  0  0  0  0  0  0
  -21.9734  -20.0864   17.3934 C   0  0  0  0  0  0  0  0  0  0  0  0
  -23.6112  -29.9324   19.4308 C   0  0  0  0  0  0  0  0  0  0  0  0
  -26.2988  -12.8559   21.0727 C   0  0  0  0  0  0  0  0  0  0  0  0
  -28.7949  -14.8064   20.3749 C   0  0  0  0  0  0  0  0  0  0  0  0
  -29.8853  -17.7507   19.0373 C   0  0  0  0  0  0  0  0  0  0  0  0
  -28.6291  -23.7980   18.6072 C   0  0  0  0  0  0  0  0  0  0  0  0
  -25.6158   -7.9412   22.2715 C   0  0  0  0  0  0  0  0  0  0  0  0
  -25.8962  -13.3342   18.6303 C   0  0  0  0  0  0  0  0  0  0  0  0
  -26.4876  -15.8017   20.1491 C   0  0  0  0  0  0  0  0  0  0  0  0
  -26.7557   -8.9483   22.4009 C   0  0  0  0  0  0  0  0  0  0  0  0
  -28.5506  -24.9947   21.9596 C   0  0  0  0  0  0  0  0  0  0  0  0
  -26.2513  -10.2490   23.0179 C   0  0  0  0  0  0  0  0  0  0  0  0
  -27.7571  -26.2990   21.8639 C   0  0  0  0  0  0  0  0  0  0  0  0
  -29.4353  -24.7810   20.7333 C   0  0  0  0  0  0  0  0  0  0  0  0
  -27.9361  -26.1586   19.3446 C   0  0  0  0  0  0  0  0  0  0  0  0
  -25.1824  -10.9013   22.1329 C   0  0  1  0  0  0  0  0  0  0  0  0
  -26.8946  -13.3474   19.7838 C   0  0  1  0  0  0  0  0  0  0  0  0
  -26.9870  -26.3904   20.5328 C   0  0  2  0  0  0  0  0  0  0  0  0
  -23.8629  -22.5846   20.3781 C   0  0  0  0  0  0  0  0  0  0  0  0
  -31.9762  -19.0820   18.6461 C   0  0  0  0  0  0  0  0  0  0  0  0
  -28.8439  -15.5912   23.3230 C   0  0  0  0  0  0  0  0  0  0  0  0
  -30.2584  -17.5618   22.7032 C   0  0  0  0  0  0  0  0  0  0  0  0
  -31.0988  -15.2485   22.2971 C   0  0  0  0  0  0  0  0  0  0  0  0
  -29.5120  -17.6924   16.1019 C   0  0  0  0  0  0  0  0  0  0  0  0
  -25.1893  -22.6797   16.8258 C   0  0  0  0  0  0  0  0  0  0  0  0
  -24.5520  -21.5631   19.4783 C   0  0  0  0  0  0  0  0  0  0  0  0
  -20.8077  -19.1478   17.5898 C   0  0  0  0  0  0  0  0  0  0  0  0
  -26.5677  -21.9904   16.7293 C   0  0  0  0  0  0  0  0  0  0  0  0
  -27.7278  -22.9457   16.4577 C   0  0  0  0  0  0  0  0  0  0  0  0
  -21.2483  -17.6929   17.7080 C   0  0  0  0  0  0  0  0  0  1  0  0
  -29.2494  -16.1690   20.8395 C   0  0  1  0  0  0  0  0  0  0  0  0
  -31.0102  -18.0605   18.0662 C   0  0  2  0  0  0  0  0  0  0  0  0
  -29.8372  -16.1387   22.2787 C   0  0  0  0  0  0  0  0  0  0  0  0
  -22.1771  -20.5389   16.1415 N   0  0  0  0  0  0  0  0  0  0  0  0
  -26.7483  -28.8041   20.9799 N   0  0  0  0  0  0  0  0  0  0  0  0
  -22.6988  -20.3816   18.4889 N   0  0  0  0  0  0  0  0  0  0  0  0
  -26.2317  -27.7011   20.4120 N   0  0  0  0  0  0  0  0  0  0  0  0
  -27.4377  -14.6818   20.0460 N   0  0  0  0  0  0  0  0  0  0  0  0
  -28.6440  -24.8787   19.5044 N   0  0  0  0  0  0  0  0  0  0  0  0
  -24.3891  -26.9129   19.1493 N   0  0  0  0  0  0  0  0  0  0  0  0
  -23.4810  -31.3039   19.6881 N   0  0  0  0  0  0  0  0  0  0  0  0
  -25.7978  -11.5698   21.0065 N   0  0  0  0  0  0  0  0  0  0  0  0
  -30.1773  -16.6576   19.8253 N   0  0  0  0  0  0  0  0  0  0  0  0
  -27.8489  -23.9706   17.4705 N   0  0  0  0  0  0  0  0  0  0  0  0
  -30.4600  -18.6043   16.7924 N   0  3  0  0  0  0  0  0  0  0  0  0
  -22.7132  -29.3409   18.7849 O   0  0  0  0  0  0  0  0  0  0  0  0
  -26.2953  -13.5886   22.0549 O   0  0  0  0  0  0  0  0  0  0  0  0
  -29.6155  -13.8884   20.2994 O   0  0  0  0  0  0  0  0  0  0  0  0
  -28.8524  -18.4145   19.0938 O   0  0  0  0  0  0  0  0  0  0  0  0
  -29.2600  -22.7545   18.8072 O   0  0  0  0  0  0  0  0  0  0  0  0
  -26.6268  -35.0074   22.4126 O   0  0  0  0  0  0  0  0  0  0  0  0
  -22.1056  -17.5389   18.8383 O   0  0  0  0  0  0  0  0  0  1  0  0
  -22.3177  -37.6462   24.6199 F   0  0  0  0  0  0  0  0  0  0  0  0
  -26.7239  -35.9606   25.0058 F   0  0  0  0  0  0  0  0  0  0  0  0
  1  2  1  0  0  0  0
  1  5  2  0  0  0  0
  2  6  2  0  0  0  0
  3  8  2  0  0  0  0
  3 16  1  0  0  0  0
  4  9  1  0  0  0  0
  4 16  2  0  0  0  0
  5 18  1  0  0  0  0
  6 20  1  0  0  0  0
  7 10  2  0  0  0  0
  7 19  1  0  0  0  0
  8 23  1  0  0  0  0
  9 23  2  0  0  0  0
 10 24  1  0  0  0  0
 11 12  2  0  0  0  0
 11 25  1  0  0  0  0
 12 26  1  0  0  0  0
 13 21  1  0  0  0  0
 13 24  2  0  0  0  0
 14 26  2  0  0  0  0
 14 27  1  0  0  0  0
 15 22  1  0  0  0  0
 15 64  2  0  0  0  0
 16 28  1  0  0  0  0
 17 28  1  0  0  0  0
 17 30  2  0  0  0  0
 17 32  1  0  0  0  0
 18 20  2  0  0  0  0
 18 37  1  0  0  0  0
 19 21  2  0  0  0  0
 19 38  1  0  0  0  0
 20 46  1  0  0  0  0
 21 39  1  0  0  0  0
 22 29  2  0  0  0  0
 22 55  1  0  0  0  0
 23 81  1  0  0  0  0
 24 82  1  0  0  0  0
 25 27  2  0  0  0  0
 25 81  1  0  0  0  0
 26 83  1  0  0  0  0
 27 84  1  0  0  0  0
 28 65  2  0  0  0  0
 29 56  1  0  0  0  0
 29 66  1  0  0  0  0
 30 67  1  0  0  0  0
 30 70  1  0  0  0  0
 31 57  1  0  0  0  0
 31 64  1  0  0  0  0
 31 66  2  0  0  0  0
 32 71  1  0  0  0  0
 32 76  2  0  0  0  0
 33 47  1  0  0  0  0
 33 72  1  0  0  0  0
 33 77  2  0  0  0  0
 34 61  1  0  0  0  0
 34 68  1  0  0  0  0
 34 78  2  0  0  0  0
 35 62  1  0  0  0  0
 35 73  1  0  0  0  0
 35 79  2  0  0  0  0
 36 69  1  0  0  0  0
 36 74  1  0  0  0  0
 36 80  2  0  0  0  0
 37 40  1  0  0  0  0
 38 47  1  0  0  0  0
 39 68  1  0  0  0  0
 40 42  1  0  0  0  0
 41 43  1  0  0  0  0
 41 44  1  0  0  0  0
 42 46  1  0  0  0  0
 43 48  1  0  0  0  0
 44 69  1  0  0  0  0
 45 48  1  0  0  0  0
 45 69  1  0  0  0  0
 46 72  1  0  0  0  0
 47 68  1  0  0  0  0
 48 67  1  0  0  0  0
 49 56  1  0  0  0  0
 50 62  1  0  0  0  0
 51 63  1  0  0  0  0
 52 63  1  0  0  0  0
 53 63  1  0  0  0  0
 54 75  1  0  0  0  0
 55 58  1  0  0  0  0
 57 60  1  0  0  0  0
 58 59  1  0  0  0  0
 59 74  1  0  0  0  0
 60 82  1  0  0  0  0
 61 63  1  0  0  0  0
 61 73  1  0  0  0  0
 62 75  1  0  0  0  0
 65 67  1  0  0  0  0
M  CHG  1  75   1
M  ISO  4  36 100  60 101  74 100  82 101
M  END
> <Batch ID>
0041

> <Smiles>
CCc1nc(C[101CH2:1][101O:1]c2ccc3c(c2)CN(C(=O)C(NC(=O)C(C)NC)C(C)(C)C)C(C(=O)NC2CCCc4ccccc42)C3)ncc1CCC[100NH:0][100C:0](=O)N1CCCC(n2nc(-c3ccc(Oc4ccc(F)cc4F)cc3)c(C(N)=O)c2N)C1

> <Shape>
0.269

> <Color>
0.068

> <Negative vol penalty>
0.000

$$$$

  -OEChem-04052317093D

 82 90  0     1  0  0  0  0  0999 V2000
  -27.6891  -23.6290   14.8737 C   0  0  0  0  0  0  0  0  0  0  0  0
  -26.6170  -23.8983   15.7183 C   0  0  0  0  0  0  0  0  0  0  0  0
  -27.8761  -14.3694   21.5929 C   0  0  0  0  0  0  0  0  0  0  0  0
  -26.6503  -14.9671   19.5986 C   0  0  0  0  0  0  0  0  0  0  0  0
  -28.9950  -23.7441   15.3483 C   0  0  0  0  0  0  0  0  0  0  0  0
  -26.8502  -24.2818   17.0386 C   0  0  0  0  0  0  0  0  0  0  0  0
  -23.9607  -28.1879   18.4662 C   0  0  0  0  0  0  0  0  0  0  0  0
  -27.3099  -13.0952   21.5591 C   0  0  0  0  0  0  0  0  0  0  0  0
  -26.0841  -13.6928   19.5647 C   0  0  0  0  0  0  0  0  0  0  0  0
  -22.6324  -27.9131   18.7882 C   0  0  0  0  0  0  0  0  0  0  0  0
  -24.0393  -10.7158   19.1570 C   0  0  0  0  0  0  0  0  0  0  0  0
  -22.6696  -10.6213   18.9109 C   0  0  0  0  0  0  0  0  0  0  0  0
  -23.1989  -27.9529   21.1327 C   0  0  0  0  0  0  0  0  0  0  0  0
  -20.0224  -22.7125   20.3450 C   0  0  0  0  0  0  0  0  0  0  0  0
  -21.9535  -24.1303   20.5578 C   0  0  0  0  0  0  0  0  0  0  0  0
  -22.2236  -11.9349   20.8890 C   0  0  0  0  0  0  0  0  0  0  0  0
  -27.5463  -15.3055   20.6127 C   0  0  0  0  0  0  0  0  0  0  0  0
  -29.3283  -17.0371   20.0353 C   0  0  0  0  0  0  0  0  0  0  0  0
  -29.2445  -24.1386   16.6723 C   0  0  0  0  0  0  0  0  0  0  0  0
  -24.9219  -28.3368   19.4763 C   0  0  0  0  0  0  0  0  0  0  0  0
  -28.1606  -24.4010   17.5317 C   0  0  0  0  0  0  0  0  0  0  0  0
  -24.5382  -28.2322   20.8209 C   0  0  0  0  0  0  0  0  0  0  0  0
  -20.5879  -23.9258   20.7211 C   0  0  0  0  0  0  0  0  0  0  0  0
  -26.4139  -12.7568   20.5450 C   0  0  0  0  0  0  0  0  0  0  0  0
  -22.2518  -27.7927   20.1216 C   0  0  0  0  0  0  0  0  0  0  0  0
  -24.5012  -11.4198   20.2691 C   0  0  0  0  0  0  0  0  0  0  0  0
  -21.7617  -11.2309   19.7768 C   0  0  0  0  0  0  0  0  0  0  0  0
  -23.5933  -12.0293   21.1350 C   0  0  0  0  0  0  0  0  0  0  0  0
  -28.1305  -16.6221   20.6474 C   0  0  0  0  0  0  0  0  0  0  0  0
  -20.8591  -21.7437   19.8148 C   0  0  0  0  0  0  0  0  0  0  0  0
  -22.7038  -23.0980   20.0182 C   0  0  0  0  0  0  0  0  0  0  0  0
  -29.4396  -18.3660   20.3641 C   0  0  0  0  0  0  0  0  0  0  0  0
  -30.2574  -16.2883   19.2404 C   0  0  0  0  0  0  0  0  0  0  0  0
  -27.5863  -26.8016   20.2813 C   0  0  0  0  0  0  0  0  0  0  0  0
  -27.8661  -29.2170   22.4284 C   0  0  0  0  0  0  0  0  0  0  0  0
  -26.3330  -31.6382   24.2815 C   0  0  0  0  0  0  0  0  0  0  0  0
  -25.4208  -22.5497   21.8466 C   0  0  0  0  0  0  0  0  0  0  0  0
  -30.6723  -24.2033   17.1536 C   0  0  0  0  0  0  0  0  0  0  0  0
  -26.3454  -28.6596   19.1133 C   0  0  0  0  0  0  0  0  0  0  0  0
  -25.5277  -28.4033   21.9435 C   0  0  0  0  0  0  0  0  0  0  0  0
  -30.8408  -24.9781   18.4581 C   0  0  0  0  0  0  0  0  0  0  0  0
  -28.2225  -21.4942   23.7735 C   0  0  0  0  0  0  0  0  0  0  0  0
  -29.7883  -24.5472   19.4746 C   0  0  0  0  0  0  0  0  0  0  0  0
  -28.6247  -20.1633   23.1356 C   0  0  0  0  0  0  0  0  0  0  0  0
  -26.7071  -21.6828   23.7780 C   0  0  0  0  0  0  0  0  0  0  0  0
  -26.4627  -20.2023   21.8230 C   0  0  0  0  0  0  0  0  0  0  0  0
  -28.3734  -24.8436   18.9631 C   0  0  1  0  0  0  0  0  0  0  0  0
  -27.3410  -28.2821   20.2058 C   0  0  1  0  0  0  0  0  0  0  0  0
  -27.9846  -19.9920   21.7449 C   0  0  2  0  0  0  0  0  0  0  0  0
  -20.2868  -20.4300   19.3986 C   0  0  0  0  0  0  0  0  0  0  0  0
  -26.8184  -33.4287   25.9715 C   0  0  0  0  0  0  0  0  0  0  0  0
  -28.1560  -27.0892   24.5960 C   0  0  0  0  0  0  0  0  0  0  0  0
  -27.6832  -28.8608   26.3006 C   0  0  0  0  0  0  0  0  0  0  0  0
  -29.6971  -29.0436   24.8400 C   0  0  0  0  0  0  0  0  0  0  0  0
  -25.3382  -33.7676   22.4829 C   0  0  0  0  0  0  0  0  0  0  0  0
  -19.7236  -25.0158   21.3028 C   0  0  0  0  0  0  0  0  0  0  0  0
  -24.1726  -23.2822   19.8305 C   0  0  0  0  0  0  0  0  0  0  0  0
  -19.1410  -25.9656   20.2539 C   0  0  0  0  0  0  0  0  0  0  0  0
  -20.2033  -26.7570   19.4997 C   0  0  0  0  0  0  0  0  0  1  0  0
  -27.4062  -29.4439   23.8482 C   0  0  1  0  0  0  0  0  0  0  0  0
  -26.6632  -33.1046   24.4938 C   0  0  2  0  0  0  0  0  0  0  0  0
  -28.2171  -28.6042   24.8752 C   0  0  0  0  0  0  0  0  0  0  0  0
  -27.5242  -17.6075   21.3148 N   0  0  0  0  0  0  0  0  0  0  0  0
  -22.1900  -21.9057   19.6410 N   0  0  0  0  0  0  0  0  0  0  0  0
  -28.3444  -18.6549   21.1240 N   0  0  0  0  0  0  0  0  0  0  0  0
  -26.9088  -28.7117   21.5373 N   0  0  0  0  0  0  0  0  0  0  0  0
  -26.1627  -21.5089   22.4292 N   0  0  0  0  0  0  0  0  0  0  0  0
  -30.3664  -19.3039   20.0747 N   0  0  0  0  0  0  0  0  0  0  0  0
  -29.9905  -14.9337   18.9994 N   0  0  0  0  0  0  0  0  0  0  0  0
  -28.0677  -26.2506   19.1090 N   0  0  0  0  0  0  0  0  0  0  0  0
  -27.4683  -30.8842   24.0722 N   0  0  0  0  0  0  0  0  0  0  0  0
  -24.9466  -22.3053   20.5636 N   0  0  0  0  0  0  0  0  0  0  0  0
  -25.5823  -33.9651   23.9349 N   0  3  0  0  0  0  0  0  0  0  0  0
  -31.3019  -16.8011   18.7718 O   0  0  0  0  0  0  0  0  0  0  0  0
  -27.3572  -26.2037   21.3261 O   0  0  0  0  0  0  0  0  0  0  0  0
  -29.0299  -29.4851   22.1195 O   0  0  0  0  0  0  0  0  0  0  0  0
  -25.1833  -31.2044   24.3033 O   0  0  0  0  0  0  0  0  0  0  0  0
  -25.2021  -23.6197   22.4248 O   0  0  0  0  0  0  0  0  0  0  0  0
  -25.8614  -11.5134   20.5116 O   0  0  0  0  0  0  0  0  0  0  0  0
  -20.9560  -27.5238   20.4387 O   0  0  0  0  0  0  0  0  0  1  0  0
  -20.4465  -11.1413   19.5396 F   0  0  0  0  0  0  0  0  0  0  0  0
  -24.0311  -12.7080   22.2044 F   0  0  0  0  0  0  0  0  0  0  0  0
  1  2  1  0  0  0  0
  1  5  2  0  0  0  0
  2  6  2  0  0  0  0
  3  8  2  0  0  0  0
  3 17  1  0  0  0  0
  4  9  1  0  0  0  0
  4 17  2  0  0  0  0
  5 19  1  0  0  0  0
  6 21  1  0  0  0  0
  7 10  2  0  0  0  0
  7 20  1  0  0  0  0
  8 24  1  0  0  0  0
  9 24  2  0  0  0  0
 10 25  1  0  0  0  0
 11 12  2  0  0  0  0
 11 26  1  0  0  0  0
 12 27  1  0  0  0  0
 13 22  1  0  0  0  0
 13 25  2  0  0  0  0
 14 23  1  0  0  0  0
 14 30  2  0  0  0  0
 15 23  2  0  0  0  0
 15 31  1  0  0  0  0
 16 27  2  0  0  0  0
 16 28  1  0  0  0  0
 17 29  1  0  0  0  0
 18 29  1  0  0  0  0
 18 32  2  0  0  0  0
 18 33  1  0  0  0  0
 19 21  2  0  0  0  0
 19 38  1  0  0  0  0
 20 22  2  0  0  0  0
 20 39  1  0  0  0  0
 21 47  1  0  0  0  0
 22 40  1  0  0  0  0
 23 56  1  0  0  0  0
 24 79  1  0  0  0  0
 25 80  1  0  0  0  0
 26 28  2  0  0  0  0
 26 79  1  0  0  0  0
 27 81  1  0  0  0  0
 28 82  1  0  0  0  0
 29 63  2  0  0  0  0
 30 50  1  0  0  0  0
 30 64  1  0  0  0  0
 31 57  1  0  0  0  0
 31 64  2  0  0  0  0
 32 65  1  0  0  0  0
 32 68  1  0  0  0  0
 33 69  1  0  0  0  0
 33 74  2  0  0  0  0
 34 48  1  0  0  0  0
 34 70  1  0  0  0  0
 34 75  2  0  0  0  0
 35 60  1  0  0  0  0
 35 66  1  0  0  0  0
 35 76  2  0  0  0  0
 36 61  1  0  0  0  0
 36 71  1  0  0  0  0
 36 77  2  0  0  0  0
 37 67  1  0  0  0  0
 37 72  1  0  0  0  0
 37 78  2  0  0  0  0
 38 41  1  0  0  0  0
 39 48  1  0  0  0  0
 40 66  1  0  0  0  0
 41 43  1  0  0  0  0
 42 44  1  0  0  0  0
 42 45  1  0  0  0  0
 43 47  1  0  0  0  0
 44 49  1  0  0  0  0
 45 67  1  0  0  0  0
 46 49  1  0  0  0  0
 46 67  1  0  0  0  0
 47 70  1  0  0  0  0
 48 66  1  0  0  0  0
 49 65  1  0  0  0  0
 51 61  1  0  0  0  0
 52 62  1  0  0  0  0
 53 62  1  0  0  0  0
 54 62  1  0  0  0  0
 55 73  1  0  0  0  0
 56 58  1  0  0  0  0
 57 72  1  0  0  0  0
 58 59  1  0  0  0  0
 59 80  1  0  0  0  0
 60 62  1  0  0  0  0
 60 71  1  0  0  0  0
 61 73  1  0  0  0  0
 63 65  1  0  0  0  0
M  CHG  1  73   1
M  ISO  4  37 100  59 101  72 100  80 101
M  END
> <Batch ID>
0041

> <Smiles>
CNC(C)C(=O)NC(C(=O)N1Cc2cc([101O:1][101CH2:1]CCc3cc(C)nc(C[100NH:0][100C:0](=O)N4CCCC(n5nc(-c6ccc(Oc7ccc(F)cc7F)cc6)c(C(N)=O)c5N)C4)c3)ccc2CC1C(=O)NC1CCCc2ccccc21)C(C)(C)C

> <Shape>
0.230

> <Color>
0.058

> <Negative vol penalty>
0.000

$$$$

  -OEChem-04052317093D

 86 94  0     1  0  0  0  0  0999 V2000
  -35.1028  -25.9810   20.1950 C   0  0  0  0  0  0  0  0  0  0  0  0
  -34.1712  -24.9518   20.2870 C   0  0  0  0  0  0  0  0  0  0  0  0
  -23.6892   -9.8386   21.4785 C   0  0  0  0  0  0  0  0  0  0  0  0
  -24.3107  -10.8657   23.5751 C   0  0  0  0  0  0  0  0  0  0  0  0
  -34.6825  -27.3085   20.2652 C   0  0  0  0  0  0  0  0  0  0  0  0
  -32.8188  -25.2496   20.4504 C   0  0  0  0  0  0  0  0  0  0  0  0
  -29.8405  -22.4725   17.4401 C   0  0  0  0  0  0  0  0  0  0  0  0
  -23.1256   -8.7667   22.1706 C   0  0  0  0  0  0  0  0  0  0  0  0
  -23.7471   -9.7939   24.2673 C   0  0  0  0  0  0  0  0  0  0  0  0
  -29.5906  -21.1573   17.8296 C   0  0  0  0  0  0  0  0  0  0  0  0
  -22.1523   -7.5024   26.5962 C   0  0  0  0  0  0  0  0  0  0  0  0
  -21.3492   -7.7921   27.6992 C   0  0  0  0  0  0  0  0  0  0  0  0
  -27.4475  -21.8313   18.7083 C   0  0  0  0  0  0  0  0  0  0  0  0
  -19.8545   -9.0525   26.2800 C   0  0  0  0  0  0  0  0  0  0  0  0
  -24.2818  -10.8881   22.1807 C   0  0  0  0  0  0  0  0  0  0  0  0
  -24.2236  -13.1855   21.0734 C   0  0  0  0  0  0  0  0  0  0  0  0
  -33.3231  -27.6229   20.4199 C   0  0  0  0  0  0  0  0  0  0  0  0
  -28.8989  -23.4806   17.6920 C   0  0  0  0  0  0  0  0  0  0  0  0
  -32.3801  -26.5826   20.5241 C   0  0  0  0  0  0  0  0  0  0  0  0
  -27.6868  -23.1579   18.3187 C   0  0  0  0  0  0  0  0  0  0  0  0
  -23.1545   -8.7444   23.5650 C   0  0  0  0  0  0  0  0  0  0  0  0
  -28.3952  -20.8371   18.4664 C   0  0  0  0  0  0  0  0  0  0  0  0
  -21.8066   -7.9878   25.3350 C   0  0  0  0  0  0  0  0  0  0  0  0
  -20.2003   -8.5671   27.5411 C   0  0  0  0  0  0  0  0  0  0  0  0
  -20.6577   -8.7629   25.1769 C   0  0  0  0  0  0  0  0  0  0  0  0
  -24.8646  -11.9953   21.4662 C   0  0  0  0  0  0  0  0  0  0  0  0
  -31.0498  -20.6339   23.6254 C   0  0  0  0  0  0  0  0  0  0  0  0
  -30.0663  -21.2251   22.8633 C   0  0  0  0  0  0  0  0  0  0  0  0
  -30.2675  -18.5684   23.0328 C   0  0  0  0  0  0  0  0  0  0  0  0
  -29.2836  -19.1595   22.2712 C   0  0  0  0  0  0  0  0  0  0  0  0
  -25.2009  -13.9062   20.4316 C   0  0  0  0  0  0  0  0  0  0  0  0
  -22.8661  -13.6024   21.2710 C   0  0  0  0  0  0  0  0  0  0  0  0
  -28.8857  -26.1619   19.3992 C   0  0  0  0  0  0  0  0  0  0  0  0
  -25.9789  -26.5669   18.0177 C   0  0  0  0  0  0  0  0  0  0  0  0
  -23.2553  -25.1475   16.5296 C   0  0  0  0  0  0  0  0  0  0  0  0
  -31.1774  -13.8970   20.7964 C   0  0  0  0  0  0  0  0  0  0  0  0
  -32.9220  -29.0720   20.5381 C   0  0  0  0  0  0  0  0  0  0  0  0
  -29.1722  -24.8895   17.2417 C   0  0  0  0  0  0  0  0  0  0  0  0
  -26.6345  -24.1997   18.5940 C   0  0  0  0  0  0  0  0  0  0  0  0
  -31.4276  -29.3088   20.3359 C   0  0  0  0  0  0  0  0  0  0  0  0
  -29.2096  -13.3361   17.8827 C   0  0  0  0  0  0  0  0  0  0  0  0
  -30.6136  -28.2993   21.1392 C   0  0  0  0  0  0  0  0  0  0  0  0
  -27.8150  -13.0363   18.4352 C   0  0  0  0  0  0  0  0  0  0  0  0
  -30.3063  -12.7597   18.7754 C   0  0  0  0  0  0  0  0  0  0  0  0
  -28.8292  -12.8579   20.7457 C   0  0  0  0  0  0  0  0  0  0  0  0
  -30.9014  -26.8658   20.6769 C   0  0  1  0  0  0  0  0  0  0  0  0
  -28.3629  -25.9299   18.0098 C   0  0  1  0  0  0  0  0  0  0  0  0
  -27.6913  -13.4673   19.9090 C   0  0  2  0  0  0  0  0  0  0  0  0
  -32.0403  -21.4487   24.3846 C   0  0  0  0  0  0  0  0  0  0  0  0
  -29.3115  -23.3260   24.0047 C   0  0  0  0  0  0  0  0  0  0  0  0
  -21.0231  -25.7299   15.5420 C   0  0  0  0  0  0  0  0  0  0  0  0
  -24.8357  -26.9322   20.8230 C   0  0  0  0  0  0  0  0  0  0  0  0
  -22.5527  -26.5580   19.8659 C   0  0  0  0  0  0  0  0  0  0  0  0
  -23.9167  -28.5046   19.1091 C   0  0  0  0  0  0  0  0  0  0  0  0
  -24.0261  -24.0950   13.8732 C   0  0  0  0  0  0  0  0  0  0  0  0
  -29.9474  -22.7074   22.7620 C   0  0  0  0  0  0  0  0  0  0  0  0
  -30.3875  -17.0861   23.1331 C   0  0  0  0  0  0  0  0  0  0  0  0
  -28.2814  -18.3349   21.5035 C   0  0  0  0  0  0  0  0  0  0  0  0
  -31.7695  -16.5287   22.7374 C   0  0  0  0  0  0  0  0  0  0  0  0
  -28.8453  -17.7155   20.2230 C   0  0  0  0  0  0  0  0  0  0  0  0
  -31.9033  -15.0150   22.8898 C   0  0  0  0  0  0  0  0  0  0  0  0
  -29.2773  -18.7507   19.1909 C   0  0  0  0  0  0  0  0  0  1  0  0
  -24.5640  -26.1752   18.3696 C   0  0  1  0  0  0  0  0  0  0  0  0
  -22.5005  -25.5035   15.2615 C   0  0  2  0  0  0  0  0  0  0  0  0
  -23.9877  -27.0230   19.5386 C   0  0  0  0  0  0  0  0  0  0  0  0
  -26.1497  -11.9580   21.1041 N   0  0  0  0  0  0  0  0  0  0  0  0
  -31.1681  -19.2950   23.7239 N   0  0  0  0  0  0  0  0  0  0  0  0
  -29.1656  -20.4985   22.1725 N   0  0  0  0  0  0  0  0  0  0  0  0
  -26.3241  -13.1337   20.4769 N   0  0  0  0  0  0  0  0  0  0  0  0
  -26.9511  -25.5641   18.1403 N   0  0  0  0  0  0  0  0  0  0  0  0
  -30.1323  -13.2080   20.1591 N   0  0  0  0  0  0  0  0  0  0  0  0
  -25.2005  -15.1188   19.8384 N   0  0  0  0  0  0  0  0  0  0  0  0
  -21.9947  -12.7405   21.9508 N   0  0  0  0  0  0  0  0  0  0  0  0
  -30.2012  -26.5828   19.4424 N   0  0  0  0  0  0  0  0  0  0  0  0
  -23.7963  -26.2635   17.1322 N   0  0  0  0  0  0  0  0  0  0  0  0
  -30.9277  -14.2918   22.1050 N   0  0  0  0  0  0  0  0  0  0  0  0
  -22.6260  -24.4077   14.2592 N   0  3  0  0  0  0  0  0  0  0  0  0
  -22.4343  -14.6995   20.8427 O   0  0  0  0  0  0  0  0  0  0  0  0
  -28.1497  -25.9743   20.3608 O   0  0  0  0  0  0  0  0  0  0  0  0
  -26.2117  -27.7181   17.6409 O   0  0  0  0  0  0  0  0  0  0  0  0
  -23.3519  -23.9953   16.9461 O   0  0  0  0  0  0  0  0  0  0  0  0
  -32.2513  -14.1468   20.2385 O   0  0  0  0  0  0  0  0  0  0  0  0
  -22.6045   -7.6987   24.2408 O   0  0  0  0  0  0  0  0  0  0  0  0
  -28.1489  -19.5543   18.8481 O   0  0  0  0  0  0  0  0  0  1  0  0
  -19.4283   -8.8439   28.6002 F   0  0  0  0  0  0  0  0  0  0  0  0
  -20.3197   -9.2310   23.9676 F   0  0  0  0  0  0  0  0  0  0  0  0
  1  2  1  0  0  0  0
  1  5  2  0  0  0  0
  2  6  2  0  0  0  0
  3  8  2  0  0  0  0
  3 15  1  0  0  0  0
  4  9  1  0  0  0  0
  4 15  2  0  0  0  0
  5 17  1  0  0  0  0
  6 19  1  0  0  0  0
  7 10  2  0  0  0  0
  7 18  1  0  0  0  0
  8 21  1  0  0  0  0
  9 21  2  0  0  0  0
 10 22  1  0  0  0  0
 11 12  2  0  0  0  0
 11 23  1  0  0  0  0
 12 24  1  0  0  0  0
 13 20  1  0  0  0  0
 13 22  2  0  0  0  0
 14 24  2  0  0  0  0
 14 25  1  0  0  0  0
 15 26  1  0  0  0  0
 16 26  1  0  0  0  0
 16 31  2  0  0  0  0
 16 32  1  0  0  0  0
 17 19  2  0  0  0  0
 17 37  1  0  0  0  0
 18 20  2  0  0  0  0
 18 38  1  0  0  0  0
 19 46  1  0  0  0  0
 20 39  1  0  0  0  0
 21 83  1  0  0  0  0
 22 84  1  0  0  0  0
 23 25  2  0  0  0  0
 23 83  1  0  0  0  0
 24 85  1  0  0  0  0
 25 86  1  0  0  0  0
 26 66  2  0  0  0  0
 27 28  2  0  0  0  0
 27 49  1  0  0  0  0
 27 67  1  0  0  0  0
 28 56  1  0  0  0  0
 28 68  1  0  0  0  0
 29 30  1  0  0  0  0
 29 57  1  0  0  0  0
 29 67  2  0  0  0  0
 30 58  1  0  0  0  0
 30 68  2  0  0  0  0
 31 69  1  0  0  0  0
 31 72  1  0  0  0  0
 32 73  1  0  0  0  0
 32 78  2  0  0  0  0
 33 47  1  0  0  0  0
 33 74  1  0  0  0  0
 33 79  2  0  0  0  0
 34 63  1  0  0  0  0
 34 70  1  0  0  0  0
 34 80  2  0  0  0  0
 35 64  1  0  0  0  0
 35 75  1  0  0  0  0
 35 81  2  0  0  0  0
 36 71  1  0  0  0  0
 36 76  1  0  0  0  0
 36 82  2  0  0  0  0
 37 40  1  0  0  0  0
 38 47  1  0  0  0  0
 39 70  1  0  0  0  0
 40 42  1  0  0  0  0
 41 43  1  0  0  0  0
 41 44  1  0  0  0  0
 42 46  1  0  0  0  0
 43 48  1  0  0  0  0
 44 71  1  0  0  0  0
 45 48  1  0  0  0  0
 45 71  1  0  0  0  0
 46 74  1  0  0  0  0
 47 70  1  0  0  0  0
 48 69  1  0  0  0  0
 50 56  1  0  0  0  0
 51 64  1  0  0  0  0
 52 65  1  0  0  0  0
 53 65  1  0  0  0  0
 54 65  1  0  0  0  0
 55 77  1  0  0  0  0
 57 59  1  0  0  0  0
 58 60  1  0  0  0  0
 59 61  1  0  0  0  0
 60 62  1  0  0  0  0
 61 76  1  0  0  0  0
 62 84  1  0  0  0  0
 63 65  1  0  0  0  0
 63 75  1  0  0  0  0
 64 77  1  0  0  0  0
 66 69  1  0  0  0  0
M  CHG  1  77   1
M  ISO  4  36 100  62 101  76 100  84 101
M  END
> <Batch ID>
0041

> <Smiles>
CCc1nc(CC[101CH2:1][101O:1]c2ccc3c(c2)CN(C(=O)C(NC(=O)C(C)NC)C(C)(C)C)C(C(=O)NC2CCCc4ccccc42)C3)c(CCC[100NH:0][100C:0](=O)N2CCCC(n3nc(-c4ccc(Oc5ccc(F)cc5F)cc4)c(C(N)=O)c3N)C2)nc1C

> <Shape>
0.234

> <Color>
0.136

> <Negative vol penalty>
0.000

$$$$

  -OEChem-04052317093D

 84 92  0     1  0  0  0  0  0999 V2000
  -24.8705  -33.0797   26.3410 C   0  0  0  0  0  0  0  0  0  0  0  0
  -24.8905  -31.7156   26.6134 C   0  0  0  0  0  0  0  0  0  0  0  0
  -22.9407   -9.9052   20.0002 C   0  0  0  0  0  0  0  0  0  0  0  0
  -23.6724   -9.9379   22.3025 C   0  0  0  0  0  0  0  0  0  0  0  0
  -24.7166  -33.5252   25.0288 C   0  0  0  0  0  0  0  0  0  0  0  0
  -24.7556  -30.7961   25.5737 C   0  0  0  0  0  0  0  0  0  0  0  0
  -27.4431  -25.3104   25.1386 C   0  0  0  0  0  0  0  0  0  0  0  0
  -22.1495   -8.7880   20.2675 C   0  0  0  0  0  0  0  0  0  0  0  0
  -22.8811   -8.8207   22.5698 C   0  0  0  0  0  0  0  0  0  0  0  0
  -26.9927  -24.0205   25.4164 C   0  0  0  0  0  0  0  0  0  0  0  0
  -23.0491   -5.4775   22.0948 C   0  0  0  0  0  0  0  0  0  0  0  0
  -23.6154   -4.4467   22.8446 C   0  0  0  0  0  0  0  0  0  0  0  0
  -26.4247  -23.7245   23.0907 C   0  0  0  0  0  0  0  0  0  0  0  0
  -21.9015   -4.7270   24.5242 C   0  0  0  0  0  0  0  0  0  0  0  0
  -23.7022  -10.4801   21.0177 C   0  0  0  0  0  0  0  0  0  0  0  0
  -24.1436  -12.9865   20.8427 C   0  0  0  0  0  0  0  0  0  0  0  0
  -24.5894  -32.6107   23.9715 C   0  0  0  0  0  0  0  0  0  0  0  0
  -27.3775  -25.8218   23.8346 C   0  0  0  0  0  0  0  0  0  0  0  0
  -24.5985  -31.2298   24.2464 C   0  0  0  0  0  0  0  0  0  0  0  0
  -26.8773  -25.0202   22.7985 C   0  0  0  0  0  0  0  0  0  0  0  0
  -22.1197   -8.2458   21.5523 C   0  0  0  0  0  0  0  0  0  0  0  0
  -26.4807  -23.2284   24.3930 C   0  0  0  0  0  0  0  0  0  0  0  0
  -21.9090   -6.1331   22.5596 C   0  0  0  0  0  0  0  0  0  0  0  0
  -23.0416   -4.0714   24.0594 C   0  0  0  0  0  0  0  0  0  0  0  0
  -21.3352   -5.7578   23.7743 C   0  0  0  0  0  0  0  0  0  0  0  0
  -24.5202  -11.6338   20.7420 C   0  0  0  0  0  0  0  0  0  0  0  0
  -28.6988  -19.8841   22.5082 C   0  0  0  0  0  0  0  0  0  0  0  0
  -27.1152  -18.0921   23.6951 C   0  0  0  0  0  0  0  0  0  0  0  0
  -28.5284  -18.6242   21.9777 C   0  0  0  0  0  0  0  0  0  0  0  0
  -27.2861  -19.3516   24.2261 C   0  0  0  0  0  0  0  0  0  0  0  0
  -25.2685  -13.6843   20.4762 C   0  0  0  0  0  0  0  0  0  0  0  0
  -22.8892  -13.5610   21.2327 C   0  0  0  0  0  0  0  0  0  0  0  0
  -25.8807  -28.2632   22.4552 C   0  0  0  0  0  0  0  0  0  0  0  0
  -27.6223  -27.3650   19.8702 C   0  0  0  0  0  0  0  0  0  0  0  0
  -29.3169  -24.8953   18.2345 C   0  0  0  0  0  0  0  0  0  0  0  0
  -30.7851  -14.4948   20.7121 C   0  0  0  0  0  0  0  0  0  0  0  0
  -24.3778  -33.1401   22.5752 C   0  0  0  0  0  0  0  0  0  0  0  0
  -27.8922  -27.2054   23.5465 C   0  0  0  0  0  0  0  0  0  0  0  0
  -26.8041  -25.5149   21.3779 C   0  0  0  0  0  0  0  0  0  0  0  0
  -24.6170  -32.0979   21.4858 C   0  0  0  0  0  0  0  0  0  0  0  0
  -29.5845  -12.0993   18.3675 C   0  0  0  0  0  0  0  0  0  0  0  0
  -23.9224  -30.7867   21.8396 C   0  0  0  0  0  0  0  0  0  0  0  0
  -28.1315  -11.8719   18.7884 C   0  0  0  0  0  0  0  0  0  0  0  0
  -30.4949  -12.3133   19.5748 C   0  0  0  0  0  0  0  0  0  0  0  0
  -28.6064  -13.1505   20.9188 C   0  0  0  0  0  0  0  0  0  0  0  0
  -24.4799  -30.2013   23.1427 C   0  0  1  0  0  0  0  0  0  0  0  0
  -27.3020  -27.8100   22.2762 C   0  0  1  0  0  0  0  0  0  0  0  0
  -27.6405  -12.9855   19.7329 C   0  0  2  0  0  0  0  0  0  0  0  0
  -29.5803  -20.8911   21.8522 C   0  0  0  0  0  0  0  0  0  0  0  0
  -26.2336  -17.0850   24.3507 C   0  0  0  0  0  0  0  0  0  0  0  0
  -30.6013  -24.4519   16.1247 C   0  0  0  0  0  0  0  0  0  0  0  0
  -25.0057  -27.2456   18.3052 C   0  0  0  0  0  0  0  0  0  0  0  0
  -26.1972  -25.9165   16.5497 C   0  0  0  0  0  0  0  0  0  0  0  0
  -26.9248  -28.2487   17.0540 C   0  0  0  0  0  0  0  0  0  0  0  0
  -31.7810  -24.2365   19.7356 C   0  0  0  0  0  0  0  0  0  0  0  0
  -29.2181  -18.2095   20.7231 C   0  0  0  0  0  0  0  0  0  0  0  0
  -26.5888  -19.7711   25.4973 C   0  0  0  0  0  0  0  0  0  0  0  0
  -30.6960  -17.8110   20.9082 C   0  0  0  0  0  0  0  0  0  0  0  0
  -30.9197  -16.6703   21.8988 C   0  0  0  0  0  0  0  0  0  0  0  0
  -26.6726  -21.2748   25.7356 C   0  0  0  0  0  0  0  0  0  1  0  0
  -27.4133  -26.4104   18.7196 C   0  0  1  0  0  0  0  0  0  0  0  0
  -30.6878  -24.8758   17.5827 C   0  0  2  0  0  0  0  0  0  0  0  0
  -26.3847  -26.9464   17.6842 C   0  0  0  0  0  0  0  0  0  0  0  0
  -25.7853  -11.4791   20.3427 N   0  0  0  0  0  0  0  0  0  0  0  0
  -27.7334  -17.7058   22.5614 N   0  0  0  0  0  0  0  0  0  0  0  0
  -28.0810  -20.2702   23.6421 N   0  0  0  0  0  0  0  0  0  0  0  0
  -26.2135  -12.7437   20.1891 N   0  0  0  0  0  0  0  0  0  0  0  0
  -27.3137  -26.8769   21.1478 N   0  0  0  0  0  0  0  0  0  0  0  0
  -29.9741  -13.3834   20.4290 N   0  0  0  0  0  0  0  0  0  0  0  0
  -25.5315  -15.0045   20.3746 N   0  0  0  0  0  0  0  0  0  0  0  0
  -21.8386  -12.7000   21.5780 N   0  0  0  0  0  0  0  0  0  0  0  0
  -25.7573  -29.5641   22.9046 N   0  0  0  0  0  0  0  0  0  0  0  0
  -28.7361  -26.1439   18.1649 N   0  0  0  0  0  0  0  0  0  0  0  0
  -30.2124  -15.4660   21.5241 N   0  0  0  0  0  0  0  0  0  0  0  0
  -31.5870  -23.9252   18.2960 N   0  3  0  0  0  0  0  0  0  0  0  0
  -22.7004  -14.8009   21.2579 O   0  0  0  0  0  0  0  0  0  0  0  0
  -24.9638  -27.4904   22.2029 O   0  0  0  0  0  0  0  0  0  0  0  0
  -28.0505  -28.4996   19.6445 O   0  0  0  0  0  0  0  0  0  0  0  0
  -28.8104  -23.9014   18.7503 O   0  0  0  0  0  0  0  0  0  0  0  0
  -31.9324  -14.6152   20.2694 O   0  0  0  0  0  0  0  0  0  0  0  0
  -21.3475   -7.1558   21.8136 O   0  0  0  0  0  0  0  0  0  0  0  0
  -26.0398  -21.9693   24.6615 O   0  0  0  0  0  0  0  0  0  1  0  0
  -23.5846   -3.0805   24.7786 F   0  0  0  0  0  0  0  0  0  0  0  0
  -20.2392   -6.3832   24.2255 F   0  0  0  0  0  0  0  0  0  0  0  0
  1  2  1  0  0  0  0
  1  5  2  0  0  0  0
  2  6  2  0  0  0  0
  3  8  2  0  0  0  0
  3 15  1  0  0  0  0
  4  9  1  0  0  0  0
  4 15  2  0  0  0  0
  5 17  1  0  0  0  0
  6 19  1  0  0  0  0
  7 10  2  0  0  0  0
  7 18  1  0  0  0  0
  8 21  1  0  0  0  0
  9 21  2  0  0  0  0
 10 22  1  0  0  0  0
 11 12  2  0  0  0  0
 11 23  1  0  0  0  0
 12 24  1  0  0  0  0
 13 20  1  0  0  0  0
 13 22  2  0  0  0  0
 14 24  2  0  0  0  0
 14 25  1  0  0  0  0
 15 26  1  0  0  0  0
 16 26  1  0  0  0  0
 16 31  2  0  0  0  0
 16 32  1  0  0  0  0
 17 19  2  0  0  0  0
 17 37  1  0  0  0  0
 18 20  2  0  0  0  0
 18 38  1  0  0  0  0
 19 46  1  0  0  0  0
 20 39  1  0  0  0  0
 21 81  1  0  0  0  0
 22 82  1  0  0  0  0
 23 25  2  0  0  0  0
 23 81  1  0  0  0  0
 24 83  1  0  0  0  0
 25 84  1  0  0  0  0
 26 64  2  0  0  0  0
 27 29  1  0  0  0  0
 27 49  1  0  0  0  0
 27 66  2  0  0  0  0
 28 30  2  0  0  0  0
 28 50  1  0  0  0  0
 28 65  1  0  0  0  0
 29 56  1  0  0  0  0
 29 65  2  0  0  0  0
 30 57  1  0  0  0  0
 30 66  1  0  0  0  0
 31 67  1  0  0  0  0
 31 70  1  0  0  0  0
 32 71  1  0  0  0  0
 32 76  2  0  0  0  0
 33 47  1  0  0  0  0
 33 72  1  0  0  0  0
 33 77  2  0  0  0  0
 34 61  1  0  0  0  0
 34 68  1  0  0  0  0
 34 78  2  0  0  0  0
 35 62  1  0  0  0  0
 35 73  1  0  0  0  0
 35 79  2  0  0  0  0
 36 69  1  0  0  0  0
 36 74  1  0  0  0  0
 36 80  2  0  0  0  0
 37 40  1  0  0  0  0
 38 47  1  0  0  0  0
 39 68  1  0  0  0  0
 40 42  1  0  0  0  0
 41 43  1  0  0  0  0
 41 44  1  0  0  0  0
 42 46  1  0  0  0  0
 43 48  1  0  0  0  0
 44 69  1  0  0  0  0
 45 48  1  0  0  0  0
 45 69  1  0  0  0  0
 46 72  1  0  0  0  0
 47 68  1  0  0  0  0
 48 67  1  0  0  0  0
 51 62  1  0  0  0  0
 52 63  1  0  0  0  0
 53 63  1  0  0  0  0
 54 63  1  0  0  0  0
 55 75  1  0  0  0  0
 56 58  1  0  0  0  0
 57 60  1  0  0  0  0
 58 59  1  0  0  0  0
 59 74  1  0  0  0  0
 60 82  1  0  0  0  0
 61 63  1  0  0  0  0
 61 73  1  0  0  0  0
 62 75  1  0  0  0  0
 64 67  1  0  0  0  0
M  CHG  1  75   1
M  ISO  4  36 100  60 101  74 100  82 101
M  END
> <Batch ID>
0041

> <Smiles>
CNC(C)C(=O)NC(C(=O)N1Cc2cc([101O:1][101CH2:1]Cc3nc(C)c(CCC[100NH:0][100C:0](=O)N4CCCC(n5nc(-c6ccc(Oc7ccc(F)cc7F)cc6)c(C(N)=O)c5N)C4)nc3C)ccc2CC1C(=O)NC1CCCc2ccccc21)C(C)(C)C

> <Shape>
0.319

> <Color>
0.207

> <Negative vol penalty>
0.000

$$$$

  -OEChem-04052317093D

 82 90  0     1  0  0  0  0  0999 V2000
  -23.6019  -23.9567   18.9542 C   0  0  0  0  0  0  0  0  0  0  0  0
  -24.4524  -22.8871   18.6986 C   0  0  0  0  0  0  0  0  0  0  0  0
  -22.4700  -28.0641   21.1242 C   0  0  0  0  0  0  0  0  0  0  0  0
  -23.7239  -28.1074   23.1888 C   0  0  0  0  0  0  0  0  0  0  0  0
  -22.6296  -23.8475   19.9462 C   0  0  0  0  0  0  0  0  0  0  0  0
  -24.3234  -21.7038   19.4266 C   0  0  0  0  0  0  0  0  0  0  0  0
  -27.0810  -17.8884   17.9977 C   0  0  0  0  0  0  0  0  0  0  0  0
  -21.2887  -27.8900   21.8452 C   0  0  0  0  0  0  0  0  0  0  0  0
  -22.5426  -27.9334   23.9099 C   0  0  0  0  0  0  0  0  0  0  0  0
  -28.4597  -17.8377   18.1987 C   0  0  0  0  0  0  0  0  0  0  0  0
  -19.1518  -29.8114   23.6269 C   0  0  0  0  0  0  0  0  0  0  0  0
  -18.0489  -30.5827   23.2604 C   0  0  0  0  0  0  0  0  0  0  0  0
  -28.1295  -16.3101   20.0363 C   0  0  0  0  0  0  0  0  0  0  0  0
  -32.3971  -19.3809   19.4515 C   0  0  0  0  0  0  0  0  0  0  0  0
  -16.7963  -28.5701   22.7941 C   0  0  0  0  0  0  0  0  0  0  0  0
  -31.9252  -20.9883   21.6054 C   0  0  0  0  0  0  0  0  0  0  0  0
  -23.6876  -28.1727   21.7960 C   0  0  0  0  0  0  0  0  0  0  0  0
  -25.4986  -29.5710   20.6677 C   0  0  0  0  0  0  0  0  0  0  0  0
  -22.4974  -22.6663   20.6948 C   0  0  0  0  0  0  0  0  0  0  0  0
  -26.2141  -17.1576   18.8228 C   0  0  0  0  0  0  0  0  0  0  0  0
  -23.3327  -21.5655   20.4155 C   0  0  0  0  0  0  0  0  0  0  0  0
  -26.7404  -16.3512   19.8420 C   0  0  0  0  0  0  0  0  0  0  0  0
  -32.3890  -20.7612   19.2838 C   0  0  0  0  0  0  0  0  0  0  0  0
  -32.1493  -21.5872   20.3763 C   0  0  0  0  0  0  0  0  0  0  0  0
  -21.3250  -27.8247   23.2381 C   0  0  0  0  0  0  0  0  0  0  0  0
  -28.9840  -17.0508   19.2200 C   0  0  0  0  0  0  0  0  0  0  0  0
  -19.0770  -28.4194   23.5770 C   0  0  0  0  0  0  0  0  0  0  0  0
  -16.8712  -29.9621   22.8440 C   0  0  0  0  0  0  0  0  0  0  0  0
  -17.8993  -27.7988   23.1606 C   0  0  0  0  0  0  0  0  0  0  0  0
  -24.9082  -28.3520   21.0517 C   0  0  0  0  0  0  0  0  0  0  0  0
  -32.1622  -18.8807   20.7221 C   0  0  0  0  0  0  0  0  0  0  0  0
  -26.6336  -29.2034   19.9871 C   0  0  0  0  0  0  0  0  0  0  0  0
  -25.0603  -30.9153   20.9052 C   0  0  0  0  0  0  0  0  0  0  0  0
  -23.8744  -17.9064   20.8399 C   0  0  0  0  0  0  0  0  0  0  0  0
  -23.4871  -14.6886   20.9733 C   0  0  0  0  0  0  0  0  0  0  0  0
  -24.8569  -11.5870   20.5854 C   0  0  0  0  0  0  0  0  0  0  0  0
  -30.0196  -24.3774   20.3021 C   0  0  0  0  0  0  0  0  0  0  0  0
  -21.4229  -22.5996   21.7512 C   0  0  0  0  0  0  0  0  0  0  0  0
  -24.7310  -17.2021   18.5758 C   0  0  0  0  0  0  0  0  0  0  0  0
  -25.8537  -15.5317   20.7424 C   0  0  0  0  0  0  0  0  0  0  0  0
  -21.6520  -21.4811   22.7625 C   0  0  0  0  0  0  0  0  0  0  0  0
  -28.4153  -25.6519   17.3189 C   0  0  0  0  0  0  0  0  0  0  0  0
  -21.9395  -20.1752   22.0368 C   0  0  0  0  0  0  0  0  0  0  0  0
  -27.3837  -26.6115   17.9148 C   0  0  0  0  0  0  0  0  0  0  0  0
  -28.5718  -24.4032   18.1818 C   0  0  0  0  0  0  0  0  0  0  0  0
  -27.8870  -25.6362   20.2028 C   0  0  0  0  0  0  0  0  0  0  0  0
  -23.2309  -20.2795   21.2156 C   0  0  1  0  0  0  0  0  0  0  0  0
  -23.9092  -16.8196   19.8029 C   0  0  1  0  0  0  0  0  0  0  0  0
  -27.6993  -26.9291   19.3884 C   0  0  2  0  0  0  0  0  0  0  0  0
  -34.1171  -21.3000   17.5490 C   0  0  0  0  0  0  0  0  0  0  0  0
  -24.3056   -9.1486   20.8039 C   0  0  0  0  0  0  0  0  0  0  0  0
  -23.7039  -14.9140   24.0085 C   0  0  0  0  0  0  0  0  0  0  0  0
  -24.1012  -12.4435   24.0938 C   0  0  0  0  0  0  0  0  0  0  0  0
  -21.9456  -13.3283   23.2031 C   0  0  0  0  0  0  0  0  0  0  0  0
  -25.3716  -11.0943   17.7129 C   0  0  0  0  0  0  0  0  0  0  0  0
  -32.6391  -21.3319   17.9273 C   0  0  0  0  0  0  0  0  0  0  0  0
  -32.1288  -23.0712   20.2526 C   0  0  0  0  0  0  0  0  0  0  0  0
  -32.1631  -17.3874   20.9417 C   0  0  0  0  0  0  0  0  0  0  0  0
  -30.7804  -16.7727   20.7534 C   0  0  0  0  0  0  0  0  0  1  0  0
  -24.0514  -13.5783   21.8265 C   0  0  1  0  0  0  0  0  0  0  0  0
  -24.3550  -10.3466   19.8684 C   0  0  2  0  0  0  0  0  0  0  0  0
  -23.4674  -13.5829   23.2674 C   0  0  0  0  0  0  0  0  0  0  0  0
  -31.9255  -19.6515   21.8072 N   0  0  0  0  0  0  0  0  0  0  0  0
  -25.6101  -27.2896   20.6483 N   0  0  0  0  0  0  0  0  0  0  0  0
  -26.6531  -27.8398   20.0038 N   0  0  0  0  0  0  0  0  0  0  0  0
  -24.4101  -15.6135   20.4651 N   0  0  0  0  0  0  0  0  0  0  0  0
  -28.8897  -24.7743   19.5679 N   0  0  0  0  0  0  0  0  0  0  0  0
  -27.6068  -29.9169   19.3819 N   0  0  0  0  0  0  0  0  0  0  0  0
  -23.8722  -31.1139   21.6217 N   0  0  0  0  0  0  0  0  0  0  0  0
  -23.3572  -19.1036   20.3831 N   0  0  0  0  0  0  0  0  0  0  0  0
  -23.8184  -12.3399   21.0912 N   0  0  0  0  0  0  0  0  0  0  0  0
  -30.9169  -23.5562   19.6304 N   0  0  0  0  0  0  0  0  0  0  0  0
  -25.2490  -10.0126   18.7238 N   0  3  0  0  0  0  0  0  0  0  0  0
  -25.6945  -31.9105   20.4800 O   0  0  0  0  0  0  0  0  0  0  0  0
  -24.2849  -17.6754   21.9712 O   0  0  0  0  0  0  0  0  0  0  0  0
  -22.2729  -14.7295   20.7597 O   0  0  0  0  0  0  0  0  0  0  0  0
  -26.0510  -11.8587   20.6897 O   0  0  0  0  0  0  0  0  0  0  0  0
  -30.2173  -24.7331   21.4690 O   0  0  0  0  0  0  0  0  0  0  0  0
  -20.1725  -27.6551   23.9420 O   0  0  0  0  0  0  0  0  0  0  0  0
  -30.3292  -17.0000   19.4188 O   0  0  0  0  0  0  0  0  0  1  0  0
  -15.8117  -30.7029   22.4935 F   0  0  0  0  0  0  0  0  0  0  0  0
  -17.8210  -26.4619   23.1118 F   0  0  0  0  0  0  0  0  0  0  0  0
  1  2  1  0  0  0  0
  1  5  2  0  0  0  0
  2  6  2  0  0  0  0
  3  8  2  0  0  0  0
  3 17  1  0  0  0  0
  4  9  1  0  0  0  0
  4 17  2  0  0  0  0
  5 19  1  0  0  0  0
  6 21  1  0  0  0  0
  7 10  2  0  0  0  0
  7 20  1  0  0  0  0
  8 25  1  0  0  0  0
  9 25  2  0  0  0  0
 10 26  1  0  0  0  0
 11 12  2  0  0  0  0
 11 27  1  0  0  0  0
 12 28  1  0  0  0  0
 13 22  1  0  0  0  0
 13 26  2  0  0  0  0
 14 23  1  0  0  0  0
 14 31  2  0  0  0  0
 15 28  2  0  0  0  0
 15 29  1  0  0  0  0
 16 24  1  0  0  0  0
 16 63  2  0  0  0  0
 17 30  1  0  0  0  0
 18 30  1  0  0  0  0
 18 32  2  0  0  0  0
 18 33  1  0  0  0  0
 19 21  2  0  0  0  0
 19 38  1  0  0  0  0
 20 22  2  0  0  0  0
 20 39  1  0  0  0  0
 21 47  1  0  0  0  0
 22 40  1  0  0  0  0
 23 24  2  0  0  0  0
 23 56  1  0  0  0  0
 24 57  1  0  0  0  0
 25 79  1  0  0  0  0
 26 80  1  0  0  0  0
 27 29  2  0  0  0  0
 27 79  1  0  0  0  0
 28 81  1  0  0  0  0
 29 82  1  0  0  0  0
 30 64  2  0  0  0  0
 31 58  1  0  0  0  0
 31 63  1  0  0  0  0
 32 65  1  0  0  0  0
 32 68  1  0  0  0  0
 33 69  1  0  0  0  0
 33 74  2  0  0  0  0
 34 48  1  0  0  0  0
 34 70  1  0  0  0  0
 34 75  2  0  0  0  0
 35 60  1  0  0  0  0
 35 66  1  0  0  0  0
 35 76  2  0  0  0  0
 36 61  1  0  0  0  0
 36 71  1  0  0  0  0
 36 77  2  0  0  0  0
 37 67  1  0  0  0  0
 37 72  1  0  0  0  0
 37 78  2  0  0  0  0
 38 41  1  0  0  0  0
 39 48  1  0  0  0  0
 40 66  1  0  0  0  0
 41 43  1  0  0  0  0
 42 44  1  0  0  0  0
 42 45  1  0  0  0  0
 43 47  1  0  0  0  0
 44 49  1  0  0  0  0
 45 67  1  0  0  0  0
 46 49  1  0  0  0  0
 46 67  1  0  0  0  0
 47 70  1  0  0  0  0
 48 66  1  0  0  0  0
 49 65  1  0  0  0  0
 50 56  1  0  0  0  0
 51 61  1  0  0  0  0
 52 62  1  0  0  0  0
 53 62  1  0  0  0  0
 54 62  1  0  0  0  0
 55 73  1  0  0  0  0
 57 72  1  0  0  0  0
 58 59  1  0  0  0  0
 59 80  1  0  0  0  0
 60 62  1  0  0  0  0
 60 71  1  0  0  0  0
 61 73  1  0  0  0  0
 64 65  1  0  0  0  0
M  CHG  1  73   1
M  ISO  4  37 100  59 101  72 100  80 101
M  END
> <Batch ID>
0041

> <Smiles>
CCc1cc(C[101CH2:1][101O:1]c2ccc3c(c2)CN(C(=O)C(NC(=O)C(C)NC)C(C)(C)C)C(C(=O)NC2CCCc4ccccc42)C3)ncc1C[100NH:0][100C:0](=O)N1CCCC(n2nc(-c3ccc(Oc4ccc(F)cc4F)cc3)c(C(N)=O)c2N)C1

> <Shape>
0.219

> <Color>
0.079

> <Negative vol penalty>
0.000

$$$$

  -OEChem-04052317093D

 87 96  0     1  0  0  0  0  0999 V2000
  -28.9424  -20.5189   22.6742 C   0  0  0  0  0  0  0  0  0  0  0  0
  -28.8119  -19.9237   21.4235 C   0  0  0  0  0  0  0  0  0  0  0  0
  -26.2713  -27.3428   21.2754 C   0  0  0  0  0  0  0  0  0  0  0  0
  -25.9923  -27.6737   18.8985 C   0  0  0  0  0  0  0  0  0  0  0  0
  -29.8445  -19.9992   23.6015 C   0  0  0  0  0  0  0  0  0  0  0  0
  -29.5844  -18.8091   21.0990 C   0  0  0  0  0  0  0  0  0  0  0  0
  -26.8896  -15.1720   18.8287 C   0  0  0  0  0  0  0  0  0  0  0  0
  -25.2853  -28.2975   21.5240 C   0  0  0  0  0  0  0  0  0  0  0  0
  -25.0063  -28.6284   19.1471 C   0  0  0  0  0  0  0  0  0  0  0  0
  -26.5913  -15.3494   17.4784 C   0  0  0  0  0  0  0  0  0  0  0  0
  -21.9081  -28.4584   21.4874 C   0  0  0  0  0  0  0  0  0  0  0  0
  -20.9400  -28.1562   22.4451 C   0  0  0  0  0  0  0  0  0  0  0  0
  -28.3990  -13.8642   16.8902 C   0  0  0  0  0  0  0  0  0  0  0  0
  -21.6163  -30.0829   23.7365 C   0  0  0  0  0  0  0  0  0  0  0  0
  -28.7669  -17.9078   13.3326 C   0  0  0  0  0  0  0  0  0  0  0  0
  -26.6249  -27.0309   19.9626 C   0  0  0  0  0  0  0  0  0  0  0  0
  -27.4622  -24.6598   19.5333 C   0  0  0  0  0  0  0  0  0  0  0  0
  -30.6215  -18.8718   23.2917 C   0  0  0  0  0  0  0  0  0  0  0  0
  -27.9535  -14.3466   19.2201 C   0  0  0  0  0  0  0  0  0  0  0  0
  -30.4988  -18.2747   22.0226 C   0  0  0  0  0  0  0  0  0  0  0  0
  -28.7071  -13.6760   18.2462 C   0  0  0  0  0  0  0  0  0  0  0  0
  -24.6528  -28.9403   20.4599 C   0  0  0  0  0  0  0  0  0  0  0  0
  -27.3479  -14.6977   16.5088 C   0  0  0  0  0  0  0  0  0  0  0  0
  -22.7303  -29.5727   21.6543 C   0  0  0  0  0  0  0  0  0  0  0  0
  -20.7941  -28.9685   23.5696 C   0  0  0  0  0  0  0  0  0  0  0  0
  -22.5844  -30.3850   22.7788 C   0  0  0  0  0  0  0  0  0  0  0  0
  -27.6438  -26.0452   19.7051 C   0  0  0  0  0  0  0  0  0  0  0  0
  -28.5093  -19.2296   13.6342 C   0  0  0  0  0  0  0  0  0  0  0  0
  -27.6717  -17.0684   13.3444 C   0  0  0  0  0  0  0  0  0  0  0  0
  -28.7277  -24.1720   19.3161 C   0  0  0  0  0  0  0  0  0  0  0  0
  -26.2958  -18.7889   13.9049 C   0  0  0  0  0  0  0  0  0  0  0  0
  -26.2574  -23.8832   19.5671 C   0  0  0  0  0  0  0  0  0  0  0  0
  -30.6789  -14.7947   20.7935 C   0  0  0  0  0  0  0  0  0  0  0  0
  -30.8808  -11.5643   20.5794 C   0  0  0  0  0  0  0  0  0  0  0  0
  -29.9782   -8.7069   18.9462 C   0  0  0  0  0  0  0  0  0  0  0  0
  -33.6940  -24.3982   17.0235 C   0  0  0  0  0  0  0  0  0  0  0  0
  -31.6174  -18.3746   24.3094 C   0  0  0  0  0  0  0  0  0  0  0  0
  -28.2456  -14.1447   20.6818 C   0  0  0  0  0  0  0  0  0  0  0  0
  -29.8468  -12.7630   18.6149 C   0  0  0  0  0  0  0  0  0  0  0  0
  -32.1277  -16.9645   24.0238 C   0  0  0  0  0  0  0  0  0  0  0  0
  -33.2490  -26.3651   19.8320 C   0  0  0  0  0  0  0  0  0  0  0  0
  -32.5130  -16.8236   22.5546 C   0  0  0  0  0  0  0  0  0  0  0  0
  -31.7360  -26.3511   20.0487 C   0  0  0  0  0  0  0  0  0  0  0  0
  -32.4021  -21.0252   16.1989 C   0  0  0  0  0  0  0  0  0  0  0  0
  -30.9302  -22.7540   15.1063 C   0  0  0  0  0  0  0  0  0  0  0  0
  -33.5872  -26.4865   18.3505 C   0  0  0  0  0  0  0  0  0  0  0  0
  -33.5266  -22.0545   16.2701 C   0  0  0  0  0  0  0  0  0  0  0  0
  -32.0834  -23.7484   15.1930 C   0  0  0  0  0  0  0  0  0  0  0  0
  -31.4647  -25.3914   17.7091 C   0  0  0  0  0  0  0  0  0  0  0  0
  -31.3013  -17.0492   21.6424 C   0  0  1  0  0  0  0  0  0  0  0  0
  -29.6762  -13.6863   20.9475 C   0  0  1  0  0  0  0  0  0  0  0  0
  -31.4448  -21.3100   15.0343 C   0  0  0  0  0  0  0  0  0  0  0  0
  -31.0652  -25.2620   19.1928 C   0  0  2  0  0  0  0  0  0  0  0  0
  -24.9226  -19.2782   14.2191 C   0  0  0  0  0  0  0  0  0  0  0  0
  -30.3319   -6.2227   18.9806 C   0  0  0  0  0  0  0  0  0  0  0  0
  -33.6488  -11.9438   19.3529 C   0  0  0  0  0  0  0  0  0  0  0  0
  -33.5431   -9.5734   18.5538 C   0  0  0  0  0  0  0  0  0  0  0  0
  -33.4851  -10.0675   20.9982 C   0  0  0  0  0  0  0  0  0  0  0  0
  -27.0999   -8.1866   19.3974 C   0  0  0  0  0  0  0  0  0  0  0  0
  -29.6431  -20.2237   13.6459 C   0  0  0  0  0  0  0  0  0  0  0  0
  -27.8515  -15.6212   13.0288 C   0  0  0  0  0  0  0  0  0  0  0  0
  -30.2834  -20.3189   15.0298 C   0  0  0  0  0  0  0  0  0  0  0  0
  -28.1436  -14.7714   14.2688 C   0  0  0  0  0  0  0  0  0  1  0  0
  -31.4599  -10.5933   19.5790 C   0  0  1  0  0  0  0  0  0  0  0  0
  -29.4612   -7.3746   19.4581 C   0  0  2  0  0  0  0  0  0  0  0  0
  -33.0140  -10.5632   19.6137 C   0  0  0  0  0  0  0  0  0  0  0  0
  -28.9237  -26.4137   19.6056 N   0  0  0  0  0  0  0  0  0  0  0  0
  -27.2814  -19.7063   13.9263 N   0  0  0  0  0  0  0  0  0  0  0  0
  -26.4173  -17.4767   13.6275 N   0  0  0  0  0  0  0  0  0  0  0  0
  -29.5580  -25.2527   19.3691 N   0  0  0  0  0  0  0  0  0  0  0  0
  -30.0972  -12.6029   20.0569 N   0  0  0  0  0  0  0  0  0  0  0  0
  -32.9281  -25.4381   17.5719 N   0  0  0  0  0  0  0  0  0  0  0  0
  -33.0023  -23.4194   16.2909 N   0  0  0  0  0  0  0  0  0  0  0  0
  -29.2000  -22.9283   19.0868 N   0  0  0  0  0  0  0  0  0  0  0  0
  -25.0435  -24.5432   19.8022 N   0  0  0  0  0  0  0  0  0  0  0  0
  -30.4555  -15.8750   21.6258 N   0  0  0  0  0  0  0  0  0  0  0  0
  -30.8311   -9.3049   19.8496 N   0  0  0  0  0  0  0  0  0  0  0  0
  -28.0691   -7.1409   18.9801 N   0  3  0  0  0  0  0  0  0  0  0  0
  -26.2592  -22.6387   19.4102 O   0  0  0  0  0  0  0  0  0  0  0  0
  -31.5887  -14.6779   19.9809 O   0  0  0  0  0  0  0  0  0  0  0  0
  -31.1092  -11.4029   21.7808 O   0  0  0  0  0  0  0  0  0  0  0  0
  -29.6604   -9.1690   17.8526 O   0  0  0  0  0  0  0  0  0  0  0  0
  -34.9200  -24.3426   17.1810 O   0  0  0  0  0  0  0  0  0  0  0  0
  -23.6904  -29.8718   20.7022 O   0  0  0  0  0  0  0  0  0  0  0  0
  -27.0572  -14.8708   15.1808 O   0  0  0  0  0  0  0  0  0  1  0  0
  -19.8634  -28.6791   24.4885 F   0  0  0  0  0  0  0  0  0  0  0  0
  -23.3705  -31.4576   22.9439 F   0  0  0  0  0  0  0  0  0  0  0  0
  1  2  1  0  0  0  0
  1  5  2  0  0  0  0
  2  6  2  0  0  0  0
  3  8  2  0  0  0  0
  3 16  1  0  0  0  0
  4  9  1  0  0  0  0
  4 16  2  0  0  0  0
  5 18  1  0  0  0  0
  6 20  1  0  0  0  0
  7 10  2  0  0  0  0
  7 19  1  0  0  0  0
  8 22  1  0  0  0  0
  9 22  2  0  0  0  0
 10 23  1  0  0  0  0
 11 12  2  0  0  0  0
 11 24  1  0  0  0  0
 12 25  1  0  0  0  0
 13 21  1  0  0  0  0
 13 23  2  0  0  0  0
 14 25  2  0  0  0  0
 14 26  1  0  0  0  0
 15 28  2  0  0  0  0
 15 29  1  0  0  0  0
 16 27  1  0  0  0  0
 17 27  1  0  0  0  0
 17 30  2  0  0  0  0
 17 32  1  0  0  0  0
 18 20  2  0  0  0  0
 18 37  1  0  0  0  0
 19 21  2  0  0  0  0
 19 38  1  0  0  0  0
 20 50  1  0  0  0  0
 21 39  1  0  0  0  0
 22 84  1  0  0  0  0
 23 85  1  0  0  0  0
 24 26  2  0  0  0  0
 24 84  1  0  0  0  0
 25 86  1  0  0  0  0
 26 87  1  0  0  0  0
 27 67  2  0  0  0  0
 28 60  1  0  0  0  0
 28 68  1  0  0  0  0
 29 61  1  0  0  0  0
 29 69  2  0  0  0  0
 30 70  1  0  0  0  0
 30 74  1  0  0  0  0
 31 54  1  0  0  0  0
 31 68  2  0  0  0  0
 31 69  1  0  0  0  0
 32 75  1  0  0  0  0
 32 79  2  0  0  0  0
 33 51  1  0  0  0  0
 33 76  1  0  0  0  0
 33 80  2  0  0  0  0
 34 64  1  0  0  0  0
 34 71  1  0  0  0  0
 34 81  2  0  0  0  0
 35 65  1  0  0  0  0
 35 77  1  0  0  0  0
 35 82  2  0  0  0  0
 36 72  1  0  0  0  0
 36 73  1  0  0  0  0
 36 83  2  0  0  0  0
 37 40  1  0  0  0  0
 38 51  1  0  0  0  0
 39 71  1  0  0  0  0
 40 42  1  0  0  0  0
 41 43  1  0  0  0  0
 41 46  1  0  0  0  0
 42 50  1  0  0  0  0
 43 53  1  0  0  0  0
 44 47  1  0  0  0  0
 44 52  1  0  0  0  0
 45 48  1  0  0  0  0
 45 52  1  0  0  0  0
 46 72  1  0  0  0  0
 47 73  1  0  0  0  0
 48 73  1  0  0  0  0
 49 53  1  0  0  0  0
 49 72  1  0  0  0  0
 50 76  1  0  0  0  0
 51 71  1  0  0  0  0
 52 62  1  0  0  0  0
 53 70  1  0  0  0  0
 55 65  1  0  0  0  0
 56 66  1  0  0  0  0
 57 66  1  0  0  0  0
 58 66  1  0  0  0  0
 59 78  1  0  0  0  0
 60 62  1  0  0  0  0
 61 63  1  0  0  0  0
 63 85  1  0  0  0  0
 64 66  1  0  0  0  0
 64 77  1  0  0  0  0
 65 78  1  0  0  0  0
 67 70  1  0  0  0  0
M  CHG  1  78   1
M  ISO  4  36 100  63 101  73 100  85 101
M  END
> <Batch ID>
0041

> <Smiles>
CNC(C)C(=O)NC(C(=O)N1Cc2cc([101O:1][101CH2:1]Cc3cc(CCC4CC[100N:0]([100C:0](=O)N5CCCC(n6nc(-c7ccc(Oc8ccc(F)cc8F)cc7)c(C(N)=O)c6N)C5)CC4)nc(C)n3)ccc2CC1C(=O)NC1CCCc2ccccc21)C(C)(C)C

> <Shape>
0.197

> <Color>
0.072

> <Negative vol penalty>
0.000

$$$$

  -OEChem-04052317093D

 82 90  0     1  0  0  0  0  0999 V2000
  -29.8634  -33.0206   24.9443 C   0  0  0  0  0  0  0  0  0  0  0  0
  -30.2158  -31.8504   24.2796 C   0  0  0  0  0  0  0  0  0  0  0  0
  -24.1075  -15.6582   22.2627 C   0  0  0  0  0  0  0  0  0  0  0  0
  -23.3567  -15.3807   19.9831 C   0  0  0  0  0  0  0  0  0  0  0  0
  -28.5884  -33.1525   25.4927 C   0  0  0  0  0  0  0  0  0  0  0  0
  -29.2936  -30.8109   24.1639 C   0  0  0  0  0  0  0  0  0  0  0  0
  -28.6213  -26.9506   19.3637 C   0  0  0  0  0  0  0  0  0  0  0  0
  -23.3595  -16.8309   22.3663 C   0  0  0  0  0  0  0  0  0  0  0  0
  -22.6087  -16.5535   20.0867 C   0  0  0  0  0  0  0  0  0  0  0  0
  -29.0586  -25.6508   19.1123 C   0  0  0  0  0  0  0  0  0  0  0  0
  -23.1706  -19.8853   19.9699 C   0  0  0  0  0  0  0  0  0  0  0  0
  -23.2384  -20.7928   18.9128 C   0  0  0  0  0  0  0  0  0  0  0  0
  -26.9589  -24.7922   19.9322 C   0  0  0  0  0  0  0  0  0  0  0  0
  -20.8562  -20.5755   18.5736 C   0  0  0  0  0  0  0  0  0  0  0  0
  -30.9047  -16.8664   18.5389 C   0  0  0  0  0  0  0  0  0  0  0  0
  -24.1062  -14.9331   21.0710 C   0  0  0  0  0  0  0  0  0  0  0  0
  -29.5941  -16.5959   18.8977 C   0  0  0  0  0  0  0  0  0  0  0  0
  -24.4548  -12.4132   21.2620 C   0  0  0  0  0  0  0  0  0  0  0  0
  -27.6469  -32.1179   25.3752 C   0  0  0  0  0  0  0  0  0  0  0  0
  -27.3512  -27.1813   19.9119 C   0  0  0  0  0  0  0  0  0  0  0  0
  -28.0052  -30.9285   24.7124 C   0  0  0  0  0  0  0  0  0  0  0  0
  -26.5061  -26.0960   20.1851 C   0  0  0  0  0  0  0  0  0  0  0  0
  -28.5860  -17.3280   18.2801 C   0  0  0  0  0  0  0  0  0  0  0  0
  -28.9148  -18.2945   17.3361 C   0  0  0  0  0  0  0  0  0  0  0  0
  -22.6101  -17.2786   21.2783 C   0  0  0  0  0  0  0  0  0  0  0  0
  -28.2282  -24.5713   19.3987 C   0  0  0  0  0  0  0  0  0  0  0  0
  -21.9456  -19.3229   20.3289 C   0  0  0  0  0  0  0  0  0  0  0  0
  -22.0812  -21.1379   18.2147 C   0  0  0  0  0  0  0  0  0  0  0  0
  -20.7884  -19.6681   19.6308 C   0  0  0  0  0  0  0  0  0  0  0  0
  -24.8791  -13.7219   20.9632 C   0  0  0  0  0  0  0  0  0  0  0  0
  -30.2559  -18.4890   17.0472 C   0  0  0  0  0  0  0  0  0  0  0  0
  -25.5499  -11.6281   20.9960 C   0  0  0  0  0  0  0  0  0  0  0  0
  -29.3101  -15.5631   19.9019 C   0  0  0  0  0  0  0  0  0  0  0  0
  -23.1844  -11.9489   21.7375 C   0  0  0  0  0  0  0  0  0  0  0  0
  -26.1828  -28.5354   22.5665 C   0  0  0  0  0  0  0  0  0  0  0  0
  -23.3191  -27.9320   20.9890 C   0  0  0  0  0  0  0  0  0  0  0  0
  -21.7206  -29.9560   23.2223 C   0  0  0  0  0  0  0  0  0  0  0  0
  -26.2966  -32.2878   26.0254 C   0  0  0  0  0  0  0  0  0  0  0  0
  -26.8867  -28.5931   20.1473 C   0  0  0  0  0  0  0  0  0  0  0  0
  -25.1334  -26.2910   20.7702 C   0  0  0  0  0  0  0  0  0  0  0  0
  -25.2536  -31.2876   25.5336 C   0  0  0  0  0  0  0  0  0  0  0  0
  -28.0438  -12.8702   17.7120 C   0  0  0  0  0  0  0  0  0  0  0  0
  -25.8357  -29.8778   25.5092 C   0  0  0  0  0  0  0  0  0  0  0  0
  -27.9963  -11.6851   18.6721 C   0  0  0  0  0  0  0  0  0  0  0  0
  -29.1856  -13.8148   18.0629 C   0  0  0  0  0  0  0  0  0  0  0  0
  -29.0227  -13.1770   20.4595 C   0  0  0  0  0  0  0  0  0  0  0  0
  -27.0243  -29.7884   24.5445 C   0  0  1  0  0  0  0  0  0  0  0  0
  -25.7328  -28.6979   21.1423 C   0  0  1  0  0  0  0  0  0  0  0  0
  -27.9438  -12.1209   20.1469 C   0  0  1  0  0  0  0  0  0  0  0  0
  -27.1534  -17.0771   18.6295 C   0  0  0  0  0  0  0  0  0  0  0  0
  -30.6702  -19.5125   16.0413 C   0  0  0  0  0  0  0  0  0  0  0  0
  -19.5036  -31.0497   23.6534 C   0  0  0  0  0  0  0  0  0  0  0  0
  -23.9270  -30.0051   18.8354 C   0  0  0  0  0  0  0  0  0  0  0  0
  -22.2611  -31.5229   19.9259 C   0  0  0  0  0  0  0  0  0  0  0  0
  -21.5230  -29.3326   18.9876 C   0  0  0  0  0  0  0  0  0  0  0  0
  -21.3756  -28.5127   25.7830 C   0  0  0  0  0  0  0  0  0  0  0  0
  -27.8449  -19.1049   16.6488 C   0  0  0  0  0  0  0  0  0  0  0  0
  -27.2487  -20.2125   17.5245 C   0  0  0  0  0  0  0  0  0  0  0  0
  -28.2730  -21.2746   17.9264 C   0  0  0  0  0  0  0  0  0  0  0  0
  -27.6546  -22.3352   18.8270 C   0  0  0  0  0  0  0  0  0  1  0  0
  -22.8903  -29.3726   21.1138 C   0  0  1  0  0  0  0  0  0  0  0  0
  -20.3741  -29.8299   23.9119 C   0  0  2  0  0  0  0  0  0  0  0  0
  -22.6724  -30.0480   19.7304 C   0  0  0  0  0  0  0  0  0  0  0  0
  -31.2628  -17.7974   17.6263 N   0  0  0  0  0  0  0  0  0  0  0  0
  -26.1450  -13.7695   20.5399 N   0  0  0  0  0  0  0  0  0  0  0  0
  -26.5257  -12.4810   20.5709 N   0  0  0  0  0  0  0  0  0  0  0  0
  -29.1127  -14.2479   19.4632 N   0  0  0  0  0  0  0  0  0  0  0  0
  -24.6955  -27.6867   20.9019 N   0  0  0  0  0  0  0  0  0  0  0  0
  -25.7638  -10.2983   21.0867 N   0  0  0  0  0  0  0  0  0  0  0  0
  -22.1691  -12.8896   21.9581 N   0  0  0  0  0  0  0  0  0  0  0  0
  -26.5601  -29.7169   23.1757 N   0  0  0  0  0  0  0  0  0  0  0  0
  -21.7106  -29.3744   21.9722 N   0  0  0  0  0  0  0  0  0  0  0  0
  -20.5574  -29.6868   25.3839 N   0  3  0  0  0  0  0  0  0  0  0  0
  -29.2530  -15.9445   21.0702 O   0  0  0  0  0  0  0  0  0  0  0  0
  -22.9614  -10.7377   21.9757 O   0  0  0  0  0  0  0  0  0  0  0  0
  -26.1861  -27.4207   23.0756 O   0  0  0  0  0  0  0  0  0  0  0  0
  -22.4592  -27.0471   20.9615 O   0  0  0  0  0  0  0  0  0  0  0  0
  -22.6838  -30.5177   23.7394 O   0  0  0  0  0  0  0  0  0  0  0  0
  -21.8799  -18.4228   21.3792 O   0  0  0  0  0  0  0  0  0  0  0  0
  -28.6524  -23.3017   19.1537 O   0  0  0  0  0  0  0  0  0  1  0  0
  -22.1462  -22.0105   17.2005 F   0  0  0  0  0  0  0  0  0  0  0  0
  -19.6086  -19.1320   19.9718 F   0  0  0  0  0  0  0  0  0  0  0  0
  1  2  1  0  0  0  0
  1  5  2  0  0  0  0
  2  6  2  0  0  0  0
  3  8  2  0  0  0  0
  3 16  1  0  0  0  0
  4  9  1  0  0  0  0
  4 16  2  0  0  0  0
  5 19  1  0  0  0  0
  6 21  1  0  0  0  0
  7 10  2  0  0  0  0
  7 20  1  0  0  0  0
  8 25  1  0  0  0  0
  9 25  2  0  0  0  0
 10 26  1  0  0  0  0
 11 12  2  0  0  0  0
 11 27  1  0  0  0  0
 12 28  1  0  0  0  0
 13 22  1  0  0  0  0
 13 26  2  0  0  0  0
 14 28  2  0  0  0  0
 14 29  1  0  0  0  0
 15 17  2  0  0  0  0
 15 64  1  0  0  0  0
 16 30  1  0  0  0  0
 17 23  1  0  0  0  0
 17 33  1  0  0  0  0
 18 30  1  0  0  0  0
 18 32  2  0  0  0  0
 18 34  1  0  0  0  0
 19 21  2  0  0  0  0
 19 38  1  0  0  0  0
 20 22  2  0  0  0  0
 20 39  1  0  0  0  0
 21 47  1  0  0  0  0
 22 40  1  0  0  0  0
 23 24  2  0  0  0  0
 23 50  1  0  0  0  0
 24 31  1  0  0  0  0
 24 57  1  0  0  0  0
 25 79  1  0  0  0  0
 26 80  1  0  0  0  0
 27 29  2  0  0  0  0
 27 79  1  0  0  0  0
 28 81  1  0  0  0  0
 29 82  1  0  0  0  0
 30 65  2  0  0  0  0
 31 51  1  0  0  0  0
 31 64  2  0  0  0  0
 32 66  1  0  0  0  0
 32 69  1  0  0  0  0
 33 67  1  0  0  0  0
 33 74  2  0  0  0  0
 34 70  1  0  0  0  0
 34 75  2  0  0  0  0
 35 48  1  0  0  0  0
 35 71  1  0  0  0  0
 35 76  2  0  0  0  0
 36 61  1  0  0  0  0
 36 68  1  0  0  0  0
 36 77  2  0  0  0  0
 37 62  1  0  0  0  0
 37 72  1  0  0  0  0
 37 78  2  0  0  0  0
 38 41  1  0  0  0  0
 39 48  1  0  0  0  0
 40 68  1  0  0  0  0
 41 43  1  0  0  0  0
 42 44  1  0  0  0  0
 42 45  1  0  0  0  0
 43 47  1  0  0  0  0
 44 49  1  0  0  0  0
 45 67  1  0  0  0  0
 46 49  1  0  0  0  0
 46 67  1  0  0  0  0
 47 71  1  0  0  0  0
 48 68  1  0  0  0  0
 49 66  1  0  0  0  0
 52 62  1  0  0  0  0
 53 63  1  0  0  0  0
 54 63  1  0  0  0  0
 55 63  1  0  0  0  0
 56 73  1  0  0  0  0
 57 58  1  0  0  0  0
 58 59  1  0  0  0  0
 59 60  1  0  0  0  0
 60 80  1  0  0  0  0
 61 63  1  0  0  0  0
 61 72  1  0  0  0  0
 62 73  1  0  0  0  0
 65 66  1  0  0  0  0
M  CHG  1  73   1
M  ISO  4  17 100  33 100  60 101  80 101
M  END
> <Batch ID>
0041

> <Smiles>
CNC(C)C(=O)NC(C(=O)N1Cc2cc([101O:1][101CH2:1]CCCc3c(C)nc[100c:0]([100C:0](=O)N4CCCC(n5nc(-c6ccc(Oc7ccc(F)cc7F)cc6)c(C(N)=O)c5N)C4)c3C)ccc2CC1C(=O)NC1CCCc2ccccc21)C(C)(C)C

> <Shape>
0.261

> <Color>
0.095

> <Negative vol penalty>
0.000

$$$$

  -OEChem-04052317093D

 85 93  0     1  0  0  0  0  0999 V2000
  -31.5842  -25.3353   15.0925 C   0  0  0  0  0  0  0  0  0  0  0  0
  -30.6906  -24.8248   16.0286 C   0  0  0  0  0  0  0  0  0  0  0  0
  -23.0589   -9.8979   19.8555 C   0  0  0  0  0  0  0  0  0  0  0  0
  -23.9907   -9.6208   22.0673 C   0  0  0  0  0  0  0  0  0  0  0  0
  -32.2170  -26.5552   15.3275 C   0  0  0  0  0  0  0  0  0  0  0  0
  -30.4300  -25.5336   17.2009 C   0  0  0  0  0  0  0  0  0  0  0  0
  -25.4911  -25.7135   18.3052 C   0  0  0  0  0  0  0  0  0  0  0  0
  -22.3574   -8.7011   20.0011 C   0  0  0  0  0  0  0  0  0  0  0  0
  -23.2892   -8.4240   22.2130 C   0  0  0  0  0  0  0  0  0  0  0  0
  -24.9245  -24.5748   18.8763 C   0  0  0  0  0  0  0  0  0  0  0  0
  -20.1313   -7.4620   22.9360 C   0  0  0  0  0  0  0  0  0  0  0  0
  -19.4664   -7.2450   24.1429 C   0  0  0  0  0  0  0  0  0  0  0  0
  -25.0711  -25.6015   21.0543 C   0  0  0  0  0  0  0  0  0  0  0  0
  -20.7955   -5.2627   24.5186 C   0  0  0  0  0  0  0  0  0  0  0  0
  -26.0959  -19.5389   19.8565 C   0  0  0  0  0  0  0  0  0  0  0  0
  -23.8756  -10.3577   20.8886 C   0  0  0  0  0  0  0  0  0  0  0  0
  -24.1611  -12.8850   21.0858 C   0  0  0  0  0  0  0  0  0  0  0  0
  -31.9568  -27.2839   16.4988 C   0  0  0  0  0  0  0  0  0  0  0  0
  -25.8627  -26.8022   19.1071 C   0  0  0  0  0  0  0  0  0  0  0  0
  -31.0609  -26.7637   17.4524 C   0  0  0  0  0  0  0  0  0  0  0  0
  -25.6399  -26.7538   20.4907 C   0  0  0  0  0  0  0  0  0  0  0  0
  -22.4725   -7.9642   21.1799 C   0  0  0  0  0  0  0  0  0  0  0  0
  -24.7170  -24.5175   20.2513 C   0  0  0  0  0  0  0  0  0  0  0  0
  -21.1282   -6.5793   22.5204 C   0  0  0  0  0  0  0  0  0  0  0  0
  -19.7985   -6.1454   24.9342 C   0  0  0  0  0  0  0  0  0  0  0  0
  -21.4603   -5.4796   23.3117 C   0  0  0  0  0  0  0  0  0  0  0  0
  -24.6010  -11.5936   20.7386 C   0  0  0  0  0  0  0  0  0  0  0  0
  -27.1064  -19.9631   20.7400 C   0  0  0  0  0  0  0  0  0  0  0  0
  -24.9452  -20.0969   20.3576 C   0  0  0  0  0  0  0  0  0  0  0  0
  -25.2086  -13.7068   20.7484 C   0  0  0  0  0  0  0  0  0  0  0  0
  -22.9170  -13.3042   21.6620 C   0  0  0  0  0  0  0  0  0  0  0  0
  -28.6025  -28.2759   19.7594 C   0  0  0  0  0  0  0  0  0  0  0  0
  -26.6652  -30.3378   21.3461 C   0  0  0  0  0  0  0  0  0  0  0  0
  -23.6917  -30.8835   22.9295 C   0  0  0  0  0  0  0  0  0  0  0  0
  -30.6713  -14.8465   20.6723 C   0  0  0  0  0  0  0  0  0  0  0  0
  -32.7007  -28.5752   16.7308 C   0  0  0  0  0  0  0  0  0  0  0  0
  -26.4481  -28.0338   18.4725 C   0  0  0  0  0  0  0  0  0  0  0  0
  -26.0026  -27.9039   21.3930 C   0  0  0  0  0  0  0  0  0  0  0  0
  -32.0857  -29.4444   17.8246 C   0  0  0  0  0  0  0  0  0  0  0  0
  -29.3992  -12.7700   18.0749 C   0  0  0  0  0  0  0  0  0  0  0  0
  -31.7614  -28.6037   19.0554 C   0  0  0  0  0  0  0  0  0  0  0  0
  -28.0045  -12.3806   18.5678 C   0  0  0  0  0  0  0  0  0  0  0  0
  -30.4008  -12.8547   19.2245 C   0  0  0  0  0  0  0  0  0  0  0  0
  -28.5970  -13.3405   20.8320 C   0  0  0  0  0  0  0  0  0  0  0  0
  -30.7335  -27.5150   18.7246 C   0  0  1  0  0  0  0  0  0  0  0  0
  -27.2621  -28.8790   19.4475 C   0  0  1  0  0  0  0  0  0  0  0  0
  -27.5395  -13.2968   19.7157 C   0  0  2  0  0  0  0  0  0  0  0  0
  -21.3250  -18.7942   20.0375 C   0  0  0  0  0  0  0  0  0  0  0  0
  -22.4104  -32.6575   24.1577 C   0  0  0  0  0  0  0  0  0  0  0  0
  -28.4244  -29.9052   23.8014 C   0  0  0  0  0  0  0  0  0  0  0  0
  -26.6024  -30.9057   25.1969 C   0  0  0  0  0  0  0  0  0  0  0  0
  -27.7134  -32.2742   23.4318 C   0  0  0  0  0  0  0  0  0  0  0  0
  -21.4994  -30.8397   20.9418 C   0  0  0  0  0  0  0  0  0  0  0  0
  -28.5440  -19.6507   20.6755 C   0  0  0  0  0  0  0  0  0  0  0  0
  -23.5501  -20.0275   19.8857 C   0  0  0  0  0  0  0  0  0  0  0  0
  -22.7742  -18.8417   20.4954 C   0  0  0  0  0  0  0  0  0  0  0  0
  -28.9145  -18.3660   21.4475 C   0  0  0  0  0  0  0  0  0  0  0  0
  -30.4177  -18.0752   21.4078 C   0  0  0  0  0  0  0  0  0  0  0  0
  -24.4269  -21.5930   22.3838 C   0  0  0  0  0  0  0  0  0  0  0  0
  -30.7917  -16.8142   22.1799 C   0  0  0  0  0  0  0  0  0  0  0  0
  -24.5493  -23.0948   22.1496 C   0  0  0  0  0  0  0  0  0  1  0  0
  -26.1241  -30.4291   22.7525 C   0  0  1  0  0  0  0  0  0  0  0  0
  -22.6778  -32.0069   22.8094 C   0  0  2  0  0  0  0  0  0  0  0  0
  -27.2109  -30.8560   23.7791 C   0  0  0  0  0  0  0  0  0  0  0  0
  -25.8319  -11.5902   20.2201 N   0  0  0  0  0  0  0  0  0  0  0  0
  -26.6388  -20.7314   21.7275 N   0  0  0  0  0  0  0  0  0  0  0  0
  -25.3218  -20.7945   21.4674 N   0  0  0  0  0  0  0  0  0  0  0  0
  -26.1745  -12.8896   20.2390 N   0  0  0  0  0  0  0  0  0  0  0  0
  -26.5779  -29.0835   20.7259 N   0  0  0  0  0  0  0  0  0  0  0  0
  -29.9005  -13.7401   20.2789 N   0  0  0  0  0  0  0  0  0  0  0  0
  -25.3885  -15.0416   20.8406 N   0  0  0  0  0  0  0  0  0  0  0  0
  -21.9504  -12.3300   21.9464 N   0  0  0  0  0  0  0  0  0  0  0  0
  -29.4037  -28.0812   18.6505 N   0  0  0  0  0  0  0  0  0  0  0  0
  -24.9754  -31.3263   22.6905 N   0  0  0  0  0  0  0  0  0  0  0  0
  -30.1210  -15.6376   21.6734 N   0  0  0  0  0  0  0  0  0  0  0  0
  -21.3880  -31.4856   22.2750 N   0  3  0  0  0  0  0  0  0  0  0  0
  -22.6633  -14.5091   21.9020 O   0  0  0  0  0  0  0  0  0  0  0  0
  -28.8892  -28.0084   20.9204 O   0  0  0  0  0  0  0  0  0  0  0  0
  -27.1411  -31.3442   20.8148 O   0  0  0  0  0  0  0  0  0  0  0  0
  -23.3768  -29.7293   23.2112 O   0  0  0  0  0  0  0  0  0  0  0  0
  -31.7661  -15.1130   20.1649 O   0  0  0  0  0  0  0  0  0  0  0  0
  -21.7879   -6.7965   21.3224 O   0  0  0  0  0  0  0  0  0  0  0  0
  -24.1647  -23.4070   20.8114 O   0  0  0  0  0  0  0  0  0  1  0  0
  -19.1610   -5.9380   26.0938 F   0  0  0  0  0  0  0  0  0  0  0  0
  -22.4179   -4.6288   22.9183 F   0  0  0  0  0  0  0  0  0  0  0  0
  1  2  1  0  0  0  0
  1  5  2  0  0  0  0
  2  6  2  0  0  0  0
  3  8  2  0  0  0  0
  3 16  1  0  0  0  0
  4  9  1  0  0  0  0
  4 16  2  0  0  0  0
  5 18  1  0  0  0  0
  6 20  1  0  0  0  0
  7 10  2  0  0  0  0
  7 19  1  0  0  0  0
  8 22  1  0  0  0  0
  9 22  2  0  0  0  0
 10 23  1  0  0  0  0
 11 12  2  0  0  0  0
 11 24  1  0  0  0  0
 12 25  1  0  0  0  0
 13 21  1  0  0  0  0
 13 23  2  0  0  0  0
 14 25  2  0  0  0  0
 14 26  1  0  0  0  0
 15 28  1  0  0  0  0
 15 29  2  0  0  0  0
 16 27  1  0  0  0  0
 17 27  1  0  0  0  0
 17 30  2  0  0  0  0
 17 31  1  0  0  0  0
 18 20  2  0  0  0  0
 18 36  1  0  0  0  0
 19 21  2  0  0  0  0
 19 37  1  0  0  0  0
 20 45  1  0  0  0  0
 21 38  1  0  0  0  0
 22 82  1  0  0  0  0
 23 83  1  0  0  0  0
 24 26  2  0  0  0  0
 24 82  1  0  0  0  0
 25 84  1  0  0  0  0
 26 85  1  0  0  0  0
 27 65  2  0  0  0  0
 28 54  1  0  0  0  0
 28 66  2  0  0  0  0
 29 55  1  0  0  0  0
 29 67  1  0  0  0  0
 30 68  1  0  0  0  0
 30 71  1  0  0  0  0
 31 72  1  0  0  0  0
 31 77  2  0  0  0  0
 32 46  1  0  0  0  0
 32 73  1  0  0  0  0
 32 78  2  0  0  0  0
 33 62  1  0  0  0  0
 33 69  1  0  0  0  0
 33 79  2  0  0  0  0
 34 63  1  0  0  0  0
 34 74  1  0  0  0  0
 34 80  2  0  0  0  0
 35 70  1  0  0  0  0
 35 75  1  0  0  0  0
 35 81  2  0  0  0  0
 36 39  1  0  0  0  0
 37 46  1  0  0  0  0
 38 69  1  0  0  0  0
 39 41  1  0  0  0  0
 40 42  1  0  0  0  0
 40 43  1  0  0  0  0
 41 45  1  0  0  0  0
 42 47  1  0  0  0  0
 43 70  1  0  0  0  0
 44 47  1  0  0  0  0
 44 70  1  0  0  0  0
 45 73  1  0  0  0  0
 46 69  1  0  0  0  0
 47 68  1  0  0  0  0
 48 56  1  0  0  0  0
 49 63  1  0  0  0  0
 50 64  1  0  0  0  0
 51 64  1  0  0  0  0
 52 64  1  0  0  0  0
 53 76  1  0  0  0  0
 54 57  1  0  0  0  0
 55 56  1  0  0  0  0
 57 58  1  0  0  0  0
 58 60  1  0  0  0  0
 59 61  1  0  0  0  0
 59 67  1  0  0  0  0
 60 75  1  0  0  0  0
 61 83  1  0  0  0  0
 62 64  1  0  0  0  0
 62 74  1  0  0  0  0
 63 76  1  0  0  0  0
 65 68  1  0  0  0  0
 66 67  1  0  0  0  0
M  CHG  1  76   1
M  ISO  4  35 100  61 101  75 100  83 101
M  END
> <Batch ID>
0041

> <Smiles>
CCCc1cc(CCCC[100NH:0][100C:0](=O)N2CCCC(n3nc(-c4ccc(Oc5ccc(F)cc5F)cc4)c(C(N)=O)c3N)C2)nn1C[101CH2:1][101O:1]c1ccc2c(c1)CN(C(=O)C(NC(=O)C(C)NC)C(C)(C)C)C(C(=O)NC1CCCc3ccccc31)C2

> <Shape>
0.331

> <Color>
0.206

> <Negative vol penalty>
0.000

$$$$

  -OEChem-04052317093D

 84 92  0     1  0  0  0  0  0999 V2000
  -30.5174  -33.9307   17.9188 C   0  0  0  0  0  0  0  0  0  0  0  0
  -30.3341  -32.6354   18.3922 C   0  0  0  0  0  0  0  0  0  0  0  0
  -26.7216  -12.0645   20.7514 C   0  0  0  0  0  0  0  0  0  0  0  0
  -25.8157  -14.2143   20.1231 C   0  0  0  0  0  0  0  0  0  0  0  0
  -29.8712  -34.9974   18.5421 C   0  0  0  0  0  0  0  0  0  0  0  0
  -29.5052  -32.4062   19.4899 C   0  0  0  0  0  0  0  0  0  0  0  0
  -26.4125  -28.4563   18.7978 C   0  0  0  0  0  0  0  0  0  0  0  0
  -25.4774  -11.4749   20.5280 C   0  0  0  0  0  0  0  0  0  0  0  0
  -24.5715  -13.6247   19.8996 C   0  0  0  0  0  0  0  0  0  0  0  0
  -26.9601  -27.1838   18.9547 C   0  0  0  0  0  0  0  0  0  0  0  0
  -22.5226  -11.2048   22.1469 C   0  0  0  0  0  0  0  0  0  0  0  0
  -22.0518  -10.3048   23.1028 C   0  0  0  0  0  0  0  0  0  0  0  0
  -26.0196  -27.0592   21.1727 C   0  0  0  0  0  0  0  0  0  0  0  0
  -21.9755   -8.5655   21.4275 C   0  0  0  0  0  0  0  0  0  0  0  0
  -27.3524  -22.0881   20.8493 C   0  0  0  0  0  0  0  0  0  0  0  0
  -26.8907  -13.4342   20.5491 C   0  0  0  0  0  0  0  0  0  0  0  0
  -29.2174  -14.2108   19.8484 C   0  0  0  0  0  0  0  0  0  0  0  0
  -29.0264  -34.7800   19.6420 C   0  0  0  0  0  0  0  0  0  0  0  0
  -25.6724  -29.0453   19.8331 C   0  0  0  0  0  0  0  0  0  0  0  0
  -28.8482  -33.4711   20.1293 C   0  0  0  0  0  0  0  0  0  0  0  0
  -25.4616  -28.3382   21.0254 C   0  0  0  0  0  0  0  0  0  0  0  0
  -24.4023  -12.2550   20.1020 C   0  0  0  0  0  0  0  0  0  0  0  0
  -26.7661  -26.4862   20.1433 C   0  0  0  0  0  0  0  0  0  0  0  0
  -22.7199  -10.7853   20.8313 C   0  0  0  0  0  0  0  0  0  0  0  0
  -21.7782   -8.9851   22.7431 C   0  0  0  0  0  0  0  0  0  0  0  0
  -22.4464   -9.4657   20.4716 C   0  0  0  0  0  0  0  0  0  0  0  0
  -28.1756  -14.0440   20.7803 C   0  0  0  0  0  0  0  0  0  0  0  0
  -27.7506  -23.2534   21.5315 C   0  0  0  0  0  0  0  0  0  0  0  0
  -28.3157  -21.1606   21.1629 C   0  0  0  0  0  0  0  0  0  0  0  0
  -30.2136  -14.8383   20.5557 C   0  0  0  0  0  0  0  0  0  0  0  0
  -29.2791  -13.8326   18.4668 C   0  0  0  0  0  0  0  0  0  0  0  0
  -25.9991  -31.6524   21.6219 C   0  0  0  0  0  0  0  0  0  0  0  0
  -23.0676  -30.7962   22.7153 C   0  0  0  0  0  0  0  0  0  0  0  0
  -20.7698  -28.3224   23.2129 C   0  0  0  0  0  0  0  0  0  0  0  0
  -30.1827  -18.3267   25.4221 C   0  0  0  0  0  0  0  0  0  0  0  0
  -28.3866  -35.9700   20.3123 C   0  0  0  0  0  0  0  0  0  0  0  0
  -25.0658  -30.4078   19.6380 C   0  0  0  0  0  0  0  0  0  0  0  0
  -24.6577  -28.9178   22.1596 C   0  0  0  0  0  0  0  0  0  0  0  0
  -27.2299  -35.5994   21.2368 C   0  0  0  0  0  0  0  0  0  0  0  0
  -31.9555  -15.2692   24.9910 C   0  0  0  0  0  0  0  0  0  0  0  0
  -27.6173  -34.4276   22.1333 C   0  0  0  0  0  0  0  0  0  0  0  0
  -31.2817  -14.6235   23.7788 C   0  0  0  0  0  0  0  0  0  0  0  0
  -30.9492  -16.0133   25.8661 C   0  0  0  0  0  0  0  0  0  0  0  0
  -29.4498  -16.3603   23.9412 C   0  0  0  0  0  0  0  0  0  0  0  0
  -27.9374  -33.1793   21.3021 C   0  0  1  0  0  0  0  0  0  0  0  0
  -24.7635  -31.1210   20.9523 C   0  0  1  0  0  0  0  0  0  0  0  0
  -30.4330  -15.6454   22.9986 C   0  0  2  0  0  0  0  0  0  0  0  0
  -30.1871  -17.9912   17.7315 C   0  0  0  0  0  0  0  0  0  0  0  0
  -18.4821  -27.9209   24.1628 C   0  0  0  0  0  0  0  0  0  0  0  0
  -24.2181  -30.9337   25.5379 C   0  0  0  0  0  0  0  0  0  0  0  0
  -22.2319  -29.6351   26.3358 C   0  0  0  0  0  0  0  0  0  0  0  0
  -21.9167  -31.8834   25.3021 C   0  0  0  0  0  0  0  0  0  0  0  0
  -19.7152  -27.4229   20.5980 C   0  0  0  0  0  0  0  0  0  0  0  0
  -27.0620  -24.5864   21.5431 C   0  0  0  0  0  0  0  0  0  1  0  0
  -28.4690  -19.7502   20.7619 C   0  0  0  0  0  0  0  0  0  0  0  0
  -29.4090  -18.1250   19.0307 C   0  0  0  0  0  0  0  0  0  0  0  0
  -29.2906  -19.5859   19.4652 C   0  0  0  0  0  0  0  0  0  0  0  0
  -30.4318  -21.3697   24.1100 C   0  0  0  0  0  0  0  0  0  0  0  0
  -30.3884  -21.2447   22.5811 C   0  0  0  0  0  0  0  0  0  0  0  0
  -29.3424  -20.5886   24.8417 C   0  0  0  0  0  0  0  0  0  0  0  0
  -22.5577  -29.9248   23.8376 C   0  0  1  0  0  0  0  0  0  0  0  0
  -19.2831  -28.2536   22.9136 C   0  0  2  0  0  0  0  0  0  0  0  0
  -22.7479  -30.5838   25.2329 C   0  0  0  0  0  0  0  0  0  0  0  0
  -28.4816  -14.5263   21.9877 N   0  0  0  0  0  0  0  0  0  0  0  0
  -28.8788  -23.0842   22.2262 N   0  0  0  0  0  0  0  0  0  0  0  0
  -29.1977  -21.8017   21.9823 N   0  0  0  0  0  0  0  0  0  0  0  0
  -29.7270  -15.0024   21.8192 N   0  0  0  0  0  0  0  0  0  0  0  0
  -24.0903  -30.2556   21.9231 N   0  0  0  0  0  0  0  0  0  0  0  0
  -30.1781  -16.9679   25.0661 N   0  0  0  0  0  0  0  0  0  0  0  0
  -31.4496  -15.2600   20.2140 N   0  0  0  0  0  0  0  0  0  0  0  0
  -28.1672  -13.1969   17.8978 N   0  0  0  0  0  0  0  0  0  0  0  0
  -26.7169  -32.5463   20.8504 N   0  0  0  0  0  0  0  0  0  0  0  0
  -21.1718  -29.6073   23.5106 N   0  0  0  0  0  0  0  0  0  0  0  0
  -29.4310  -19.1645   24.6074 N   0  0  0  0  0  0  0  0  0  0  0  0
  -19.0092  -27.2082   21.8874 N   0  3  0  0  0  0  0  0  0  0  0  0
  -30.2966  -14.0370   17.7622 O   0  0  0  0  0  0  0  0  0  0  0  0
  -26.2797  -31.2802   22.7552 O   0  0  0  0  0  0  0  0  0  0  0  0
  -22.5716  -31.9125   22.5433 O   0  0  0  0  0  0  0  0  0  0  0  0
  -21.5006  -27.3346   23.1888 O   0  0  0  0  0  0  0  0  0  0  0  0
  -30.8145  -18.7618   26.3908 O   0  0  0  0  0  0  0  0  0  0  0  0
  -23.1882  -11.6799   19.8836 O   0  0  0  0  0  0  0  0  0  0  0  0
  -27.3000  -25.2442   20.2993 O   0  0  0  0  0  0  0  0  0  1  0  0
  -21.3275   -8.1205   23.6615 F   0  0  0  0  0  0  0  0  0  0  0  0
  -22.6350   -9.0565   19.2096 F   0  0  0  0  0  0  0  0  0  0  0  0
  1  2  1  0  0  0  0
  1  5  2  0  0  0  0
  2  6  2  0  0  0  0
  3  8  2  0  0  0  0
  3 16  1  0  0  0  0
  4  9  1  0  0  0  0
  4 16  2  0  0  0  0
  5 18  1  0  0  0  0
  6 20  1  0  0  0  0
  7 10  2  0  0  0  0
  7 19  1  0  0  0  0
  8 22  1  0  0  0  0
  9 22  2  0  0  0  0
 10 23  1  0  0  0  0
 11 12  2  0  0  0  0
 11 24  1  0  0  0  0
 12 25  1  0  0  0  0
 13 21  1  0  0  0  0
 13 23  2  0  0  0  0
 14 25  2  0  0  0  0
 14 26  1  0  0  0  0
 15 28  1  0  0  0  0
 15 29  2  0  0  0  0
 16 27  1  0  0  0  0
 17 27  1  0  0  0  0
 17 30  2  0  0  0  0
 17 31  1  0  0  0  0
 18 20  2  0  0  0  0
 18 36  1  0  0  0  0
 19 21  2  0  0  0  0
 19 37  1  0  0  0  0
 20 45  1  0  0  0  0
 21 38  1  0  0  0  0
 22 81  1  0  0  0  0
 23 82  1  0  0  0  0
 24 26  2  0  0  0  0
 24 81  1  0  0  0  0
 25 83  1  0  0  0  0
 26 84  1  0  0  0  0
 27 64  2  0  0  0  0
 28 54  1  0  0  0  0
 28 65  2  0  0  0  0
 29 55  1  0  0  0  0
 29 66  1  0  0  0  0
 30 67  1  0  0  0  0
 30 70  1  0  0  0  0
 31 71  1  0  0  0  0
 31 76  2  0  0  0  0
 32 46  1  0  0  0  0
 32 72  1  0  0  0  0
 32 77  2  0  0  0  0
 33 61  1  0  0  0  0
 33 68  1  0  0  0  0
 33 78  2  0  0  0  0
 34 62  1  0  0  0  0
 34 73  1  0  0  0  0
 34 79  2  0  0  0  0
 35 69  1  0  0  0  0
 35 74  1  0  0  0  0
 35 80  2  0  0  0  0
 36 39  1  0  0  0  0
 37 46  1  0  0  0  0
 38 68  1  0  0  0  0
 39 41  1  0  0  0  0
 40 42  1  0  0  0  0
 40 43  1  0  0  0  0
 41 45  1  0  0  0  0
 42 47  1  0  0  0  0
 43 69  1  0  0  0  0
 44 47  1  0  0  0  0
 44 69  1  0  0  0  0
 45 72  1  0  0  0  0
 46 68  1  0  0  0  0
 47 67  1  0  0  0  0
 48 56  1  0  0  0  0
 49 62  1  0  0  0  0
 50 63  1  0  0  0  0
 51 63  1  0  0  0  0
 52 63  1  0  0  0  0
 53 75  1  0  0  0  0
 54 82  1  0  0  0  0
 55 57  1  0  0  0  0
 56 57  1  0  0  0  0
 58 59  1  0  0  0  0
 58 60  1  0  0  0  0
 59 66  1  0  0  0  0
 60 74  1  0  0  0  0
 61 63  1  0  0  0  0
 61 73  1  0  0  0  0
 62 75  1  0  0  0  0
 64 67  1  0  0  0  0
 65 66  1  0  0  0  0
M  CHG  1  75   1
M  ISO  4  35 100  54 101  74 100  82 101
M  END
> <Batch ID>
0041

> <Smiles>
CCCCc1cc([101CH2:1][101O:1]c2ccc3c(c2)CN(C(=O)C(NC(=O)C(C)NC)C(C)(C)C)C(C(=O)NC2CCCc4ccccc42)C3)nn1CCC[100NH:0][100C:0](=O)N1CCCC(n2nc(-c3ccc(Oc4ccc(F)cc4F)cc3)c(C(N)=O)c2N)C1

> <Shape>
0.277

> <Color>
0.066

> <Negative vol penalty>
0.000

$$$$

  -OEChem-04052317093D

 90 99  0     1  0  0  0  0  0999 V2000
  -32.3856  -13.5441   21.1353 C   0  0  0  0  0  0  0  0  0  0  0  0
  -31.6416  -14.6504   21.5330 C   0  0  0  0  0  0  0  0  0  0  0  0
  -28.3600  -24.4806   20.6246 C   0  0  0  0  0  0  0  0  0  0  0  0
  -26.8129  -25.1435   18.8914 C   0  0  0  0  0  0  0  0  0  0  0  0
  -31.8019  -12.5649   20.3327 C   0  0  0  0  0  0  0  0  0  0  0  0
  -30.3137  -14.7785   21.1273 C   0  0  0  0  0  0  0  0  0  0  0  0
  -25.7071  -17.2358   24.3283 C   0  0  0  0  0  0  0  0  0  0  0  0
  -28.1318  -23.1397   20.3155 C   0  0  0  0  0  0  0  0  0  0  0  0
  -26.5847  -23.8026   18.5822 C   0  0  0  0  0  0  0  0  0  0  0  0
  -25.1153  -18.4979   24.3024 C   0  0  0  0  0  0  0  0  0  0  0  0
  -29.1200  -20.9232   17.9610 C   0  0  0  0  0  0  0  0  0  0  0  0
  -30.2287  -20.0823   17.8649 C   0  0  0  0  0  0  0  0  0  0  0  0
  -23.4014  -17.6575   22.8275 C   0  0  0  0  0  0  0  0  0  0  0  0
  -29.3414  -18.7091   19.6437 C   0  0  0  0  0  0  0  0  0  0  0  0
  -27.7005  -25.4825   19.9126 C   0  0  0  0  0  0  0  0  0  0  0  0
  -28.9162  -27.7130   19.6794 C   0  0  0  0  0  0  0  0  0  0  0  0
  -30.4633  -12.6762   19.9250 C   0  0  0  0  0  0  0  0  0  0  0  0
  -25.1556  -16.1760   23.5940 C   0  0  0  0  0  0  0  0  0  0  0  0
  -29.7119  -13.8004   20.3173 C   0  0  0  0  0  0  0  0  0  0  0  0
  -23.9866  -16.3823   22.8478 C   0  0  0  0  0  0  0  0  0  0  0  0
  -27.2442  -22.8007   19.2942 C   0  0  0  0  0  0  0  0  0  0  0  0
  -23.9640  -18.7097   23.5496 C   0  0  0  0  0  0  0  0  0  0  0  0
  -28.1220  -20.6571   18.8985 C   0  0  0  0  0  0  0  0  0  0  0  0
  -30.3395  -18.9753   18.7062 C   0  0  0  0  0  0  0  0  0  0  0  0
  -28.2327  -19.5501   19.7398 C   0  0  0  0  0  0  0  0  0  0  0  0
  -27.9354  -26.8678   20.2319 C   0  0  0  0  0  0  0  0  0  0  0  0
  -20.4248  -30.0151   19.5454 C   0  0  0  0  0  0  0  0  0  0  0  0
  -20.7491  -30.3131   20.8523 C   0  0  0  0  0  0  0  0  0  0  0  0
  -28.7254  -28.9184   20.3097 C   0  0  0  0  0  0  0  0  0  0  0  0
  -20.4915  -27.9730   20.3425 C   0  0  0  0  0  0  0  0  0  0  0  0
  -29.9109  -27.4337   18.6853 C   0  0  0  0  0  0  0  0  0  0  0  0
  -26.1659  -14.3362   21.2069 C   0  0  0  0  0  0  0  0  0  0  0  0
  -23.3791  -12.7683   21.7530 C   0  0  0  0  0  0  0  0  0  0  0  0
  -20.1953  -12.8599   22.9783 C   0  0  0  0  0  0  0  0  0  0  0  0
  -23.9716  -31.4377   22.9377 C   0  0  0  0  0  0  0  0  0  0  0  0
  -29.8899  -11.6159   19.0185 C   0  0  0  0  0  0  0  0  0  0  0  0
  -25.7908  -14.8139   23.6538 C   0  0  0  0  0  0  0  0  0  0  0  0
  -23.3436  -15.2725   22.0582 C   0  0  0  0  0  0  0  0  0  0  0  0
  -28.3655  -11.6396   18.9416 C   0  0  0  0  0  0  0  0  0  0  0  0
  -21.9615  -22.1314   18.3740 C   0  0  0  0  0  0  0  0  0  0  0  0
  -27.1420  -30.7848   24.4207 C   0  0  0  0  0  0  0  0  0  0  0  0
  -27.8633  -13.0658   18.7398 C   0  0  0  0  0  0  0  0  0  0  0  0
  -21.9609  -23.6548   18.2827 C   0  0  0  0  0  0  0  0  0  0  0  0
  -22.6571  -21.6432   19.6417 C   0  0  0  0  0  0  0  0  0  0  0  0
  -27.7933  -29.7832   23.4655 C   0  0  0  0  0  0  0  0  0  0  0  0
  -22.0490  -23.8033   20.8046 C   0  0  0  0  0  0  0  0  0  0  0  0
  -25.6377  -30.5520   24.5428 C   0  0  0  0  0  0  0  0  0  0  0  0
  -25.5607  -29.5216   22.3054 C   0  0  0  0  0  0  0  0  0  0  0  0
  -28.2612  -13.9627   19.9182 C   0  0  1  0  0  0  0  0  0  0  0  0
  -25.4357  -13.9360   22.4576 C   0  0  1  0  0  0  0  0  0  0  0  0
  -21.3440  -24.2956   19.5325 C   0  0  1  0  0  0  0  0  0  0  0  0
  -22.0440  -22.2708   20.8998 C   0  0  2  0  0  0  0  0  0  0  0  0
  -27.0686  -29.7516   22.1064 C   0  0  2  0  0  0  0  0  0  0  0  0
  -21.4263  -31.0640   17.5001 C   0  0  0  0  0  0  0  0  0  0  0  0
  -18.1470  -11.4356   23.2491 C   0  0  0  0  0  0  0  0  0  0  0  0
  -22.7448  -13.1215   18.7894 C   0  0  0  0  0  0  0  0  0  0  0  0
  -20.3598  -12.5607   19.3045 C   0  0  0  0  0  0  0  0  0  0  0  0
  -22.1532  -10.8780   19.7227 C   0  0  0  0  0  0  0  0  0  0  0  0
  -20.2855  -13.0871   25.9278 C   0  0  0  0  0  0  0  0  0  0  0  0
  -20.2298  -30.9915   18.4540 C   0  0  0  0  0  0  0  0  0  0  0  0
  -20.9807  -31.6195   21.5009 C   0  0  0  0  0  0  0  0  0  0  0  0
  -20.4228  -26.4686   20.4180 C   0  0  0  0  0  0  0  0  0  0  0  0
  -21.4005  -25.8195   19.4401 C   0  0  0  0  0  0  0  0  0  0  0  0
  -22.7825  -21.8087   22.1431 C   0  0  0  0  0  0  0  0  0  0  0  0
  -22.3667  -32.2258   21.2166 C   0  0  0  0  0  0  0  0  0  0  0  0
  -22.6845  -20.3027   22.3326 C   0  0  0  0  0  0  0  0  0  1  0  0
  -21.9647  -12.8916   21.2398 C   0  0  1  0  0  0  0  0  0  0  0  0
  -19.4401  -11.9119   23.8923 C   0  0  2  0  0  0  0  0  0  0  0  0
  -21.8186  -12.3845   19.7773 C   0  0  0  0  0  0  0  0  0  0  0  0
  -27.1777  -27.4839   21.1432 N   0  0  0  0  0  0  0  0  0  0  0  0
  -20.2771  -28.6737   19.2511 N   0  0  0  0  0  0  0  0  0  0  0  0
  -27.6826  -28.7291   21.1682 N   0  0  0  0  0  0  0  0  0  0  0  0
  -24.0056  -13.9603   22.1435 N   0  0  0  0  0  0  0  0  0  0  0  0
  -25.0103  -30.5349   23.2192 N   0  0  0  0  0  0  0  0  0  0  0  0
  -29.3495  -30.1110   20.2078 N   0  0  0  0  0  0  0  0  0  0  0  0
  -29.9681  -26.1431   18.1416 N   0  0  0  0  0  0  0  0  0  0  0  0
  -27.3941  -13.7223   21.0516 N   0  0  0  0  0  0  0  0  0  0  0  0
  -21.1191  -12.1931   22.2018 N   0  0  0  0  0  0  0  0  0  0  0  0
  -23.4366  -31.3590   21.6577 N   0  0  0  0  0  0  0  0  0  0  0  0
  -19.1045  -12.5885   25.1771 N   0  3  0  0  0  0  0  0  0  0  0  0
  -30.7354  -28.2981   18.3027 O   0  0  0  0  0  0  0  0  0  0  0  0
  -25.6523  -15.1411   20.4388 O   0  0  0  0  0  0  0  0  0  0  0  0
  -23.9060  -11.6545   21.8120 O   0  0  0  0  0  0  0  0  0  0  0  0
  -19.9840  -14.0704   22.9529 O   0  0  0  0  0  0  0  0  0  0  0  0
  -23.5557  -32.2569   23.7640 O   0  0  0  0  0  0  0  0  0  0  0  0
  -27.0215  -21.4924   18.9921 O   0  0  0  0  0  0  0  0  0  0  0  0
  -23.3848  -19.9408   23.5221 O   0  0  0  0  0  0  0  0  0  1  0  0
  -31.4035  -18.1670   18.6128 F   0  0  0  0  0  0  0  0  0  0  0  0
  -27.2766  -19.2886   20.6416 F   0  0  0  0  0  0  0  0  0  0  0  0
  -20.8749  -28.8628   21.7590 S   0  0  0  0  0  0  0  0  0  0  0  0
  1  2  1  0  0  0  0
  1  5  2  0  0  0  0
  2  6  2  0  0  0  0
  3  8  2  0  0  0  0
  3 15  1  0  0  0  0
  4  9  1  0  0  0  0
  4 15  2  0  0  0  0
  5 17  1  0  0  0  0
  6 19  1  0  0  0  0
  7 10  2  0  0  0  0
  7 18  1  0  0  0  0
  8 21  1  0  0  0  0
  9 21  2  0  0  0  0
 10 22  1  0  0  0  0
 11 12  2  0  0  0  0
 11 23  1  0  0  0  0
 12 24  1  0  0  0  0
 13 20  1  0  0  0  0
 13 22  2  0  0  0  0
 14 24  2  0  0  0  0
 14 25  1  0  0  0  0
 15 26  1  0  0  0  0
 16 26  1  0  0  0  0
 16 29  2  0  0  0  0
 16 31  1  0  0  0  0
 17 19  2  0  0  0  0
 17 36  1  0  0  0  0
 18 20  2  0  0  0  0
 18 37  1  0  0  0  0
 19 49  1  0  0  0  0
 20 38  1  0  0  0  0
 21 86  1  0  0  0  0
 22 87  1  0  0  0  0
 23 25  2  0  0  0  0
 23 86  1  0  0  0  0
 24 88  1  0  0  0  0
 25 89  1  0  0  0  0
 26 70  2  0  0  0  0
 27 28  2  0  0  0  0
 27 60  1  0  0  0  0
 27 71  1  0  0  0  0
 28 61  1  0  0  0  0
 28 90  1  0  0  0  0
 29 72  1  0  0  0  0
 29 75  1  0  0  0  0
 30 62  1  0  0  0  0
 30 71  2  0  0  0  0
 30 90  1  0  0  0  0
 31 76  1  0  0  0  0
 31 81  2  0  0  0  0
 32 50  1  0  0  0  0
 32 77  1  0  0  0  0
 32 82  2  0  0  0  0
 33 67  1  0  0  0  0
 33 73  1  0  0  0  0
 33 83  2  0  0  0  0
 34 68  1  0  0  0  0
 34 78  1  0  0  0  0
 34 84  2  0  0  0  0
 35 74  1  0  0  0  0
 35 79  1  0  0  0  0
 35 85  2  0  0  0  0
 36 39  1  0  0  0  0
 37 50  1  0  0  0  0
 38 73  1  0  0  0  0
 39 42  1  0  0  0  0
 40 43  1  0  0  0  0
 40 44  1  0  0  0  0
 41 45  1  0  0  0  0
 41 47  1  0  0  0  0
 42 49  1  0  0  0  0
 43 51  1  0  0  0  0
 44 52  1  0  0  0  0
 45 53  1  0  0  0  0
 46 51  1  0  0  0  0
 46 52  1  0  0  0  0
 47 74  1  0  0  0  0
 48 53  1  0  0  0  0
 48 74  1  0  0  0  0
 49 77  1  0  0  0  0
 50 73  1  0  0  0  0
 51 63  1  0  0  0  0
 52 64  1  0  0  0  0
 53 72  1  0  0  0  0
 54 60  1  0  0  0  0
 55 68  1  0  0  0  0
 56 69  1  0  0  0  0
 57 69  1  0  0  0  0
 58 69  1  0  0  0  0
 59 80  1  0  0  0  0
 61 65  1  0  0  0  0
 62 63  1  0  0  0  0
 64 66  1  0  0  0  0
 65 79  1  0  0  0  0
 66 87  1  0  0  0  0
 67 69  1  0  0  0  0
 67 78  1  0  0  0  0
 68 80  1  0  0  0  0
 70 72  1  0  0  0  0
M  CHG  1  80   1
M  ISO  4  35 100  66 101  79 100  87 101
M  END
> <Batch ID>
0041

> <Smiles>
CCc1nc(CCC2CCCC(C[101CH2:1][101O:1]c3ccc4c(c3)CN(C(=O)C(NC(=O)C(C)NC)C(C)(C)C)C(C(=O)NC3CCCc5ccccc53)C4)C2)sc1CC[100NH:0][100C:0](=O)N1CCCC(n2nc(-c3ccc(Oc4ccc(F)cc4F)cc3)c(C(N)=O)c2N)C1

> <Shape>
0.243

> <Color>
0.060

> <Negative vol penalty>
0.000

$$$$

  -OEChem-04052317093D

 90 99  0     1  0  0  0  0  0999 V2000
  -23.7681  -38.2367   20.3090 C   0  0  0  0  0  0  0  0  0  0  0  0
  -24.5254  -37.0731   20.3989 C   0  0  0  0  0  0  0  0  0  0  0  0
  -22.8641  -10.2603   19.9471 C   0  0  0  0  0  0  0  0  0  0  0  0
  -23.8808   -9.6080   22.0395 C   0  0  0  0  0  0  0  0  0  0  0  0
  -22.7197  -38.4553   21.2018 C   0  0  0  0  0  0  0  0  0  0  0  0
  -24.2355  -36.1281   21.3823 C   0  0  0  0  0  0  0  0  0  0  0  0
  -24.2443  -31.3923   19.5885 C   0  0  0  0  0  0  0  0  0  0  0  0
  -22.0201   -9.1517   20.0117 C   0  0  0  0  0  0  0  0  0  0  0  0
  -23.0367   -8.4994   22.1040 C   0  0  0  0  0  0  0  0  0  0  0  0
  -25.4854  -30.7904   19.3862 C   0  0  0  0  0  0  0  0  0  0  0  0
  -22.8559   -5.4218   20.7162 C   0  0  0  0  0  0  0  0  0  0  0  0
  -23.4218   -4.1959   21.0661 C   0  0  0  0  0  0  0  0  0  0  0  0
  -25.2442  -29.6053   21.4734 C   0  0  0  0  0  0  0  0  0  0  0  0
  -21.9642   -4.0717   22.9888 C   0  0  0  0  0  0  0  0  0  0  0  0
  -23.7945  -10.4885   20.9610 C   0  0  0  0  0  0  0  0  0  0  0  0
  -24.4237  -12.9188   21.4139 C   0  0  0  0  0  0  0  0  0  0  0  0
  -22.4106  -37.5080   22.1905 C   0  0  0  0  0  0  0  0  0  0  0  0
  -23.4974  -31.1131   20.7420 C   0  0  0  0  0  0  0  0  0  0  0  0
  -23.1828  -36.3349   22.2900 C   0  0  0  0  0  0  0  0  0  0  0  0
  -23.9927  -30.2031   21.6868 C   0  0  0  0  0  0  0  0  0  0  0  0
  -29.6311  -19.0836   21.4498 C   0  0  0  0  0  0  0  0  0  0  0  0
  -22.1063   -8.2713   21.0901 C   0  0  0  0  0  0  0  0  0  0  0  0
  -25.9869  -29.8990   20.3301 C   0  0  0  0  0  0  0  0  0  0  0  0
  -21.8441   -5.9727   21.5027 C   0  0  0  0  0  0  0  0  0  0  0  0
  -22.9760   -3.5208   22.2024 C   0  0  0  0  0  0  0  0  0  0  0  0
  -21.3983   -5.2977   22.6389 C   0  0  0  0  0  0  0  0  0  0  0  0
  -24.6671  -11.6332   20.8947 C   0  0  0  0  0  0  0  0  0  0  0  0
  -29.5642  -20.1938   22.2666 C   0  0  0  0  0  0  0  0  0  0  0  0
  -29.4632  -19.3236   20.1013 C   0  0  0  0  0  0  0  0  0  0  0  0
  -25.5489  -13.6377   21.0922 C   0  0  0  0  0  0  0  0  0  0  0  0
  -29.2026  -21.5499   20.4785 C   0  0  0  0  0  0  0  0  0  0  0  0
  -23.2826  -13.4185   22.1237 C   0  0  0  0  0  0  0  0  0  0  0  0
  -22.4278  -32.8322   23.1924 C   0  0  0  0  0  0  0  0  0  0  0  0
  -20.9356  -30.0620   23.9809 C   0  0  0  0  0  0  0  0  0  0  0  0
  -20.8327  -26.6588   23.7485 C   0  0  0  0  0  0  0  0  0  0  0  0
  -31.1002  -14.0877   20.7365 C   0  0  0  0  0  0  0  0  0  0  0  0
  -21.2981  -37.8102   23.1630 C   0  0  0  0  0  0  0  0  0  0  0  0
  -22.1482  -31.7503   20.9325 C   0  0  0  0  0  0  0  0  0  0  0  0
  -23.2209  -29.8540   22.9321 C   0  0  0  0  0  0  0  0  0  0  0  0
  -20.8175  -36.5862   23.9382 C   0  0  0  0  0  0  0  0  0  0  0  0
  -29.4120  -12.5098   18.0277 C   0  0  0  0  0  0  0  0  0  0  0  0
  -22.0054  -35.7926   24.4729 C   0  0  0  0  0  0  0  0  0  0  0  0
  -30.1641  -23.8326   20.2619 C   0  0  0  0  0  0  0  0  0  0  0  0
  -27.6649  -23.5033   20.5153 C   0  0  0  0  0  0  0  0  0  0  0  0
  -29.9239  -25.2648   19.7851 C   0  0  0  0  0  0  0  0  0  0  0  0
  -27.4307  -24.9362   20.0378 C   0  0  0  0  0  0  0  0  0  0  0  0
  -28.0097  -12.2418   18.5771 C   0  0  0  0  0  0  0  0  0  0  0  0
  -30.4826  -12.3316   19.1021 C   0  0  0  0  0  0  0  0  0  0  0  0
  -28.8578  -12.8440   20.8829 C   0  0  0  0  0  0  0  0  0  0  0  0
  -22.8834  -35.2746   23.3274 C   0  0  1  0  0  0  0  0  0  0  0  0
  -28.9668  -22.9235   19.9375 C   0  0  0  0  0  0  0  0  0  0  0  0
  -21.7051  -31.7861   22.3919 C   0  0  1  0  0  0  0  0  0  0  0  0
  -28.6249  -25.8440   20.3604 C   0  0  0  0  0  0  0  0  0  0  0  0
  -27.7393  -13.0657   19.8503 C   0  0  2  0  0  0  0  0  0  0  0  0
  -29.7316  -20.0565   23.7443 C   0  0  0  0  0  0  0  0  0  0  0  0
  -29.5144  -18.1989   19.1202 C   0  0  0  0  0  0  0  0  0  0  0  0
  -19.5182  -24.6697   24.5314 C   0  0  0  0  0  0  0  0  0  0  0  0
  -22.2232  -30.2990   26.7370 C   0  0  0  0  0  0  0  0  0  0  0  0
  -21.6728  -27.8875   27.1246 C   0  0  0  0  0  0  0  0  0  0  0  0
  -19.8402  -29.5403   26.7605 C   0  0  0  0  0  0  0  0  0  0  0  0
  -20.1327  -25.8854   20.9789 C   0  0  0  0  0  0  0  0  0  0  0  0
  -29.8703  -17.7176   21.9881 C   0  0  0  0  0  0  0  0  0  0  0  0
  -28.3865  -27.2485   19.8359 C   0  0  0  0  0  0  0  0  0  0  0  0
  -31.3215  -17.2144   21.8402 C   0  0  0  0  0  0  0  0  0  0  0  0
  -31.5698  -15.8315   22.4387 C   0  0  0  0  0  0  0  0  0  0  0  0
  -27.3855  -28.0097   20.6915 C   0  0  0  0  0  0  0  0  0  1  0  0
  -21.2948  -28.8528   24.8102 C   0  0  1  0  0  0  0  0  0  0  0  0
  -19.6953  -25.7047   23.4314 C   0  0  2  0  0  0  0  0  0  0  0  0
  -21.2734  -29.1527   26.3357 C   0  0  0  0  0  0  0  0  0  0  0  0
  -25.8537  -11.5378   20.2889 N   0  0  0  0  0  0  0  0  0  0  0  0
  -29.3506  -21.4464   21.8130 N   0  0  0  0  0  0  0  0  0  0  0  0
  -29.2462  -20.5486   19.5791 N   0  0  0  0  0  0  0  0  0  0  0  0
  -26.3659  -12.7728   20.4255 N   0  0  0  0  0  0  0  0  0  0  0  0
  -21.9096  -30.5078   23.0762 N   0  0  0  0  0  0  0  0  0  0  0  0
  -30.1676  -13.1407   20.2819 N   0  0  0  0  0  0  0  0  0  0  0  0
  -25.9093  -14.9191   21.3174 N   0  0  0  0  0  0  0  0  0  0  0  0
  -22.2140  -12.5457   22.3700 N   0  0  0  0  0  0  0  0  0  0  0  0
  -22.2745  -34.1171   22.7076 N   0  0  0  0  0  0  0  0  0  0  0  0
  -20.3847  -27.7898   24.3975 N   0  0  0  0  0  0  0  0  0  0  0  0
  -30.7201  -14.8165   21.8568 N   0  0  0  0  0  0  0  0  0  0  0  0
  -19.9610  -24.9894   22.1513 N   0  3  0  0  0  0  0  0  0  0  0  0
  -23.2055  -14.6084   22.5132 O   0  0  0  0  0  0  0  0  0  0  0  0
  -23.0753  -32.4986   24.1779 O   0  0  0  0  0  0  0  0  0  0  0  0
  -19.8289  -30.5873   24.1253 O   0  0  0  0  0  0  0  0  0  0  0  0
  -22.0022  -26.4224   23.4536 O   0  0  0  0  0  0  0  0  0  0  0  0
  -32.1885  -14.2738   20.1816 O   0  0  0  0  0  0  0  0  0  0  0  0
  -21.2827   -7.1895   21.1535 O   0  0  0  0  0  0  0  0  0  0  0  0
  -27.1984  -29.3105   20.1354 O   0  0  0  0  0  0  0  0  0  1  0  0
  -23.5185   -2.3428   22.5374 F   0  0  0  0  0  0  0  0  0  0  0  0
  -20.4258   -5.8214   23.3977 F   0  0  0  0  0  0  0  0  0  0  0  0
  1  2  1  0  0  0  0
  1  5  2  0  0  0  0
  2  6  2  0  0  0  0
  3  8  2  0  0  0  0
  3 15  1  0  0  0  0
  4  9  1  0  0  0  0
  4 15  2  0  0  0  0
  5 17  1  0  0  0  0
  6 19  1  0  0  0  0
  7 10  2  0  0  0  0
  7 18  1  0  0  0  0
  8 22  1  0  0  0  0
  9 22  2  0  0  0  0
 10 23  1  0  0  0  0
 11 12  2  0  0  0  0
 11 24  1  0  0  0  0
 12 25  1  0  0  0  0
 13 20  1  0  0  0  0
 13 23  2  0  0  0  0
 14 25  2  0  0  0  0
 14 26  1  0  0  0  0
 15 27  1  0  0  0  0
 16 27  1  0  0  0  0
 16 30  2  0  0  0  0
 16 32  1  0  0  0  0
 17 19  2  0  0  0  0
 17 37  1  0  0  0  0
 18 20  2  0  0  0  0
 18 38  1  0  0  0  0
 19 50  1  0  0  0  0
 20 39  1  0  0  0  0
 21 28  1  0  0  0  0
 21 29  2  0  0  0  0
 21 62  1  0  0  0  0
 22 87  1  0  0  0  0
 23 88  1  0  0  0  0
 24 26  2  0  0  0  0
 24 87  1  0  0  0  0
 25 89  1  0  0  0  0
 26 90  1  0  0  0  0
 27 70  2  0  0  0  0
 28 55  1  0  0  0  0
 28 71  2  0  0  0  0
 29 56  1  0  0  0  0
 29 72  1  0  0  0  0
 30 73  1  0  0  0  0
 30 76  1  0  0  0  0
 31 51  1  0  0  0  0
 31 71  1  0  0  0  0
 31 72  2  0  0  0  0
 32 77  1  0  0  0  0
 32 82  2  0  0  0  0
 33 52  1  0  0  0  0
 33 78  1  0  0  0  0
 33 83  2  0  0  0  0
 34 67  1  0  0  0  0
 34 74  1  0  0  0  0
 34 84  2  0  0  0  0
 35 68  1  0  0  0  0
 35 79  1  0  0  0  0
 35 85  2  0  0  0  0
 36 75  1  0  0  0  0
 36 80  1  0  0  0  0
 36 86  2  0  0  0  0
 37 40  1  0  0  0  0
 38 52  1  0  0  0  0
 39 74  1  0  0  0  0
 40 42  1  0  0  0  0
 41 47  1  0  0  0  0
 41 48  1  0  0  0  0
 42 50  1  0  0  0  0
 43 45  1  0  0  0  0
 43 51  1  0  0  0  0
 44 46  1  0  0  0  0
 44 51  1  0  0  0  0
 45 53  1  0  0  0  0
 46 53  1  0  0  0  0
 47 54  1  0  0  0  0
 48 75  1  0  0  0  0
 49 54  1  0  0  0  0
 49 75  1  0  0  0  0
 50 78  1  0  0  0  0
 52 74  1  0  0  0  0
 53 63  1  0  0  0  0
 54 73  1  0  0  0  0
 57 68  1  0  0  0  0
 58 69  1  0  0  0  0
 59 69  1  0  0  0  0
 60 69  1  0  0  0  0
 61 81  1  0  0  0  0
 62 64  1  0  0  0  0
 63 66  1  0  0  0  0
 64 65  1  0  0  0  0
 65 80  1  0  0  0  0
 66 88  1  0  0  0  0
 67 69  1  0  0  0  0
 67 79  1  0  0  0  0
 68 81  1  0  0  0  0
 70 73  1  0  0  0  0
M  CHG  1  81   1
M  ISO  4  36 100  66 101  80 100  88 101
M  END
> <Batch ID>
0041

> <Smiles>
CNC(C)C(=O)NC(C(=O)N1Cc2cc([101O:1][101CH2:1]CC3CCC(c4nc(C)c(CCC[100NH:0][100C:0](=O)N5CCCC(n6nc(-c7ccc(Oc8ccc(F)cc8F)cc7)c(C(N)=O)c6N)C5)c(C)n4)CC3)ccc2CC1C(=O)NC1CCCc2ccccc21)C(C)(C)C

> <Shape>
0.371

> <Color>
0.183

> <Negative vol penalty>
0.000

$$$$

  -OEChem-04052317093D

 84 92  0     1  0  0  0  0  0999 V2000
  -18.2729  -33.6171   22.9338 C   0  0  0  0  0  0  0  0  0  0  0  0
  -19.5141  -33.6236   22.3056 C   0  0  0  0  0  0  0  0  0  0  0  0
  -26.9421  -13.6762   21.9337 C   0  0  0  0  0  0  0  0  0  0  0  0
  -26.4809  -13.6305   19.5625 C   0  0  0  0  0  0  0  0  0  0  0  0
  -17.9454  -32.5894   23.8173 C   0  0  0  0  0  0  0  0  0  0  0  0
  -20.4291  -32.6029   22.5614 C   0  0  0  0  0  0  0  0  0  0  0  0
  -25.6169  -28.8279   19.3750 C   0  0  0  0  0  0  0  0  0  0  0  0
  -26.1706  -12.5270   22.1059 C   0  0  0  0  0  0  0  0  0  0  0  0
  -25.7094  -12.4812   19.7348 C   0  0  0  0  0  0  0  0  0  0  0  0
  -26.9479  -28.4568   19.5604 C   0  0  0  0  0  0  0  0  0  0  0  0
  -22.8904  -11.7361   22.3041 C   0  0  0  0  0  0  0  0  0  0  0  0
  -21.9899  -11.7146   23.3691 C   0  0  0  0  0  0  0  0  0  0  0  0
  -26.2426  -26.6907   21.0445 C   0  0  0  0  0  0  0  0  0  0  0  0
  -28.3029  -25.2029   17.3984 C   0  0  0  0  0  0  0  0  0  0  0  0
  -23.1244   -9.7903   24.2894 C   0  0  0  0  0  0  0  0  0  0  0  0
  -27.0972  -14.2280   20.6620 C   0  0  0  0  0  0  0  0  0  0  0  0
  -29.2737  -15.4808   20.2136 C   0  0  0  0  0  0  0  0  0  0  0  0
  -18.8531  -31.5505   24.0766 C   0  0  0  0  0  0  0  0  0  0  0  0
  -24.5877  -28.1390   20.0327 C   0  0  0  0  0  0  0  0  0  0  0  0
  -20.1140  -31.5611   23.4502 C   0  0  0  0  0  0  0  0  0  0  0  0
  -24.8991  -27.0534   20.8638 C   0  0  0  0  0  0  0  0  0  0  0  0
  -27.4739  -24.3989   16.6241 C   0  0  0  0  0  0  0  0  0  0  0  0
  -29.4454  -24.6608   17.9764 C   0  0  0  0  0  0  0  0  0  0  0  0
  -25.5543  -11.9295   21.0065 C   0  0  0  0  0  0  0  0  0  0  0  0
  -27.2612  -27.3899   20.3974 C   0  0  0  0  0  0  0  0  0  0  0  0
  -23.9079  -10.7847   22.2317 C   0  0  0  0  0  0  0  0  0  0  0  0
  -22.1069  -10.7417   24.3618 C   0  0  0  0  0  0  0  0  0  0  0  0
  -24.0249   -9.8118   23.2244 C   0  0  0  0  0  0  0  0  0  0  0  0
  -27.8936  -15.4154   20.4835 C   0  0  0  0  0  0  0  0  0  0  0  0
  -27.8288  -23.0697   16.4597 C   0  0  0  0  0  0  0  0  0  0  0  0
  -29.7120  -23.3198   17.7516 C   0  0  0  0  0  0  0  0  0  0  0  0
  -29.5447  -16.8249   20.1341 C   0  0  0  0  0  0  0  0  0  0  0  0
  -30.2256  -14.4213   20.0494 C   0  0  0  0  0  0  0  0  0  0  0  0
  -22.3640  -28.9282   22.1625 C   0  0  0  0  0  0  0  0  0  0  0  0
  -21.3347  -25.8983   21.6312 C   0  0  0  0  0  0  0  0  0  0  0  0
  -22.0703  -22.7253   20.6123 C   0  0  0  0  0  0  0  0  0  0  0  0
  -26.1728  -21.5931   18.8128 C   0  0  0  0  0  0  0  0  0  0  0  0
  -18.4725  -30.4865   25.0755 C   0  0  0  0  0  0  0  0  0  0  0  0
  -23.1551  -28.5347   19.8013 C   0  0  0  0  0  0  0  0  0  0  0  0
  -23.8298  -26.2683   21.5770 C   0  0  0  0  0  0  0  0  0  0  0  0
  -19.3537  -29.2419   25.0053 C   0  0  0  0  0  0  0  0  0  0  0  0
  -28.0413  -21.0525   21.7950 C   0  0  0  0  0  0  0  0  0  0  0  0
  -20.8265  -29.6336   24.9411 C   0  0  0  0  0  0  0  0  0  0  0  0
  -28.3398  -19.5524   21.7727 C   0  0  0  0  0  0  0  0  0  0  0  0
  -26.6559  -21.3606   21.2313 C   0  0  0  0  0  0  0  0  0  0  0  0
  -26.6958  -19.3096   19.8656 C   0  0  0  0  0  0  0  0  0  0  0  0
  -21.1238  -30.4583   23.6829 C   0  0  1  0  0  0  0  0  0  0  0  0
  -22.2233  -28.0891   20.9240 C   0  0  1  0  0  0  0  0  0  0  0  0
  -28.1041  -18.9545   20.3726 C   0  0  2  0  0  0  0  0  0  0  0  0
  -26.2484  -24.9736   16.0021 C   0  0  0  0  0  0  0  0  0  0  0  0
  -30.9261  -22.6850   18.3468 C   0  0  0  0  0  0  0  0  0  0  0  0
  -21.6673  -20.3306   19.9797 C   0  0  0  0  0  0  0  0  0  0  0  0
  -21.4665  -25.4580   24.6476 C   0  0  0  0  0  0  0  0  0  0  0  0
  -21.3569  -22.9932   24.2224 C   0  0  0  0  0  0  0  0  0  0  0  0
  -19.4611  -24.4612   23.5345 C   0  0  0  0  0  0  0  0  0  0  0  0
  -21.5213  -23.4412   17.7936 C   0  0  0  0  0  0  0  0  0  0  0  0
  -30.3486  -25.5272   18.8175 C   0  0  0  0  0  0  0  0  0  0  0  0
  -26.9760  -22.1581   15.6395 C   0  0  0  0  0  0  0  0  0  0  0  0
  -30.1994  -25.2938   20.3224 C   0  0  0  0  0  0  0  0  0  0  0  0
  -25.7233  -21.6672   16.3732 C   0  0  0  0  0  0  0  0  0  0  0  0
  -28.8158  -25.6492   20.8543 C   0  0  0  0  0  0  0  0  0  1  0  0
  -21.6294  -24.5473   22.2372 C   0  0  1  0  0  0  0  0  0  0  0  0
  -21.3602  -21.7844   19.6558 C   0  0  2  0  0  0  0  0  0  0  0  0
  -20.9990  -24.3807   23.6486 C   0  0  0  0  0  0  0  0  0  0  0  0
  -27.3273  -16.6221   20.5699 N   0  0  0  0  0  0  0  0  0  0  0  0
  -28.9305  -22.5074   17.0054 N   0  0  0  0  0  0  0  0  0  0  0  0
  -28.3568  -17.4583   20.3531 N   0  0  0  0  0  0  0  0  0  0  0  0
  -22.4446  -26.6978   21.3235 N   0  0  0  0  0  0  0  0  0  0  0  0
  -26.4974  -20.7670   19.9015 N   0  0  0  0  0  0  0  0  0  0  0  0
  -30.6809  -17.5151   19.8991 N   0  0  0  0  0  0  0  0  0  0  0  0
  -29.7783  -13.0978   20.1627 N   0  0  0  0  0  0  0  0  0  0  0  0
  -21.2098  -29.5972   22.5229 N   0  0  0  0  0  0  0  0  0  0  0  0
  -21.1837  -23.5570   21.2630 N   0  0  0  0  0  0  0  0  0  0  0  0
  -26.0475  -20.9511   17.5869 N   0  0  0  0  0  0  0  0  0  0  0  0
  -21.7858  -22.0535   18.2531 N   0  3  0  0  0  0  0  0  0  0  0  0
  -31.4400  -14.6419   19.8256 O   0  0  0  0  0  0  0  0  0  0  0  0
  -23.4395  -28.9648   22.7486 O   0  0  0  0  0  0  0  0  0  0  0  0
  -20.1632  -26.2289   21.4314 O   0  0  0  0  0  0  0  0  0  0  0  0
  -23.2893  -22.7203   20.7695 O   0  0  0  0  0  0  0  0  0  0  0  0
  -26.0122  -22.8133   18.9241 O   0  0  0  0  0  0  0  0  0  0  0  0
  -24.8016  -10.8079   21.1741 O   0  0  0  0  0  0  0  0  0  0  0  0
  -28.5596  -27.0260   20.5806 O   0  0  0  0  0  0  0  0  0  1  0  0
  -21.2430  -10.7221   25.3853 F   0  0  0  0  0  0  0  0  0  0  0  0
  -25.0010   -8.8959   23.1609 F   0  0  0  0  0  0  0  0  0  0  0  0
  1  2  1  0  0  0  0
  1  5  2  0  0  0  0
  2  6  2  0  0  0  0
  3  8  2  0  0  0  0
  3 16  1  0  0  0  0
  4  9  1  0  0  0  0
  4 16  2  0  0  0  0
  5 18  1  0  0  0  0
  6 20  1  0  0  0  0
  7 10  2  0  0  0  0
  7 19  1  0  0  0  0
  8 24  1  0  0  0  0
  9 24  2  0  0  0  0
 10 25  1  0  0  0  0
 11 12  2  0  0  0  0
 11 26  1  0  0  0  0
 12 27  1  0  0  0  0
 13 21  1  0  0  0  0
 13 25  2  0  0  0  0
 14 22  2  0  0  0  0
 14 23  1  0  0  0  0
 15 27  2  0  0  0  0
 15 28  1  0  0  0  0
 16 29  1  0  0  0  0
 17 29  1  0  0  0  0
 17 32  2  0  0  0  0
 17 33  1  0  0  0  0
 18 20  2  0  0  0  0
 18 38  1  0  0  0  0
 19 21  2  0  0  0  0
 19 39  1  0  0  0  0
 20 47  1  0  0  0  0
 21 40  1  0  0  0  0
 22 30  1  0  0  0  0
 22 50  1  0  0  0  0
 23 31  2  0  0  0  0
 23 57  1  0  0  0  0
 24 81  1  0  0  0  0
 25 82  1  0  0  0  0
 26 28  2  0  0  0  0
 26 81  1  0  0  0  0
 27 83  1  0  0  0  0
 28 84  1  0  0  0  0
 29 65  2  0  0  0  0
 30 58  1  0  0  0  0
 30 66  2  0  0  0  0
 31 51  1  0  0  0  0
 31 66  1  0  0  0  0
 32 67  1  0  0  0  0
 32 70  1  0  0  0  0
 33 71  1  0  0  0  0
 33 76  2  0  0  0  0
 34 48  1  0  0  0  0
 34 72  1  0  0  0  0
 34 77  2  0  0  0  0
 35 62  1  0  0  0  0
 35 68  1  0  0  0  0
 35 78  2  0  0  0  0
 36 63  1  0  0  0  0
 36 73  1  0  0  0  0
 36 79  2  0  0  0  0
 37 69  1  0  0  0  0
 37 74  1  0  0  0  0
 37 80  2  0  0  0  0
 38 41  1  0  0  0  0
 39 48  1  0  0  0  0
 40 68  1  0  0  0  0
 41 43  1  0  0  0  0
 42 44  1  0  0  0  0
 42 45  1  0  0  0  0
 43 47  1  0  0  0  0
 44 49  1  0  0  0  0
 45 69  1  0  0  0  0
 46 49  1  0  0  0  0
 46 69  1  0  0  0  0
 47 72  1  0  0  0  0
 48 68  1  0  0  0  0
 49 67  1  0  0  0  0
 52 63  1  0  0  0  0
 53 64  1  0  0  0  0
 54 64  1  0  0  0  0
 55 64  1  0  0  0  0
 56 75  1  0  0  0  0
 57 59  1  0  0  0  0
 58 60  1  0  0  0  0
 59 61  1  0  0  0  0
 60 74  1  0  0  0  0
 61 82  1  0  0  0  0
 62 64  1  0  0  0  0
 62 73  1  0  0  0  0
 63 75  1  0  0  0  0
 65 67  1  0  0  0  0
M  CHG  1  75   1
M  ISO  4  37 100  61 101  74 100  82 101
M  END
> <Batch ID>
0041

> <Smiles>
CNC(C)C(=O)NC(C(=O)N1Cc2cc([101O:1][101CH2:1]CCc3cc(C)c(CC[100NH:0][100C:0](=O)N4CCCC(n5nc(-c6ccc(Oc7ccc(F)cc7F)cc6)c(C(N)=O)c5N)C4)nc3C)ccc2CC1C(=O)NC1CCCc2ccccc21)C(C)(C)C

> <Shape>
0.228

> <Color>
0.103

> <Negative vol penalty>
0.000

$$$$

  -OEChem-04052317093D

 80 88  0     1  0  0  0  0  0999 V2000
  -27.2271  -33.3847   21.1350 C   0  0  0  0  0  0  0  0  0  0  0  0
  -28.1895  -32.3906   21.2799 C   0  0  0  0  0  0  0  0  0  0  0  0
  -22.5094  -10.2832   21.0617 C   0  0  0  0  0  0  0  0  0  0  0  0
  -24.4632   -8.9996   21.6717 C   0  0  0  0  0  0  0  0  0  0  0  0
  -25.8946  -33.0369   20.9170 C   0  0  0  0  0  0  0  0  0  0  0  0
  -27.8197  -31.0480   21.2080 C   0  0  0  0  0  0  0  0  0  0  0  0
  -30.3077  -24.6788   19.0725 C   0  0  0  0  0  0  0  0  0  0  0  0
  -21.7468   -9.1154   21.0472 C   0  0  0  0  0  0  0  0  0  0  0  0
  -23.7006   -7.8318   21.6572 C   0  0  0  0  0  0  0  0  0  0  0  0
  -30.4877  -23.3794   19.5447 C   0  0  0  0  0  0  0  0  0  0  0  0
  -21.4929   -6.2753   23.6879 C   0  0  0  0  0  0  0  0  0  0  0  0
  -21.6559   -5.3834   24.7479 C   0  0  0  0  0  0  0  0  0  0  0  0
  -28.1690  -22.8979   19.0855 C   0  0  0  0  0  0  0  0  0  0  0  0
  -31.4446  -18.3382   20.2040 C   0  0  0  0  0  0  0  0  0  0  0  0
  -22.3531   -3.6673   23.1967 C   0  0  0  0  0  0  0  0  0  0  0  0
  -30.3420  -18.9375   22.0735 C   0  0  0  0  0  0  0  0  0  0  0  0
  -23.8677  -10.2253   21.3739 C   0  0  0  0  0  0  0  0  0  0  0  0
  -24.8781  -12.2886   22.4828 C   0  0  0  0  0  0  0  0  0  0  0  0
  -25.5099  -31.6895   20.8328 C   0  0  0  0  0  0  0  0  0  0  0  0
  -29.0522  -25.1015   18.6127 C   0  0  0  0  0  0  0  0  0  0  0  0
  -26.4807  -30.6818   20.9900 C   0  0  0  0  0  0  0  0  0  0  0  0
  -27.9763  -24.2024   18.6056 C   0  0  0  0  0  0  0  0  0  0  0  0
  -30.8889  -19.4332   20.9106 C   0  0  0  0  0  0  0  0  0  0  0  0
  -22.3423   -7.8897   21.3449 C   0  0  0  0  0  0  0  0  0  0  0  0
  -29.4175  -22.4896   19.5539 C   0  0  0  0  0  0  0  0  0  0  0  0
  -21.7599   -5.8632   22.3823 C   0  0  0  0  0  0  0  0  0  0  0  0
  -22.0860   -4.0794   24.5023 C   0  0  0  0  0  0  0  0  0  0  0  0
  -22.1900   -4.5592   22.1367 C   0  0  0  0  0  0  0  0  0  0  0  0
  -24.6562  -11.4312   21.3885 C   0  0  0  0  0  0  0  0  0  0  0  0
  -31.2202  -17.2065   20.9567 C   0  0  0  0  0  0  0  0  0  0  0  0
  -25.6865  -13.2803   21.9835 C   0  0  0  0  0  0  0  0  0  0  0  0
  -24.3965  -12.1967   23.8301 C   0  0  0  0  0  0  0  0  0  0  0  0
  -26.9736  -27.3361   19.5014 C   0  0  0  0  0  0  0  0  0  0  0  0
  -25.4185  -26.4076   16.8103 C   0  0  0  0  0  0  0  0  0  0  0  0
  -24.8431  -23.9709   14.4913 C   0  0  0  0  0  0  0  0  0  0  0  0
  -30.0687  -14.9154   18.9390 C   0  0  0  0  0  0  0  0  0  0  0  0
  -24.0500  -31.3619   20.6431 C   0  0  0  0  0  0  0  0  0  0  0  0
  -28.8810  -26.4984   18.0816 C   0  0  0  0  0  0  0  0  0  0  0  0
  -26.6132  -24.6006   18.1037 C   0  0  0  0  0  0  0  0  0  0  0  0
  -23.8010  -29.9205   20.2062 C   0  0  0  0  0  0  0  0  0  0  0  0
  -26.9969  -14.3745   17.2220 C   0  0  0  0  0  0  0  0  0  0  0  0
  -24.6202  -28.9556   21.0574 C   0  0  0  0  0  0  0  0  0  0  0  0
  -26.1353  -13.6262   18.2406 C   0  0  0  0  0  0  0  0  0  0  0  0
  -28.4640  -13.9604   17.3112 C   0  0  0  0  0  0  0  0  0  0  0  0
  -28.1956  -13.3200   19.6759 C   0  0  0  0  0  0  0  0  0  0  0  0
  -26.1227  -29.2146   20.8935 C   0  0  1  0  0  0  0  0  0  0  0  0
  -27.4331  -26.9776   18.1165 C   0  0  1  0  0  0  0  0  0  0  0  0
  -26.7172  -13.7448   19.6621 C   0  0  2  0  0  0  0  0  0  0  0  0
  -31.0214  -16.7836   24.3714 C   0  0  0  0  0  0  0  0  0  0  0  0
  -23.4925  -23.4913   12.4314 C   0  0  0  0  0  0  0  0  0  0  0  0
  -22.9355  -25.9999   18.5361 C   0  0  0  0  0  0  0  0  0  0  0  0
  -21.9457  -24.6541   16.6713 C   0  0  0  0  0  0  0  0  0  0  0  0
  -22.4986  -27.0601   16.3136 C   0  0  0  0  0  0  0  0  0  0  0  0
  -27.2733  -23.5888   12.8461 C   0  0  0  0  0  0  0  0  0  0  0  0
  -30.8947  -20.8687   20.4740 C   0  0  0  0  0  0  0  0  0  1  0  0
  -31.5895  -15.8012   20.6888 C   0  0  0  0  0  0  0  0  0  0  0  0
  -30.1182  -16.7004   23.1528 C   0  0  0  0  0  0  0  0  0  0  0  0
  -24.3713  -25.3702   16.4848 C   0  0  1  0  0  0  0  0  0  0  0  0
  -24.8148  -24.0107   12.9741 C   0  0  2  0  0  0  0  0  0  0  0  0
  -22.9629  -25.7638   17.0128 C   0  0  0  0  0  0  0  0  0  0  0  0
  -25.2737  -11.8423   20.2778 N   0  0  0  0  0  0  0  0  0  0  0  0
  -30.5490  -17.5828   22.0907 N   0  0  0  0  0  0  0  0  0  0  0  0
  -25.8915  -12.9690   20.6715 N   0  0  0  0  0  0  0  0  0  0  0  0
  -26.4946  -25.9791   17.6004 N   0  0  0  0  0  0  0  0  0  0  0  0
  -28.9551  -14.0979   18.6845 N   0  0  0  0  0  0  0  0  0  0  0  0
  -26.2349  -14.3797   22.5431 N   0  0  0  0  0  0  0  0  0  0  0  0
  -23.5765  -11.1134   24.1742 N   0  0  0  0  0  0  0  0  0  0  0  0
  -26.5984  -28.6582   19.6451 N   0  0  0  0  0  0  0  0  0  0  0  0
  -24.4330  -25.1669   15.0414 N   0  0  0  0  0  0  0  0  0  0  0  0
  -30.4648  -14.9954   20.2684 N   0  0  0  0  0  0  0  0  0  0  0  0
  -25.9138  -23.1748   12.4134 N   0  3  0  0  0  0  0  0  0  0  0  0
  -24.6714  -13.0588   24.6989 O   0  0  0  0  0  0  0  0  0  0  0  0
  -26.9591  -26.4765   20.3746 O   0  0  0  0  0  0  0  0  0  0  0  0
  -25.2903  -27.5541   16.3736 O   0  0  0  0  0  0  0  0  0  0  0  0
  -25.1903  -22.9768   15.1252 O   0  0  0  0  0  0  0  0  0  0  0  0
  -30.6623  -15.5327   18.0483 O   0  0  0  0  0  0  0  0  0  0  0  0
  -21.5983   -6.7500   21.3311 O   0  0  0  0  0  0  0  0  0  0  0  0
  -29.5903  -21.2209   20.0148 O   0  0  0  0  0  0  0  0  0  1  0  0
  -22.2440   -3.2235   25.5205 F   0  0  0  0  0  0  0  0  0  0  0  0
  -22.4493   -4.1579   20.8847 F   0  0  0  0  0  0  0  0  0  0  0  0
  1  2  1  0  0  0  0
  1  5  2  0  0  0  0
  2  6  2  0  0  0  0
  3  8  2  0  0  0  0
  3 17  1  0  0  0  0
  4  9  1  0  0  0  0
  4 17  2  0  0  0  0
  5 19  1  0  0  0  0
  6 21  1  0  0  0  0
  7 10  2  0  0  0  0
  7 20  1  0  0  0  0
  8 24  1  0  0  0  0
  9 24  2  0  0  0  0
 10 25  1  0  0  0  0
 11 12  2  0  0  0  0
 11 26  1  0  0  0  0
 12 27  1  0  0  0  0
 13 22  1  0  0  0  0
 13 25  2  0  0  0  0
 14 23  1  0  0  0  0
 14 30  2  0  0  0  0
 15 27  2  0  0  0  0
 15 28  1  0  0  0  0
 16 23  2  0  0  0  0
 16 62  1  0  0  0  0
 17 29  1  0  0  0  0
 18 29  1  0  0  0  0
 18 31  2  0  0  0  0
 18 32  1  0  0  0  0
 19 21  2  0  0  0  0
 19 37  1  0  0  0  0
 20 22  2  0  0  0  0
 20 38  1  0  0  0  0
 21 46  1  0  0  0  0
 22 39  1  0  0  0  0
 23 55  1  0  0  0  0
 24 77  1  0  0  0  0
 25 78  1  0  0  0  0
 26 28  2  0  0  0  0
 26 77  1  0  0  0  0
 27 79  1  0  0  0  0
 28 80  1  0  0  0  0
 29 61  2  0  0  0  0
 30 56  1  0  0  0  0
 30 62  1  0  0  0  0
 31 63  1  0  0  0  0
 31 66  1  0  0  0  0
 32 67  1  0  0  0  0
 32 72  2  0  0  0  0
 33 47  1  0  0  0  0
 33 68  1  0  0  0  0
 33 73  2  0  0  0  0
 34 58  1  0  0  0  0
 34 64  1  0  0  0  0
 34 74  2  0  0  0  0
 35 59  1  0  0  0  0
 35 69  1  0  0  0  0
 35 75  2  0  0  0  0
 36 65  1  0  0  0  0
 36 70  1  0  0  0  0
 36 76  2  0  0  0  0
 37 40  1  0  0  0  0
 38 47  1  0  0  0  0
 39 64  1  0  0  0  0
 40 42  1  0  0  0  0
 41 43  1  0  0  0  0
 41 44  1  0  0  0  0
 42 46  1  0  0  0  0
 43 48  1  0  0  0  0
 44 65  1  0  0  0  0
 45 48  1  0  0  0  0
 45 65  1  0  0  0  0
 46 68  1  0  0  0  0
 47 64  1  0  0  0  0
 48 63  1  0  0  0  0
 49 57  1  0  0  0  0
 50 59  1  0  0  0  0
 51 60  1  0  0  0  0
 52 60  1  0  0  0  0
 53 60  1  0  0  0  0
 54 71  1  0  0  0  0
 55 78  1  0  0  0  0
 56 70  1  0  0  0  0
 57 62  1  0  0  0  0
 58 60  1  0  0  0  0
 58 69  1  0  0  0  0
 59 71  1  0  0  0  0
 61 63  1  0  0  0  0
M  CHG  1  71   1
M  ISO  4  36 100  55 101  70 100  78 101
M  END
> <Batch ID>
0041

> <Smiles>
CCn1cc([101CH2:1][101O:1]c2ccc3c(c2)CN(C(=O)C(NC(=O)C(C)NC)C(C)(C)C)C(C(=O)NC2CCCc4ccccc42)C3)cc1C[100NH:0][100C:0](=O)N1CCCC(n2nc(-c3ccc(Oc4ccc(F)cc4F)cc3)c(C(N)=O)c2N)C1

> <Shape>
0.261

> <Color>
0.110

> <Negative vol penalty>
0.000

$$$$

  -OEChem-04052317093D

 82 90  0     1  0  0  0  0  0999 V2000
  -17.2861  -14.8252   20.2598 C   0  0  0  0  0  0  0  0  0  0  0  0
  -18.5263  -15.1301   20.8116 C   0  0  0  0  0  0  0  0  0  0  0  0
  -23.2877   -9.7995   19.9133 C   0  0  0  0  0  0  0  0  0  0  0  0
  -23.7336   -9.9433   22.2835 C   0  0  0  0  0  0  0  0  0  0  0  0
  -16.4120  -15.8511   19.9029 C   0  0  0  0  0  0  0  0  0  0  0  0
  -18.8934  -16.4612   21.0059 C   0  0  0  0  0  0  0  0  0  0  0  0
  -20.9981  -17.2535   25.5433 C   0  0  0  0  0  0  0  0  0  0  0  0
  -22.5604   -8.6276   20.1213 C   0  0  0  0  0  0  0  0  0  0  0  0
  -23.0062   -8.7714   22.4914 C   0  0  0  0  0  0  0  0  0  0  0  0
  -22.3291  -16.8706   25.7034 C   0  0  0  0  0  0  0  0  0  0  0  0
  -19.4762   -7.7702   21.2102 C   0  0  0  0  0  0  0  0  0  0  0  0
  -18.2485   -7.6453   20.5601 C   0  0  0  0  0  0  0  0  0  0  0  0
  -23.0190  -19.1614   25.3946 C   0  0  0  0  0  0  0  0  0  0  0  0
  -19.0514   -5.6705   19.4231 C   0  0  0  0  0  0  0  0  0  0  0  0
  -27.9457  -17.6296   24.8576 C   0  0  0  0  0  0  0  0  0  0  0  0
  -23.8744  -10.4573   20.9945 C   0  0  0  0  0  0  0  0  0  0  0  0
  -24.1354  -12.9869   20.7928 C   0  0  0  0  0  0  0  0  0  0  0  0
  -16.7647  -17.1952   20.1019 C   0  0  0  0  0  0  0  0  0  0  0  0
  -20.6678  -18.5938   25.2963 C   0  0  0  0  0  0  0  0  0  0  0  0
  -18.0237  -17.5061   20.6501 C   0  0  0  0  0  0  0  0  0  0  0  0
  -21.6829  -19.5592   25.2342 C   0  0  0  0  0  0  0  0  0  0  0  0
  -22.4196   -8.1136   21.4103 C   0  0  0  0  0  0  0  0  0  0  0  0
  -23.3400  -17.8241   25.6262 C   0  0  0  0  0  0  0  0  0  0  0  0
  -20.4916   -6.8453   20.9667 C   0  0  0  0  0  0  0  0  0  0  0  0
  -18.0361   -6.5955   19.6666 C   0  0  0  0  0  0  0  0  0  0  0  0
  -20.2792   -5.7955   20.0732 C   0  0  0  0  0  0  0  0  0  0  0  0
  -24.6264  -11.6676   20.7803 C   0  0  0  0  0  0  0  0  0  0  0  0
  -26.9856  -17.8731   25.8580 C   0  0  0  0  0  0  0  0  0  0  0  0
  -29.0055  -17.0692   25.5278 C   0  0  0  0  0  0  0  0  0  0  0  0
  -25.2378  -13.7659   20.5390 C   0  0  0  0  0  0  0  0  0  0  0  0
  -22.8022  -13.4655   21.0141 C   0  0  0  0  0  0  0  0  0  0  0  0
  -19.2560  -20.1538   22.9137 C   0  0  0  0  0  0  0  0  0  0  0  0
  -19.4767  -22.6703   24.9486 C   0  0  0  0  0  0  0  0  0  0  0  0
  -21.0505  -24.1147   27.6101 C   0  0  0  0  0  0  0  0  0  0  0  0
  -31.1067  -12.9213   21.3721 C   0  0  0  0  0  0  0  0  0  0  0  0
  -15.8058  -18.2708   19.6567 C   0  0  0  0  0  0  0  0  0  0  0  0
  -19.2253  -18.9949   25.1525 C   0  0  0  0  0  0  0  0  0  0  0  0
  -21.3796  -21.0143   24.9913 C   0  0  0  0  0  0  0  0  0  0  0  0
  -16.1185  -19.6457   20.2417 C   0  0  0  0  0  0  0  0  0  0  0  0
  -29.4645  -13.6571   18.2998 C   0  0  0  0  0  0  0  0  0  0  0  0
  -17.6073  -19.9531   20.1166 C   0  0  0  0  0  0  0  0  0  0  0  0
  -27.9941  -13.3497   18.5883 C   0  0  0  0  0  0  0  0  0  0  0  0
  -30.3959  -12.6783   19.0115 C   0  0  0  0  0  0  0  0  0  0  0  0
  -28.7054  -12.2522   20.7535 C   0  0  0  0  0  0  0  0  0  0  0  0
  -18.4480  -18.9371   20.8993 C   0  0  1  0  0  0  0  0  0  0  0  0
  -19.0424  -20.3055   24.3933 C   0  0  1  0  0  0  0  0  0  0  0  0
  -27.7293  -13.2469   20.1024 C   0  0  2  0  0  0  0  0  0  0  0  0
  -21.0330  -26.1908   29.0197 C   0  0  0  0  0  0  0  0  0  0  0  0
  -20.8624  -24.2034   22.7037 C   0  0  0  0  0  0  0  0  0  0  0  0
  -21.6505  -25.8549   24.4124 C   0  0  0  0  0  0  0  0  0  0  0  0
  -19.2075  -25.5434   24.0153 C   0  0  0  0  0  0  0  0  0  0  0  0
  -29.4077  -16.5004   27.9422 C   0  0  0  0  0  0  0  0  0  0  0  0
  -20.4322  -22.5822   30.0653 C   0  0  0  0  0  0  0  0  0  0  0  0
  -25.6245  -18.4818   25.6903 C   0  0  0  0  0  0  0  0  0  1  0  0
  -30.3143  -16.5928   25.0445 C   0  0  0  0  0  0  0  0  0  0  0  0
  -30.2960  -15.1049   24.6352 C   0  0  0  0  0  0  0  0  0  0  0  0
  -31.6709  -14.6117   24.1745 C   0  0  0  0  0  0  0  0  0  0  0  0
  -31.6636  -13.1382   23.7808 C   0  0  0  0  0  0  0  0  0  0  0  0
  -20.5076  -23.7396   25.2187 C   0  0  1  0  0  0  0  0  0  0  0  0
  -20.5075  -24.7720   28.8661 C   0  0  2  0  0  0  0  0  0  0  0  0
  -20.5632  -24.8077   24.0902 C   0  0  0  0  0  0  0  0  0  0  0  0
  -25.9385  -11.6080   20.5375 N   0  0  0  0  0  0  0  0  0  0  0  0
  -27.3989  -17.4980   27.0715 N   0  0  0  0  0  0  0  0  0  0  0  0
  -28.6303  -17.0129   26.8379 N   0  0  0  0  0  0  0  0  0  0  0  0
  -26.2813  -12.8996   20.3951 N   0  0  0  0  0  0  0  0  0  0  0  0
  -19.9544  -21.3558   24.8509 N   0  0  0  0  0  0  0  0  0  0  0  0
  -30.0936  -12.6291   20.4440 N   0  0  0  0  0  0  0  0  0  0  0  0
  -25.4066  -15.1006   20.4270 N   0  0  0  0  0  0  0  0  0  0  0  0
  -21.7886  -12.5294   21.2608 N   0  0  0  0  0  0  0  0  0  0  0  0
  -18.4138  -19.2365   22.3149 N   0  0  0  0  0  0  0  0  0  0  0  0
  -20.1991  -24.2800   26.5382 N   0  0  0  0  0  0  0  0  0  0  0  0
  -30.7342  -12.8578   22.7092 N   0  0  0  0  0  0  0  0  0  0  0  0
  -20.9036  -23.9910   30.0720 N   0  3  0  0  0  0  0  0  0  0  0  0
  -22.5149  -14.6860   20.9775 O   0  0  0  0  0  0  0  0  0  0  0  0
  -20.1198  -20.8208   22.3565 O   0  0  0  0  0  0  0  0  0  0  0  0
  -18.2903  -22.9888   24.8359 O   0  0  0  0  0  0  0  0  0  0  0  0
  -22.1245  -23.5178   27.5817 O   0  0  0  0  0  0  0  0  0  0  0  0
  -32.2565  -13.2221   21.0339 O   0  0  0  0  0  0  0  0  0  0  0  0
  -21.7097   -6.9702   21.6136 O   0  0  0  0  0  0  0  0  0  0  0  0
  -24.6400  -17.4529   25.7815 O   0  0  0  0  0  0  0  0  0  1  0  0
  -16.8565   -6.4748   19.0435 F   0  0  0  0  0  0  0  0  0  0  0  0
  -21.2505   -4.9032   19.8362 F   0  0  0  0  0  0  0  0  0  0  0  0
  1  2  1  0  0  0  0
  1  5  2  0  0  0  0
  2  6  2  0  0  0  0
  3  8  2  0  0  0  0
  3 16  1  0  0  0  0
  4  9  1  0  0  0  0
  4 16  2  0  0  0  0
  5 18  1  0  0  0  0
  6 20  1  0  0  0  0
  7 10  2  0  0  0  0
  7 19  1  0  0  0  0
  8 22  1  0  0  0  0
  9 22  2  0  0  0  0
 10 23  1  0  0  0  0
 11 12  2  0  0  0  0
 11 24  1  0  0  0  0
 12 25  1  0  0  0  0
 13 21  1  0  0  0  0
 13 23  2  0  0  0  0
 14 25  2  0  0  0  0
 14 26  1  0  0  0  0
 15 28  1  0  0  0  0
 15 29  2  0  0  0  0
 16 27  1  0  0  0  0
 17 27  1  0  0  0  0
 17 30  2  0  0  0  0
 17 31  1  0  0  0  0
 18 20  2  0  0  0  0
 18 36  1  0  0  0  0
 19 21  2  0  0  0  0
 19 37  1  0  0  0  0
 20 45  1  0  0  0  0
 21 38  1  0  0  0  0
 22 79  1  0  0  0  0
 23 80  1  0  0  0  0
 24 26  2  0  0  0  0
 24 79  1  0  0  0  0
 25 81  1  0  0  0  0
 26 82  1  0  0  0  0
 27 62  2  0  0  0  0
 28 54  1  0  0  0  0
 28 63  2  0  0  0  0
 29 55  1  0  0  0  0
 29 64  1  0  0  0  0
 30 65  1  0  0  0  0
 30 68  1  0  0  0  0
 31 69  1  0  0  0  0
 31 74  2  0  0  0  0
 32 46  1  0  0  0  0
 32 70  1  0  0  0  0
 32 75  2  0  0  0  0
 33 59  1  0  0  0  0
 33 66  1  0  0  0  0
 33 76  2  0  0  0  0
 34 60  1  0  0  0  0
 34 71  1  0  0  0  0
 34 77  2  0  0  0  0
 35 67  1  0  0  0  0
 35 72  1  0  0  0  0
 35 78  2  0  0  0  0
 36 39  1  0  0  0  0
 37 46  1  0  0  0  0
 38 66  1  0  0  0  0
 39 41  1  0  0  0  0
 40 42  1  0  0  0  0
 40 43  1  0  0  0  0
 41 45  1  0  0  0  0
 42 47  1  0  0  0  0
 43 67  1  0  0  0  0
 44 47  1  0  0  0  0
 44 67  1  0  0  0  0
 45 70  1  0  0  0  0
 46 66  1  0  0  0  0
 47 65  1  0  0  0  0
 48 60  1  0  0  0  0
 49 61  1  0  0  0  0
 50 61  1  0  0  0  0
 51 61  1  0  0  0  0
 52 64  1  0  0  0  0
 53 73  1  0  0  0  0
 54 80  1  0  0  0  0
 55 56  1  0  0  0  0
 56 57  1  0  0  0  0
 57 58  1  0  0  0  0
 58 72  1  0  0  0  0
 59 61  1  0  0  0  0
 59 71  1  0  0  0  0
 60 73  1  0  0  0  0
 62 65  1  0  0  0  0
 63 64  1  0  0  0  0
M  CHG  1  73   1
M  ISO  4  35 100  54 101  72 100  80 101
M  END
> <Batch ID>
0041

> <Smiles>
CNC(C)C(=O)NC(C(=O)N1Cc2cc([101O:1][101CH2:1]c3cc(CCCC[100NH:0][100C:0](=O)N4CCCC(n5nc(-c6ccc(Oc7ccc(F)cc7F)cc6)c(C(N)=O)c5N)C4)n(C)n3)ccc2CC1C(=O)NC1CCCc2ccccc21)C(C)(C)C

> <Shape>
0.124

> <Color>
0.178

> <Negative vol penalty>
0.000

$$$$

  -OEChem-04052317093D

 81 89  0     1  0  0  0  0  0999 V2000
  -20.4091  -30.9771   24.0384 C   0  0  0  0  0  0  0  0  0  0  0  0
  -21.6591  -30.4142   23.8018 C   0  0  0  0  0  0  0  0  0  0  0  0
  -25.5806  -15.5775   22.3039 C   0  0  0  0  0  0  0  0  0  0  0  0
  -25.4287  -14.7446   20.0411 C   0  0  0  0  0  0  0  0  0  0  0  0
  -19.2535  -30.2620   23.7266 C   0  0  0  0  0  0  0  0  0  0  0  0
  -21.7542  -29.1353   23.2542 C   0  0  0  0  0  0  0  0  0  0  0  0
  -25.2136  -28.8533   19.5666 C   0  0  0  0  0  0  0  0  0  0  0  0
  -24.5236  -14.7488   22.6800 C   0  0  0  0  0  0  0  0  0  0  0  0
  -24.3717  -13.9158   20.4172 C   0  0  0  0  0  0  0  0  0  0  0  0
  -26.5512  -28.7797   19.9527 C   0  0  0  0  0  0  0  0  0  0  0  0
  -21.0561  -14.2185   21.0058 C   0  0  0  0  0  0  0  0  0  0  0  0
  -19.9422  -14.1684   20.1678 C   0  0  0  0  0  0  0  0  0  0  0  0
  -26.5164  -26.3941   19.5965 C   0  0  0  0  0  0  0  0  0  0  0  0
  -20.2809  -11.7961   19.8596 C   0  0  0  0  0  0  0  0  0  0  0  0
  -31.0077  -25.7967   15.5825 C   0  0  0  0  0  0  0  0  0  0  0  0
  -31.1019  -24.2592   17.1516 C   0  0  0  0  0  0  0  0  0  0  0  0
  -26.0331  -15.5755   20.9844 C   0  0  0  0  0  0  0  0  0  0  0  0
  -28.4977  -16.1219   20.6169 C   0  0  0  0  0  0  0  0  0  0  0  0
  -19.3346  -28.9776   23.1660 C   0  0  0  0  0  0  0  0  0  0  0  0
  -24.5130  -27.6944   19.2024 C   0  0  0  0  0  0  0  0  0  0  0  0
  -20.5987  -28.4018   22.9359 C   0  0  0  0  0  0  0  0  0  0  0  0
  -25.1707  -26.4561   19.2037 C   0  0  0  0  0  0  0  0  0  0  0  0
  -30.8661  -24.4143   15.8074 C   0  0  0  0  0  0  0  0  0  0  0  0
  -23.9191  -13.9179   21.7366 C   0  0  0  0  0  0  0  0  0  0  0  0
  -27.2020  -27.5496   19.9704 C   0  0  0  0  0  0  0  0  0  0  0  0
  -21.7826  -13.0575   21.2706 C   0  0  0  0  0  0  0  0  0  0  0  0
  -19.5545  -12.9572   19.5947 C   0  0  0  0  0  0  0  0  0  0  0  0
  -21.3949  -11.8464   20.6975 C   0  0  0  0  0  0  0  0  0  0  0  0
  -27.1246  -16.4318   20.5952 C   0  0  0  0  0  0  0  0  0  0  0  0
  -29.1138  -17.2596   20.1559 C   0  0  0  0  0  0  0  0  0  0  0  0
  -29.1572  -14.9136   21.0179 C   0  0  0  0  0  0  0  0  0  0  0  0
  -21.9661  -26.1647   20.3323 C   0  0  0  0  0  0  0  0  0  0  0  0
  -22.3729  -24.3374   17.6832 C   0  0  0  0  0  0  0  0  0  0  0  0
  -24.4780  -23.1703   15.2639 C   0  0  0  0  0  0  0  0  0  0  0  0
  -28.3285  -21.3593   16.2844 C   0  0  0  0  0  0  0  0  0  0  0  0
  -18.0576  -28.2243   22.8896 C   0  0  0  0  0  0  0  0  0  0  0  0
  -23.0781  -27.7944   18.7627 C   0  0  0  0  0  0  0  0  0  0  0  0
  -24.4692  -25.1852   18.8022 C   0  0  0  0  0  0  0  0  0  0  0  0
  -18.2461  -27.0247   21.9644 C   0  0  0  0  0  0  0  0  0  0  0  0
  -27.8286  -22.0220   19.8069 C   0  0  0  0  0  0  0  0  0  0  0  0
  -19.4538  -26.2003   22.3986 C   0  0  0  0  0  0  0  0  0  0  0  0
  -27.7301  -20.6039   20.3722 C   0  0  0  0  0  0  0  0  0  0  0  0
  -27.1585  -22.1199   18.4397 C   0  0  0  0  0  0  0  0  0  0  0  0
  -27.5735  -19.7318   17.9943 C   0  0  0  0  0  0  0  0  0  0  0  0
  -20.7430  -27.0270   22.3202 C   0  0  1  0  0  0  0  0  0  0  0  0
  -22.3164  -26.4803   18.9057 C   0  0  1  0  0  0  0  0  0  0  0  0
  -28.2524  -19.5618   19.3655 C   0  0  2  0  0  0  0  0  0  0  0  0
  -24.5309  -21.6630   13.2583 C   0  0  0  0  0  0  0  0  0  0  0  0
  -22.3802  -21.8998   19.5184 C   0  0  0  0  0  0  0  0  0  0  0  0
  -23.3660  -20.5736   17.6375 C   0  0  0  0  0  0  0  0  0  0  0  0
  -21.1052  -21.5980   17.3882 C   0  0  0  0  0  0  0  0  0  0  0  0
  -25.2366  -25.3959   13.4666 C   0  0  0  0  0  0  0  0  0  0  0  0
  -30.5367  -23.3688   14.8257 C   0  0  0  0  0  0  0  0  0  0  0  0
  -30.7364  -26.9164   19.6574 C   0  0  0  0  0  0  0  0  0  0  0  0
  -31.6807  -25.8709   19.0598 C   0  0  0  0  0  0  0  0  0  0  0  0
  -29.0268  -23.1038   14.6640 C   0  0  0  0  0  0  0  0  0  0  0  0
  -29.2936  -26.4366   19.7639 C   0  0  0  0  0  0  0  0  0  1  0  0
  -23.1499  -23.0848   17.3575 C   0  0  1  0  0  0  0  0  0  0  0  0
  -24.3307  -23.0863   13.7554 C   0  0  2  0  0  0  0  0  0  0  0  0
  -22.5132  -21.8126   17.9849 C   0  0  0  0  0  0  0  0  0  0  0  0
  -31.3099  -26.4718   16.6947 N   0  0  0  0  0  0  0  0  0  0  0  0
  -26.8822  -17.6695   20.1554 N   0  0  0  0  0  0  0  0  0  0  0  0
  -31.3600  -25.5095   17.6315 N   0  0  0  0  0  0  0  0  0  0  0  0
  -28.1113  -18.1473   19.8965 N   0  0  0  0  0  0  0  0  0  0  0  0
  -23.0648  -25.3339   18.3862 N   0  0  0  0  0  0  0  0  0  0  0  0
  -27.7136  -21.1137   17.5234 N   0  0  0  0  0  0  0  0  0  0  0  0
  -30.4098  -17.5773   19.9511 N   0  0  0  0  0  0  0  0  0  0  0  0
  -28.3734  -13.8416   21.4659 N   0  0  0  0  0  0  0  0  0  0  0  0
  -21.1942  -27.1308   20.9490 N   0  0  0  0  0  0  0  0  0  0  0  0
  -23.2634  -23.0413   15.9037 N   0  0  0  0  0  0  0  0  0  0  0  0
  -28.4153  -22.6942   15.9086 N   0  0  0  0  0  0  0  0  0  0  0  0
  -25.3338  -23.9629   13.0873 N   0  3  0  0  0  0  0  0  0  0  0  0
  -30.4057  -14.7941   20.9955 O   0  0  0  0  0  0  0  0  0  0  0  0
  -22.3652  -25.1213   20.8359 O   0  0  0  0  0  0  0  0  0  0  0  0
  -21.1975  -24.4314   17.3208 O   0  0  0  0  0  0  0  0  0  0  0  0
  -25.5626  -23.3305   15.8193 O   0  0  0  0  0  0  0  0  0  0  0  0
  -28.7725  -20.4556   15.5679 O   0  0  0  0  0  0  0  0  0  0  0  0
  -22.8878  -13.1088   22.1033 O   0  0  0  0  0  0  0  0  0  0  0  0
  -28.5074  -27.4748   20.3475 O   0  0  0  0  0  0  0  0  0  1  0  0
  -18.4839  -12.9088   18.7913 F   0  0  0  0  0  0  0  0  0  0  0  0
  -22.0882  -10.7275   20.9491 F   0  0  0  0  0  0  0  0  0  0  0  0
  1  2  1  0  0  0  0
  1  5  2  0  0  0  0
  2  6  2  0  0  0  0
  3  8  2  0  0  0  0
  3 17  1  0  0  0  0
  4  9  1  0  0  0  0
  4 17  2  0  0  0  0
  5 19  1  0  0  0  0
  6 21  1  0  0  0  0
  7 10  2  0  0  0  0
  7 20  1  0  0  0  0
  8 24  1  0  0  0  0
  9 24  2  0  0  0  0
 10 25  1  0  0  0  0
 11 12  2  0  0  0  0
 11 26  1  0  0  0  0
 12 27  1  0  0  0  0
 13 22  1  0  0  0  0
 13 25  2  0  0  0  0
 14 27  2  0  0  0  0
 14 28  1  0  0  0  0
 15 23  1  0  0  0  0
 15 61  2  0  0  0  0
 16 23  2  0  0  0  0
 16 63  1  0  0  0  0
 17 29  1  0  0  0  0
 18 29  1  0  0  0  0
 18 30  2  0  0  0  0
 18 31  1  0  0  0  0
 19 21  2  0  0  0  0
 19 36  1  0  0  0  0
 20 22  2  0  0  0  0
 20 37  1  0  0  0  0
 21 45  1  0  0  0  0
 22 38  1  0  0  0  0
 23 53  1  0  0  0  0
 24 78  1  0  0  0  0
 25 79  1  0  0  0  0
 26 28  2  0  0  0  0
 26 78  1  0  0  0  0
 27 80  1  0  0  0  0
 28 81  1  0  0  0  0
 29 62  2  0  0  0  0
 30 64  1  0  0  0  0
 30 67  1  0  0  0  0
 31 68  1  0  0  0  0
 31 73  2  0  0  0  0
 32 46  1  0  0  0  0
 32 69  1  0  0  0  0
 32 74  2  0  0  0  0
 33 58  1  0  0  0  0
 33 65  1  0  0  0  0
 33 75  2  0  0  0  0
 34 59  1  0  0  0  0
 34 70  1  0  0  0  0
 34 76  2  0  0  0  0
 35 66  1  0  0  0  0
 35 71  1  0  0  0  0
 35 77  2  0  0  0  0
 36 39  1  0  0  0  0
 37 46  1  0  0  0  0
 38 65  1  0  0  0  0
 39 41  1  0  0  0  0
 40 42  1  0  0  0  0
 40 43  1  0  0  0  0
 41 45  1  0  0  0  0
 42 47  1  0  0  0  0
 43 66  1  0  0  0  0
 44 47  1  0  0  0  0
 44 66  1  0  0  0  0
 45 69  1  0  0  0  0
 46 65  1  0  0  0  0
 47 64  1  0  0  0  0
 48 59  1  0  0  0  0
 49 60  1  0  0  0  0
 50 60  1  0  0  0  0
 51 60  1  0  0  0  0
 52 72  1  0  0  0  0
 53 56  1  0  0  0  0
 54 55  1  0  0  0  0
 54 57  1  0  0  0  0
 55 63  1  0  0  0  0
 56 71  1  0  0  0  0
 57 79  1  0  0  0  0
 58 60  1  0  0  0  0
 58 70  1  0  0  0  0
 59 72  1  0  0  0  0
 61 63  1  0  0  0  0
 62 64  1  0  0  0  0
M  CHG  1  72   1
M  ISO  4  35 100  57 101  71 100  79 101
M  END
> <Batch ID>
0041

> <Smiles>
CNC(C)C(=O)NC(C(=O)N1Cc2cc([101O:1][101CH2:1]CCn3cc(CC[100NH:0][100C:0](=O)N4CCCC(n5nc(-c6ccc(Oc7ccc(F)cc7F)cc6)c(C(N)=O)c5N)C4)cn3)ccc2CC1C(=O)NC1CCCc2ccccc21)C(C)(C)C

> <Shape>
0.232

> <Color>
0.059

> <Negative vol penalty>
0.000

$$$$

  -OEChem-04052317093D

 83 91  0     1  0  0  0  0  0999 V2000
  -16.5264  -27.9736   20.2169 C   0  0  0  0  0  0  0  0  0  0  0  0
  -17.4914  -27.5257   19.3205 C   0  0  0  0  0  0  0  0  0  0  0  0
  -25.4731  -13.0456   19.0160 C   0  0  0  0  0  0  0  0  0  0  0  0
  -25.2740  -13.1433   21.4218 C   0  0  0  0  0  0  0  0  0  0  0  0
  -16.8515  -28.1438   21.5620 C   0  0  0  0  0  0  0  0  0  0  0  0
  -18.7825  -27.2489   19.7686 C   0  0  0  0  0  0  0  0  0  0  0  0
  -24.3054  -22.8615   18.5172 C   0  0  0  0  0  0  0  0  0  0  0  0
  -25.2586  -11.6679   19.0541 C   0  0  0  0  0  0  0  0  0  0  0  0
  -25.0595  -11.7655   21.4600 C   0  0  0  0  0  0  0  0  0  0  0  0
  -25.6755  -22.9004   18.2623 C   0  0  0  0  0  0  0  0  0  0  0  0
  -24.1008   -8.3290   22.1594 C   0  0  0  0  0  0  0  0  0  0  0  0
  -23.0702   -7.8546   22.9708 C   0  0  0  0  0  0  0  0  0  0  0  0
  -26.1014  -23.1554   20.6230 C   0  0  0  0  0  0  0  0  0  0  0  0
  -21.4742   -9.1501   21.7013 C   0  0  0  0  0  0  0  0  0  0  0  0
  -25.4809  -13.7834   20.1998 C   0  0  0  0  0  0  0  0  0  0  0  0
  -24.7291  -16.2158   20.0398 C   0  0  0  0  0  0  0  0  0  0  0  0
  -18.1446  -27.8597   22.0286 C   0  0  0  0  0  0  0  0  0  0  0  0
  -23.8216  -22.9805   19.8281 C   0  0  0  0  0  0  0  0  0  0  0  0
  -19.1256  -27.4167   21.1209 C   0  0  0  0  0  0  0  0  0  0  0  0
  -24.7248  -23.1152   20.8922 C   0  0  0  0  0  0  0  0  0  0  0  0
  -30.3338  -24.4258   18.1579 C   0  0  0  0  0  0  0  0  0  0  0  0
  -25.0518  -11.0279   20.2761 C   0  0  0  0  0  0  0  0  0  0  0  0
  -26.5736  -23.0503   19.3150 C   0  0  0  0  0  0  0  0  0  0  0  0
  -23.8181   -9.2141   21.1189 C   0  0  0  0  0  0  0  0  0  0  0  0
  -21.7570   -8.2651   22.7418 C   0  0  0  0  0  0  0  0  0  0  0  0
  -22.5048   -9.6246   20.8899 C   0  0  0  0  0  0  0  0  0  0  0  0
  -25.7029  -15.2065   20.1611 C   0  0  0  0  0  0  0  0  0  0  0  0
  -30.9405  -24.6780   19.4030 C   0  0  0  0  0  0  0  0  0  0  0  0
  -30.2890  -25.6531   17.5429 C   0  0  0  0  0  0  0  0  0  0  0  0
  -25.4457  -17.3875   20.0524 C   0  0  0  0  0  0  0  0  0  0  0  0
  -23.3042  -16.1042   19.9259 C   0  0  0  0  0  0  0  0  0  0  0  0
  -21.9603  -25.0580   21.3523 C   0  0  0  0  0  0  0  0  0  0  0  0
  -22.2209  -22.9186   23.7767 C   0  0  0  0  0  0  0  0  0  0  0  0
  -24.0010  -20.4018   25.2409 C   0  0  0  0  0  0  0  0  0  0  0  0
  -29.3338  -20.5623   22.2320 C   0  0  0  0  0  0  0  0  0  0  0  0
  -18.4618  -28.1042   23.4826 C   0  0  0  0  0  0  0  0  0  0  0  0
  -22.3420  -22.9098   20.0891 C   0  0  0  0  0  0  0  0  0  0  0  0
  -24.2575  -23.2266   22.3196 C   0  0  0  0  0  0  0  0  0  0  0  0
  -19.7508  -27.4307   23.9465 C   0  0  0  0  0  0  0  0  0  0  0  0
  -30.4258  -18.2077   19.7099 C   0  0  0  0  0  0  0  0  0  0  0  0
  -20.8733  -27.6786   22.9438 C   0  0  0  0  0  0  0  0  0  0  0  0
  -29.2026  -17.2962   19.5948 C   0  0  0  0  0  0  0  0  0  0  0  0
  -30.6564  -18.6437   21.1538 C   0  0  0  0  0  0  0  0  0  0  0  0
  -28.2608  -18.3980   21.6778 C   0  0  0  0  0  0  0  0  0  0  0  0
  -20.5305  -27.0822   21.5733 C   0  0  1  0  0  0  0  0  0  0  0  0
  -21.9367  -23.5567   21.4099 C   0  0  1  0  0  0  0  0  0  0  0  0
  -27.9608  -17.9409   20.2387 C   0  0  2  0  0  0  0  0  0  0  0  0
  -29.7725  -26.0630   16.2234 C   0  0  0  0  0  0  0  0  0  0  0  0
  -23.9825  -18.8772   27.2340 C   0  0  0  0  0  0  0  0  0  0  0  0
  -23.1403  -25.2268   25.5479 C   0  0  0  0  0  0  0  0  0  0  0  0
  -23.9965  -23.5375   27.1854 C   0  0  0  0  0  0  0  0  0  0  0  0
  -21.5618  -23.6306   26.6502 C   0  0  0  0  0  0  0  0  0  0  0  0
  -31.0320  -27.9521   18.2341 C   0  0  0  0  0  0  0  0  0  0  0  0
  -23.8671  -17.9857   23.5370 C   0  0  0  0  0  0  0  0  0  0  0  0
  -29.8414  -23.1054   17.6173 C   0  0  0  0  0  0  0  0  0  0  0  0
  -31.2396  -23.7120   20.4747 C   0  0  0  0  0  0  0  0  0  0  0  0
  -30.2345  -23.7078   21.6533 C   0  0  0  0  0  0  0  0  0  0  0  0
  -30.5435  -22.6705   22.7307 C   0  0  0  0  0  0  0  0  0  0  0  0
  -28.3253  -22.9707   17.7083 C   0  0  0  0  0  0  0  0  0  1  0  0
  -23.1752  -22.7203   24.9296 C   0  0  1  0  0  0  0  0  0  0  0  0
  -23.5751  -19.0477   25.7788 C   0  0  2  0  0  0  0  0  0  0  0  0
  -22.9775  -23.7787   26.0513 C   0  0  0  0  0  0  0  0  0  0  0  0
  -26.9435  -15.6943   20.2445 N   0  0  0  0  0  0  0  0  0  0  0  0
  -31.2585  -25.9644   19.5705 N   0  0  0  0  0  0  0  0  0  0  0  0
  -30.8501  -26.5315   18.4225 N   0  0  0  0  0  0  0  0  0  0  0  0
  -26.7542  -17.0230   20.1753 N   0  0  0  0  0  0  0  0  0  0  0  0
  -22.8009  -23.1585   22.5229 N   0  0  0  0  0  0  0  0  0  0  0  0
  -29.4428  -19.2661   21.7015 N   0  0  0  0  0  0  0  0  0  0  0  0
  -25.0778  -18.6838   19.9700 N   0  0  0  0  0  0  0  0  0  0  0  0
  -22.7318  -14.8249   19.9297 N   0  0  0  0  0  0  0  0  0  0  0  0
  -20.7325  -25.6492   21.5809 N   0  0  0  0  0  0  0  0  0  0  0  0
  -23.0001  -21.3411   25.3718 N   0  0  0  0  0  0  0  0  0  0  0  0
  -30.5004  -21.3170   22.2238 N   0  0  0  0  0  0  0  0  0  0  0  0
  -24.2021  -17.9541   24.9839 N   0  3  0  0  0  0  0  0  0  0  0  0
  -22.5621  -17.1086   19.8074 O   0  0  0  0  0  0  0  0  0  0  0  0
  -23.0148  -25.6371   21.1193 O   0  0  0  0  0  0  0  0  0  0  0  0
  -21.0058  -22.8557   23.9797 O   0  0  0  0  0  0  0  0  0  0  0  0
  -25.1119  -20.6068   24.7567 O   0  0  0  0  0  0  0  0  0  0  0  0
  -28.2733  -21.0159   22.6755 O   0  0  0  0  0  0  0  0  0  0  0  0
  -24.8422   -9.6835   20.3137 O   0  0  0  0  0  0  0  0  0  0  0  0
  -27.9115  -23.0891   19.0689 O   0  0  0  0  0  0  0  0  0  1  0  0
  -20.7672   -7.8083   23.5201 F   0  0  0  0  0  0  0  0  0  0  0  0
  -22.2270  -10.4737   19.8911 F   0  0  0  0  0  0  0  0  0  0  0  0
  1  2  1  0  0  0  0
  1  5  2  0  0  0  0
  2  6  2  0  0  0  0
  3  8  2  0  0  0  0
  3 15  1  0  0  0  0
  4  9  1  0  0  0  0
  4 15  2  0  0  0  0
  5 17  1  0  0  0  0
  6 19  1  0  0  0  0
  7 10  2  0  0  0  0
  7 18  1  0  0  0  0
  8 22  1  0  0  0  0
  9 22  2  0  0  0  0
 10 23  1  0  0  0  0
 11 12  2  0  0  0  0
 11 24  1  0  0  0  0
 12 25  1  0  0  0  0
 13 20  1  0  0  0  0
 13 23  2  0  0  0  0
 14 25  2  0  0  0  0
 14 26  1  0  0  0  0
 15 27  1  0  0  0  0
 16 27  1  0  0  0  0
 16 30  2  0  0  0  0
 16 31  1  0  0  0  0
 17 19  2  0  0  0  0
 17 36  1  0  0  0  0
 18 20  2  0  0  0  0
 18 37  1  0  0  0  0
 19 45  1  0  0  0  0
 20 38  1  0  0  0  0
 21 28  1  0  0  0  0
 21 29  2  0  0  0  0
 21 55  1  0  0  0  0
 22 80  1  0  0  0  0
 23 81  1  0  0  0  0
 24 26  2  0  0  0  0
 24 80  1  0  0  0  0
 25 82  1  0  0  0  0
 26 83  1  0  0  0  0
 27 63  2  0  0  0  0
 28 56  1  0  0  0  0
 28 64  2  0  0  0  0
 29 48  1  0  0  0  0
 29 65  1  0  0  0  0
 30 66  1  0  0  0  0
 30 69  1  0  0  0  0
 31 70  1  0  0  0  0
 31 75  2  0  0  0  0
 32 46  1  0  0  0  0
 32 71  1  0  0  0  0
 32 76  2  0  0  0  0
 33 60  1  0  0  0  0
 33 67  1  0  0  0  0
 33 77  2  0  0  0  0
 34 61  1  0  0  0  0
 34 72  1  0  0  0  0
 34 78  2  0  0  0  0
 35 68  1  0  0  0  0
 35 73  1  0  0  0  0
 35 79  2  0  0  0  0
 36 39  1  0  0  0  0
 37 46  1  0  0  0  0
 38 67  1  0  0  0  0
 39 41  1  0  0  0  0
 40 42  1  0  0  0  0
 40 43  1  0  0  0  0
 41 45  1  0  0  0  0
 42 47  1  0  0  0  0
 43 68  1  0  0  0  0
 44 47  1  0  0  0  0
 44 68  1  0  0  0  0
 45 71  1  0  0  0  0
 46 67  1  0  0  0  0
 47 66  1  0  0  0  0
 49 61  1  0  0  0  0
 50 62  1  0  0  0  0
 51 62  1  0  0  0  0
 52 62  1  0  0  0  0
 53 65  1  0  0  0  0
 54 74  1  0  0  0  0
 55 59  1  0  0  0  0
 56 57  1  0  0  0  0
 57 58  1  0  0  0  0
 58 73  1  0  0  0  0
 59 81  1  0  0  0  0
 60 62  1  0  0  0  0
 60 72  1  0  0  0  0
 61 74  1  0  0  0  0
 63 66  1  0  0  0  0
 64 65  1  0  0  0  0
M  CHG  1  74   1
M  ISO  4  35 100  59 101  73 100  81 101
M  END
> <Batch ID>
0041

> <Smiles>
CNC(C)C(=O)NC(C(=O)N1Cc2cc([101O:1][101CH2:1]Cc3c(CCC[100NH:0][100C:0](=O)N4CCCC(n5nc(-c6ccc(Oc7ccc(F)cc7F)cc6)c(C(N)=O)c5N)C4)nn(C)c3C)ccc2CC1C(=O)NC1CCCc2ccccc21)C(C)(C)C

> <Shape>
0.204

> <Color>
0.059

> <Negative vol penalty>
0.000

$$$$

  -OEChem-04052317093D

 85 93  0     1  0  0  0  0  0999 V2000
  -22.2254  -25.3051   25.7245 C   0  0  0  0  0  0  0  0  0  0  0  0
  -22.2313  -24.1199   24.9960 C   0  0  0  0  0  0  0  0  0  0  0  0
  -27.1352  -25.7171   19.1677 C   0  0  0  0  0  0  0  0  0  0  0  0
  -28.0200  -25.0229   21.3059 C   0  0  0  0  0  0  0  0  0  0  0  0
  -21.4387  -26.3766   25.3039 C   0  0  0  0  0  0  0  0  0  0  0  0
  -21.4495  -24.0051   23.8470 C   0  0  0  0  0  0  0  0  0  0  0  0
  -23.9518  -21.8630   20.0006 C   0  0  0  0  0  0  0  0  0  0  0  0
  -26.2322  -26.5603   19.8150 C   0  0  0  0  0  0  0  0  0  0  0  0
  -27.1170  -25.8662   21.9534 C   0  0  0  0  0  0  0  0  0  0  0  0
  -24.0991  -20.4769   20.0301 C   0  0  0  0  0  0  0  0  0  0  0  0
  -23.9376  -29.1663   20.8917 C   0  0  0  0  0  0  0  0  0  0  0  0
  -23.7805  -30.4575   20.3880 C   0  0  0  0  0  0  0  0  0  0  0  0
  -22.2669  -20.2552   18.4766 C   0  0  0  0  0  0  0  0  0  0  0  0
  -26.1233  -30.8965   20.7825 C   0  0  0  0  0  0  0  0  0  0  0  0
  -25.3581  -11.4034   20.7246 C   0  0  0  0  0  0  0  0  0  0  0  0
  -28.0291  -24.9484   19.9131 C   0  0  0  0  0  0  0  0  0  0  0  0
  -30.2623  -24.3960   18.8107 C   0  0  0  0  0  0  0  0  0  0  0  0
  -20.6543  -26.2783   24.1438 C   0  0  0  0  0  0  0  0  0  0  0  0
  -22.9522  -22.4560   19.2160 C   0  0  0  0  0  0  0  0  0  0  0  0
  -20.6505  -25.0759   23.4113 C   0  0  0  0  0  0  0  0  0  0  0  0
  -22.1107  -21.6492   18.4369 C   0  0  0  0  0  0  0  0  0  0  0  0
  -25.4434  -14.0856   20.8170 C   0  0  0  0  0  0  0  0  0  0  0  0
  -26.2231  -26.6349   21.2079 C   0  0  0  0  0  0  0  0  0  0  0  0
  -23.2547  -19.6726   19.2703 C   0  0  0  0  0  0  0  0  0  0  0  0
  -25.1876  -28.7402   21.3409 C   0  0  0  0  0  0  0  0  0  0  0  0
  -24.8733  -31.3226   20.3334 C   0  0  0  0  0  0  0  0  0  0  0  0
  -26.2804  -29.6053   21.2863 C   0  0  0  0  0  0  0  0  0  0  0  0
  -28.9618  -24.0767   19.2450 C   0  0  0  0  0  0  0  0  0  0  0  0
  -24.4872  -13.3569   21.4944 C   0  0  0  0  0  0  0  0  0  0  0  0
  -26.3530  -13.3459   20.0891 C   0  0  0  0  0  0  0  0  0  0  0  0
  -30.7288  -23.2360   18.2420 C   0  0  0  0  0  0  0  0  0  0  0  0
  -30.9841  -25.6306   18.9123 C   0  0  0  0  0  0  0  0  0  0  0  0
  -20.4048  -24.2600   19.8159 C   0  0  0  0  0  0  0  0  0  0  0  0
  -20.2421  -24.4222   16.5802 C   0  0  0  0  0  0  0  0  0  0  0  0
  -21.0170  -23.0208   13.5665 C   0  0  0  0  0  0  0  0  0  0  0  0
  -29.3486  -17.5706   19.1657 C   0  0  0  0  0  0  0  0  0  0  0  0
  -19.7838  -27.4469   23.7549 C   0  0  0  0  0  0  0  0  0  0  0  0
  -22.8236  -23.9541   19.1744 C   0  0  0  0  0  0  0  0  0  0  0  0
  -21.0350  -22.2376   17.5622 C   0  0  0  0  0  0  0  0  0  0  0  0
  -19.2725  -27.3740   22.3185 C   0  0  0  0  0  0  0  0  0  0  0  0
  -29.2107  -19.2964   15.9877 C   0  0  0  0  0  0  0  0  0  0  0  0
  -18.7334  -25.9799   22.0137 C   0  0  0  0  0  0  0  0  0  0  0  0
  -29.2559  -20.7590   16.4336 C   0  0  0  0  0  0  0  0  0  0  0  0
  -28.3869  -18.4493   16.9531 C   0  0  0  0  0  0  0  0  0  0  0  0
  -28.8827  -19.9801   18.8198 C   0  0  0  0  0  0  0  0  0  0  0  0
  -19.8351  -24.9214   22.1459 C   0  0  1  0  0  0  0  0  0  0  0  0
  -21.4390  -24.4231   18.7382 C   0  0  1  0  0  0  0  0  0  0  0  0
  -29.7196  -20.8846   17.8970 C   0  0  2  0  0  0  0  0  0  0  0  0
  -22.6948  -13.0857   23.2266 C   0  0  0  0  0  0  0  0  0  0  0  0
  -20.7163  -23.3639   11.0989 C   0  0  0  0  0  0  0  0  0  0  0  0
  -17.3512  -23.4720   16.8028 C   0  0  0  0  0  0  0  0  0  0  0  0
  -17.4148  -22.9289   14.3596 C   0  0  0  0  0  0  0  0  0  0  0  0
  -17.7271  -25.2839   15.1206 C   0  0  0  0  0  0  0  0  0  0  0  0
  -23.9366  -23.2082   13.1192 C   0  0  0  0  0  0  0  0  0  0  0  0
  -25.4913  -15.5918   20.8686 C   0  0  0  0  0  0  0  0  0  0  0  0
  -23.4499  -14.0493   22.3159 C   0  0  0  0  0  0  0  0  0  0  0  0
  -27.4340  -14.0259   19.3150 C   0  0  0  0  0  0  0  0  0  0  0  0
  -24.4292  -16.2718   20.0020 C   0  0  0  0  0  0  0  0  0  0  0  0
  -28.6342  -14.4835   20.1659 C   0  0  0  0  0  0  0  0  0  0  0  0
  -29.7618  -15.1321   19.3657 C   0  0  0  0  0  0  0  0  0  0  0  0
  -24.4300  -17.7910   20.1270 C   0  0  0  0  0  0  0  0  0  1  0  0
  -19.5769  -23.6029   15.5008 C   0  0  1  0  0  0  0  0  0  0  0  0
  -21.6115  -23.6149   12.3024 C   0  0  2  0  0  0  0  0  0  0  0  0
  -18.0364  -23.8104   15.4639 C   0  0  0  0  0  0  0  0  0  0  0  0
  -24.4148  -12.0099   21.4702 N   0  0  0  0  0  0  0  0  0  0  0  0
  -26.3398  -11.9985   20.0206 N   0  0  0  0  0  0  0  0  0  0  0  0
  -28.6238  -22.8130   18.9752 N   0  0  0  0  0  0  0  0  0  0  0  0
  -29.7186  -22.3280   18.3651 N   0  0  0  0  0  0  0  0  0  0  0  0
  -20.9449  -23.7071   17.5603 N   0  0  0  0  0  0  0  0  0  0  0  0
  -28.8914  -18.5993   18.3254 N   0  0  0  0  0  0  0  0  0  0  0  0
  -31.9005  -22.9144   17.6536 N   0  0  0  0  0  0  0  0  0  0  0  0
  -30.3563  -26.7231   19.5259 N   0  0  0  0  0  0  0  0  0  0  0  0
  -20.6962  -24.9403   20.9829 N   0  0  0  0  0  0  0  0  0  0  0  0
  -20.2555  -23.9416   14.2546 N   0  0  0  0  0  0  0  0  0  0  0  0
  -29.3177  -16.2913   18.6242 N   0  0  0  0  0  0  0  0  0  0  0  0
  -22.9480  -23.0157   12.0272 N   0  3  0  0  0  0  0  0  0  0  0  0
  -32.1453  -25.7659   18.4573 O   0  0  0  0  0  0  0  0  0  0  0  0
  -19.4149  -23.5695   19.6038 O   0  0  0  0  0  0  0  0  0  0  0  0
  -20.1480  -25.6518   16.5507 O   0  0  0  0  0  0  0  0  0  0  0  0
  -21.2061  -21.8552   13.9075 O   0  0  0  0  0  0  0  0  0  0  0  0
  -29.7595  -17.7775   20.3127 O   0  0  0  0  0  0  0  0  0  0  0  0
  -25.3422  -27.4577   21.8399 O   0  0  0  0  0  0  0  0  0  0  0  0
  -23.3959  -18.3194   19.2977 O   0  0  0  0  0  0  0  0  0  1  0  0
  -24.7226  -32.5620   19.8483 F   0  0  0  0  0  0  0  0  0  0  0  0
  -27.4840  -29.2012   21.7152 F   0  0  0  0  0  0  0  0  0  0  0  0
  1  2  1  0  0  0  0
  1  5  2  0  0  0  0
  2  6  2  0  0  0  0
  3  8  2  0  0  0  0
  3 16  1  0  0  0  0
  4  9  1  0  0  0  0
  4 16  2  0  0  0  0
  5 18  1  0  0  0  0
  6 20  1  0  0  0  0
  7 10  2  0  0  0  0
  7 19  1  0  0  0  0
  8 23  1  0  0  0  0
  9 23  2  0  0  0  0
 10 24  1  0  0  0  0
 11 12  2  0  0  0  0
 11 25  1  0  0  0  0
 12 26  1  0  0  0  0
 13 21  1  0  0  0  0
 13 24  2  0  0  0  0
 14 26  2  0  0  0  0
 14 27  1  0  0  0  0
 15 65  2  0  0  0  0
 15 66  1  0  0  0  0
 16 28  1  0  0  0  0
 17 28  1  0  0  0  0
 17 31  2  0  0  0  0
 17 32  1  0  0  0  0
 18 20  2  0  0  0  0
 18 37  1  0  0  0  0
 19 21  2  0  0  0  0
 19 38  1  0  0  0  0
 20 46  1  0  0  0  0
 21 39  1  0  0  0  0
 22 29  2  0  0  0  0
 22 30  1  0  0  0  0
 22 55  1  0  0  0  0
 23 82  1  0  0  0  0
 24 83  1  0  0  0  0
 25 27  2  0  0  0  0
 25 82  1  0  0  0  0
 26 84  1  0  0  0  0
 27 85  1  0  0  0  0
 28 67  2  0  0  0  0
 29 56  1  0  0  0  0
 29 65  1  0  0  0  0
 30 57  1  0  0  0  0
 30 66  2  0  0  0  0
 31 68  1  0  0  0  0
 31 71  1  0  0  0  0
 32 72  1  0  0  0  0
 32 77  2  0  0  0  0
 33 47  1  0  0  0  0
 33 73  1  0  0  0  0
 33 78  2  0  0  0  0
 34 62  1  0  0  0  0
 34 69  1  0  0  0  0
 34 79  2  0  0  0  0
 35 63  1  0  0  0  0
 35 74  1  0  0  0  0
 35 80  2  0  0  0  0
 36 70  1  0  0  0  0
 36 75  1  0  0  0  0
 36 81  2  0  0  0  0
 37 40  1  0  0  0  0
 38 47  1  0  0  0  0
 39 69  1  0  0  0  0
 40 42  1  0  0  0  0
 41 43  1  0  0  0  0
 41 44  1  0  0  0  0
 42 46  1  0  0  0  0
 43 48  1  0  0  0  0
 44 70  1  0  0  0  0
 45 48  1  0  0  0  0
 45 70  1  0  0  0  0
 46 73  1  0  0  0  0
 47 69  1  0  0  0  0
 48 68  1  0  0  0  0
 49 56  1  0  0  0  0
 50 63  1  0  0  0  0
 51 64  1  0  0  0  0
 52 64  1  0  0  0  0
 53 64  1  0  0  0  0
 54 76  1  0  0  0  0
 55 58  1  0  0  0  0
 57 59  1  0  0  0  0
 58 61  1  0  0  0  0
 59 60  1  0  0  0  0
 60 75  1  0  0  0  0
 61 83  1  0  0  0  0
 62 64  1  0  0  0  0
 62 74  1  0  0  0  0
 63 76  1  0  0  0  0
 67 68  1  0  0  0  0
M  CHG  1  76   1
M  ISO  4  36 100  61 101  75 100  83 101
M  END
> <Batch ID>
0041

> <Smiles>
CCc1ncnc(CCC[100NH:0][100C:0](=O)N2CCCC(n3nc(-c4ccc(Oc5ccc(F)cc5F)cc4)c(C(N)=O)c3N)C2)c1CC[101CH2:1][101O:1]c1ccc2c(c1)CN(C(=O)C(NC(=O)C(C)NC)C(C)(C)C)C(C(=O)NC1CCCc3ccccc31)C2

> <Shape>
0.207

> <Color>
0.076

> <Negative vol penalty>
0.000

$$$$

  -OEChem-04052317093D

 80 88  0     1  0  0  0  0  0999 V2000
  -28.7363  -23.2864   15.3949 C   0  0  0  0  0  0  0  0  0  0  0  0
  -27.5021  -23.7637   15.8244 C   0  0  0  0  0  0  0  0  0  0  0  0
  -27.0321  -15.0966   21.0787 C   0  0  0  0  0  0  0  0  0  0  0  0
  -25.2488  -15.0507   19.4495 C   0  0  0  0  0  0  0  0  0  0  0  0
  -29.7771  -23.1267   16.3088 C   0  0  0  0  0  0  0  0  0  0  0  0
  -27.3077  -24.0806   17.1683 C   0  0  0  0  0  0  0  0  0  0  0  0
  -24.8902  -28.4860   17.7955 C   0  0  0  0  0  0  0  0  0  0  0  0
  -26.9349  -13.7128   21.2242 C   0  0  0  0  0  0  0  0  0  0  0  0
  -25.1515  -13.6669   19.5949 C   0  0  0  0  0  0  0  0  0  0  0  0
  -23.5094  -28.4876   17.6028 C   0  0  0  0  0  0  0  0  0  0  0  0
  -24.1887  -10.1683   19.8016 C   0  0  0  0  0  0  0  0  0  0  0  0
  -22.9129   -9.6166   19.9167 C   0  0  0  0  0  0  0  0  0  0  0  0
  -21.6280  -23.3405   18.2776 C   0  0  0  0  0  0  0  0  0  0  0  0
  -23.1821  -28.3915   19.9909 C   0  0  0  0  0  0  0  0  0  0  0  0
  -22.5251  -10.9286   21.9081 C   0  0  0  0  0  0  0  0  0  0  0  0
  -21.4020  -24.5168   17.6056 C   0  0  0  0  0  0  0  0  0  0  0  0
  -26.1890  -15.7656   20.1914 C   0  0  0  0  0  0  0  0  0  0  0  0
  -27.1005  -17.8999   19.1323 C   0  0  0  0  0  0  0  0  0  0  0  0
  -29.5982  -23.4510   17.6629 C   0  0  0  0  0  0  0  0  0  0  0  0
  -25.4283  -28.4260   19.0891 C   0  0  0  0  0  0  0  0  0  0  0  0
  -28.3466  -23.9238   18.1015 C   0  0  0  0  0  0  0  0  0  0  0  0
  -24.5700  -28.3918   20.1974 C   0  0  0  0  0  0  0  0  0  0  0  0
  -25.9946  -12.9979   20.4823 C   0  0  0  0  0  0  0  0  0  0  0  0
  -22.6551  -28.4375   18.7004 C   0  0  0  0  0  0  0  0  0  0  0  0
  -24.6329  -11.1001   20.7398 C   0  0  0  0  0  0  0  0  0  0  0  0
  -22.0810   -9.9967   20.9699 C   0  0  0  0  0  0  0  0  0  0  0  0
  -23.8011  -11.4803   21.7930 C   0  0  0  0  0  0  0  0  0  0  0  0
  -26.2886  -17.1952   20.0411 C   0  0  0  0  0  0  0  0  0  0  0  0
  -20.5205  -23.2074   19.1364 C   0  0  0  0  0  0  0  0  0  0  0  0
  -26.8327  -19.2227   19.3870 C   0  0  0  0  0  0  0  0  0  0  0  0
  -28.0150  -17.4032   18.1460 C   0  0  0  0  0  0  0  0  0  0  0  0
  -27.2769  -26.3694   20.6564 C   0  0  0  0  0  0  0  0  0  0  0  0
  -27.2082  -28.6585   22.9538 C   0  0  0  0  0  0  0  0  0  0  0  0
  -25.5933  -31.3284   24.3359 C   0  0  0  0  0  0  0  0  0  0  0  0
  -22.1053  -22.0465   21.7384 C   0  0  0  0  0  0  0  0  0  0  0  0
  -30.7383  -23.2169   18.6221 C   0  0  0  0  0  0  0  0  0  0  0  0
  -26.9198  -28.4520   19.2812 C   0  0  0  0  0  0  0  0  0  0  0  0
  -25.0973  -28.3470   21.6076 C   0  0  0  0  0  0  0  0  0  0  0  0
  -30.5644  -23.9301   19.9606 C   0  0  0  0  0  0  0  0  0  0  0  0
  -25.4652  -22.1552   22.9114 C   0  0  0  0  0  0  0  0  0  0  0  0
  -29.1535  -23.7168   20.4998 C   0  0  0  0  0  0  0  0  0  0  0  0
  -26.1305  -20.9599   22.2268 C   0  0  0  0  0  0  0  0  0  0  0  0
  -24.0196  -21.8512   23.2984 C   0  0  0  0  0  0  0  0  0  0  0  0
  -23.8385  -20.1649   21.5103 C   0  0  0  0  0  0  0  0  0  0  0  0
  -28.1043  -24.3019   19.5466 C   0  0  1  0  0  0  0  0  0  0  0  0
  -27.3600  -27.8692   20.6206 C   0  0  1  0  0  0  0  0  0  0  0  0
  -25.2801  -20.4424   21.0510 C   0  0  2  0  0  0  0  0  0  0  0  0
  -25.7603  -32.9674   26.2289 C   0  0  0  0  0  0  0  0  0  0  0  0
  -26.2836  -26.4994   24.9014 C   0  0  0  0  0  0  0  0  0  0  0  0
  -25.5674  -28.3169   26.4674 C   0  0  0  0  0  0  0  0  0  0  0  0
  -27.9700  -28.0932   25.8345 C   0  0  0  0  0  0  0  0  0  0  0  0
  -25.7410  -33.6311   22.4825 C   0  0  0  0  0  0  0  0  0  0  0  0
  -20.2512  -22.1181   20.0903 C   0  0  0  0  0  0  0  0  0  0  0  0
  -19.2531  -27.2352   18.8165 C   0  0  0  0  0  0  0  0  0  0  0  0
  -19.5351  -26.2733   17.6601 C   0  0  0  0  0  0  0  0  0  0  0  0
  -20.5170  -27.7577   19.4894 C   0  0  0  0  0  0  0  0  0  1  0  0
  -26.3156  -28.9639   24.1323 C   0  0  1  0  0  0  0  0  0  0  0  0
  -26.0943  -32.6939   24.7707 C   0  0  2  0  0  0  0  0  0  0  0  0
  -26.5239  -27.9672   25.3074 C   0  0  0  0  0  0  0  0  0  0  0  0
  -25.5598  -18.0034   20.8154 N   0  0  0  0  0  0  0  0  0  0  0  0
  -19.6553  -24.2186   19.0226 N   0  0  0  0  0  0  0  0  0  0  0  0
  -20.2191  -24.9983   18.0844 N   0  0  0  0  0  0  0  0  0  0  0  0
  -25.9128  -19.2297   20.3939 N   0  0  0  0  0  0  0  0  0  0  0  0
  -26.5631  -28.3679   21.7433 N   0  0  0  0  0  0  0  0  0  0  0  0
  -23.2673  -21.3664   22.1388 N   0  0  0  0  0  0  0  0  0  0  0  0
  -27.2968  -20.3690   18.8456 N   0  0  0  0  0  0  0  0  0  0  0  0
  -28.1698  -16.0162   18.0168 N   0  0  0  0  0  0  0  0  0  0  0  0
  -28.0380  -25.7405   19.6896 N   0  0  0  0  0  0  0  0  0  0  0  0
  -26.5628  -30.3588   24.4810 N   0  0  0  0  0  0  0  0  0  0  0  0
  -21.4560  -21.5248   20.6262 N   0  0  0  0  0  0  0  0  0  0  0  0
  -25.4736  -33.7626   23.9379 N   0  3  0  0  0  0  0  0  0  0  0  0
  -28.6875  -18.1669   17.4126 O   0  0  0  0  0  0  0  0  0  0  0  0
  -26.5755  -25.8231   21.4998 O   0  0  0  0  0  0  0  0  0  0  0  0
  -28.4328  -28.6840   23.0999 O   0  0  0  0  0  0  0  0  0  0  0  0
  -24.4546  -31.1401   23.9136 O   0  0  0  0  0  0  0  0  0  0  0  0
  -21.6812  -23.0479   22.3252 O   0  0  0  0  0  0  0  0  0  0  0  0
  -25.8996  -11.6476   20.6238 O   0  0  0  0  0  0  0  0  0  0  0  0
  -21.3069  -28.4383   18.5151 O   0  0  0  0  0  0  0  0  0  1  0  0
  -20.8552   -9.4679   21.0794 F   0  0  0  0  0  0  0  0  0  0  0  0
  -24.2218  -12.3759   22.6967 F   0  0  0  0  0  0  0  0  0  0  0  0
  1  2  1  0  0  0  0
  1  5  2  0  0  0  0
  2  6  2  0  0  0  0
  3  8  2  0  0  0  0
  3 17  1  0  0  0  0
  4  9  1  0  0  0  0
  4 17  2  0  0  0  0
  5 19  1  0  0  0  0
  6 21  1  0  0  0  0
  7 10  2  0  0  0  0
  7 20  1  0  0  0  0
  8 23  1  0  0  0  0
  9 23  2  0  0  0  0
 10 24  1  0  0  0  0
 11 12  2  0  0  0  0
 11 25  1  0  0  0  0
 12 26  1  0  0  0  0
 13 16  2  0  0  0  0
 13 29  1  0  0  0  0
 14 22  1  0  0  0  0
 14 24  2  0  0  0  0
 15 26  2  0  0  0  0
 15 27  1  0  0  0  0
 16 62  1  0  0  0  0
 17 28  1  0  0  0  0
 18 28  1  0  0  0  0
 18 30  2  0  0  0  0
 18 31  1  0  0  0  0
 19 21  2  0  0  0  0
 19 36  1  0  0  0  0
 20 22  2  0  0  0  0
 20 37  1  0  0  0  0
 21 45  1  0  0  0  0
 22 38  1  0  0  0  0
 23 77  1  0  0  0  0
 24 78  1  0  0  0  0
 25 27  2  0  0  0  0
 25 77  1  0  0  0  0
 26 79  1  0  0  0  0
 27 80  1  0  0  0  0
 28 60  2  0  0  0  0
 29 53  1  0  0  0  0
 29 61  2  0  0  0  0
 30 63  1  0  0  0  0
 30 66  1  0  0  0  0
 31 67  1  0  0  0  0
 31 72  2  0  0  0  0
 32 46  1  0  0  0  0
 32 68  1  0  0  0  0
 32 73  2  0  0  0  0
 33 57  1  0  0  0  0
 33 64  1  0  0  0  0
 33 74  2  0  0  0  0
 34 58  1  0  0  0  0
 34 69  1  0  0  0  0
 34 75  2  0  0  0  0
 35 65  1  0  0  0  0
 35 70  1  0  0  0  0
 35 76  2  0  0  0  0
 36 39  1  0  0  0  0
 37 46  1  0  0  0  0
 38 64  1  0  0  0  0
 39 41  1  0  0  0  0
 40 42  1  0  0  0  0
 40 43  1  0  0  0  0
 41 45  1  0  0  0  0
 42 47  1  0  0  0  0
 43 65  1  0  0  0  0
 44 47  1  0  0  0  0
 44 65  1  0  0  0  0
 45 68  1  0  0  0  0
 46 64  1  0  0  0  0
 47 63  1  0  0  0  0
 48 58  1  0  0  0  0
 49 59  1  0  0  0  0
 50 59  1  0  0  0  0
 51 59  1  0  0  0  0
 52 71  1  0  0  0  0
 53 70  1  0  0  0  0
 54 55  1  0  0  0  0
 54 56  1  0  0  0  0
 55 62  1  0  0  0  0
 56 78  1  0  0  0  0
 57 59  1  0  0  0  0
 57 69  1  0  0  0  0
 58 71  1  0  0  0  0
 60 63  1  0  0  0  0
 61 62  1  0  0  0  0
M  CHG  1  71   1
M  ISO  4  35 100  56 101  70 100  78 101
M  END
> <Batch ID>
0041

> <Smiles>
CNC(C)C(=O)NC(C(=O)N1Cc2cc([101O:1][101CH2:1]CCn3ccc(C[100NH:0][100C:0](=O)N4CCCC(n5nc(-c6ccc(Oc7ccc(F)cc7F)cc6)c(C(N)=O)c5N)C4)n3)ccc2CC1C(=O)NC1CCCc2ccccc21)C(C)(C)C

> <Shape>
0.201

> <Color>
0.061

> <Negative vol penalty>
0.000

$$$$

  -OEChem-04052317093D

 83 91  0     1  0  0  0  0  0999 V2000
  -22.1595   -8.1598   20.7162 C   0  0  0  0  0  0  0  0  0  0  0  0
  -21.9417   -9.5333   20.6755 C   0  0  0  0  0  0  0  0  0  0  0  0
  -25.5518  -31.5099   22.3688 C   0  0  0  0  0  0  0  0  0  0  0  0
  -26.7396  -32.0050   20.3241 C   0  0  0  0  0  0  0  0  0  0  0  0
  -23.3582   -7.6600   21.2234 C   0  0  0  0  0  0  0  0  0  0  0  0
  -22.9221  -10.4077   21.1430 C   0  0  0  0  0  0  0  0  0  0  0  0
  -23.6679  -14.3332   18.0319 C   0  0  0  0  0  0  0  0  0  0  0  0
  -25.7461  -32.8222   22.7995 C   0  0  0  0  0  0  0  0  0  0  0  0
  -26.9340  -33.3174   20.7548 C   0  0  0  0  0  0  0  0  0  0  0  0
  -22.7341  -15.3675   18.0767 C   0  0  0  0  0  0  0  0  0  0  0  0
  -24.3862  -35.8625   22.2164 C   0  0  0  0  0  0  0  0  0  0  0  0
  -23.2959  -36.5297   22.7747 C   0  0  0  0  0  0  0  0  0  0  0  0
  -24.2346  -16.6540   19.4598 C   0  0  0  0  0  0  0  0  0  0  0  0
  -24.5231  -36.8093   24.8370 C   0  0  0  0  0  0  0  0  0  0  0  0
  -23.2270  -21.3736   16.0026 C   0  0  0  0  0  0  0  0  0  0  0  0
  -26.0486  -31.1012   21.1311 C   0  0  0  0  0  0  0  0  0  0  0  0
  -24.7660  -29.2480   19.9361 C   0  0  0  0  0  0  0  0  0  0  0  0
  -24.3577   -8.5291   21.6886 C   0  0  0  0  0  0  0  0  0  0  0  0
  -24.8895  -14.4472   18.7108 C   0  0  0  0  0  0  0  0  0  0  0  0
  -24.1347   -9.9190   21.6583 C   0  0  0  0  0  0  0  0  0  0  0  0
  -25.1832  -15.6207   19.4199 C   0  0  0  0  0  0  0  0  0  0  0  0
  -24.0480  -21.7540   17.0446 C   0  0  0  0  0  0  0  0  0  0  0  0
  -26.4372  -33.7260   21.9925 C   0  0  0  0  0  0  0  0  0  0  0  0
  -23.0162  -16.5270   18.7931 C   0  0  0  0  0  0  0  0  0  0  0  0
  -25.5449  -35.6686   22.9684 C   0  0  0  0  0  0  0  0  0  0  0  0
  -23.3644  -37.0032   24.0849 C   0  0  0  0  0  0  0  0  0  0  0  0
  -25.6134  -36.1421   24.2787 C   0  0  0  0  0  0  0  0  0  0  0  0
  -25.8486  -29.7456   20.6858 C   0  0  0  0  0  0  0  0  0  0  0  0
  -23.7332  -21.2210   18.2779 C   0  0  0  0  0  0  0  0  0  0  0  0
  -25.0453  -27.9130   19.7741 C   0  0  0  0  0  0  0  0  0  0  0  0
  -21.9736  -20.0853   17.3942 C   0  0  0  0  0  0  0  0  0  0  0  0
  -23.6111  -29.9314   19.4312 C   0  0  0  0  0  0  0  0  0  0  0  0
  -26.3002  -12.8551   21.0728 C   0  0  0  0  0  0  0  0  0  0  0  0
  -28.7961  -14.8059   20.3745 C   0  0  0  0  0  0  0  0  0  0  0  0
  -29.8860  -17.7502   19.0367 C   0  0  0  0  0  0  0  0  0  0  0  0
  -28.6293  -23.7974   18.6068 C   0  0  0  0  0  0  0  0  0  0  0  0
  -25.6178   -7.9404   22.2718 C   0  0  0  0  0  0  0  0  0  0  0  0
  -25.8972  -13.3334   18.6305 C   0  0  0  0  0  0  0  0  0  0  0  0
  -26.4886  -15.8009   20.1492 C   0  0  0  0  0  0  0  0  0  0  0  0
  -26.7576   -8.9476   22.4010 C   0  0  0  0  0  0  0  0  0  0  0  0
  -28.5513  -24.9941   21.9592 C   0  0  0  0  0  0  0  0  0  0  0  0
  -26.2532  -10.2482   23.0181 C   0  0  0  0  0  0  0  0  0  0  0  0
  -27.7576  -26.2983   21.8637 C   0  0  0  0  0  0  0  0  0  0  0  0
  -29.4357  -24.7805   20.7328 C   0  0  0  0  0  0  0  0  0  0  0  0
  -27.9362  -26.1580   19.3443 C   0  0  0  0  0  0  0  0  0  0  0  0
  -25.1841  -10.9005   22.1332 C   0  0  1  0  0  0  0  0  0  0  0  0
  -26.8957  -13.3467   19.7838 C   0  0  1  0  0  0  0  0  0  0  0  0
  -26.9874  -26.3897   20.5327 C   0  0  2  0  0  0  0  0  0  0  0  0
  -24.5525  -21.5622   19.4786 C   0  0  0  0  0  0  0  0  0  0  0  0
  -31.9767  -19.0816   18.6452 C   0  0  0  0  0  0  0  0  0  0  0  0
  -28.8455  -15.5906   23.3227 C   0  0  0  0  0  0  0  0  0  0  0  0
  -30.2597  -17.5613   22.7026 C   0  0  0  0  0  0  0  0  0  0  0  0
  -31.1002  -15.2481   22.2964 C   0  0  0  0  0  0  0  0  0  0  0  0
  -29.5122  -17.6919   16.1015 C   0  0  0  0  0  0  0  0  0  0  0  0
  -25.1893  -22.6788   16.8260 C   0  0  0  0  0  0  0  0  0  0  0  0
  -20.8080  -19.1466   17.5907 C   0  0  0  0  0  0  0  0  0  0  0  0
  -26.5677  -21.9896   16.7293 C   0  0  0  0  0  0  0  0  0  0  0  0
  -27.7277  -22.9450   16.4575 C   0  0  0  0  0  0  0  0  0  0  0  0
  -21.2488  -17.6917   17.7089 C   0  0  0  0  0  0  0  0  0  1  0  0
  -29.2506  -16.1684   20.8391 C   0  0  1  0  0  0  0  0  0  0  0  0
  -31.0108  -18.0601   18.0655 C   0  0  2  0  0  0  0  0  0  0  0  0
  -29.8385  -16.1382   22.2782 C   0  0  0  0  0  0  0  0  0  0  0  0
  -22.1771  -20.5378   16.1423 N   0  0  0  0  0  0  0  0  0  0  0  0
  -26.7485  -28.8034   20.9798 N   0  0  0  0  0  0  0  0  0  0  0  0
  -22.6992  -20.3806   18.4896 N   0  0  0  0  0  0  0  0  0  0  0  0
  -26.2319  -27.7003   20.4120 N   0  0  0  0  0  0  0  0  0  0  0  0
  -27.4388  -14.6811   20.0459 N   0  0  0  0  0  0  0  0  0  0  0  0
  -28.6442  -24.8781   19.5040 N   0  0  0  0  0  0  0  0  0  0  0  0
  -24.3892  -26.9120   19.1496 N   0  0  0  0  0  0  0  0  0  0  0  0
  -23.4808  -31.3029   19.6885 N   0  0  0  0  0  0  0  0  0  0  0  0
  -25.7993  -11.5690   21.0067 N   0  0  0  0  0  0  0  0  0  0  0  0
  -30.1782  -16.6571   19.8247 N   0  0  0  0  0  0  0  0  0  0  0  0
  -27.8489  -23.9699   17.4702 N   0  0  0  0  0  0  0  0  0  0  0  0
  -30.4603  -18.6038   16.7918 N   0  3  0  0  0  0  0  0  0  0  0  0
  -22.7130  -29.3398   18.7855 O   0  0  0  0  0  0  0  0  0  0  0  0
  -26.2968  -13.5879   22.0550 O   0  0  0  0  0  0  0  0  0  0  0  0
  -29.6166  -13.8879   20.2990 O   0  0  0  0  0  0  0  0  0  0  0  0
  -28.8531  -18.4139   19.0934 O   0  0  0  0  0  0  0  0  0  0  0  0
  -29.2603  -22.7539   18.8067 O   0  0  0  0  0  0  0  0  0  0  0  0
  -26.6268  -35.0067   22.4124 O   0  0  0  0  0  0  0  0  0  0  0  0
  -22.1063  -17.5378   18.8391 O   0  0  0  0  0  0  0  0  0  1  0  0
  -22.3178  -37.6452   24.6204 F   0  0  0  0  0  0  0  0  0  0  0  0
  -26.7243  -35.9599   25.0056 F   0  0  0  0  0  0  0  0  0  0  0  0
  1  2  1  0  0  0  0
  1  5  2  0  0  0  0
  2  6  2  0  0  0  0
  3  8  2  0  0  0  0
  3 16  1  0  0  0  0
  4  9  1  0  0  0  0
  4 16  2  0  0  0  0
  5 18  1  0  0  0  0
  6 20  1  0  0  0  0
  7 10  2  0  0  0  0
  7 19  1  0  0  0  0
  8 23  1  0  0  0  0
  9 23  2  0  0  0  0
 10 24  1  0  0  0  0
 11 12  2  0  0  0  0
 11 25  1  0  0  0  0
 12 26  1  0  0  0  0
 13 21  1  0  0  0  0
 13 24  2  0  0  0  0
 14 26  2  0  0  0  0
 14 27  1  0  0  0  0
 15 22  1  0  0  0  0
 15 63  2  0  0  0  0
 16 28  1  0  0  0  0
 17 28  1  0  0  0  0
 17 30  2  0  0  0  0
 17 32  1  0  0  0  0
 18 20  2  0  0  0  0
 18 37  1  0  0  0  0
 19 21  2  0  0  0  0
 19 38  1  0  0  0  0
 20 46  1  0  0  0  0
 21 39  1  0  0  0  0
 22 29  2  0  0  0  0
 22 55  1  0  0  0  0
 23 80  1  0  0  0  0
 24 81  1  0  0  0  0
 25 27  2  0  0  0  0
 25 80  1  0  0  0  0
 26 82  1  0  0  0  0
 27 83  1  0  0  0  0
 28 64  2  0  0  0  0
 29 49  1  0  0  0  0
 29 65  1  0  0  0  0
 30 66  1  0  0  0  0
 30 69  1  0  0  0  0
 31 56  1  0  0  0  0
 31 63  1  0  0  0  0
 31 65  2  0  0  0  0
 32 70  1  0  0  0  0
 32 75  2  0  0  0  0
 33 47  1  0  0  0  0
 33 71  1  0  0  0  0
 33 76  2  0  0  0  0
 34 60  1  0  0  0  0
 34 67  1  0  0  0  0
 34 77  2  0  0  0  0
 35 61  1  0  0  0  0
 35 72  1  0  0  0  0
 35 78  2  0  0  0  0
 36 68  1  0  0  0  0
 36 73  1  0  0  0  0
 36 79  2  0  0  0  0
 37 40  1  0  0  0  0
 38 47  1  0  0  0  0
 39 67  1  0  0  0  0
 40 42  1  0  0  0  0
 41 43  1  0  0  0  0
 41 44  1  0  0  0  0
 42 46  1  0  0  0  0
 43 48  1  0  0  0  0
 44 68  1  0  0  0  0
 45 48  1  0  0  0  0
 45 68  1  0  0  0  0
 46 71  1  0  0  0  0
 47 67  1  0  0  0  0
 48 66  1  0  0  0  0
 50 61  1  0  0  0  0
 51 62  1  0  0  0  0
 52 62  1  0  0  0  0
 53 62  1  0  0  0  0
 54 74  1  0  0  0  0
 55 57  1  0  0  0  0
 56 59  1  0  0  0  0
 57 58  1  0  0  0  0
 58 73  1  0  0  0  0
 59 81  1  0  0  0  0
 60 62  1  0  0  0  0
 60 72  1  0  0  0  0
 61 74  1  0  0  0  0
 64 66  1  0  0  0  0
M  CHG  1  74   1
M  ISO  4  36 100  59 101  73 100  81 101
M  END
> <Batch ID>
0041

> <Smiles>
CNC(C)C(=O)NC(C(=O)N1Cc2cc([101O:1][101CH2:1]Cc3ncc(CCC[100NH:0][100C:0](=O)N4CCCC(n5nc(-c6ccc(Oc7ccc(F)cc7F)cc6)c(C(N)=O)c5N)C4)c(C)n3)ccc2CC1C(=O)NC1CCCc2ccccc21)C(C)(C)C

> <Shape>
0.270

> <Color>
0.069

> <Negative vol penalty>
0.000

$$$$

  -OEChem-04052317093D

 93102  0     1  0  0  0  0  0999 V2000
  -23.7060  -11.5586   23.8640 C   0  0  0  0  0  0  0  0  0  0  0  0
  -23.4581  -12.9190   24.0171 C   0  0  0  0  0  0  0  0  0  0  0  0
  -29.1525  -17.1019   19.7379 C   0  0  0  0  0  0  0  0  0  0  0  0
  -31.0345  -17.8160   21.0740 C   0  0  0  0  0  0  0  0  0  0  0  0
  -24.4237  -11.1020   22.7593 C   0  0  0  0  0  0  0  0  0  0  0  0
  -23.9288  -13.8237   23.0661 C   0  0  0  0  0  0  0  0  0  0  0  0
  -21.1958  -18.9862   21.2263 C   0  0  0  0  0  0  0  0  0  0  0  0
  -24.8325  -27.9912   21.0732 C   0  0  0  0  0  0  0  0  0  0  0  0
  -29.7972  -15.8931   19.4758 C   0  0  0  0  0  0  0  0  0  0  0  0
  -31.6792  -16.6072   20.8120 C   0  0  0  0  0  0  0  0  0  0  0  0
  -21.3790  -20.3221   21.5806 C   0  0  0  0  0  0  0  0  0  0  0  0
  -30.3474  -12.9655   21.0755 C   0  0  0  0  0  0  0  0  0  0  0  0
  -29.5972  -11.7944   21.1817 C   0  0  0  0  0  0  0  0  0  0  0  0
  -25.7513  -29.0233   21.2284 C   0  0  0  0  0  0  0  0  0  0  0  0
  -22.8254  -20.6231   19.6736 C   0  0  0  0  0  0  0  0  0  0  0  0
  -30.0416  -11.2992   18.8591 C   0  0  0  0  0  0  0  0  0  0  0  0
  -29.7712  -18.0634   20.5369 C   0  0  0  0  0  0  0  0  0  0  0  0
  -28.2376  -19.5988   21.8780 C   0  0  0  0  0  0  0  0  0  0  0  0
  -24.8951  -12.0006   21.7893 C   0  0  0  0  0  0  0  0  0  0  0  0
  -21.8358  -18.4550   20.0973 C   0  0  0  0  0  0  0  0  0  0  0  0
  -24.6547  -13.3788   21.9481 C   0  0  0  0  0  0  0  0  0  0  0  0
  -22.6466  -19.2808   19.3057 C   0  0  0  0  0  0  0  0  0  0  0  0
  -24.6168  -27.4435   19.8136 C   0  0  0  0  0  0  0  0  0  0  0  0
  -31.0605  -15.6457   20.0128 C   0  0  0  0  0  0  0  0  0  0  0  0
  -22.1962  -21.1401   20.8058 C   0  0  0  0  0  0  0  0  0  0  0  0
  -30.9446  -13.3035   19.8611 C   0  0  0  0  0  0  0  0  0  0  0  0
  -29.4443  -10.9612   20.0735 C   0  0  0  0  0  0  0  0  0  0  0  0
  -30.7917  -12.4703   18.7529 C   0  0  0  0  0  0  0  0  0  0  0  0
  -29.1059  -19.3126   20.8075 C   0  0  0  0  0  0  0  0  0  0  0  0
  -26.4232  -29.4683   20.1013 C   0  0  0  0  0  0  0  0  0  0  0  0
  -25.3393  -27.9595   18.7498 C   0  0  0  0  0  0  0  0  0  0  0  0
  -21.8657  -25.5222   22.6571 C   0  0  0  0  0  0  0  0  0  0  0  0
  -22.8843  -25.2432   21.7767 C   0  0  0  0  0  0  0  0  0  0  0  0
  -27.8771  -20.9102   21.6864 C   0  0  0  0  0  0  0  0  0  0  0  0
  -21.7111  -26.9909   21.1243 C   0  0  0  0  0  0  0  0  0  0  0  0
  -27.7964  -18.7548   22.9497 C   0  0  0  0  0  0  0  0  0  0  0  0
  -23.9719  -16.1532   19.6051 C   0  0  0  0  0  0  0  0  0  0  0  0
  -23.3772  -16.8049   16.4836 C   0  0  0  0  0  0  0  0  0  0  0  0
  -22.2990  -19.0455   14.1461 C   0  0  0  0  0  0  0  0  0  0  0  0
  -30.6049  -25.3817   18.9622 C   0  0  0  0  0  0  0  0  0  0  0  0
  -25.7070  -11.4646   20.6368 C   0  0  0  0  0  0  0  0  0  0  0  0
  -21.6066  -17.0188   19.7135 C   0  0  0  0  0  0  0  0  0  0  0  0
  -23.3400  -18.7643   18.0725 C   0  0  0  0  0  0  0  0  0  0  0  0
  -25.8481  -12.4510   19.4803 C   0  0  0  0  0  0  0  0  0  0  0  0
  -27.2780  -24.1621   18.2260 C   0  0  0  0  0  0  0  0  0  0  0  0
  -26.2197  -13.8354   20.0018 C   0  0  0  0  0  0  0  0  0  0  0  0
  -27.2952  -22.7966   18.9154 C   0  0  0  0  0  0  0  0  0  0  0  0
  -28.6296  -24.4787   17.5927 C   0  0  0  0  0  0  0  0  0  0  0  0
  -29.8008  -23.0522   19.2258 C   0  0  0  0  0  0  0  0  0  0  0  0
  -25.1275  -14.3887   20.9251 C   0  0  1  0  0  0  0  0  0  0  0  0
  -22.7167  -16.4507   18.8347 C   0  0  1  0  0  0  0  0  0  0  0  0
  -28.4696  -22.6834   19.9054 C   0  0  2  0  0  0  0  0  0  0  0  0
  -25.1511  -27.4080   17.3745 C   0  0  0  0  0  0  0  0  0  0  0  0
  -21.5112  -24.8174   23.8992 C   0  0  0  0  0  0  0  0  0  0  0  0
  -21.3002  -28.1344   20.2836 C   0  0  0  0  0  0  0  0  0  0  0  0
  -21.9629  -19.3038   11.6727 C   0  0  0  0  0  0  0  0  0  0  0  0
  -26.3848  -17.1623   16.1147 C   0  0  0  0  0  0  0  0  0  0  0  0
  -25.9109  -18.3190   13.9455 C   0  0  0  0  0  0  0  0  0  0  0  0
  -25.2445  -15.9355   14.2575 C   0  0  0  0  0  0  0  0  0  0  0  0
  -19.3889  -19.4765   14.4693 C   0  0  0  0  0  0  0  0  0  0  0  0
  -23.6227  -26.3273   19.6391 C   0  0  0  0  0  0  0  0  0  0  0  0
  -27.4176  -30.5734   20.2318 C   0  0  0  0  0  0  0  0  0  0  0  0
  -23.9465  -24.1708   21.7729 C   0  0  0  0  0  0  0  0  0  0  0  0
  -28.8324  -30.0502   20.5207 C   0  0  0  0  0  0  0  0  0  0  0  0
  -29.3510  -29.1619   19.3879 C   0  0  0  0  0  0  0  0  0  0  0  0
  -30.7458  -28.6149   19.7053 C   0  0  0  0  0  0  0  0  0  0  0  0
  -31.2980  -27.7348   18.5888 C   0  0  0  0  0  0  0  0  0  0  0  0
  -23.6259  -23.0406   20.8009 C   0  0  0  0  0  0  0  0  0  1  0  0
  -23.9576  -17.7498   15.4593 C   0  0  1  0  0  0  0  0  0  0  0  0
  -21.3215  -18.9065   12.9931 C   0  0  2  0  0  0  0  0  0  0  0  0
  -25.3631  -17.3012   14.9685 C   0  0  0  0  0  0  0  0  0  0  0  0
  -29.2861  -20.3580   19.9960 N   0  0  0  0  0  0  0  0  0  0  0  0
  -26.2402  -28.9612   18.8616 N   0  0  0  0  0  0  0  0  0  0  0  0
  -21.1389  -26.6111   22.2451 N   0  0  0  0  0  0  0  0  0  0  0  0
  -22.7723  -26.1921   20.7999 N   0  0  0  0  0  0  0  0  0  0  0  0
  -28.5259  -21.3140   20.5567 N   0  0  0  0  0  0  0  0  0  0  0  0
  -23.0896  -17.3516   17.7423 N   0  0  0  0  0  0  0  0  0  0  0  0
  -29.7019  -24.3712   18.5921 N   0  0  0  0  0  0  0  0  0  0  0  0
  -27.0715  -21.7459   22.3757 N   0  0  0  0  0  0  0  0  0  0  0  0
  -28.2637  -17.4342   22.9959 N   0  0  0  0  0  0  0  0  0  0  0  0
  -24.0113  -14.8829   20.1477 N   0  0  0  0  0  0  0  0  0  0  0  0
  -22.9625  -17.8634   14.3986 N   0  0  0  0  0  0  0  0  0  0  0  0
  -30.4480  -26.5986   18.3102 N   0  0  0  0  0  0  0  0  0  0  0  0
  -20.1302  -19.7736   13.2166 N   0  3  0  0  0  0  0  0  0  0  0  0
  -26.9981  -19.1547   23.8308 O   0  0  0  0  0  0  0  0  0  0  0  0
  -24.8411  -17.0119   19.6990 O   0  0  0  0  0  0  0  0  0  0  0  0
  -23.1793  -15.6268   16.1760 O   0  0  0  0  0  0  0  0  0  0  0  0
  -22.4609  -20.0985   14.7589 O   0  0  0  0  0  0  0  0  0  0  0  0
  -31.4832  -25.2135   19.8152 O   0  0  0  0  0  0  0  0  0  0  0  0
  -31.6898  -14.4661   19.7575 O   0  0  0  0  0  0  0  0  0  0  0  0
  -22.3773  -22.4442   21.1497 O   0  0  0  0  0  0  0  0  0  1  0  0
  -28.7251   -9.8359   20.1760 F   0  0  0  0  0  0  0  0  0  0  0  0
  -31.3641  -12.7892   17.5840 F   0  0  0  0  0  0  0  0  0  0  0  0
  1  2  1  0  0  0  0
  1  5  2  0  0  0  0
  2  6  2  0  0  0  0
  3  9  2  0  0  0  0
  3 17  1  0  0  0  0
  4 10  1  0  0  0  0
  4 17  2  0  0  0  0
  5 19  1  0  0  0  0
  6 21  1  0  0  0  0
  7 11  2  0  0  0  0
  7 20  1  0  0  0  0
  8 14  2  0  0  0  0
  8 23  1  0  0  0  0
  9 24  1  0  0  0  0
 10 24  2  0  0  0  0
 11 25  1  0  0  0  0
 12 13  2  0  0  0  0
 12 26  1  0  0  0  0
 13 27  1  0  0  0  0
 14 30  1  0  0  0  0
 15 22  1  0  0  0  0
 15 25  2  0  0  0  0
 16 27  2  0  0  0  0
 16 28  1  0  0  0  0
 17 29  1  0  0  0  0
 18 29  1  0  0  0  0
 18 34  2  0  0  0  0
 18 36  1  0  0  0  0
 19 21  2  0  0  0  0
 19 41  1  0  0  0  0
 20 22  2  0  0  0  0
 20 42  1  0  0  0  0
 21 50  1  0  0  0  0
 22 43  1  0  0  0  0
 23 31  2  0  0  0  0
 23 61  1  0  0  0  0
 24 90  1  0  0  0  0
 25 91  1  0  0  0  0
 26 28  2  0  0  0  0
 26 90  1  0  0  0  0
 27 92  1  0  0  0  0
 28 93  1  0  0  0  0
 29 72  2  0  0  0  0
 30 62  1  0  0  0  0
 30 73  2  0  0  0  0
 31 53  1  0  0  0  0
 31 73  1  0  0  0  0
 32 33  2  0  0  0  0
 32 54  1  0  0  0  0
 32 74  1  0  0  0  0
 33 63  1  0  0  0  0
 33 75  1  0  0  0  0
 34 76  1  0  0  0  0
 34 79  1  0  0  0  0
 35 55  1  0  0  0  0
 35 74  2  0  0  0  0
 35 75  1  0  0  0  0
 36 80  1  0  0  0  0
 36 85  2  0  0  0  0
 37 51  1  0  0  0  0
 37 81  1  0  0  0  0
 37 86  2  0  0  0  0
 38 69  1  0  0  0  0
 38 77  1  0  0  0  0
 38 87  2  0  0  0  0
 39 70  1  0  0  0  0
 39 82  1  0  0  0  0
 39 88  2  0  0  0  0
 40 78  1  0  0  0  0
 40 83  1  0  0  0  0
 40 89  2  0  0  0  0
 41 44  1  0  0  0  0
 42 51  1  0  0  0  0
 43 77  1  0  0  0  0
 44 46  1  0  0  0  0
 45 47  1  0  0  0  0
 45 48  1  0  0  0  0
 46 50  1  0  0  0  0
 47 52  1  0  0  0  0
 48 78  1  0  0  0  0
 49 52  1  0  0  0  0
 49 78  1  0  0  0  0
 50 81  1  0  0  0  0
 51 77  1  0  0  0  0
 52 76  1  0  0  0  0
 56 70  1  0  0  0  0
 57 71  1  0  0  0  0
 58 71  1  0  0  0  0
 59 71  1  0  0  0  0
 60 84  1  0  0  0  0
 61 75  1  0  0  0  0
 62 64  1  0  0  0  0
 63 68  1  0  0  0  0
 64 65  1  0  0  0  0
 65 66  1  0  0  0  0
 66 67  1  0  0  0  0
 67 83  1  0  0  0  0
 68 91  1  0  0  0  0
 69 71  1  0  0  0  0
 69 82  1  0  0  0  0
 70 84  1  0  0  0  0
 72 76  1  0  0  0  0
M  CHG  1  84   1
M  ISO  4  40 100  68 101  83 100  91 101
M  END
> <Batch ID>
0041

> <Smiles>
CNC(C)C(=O)NC(C(=O)N1Cc2cc([101O:1][101CH2:1]Cc3c(C)nc(C)n3Cc3ccc(CCCCC[100NH:0][100C:0](=O)N4CCCC(n5nc(-c6ccc(Oc7ccc(F)cc7F)cc6)c(C(N)=O)c5N)C4)nc3C)ccc2CC1C(=O)NC1CCCc2ccccc21)C(C)(C)C

> <Shape>
0.215

> <Color>
0.078

> <Negative vol penalty>
0.000

$$$$

  -OEChem-04052317093D

 83 91  0     1  0  0  0  0  0999 V2000
  -17.1417  -27.1587   21.8938 C   0  0  0  0  0  0  0  0  0  0  0  0
  -18.3211  -27.1113   21.1576 C   0  0  0  0  0  0  0  0  0  0  0  0
  -28.4165  -14.3046   19.9032 C   0  0  0  0  0  0  0  0  0  0  0  0
  -26.7586  -15.0176   21.5095 C   0  0  0  0  0  0  0  0  0  0  0  0
  -17.1203  -27.7962   23.1336 C   0  0  0  0  0  0  0  0  0  0  0  0
  -19.4797  -27.7023   21.6603 C   0  0  0  0  0  0  0  0  0  0  0  0
  -25.2326  -25.7344   20.9270 C   0  0  0  0  0  0  0  0  0  0  0  0
  -27.7866  -13.0641   19.8035 C   0  0  0  0  0  0  0  0  0  0  0  0
  -26.1286  -13.7771   21.4098 C   0  0  0  0  0  0  0  0  0  0  0  0
  -26.2481  -26.1112   20.0492 C   0  0  0  0  0  0  0  0  0  0  0  0
  -24.0319  -12.2151   19.2686 C   0  0  0  0  0  0  0  0  0  0  0  0
  -22.6419  -12.2034   19.1527 C   0  0  0  0  0  0  0  0  0  0  0  0
  -27.1568  -27.5744   21.7381 C   0  0  0  0  0  0  0  0  0  0  0  0
  -22.4829  -10.9154   21.1906 C   0  0  0  0  0  0  0  0  0  0  0  0
  -30.1731  -25.2562   17.8277 C   0  0  0  0  0  0  0  0  0  0  0  0
  -27.9026  -15.2813   20.7562 C   0  0  0  0  0  0  0  0  0  0  0  0
  -28.2977  -17.7110   20.0868 C   0  0  0  0  0  0  0  0  0  0  0  0
  -18.2816  -28.3869   23.6562 C   0  0  0  0  0  0  0  0  0  0  0  0
  -25.1651  -26.2840   22.2154 C   0  0  0  0  0  0  0  0  0  0  0  0
  -19.4735  -28.3494   22.9077 C   0  0  0  0  0  0  0  0  0  0  0  0
  -26.1409  -27.2011   22.6312 C   0  0  0  0  0  0  0  0  0  0  0  0
  -30.6100  -25.8953   18.9622 C   0  0  0  0  0  0  0  0  0  0  0  0
  -26.6426  -12.8004   20.5568 C   0  0  0  0  0  0  0  0  0  0  0  0
  -27.2087  -27.0335   20.4537 C   0  0  0  0  0  0  0  0  0  0  0  0
  -24.6474  -11.5769   20.3455 C   0  0  0  0  0  0  0  0  0  0  0  0
  -21.8674  -11.5535   20.1137 C   0  0  0  0  0  0  0  0  0  0  0  0
  -23.8729  -10.9271   21.3065 C   0  0  0  0  0  0  0  0  0  0  0  0
  -28.5533  -16.5627   20.8600 C   0  0  0  0  0  0  0  0  0  0  0  0
  -31.0758  -24.8586   19.7929 C   0  0  0  0  0  0  0  0  0  0  0  0
  -29.1716  -18.6531   20.5719 C   0  0  0  0  0  0  0  0  0  0  0  0
  -27.3546  -17.9085   19.0251 C   0  0  0  0  0  0  0  0  0  0  0  0
  -23.0506  -28.0614   23.7879 C   0  0  0  0  0  0  0  0  0  0  0  0
  -25.0588  -27.5486   26.2832 C   0  0  0  0  0  0  0  0  0  0  0  0
  -28.2077  -26.7922   27.3597 C   0  0  0  0  0  0  0  0  0  0  0  0
  -31.6502  -21.2487   24.8456 C   0  0  0  0  0  0  0  0  0  0  0  0
  -18.1980  -29.1057   24.9794 C   0  0  0  0  0  0  0  0  0  0  0  0
  -24.0788  -25.8470   23.1595 C   0  0  0  0  0  0  0  0  0  0  0  0
  -26.1248  -27.8050   24.0109 C   0  0  0  0  0  0  0  0  0  0  0  0
  -19.5606  -29.3812   25.6101 C   0  0  0  0  0  0  0  0  0  0  0  0
  -33.0913  -18.1882   23.7352 C   0  0  0  0  0  0  0  0  0  0  0  0
  -20.5229  -29.9524   24.5735 C   0  0  0  0  0  0  0  0  0  0  0  0
  -32.0159  -17.5847   22.8300 C   0  0  0  0  0  0  0  0  0  0  0  0
  -32.4796  -18.9161   24.9303 C   0  0  0  0  0  0  0  0  0  0  0  0
  -30.3977  -19.3337   23.6793 C   0  0  0  0  0  0  0  0  0  0  0  0
  -20.7570  -28.9573   23.4305 C   0  0  1  0  0  0  0  0  0  0  0  0
  -23.8100  -26.8579   24.2700 C   0  0  1  0  0  0  0  0  0  0  0  0
  -30.9643  -18.6371   22.4302 C   0  0  2  0  0  0  0  0  0  0  0  0
  -30.0440  -26.2303   28.9752 C   0  0  0  0  0  0  0  0  0  0  0  0
  -25.1526  -30.5741   26.6675 C   0  0  0  0  0  0  0  0  0  0  0  0
  -27.1841  -30.2596   28.0966 C   0  0  0  0  0  0  0  0  0  0  0  0
  -25.0072  -29.2571   28.7885 C   0  0  0  0  0  0  0  0  0  0  0  0
  -30.0960  -22.8525   17.1238 C   0  0  0  0  0  0  0  0  0  0  0  0
  -27.6345  -23.8941   27.1829 C   0  0  0  0  0  0  0  0  0  0  0  0
  -30.5892  -27.3782   19.2429 C   0  0  0  0  0  0  0  0  0  0  0  0
  -31.6576  -24.9744   21.1416 C   0  0  0  0  0  0  0  0  0  0  0  0
  -30.8821  -24.1622   22.2008 C   0  0  0  0  0  0  0  0  0  0  0  0
  -31.4718  -24.3242   23.6050 C   0  0  0  0  0  0  0  0  0  0  0  0
  -30.7022  -23.5347   24.6589 C   0  0  0  0  0  0  0  0  0  0  0  0
  -29.4511  -27.7757   20.1767 C   0  0  0  0  0  0  0  0  0  1  0  0
  -26.2710  -28.2536   26.8423 C   0  0  1  0  0  0  0  0  0  0  0  0
  -28.7076  -25.7980   28.3922 C   0  0  2  0  0  0  0  0  0  0  0  0
  -25.9032  -29.5764   27.5720 C   0  0  0  0  0  0  0  0  0  0  0  0
  -29.5144  -16.7554   21.7673 N   0  0  0  0  0  0  0  0  0  0  0  0
  -30.9468  -23.6525   19.2337 N   0  0  0  0  0  0  0  0  0  0  0  0
  -30.3949  -23.9273   18.0396 N   0  0  0  0  0  0  0  0  0  0  0  0
  -29.8705  -18.0357   21.5672 N   0  0  0  0  0  0  0  0  0  0  0  0
  -25.0390  -27.3508   24.8953 N   0  0  0  0  0  0  0  0  0  0  0  0
  -31.4920  -19.9010   24.4827 N   0  0  0  0  0  0  0  0  0  0  0  0
  -29.4028  -19.9410   20.2399 N   0  0  0  0  0  0  0  0  0  0  0  0
  -26.5335  -16.8355   18.6527 N   0  0  0  0  0  0  0  0  0  0  0  0
  -21.6772  -27.9197   23.8443 N   0  0  0  0  0  0  0  0  0  0  0  0
  -26.9587  -27.2791   27.6824 N   0  0  0  0  0  0  0  0  0  0  0  0
  -30.6732  -22.1172   24.3745 N   0  0  0  0  0  0  0  0  0  0  0  0
  -28.8773  -24.4519   27.7754 N   0  3  0  0  0  0  0  0  0  0  0  0
  -27.2548  -18.9991   18.4134 O   0  0  0  0  0  0  0  0  0  0  0  0
  -23.6651  -29.0463   23.3954 O   0  0  0  0  0  0  0  0  0  0  0  0
  -24.1659  -27.1805   27.0505 O   0  0  0  0  0  0  0  0  0  0  0  0
  -28.8616  -27.1084   26.3683 O   0  0  0  0  0  0  0  0  0  0  0  0
  -32.5952  -21.6492   25.5337 O   0  0  0  0  0  0  0  0  0  0  0  0
  -26.0274  -11.5901   20.4596 O   0  0  0  0  0  0  0  0  0  0  0  0
  -28.2007  -27.4035   19.5987 O   0  0  0  0  0  0  0  0  0  1  0  0
  -20.5326  -11.5437   20.0031 F   0  0  0  0  0  0  0  0  0  0  0  0
  -24.4584  -10.3133   22.3439 F   0  0  0  0  0  0  0  0  0  0  0  0
  1  2  1  0  0  0  0
  1  5  2  0  0  0  0
  2  6  2  0  0  0  0
  3  8  2  0  0  0  0
  3 16  1  0  0  0  0
  4  9  1  0  0  0  0
  4 16  2  0  0  0  0
  5 18  1  0  0  0  0
  6 20  1  0  0  0  0
  7 10  2  0  0  0  0
  7 19  1  0  0  0  0
  8 23  1  0  0  0  0
  9 23  2  0  0  0  0
 10 24  1  0  0  0  0
 11 12  2  0  0  0  0
 11 25  1  0  0  0  0
 12 26  1  0  0  0  0
 13 21  1  0  0  0  0
 13 24  2  0  0  0  0
 14 26  2  0  0  0  0
 14 27  1  0  0  0  0
 15 22  2  0  0  0  0
 15 65  1  0  0  0  0
 16 28  1  0  0  0  0
 17 28  1  0  0  0  0
 17 30  2  0  0  0  0
 17 31  1  0  0  0  0
 18 20  2  0  0  0  0
 18 36  1  0  0  0  0
 19 21  2  0  0  0  0
 19 37  1  0  0  0  0
 20 45  1  0  0  0  0
 21 38  1  0  0  0  0
 22 29  1  0  0  0  0
 22 54  1  0  0  0  0
 23 80  1  0  0  0  0
 24 81  1  0  0  0  0
 25 27  2  0  0  0  0
 25 80  1  0  0  0  0
 26 82  1  0  0  0  0
 27 83  1  0  0  0  0
 28 63  2  0  0  0  0
 29 55  1  0  0  0  0
 29 64  2  0  0  0  0
 30 66  1  0  0  0  0
 30 69  1  0  0  0  0
 31 70  1  0  0  0  0
 31 75  2  0  0  0  0
 32 46  1  0  0  0  0
 32 71  1  0  0  0  0
 32 76  2  0  0  0  0
 33 60  1  0  0  0  0
 33 67  1  0  0  0  0
 33 77  2  0  0  0  0
 34 61  1  0  0  0  0
 34 72  1  0  0  0  0
 34 78  2  0  0  0  0
 35 68  1  0  0  0  0
 35 73  1  0  0  0  0
 35 79  2  0  0  0  0
 36 39  1  0  0  0  0
 37 46  1  0  0  0  0
 38 67  1  0  0  0  0
 39 41  1  0  0  0  0
 40 42  1  0  0  0  0
 40 43  1  0  0  0  0
 41 45  1  0  0  0  0
 42 47  1  0  0  0  0
 43 68  1  0  0  0  0
 44 47  1  0  0  0  0
 44 68  1  0  0  0  0
 45 71  1  0  0  0  0
 46 67  1  0  0  0  0
 47 66  1  0  0  0  0
 48 61  1  0  0  0  0
 49 62  1  0  0  0  0
 50 62  1  0  0  0  0
 51 62  1  0  0  0  0
 52 65  1  0  0  0  0
 53 74  1  0  0  0  0
 54 59  1  0  0  0  0
 55 56  1  0  0  0  0
 56 57  1  0  0  0  0
 57 58  1  0  0  0  0
 58 73  1  0  0  0  0
 59 81  1  0  0  0  0
 60 62  1  0  0  0  0
 60 72  1  0  0  0  0
 61 74  1  0  0  0  0
 63 66  1  0  0  0  0
 64 65  1  0  0  0  0
M  CHG  1  74   1
M  ISO  4  35 100  59 101  73 100  81 101
M  END
> <Batch ID>
0041

> <Smiles>
CNC(C)C(=O)NC(C(=O)N1Cc2cc([101O:1][101CH2:1]Cc3cn(C)nc3CCCC[100NH:0][100C:0](=O)N3CCCC(n4nc(-c5ccc(Oc6ccc(F)cc6F)cc5)c(C(N)=O)c4N)C3)ccc2CC1C(=O)NC1CCCc2ccccc21)C(C)(C)C

> <Shape>
0.234

> <Color>
0.070

> <Negative vol penalty>
0.000

$$$$

  -OEChem-04052317093D

 84 92  0     1  0  0  0  0  0999 V2000
  -27.7379  -10.1732   21.1174 C   0  0  0  0  0  0  0  0  0  0  0  0
  -28.3775  -11.3534   20.7523 C   0  0  0  0  0  0  0  0  0  0  0  0
  -19.6581  -28.2364   23.6253 C   0  0  0  0  0  0  0  0  0  0  0  0
  -20.1410  -26.2351   22.3609 C   0  0  0  0  0  0  0  0  0  0  0  0
  -26.3451  -10.1157   21.1432 C   0  0  0  0  0  0  0  0  0  0  0  0
  -27.6246  -12.4766   20.4118 C   0  0  0  0  0  0  0  0  0  0  0  0
  -29.0448  -18.3319   21.5093 C   0  0  0  0  0  0  0  0  0  0  0  0
  -18.3036  -27.9038   23.6346 C   0  0  0  0  0  0  0  0  0  0  0  0
  -18.7864  -25.9024   22.3702 C   0  0  0  0  0  0  0  0  0  0  0  0
  -29.6136  -19.3244   20.7123 C   0  0  0  0  0  0  0  0  0  0  0  0
  -15.5030  -24.3412   22.3712 C   0  0  0  0  0  0  0  0  0  0  0  0
  -15.1607  -23.0205   22.6613 C   0  0  0  0  0  0  0  0  0  0  0  0
  -27.4106  -20.1486   20.1769 C   0  0  0  0  0  0  0  0  0  0  0  0
  -29.5329  -24.2182   18.2737 C   0  0  0  0  0  0  0  0  0  0  0  0
  -16.2277  -23.2183   24.8199 C   0  0  0  0  0  0  0  0  0  0  0  0
  -31.5644  -24.4766   19.4831 C   0  0  0  0  0  0  0  0  0  0  0  0
  -20.5769  -27.4021   22.9884 C   0  0  0  0  0  0  0  0  0  0  0  0
  -22.9484  -27.3795   23.9281 C   0  0  0  0  0  0  0  0  0  0  0  0
  -25.5748  -11.2416   20.8121 C   0  0  0  0  0  0  0  0  0  0  0  0
  -27.6519  -18.2334   21.6376 C   0  0  0  0  0  0  0  0  0  0  0  0
  -26.2202  -12.4337   20.4319 C   0  0  0  0  0  0  0  0  0  0  0  0
  -26.8267  -19.1555   20.9782 C   0  0  0  0  0  0  0  0  0  0  0  0
  -30.7617  -23.6983   18.6647 C   0  0  0  0  0  0  0  0  0  0  0  0
  -29.1497  -25.4827   18.7069 C   0  0  0  0  0  0  0  0  0  0  0  0
  -17.8677  -26.7368   23.0070 C   0  0  0  0  0  0  0  0  0  0  0  0
  -28.7964  -20.2311   20.0436 C   0  0  0  0  0  0  0  0  0  0  0  0
  -16.2077  -25.1005   23.3053 C   0  0  0  0  0  0  0  0  0  0  0  0
  -15.5230  -22.4591   23.8857 C   0  0  0  0  0  0  0  0  0  0  0  0
  -16.5700  -24.5390   24.5297 C   0  0  0  0  0  0  0  0  0  0  0  0
  -21.9762  -27.7455   22.9780 C   0  0  0  0  0  0  0  0  0  0  0  0
  -30.0245  -26.1810   19.5235 C   0  0  0  0  0  0  0  0  0  0  0  0
  -24.1101  -27.9496   23.4678 C   0  0  0  0  0  0  0  0  0  0  0  0
  -22.8134  -26.5944   25.1202 C   0  0  0  0  0  0  0  0  0  0  0  0
  -25.4843  -16.0213   20.9221 C   0  0  0  0  0  0  0  0  0  0  0  0
  -23.4730  -18.0555   22.4516 C   0  0  0  0  0  0  0  0  0  0  0  0
  -22.7964  -21.2423   23.4682 C   0  0  0  0  0  0  0  0  0  0  0  0
  -25.9592  -29.6048   18.0187 C   0  0  0  0  0  0  0  0  0  0  0  0
  -24.0717  -11.1173   20.8088 C   0  0  0  0  0  0  0  0  0  0  0  0
  -27.0550  -17.1736   22.5225 C   0  0  0  0  0  0  0  0  0  0  0  0
  -25.3263  -19.1052   21.0993 C   0  0  0  0  0  0  0  0  0  0  0  0
  -23.3494  -12.4621   20.7961 C   0  0  0  0  0  0  0  0  0  0  0  0
  -25.6988  -31.6672   20.9092 C   0  0  0  0  0  0  0  0  0  0  0  0
  -23.9678  -13.3904   19.7556 C   0  0  0  0  0  0  0  0  0  0  0  0
  -24.8030  -30.8630   21.8529 C   0  0  0  0  0  0  0  0  0  0  0  0
  -25.2727  -31.5052   19.4518 C   0  0  0  0  0  0  0  0  0  0  0  0
  -24.2727  -29.3045   19.9323 C   0  0  0  0  0  0  0  0  0  0  0  0
  -25.4383  -13.6806   20.0797 C   0  0  1  0  0  0  0  0  0  0  0  0
  -25.6066  -16.8479   22.1709 C   0  0  1  0  0  0  0  0  0  0  0  0
  -24.6977  -29.3918   21.4081 C   0  0  2  0  0  0  0  0  0  0  0  0
  -29.2141  -27.5276   21.4771 C   0  0  0  0  0  0  0  0  0  0  0  0
  -21.0586  -22.6014   24.6641 C   0  0  0  0  0  0  0  0  0  0  0  0
  -21.7049  -17.9774   19.9661 C   0  0  0  0  0  0  0  0  0  0  0  0
  -20.5391  -20.0234   20.8162 C   0  0  0  0  0  0  0  0  0  0  0  0
  -20.4604  -17.9069   22.1342 C   0  0  0  0  0  0  0  0  0  0  0  0
  -24.7009  -22.0182   25.5965 C   0  0  0  0  0  0  0  0  0  0  0  0
  -31.2071  -22.3287   18.2127 C   0  0  0  0  0  0  0  0  0  0  0  0
  -27.8352  -26.0465   18.2902 C   0  0  0  0  0  0  0  0  0  0  0  0
  -29.6654  -27.5434   20.0199 C   0  0  0  0  0  0  0  0  0  0  0  0
  -27.9135  -27.0661   17.1358 C   0  0  0  0  0  0  0  0  0  0  0  0
  -26.5585  -27.6031   16.6796 C   0  0  0  0  0  0  0  0  0  0  0  0
  -30.7729  -21.2303   19.1771 C   0  0  0  0  0  0  0  0  0  1  0  0
  -22.6152  -19.2257   22.0347 C   0  0  1  0  0  0  0  0  0  0  0  0
  -22.3419  -21.7978   24.8058 C   0  0  2  0  0  0  0  0  0  0  0  0
  -21.3581  -18.7834   21.2338 C   0  0  0  0  0  0  0  0  0  0  0  0
  -31.2263  -25.7089   19.9241 N   0  0  0  0  0  0  0  0  0  0  0  0
  -22.4767  -28.4905   21.9889 N   0  0  0  0  0  0  0  0  0  0  0  0
  -23.7760  -28.5974   22.3150 N   0  0  0  0  0  0  0  0  0  0  0  0
  -24.7901  -18.0469   21.9711 N   0  0  0  0  0  0  0  0  0  0  0  0
  -25.1937  -30.0870   19.0932 N   0  0  0  0  0  0  0  0  0  0  0  0
  -25.3745  -27.9550   23.9407 N   0  0  0  0  0  0  0  0  0  0  0  0
  -21.5488  -26.0849   25.4451 N   0  0  0  0  0  0  0  0  0  0  0  0
  -25.5383  -14.6582   21.1421 N   0  0  0  0  0  0  0  0  0  0  0  0
  -22.3159  -19.9676   23.2547 N   0  0  0  0  0  0  0  0  0  0  0  0
  -25.8304  -28.2477   17.7497 N   0  0  0  0  0  0  0  0  0  0  0  0
  -23.3913  -22.6857   25.3815 N   0  3  0  0  0  0  0  0  0  0  0  0
  -23.7822  -26.3655   25.8836 O   0  0  0  0  0  0  0  0  0  0  0  0
  -25.3493  -16.5790   19.8393 O   0  0  0  0  0  0  0  0  0  0  0  0
  -22.9942  -17.1849   23.1827 O   0  0  0  0  0  0  0  0  0  0  0  0
  -23.5036  -21.8772   22.6889 O   0  0  0  0  0  0  0  0  0  0  0  0
  -26.7063  -30.3289   17.3521 O   0  0  0  0  0  0  0  0  0  0  0  0
  -16.5460  -26.4118   23.0161 O   0  0  0  0  0  0  0  0  0  0  0  0
  -29.3489  -21.2005   19.2645 O   0  0  0  0  0  0  0  0  0  1  0  0
  -15.1930  -21.1913   24.1648 F   0  0  0  0  0  0  0  0  0  0  0  0
  -17.2459  -25.2638   25.4317 F   0  0  0  0  0  0  0  0  0  0  0  0
  1  2  1  0  0  0  0
  1  5  2  0  0  0  0
  2  6  2  0  0  0  0
  3  8  2  0  0  0  0
  3 17  1  0  0  0  0
  4  9  1  0  0  0  0
  4 17  2  0  0  0  0
  5 19  1  0  0  0  0
  6 21  1  0  0  0  0
  7 10  2  0  0  0  0
  7 20  1  0  0  0  0
  8 25  1  0  0  0  0
  9 25  2  0  0  0  0
 10 26  1  0  0  0  0
 11 12  2  0  0  0  0
 11 27  1  0  0  0  0
 12 28  1  0  0  0  0
 13 22  1  0  0  0  0
 13 26  2  0  0  0  0
 14 23  2  0  0  0  0
 14 24  1  0  0  0  0
 15 28  2  0  0  0  0
 15 29  1  0  0  0  0
 16 23  1  0  0  0  0
 16 65  2  0  0  0  0
 17 30  1  0  0  0  0
 18 30  1  0  0  0  0
 18 32  2  0  0  0  0
 18 33  1  0  0  0  0
 19 21  2  0  0  0  0
 19 38  1  0  0  0  0
 20 22  2  0  0  0  0
 20 39  1  0  0  0  0
 21 47  1  0  0  0  0
 22 40  1  0  0  0  0
 23 56  1  0  0  0  0
 24 31  2  0  0  0  0
 24 57  1  0  0  0  0
 25 81  1  0  0  0  0
 26 82  1  0  0  0  0
 27 29  2  0  0  0  0
 27 81  1  0  0  0  0
 28 83  1  0  0  0  0
 29 84  1  0  0  0  0
 30 66  2  0  0  0  0
 31 58  1  0  0  0  0
 31 65  1  0  0  0  0
 32 67  1  0  0  0  0
 32 70  1  0  0  0  0
 33 71  1  0  0  0  0
 33 76  2  0  0  0  0
 34 48  1  0  0  0  0
 34 72  1  0  0  0  0
 34 77  2  0  0  0  0
 35 62  1  0  0  0  0
 35 68  1  0  0  0  0
 35 78  2  0  0  0  0
 36 63  1  0  0  0  0
 36 73  1  0  0  0  0
 36 79  2  0  0  0  0
 37 69  1  0  0  0  0
 37 74  1  0  0  0  0
 37 80  2  0  0  0  0
 38 41  1  0  0  0  0
 39 48  1  0  0  0  0
 40 68  1  0  0  0  0
 41 43  1  0  0  0  0
 42 44  1  0  0  0  0
 42 45  1  0  0  0  0
 43 47  1  0  0  0  0
 44 49  1  0  0  0  0
 45 69  1  0  0  0  0
 46 49  1  0  0  0  0
 46 69  1  0  0  0  0
 47 72  1  0  0  0  0
 48 68  1  0  0  0  0
 49 67  1  0  0  0  0
 50 58  1  0  0  0  0
 51 63  1  0  0  0  0
 52 64  1  0  0  0  0
 53 64  1  0  0  0  0
 54 64  1  0  0  0  0
 55 75  1  0  0  0  0
 56 61  1  0  0  0  0
 57 59  1  0  0  0  0
 59 60  1  0  0  0  0
 60 74  1  0  0  0  0
 61 82  1  0  0  0  0
 62 64  1  0  0  0  0
 62 73  1  0  0  0  0
 63 75  1  0  0  0  0
 66 67  1  0  0  0  0
M  CHG  1  75   1
M  ISO  4  37 100  61 101  74 100  82 101
M  END
> <Batch ID>
0041

> <Smiles>
CCc1ncc(C[101CH2:1][101O:1]c2ccc3c(c2)CN(C(=O)C(NC(=O)C(C)NC)C(C)(C)C)C(C(=O)NC2CCCc4ccccc42)C3)cc1CCC[100NH:0][100C:0](=O)N1CCCC(n2nc(-c3ccc(Oc4ccc(F)cc4F)cc3)c(C(N)=O)c2N)C1

> <Shape>
0.221

> <Color>
0.066

> <Negative vol penalty>
0.000

$$$$

  -OEChem-04052317093D

 82 90  0     1  0  0  0  0  0999 V2000
  -31.2336  -23.7146   16.4986 C   0  0  0  0  0  0  0  0  0  0  0  0
  -29.8639  -23.9586   16.5033 C   0  0  0  0  0  0  0  0  0  0  0  0
  -26.4015  -13.2298   19.1770 C   0  0  0  0  0  0  0  0  0  0  0  0
  -24.3866  -13.7788   20.3919 C   0  0  0  0  0  0  0  0  0  0  0  0
  -31.9588  -23.7950   17.6867 C   0  0  0  0  0  0  0  0  0  0  0  0
  -29.2185  -24.2821   17.6963 C   0  0  0  0  0  0  0  0  0  0  0  0
  -24.4851  -28.1033   18.4026 C   0  0  0  0  0  0  0  0  0  0  0  0
  -26.4276  -11.9757   19.7870 C   0  0  0  0  0  0  0  0  0  0  0  0
  -24.4127  -12.5246   21.0019 C   0  0  0  0  0  0  0  0  0  0  0  0
  -23.1133  -27.8851   18.5226 C   0  0  0  0  0  0  0  0  0  0  0  0
  -23.5946   -9.3466   20.1948 C   0  0  0  0  0  0  0  0  0  0  0  0
  -22.3961   -8.6365   20.2646 C   0  0  0  0  0  0  0  0  0  0  0  0
  -23.3144  -27.9805   20.9246 C   0  0  0  0  0  0  0  0  0  0  0  0
  -22.5460   -8.6205   22.6759 C   0  0  0  0  0  0  0  0  0  0  0  0
  -22.2803  -22.7593   19.7665 C   0  0  0  0  0  0  0  0  0  0  0  0
  -20.5212  -23.1750   21.0186 C   0  0  0  0  0  0  0  0  0  0  0  0
  -25.3810  -14.1314   19.4795 C   0  0  0  0  0  0  0  0  0  0  0  0
  -24.7190  -15.7723   17.6419 C   0  0  0  0  0  0  0  0  0  0  0  0
  -31.3237  -24.1291   18.8932 C   0  0  0  0  0  0  0  0  0  0  0  0
  -25.2849  -28.2511   19.5449 C   0  0  0  0  0  0  0  0  0  0  0  0
  -29.9357  -24.3657   18.9018 C   0  0  0  0  0  0  0  0  0  0  0  0
  -24.6957  -28.2030   20.8163 C   0  0  0  0  0  0  0  0  0  0  0  0
  -21.6028  -22.3337   20.9248 C   0  0  0  0  0  0  0  0  0  0  0  0
  -25.4332  -11.6231   20.6994 C   0  0  0  0  0  0  0  0  0  0  0  0
  -22.5282  -27.8209   19.7838 C   0  0  0  0  0  0  0  0  0  0  0  0
  -24.2689   -9.6936   21.3656 C   0  0  0  0  0  0  0  0  0  0  0  0
  -21.8718   -8.2734   21.5051 C   0  0  0  0  0  0  0  0  0  0  0  0
  -23.7446   -9.3306   22.6061 C   0  0  0  0  0  0  0  0  0  0  0  0
  -25.3538  -15.4272   18.8502 C   0  0  0  0  0  0  0  0  0  0  0  0
  -24.9868  -17.1101   17.4833 C   0  0  0  0  0  0  0  0  0  0  0  0
  -23.9556  -14.9566   16.7434 C   0  0  0  0  0  0  0  0  0  0  0  0
  -27.7320  -26.6510   20.7922 C   0  0  0  0  0  0  0  0  0  0  0  0
  -27.7734  -29.1229   22.8923 C   0  0  0  0  0  0  0  0  0  0  0  0
  -26.0702  -31.6541   24.4217 C   0  0  0  0  0  0  0  0  0  0  0  0
  -26.2926  -21.4933   21.3476 C   0  0  0  0  0  0  0  0  0  0  0  0
  -32.1411  -24.1576   20.1603 C   0  0  0  0  0  0  0  0  0  0  0  0
  -26.7589  -28.5124   19.3978 C   0  0  0  0  0  0  0  0  0  0  0  0
  -25.5070  -28.3757   22.0734 C   0  0  0  0  0  0  0  0  0  0  0  0
  -31.4476  -24.8733   21.3166 C   0  0  0  0  0  0  0  0  0  0  0  0
  -28.2552  -20.4296   18.5739 C   0  0  0  0  0  0  0  0  0  0  0  0
  -29.9995  -24.4102   21.4395 C   0  0  0  0  0  0  0  0  0  0  0  0
  -27.6769  -19.0581   18.2211 C   0  0  0  0  0  0  0  0  0  0  0  0
  -28.2567  -20.6706   20.0818 C   0  0  0  0  0  0  0  0  0  0  0  0
  -26.3717  -19.1126   20.3873 C   0  0  0  0  0  0  0  0  0  0  0  0
  -29.2041  -24.7436   20.1715 C   0  0  1  0  0  0  0  0  0  0  0  0
  -27.5594  -28.1360   20.6407 C   0  0  1  0  0  0  0  0  0  0  0  0
  -26.2977  -18.8463   18.8741 C   0  0  2  0  0  0  0  0  0  0  0  0
  -26.3603  -33.4800   26.1185 C   0  0  0  0  0  0  0  0  0  0  0  0
  -27.6436  -27.0570   25.1339 C   0  0  0  0  0  0  0  0  0  0  0  0
  -26.9846  -28.8978   26.6978 C   0  0  0  0  0  0  0  0  0  0  0  0
  -29.2044  -28.9637   25.5616 C   0  0  0  0  0  0  0  0  0  0  0  0
  -25.4474  -33.7578   22.4354 C   0  0  0  0  0  0  0  0  0  0  0  0
  -21.9675  -21.2334   21.8313 C   0  0  0  0  0  0  0  0  0  0  0  0
  -22.8901  -21.6315   23.0113 C   0  0  0  0  0  0  0  0  0  0  0  0
  -19.4696  -26.1547   20.7331 C   0  0  0  0  0  0  0  0  0  0  0  0
  -19.6561  -25.1338   19.6084 C   0  0  0  0  0  0  0  0  0  0  0  0
  -24.2500  -22.1767   22.5803 C   0  0  0  0  0  0  0  0  0  0  0  0
  -20.7437  -26.9196   21.0719 C   0  0  0  0  0  0  0  0  0  1  0  0
  -27.1103  -29.4111   24.2175 C   0  0  1  0  0  0  0  0  0  0  0  0
  -26.4211  -33.1142   24.6437 C   0  0  2  0  0  0  0  0  0  0  0  0
  -27.7205  -28.5772   25.3793 C   0  0  0  0  0  0  0  0  0  0  0  0
  -21.6794  -23.7908   19.1674 N   0  0  0  0  0  0  0  0  0  0  0  0
  -25.9779  -16.4623   19.4186 N   0  0  0  0  0  0  0  0  0  0  0  0
  -20.6129  -24.0203   19.9521 N   0  0  0  0  0  0  0  0  0  0  0  0
  -25.7368  -17.4708   18.5638 N   0  0  0  0  0  0  0  0  0  0  0  0
  -26.9451  -28.6228   21.8776 N   0  0  0  0  0  0  0  0  0  0  0  0
  -26.9191  -20.4549   20.6389 N   0  0  0  0  0  0  0  0  0  0  0  0
  -24.6517  -18.0012   16.5262 N   0  0  0  0  0  0  0  0  0  0  0  0
  -23.7773  -13.6025   17.0580 N   0  0  0  0  0  0  0  0  0  0  0  0
  -28.8480  -26.1462   20.1525 N   0  0  0  0  0  0  0  0  0  0  0  0
  -27.1937  -30.8548   24.4103 N   0  0  0  0  0  0  0  0  0  0  0  0
  -25.0238  -21.2078   21.8367 N   0  0  0  0  0  0  0  0  0  0  0  0
  -25.4734  -33.9933   23.9020 N   0  3  0  0  0  0  0  0  0  0  0  0
  -23.4604  -15.4111   15.6843 O   0  0  0  0  0  0  0  0  0  0  0  0
  -26.9140  -26.0110   21.4425 O   0  0  0  0  0  0  0  0  0  0  0  0
  -28.9804  -29.3405   22.7600 O   0  0  0  0  0  0  0  0  0  0  0  0
  -24.9147  -31.2613   24.2769 O   0  0  0  0  0  0  0  0  0  0  0  0
  -26.8225  -22.5953   21.5263 O   0  0  0  0  0  0  0  0  0  0  0  0
  -25.4583  -10.3993   21.2946 O   0  0  0  0  0  0  0  0  0  0  0  0
  -21.1896  -27.6074   19.9038 O   0  0  0  0  0  0  0  0  0  1  0  0
  -20.7200   -7.5929   21.5720 F   0  0  0  0  0  0  0  0  0  0  0  0
  -24.3872   -9.6622   23.7343 F   0  0  0  0  0  0  0  0  0  0  0  0
  1  2  1  0  0  0  0
  1  5  2  0  0  0  0
  2  6  2  0  0  0  0
  3  8  2  0  0  0  0
  3 17  1  0  0  0  0
  4  9  1  0  0  0  0
  4 17  2  0  0  0  0
  5 19  1  0  0  0  0
  6 21  1  0  0  0  0
  7 10  2  0  0  0  0
  7 20  1  0  0  0  0
  8 24  1  0  0  0  0
  9 24  2  0  0  0  0
 10 25  1  0  0  0  0
 11 12  2  0  0  0  0
 11 26  1  0  0  0  0
 12 27  1  0  0  0  0
 13 22  1  0  0  0  0
 13 25  2  0  0  0  0
 14 27  2  0  0  0  0
 14 28  1  0  0  0  0
 15 23  1  0  0  0  0
 15 62  2  0  0  0  0
 16 23  2  0  0  0  0
 16 64  1  0  0  0  0
 17 29  1  0  0  0  0
 18 29  1  0  0  0  0
 18 30  2  0  0  0  0
 18 31  1  0  0  0  0
 19 21  2  0  0  0  0
 19 36  1  0  0  0  0
 20 22  2  0  0  0  0
 20 37  1  0  0  0  0
 21 45  1  0  0  0  0
 22 38  1  0  0  0  0
 23 53  1  0  0  0  0
 24 79  1  0  0  0  0
 25 80  1  0  0  0  0
 26 28  2  0  0  0  0
 26 79  1  0  0  0  0
 27 81  1  0  0  0  0
 28 82  1  0  0  0  0
 29 63  2  0  0  0  0
 30 65  1  0  0  0  0
 30 68  1  0  0  0  0
 31 69  1  0  0  0  0
 31 74  2  0  0  0  0
 32 46  1  0  0  0  0
 32 70  1  0  0  0  0
 32 75  2  0  0  0  0
 33 59  1  0  0  0  0
 33 66  1  0  0  0  0
 33 76  2  0  0  0  0
 34 60  1  0  0  0  0
 34 71  1  0  0  0  0
 34 77  2  0  0  0  0
 35 67  1  0  0  0  0
 35 72  1  0  0  0  0
 35 78  2  0  0  0  0
 36 39  1  0  0  0  0
 37 46  1  0  0  0  0
 38 66  1  0  0  0  0
 39 41  1  0  0  0  0
 40 42  1  0  0  0  0
 40 43  1  0  0  0  0
 41 45  1  0  0  0  0
 42 47  1  0  0  0  0
 43 67  1  0  0  0  0
 44 47  1  0  0  0  0
 44 67  1  0  0  0  0
 45 70  1  0  0  0  0
 46 66  1  0  0  0  0
 47 65  1  0  0  0  0
 48 60  1  0  0  0  0
 49 61  1  0  0  0  0
 50 61  1  0  0  0  0
 51 61  1  0  0  0  0
 52 73  1  0  0  0  0
 53 54  1  0  0  0  0
 54 57  1  0  0  0  0
 55 56  1  0  0  0  0
 55 58  1  0  0  0  0
 56 64  1  0  0  0  0
 57 72  1  0  0  0  0
 58 80  1  0  0  0  0
 59 61  1  0  0  0  0
 59 71  1  0  0  0  0
 60 73  1  0  0  0  0
 62 64  1  0  0  0  0
 63 65  1  0  0  0  0
M  CHG  1  73   1
M  ISO  4  35 100  58 101  72 100  80 101
M  END
> <Batch ID>
0041

> <Smiles>
CNC(C)C(=O)NC(C(=O)N1Cc2cc([101O:1][101CH2:1]CCn3cc(CCC[100NH:0][100C:0](=O)N4CCCC(n5nc(-c6ccc(Oc7ccc(F)cc7F)cc6)c(C(N)=O)c5N)C4)cn3)ccc2CC1C(=O)NC1CCCc2ccccc21)C(C)(C)C

> <Shape>
0.238

> <Color>
0.065

> <Negative vol penalty>
0.000

$$$$

  -OEChem-04052317093D

 82 90  0     1  0  0  0  0  0999 V2000
  -27.6442  -35.8407   22.5256 C   0  0  0  0  0  0  0  0  0  0  0  0
  -28.4462  -34.7776   22.1232 C   0  0  0  0  0  0  0  0  0  0  0  0
  -23.7551  -10.0230   22.3080 C   0  0  0  0  0  0  0  0  0  0  0  0
  -24.3275  -11.5453   24.0946 C   0  0  0  0  0  0  0  0  0  0  0  0
  -26.4292  -35.5934   23.1633 C   0  0  0  0  0  0  0  0  0  0  0  0
  -28.0341  -33.4665   22.3592 C   0  0  0  0  0  0  0  0  0  0  0  0
  -28.3993  -26.9020   19.5147 C   0  0  0  0  0  0  0  0  0  0  0  0
  -23.2268   -9.1289   23.2391 C   0  0  0  0  0  0  0  0  0  0  0  0
  -23.7991  -10.6513   25.0257 C   0  0  0  0  0  0  0  0  0  0  0  0
  -28.7545  -25.5981   19.8571 C   0  0  0  0  0  0  0  0  0  0  0  0
  -24.3943   -6.8317   25.4264 C   0  0  0  0  0  0  0  0  0  0  0  0
  -24.7245   -5.4835   25.2890 C   0  0  0  0  0  0  0  0  0  0  0  0
  -26.5993  -25.2902   20.8960 C   0  0  0  0  0  0  0  0  0  0  0  0
  -22.3846   -4.9357   25.0404 C   0  0  0  0  0  0  0  0  0  0  0  0
  -30.0489  -20.1472   22.5948 C   0  0  0  0  0  0  0  0  0  0  0  0
  -24.3056  -11.2312   22.7357 C   0  0  0  0  0  0  0  0  0  0  0  0
  -24.1707  -13.1919   21.1094 C   0  0  0  0  0  0  0  0  0  0  0  0
  -25.9976  -34.2785   23.3986 C   0  0  0  0  0  0  0  0  0  0  0  0
  -27.1434  -27.4144   19.8705 C   0  0  0  0  0  0  0  0  0  0  0  0
  -26.8129  -33.2014   23.0018 C   0  0  0  0  0  0  0  0  0  0  0  0
  -26.2296  -26.6001   20.5547 C   0  0  0  0  0  0  0  0  0  0  0  0
  -29.9960  -19.0966   21.7015 C   0  0  0  0  0  0  0  0  0  0  0  0
  -23.2487   -9.4430   24.5980 C   0  0  0  0  0  0  0  0  0  0  0  0
  -27.8556  -24.7929   20.5504 C   0  0  0  0  0  0  0  0  0  0  0  0
  -23.0592   -7.2320   25.3710 C   0  0  0  0  0  0  0  0  0  0  0  0
  -23.7197   -4.5355   25.0959 C   0  0  0  0  0  0  0  0  0  0  0  0
  -22.0544   -6.2840   25.1780 C   0  0  0  0  0  0  0  0  0  0  0  0
  -24.8520  -12.1550   21.7744 C   0  0  0  0  0  0  0  0  0  0  0  0
  -29.7681  -19.4431   20.3854 C   0  0  0  0  0  0  0  0  0  0  0  0
  -25.1249  -13.7724   20.3101 C   0  0  0  0  0  0  0  0  0  0  0  0
  -29.6764  -21.6483   20.9290 C   0  0  0  0  0  0  0  0  0  0  0  0
  -22.7979  -13.5944   21.2056 C   0  0  0  0  0  0  0  0  0  0  0  0
  -26.1344  -29.8112   21.6982 C   0  0  0  0  0  0  0  0  0  0  0  0
  -23.2312  -28.9743   20.5179 C   0  0  0  0  0  0  0  0  0  0  0  0
  -21.2515  -26.5628   19.1351 C   0  0  0  0  0  0  0  0  0  0  0  0
  -31.0957  -14.0684   20.6467 C   0  0  0  0  0  0  0  0  0  0  0  0
  -24.6987  -34.0615   24.1338 C   0  0  0  0  0  0  0  0  0  0  0  0
  -26.7653  -28.8141   19.4703 C   0  0  0  0  0  0  0  0  0  0  0  0
  -24.8611  -27.0958   20.9422 C   0  0  0  0  0  0  0  0  0  0  0  0
  -24.1596  -32.6386   24.0108 C   0  0  0  0  0  0  0  0  0  0  0  0
  -29.1655  -12.7533   17.9594 C   0  0  0  0  0  0  0  0  0  0  0  0
  -25.2709  -31.6234   24.2580 C   0  0  0  0  0  0  0  0  0  0  0  0
  -27.7797  -12.5443   18.5724 C   0  0  0  0  0  0  0  0  0  0  0  0
  -30.2774  -12.4483   18.9609 C   0  0  0  0  0  0  0  0  0  0  0  0
  -28.7868  -12.9629   20.8548 C   0  0  0  0  0  0  0  0  0  0  0  0
  -26.3888  -31.7649   23.2179 C   0  0  1  0  0  0  0  0  0  0  0  0
  -25.6544  -29.4031   20.3342 C   0  0  1  0  0  0  0  0  0  0  0  0
  -27.6323  -13.3118   19.9000 C   0  0  2  0  0  0  0  0  0  0  0  0
  -29.6911  -18.3894   19.3302 C   0  0  0  0  0  0  0  0  0  0  0  0
  -18.9137  -26.1649   18.3143 C   0  0  0  0  0  0  0  0  0  0  0  0
  -22.2548  -28.7771   23.4020 C   0  0  0  0  0  0  0  0  0  0  0  0
  -20.2748  -27.4901   22.5702 C   0  0  0  0  0  0  0  0  0  0  0  0
  -20.6347  -29.8426   21.8226 C   0  0  0  0  0  0  0  0  0  0  0  0
  -22.1907  -25.9775   16.3903 C   0  0  0  0  0  0  0  0  0  0  0  0
  -30.1756  -17.6934   22.1533 C   0  0  0  0  0  0  0  0  0  0  0  0
  -29.4985  -23.0742   20.4971 C   0  0  0  0  0  0  0  0  0  1  0  0
  -31.5817  -17.1088   21.8971 C   0  0  0  0  0  0  0  0  0  0  0  0
  -31.7692  -15.6819   22.4080 C   0  0  0  0  0  0  0  0  0  0  0  0
  -22.1423  -28.0164   20.9373 C   0  0  1  0  0  0  0  0  0  0  0  0
  -20.3240  -26.5876   17.9336 C   0  0  2  0  0  0  0  0  0  0  0  0
  -21.3531  -28.5226   22.1776 C   0  0  0  0  0  0  0  0  0  0  0  0
  -29.8928  -21.4399   22.2417 N   0  0  0  0  0  0  0  0  0  0  0  0
  -26.1396  -12.0786   21.4276 N   0  0  0  0  0  0  0  0  0  0  0  0
  -29.6029  -20.7135   19.9624 N   0  0  0  0  0  0  0  0  0  0  0  0
  -26.2749  -13.0749   20.5359 N   0  0  0  0  0  0  0  0  0  0  0  0
  -24.5407  -28.4736   20.5339 N   0  0  0  0  0  0  0  0  0  0  0  0
  -30.0797  -13.2090   20.1970 N   0  0  0  0  0  0  0  0  0  0  0  0
  -25.0840  -14.8064   19.4431 N   0  0  0  0  0  0  0  0  0  0  0  0
  -21.9544  -12.8898   22.0753 N   0  0  0  0  0  0  0  0  0  0  0  0
  -25.9924  -31.1597   21.9645 N   0  0  0  0  0  0  0  0  0  0  0  0
  -21.3177  -27.7928   19.7547 N   0  0  0  0  0  0  0  0  0  0  0  0
  -30.8246  -14.7565   21.8231 N   0  0  0  0  0  0  0  0  0  0  0  0
  -20.8221  -25.6638   16.8756 N   0  3  0  0  0  0  0  0  0  0  0  0
  -22.3292  -14.5402   20.5278 O   0  0  0  0  0  0  0  0  0  0  0  0
  -26.5979  -28.9651   22.4539 O   0  0  0  0  0  0  0  0  0  0  0  0
  -22.9302  -30.1223   20.1815 O   0  0  0  0  0  0  0  0  0  0  0  0
  -21.8539  -25.5523   19.4908 O   0  0  0  0  0  0  0  0  0  0  0  0
  -32.1630  -14.2158   20.0417 O   0  0  0  0  0  0  0  0  0  0  0  0
  -22.7330   -8.5709   25.5069 O   0  0  0  0  0  0  0  0  0  0  0  0
  -28.2000  -23.5200   20.8864 O   0  0  0  0  0  0  0  0  0  1  0  0
  -24.0371   -3.2411   24.9624 F   0  0  0  0  0  0  0  0  0  0  0  0
  -20.7701   -6.6626   25.1226 F   0  0  0  0  0  0  0  0  0  0  0  0
  1  2  1  0  0  0  0
  1  5  2  0  0  0  0
  2  6  2  0  0  0  0
  3  8  2  0  0  0  0
  3 16  1  0  0  0  0
  4  9  1  0  0  0  0
  4 16  2  0  0  0  0
  5 18  1  0  0  0  0
  6 20  1  0  0  0  0
  7 10  2  0  0  0  0
  7 19  1  0  0  0  0
  8 23  1  0  0  0  0
  9 23  2  0  0  0  0
 10 24  1  0  0  0  0
 11 12  2  0  0  0  0
 11 25  1  0  0  0  0
 12 26  1  0  0  0  0
 13 21  1  0  0  0  0
 13 24  2  0  0  0  0
 14 26  2  0  0  0  0
 14 27  1  0  0  0  0
 15 22  1  0  0  0  0
 15 62  2  0  0  0  0
 16 28  1  0  0  0  0
 17 28  1  0  0  0  0
 17 30  2  0  0  0  0
 17 32  1  0  0  0  0
 18 20  2  0  0  0  0
 18 37  1  0  0  0  0
 19 21  2  0  0  0  0
 19 38  1  0  0  0  0
 20 46  1  0  0  0  0
 21 39  1  0  0  0  0
 22 29  2  0  0  0  0
 22 55  1  0  0  0  0
 23 79  1  0  0  0  0
 24 80  1  0  0  0  0
 25 27  2  0  0  0  0
 25 79  1  0  0  0  0
 26 81  1  0  0  0  0
 27 82  1  0  0  0  0
 28 63  2  0  0  0  0
 29 49  1  0  0  0  0
 29 64  1  0  0  0  0
 30 65  1  0  0  0  0
 30 68  1  0  0  0  0
 31 56  1  0  0  0  0
 31 62  1  0  0  0  0
 31 64  2  0  0  0  0
 32 69  1  0  0  0  0
 32 74  2  0  0  0  0
 33 47  1  0  0  0  0
 33 70  1  0  0  0  0
 33 75  2  0  0  0  0
 34 59  1  0  0  0  0
 34 66  1  0  0  0  0
 34 76  2  0  0  0  0
 35 60  1  0  0  0  0
 35 71  1  0  0  0  0
 35 77  2  0  0  0  0
 36 67  1  0  0  0  0
 36 72  1  0  0  0  0
 36 78  2  0  0  0  0
 37 40  1  0  0  0  0
 38 47  1  0  0  0  0
 39 66  1  0  0  0  0
 40 42  1  0  0  0  0
 41 43  1  0  0  0  0
 41 44  1  0  0  0  0
 42 46  1  0  0  0  0
 43 48  1  0  0  0  0
 44 67  1  0  0  0  0
 45 48  1  0  0  0  0
 45 67  1  0  0  0  0
 46 70  1  0  0  0  0
 47 66  1  0  0  0  0
 48 65  1  0  0  0  0
 50 60  1  0  0  0  0
 51 61  1  0  0  0  0
 52 61  1  0  0  0  0
 53 61  1  0  0  0  0
 54 73  1  0  0  0  0
 55 57  1  0  0  0  0
 56 80  1  0  0  0  0
 57 58  1  0  0  0  0
 58 72  1  0  0  0  0
 59 61  1  0  0  0  0
 59 71  1  0  0  0  0
 60 73  1  0  0  0  0
 63 65  1  0  0  0  0
M  CHG  1  73   1
M  ISO  4  36 100  56 101  72 100  80 101
M  END
> <Batch ID>
0041

> <Smiles>
CNC(C)C(=O)NC(C(=O)N1Cc2cc([101O:1][101CH2:1]c3ncc(CCC[100NH:0][100C:0](=O)N4CCCC(n5nc(-c6ccc(Oc7ccc(F)cc7F)cc6)c(C(N)=O)c5N)C4)c(C)n3)ccc2CC1C(=O)NC1CCCc2ccccc21)C(C)(C)C

> <Shape>
0.338

> <Color>
0.147

> <Negative vol penalty>
0.000

$$$$

  -OEChem-04052317093D

 87 95  0     1  0  0  0  0  0999 V2000
  -26.4171  -25.2089   14.9202 C   0  0  0  0  0  0  0  0  0  0  0  0
  -25.5527  -25.7794   15.8490 C   0  0  0  0  0  0  0  0  0  0  0  0
  -24.5421  -18.6918   21.0263 C   0  0  0  0  0  0  0  0  0  0  0  0
  -25.6932  -17.5820   22.8375 C   0  0  0  0  0  0  0  0  0  0  0  0
  -27.5502  -24.5222   15.3541 C   0  0  0  0  0  0  0  0  0  0  0  0
  -25.8205  -25.6625   17.2125 C   0  0  0  0  0  0  0  0  0  0  0  0
  -25.1778  -30.0267   19.6996 C   0  0  0  0  0  0  0  0  0  0  0  0
  -24.7291  -17.5693   20.2196 C   0  0  0  0  0  0  0  0  0  0  0  0
  -25.8802  -16.4595   22.0308 C   0  0  0  0  0  0  0  0  0  0  0  0
  -23.8687  -30.4037   19.9964 C   0  0  0  0  0  0  0  0  0  0  0  0
  -24.0535  -13.8181   20.9788 C   0  0  0  0  0  0  0  0  0  0  0  0
  -23.7962  -12.5678   21.5410 C   0  0  0  0  0  0  0  0  0  0  0  0
  -24.1512  -29.5889   22.2493 C   0  0  0  0  0  0  0  0  0  0  0  0
  -26.0851  -11.9123   21.1305 C   0  0  0  0  0  0  0  0  0  0  0  0
  -25.0242  -18.6982   22.3352 C   0  0  0  0  0  0  0  0  0  0  0  0
  -25.2957  -21.1646   22.9273 C   0  0  0  0  0  0  0  0  0  0  0  0
  -27.8372  -24.4051   16.7232 C   0  0  0  0  0  0  0  0  0  0  0  0
  -25.9812  -29.4171   20.6740 C   0  0  0  0  0  0  0  0  0  0  0  0
  -26.9578  -24.9724   17.6652 C   0  0  0  0  0  0  0  0  0  0  0  0
  -25.4710  -29.2075   21.9631 C   0  0  0  0  0  0  0  0  0  0  0  0
  -25.3981  -16.4532   20.7219 C   0  0  0  0  0  0  0  0  0  0  0  0
  -23.3543  -30.1821   21.2705 C   0  0  0  0  0  0  0  0  0  0  0  0
  -25.3265  -14.1156   20.4923 C   0  0  0  0  0  0  0  0  0  0  0  0
  -24.8121  -11.6149   21.6169 C   0  0  0  0  0  0  0  0  0  0  0  0
  -26.3423  -13.1627   20.5682 C   0  0  0  0  0  0  0  0  0  0  0  0
  -24.8319  -19.8576   23.1688 C   0  0  0  0  0  0  0  0  0  0  0  0
  -24.8541  -21.8905   24.0064 C   0  0  0  0  0  0  0  0  0  0  0  0
  -26.0575  -21.6768   21.8259 C   0  0  0  0  0  0  0  0  0  0  0  0
  -27.4150  -26.5941   20.9537 C   0  0  0  0  0  0  0  0  0  0  0  0
  -28.6698  -27.9336   23.6283 C   0  0  0  0  0  0  0  0  0  0  0  0
  -28.4004  -30.2764   26.0952 C   0  0  0  0  0  0  0  0  0  0  0  0
  -20.3787  -21.3224   27.7913 C   0  0  0  0  0  0  0  0  0  0  0  0
  -29.0489  -23.6128   17.1458 C   0  0  0  0  0  0  0  0  0  0  0  0
  -27.4000  -29.0407   20.3458 C   0  0  0  0  0  0  0  0  0  0  0  0
  -26.2991  -28.5750   23.0506 C   0  0  0  0  0  0  0  0  0  0  0  0
  -29.4602  -23.8557   18.5957 C   0  0  0  0  0  0  0  0  0  0  0  0
  -23.7416  -21.4447   28.6294 C   0  0  0  0  0  0  0  0  0  0  0  0
  -28.2428  -23.7975   19.5129 C   0  0  0  0  0  0  0  0  0  0  0  0
  -20.5943  -25.9456   23.8370 C   0  0  0  0  0  0  0  0  0  0  0  0
  -21.0614  -25.4170   21.4122 C   0  0  0  0  0  0  0  0  0  0  0  0
  -20.0567  -27.3176   23.4342 C   0  0  0  0  0  0  0  0  0  0  0  0
  -20.5234  -26.7889   21.0096 C   0  0  0  0  0  0  0  0  0  0  0  0
  -24.4597  -21.1764   27.3075 C   0  0  0  0  0  0  0  0  0  0  0  0
  -22.5156  -20.5511   28.7739 C   0  0  0  0  0  0  0  0  0  0  0  0
  -22.2399  -20.4206   26.3187 C   0  0  0  0  0  0  0  0  0  0  0  0
  -27.2274  -24.8884   19.1519 C   0  0  1  0  0  0  0  0  0  0  0  0
  -27.9593  -27.9595   21.2652 C   0  0  1  0  0  0  0  0  0  0  0  0
  -20.4209  -24.9162   22.7129 C   0  0  0  0  0  0  0  0  0  0  0  0
  -20.6975  -27.8181   22.1335 C   0  0  0  0  0  0  0  0  0  0  0  0
  -23.4908  -21.3007   26.1187 C   0  0  2  0  0  0  0  0  0  0  0  0
  -15.7828  -21.7297   27.2616 C   0  0  0  0  0  0  0  0  0  0  0  0
  -29.5597  -31.1036   28.1614 C   0  0  0  0  0  0  0  0  0  0  0  0
  -20.2798  -31.0405   20.0500 C   0  0  0  0  0  0  0  0  0  0  0  0
  -27.6375  -25.5136   25.1735 C   0  0  0  0  0  0  0  0  0  0  0  0
  -27.9638  -26.8125   27.2888 C   0  0  0  0  0  0  0  0  0  0  0  0
  -29.9231  -26.2793   25.8398 C   0  0  0  0  0  0  0  0  0  0  0  0
  -28.7936  -32.9710   24.9361 C   0  0  0  0  0  0  0  0  0  0  0  0
  -21.0117  -23.5679   23.1204 C   0  0  0  0  0  0  0  0  0  0  0  0
  -20.1080  -29.1670   21.7258 C   0  0  0  0  0  0  0  0  0  0  0  0
  -17.1521  -21.0735   27.1521 C   0  0  0  0  0  0  0  0  0  0  0  0
  -20.0713  -22.8114   24.0549 C   0  0  0  0  0  0  0  0  0  0  0  0
  -20.6561  -21.4484   24.4364 C   0  0  0  0  0  0  0  0  0  0  0  0
  -18.2523  -22.0633   26.7878 C   0  0  0  0  0  0  0  0  0  0  0  0
  -19.7728  -20.6855   25.4181 C   0  0  0  0  0  0  0  0  0  0  0  0
  -28.2544  -28.0188   25.0771 C   0  0  1  0  0  0  0  0  0  0  0  0
  -29.4038  -31.2670   26.6574 C   0  0  2  0  0  0  0  0  0  0  0  0
  -21.0364  -29.9473   20.7926 C   0  0  2  0  0  0  0  0  0  1  0  0
  -28.4282  -26.6662   25.8240 C   0  0  0  0  0  0  0  0  0  0  0  0
  -24.1482  -19.7560   24.3117 N   0  0  0  0  0  0  0  0  0  0  0  0
  -24.1792  -21.0085   24.7980 N   0  0  0  0  0  0  0  0  0  0  0  0
  -27.6784  -28.2188   22.6788 N   0  0  0  0  0  0  0  0  0  0  0  0
  -21.6201  -20.6906   27.6252 N   0  0  0  0  0  0  0  0  0  0  0  0
  -24.9812  -23.1909   24.3459 N   0  0  0  0  0  0  0  0  0  0  0  0
  -25.3689  -22.1746   20.7113 N   0  0  0  0  0  0  0  0  0  0  0  0
  -27.6616  -26.1715   19.6614 N   0  0  0  0  0  0  0  0  0  0  0  0
  -29.0136  -29.1224   25.6552 N   0  0  0  0  0  0  0  0  0  0  0  0
  -19.5538  -21.4231   26.6609 N   0  0  0  0  0  0  0  0  0  0  0  0
  -28.9643  -32.6637   26.3795 N   0  3  0  0  0  0  0  0  0  0  0  0
  -27.3119  -21.6773   21.8232 O   0  0  0  0  0  0  0  0  0  0  0  0
  -26.8169  -25.9695   21.8220 O   0  0  0  0  0  0  0  0  0  0  0  0
  -29.8331  -27.6323   23.3494 O   0  0  0  0  0  0  0  0  0  0  0  0
  -27.1929  -30.5020   26.0540 O   0  0  0  0  0  0  0  0  0  0  0  0
  -20.0224  -21.7659   28.8906 O   0  0  0  0  0  0  0  0  0  0  0  0
  -25.5805  -15.3576   19.9351 O   0  0  0  0  0  0  0  0  0  0  0  0
  -22.0767  -30.5485   21.5626 O   0  0  0  0  0  0  0  0  0  1  0  0
  -24.5653  -10.4148   22.1583 F   0  0  0  0  0  0  0  0  0  0  0  0
  -27.5676  -13.4431   20.1037 F   0  0  0  0  0  0  0  0  0  0  0  0
  1  2  1  0  0  0  0
  1  5  2  0  0  0  0
  2  6  2  0  0  0  0
  3  8  2  0  0  0  0
  3 15  1  0  0  0  0
  4  9  1  0  0  0  0
  4 15  2  0  0  0  0
  5 17  1  0  0  0  0
  6 19  1  0  0  0  0
  7 10  2  0  0  0  0
  7 18  1  0  0  0  0
  8 21  1  0  0  0  0
  9 21  2  0  0  0  0
 10 22  1  0  0  0  0
 11 12  2  0  0  0  0
 11 23  1  0  0  0  0
 12 24  1  0  0  0  0
 13 20  1  0  0  0  0
 13 22  2  0  0  0  0
 14 24  2  0  0  0  0
 14 25  1  0  0  0  0
 15 26  1  0  0  0  0
 16 26  1  0  0  0  0
 16 27  2  0  0  0  0
 16 28  1  0  0  0  0
 17 19  2  0  0  0  0
 17 33  1  0  0  0  0
 18 20  2  0  0  0  0
 18 34  1  0  0  0  0
 19 46  1  0  0  0  0
 20 35  1  0  0  0  0
 21 84  1  0  0  0  0
 22 85  1  0  0  0  0
 23 25  2  0  0  0  0
 23 84  1  0  0  0  0
 24 86  1  0  0  0  0
 25 87  1  0  0  0  0
 26 69  2  0  0  0  0
 27 70  1  0  0  0  0
 27 73  1  0  0  0  0
 28 74  1  0  0  0  0
 28 79  2  0  0  0  0
 29 47  1  0  0  0  0
 29 75  1  0  0  0  0
 29 80  2  0  0  0  0
 30 65  1  0  0  0  0
 30 71  1  0  0  0  0
 30 81  2  0  0  0  0
 31 66  1  0  0  0  0
 31 76  1  0  0  0  0
 31 82  2  0  0  0  0
 32 72  1  0  0  0  0
 32 77  1  0  0  0  0
 32 83  2  0  0  0  0
 33 36  1  0  0  0  0
 34 47  1  0  0  0  0
 35 71  1  0  0  0  0
 36 38  1  0  0  0  0
 37 43  1  0  0  0  0
 37 44  1  0  0  0  0
 38 46  1  0  0  0  0
 39 41  1  0  0  0  0
 39 48  1  0  0  0  0
 40 42  1  0  0  0  0
 40 48  1  0  0  0  0
 41 49  1  0  0  0  0
 42 49  1  0  0  0  0
 43 50  1  0  0  0  0
 44 72  1  0  0  0  0
 45 50  1  0  0  0  0
 45 72  1  0  0  0  0
 46 75  1  0  0  0  0
 47 71  1  0  0  0  0
 48 58  1  0  0  0  0
 49 59  1  0  0  0  0
 50 70  1  0  0  0  0
 51 60  1  0  0  0  0
 52 66  1  0  0  0  0
 53 67  1  0  0  0  0
 54 68  1  0  0  0  0
 55 68  1  0  0  0  0
 56 68  1  0  0  0  0
 57 78  1  0  0  0  0
 58 61  1  0  0  0  0
 59 67  1  0  0  0  0
 60 63  1  0  0  0  0
 61 62  1  0  0  0  0
 62 64  1  0  0  0  0
 63 77  1  0  0  0  0
 64 77  1  0  0  0  0
 65 68  1  0  0  0  0
 65 76  1  0  0  0  0
 66 78  1  0  0  0  0
 67 85  1  0  0  0  0
 69 70  1  0  0  0  0
M  CHG  1  78   1
M  ISO  4  32 100  67 101  77 100  85 101
M  END
> <Batch ID>
0041

> <Smiles>
CCC[100N:0](CCCCC1CCC(C[101CH:1](C)[101O:1]c2ccc3c(c2)CN(C(=O)C(NC(=O)C(C)NC)C(C)(C)C)C(C(=O)NC2CCCc4ccccc42)C3)CC1)[100C:0](=O)N1CCCC(n2nc(-c3ccc(Oc4ccc(F)cc4F)cc3)c(C(N)=O)c2N)C1

> <Shape>
0.176

> <Color>
0.049

> <Negative vol penalty>
0.000

$$$$

  -OEChem-04052317093D

 83 91  0     1  0  0  0  0  0999 V2000
  -29.3177  -28.8345   22.2985 C   0  0  0  0  0  0  0  0  0  0  0  0
  -28.3021  -28.2851   21.5225 C   0  0  0  0  0  0  0  0  0  0  0  0
  -24.5945  -31.1255   25.1561 C   0  0  0  0  0  0  0  0  0  0  0  0
  -25.8735  -29.1225   24.7211 C   0  0  0  0  0  0  0  0  0  0  0  0
  -30.5826  -28.2480   22.3059 C   0  0  0  0  0  0  0  0  0  0  0  0
  -28.5511  -27.1494   20.7526 C   0  0  0  0  0  0  0  0  0  0  0  0
  -24.8589  -23.7034   21.1231 C   0  0  0  0  0  0  0  0  0  0  0  0
  -25.4333  -31.4282   26.2286 C   0  0  0  0  0  0  0  0  0  0  0  0
  -26.7124  -29.4252   25.7936 C   0  0  0  0  0  0  0  0  0  0  0  0
  -23.6954  -23.9357   20.3911 C   0  0  0  0  0  0  0  0  0  0  0  0
  -29.4089  -29.8580   28.1936 C   0  0  0  0  0  0  0  0  0  0  0  0
  -30.7837  -29.7240   28.0004 C   0  0  0  0  0  0  0  0  0  0  0  0
  -24.4589  -22.3943   18.6998 C   0  0  0  0  0  0  0  0  0  0  0  0
  -30.6929  -31.3554   26.2208 C   0  0  0  0  0  0  0  0  0  0  0  0
  -24.8145  -29.9726   24.4024 C   0  0  0  0  0  0  0  0  0  0  0  0
  -24.1079  -30.0523   21.9525 C   0  0  0  0  0  0  0  0  0  0  0  0
  -30.8446  -27.0989   21.5433 C   0  0  0  0  0  0  0  0  0  0  0  0
  -25.8379  -22.8216   20.6429 C   0  0  0  0  0  0  0  0  0  0  0  0
  -29.8210  -26.5478   20.7489 C   0  0  0  0  0  0  0  0  0  0  0  0
  -25.6329  -22.1506   19.4289 C   0  0  0  0  0  0  0  0  0  0  0  0
  -19.7184  -22.7513   17.5006 C   0  0  0  0  0  0  0  0  0  0  0  0
  -26.4923  -30.5781   26.5474 C   0  0  0  0  0  0  0  0  0  0  0  0
  -23.4965  -23.2833   19.1778 C   0  0  0  0  0  0  0  0  0  0  0  0
  -28.6759  -30.7408   27.4002 C   0  0  0  0  0  0  0  0  0  0  0  0
  -31.4258  -30.4727   27.0141 C   0  0  0  0  0  0  0  0  0  0  0  0
  -29.3179  -31.4895   26.4139 C   0  0  0  0  0  0  0  0  0  0  0  0
  -23.9480  -29.6590   23.2947 C   0  0  0  0  0  0  0  0  0  0  0  0
  -19.1868  -21.4690   17.7351 C   0  0  0  0  0  0  0  0  0  0  0  0
  -18.9524  -23.5876   18.2754 C   0  0  0  0  0  0  0  0  0  0  0  0
  -23.0292  -29.5036   21.3031 C   0  0  0  0  0  0  0  0  0  0  0  0
  -25.1393  -30.8430   21.3469 C   0  0  0  0  0  0  0  0  0  0  0  0
  -28.8870  -23.1037   19.7902 C   0  0  0  0  0  0  0  0  0  0  0  0
  -28.7062  -19.8760   19.5233 C   0  0  0  0  0  0  0  0  0  0  0  0
  -26.7604  -17.1124   19.0510 C   0  0  0  0  0  0  0  0  0  0  0  0
  -19.7013  -24.7776   22.5055 C   0  0  0  0  0  0  0  0  0  0  0  0
  -32.2405  -26.5280   21.5467 C   0  0  0  0  0  0  0  0  0  0  0  0
  -27.0753  -22.5615   21.4575 C   0  0  0  0  0  0  0  0  0  0  0  0
  -26.6439  -21.1788   18.8794 C   0  0  0  0  0  0  0  0  0  0  0  0
  -32.3190  -25.1072   20.9940 C   0  0  0  0  0  0  0  0  0  0  0  0
  -18.4964  -28.1594   22.0479 C   0  0  0  0  0  0  0  0  0  0  0  0
  -31.5309  -24.9964   19.6927 C   0  0  0  0  0  0  0  0  0  0  0  0
  -19.7892  -28.9647   22.1905 C   0  0  0  0  0  0  0  0  0  0  0  0
  -18.4736  -26.9755   23.0103 C   0  0  0  0  0  0  0  0  0  0  0  0
  -20.9354  -26.8620   23.0297 C   0  0  0  0  0  0  0  0  0  0  0  0
  -30.0454  -25.3020   19.9196 C   0  0  1  0  0  0  0  0  0  0  0  0
  -28.2394  -22.0346   20.6241 C   0  0  1  0  0  0  0  0  0  0  0  0
  -21.0295  -28.0599   22.0674 C   0  0  2  0  0  0  0  0  0  0  0  0
  -19.6294  -20.1877   17.1575 C   0  0  0  0  0  0  0  0  0  0  0  0
  -19.0000  -25.0488   18.4720 C   0  0  0  0  0  0  0  0  0  0  0  0
  -26.9021  -14.6156   18.8431 C   0  0  0  0  0  0  0  0  0  0  0  0
  -29.7812  -20.1759   16.6835 C   0  0  0  0  0  0  0  0  0  0  0  0
  -29.0129  -17.8385   16.2203 C   0  0  0  0  0  0  0  0  0  0  0  0
  -30.7445  -18.2574   17.9664 C   0  0  0  0  0  0  0  0  0  0  0  0
  -25.0472  -16.7009   21.4290 C   0  0  0  0  0  0  0  0  0  0  0  0
  -20.8704  -23.1267   16.6005 C   0  0  0  0  0  0  0  0  0  0  0  0
  -17.0724  -22.4843   21.1835 C   0  0  0  0  0  0  0  0  0  0  0  0
  -17.0140  -23.2001   19.8272 C   0  0  0  0  0  0  0  0  0  0  0  0
  -18.3313  -22.7717   21.9989 C   0  0  0  0  0  0  0  0  0  0  0  0
  -22.2235  -22.8066   17.2264 C   0  0  0  0  0  0  0  0  0  1  0  0
  -28.3449  -18.9132   18.4180 C   0  0  1  0  0  0  0  0  0  0  0  0
  -26.6958  -15.7878   19.7897 C   0  0  2  0  0  0  0  0  0  0  0  0
  -29.4525  -18.8160   17.3312 C   0  0  0  0  0  0  0  0  0  0  0  0
  -22.8538  -28.9178   23.4880 N   0  0  0  0  0  0  0  0  0  0  0  0
  -18.1623  -21.4844   18.5920 N   0  0  0  0  0  0  0  0  0  0  0  0
  -18.0441  -22.7866   18.9027 N   0  0  0  0  0  0  0  0  0  0  0  0
  -22.3163  -28.8410   22.2586 N   0  0  0  0  0  0  0  0  0  0  0  0
  -27.8404  -20.9629   19.7096 N   0  0  0  0  0  0  0  0  0  0  0  0
  -19.6721  -26.1443   22.8290 N   0  0  0  0  0  0  0  0  0  0  0  0
  -22.6303  -29.5280   20.0136 N   0  0  0  0  0  0  0  0  0  0  0  0
  -26.1734  -31.3278   22.1592 N   0  0  0  0  0  0  0  0  0  0  0  0
  -29.3821  -24.1658   20.5226 N   0  0  0  0  0  0  0  0  0  0  0  0
  -28.0322  -17.6449   19.0676 N   0  0  0  0  0  0  0  0  0  0  0  0
  -18.4623  -24.1710   22.3392 N   0  0  0  0  0  0  0  0  0  0  0  0
  -25.3708  -15.6287   20.4530 N   0  3  0  0  0  0  0  0  0  0  0  0
  -25.1349  -31.1253   20.1247 O   0  0  0  0  0  0  0  0  0  0  0  0
  -28.9352  -22.9740   18.5726 O   0  0  0  0  0  0  0  0  0  0  0  0
  -29.7155  -19.6673   20.2011 O   0  0  0  0  0  0  0  0  0  0  0  0
  -25.7815  -17.6218   18.5100 O   0  0  0  0  0  0  0  0  0  0  0  0
  -20.7543  -24.1453   22.3695 O   0  0  0  0  0  0  0  0  0  0  0  0
  -27.3111  -30.8733   27.5937 O   0  0  0  0  0  0  0  0  0  0  0  0
  -22.3620  -23.5087   18.4609 O   0  0  0  0  0  0  0  0  0  1  0  0
  -32.7463  -30.3449   26.8298 F   0  0  0  0  0  0  0  0  0  0  0  0
  -28.6193  -32.3400   25.6495 F   0  0  0  0  0  0  0  0  0  0  0  0
  1  2  1  0  0  0  0
  1  5  2  0  0  0  0
  2  6  2  0  0  0  0
  3  8  2  0  0  0  0
  3 15  1  0  0  0  0
  4  9  1  0  0  0  0
  4 15  2  0  0  0  0
  5 17  1  0  0  0  0
  6 19  1  0  0  0  0
  7 10  2  0  0  0  0
  7 18  1  0  0  0  0
  8 22  1  0  0  0  0
  9 22  2  0  0  0  0
 10 23  1  0  0  0  0
 11 12  2  0  0  0  0
 11 24  1  0  0  0  0
 12 25  1  0  0  0  0
 13 20  1  0  0  0  0
 13 23  2  0  0  0  0
 14 25  2  0  0  0  0
 14 26  1  0  0  0  0
 15 27  1  0  0  0  0
 16 27  1  0  0  0  0
 16 30  2  0  0  0  0
 16 31  1  0  0  0  0
 17 19  2  0  0  0  0
 17 36  1  0  0  0  0
 18 20  2  0  0  0  0
 18 37  1  0  0  0  0
 19 45  1  0  0  0  0
 20 38  1  0  0  0  0
 21 28  1  0  0  0  0
 21 29  2  0  0  0  0
 21 55  1  0  0  0  0
 22 80  1  0  0  0  0
 23 81  1  0  0  0  0
 24 26  2  0  0  0  0
 24 80  1  0  0  0  0
 25 82  1  0  0  0  0
 26 83  1  0  0  0  0
 27 63  2  0  0  0  0
 28 48  1  0  0  0  0
 28 64  2  0  0  0  0
 29 49  1  0  0  0  0
 29 65  1  0  0  0  0
 30 66  1  0  0  0  0
 30 69  1  0  0  0  0
 31 70  1  0  0  0  0
 31 75  2  0  0  0  0
 32 46  1  0  0  0  0
 32 71  1  0  0  0  0
 32 76  2  0  0  0  0
 33 60  1  0  0  0  0
 33 67  1  0  0  0  0
 33 77  2  0  0  0  0
 34 61  1  0  0  0  0
 34 72  1  0  0  0  0
 34 78  2  0  0  0  0
 35 68  1  0  0  0  0
 35 73  1  0  0  0  0
 35 79  2  0  0  0  0
 36 39  1  0  0  0  0
 37 46  1  0  0  0  0
 38 67  1  0  0  0  0
 39 41  1  0  0  0  0
 40 42  1  0  0  0  0
 40 43  1  0  0  0  0
 41 45  1  0  0  0  0
 42 47  1  0  0  0  0
 43 68  1  0  0  0  0
 44 47  1  0  0  0  0
 44 68  1  0  0  0  0
 45 71  1  0  0  0  0
 46 67  1  0  0  0  0
 47 66  1  0  0  0  0
 50 61  1  0  0  0  0
 51 62  1  0  0  0  0
 52 62  1  0  0  0  0
 53 62  1  0  0  0  0
 54 74  1  0  0  0  0
 55 59  1  0  0  0  0
 56 57  1  0  0  0  0
 56 58  1  0  0  0  0
 57 65  1  0  0  0  0
 58 73  1  0  0  0  0
 59 81  1  0  0  0  0
 60 62  1  0  0  0  0
 60 72  1  0  0  0  0
 61 74  1  0  0  0  0
 63 66  1  0  0  0  0
 64 65  1  0  0  0  0
M  CHG  1  74   1
M  ISO  4  35 100  59 101  73 100  81 101
M  END
> <Batch ID>
0041

> <Smiles>
CNC(C)C(=O)NC(C(=O)N1Cc2cc([101O:1][101CH2:1]Cc3c(C)nn(CCC[100NH:0][100C:0](=O)N4CCCC(n5nc(-c6ccc(Oc7ccc(F)cc7F)cc6)c(C(N)=O)c5N)C4)c3C)ccc2CC1C(=O)NC1CCCc2ccccc21)C(C)(C)C

> <Shape>
0.227

> <Color>
0.074

> <Negative vol penalty>
0.000

$$$$

  -OEChem-04052317093D

 82 90  0     1  0  0  0  0  0999 V2000
  -25.2978  -21.0124   29.3532 C   0  0  0  0  0  0  0  0  0  0  0  0
  -25.7383  -21.3172   28.0693 C   0  0  0  0  0  0  0  0  0  0  0  0
  -27.7274  -13.0129   22.5343 C   0  0  0  0  0  0  0  0  0  0  0  0
  -26.7838  -12.8963   20.3132 C   0  0  0  0  0  0  0  0  0  0  0  0
  -23.9776  -21.2749   29.7166 C   0  0  0  0  0  0  0  0  0  0  0  0
  -24.8586  -21.8838   27.1477 C   0  0  0  0  0  0  0  0  0  0  0  0
  -26.9296  -25.7412   24.6029 C   0  0  0  0  0  0  0  0  0  0  0  0
  -27.2167  -11.7463   22.8178 C   0  0  0  0  0  0  0  0  0  0  0  0
  -26.2731  -11.6296   20.5967 C   0  0  0  0  0  0  0  0  0  0  0  0
  -27.8022  -25.4227   23.5632 C   0  0  0  0  0  0  0  0  0  0  0  0
  -23.6424  -10.3213   22.2694 C   0  0  0  0  0  0  0  0  0  0  0  0
  -22.3257  -10.0545   21.8941 C   0  0  0  0  0  0  0  0  0  0  0  0
  -26.0325  -25.8048   21.9690 C   0  0  0  0  0  0  0  0  0  0  0  0
  -31.7683  -24.0525   18.0672 C   0  0  0  0  0  0  0  0  0  0  0  0
  -30.1162  -23.3243   19.6561 C   0  0  0  0  0  0  0  0  0  0  0  0
  -23.0938   -8.2508   20.4819 C   0  0  0  0  0  0  0  0  0  0  0  0
  -27.5109  -13.5880   21.2820 C   0  0  0  0  0  0  0  0  0  0  0  0
  -29.2966  -15.2024   20.4377 C   0  0  0  0  0  0  0  0  0  0  0  0
  -23.0838  -21.8539   28.8020 C   0  0  0  0  0  0  0  0  0  0  0  0
  -25.5967  -26.0839   24.3337 C   0  0  0  0  0  0  0  0  0  0  0  0
  -23.5248  -22.1531   27.4988 C   0  0  0  0  0  0  0  0  0  0  0  0
  -25.1457  -26.1297   23.0068 C   0  0  0  0  0  0  0  0  0  0  0  0
  -30.8573  -23.0962   18.5020 C   0  0  0  0  0  0  0  0  0  0  0  0
  -26.4896  -11.0546   21.8490 C   0  0  0  0  0  0  0  0  0  0  0  0
  -27.3529  -25.4517   22.2462 C   0  0  0  0  0  0  0  0  0  0  0  0
  -24.6847   -9.5529   21.7510 C   0  0  0  0  0  0  0  0  0  0  0  0
  -22.0514   -9.0192   21.0004 C   0  0  0  0  0  0  0  0  0  0  0  0
  -24.4104   -8.5177   20.8573 C   0  0  0  0  0  0  0  0  0  0  0  0
  -28.0377  -14.8966   20.9888 C   0  0  0  0  0  0  0  0  0  0  0  0
  -31.8997  -25.2108   18.8161 C   0  0  0  0  0  0  0  0  0  0  0  0
  -30.3217  -24.5151   20.3340 C   0  0  0  0  0  0  0  0  0  0  0  0
  -29.3127  -16.5735   20.3580 C   0  0  0  0  0  0  0  0  0  0  0  0
  -30.3566  -14.3254   20.0339 C   0  0  0  0  0  0  0  0  0  0  0  0
  -22.7668  -24.8473   25.0864 C   0  0  0  0  0  0  0  0  0  0  0  0
  -21.6479  -27.5346   23.6550 C   0  0  0  0  0  0  0  0  0  0  0  0
  -22.1790  -30.0687   21.4317 C   0  0  0  0  0  0  0  0  0  0  0  0
  -26.8231  -21.4041   19.0882 C   0  0  0  0  0  0  0  0  0  0  0  0
  -21.6535  -22.0756   29.2260 C   0  0  0  0  0  0  0  0  0  0  0  0
  -24.6752  -26.4507   25.4645 C   0  0  0  0  0  0  0  0  0  0  0  0
  -23.7297  -26.5109   22.6632 C   0  0  0  0  0  0  0  0  0  0  0  0
  -20.8858  -23.0230   28.3075 C   0  0  0  0  0  0  0  0  0  0  0  0
  -26.1634  -20.0215   22.3022 C   0  0  0  0  0  0  0  0  0  0  0  0
  -21.1241  -22.6589   26.8455 C   0  0  0  0  0  0  0  0  0  0  0  0
  -26.6902  -18.5890   22.1993 C   0  0  0  0  0  0  0  0  0  0  0  0
  -25.5312  -20.4858   20.9919 C   0  0  0  0  0  0  0  0  0  0  0  0
  -26.9204  -18.9118   19.7010 C   0  0  0  0  0  0  0  0  0  0  0  0
  -22.6072  -22.7913   26.4786 C   0  0  1  0  0  0  0  0  0  0  0  0
  -23.2004  -26.2857   25.1110 C   0  0  1  0  0  0  0  0  0  0  0  0
  -27.6172  -18.4187   20.9807 C   0  0  2  0  0  0  0  0  0  0  0  0
  -32.8665  -26.2599   18.3786 C   0  0  0  0  0  0  0  0  0  0  0  0
  -21.0670  -32.0920   20.4485 C   0  0  0  0  0  0  0  0  0  0  0  0
  -19.9249  -25.7308   21.8979 C   0  0  0  0  0  0  0  0  0  0  0  0
  -19.5870  -27.6736   20.3553 C   0  0  0  0  0  0  0  0  0  0  0  0
  -18.7777  -27.7986   22.7116 C   0  0  0  0  0  0  0  0  0  0  0  0
  -24.2734  -31.8750   22.4852 C   0  0  0  0  0  0  0  0  0  0  0  0
  -30.6753  -21.8316   17.7331 C   0  0  0  0  0  0  0  0  0  0  0  0
  -29.5404  -24.7936   21.5843 C   0  0  0  0  0  0  0  0  0  1  0  0
  -29.5925  -21.9007   16.6380 C   0  0  0  0  0  0  0  0  0  0  0  0
  -28.1850  -22.1765   17.1626 C   0  0  0  0  0  0  0  0  0  0  0  0
  -21.2600  -27.9130   22.2460 C   0  0  1  0  0  0  0  0  0  0  0  0
  -21.9786  -31.5689   21.5476 C   0  0  2  0  0  0  0  0  0  0  0  0
  -19.9136  -27.2699   21.8090 C   0  0  0  0  0  0  0  0  0  0  0  0
  -27.3072  -15.9859   21.2414 N   0  0  0  0  0  0  0  0  0  0  0  0
  -31.1973  -25.4677   19.9423 N   0  0  0  0  0  0  0  0  0  0  0  0
  -28.1095  -16.9894   20.8474 N   0  0  0  0  0  0  0  0  0  0  0  0
  -22.8652  -26.8551   23.8041 N   0  0  0  0  0  0  0  0  0  0  0  0
  -26.4623  -20.2989   19.8765 N   0  0  0  0  0  0  0  0  0  0  0  0
  -30.2385  -17.4518   19.9178 N   0  0  0  0  0  0  0  0  0  0  0  0
  -30.1747  -12.9439   20.1845 N   0  0  0  0  0  0  0  0  0  0  0  0
  -22.9570  -24.1818   26.2824 N   0  0  0  0  0  0  0  0  0  0  0  0
  -21.2692  -29.3711   22.1978 N   0  0  0  0  0  0  0  0  0  0  0  0
  -27.7150  -21.1410   18.0557 N   0  0  0  0  0  0  0  0  0  0  0  0
  -23.2870  -32.2755   21.4490 N   0  3  0  0  0  0  0  0  0  0  0  0
  -31.4396  -14.7550   19.5690 O   0  0  0  0  0  0  0  0  0  0  0  0
  -22.2934  -24.3764   24.0588 O   0  0  0  0  0  0  0  0  0  0  0  0
  -20.9019  -27.8372   24.5896 O   0  0  0  0  0  0  0  0  0  0  0  0
  -23.0528  -29.5657   20.7287 O   0  0  0  0  0  0  0  0  0  0  0  0
  -26.3871  -22.5421   19.2929 O   0  0  0  0  0  0  0  0  0  0  0  0
  -25.9913   -9.8185   22.1252 O   0  0  0  0  0  0  0  0  0  0  0  0
  -28.2024  -25.1406   21.2296 O   0  0  0  0  0  0  0  0  0  1  0  0
  -20.7869   -8.7621   20.6412 F   0  0  0  0  0  0  0  0  0  0  0  0
  -25.4076   -7.7753   20.3568 F   0  0  0  0  0  0  0  0  0  0  0  0
  1  2  1  0  0  0  0
  1  5  2  0  0  0  0
  2  6  2  0  0  0  0
  3  8  2  0  0  0  0
  3 17  1  0  0  0  0
  4  9  1  0  0  0  0
  4 17  2  0  0  0  0
  5 19  1  0  0  0  0
  6 21  1  0  0  0  0
  7 10  2  0  0  0  0
  7 20  1  0  0  0  0
  8 24  1  0  0  0  0
  9 24  2  0  0  0  0
 10 25  1  0  0  0  0
 11 12  2  0  0  0  0
 11 26  1  0  0  0  0
 12 27  1  0  0  0  0
 13 22  1  0  0  0  0
 13 25  2  0  0  0  0
 14 23  1  0  0  0  0
 14 30  2  0  0  0  0
 15 23  2  0  0  0  0
 15 31  1  0  0  0  0
 16 27  2  0  0  0  0
 16 28  1  0  0  0  0
 17 29  1  0  0  0  0
 18 29  1  0  0  0  0
 18 32  2  0  0  0  0
 18 33  1  0  0  0  0
 19 21  2  0  0  0  0
 19 38  1  0  0  0  0
 20 22  2  0  0  0  0
 20 39  1  0  0  0  0
 21 47  1  0  0  0  0
 22 40  1  0  0  0  0
 23 56  1  0  0  0  0
 24 79  1  0  0  0  0
 25 80  1  0  0  0  0
 26 28  2  0  0  0  0
 26 79  1  0  0  0  0
 27 81  1  0  0  0  0
 28 82  1  0  0  0  0
 29 63  2  0  0  0  0
 30 50  1  0  0  0  0
 30 64  1  0  0  0  0
 31 57  1  0  0  0  0
 31 64  2  0  0  0  0
 32 65  1  0  0  0  0
 32 68  1  0  0  0  0
 33 69  1  0  0  0  0
 33 74  2  0  0  0  0
 34 48  1  0  0  0  0
 34 70  1  0  0  0  0
 34 75  2  0  0  0  0
 35 60  1  0  0  0  0
 35 66  1  0  0  0  0
 35 76  2  0  0  0  0
 36 61  1  0  0  0  0
 36 71  1  0  0  0  0
 36 77  2  0  0  0  0
 37 67  1  0  0  0  0
 37 72  1  0  0  0  0
 37 78  2  0  0  0  0
 38 41  1  0  0  0  0
 39 48  1  0  0  0  0
 40 66  1  0  0  0  0
 41 43  1  0  0  0  0
 42 44  1  0  0  0  0
 42 45  1  0  0  0  0
 43 47  1  0  0  0  0
 44 49  1  0  0  0  0
 45 67  1  0  0  0  0
 46 49  1  0  0  0  0
 46 67  1  0  0  0  0
 47 70  1  0  0  0  0
 48 66  1  0  0  0  0
 49 65  1  0  0  0  0
 51 61  1  0  0  0  0
 52 62  1  0  0  0  0
 53 62  1  0  0  0  0
 54 62  1  0  0  0  0
 55 73  1  0  0  0  0
 56 58  1  0  0  0  0
 57 80  1  0  0  0  0
 58 59  1  0  0  0  0
 59 72  1  0  0  0  0
 60 62  1  0  0  0  0
 60 71  1  0  0  0  0
 61 73  1  0  0  0  0
 63 65  1  0  0  0  0
M  CHG  1  73   1
M  ISO  4  37 100  57 101  72 100  80 101
M  END
> <Batch ID>
0041

> <Smiles>
CNC(C)C(=O)NC(C(=O)N1Cc2cc([101O:1][101CH2:1]c3cc(CCC[100NH:0][100C:0](=O)N4CCCC(n5nc(-c6ccc(Oc7ccc(F)cc7F)cc6)c(C(N)=O)c5N)C4)cc(C)n3)ccc2CC1C(=O)NC1CCCc2ccccc21)C(C)(C)C

> <Shape>
0.204

> <Color>
0.083

> <Negative vol penalty>
0.000

$$$$

  -OEChem-04052317093D

 88 96  0     1  0  0  0  0  0999 V2000
  -19.0142  -19.1282   25.3615 C   0  0  0  0  0  0  0  0  0  0  0  0
  -20.3844  -19.3144   25.5134 C   0  0  0  0  0  0  0  0  0  0  0  0
  -25.5816  -14.0138   20.2610 C   0  0  0  0  0  0  0  0  0  0  0  0
  -25.5466  -14.7858   22.5501 C   0  0  0  0  0  0  0  0  0  0  0  0
  -18.3324  -19.7820   24.3360 C   0  0  0  0  0  0  0  0  0  0  0  0
  -21.0740  -20.1537   24.6390 C   0  0  0  0  0  0  0  0  0  0  0  0
  -26.6207  -24.6833   24.4581 C   0  0  0  0  0  0  0  0  0  0  0  0
  -24.5525  -13.1169   20.5477 C   0  0  0  0  0  0  0  0  0  0  0  0
  -24.5174  -13.8890   22.8368 C   0  0  0  0  0  0  0  0  0  0  0  0
  -27.7864  -24.9303   23.7342 C   0  0  0  0  0  0  0  0  0  0  0  0
  -24.2210  -10.0984   22.0320 C   0  0  0  0  0  0  0  0  0  0  0  0
  -24.3461   -8.7947   21.5523 C   0  0  0  0  0  0  0  0  0  0  0  0
  -26.4907  -26.0696   22.0482 C   0  0  0  0  0  0  0  0  0  0  0  0
  -32.2709  -25.2675   20.1662 C   0  0  0  0  0  0  0  0  0  0  0  0
  -22.3059   -9.0646   20.2866 C   0  0  0  0  0  0  0  0  0  0  0  0
  -26.0787  -14.8481   21.2622 C   0  0  0  0  0  0  0  0  0  0  0  0
  -28.4336  -15.4650   20.4994 C   0  0  0  0  0  0  0  0  0  0  0  0
  -19.0123  -20.6373   23.4546 C   0  0  0  0  0  0  0  0  0  0  0  0
  -25.3779  -25.1188   23.9762 C   0  0  0  0  0  0  0  0  0  0  0  0
  -20.4009  -20.8185   23.5999 C   0  0  0  0  0  0  0  0  0  0  0  0
  -25.3111  -25.8291   22.7691 C   0  0  0  0  0  0  0  0  0  0  0  0
  -31.3745  -26.3322   20.4302 C   0  0  0  0  0  0  0  0  0  0  0  0
  -24.0203  -13.0546   21.8355 C   0  0  0  0  0  0  0  0  0  0  0  0
  -27.7212  -25.6211   22.5276 C   0  0  0  0  0  0  0  0  0  0  0  0
  -23.1383  -10.8853   21.6391 C   0  0  0  0  0  0  0  0  0  0  0  0
  -23.3886   -8.2778   20.6795 C   0  0  0  0  0  0  0  0  0  0  0  0
  -22.1808  -10.3684   20.7663 C   0  0  0  0  0  0  0  0  0  0  0  0
  -27.1422  -15.7743   20.9668 C   0  0  0  0  0  0  0  0  0  0  0  0
  -32.2865  -25.0714   18.8029 C   0  0  0  0  0  0  0  0  0  0  0  0
  -30.8694  -26.7543   19.2202 C   0  0  0  0  0  0  0  0  0  0  0  0
  -29.0557  -16.6834   20.3777 C   0  0  0  0  0  0  0  0  0  0  0  0
  -29.0184  -14.1902   20.2016 C   0  0  0  0  0  0  0  0  0  0  0  0
  -22.6841  -23.6795   23.0955 C   0  0  0  0  0  0  0  0  0  0  0  0
  -21.5938  -26.7251   22.8546 C   0  0  0  0  0  0  0  0  0  0  0  0
  -28.9222  -22.0196   18.7055 C   0  0  0  0  0  0  0  0  0  0  0  0
  -22.3109  -30.0332   22.4199 C   0  0  0  0  0  0  0  0  0  0  0  0
  -18.2409  -21.2852   22.3322 C   0  0  0  0  0  0  0  0  0  0  0  0
  -24.1330  -24.8677   24.7822 C   0  0  0  0  0  0  0  0  0  0  0  0
  -24.0040  -26.3356   22.2184 C   0  0  0  0  0  0  0  0  0  0  0  0
  -18.9794  -22.4505   21.6789 C   0  0  0  0  0  0  0  0  0  0  0  0
  -27.6746  -21.2697   21.9797 C   0  0  0  0  0  0  0  0  0  0  0  0
  -20.4284  -22.0703   21.3913 C   0  0  0  0  0  0  0  0  0  0  0  0
  -27.5024  -19.7515   21.9593 C   0  0  0  0  0  0  0  0  0  0  0  0
  -27.3624  -21.8855   20.6194 C   0  0  0  0  0  0  0  0  0  0  0  0
  -27.9810  -19.7835   19.4703 C   0  0  0  0  0  0  0  0  0  0  0  0
  -21.1797  -21.7403   22.6868 C   0  0  1  0  0  0  0  0  0  0  0  0
  -22.8596  -24.9078   23.9430 C   0  0  1  0  0  0  0  0  0  0  0  0
  -28.3163  -19.1182   20.8169 C   0  0  2  0  0  0  0  0  0  0  0  0
  -29.9001  -27.8283   18.9150 C   0  0  0  0  0  0  0  0  0  0  0  0
  -21.2083  -32.2794   22.2297 C   0  0  0  0  0  0  0  0  0  0  0  0
  -20.7346  -26.0592   20.0036 C   0  0  0  0  0  0  0  0  0  0  0  0
  -20.5334  -28.5159   19.5647 C   0  0  0  0  0  0  0  0  0  0  0  0
  -19.0935  -27.4374   21.2927 C   0  0  0  0  0  0  0  0  0  0  0  0
  -31.1612  -26.1042   16.8209 C   0  0  0  0  0  0  0  0  0  0  0  0
  -23.7166  -31.0552   24.8154 C   0  0  0  0  0  0  0  0  0  0  0  0
  -31.0405  -26.8951   21.7903 C   0  0  0  0  0  0  0  0  0  0  0  0
  -33.0459  -24.0943   17.9958 C   0  0  0  0  0  0  0  0  0  0  0  0
  -32.0125  -22.0038   18.5651 C   0  0  0  0  0  0  0  0  0  0  0  0
  -30.0671  -26.0098   22.5611 C   0  0  0  0  0  0  0  0  0  1  0  0
  -21.5567  -27.7639   21.7598 C   0  0  1  0  0  0  0  0  0  0  0  0
  -21.8505  -31.2706   23.1691 C   0  0  2  0  0  0  0  0  0  0  0  0
  -29.6961  -21.2851   17.6398 C   0  0  0  0  0  0  0  0  0  0  0  0
  -20.5041  -27.4330   20.6643 C   0  0  0  0  0  0  0  0  0  0  0  0
  -31.0777  -20.8802   18.1274 C   0  0  0  0  0  0  0  0  0  0  0  0
  -26.9539  -17.0864   21.1311 N   0  0  0  0  0  0  0  0  0  0  0  0
  -31.4306  -25.9806   18.2381 N   0  0  0  0  0  0  0  0  0  0  0  0
  -28.1352  -17.6123   20.7650 N   0  0  0  0  0  0  0  0  0  0  0  0
  -22.8139  -26.0597   23.0400 N   0  0  0  0  0  0  0  0  0  0  0  0
  -28.1388  -21.2418   19.5583 N   0  0  0  0  0  0  0  0  0  0  0  0
  -30.2950  -17.0401   19.9785 N   0  0  0  0  0  0  0  0  0  0  0  0
  -29.6905  -13.5081   21.2250 N   0  0  0  0  0  0  0  0  0  0  0  0
  -21.5430  -22.9555   23.3838 N   0  0  0  0  0  0  0  0  0  0  0  0
  -21.3472  -29.0471   22.4216 N   0  0  0  0  0  0  0  0  0  0  0  0
  -32.2270  -23.0012   17.5203 N   0  0  0  0  0  0  0  0  0  0  0  0
  -23.0055  -31.9267   23.8448 N   0  3  0  0  0  0  0  0  0  0  0  0
  -28.9612  -13.6789   19.0576 O   0  0  0  0  0  0  0  0  0  0  0  0
  -23.5211  -23.4096   22.2422 O   0  0  0  0  0  0  0  0  0  0  0  0
  -20.5797  -26.5170   23.5254 O   0  0  0  0  0  0  0  0  0  0  0  0
  -29.0148  -23.2478   18.7781 O   0  0  0  0  0  0  0  0  0  0  0  0
  -23.4136  -29.9512   21.8833 O   0  0  0  0  0  0  0  0  0  0  0  0
  -23.0159  -12.1798   22.1156 O   0  0  0  0  0  0  0  0  0  0  0  0
  -28.8573  -25.8630   21.8188 O   0  0  0  0  0  0  0  0  0  1  0  0
  -23.5097   -7.0263   20.2177 F   0  0  0  0  0  0  0  0  0  0  0  0
  -21.1391  -11.1199   20.3844 F   0  0  0  0  0  0  0  0  0  0  0  0
  -29.0148  -20.1884   17.2190 F   0  0  0  0  0  0  0  0  0  0  0  0
  -29.8472  -22.0779   16.5435 F   0  0  0  0  0  0  0  0  0  0  0  0
  -30.9299  -20.0086   19.1637 F   0  0  0  0  0  0  0  0  0  0  0  0
  -31.6981  -20.1769   17.1385 F   0  0  0  0  0  0  0  0  0  0  0  0
  1  2  1  0  0  0  0
  1  5  2  0  0  0  0
  2  6  2  0  0  0  0
  3  8  2  0  0  0  0
  3 16  1  0  0  0  0
  4  9  1  0  0  0  0
  4 16  2  0  0  0  0
  5 18  1  0  0  0  0
  6 20  1  0  0  0  0
  7 10  2  0  0  0  0
  7 19  1  0  0  0  0
  8 23  1  0  0  0  0
  9 23  2  0  0  0  0
 10 24  1  0  0  0  0
 11 12  2  0  0  0  0
 11 25  1  0  0  0  0
 12 26  1  0  0  0  0
 13 21  1  0  0  0  0
 13 24  2  0  0  0  0
 14 22  1  0  0  0  0
 14 29  2  0  0  0  0
 15 26  2  0  0  0  0
 15 27  1  0  0  0  0
 16 28  1  0  0  0  0
 17 28  1  0  0  0  0
 17 31  2  0  0  0  0
 17 32  1  0  0  0  0
 18 20  2  0  0  0  0
 18 37  1  0  0  0  0
 19 21  2  0  0  0  0
 19 38  1  0  0  0  0
 20 46  1  0  0  0  0
 21 39  1  0  0  0  0
 22 30  2  0  0  0  0
 22 56  1  0  0  0  0
 23 81  1  0  0  0  0
 24 82  1  0  0  0  0
 25 27  2  0  0  0  0
 25 81  1  0  0  0  0
 26 83  1  0  0  0  0
 27 84  1  0  0  0  0
 28 65  2  0  0  0  0
 29 57  1  0  0  0  0
 29 66  1  0  0  0  0
 30 49  1  0  0  0  0
 30 66  1  0  0  0  0
 31 67  1  0  0  0  0
 31 70  1  0  0  0  0
 32 71  1  0  0  0  0
 32 76  2  0  0  0  0
 33 47  1  0  0  0  0
 33 72  1  0  0  0  0
 33 77  2  0  0  0  0
 34 60  1  0  0  0  0
 34 68  1  0  0  0  0
 34 78  2  0  0  0  0
 35 62  1  0  0  0  0
 35 69  1  0  0  0  0
 35 79  2  0  0  0  0
 36 61  1  0  0  0  0
 36 73  1  0  0  0  0
 36 80  2  0  0  0  0
 37 40  1  0  0  0  0
 38 47  1  0  0  0  0
 39 68  1  0  0  0  0
 40 42  1  0  0  0  0
 41 43  1  0  0  0  0
 41 44  1  0  0  0  0
 42 46  1  0  0  0  0
 43 48  1  0  0  0  0
 44 69  1  0  0  0  0
 45 48  1  0  0  0  0
 45 69  1  0  0  0  0
 46 72  1  0  0  0  0
 47 68  1  0  0  0  0
 48 67  1  0  0  0  0
 50 61  1  0  0  0  0
 51 63  1  0  0  0  0
 52 63  1  0  0  0  0
 53 63  1  0  0  0  0
 54 66  1  0  0  0  0
 55 75  1  0  0  0  0
 56 59  1  0  0  0  0
 57 74  1  0  0  0  0
 58 64  1  0  0  0  0
 58 74  1  0  0  0  0
 59 82  1  0  0  0  0
 60 63  1  0  0  0  0
 60 73  1  0  0  0  0
 61 75  1  0  0  0  0
 62 64  1  0  0  0  0
 62 85  1  0  0  0  0
 62 86  1  0  0  0  0
 64 87  1  0  0  0  0
 64 88  1  0  0  0  0
 65 67  1  0  0  0  0
M  CHG  1  75   1
M  ISO  4  35 100  59 101  62 100  82 101
M  END
> <Batch ID>
0041

> <Smiles>
CNC(C)C(=O)NC(C(=O)N1Cc2cc([101O:1][101CH2:1]Cc3cc(CNCC(F)(F)[100C:0](F)(F)[100C:0](=O)N4CCCC(n5nc(-c6ccc(Oc7ccc(F)cc7F)cc6)c(C(N)=O)c5N)C4)n(C)c3C)ccc2CC1C(=O)NC1CCCc2ccccc21)C(C)(C)C

> <Shape>
0.225

> <Color>
0.068

> <Negative vol penalty>
0.000

$$$$

  -OEChem-04052317093D

 85 93  0     1  0  0  0  0  0999 V2000
  -23.9834  -33.9309   21.5915 C   0  0  0  0  0  0  0  0  0  0  0  0
  -23.8039  -32.9292   20.6429 C   0  0  0  0  0  0  0  0  0  0  0  0
  -24.8517   -8.6452   20.7950 C   0  0  0  0  0  0  0  0  0  0  0  0
  -23.2364  -10.3068   20.1113 C   0  0  0  0  0  0  0  0  0  0  0  0
  -25.2527  -34.1752   22.1141 C   0  0  0  0  0  0  0  0  0  0  0  0
  -24.8940  -32.1719   20.2156 C   0  0  0  0  0  0  0  0  0  0  0  0
  -23.8530  -27.2208   19.9951 C   0  0  0  0  0  0  0  0  0  0  0  0
  -23.8241   -7.8631   21.3220 C   0  0  0  0  0  0  0  0  0  0  0  0
  -22.2088   -9.5245   20.6383 C   0  0  0  0  0  0  0  0  0  0  0  0
  -23.1203  -26.7726   18.8969 C   0  0  0  0  0  0  0  0  0  0  0  0
  -21.9175   -7.8070   24.1124 C   0  0  0  0  0  0  0  0  0  0  0  0
  -22.1126   -7.2469   25.3748 C   0  0  0  0  0  0  0  0  0  0  0  0
  -25.1589  -26.0135   17.8542 C   0  0  0  0  0  0  0  0  0  0  0  0
  -23.6957  -21.4772   14.9411 C   0  0  0  0  0  0  0  0  0  0  0  0
  -21.8578   -5.0364   24.4334 C   0  0  0  0  0  0  0  0  0  0  0  0
  -22.3069  -22.3009   17.1408 C   0  0  0  0  0  0  0  0  0  0  0  0
  -24.5579   -9.8672   20.1897 C   0  0  0  0  0  0  0  0  0  0  0  0
  -26.1321  -10.6357   18.3353 C   0  0  0  0  0  0  0  0  0  0  0  0
  -26.3571  -33.4141   21.7001 C   0  0  0  0  0  0  0  0  0  0  0  0
  -25.2477  -27.0784   20.0263 C   0  0  0  0  0  0  0  0  0  0  0  0
  -26.1795  -32.4071   20.7322 C   0  0  0  0  0  0  0  0  0  0  0  0
  -25.9067  -26.4585   18.9551 C   0  0  0  0  0  0  0  0  0  0  0  0
  -22.9029  -22.6166   14.8600 C   0  0  0  0  0  0  0  0  0  0  0  0
  -22.1920  -23.0430   15.9763 C   0  0  0  0  0  0  0  0  0  0  0  0
  -22.5026   -8.3027   21.2437 C   0  0  0  0  0  0  0  0  0  0  0  0
  -23.7735  -26.1714   17.8250 C   0  0  0  0  0  0  0  0  0  0  0  0
  -21.6924   -6.9819   23.0104 C   0  0  0  0  0  0  0  0  0  0  0  0
  -22.0828   -5.8616   25.5353 C   0  0  0  0  0  0  0  0  0  0  0  0
  -21.6626   -5.5966   23.1709 C   0  0  0  0  0  0  0  0  0  0  0  0
  -25.6190  -10.6759   19.6456 C   0  0  0  0  0  0  0  0  0  0  0  0
  -23.7435  -20.8053   16.1519 C   0  0  0  0  0  0  0  0  0  0  0  0
  -27.1187  -11.5912   18.3234 C   0  0  0  0  0  0  0  0  0  0  0  0
  -25.7508   -9.8088   17.2278 C   0  0  0  0  0  0  0  0  0  0  0  0
  -27.7052  -29.0894   20.1683 C   0  0  0  0  0  0  0  0  0  0  0  0
  -29.4253  -26.3538   20.4506 C   0  0  0  0  0  0  0  0  0  0  0  0
  -29.6390  -22.9946   19.8874 C   0  0  0  0  0  0  0  0  0  0  0  0
  -28.9671  -16.6945   19.6214 C   0  0  0  0  0  0  0  0  0  0  0  0
  -27.7182  -33.7465   22.2585 C   0  0  0  0  0  0  0  0  0  0  0  0
  -26.0207  -27.5431   21.2300 C   0  0  0  0  0  0  0  0  0  0  0  0
  -27.4001  -26.2635   18.9487 C   0  0  0  0  0  0  0  0  0  0  0  0
  -28.7549  -32.6496   22.0297 C   0  0  0  0  0  0  0  0  0  0  0  0
  -29.2492  -14.1710   22.1171 C   0  0  0  0  0  0  0  0  0  0  0  0
  -28.7019  -32.1576   20.5868 C   0  0  0  0  0  0  0  0  0  0  0  0
  -28.3677  -13.0367   21.5916 C   0  0  0  0  0  0  0  0  0  0  0  0
  -28.6590  -15.5414   21.7920 C   0  0  0  0  0  0  0  0  0  0  0  0
  -27.4635  -14.6240   19.8418 C   0  0  0  0  0  0  0  0  0  0  0  0
  -27.3330  -31.5478   20.2618 C   0  0  1  0  0  0  0  0  0  0  0  0
  -27.4920  -27.8110   20.9284 C   0  0  1  0  0  0  0  0  0  0  0  0
  -28.0458  -13.2232   20.0966 C   0  0  2  0  0  0  0  0  0  0  0  0
  -22.8302  -23.3635   13.5696 C   0  0  0  0  0  0  0  0  0  0  0  0
  -31.1821  -21.0398   20.1954 C   0  0  0  0  0  0  0  0  0  0  0  0
  -31.1196  -27.3249   18.1062 C   0  0  0  0  0  0  0  0  0  0  0  0
  -31.9847  -24.9890   17.8541 C   0  0  0  0  0  0  0  0  0  0  0  0
  -32.4164  -26.2567   19.9587 C   0  0  0  0  0  0  0  0  0  0  0  0
  -27.6952  -21.5843   21.6170 C   0  0  0  0  0  0  0  0  0  0  0  0
  -21.3162  -24.2719   15.9441 C   0  0  0  0  0  0  0  0  0  0  0  0
  -24.5838  -19.5783   16.2754 C   0  0  0  0  0  0  0  0  0  0  0  0
  -26.0174  -19.8990   16.7234 C   0  0  0  0  0  0  0  0  0  0  0  0
  -26.8805  -18.6384   16.8085 C   0  0  0  0  0  0  0  0  0  0  0  0
  -28.2957  -18.9662   17.2938 C   0  0  0  0  0  0  0  0  0  0  0  0
  -29.1870  -17.7315   17.3774 C   0  0  0  0  0  0  0  0  0  0  0  0
  -21.7225  -25.3011   16.9932 C   0  0  0  0  0  0  0  0  0  1  0  0
  -30.0853  -25.4012   19.4831 C   0  0  1  0  0  0  0  0  0  0  0  0
  -30.0390  -21.8447   20.7940 C   0  0  2  0  0  0  0  0  0  0  0  0
  -31.3736  -25.9982   18.8495 C   0  0  0  0  0  0  0  0  0  0  0  0
  -23.0671  -21.1890   17.2577 N   0  0  0  0  0  0  0  0  0  0  0  0
  -26.2294  -11.5848   20.4107 N   0  0  0  0  0  0  0  0  0  0  0  0
  -27.1362  -12.1246   19.5786 N   0  0  0  0  0  0  0  0  0  0  0  0
  -28.1125  -26.7402   20.1456 N   0  0  0  0  0  0  0  0  0  0  0  0
  -28.3782  -15.6541   20.3587 N   0  0  0  0  0  0  0  0  0  0  0  0
  -27.9643  -12.0187   17.3619 N   0  0  0  0  0  0  0  0  0  0  0  0
  -24.7180   -8.8795   17.4123 N   0  0  0  0  0  0  0  0  0  0  0  0
  -27.2295  -30.2143   20.8146 N   0  0  0  0  0  0  0  0  0  0  0  0
  -30.3008  -24.1586   20.2166 N   0  0  0  0  0  0  0  0  0  0  0  0
  -28.6536  -16.7250   18.2681 N   0  0  0  0  0  0  0  0  0  0  0  0
  -28.8829  -20.9296   21.0108 N   0  3  0  0  0  0  0  0  0  0  0  0
  -26.3206   -9.8800   16.1126 O   0  0  0  0  0  0  0  0  0  0  0  0
  -28.2615  -29.0578   19.0768 O   0  0  0  0  0  0  0  0  0  0  0  0
  -30.0489  -26.7351   21.4443 O   0  0  0  0  0  0  0  0  0  0  0  0
  -28.8239  -22.8716   18.9757 O   0  0  0  0  0  0  0  0  0  0  0  0
  -29.7210  -17.5310   20.1303 O   0  0  0  0  0  0  0  0  0  0  0  0
  -21.4996   -7.5396   21.7576 O   0  0  0  0  0  0  0  0  0  0  0  0
  -23.0608  -25.7335   16.7516 O   0  0  0  0  0  0  0  0  0  1  0  0
  -22.2718   -5.3237   26.7474 F   0  0  0  0  0  0  0  0  0  0  0  0
  -21.4480   -4.7988   22.1158 F   0  0  0  0  0  0  0  0  0  0  0  0
  1  2  1  0  0  0  0
  1  5  2  0  0  0  0
  2  6  2  0  0  0  0
  3  8  2  0  0  0  0
  3 17  1  0  0  0  0
  4  9  1  0  0  0  0
  4 17  2  0  0  0  0
  5 19  1  0  0  0  0
  6 21  1  0  0  0  0
  7 10  2  0  0  0  0
  7 20  1  0  0  0  0
  8 25  1  0  0  0  0
  9 25  2  0  0  0  0
 10 26  1  0  0  0  0
 11 12  2  0  0  0  0
 11 27  1  0  0  0  0
 12 28  1  0  0  0  0
 13 22  1  0  0  0  0
 13 26  2  0  0  0  0
 14 23  1  0  0  0  0
 14 31  2  0  0  0  0
 15 28  2  0  0  0  0
 15 29  1  0  0  0  0
 16 24  1  0  0  0  0
 16 66  2  0  0  0  0
 17 30  1  0  0  0  0
 18 30  1  0  0  0  0
 18 32  2  0  0  0  0
 18 33  1  0  0  0  0
 19 21  2  0  0  0  0
 19 38  1  0  0  0  0
 20 22  2  0  0  0  0
 20 39  1  0  0  0  0
 21 47  1  0  0  0  0
 22 40  1  0  0  0  0
 23 24  2  0  0  0  0
 23 50  1  0  0  0  0
 24 56  1  0  0  0  0
 25 82  1  0  0  0  0
 26 83  1  0  0  0  0
 27 29  2  0  0  0  0
 27 82  1  0  0  0  0
 28 84  1  0  0  0  0
 29 85  1  0  0  0  0
 30 67  2  0  0  0  0
 31 57  1  0  0  0  0
 31 66  1  0  0  0  0
 32 68  1  0  0  0  0
 32 71  1  0  0  0  0
 33 72  1  0  0  0  0
 33 77  2  0  0  0  0
 34 48  1  0  0  0  0
 34 73  1  0  0  0  0
 34 78  2  0  0  0  0
 35 63  1  0  0  0  0
 35 69  1  0  0  0  0
 35 79  2  0  0  0  0
 36 64  1  0  0  0  0
 36 74  1  0  0  0  0
 36 80  2  0  0  0  0
 37 70  1  0  0  0  0
 37 75  1  0  0  0  0
 37 81  2  0  0  0  0
 38 41  1  0  0  0  0
 39 48  1  0  0  0  0
 40 69  1  0  0  0  0
 41 43  1  0  0  0  0
 42 44  1  0  0  0  0
 42 45  1  0  0  0  0
 43 47  1  0  0  0  0
 44 49  1  0  0  0  0
 45 70  1  0  0  0  0
 46 49  1  0  0  0  0
 46 70  1  0  0  0  0
 47 73  1  0  0  0  0
 48 69  1  0  0  0  0
 49 68  1  0  0  0  0
 51 64  1  0  0  0  0
 52 65  1  0  0  0  0
 53 65  1  0  0  0  0
 54 65  1  0  0  0  0
 55 76  1  0  0  0  0
 56 62  1  0  0  0  0
 57 58  1  0  0  0  0
 58 59  1  0  0  0  0
 59 60  1  0  0  0  0
 60 61  1  0  0  0  0
 61 75  1  0  0  0  0
 62 83  1  0  0  0  0
 63 65  1  0  0  0  0
 63 74  1  0  0  0  0
 64 76  1  0  0  0  0
 67 68  1  0  0  0  0
M  CHG  1  76   1
M  ISO  4  37 100  62 101  75 100  83 101
M  END
> <Batch ID>
0041

> <Smiles>
CNC(C)C(=O)NC(C(=O)N1Cc2cc([101O:1][101CH2:1]Cc3cnc(CCCCC[100NH:0][100C:0](=O)N4CCCC(n5nc(-c6ccc(Oc7ccc(F)cc7F)cc6)c(C(N)=O)c5N)C4)cc3C)ccc2CC1C(=O)NC1CCCc2ccccc21)C(C)(C)C

> <Shape>
0.256

> <Color>
0.078

> <Negative vol penalty>
0.000

$$$$

  -OEChem-04052317093D

 86 94  0     1  0  0  0  0  0999 V2000
  -16.9704  -27.7011   22.6138 C   0  0  0  0  0  0  0  0  0  0  0  0
  -18.0621  -27.0197   22.0852 C   0  0  0  0  0  0  0  0  0  0  0  0
  -23.0694   -9.8063   19.9687 C   0  0  0  0  0  0  0  0  0  0  0  0
  -23.7747   -9.8982   22.2777 C   0  0  0  0  0  0  0  0  0  0  0  0
  -17.0416  -29.0787   22.8167 C   0  0  0  0  0  0  0  0  0  0  0  0
  -19.2253  -27.7157   21.7581 C   0  0  0  0  0  0  0  0  0  0  0  0
  -23.4147  -25.3463   23.3328 C   0  0  0  0  0  0  0  0  0  0  0  0
  -22.3315   -8.6541   20.2400 C   0  0  0  0  0  0  0  0  0  0  0  0
  -23.0367   -8.7460   22.5490 C   0  0  0  0  0  0  0  0  0  0  0  0
  -23.8575  -24.2640   22.5737 C   0  0  0  0  0  0  0  0  0  0  0  0
  -23.3740   -5.4106   22.1108 C   0  0  0  0  0  0  0  0  0  0  0  0
  -23.9826   -4.4166   22.8771 C   0  0  0  0  0  0  0  0  0  0  0  0
  -25.5006  -25.6822   21.5211 C   0  0  0  0  0  0  0  0  0  0  0  0
  -26.6643  -20.8127   20.3971 C   0  0  0  0  0  0  0  0  0  0  0  0
  -22.2396   -4.6288   24.5366 C   0  0  0  0  0  0  0  0  0  0  0  0
  -23.7911  -10.4283   20.9876 C   0  0  0  0  0  0  0  0  0  0  0  0
  -24.1103  -12.9515   20.7905 C   0  0  0  0  0  0  0  0  0  0  0  0
  -18.2097  -29.7904   22.5009 C   0  0  0  0  0  0  0  0  0  0  0  0
  -24.0053  -26.6094   23.1836 C   0  0  0  0  0  0  0  0  0  0  0  0
  -19.3117  -29.1043   21.9557 C   0  0  0  0  0  0  0  0  0  0  0  0
  -25.0652  -26.7783   22.2813 C   0  0  0  0  0  0  0  0  0  0  0  0
  -25.3110  -21.0925   20.2437 C   0  0  0  0  0  0  0  0  0  0  0  0
  -24.5717  -20.4155   19.2802 C   0  0  0  0  0  0  0  0  0  0  0  0
  -22.3150   -8.1240   21.5301 C   0  0  0  0  0  0  0  0  0  0  0  0
  -24.8987  -24.4325   21.6656 C   0  0  0  0  0  0  0  0  0  0  0  0
  -22.1982   -6.0138   22.5575 C   0  0  0  0  0  0  0  0  0  0  0  0
  -23.4154   -4.0257   24.0900 C   0  0  0  0  0  0  0  0  0  0  0  0
  -21.6310   -5.6229   23.7703 C   0  0  0  0  0  0  0  0  0  0  0  0
  -24.5541  -11.6181   20.7079 C   0  0  0  0  0  0  0  0  0  0  0  0
  -27.2265  -19.8549   19.5687 C   0  0  0  0  0  0  0  0  0  0  0  0
  -25.2276  -19.4756   18.5016 C   0  0  0  0  0  0  0  0  0  0  0  0
  -25.2032  -13.7002   20.4278 C   0  0  0  0  0  0  0  0  0  0  0  0
  -22.8252  -13.4673   21.1621 C   0  0  0  0  0  0  0  0  0  0  0  0
  -22.9752  -29.4728   22.2651 C   0  0  0  0  0  0  0  0  0  0  0  0
  -25.9586  -30.3963   23.1421 C   0  0  0  0  0  0  0  0  0  0  0  0
  -29.2177  -29.5365   23.6768 C   0  0  0  0  0  0  0  0  0  0  0  0
  -30.6704  -14.7843   20.7096 C   0  0  0  0  0  0  0  0  0  0  0  0
  -18.2228  -31.2862   22.6937 C   0  0  0  0  0  0  0  0  0  0  0  0
  -23.5339  -27.7605   24.0292 C   0  0  0  0  0  0  0  0  0  0  0  0
  -25.7463  -28.1091   22.0983 C   0  0  0  0  0  0  0  0  0  0  0  0
  -19.6242  -31.8910   22.6708 C   0  0  0  0  0  0  0  0  0  0  0  0
  -29.6137  -12.3091   18.3787 C   0  0  0  0  0  0  0  0  0  0  0  0
  -20.4246  -31.3393   21.4953 C   0  0  0  0  0  0  0  0  0  0  0  0
  -28.1694  -12.0145   18.7876 C   0  0  0  0  0  0  0  0  0  0  0  0
  -30.4998  -12.5799   19.5925 C   0  0  0  0  0  0  0  0  0  0  0  0
  -28.5585  -13.3363   20.9089 C   0  0  0  0  0  0  0  0  0  0  0  0
  -20.5997  -29.8203   21.6116 C   0  0  1  0  0  0  0  0  0  0  0  0
  -23.8647  -29.1213   23.4240 C   0  0  1  0  0  0  0  0  0  0  0  0
  -27.6143  -13.1119   19.7154 C   0  0  2  0  0  0  0  0  0  0  0  0
  -24.4862  -18.7151   17.4511 C   0  0  0  0  0  0  0  0  0  0  0  0
  -22.8464  -22.1468   18.6640 C   0  0  0  0  0  0  0  0  0  0  0  0
  -22.2895  -20.3563   20.3489 C   0  0  0  0  0  0  0  0  0  0  0  0
  -31.4278  -30.5148   24.3519 C   0  0  0  0  0  0  0  0  0  0  0  0
  -26.2554  -31.6333   20.3687 C   0  0  0  0  0  0  0  0  0  0  0  0
  -28.7269  -31.7358   20.7552 C   0  0  0  0  0  0  0  0  0  0  0  0
  -27.1808  -33.0191   22.2335 C   0  0  0  0  0  0  0  0  0  0  0  0
  -29.3933  -27.7914   26.0607 C   0  0  0  0  0  0  0  0  0  0  0  0
  -24.6756  -22.1272   21.1252 C   0  0  0  0  0  0  0  0  0  1  0  0
  -28.6760  -19.5278   19.7059 C   0  0  0  0  0  0  0  0  0  0  0  0
  -28.9225  -18.3924   20.7112 C   0  0  0  0  0  0  0  0  0  0  0  0
  -30.4158  -18.0917   20.8705 C   0  0  0  0  0  0  0  0  0  0  0  0
  -30.6854  -16.9756   21.8745 C   0  0  0  0  0  0  0  0  0  0  0  0
  -23.1178  -20.6930   19.0946 C   0  0  0  0  0  0  0  0  0  0  0  0
  -27.2933  -30.5022   22.4446 C   0  0  1  0  0  0  0  0  0  0  0  0
  -30.1594  -29.8264   24.8316 C   0  0  2  0  0  0  0  0  0  0  0  0
  -27.3502  -31.6978   21.4523 C   0  0  0  0  0  0  0  0  0  0  0  0
  -25.8294  -11.5220   20.3227 N   0  0  0  0  0  0  0  0  0  0  0  0
  -26.5406  -19.1767   18.6215 N   0  0  0  0  0  0  0  0  0  0  0  0
  -26.1963  -12.8046   20.1600 N   0  0  0  0  0  0  0  0  0  0  0  0
  -25.2454  -29.2056   22.9435 N   0  0  0  0  0  0  0  0  0  0  0  0
  -29.9181  -13.6315   20.4302 N   0  0  0  0  0  0  0  0  0  0  0  0
  -25.4019  -15.0307   20.3149 N   0  0  0  0  0  0  0  0  0  0  0  0
  -21.8147  -12.5590   21.5061 N   0  0  0  0  0  0  0  0  0  0  0  0
  -21.6295  -29.5028   22.5776 N   0  0  0  0  0  0  0  0  0  0  0  0
  -28.3015  -30.5513   23.4979 N   0  0  0  0  0  0  0  0  0  0  0  0
  -30.0422  -15.7342   21.5057 N   0  0  0  0  0  0  0  0  0  0  0  0
  -30.5427  -28.5602   25.5178 N   0  3  0  0  0  0  0  0  0  0  0  0
  -22.5753  -14.6965   21.1724 O   0  0  0  0  0  0  0  0  0  0  0  0
  -23.4731  -29.7014   21.1689 O   0  0  0  0  0  0  0  0  0  0  0  0
  -25.5667  -31.3325   23.8432 O   0  0  0  0  0  0  0  0  0  0  0  0
  -29.2901  -28.5139   22.9988 O   0  0  0  0  0  0  0  0  0  0  0  0
  -31.8150  -14.9568   20.2770 O   0  0  0  0  0  0  0  0  0  0  0  0
  -21.5948   -6.9999   21.7952 O   0  0  0  0  0  0  0  0  0  0  0  0
  -25.3324  -23.3778   20.9230 O   0  0  0  0  0  0  0  0  0  1  0  0
  -23.9991   -3.0700   24.8249 F   0  0  0  0  0  0  0  0  0  0  0  0
  -20.5009   -6.1978   24.2041 F   0  0  0  0  0  0  0  0  0  0  0  0
  1  2  1  0  0  0  0
  1  5  2  0  0  0  0
  2  6  2  0  0  0  0
  3  8  2  0  0  0  0
  3 16  1  0  0  0  0
  4  9  1  0  0  0  0
  4 16  2  0  0  0  0
  5 18  1  0  0  0  0
  6 20  1  0  0  0  0
  7 10  2  0  0  0  0
  7 19  1  0  0  0  0
  8 24  1  0  0  0  0
  9 24  2  0  0  0  0
 10 25  1  0  0  0  0
 11 12  2  0  0  0  0
 11 26  1  0  0  0  0
 12 27  1  0  0  0  0
 13 21  1  0  0  0  0
 13 25  2  0  0  0  0
 14 22  1  0  0  0  0
 14 30  2  0  0  0  0
 15 27  2  0  0  0  0
 15 28  1  0  0  0  0
 16 29  1  0  0  0  0
 17 29  1  0  0  0  0
 17 32  2  0  0  0  0
 17 33  1  0  0  0  0
 18 20  2  0  0  0  0
 18 38  1  0  0  0  0
 19 21  2  0  0  0  0
 19 39  1  0  0  0  0
 20 47  1  0  0  0  0
 21 40  1  0  0  0  0
 22 23  2  0  0  0  0
 22 58  1  0  0  0  0
 23 31  1  0  0  0  0
 23 63  1  0  0  0  0
 24 83  1  0  0  0  0
 25 84  1  0  0  0  0
 26 28  2  0  0  0  0
 26 83  1  0  0  0  0
 27 85  1  0  0  0  0
 28 86  1  0  0  0  0
 29 67  2  0  0  0  0
 30 59  1  0  0  0  0
 30 68  1  0  0  0  0
 31 50  1  0  0  0  0
 31 68  2  0  0  0  0
 32 69  1  0  0  0  0
 32 72  1  0  0  0  0
 33 73  1  0  0  0  0
 33 78  2  0  0  0  0
 34 48  1  0  0  0  0
 34 74  1  0  0  0  0
 34 79  2  0  0  0  0
 35 64  1  0  0  0  0
 35 70  1  0  0  0  0
 35 80  2  0  0  0  0
 36 65  1  0  0  0  0
 36 75  1  0  0  0  0
 36 81  2  0  0  0  0
 37 71  1  0  0  0  0
 37 76  1  0  0  0  0
 37 82  2  0  0  0  0
 38 41  1  0  0  0  0
 39 48  1  0  0  0  0
 40 70  1  0  0  0  0
 41 43  1  0  0  0  0
 42 44  1  0  0  0  0
 42 45  1  0  0  0  0
 43 47  1  0  0  0  0
 44 49  1  0  0  0  0
 45 71  1  0  0  0  0
 46 49  1  0  0  0  0
 46 71  1  0  0  0  0
 47 74  1  0  0  0  0
 48 70  1  0  0  0  0
 49 69  1  0  0  0  0
 51 63  1  0  0  0  0
 52 63  1  0  0  0  0
 53 65  1  0  0  0  0
 54 66  1  0  0  0  0
 55 66  1  0  0  0  0
 56 66  1  0  0  0  0
 57 77  1  0  0  0  0
 58 84  1  0  0  0  0
 59 60  1  0  0  0  0
 60 61  1  0  0  0  0
 61 62  1  0  0  0  0
 62 76  1  0  0  0  0
 64 66  1  0  0  0  0
 64 75  1  0  0  0  0
 65 77  1  0  0  0  0
 67 69  1  0  0  0  0
M  CHG  1  77   1
M  ISO  4  37 100  58 101  76 100  84 101
M  END
> <Batch ID>
0041

> <Smiles>
CNC(C)C(=O)NC(C(=O)N1Cc2cc([101O:1][101CH2:1]c3cc(CCCC[100NH:0][100C:0](=O)N4CCCC(n5nc(-c6ccc(Oc7ccc(F)cc7F)cc6)c(C(N)=O)c5N)C4)nc(C)c3C(C)C)ccc2CC1C(=O)NC1CCCc2ccccc21)C(C)(C)C

> <Shape>
0.319

> <Color>
0.225

> <Negative vol penalty>
0.000

$$$$

  -OEChem-04052317093D

 85 93  0     1  0  0  0  0  0999 V2000
  -23.1352  -17.5448   19.1236 C   0  0  0  0  0  0  0  0  0  0  0  0
  -24.2670  -18.0591   19.7480 C   0  0  0  0  0  0  0  0  0  0  0  0
  -26.2636  -12.6862   21.6198 C   0  0  0  0  0  0  0  0  0  0  0  0
  -25.9372  -13.3850   19.3302 C   0  0  0  0  0  0  0  0  0  0  0  0
  -22.1887  -18.4099   18.5761 C   0  0  0  0  0  0  0  0  0  0  0  0
  -24.4535  -19.4389   19.8243 C   0  0  0  0  0  0  0  0  0  0  0  0
  -27.2505  -24.4668   24.0920 C   0  0  0  0  0  0  0  0  0  0  0  0
  -25.0674  -11.9705   21.5719 C   0  0  0  0  0  0  0  0  0  0  0  0
  -24.7409  -12.6693   19.2824 C   0  0  0  0  0  0  0  0  0  0  0  0
  -28.1392  -25.5404   24.0526 C   0  0  0  0  0  0  0  0  0  0  0  0
  -23.9830   -9.0100   20.3502 C   0  0  0  0  0  0  0  0  0  0  0  0
  -23.9789   -7.7183   20.8764 C   0  0  0  0  0  0  0  0  0  0  0  0
  -26.3985  -26.9400   23.1414 C   0  0  0  0  0  0  0  0  0  0  0  0
  -22.2770   -8.3698   22.4626 C   0  0  0  0  0  0  0  0  0  0  0  0
  -30.6461  -26.1094   18.9529 C   0  0  0  0  0  0  0  0  0  0  0  0
  -26.6985  -13.3935   20.4989 C   0  0  0  0  0  0  0  0  0  0  0  0
  -29.2199  -13.6634   20.2209 C   0  0  0  0  0  0  0  0  0  0  0  0
  -22.3589  -19.8011   18.6542 C   0  0  0  0  0  0  0  0  0  0  0  0
  -25.9300  -24.6191   23.6453 C   0  0  0  0  0  0  0  0  0  0  0  0
  -23.5091  -20.3234   19.2761 C   0  0  0  0  0  0  0  0  0  0  0  0
  -25.4944  -25.8675   23.1785 C   0  0  0  0  0  0  0  0  0  0  0  0
  -24.3060  -11.9620   20.4032 C   0  0  0  0  0  0  0  0  0  0  0  0
  -27.7140  -26.7765   23.5746 C   0  0  0  0  0  0  0  0  0  0  0  0
  -23.1341   -9.9817   20.8802 C   0  0  0  0  0  0  0  0  0  0  0  0
  -23.1259   -7.3982   21.9326 C   0  0  0  0  0  0  0  0  0  0  0  0
  -22.2811   -9.6616   21.9364 C   0  0  0  0  0  0  0  0  0  0  0  0
  -27.9339  -14.1335   20.5479 C   0  0  0  0  0  0  0  0  0  0  0  0
  -29.2907  -26.0129   19.3208 C   0  0  0  0  0  0  0  0  0  0  0  0
  -31.1038  -27.2212   19.6168 C   0  0  0  0  0  0  0  0  0  0  0  0
  -30.0437  -14.7421   20.4317 C   0  0  0  0  0  0  0  0  0  0  0  0
  -29.6330  -12.3677   19.7669 C   0  0  0  0  0  0  0  0  0  0  0  0
  -24.1809  -23.3199   21.3309 C   0  0  0  0  0  0  0  0  0  0  0  0
  -21.7926  -25.0268   22.7110 C   0  0  0  0  0  0  0  0  0  0  0  0
  -20.8739  -27.6907   24.6364 C   0  0  0  0  0  0  0  0  0  0  0  0
  -29.0222  -20.5555   20.3048 C   0  0  0  0  0  0  0  0  0  0  0  0
  -21.3321  -20.6957   18.0061 C   0  0  0  0  0  0  0  0  0  0  0  0
  -24.9764  -23.4583   23.7193 C   0  0  0  0  0  0  0  0  0  0  0  0
  -24.0813  -26.0885   22.7063 C   0  0  0  0  0  0  0  0  0  0  0  0
  -21.4191  -22.1508   18.4592 C   0  0  0  0  0  0  0  0  0  0  0  0
  -30.4161  -18.7071   23.0865 C   0  0  0  0  0  0  0  0  0  0  0  0
  -22.8666  -22.6315   18.4360 C   0  0  0  0  0  0  0  0  0  0  0  0
  -30.0530  -17.2697   22.7091 C   0  0  0  0  0  0  0  0  0  0  0  0
  -29.3036  -19.6776   22.7013 C   0  0  0  0  0  0  0  0  0  0  0  0
  -28.5498  -18.1926   20.8846 C   0  0  0  0  0  0  0  0  0  0  0  0
  -23.7346  -21.8146   19.4008 C   0  0  1  0  0  0  0  0  0  0  0  0
  -23.7986  -23.5905   22.7586 C   0  0  1  0  0  0  0  0  0  0  0  0
  -29.6441  -17.1656   21.2278 C   0  0  2  0  0  0  0  0  0  0  0  0
  -32.8935  -28.3663   18.2605 C   0  0  0  0  0  0  0  0  0  0  0  0
  -33.5311  -26.9279   20.2302 C   0  0  0  0  0  0  0  0  0  0  0  0
  -18.8479  -28.8494   25.5582 C   0  0  0  0  0  0  0  0  0  0  0  0
  -21.2314  -26.2270   19.9624 C   0  0  0  0  0  0  0  0  0  0  0  0
  -19.8955  -28.0169   21.0938 C   0  0  0  0  0  0  0  0  0  0  0  0
  -19.1892  -25.6315   21.2775 C   0  0  0  0  0  0  0  0  0  0  0  0
  -21.7357  -27.2259   27.4293 C   0  0  0  0  0  0  0  0  0  0  0  0
  -28.3145  -24.9974   18.8916 C   0  0  0  0  0  0  0  0  0  0  0  0
  -28.2312  -23.7425   19.7965 C   0  0  0  0  0  0  0  0  0  0  0  0
  -30.6175  -28.6737   22.5944 C   0  0  0  0  0  0  0  0  0  0  0  0
  -30.0129  -28.9176   21.2099 C   0  0  0  0  0  0  0  0  0  0  0  0
  -29.5317  -22.9458   19.8760 C   0  0  0  0  0  0  0  0  0  0  0  0
  -29.9608  -27.5216   23.3459 C   0  0  0  0  0  0  0  0  0  1  0  0
  -32.4362  -27.8517   19.6460 C   0  0  0  0  0  0  0  0  0  0  0  0
  -21.2350  -26.4189   22.5371 C   0  0  1  0  0  0  0  0  0  0  0  0
  -19.9210  -27.8022   25.8127 C   0  0  2  0  0  0  0  0  0  0  0  0
  -20.4150  -26.5692   21.2247 C   0  0  0  0  0  0  0  0  0  0  0  0
  -27.9354  -15.4112   20.9372 N   0  0  0  0  0  0  0  0  0  0  0  0
  -28.9120  -26.9858   20.1540 N   0  0  0  0  0  0  0  0  0  0  0  0
  -30.0364  -27.7041   20.3152 N   0  0  0  0  0  0  0  0  0  0  0  0
  -29.2326  -15.7532   20.8561 N   0  0  0  0  0  0  0  0  0  0  0  0
  -23.1883  -24.9212   22.7924 N   0  0  0  0  0  0  0  0  0  0  0  0
  -28.9749  -19.5409   21.2753 N   0  0  0  0  0  0  0  0  0  0  0  0
  -31.3754  -14.9148   20.2938 N   0  0  0  0  0  0  0  0  0  0  0  0
  -28.6575  -11.3746   19.6037 N   0  0  0  0  0  0  0  0  0  0  0  0
  -23.5188  -22.2474   20.7648 N   0  0  0  0  0  0  0  0  0  0  0  0
  -20.4793  -26.7104   23.7506 N   0  0  0  0  0  0  0  0  0  0  0  0
  -29.4281  -21.8047   20.7581 N   0  0  0  0  0  0  0  0  0  0  0  0
  -20.6643  -28.1816   27.0474 N   0  3  0  0  0  0  0  0  0  0  0  0
  -30.8338  -12.0937   19.5293 O   0  0  0  0  0  0  0  0  0  0  0  0
  -25.0139  -24.0325   20.7831 O   0  0  0  0  0  0  0  0  0  0  0  0
  -21.0180  -24.0693   22.7795 O   0  0  0  0  0  0  0  0  0  0  0  0
  -21.8669  -28.4044   24.5135 O   0  0  0  0  0  0  0  0  0  0  0  0
  -28.7294  -20.3613   19.1201 O   0  0  0  0  0  0  0  0  0  0  0  0
  -23.1387  -11.2635   20.3561 O   0  0  0  0  0  0  0  0  0  0  0  0
  -28.5795  -27.8259   23.5345 O   0  0  0  0  0  0  0  0  0  1  0  0
  -23.1210   -6.1572   22.4368 F   0  0  0  0  0  0  0  0  0  0  0  0
  -21.4624  -10.5906   22.4489 F   0  0  0  0  0  0  0  0  0  0  0  0
  1  2  1  0  0  0  0
  1  5  2  0  0  0  0
  2  6  2  0  0  0  0
  3  8  2  0  0  0  0
  3 16  1  0  0  0  0
  4  9  1  0  0  0  0
  4 16  2  0  0  0  0
  5 18  1  0  0  0  0
  6 20  1  0  0  0  0
  7 10  2  0  0  0  0
  7 19  1  0  0  0  0
  8 22  1  0  0  0  0
  9 22  2  0  0  0  0
 10 23  1  0  0  0  0
 11 12  2  0  0  0  0
 11 24  1  0  0  0  0
 12 25  1  0  0  0  0
 13 21  1  0  0  0  0
 13 23  2  0  0  0  0
 14 25  2  0  0  0  0
 14 26  1  0  0  0  0
 15 28  1  0  0  0  0
 15 29  2  0  0  0  0
 16 27  1  0  0  0  0
 17 27  1  0  0  0  0
 17 30  2  0  0  0  0
 17 31  1  0  0  0  0
 18 20  2  0  0  0  0
 18 36  1  0  0  0  0
 19 21  2  0  0  0  0
 19 37  1  0  0  0  0
 20 45  1  0  0  0  0
 21 38  1  0  0  0  0
 22 82  1  0  0  0  0
 23 83  1  0  0  0  0
 24 26  2  0  0  0  0
 24 82  1  0  0  0  0
 25 84  1  0  0  0  0
 26 85  1  0  0  0  0
 27 65  2  0  0  0  0
 28 55  1  0  0  0  0
 28 66  2  0  0  0  0
 29 61  1  0  0  0  0
 29 67  1  0  0  0  0
 30 68  1  0  0  0  0
 30 71  1  0  0  0  0
 31 72  1  0  0  0  0
 31 77  2  0  0  0  0
 32 46  1  0  0  0  0
 32 73  1  0  0  0  0
 32 78  2  0  0  0  0
 33 62  1  0  0  0  0
 33 69  1  0  0  0  0
 33 79  2  0  0  0  0
 34 63  1  0  0  0  0
 34 74  1  0  0  0  0
 34 80  2  0  0  0  0
 35 70  1  0  0  0  0
 35 75  1  0  0  0  0
 35 81  2  0  0  0  0
 36 39  1  0  0  0  0
 37 46  1  0  0  0  0
 38 69  1  0  0  0  0
 39 41  1  0  0  0  0
 40 42  1  0  0  0  0
 40 43  1  0  0  0  0
 41 45  1  0  0  0  0
 42 47  1  0  0  0  0
 43 70  1  0  0  0  0
 44 47  1  0  0  0  0
 44 70  1  0  0  0  0
 45 73  1  0  0  0  0
 46 69  1  0  0  0  0
 47 68  1  0  0  0  0
 48 61  1  0  0  0  0
 49 61  1  0  0  0  0
 50 63  1  0  0  0  0
 51 64  1  0  0  0  0
 52 64  1  0  0  0  0
 53 64  1  0  0  0  0
 54 76  1  0  0  0  0
 55 56  1  0  0  0  0
 56 59  1  0  0  0  0
 57 58  1  0  0  0  0
 57 60  1  0  0  0  0
 58 67  1  0  0  0  0
 59 75  1  0  0  0  0
 60 83  1  0  0  0  0
 62 64  1  0  0  0  0
 62 74  1  0  0  0  0
 63 76  1  0  0  0  0
 65 68  1  0  0  0  0
 66 67  1  0  0  0  0
M  CHG  1  76   1
M  ISO  4  35 100  60 101  75 100  83 101
M  END
> <Batch ID>
0041

> <Smiles>
CNC(C)C(=O)NC(C(=O)N1Cc2cc([101O:1][101CH2:1]CCn3nc(CCC[100NH:0][100C:0](=O)N4CCCC(n5nc(-c6ccc(Oc7ccc(F)cc7F)cc6)c(C(N)=O)c5N)C4)cc3C(C)C)ccc2CC1C(=O)NC1CCCc2ccccc21)C(C)(C)C

> <Shape>
0.235

> <Color>
0.065

> <Negative vol penalty>
0.000

$$$$

  -OEChem-04052317093D

 88 96  0     1  0  0  0  0  0999 V2000
  -28.7047  -31.3204   27.3123 C   0  0  0  0  0  0  0  0  0  0  0  0
  -28.7133  -30.4207   26.2513 C   0  0  0  0  0  0  0  0  0  0  0  0
  -27.8547  -13.8900   22.5301 C   0  0  0  0  0  0  0  0  0  0  0  0
  -27.1938  -15.0661   20.5259 C   0  0  0  0  0  0  0  0  0  0  0  0
  -27.4931  -31.7310   27.8668 C   0  0  0  0  0  0  0  0  0  0  0  0
  -27.5103  -29.9300   25.7449 C   0  0  0  0  0  0  0  0  0  0  0  0
  -27.3830  -29.9464   20.6824 C   0  0  0  0  0  0  0  0  0  0  0  0
  -27.1079  -12.7831   22.1269 C   0  0  0  0  0  0  0  0  0  0  0  0
  -26.4471  -13.9592   20.1225 C   0  0  0  0  0  0  0  0  0  0  0  0
  -28.0678  -28.9254   20.0249 C   0  0  0  0  0  0  0  0  0  0  0  0
  -23.8615  -11.8423   22.1069 C   0  0  0  0  0  0  0  0  0  0  0  0
  -23.0550  -11.2229   23.0616 C   0  0  0  0  0  0  0  0  0  0  0  0
  -25.9885  -27.7450   19.7049 C   0  0  0  0  0  0  0  0  0  0  0  0
  -30.3645  -25.9539   16.6741 C   0  0  0  0  0  0  0  0  0  0  0  0
  -24.2759   -9.1607   22.7549 C   0  0  0  0  0  0  0  0  0  0  0  0
  -27.8976  -15.0316   21.7297 C   0  0  0  0  0  0  0  0  0  0  0  0
  -30.0201  -16.4411   21.8559 C   0  0  0  0  0  0  0  0  0  0  0  0
  -26.2743  -31.2526   27.3606 C   0  0  0  0  0  0  0  0  0  0  0  0
  -25.9949  -29.8691   20.8659 C   0  0  0  0  0  0  0  0  0  0  0  0
  -26.2813  -30.3335   26.2940 C   0  0  0  0  0  0  0  0  0  0  0  0
  -25.2881  -28.7676   20.3627 C   0  0  0  0  0  0  0  0  0  0  0  0
  -29.9921  -25.7929   18.0040 C   0  0  0  0  0  0  0  0  0  0  0  0
  -30.1248  -24.5493   18.6116 C   0  0  0  0  0  0  0  0  0  0  0  0
  -26.4041  -12.8176   20.9231 C   0  0  0  0  0  0  0  0  0  0  0  0
  -27.3710  -27.8231   19.5386 C   0  0  0  0  0  0  0  0  0  0  0  0
  -24.8752  -11.1210   21.4761 C   0  0  0  0  0  0  0  0  0  0  0  0
  -23.2622   -9.8821   23.3856 C   0  0  0  0  0  0  0  0  0  0  0  0
  -25.0824   -9.7802   21.8002 C   0  0  0  0  0  0  0  0  0  0  0  0
  -28.6684  -16.1755   22.1460 C   0  0  0  0  0  0  0  0  0  0  0  0
  -30.8600  -24.8488   16.0010 C   0  0  0  0  0  0  0  0  0  0  0  0
  -30.6308  -23.5070   17.8517 C   0  0  0  0  0  0  0  0  0  0  0  0
  -30.2748  -17.6405   22.4747 C   0  0  0  0  0  0  0  0  0  0  0  0
  -30.9612  -15.6723   21.0950 C   0  0  0  0  0  0  0  0  0  0  0  0
  -24.0695  -29.7502   23.3922 C   0  0  0  0  0  0  0  0  0  0  0  0
  -21.7440  -29.9763   21.1420 C   0  0  0  0  0  0  0  0  0  0  0  0
  -20.7950  -29.5009   17.8986 C   0  0  0  0  0  0  0  0  0  0  0  0
  -28.8080  -22.8762   23.7325 C   0  0  0  0  0  0  0  0  0  0  0  0
  -24.9917  -31.6887   28.0236 C   0  0  0  0  0  0  0  0  0  0  0  0
  -25.2673  -30.9916   21.5537 C   0  0  0  0  0  0  0  0  0  0  0  0
  -23.7946  -28.6465   20.5160 C   0  0  0  0  0  0  0  0  0  0  0  0
  -23.7472  -31.4106   27.1845 C   0  0  0  0  0  0  0  0  0  0  0  0
  -27.5251  -20.2782   25.8016 C   0  0  0  0  0  0  0  0  0  0  0  0
  -23.7872  -29.9925   26.6239 C   0  0  0  0  0  0  0  0  0  0  0  0
  -27.8140  -19.0025   25.0084 C   0  0  0  0  0  0  0  0  0  0  0  0
  -27.1504  -21.4403   24.8845 C   0  0  0  0  0  0  0  0  0  0  0  0
  -28.4094  -20.4423   23.0156 C   0  0  0  0  0  0  0  0  0  0  0  0
  -24.9962  -29.7980   25.7008 C   0  0  1  0  0  0  0  0  0  0  0  0
  -23.9242  -30.5639   22.1375 C   0  0  1  0  0  0  0  0  0  0  0  0
  -28.8462  -19.2571   23.8936 C   0  0  2  0  0  0  0  0  0  0  0  0
  -29.8829  -19.7907   18.5832 C   0  0  0  0  0  0  0  0  0  0  0  0
  -18.8211  -29.7430   16.3679 C   0  0  0  0  0  0  0  0  0  0  0  0
  -33.7069  -24.3493   14.9748 C   0  0  0  0  0  0  0  0  0  0  0  0
  -33.0581  -25.5514   12.8778 C   0  0  0  0  0  0  0  0  0  0  0  0
  -20.4946  -27.4739   22.3614 C   0  0  0  0  0  0  0  0  0  0  0  0
  -19.1298  -27.2245   20.2773 C   0  0  0  0  0  0  0  0  0  0  0  0
  -18.8556  -29.2473   21.7111 C   0  0  0  0  0  0  0  0  0  0  0  0
  -22.2281  -31.4245   16.1651 C   0  0  0  0  0  0  0  0  0  0  0  0
  -29.7357  -24.3475   20.0375 C   0  0  0  0  0  0  0  0  0  0  0  0
  -29.4496  -26.9716   18.7574 C   0  0  0  0  0  0  0  0  0  1  0  0
  -31.2708  -24.9849   14.5728 C   0  0  0  0  0  0  0  0  0  0  0  0
  -30.7978  -22.1483   18.4496 C   0  0  0  0  0  0  0  0  0  0  0  0
  -29.6924  -21.1821   18.0004 C   0  0  0  0  0  0  0  0  0  0  0  0
  -30.9182  -24.3399   21.0262 C   0  0  0  0  0  0  0  0  0  0  0  0
  -30.5124  -24.1842   22.4902 C   0  0  0  0  0  0  0  0  0  0  0  0
  -20.9513  -28.9883   20.3208 C   0  0  1  0  0  0  0  0  0  0  0  0
  -20.0743  -30.4071   16.9167 C   0  0  2  0  0  0  0  0  0  0  0  0
  -32.7533  -25.3817   14.3682 C   0  0  0  0  0  0  0  0  0  0  0  0
  -19.8862  -28.2346   21.1663 C   0  0  0  0  0  0  0  0  0  0  0  0
  -28.1039  -17.1295   22.8913 N   0  0  0  0  0  0  0  0  0  0  0  0
  -31.0032  -23.6251   16.5575 N   0  0  0  0  0  0  0  0  0  0  0  0
  -29.1059  -18.0061   23.0748 N   0  0  0  0  0  0  0  0  0  0  0  0
  -23.1291  -29.7668   21.2013 N   0  0  0  0  0  0  0  0  0  0  0  0
  -28.1708  -21.6299   23.8507 N   0  0  0  0  0  0  0  0  0  0  0  0
  -31.3825  -18.4076   22.5587 N   0  0  0  0  0  0  0  0  0  0  0  0
  -30.5337  -14.4641   20.5279 N   0  0  0  0  0  0  0  0  0  0  0  0
  -24.7465  -30.3981   24.4078 N   0  0  0  0  0  0  0  0  0  0  0  0
  -20.4006  -29.7397   19.1981 N   0  0  0  0  0  0  0  0  0  0  0  0
  -29.7668  -22.9689   22.7311 N   0  0  0  0  0  0  0  0  0  0  0  0
  -20.9671  -30.7446   15.7721 N   0  3  0  0  0  0  0  0  0  0  0  0
  -32.1508  -16.0377   20.9369 O   0  0  0  0  0  0  0  0  0  0  0  0
  -23.6007  -28.6188   23.4363 O   0  0  0  0  0  0  0  0  0  0  0  0
  -21.1569  -30.9041   21.7042 O   0  0  0  0  0  0  0  0  0  0  0  0
  -21.6220  -28.6624   17.5474 O   0  0  0  0  0  0  0  0  0  0  0  0
  -28.5458  -23.8335   24.4684 O   0  0  0  0  0  0  0  0  0  0  0  0
  -25.6755  -11.7376   20.5291 O   0  0  0  0  0  0  0  0  0  0  0  0
  -28.0371  -26.8247   18.8971 O   0  0  0  0  0  0  0  0  0  1  0  0
  -22.4887   -9.2878   24.3036 F   0  0  0  0  0  0  0  0  0  0  0  0
  -26.0554   -9.0823   21.1984 F   0  0  0  0  0  0  0  0  0  0  0  0
  1  2  1  0  0  0  0
  1  5  2  0  0  0  0
  2  6  2  0  0  0  0
  3  8  2  0  0  0  0
  3 16  1  0  0  0  0
  4  9  1  0  0  0  0
  4 16  2  0  0  0  0
  5 18  1  0  0  0  0
  6 20  1  0  0  0  0
  7 10  2  0  0  0  0
  7 19  1  0  0  0  0
  8 24  1  0  0  0  0
  9 24  2  0  0  0  0
 10 25  1  0  0  0  0
 11 12  2  0  0  0  0
 11 26  1  0  0  0  0
 12 27  1  0  0  0  0
 13 21  1  0  0  0  0
 13 25  2  0  0  0  0
 14 22  2  0  0  0  0
 14 30  1  0  0  0  0
 15 27  2  0  0  0  0
 15 28  1  0  0  0  0
 16 29  1  0  0  0  0
 17 29  1  0  0  0  0
 17 32  2  0  0  0  0
 17 33  1  0  0  0  0
 18 20  2  0  0  0  0
 18 38  1  0  0  0  0
 19 21  2  0  0  0  0
 19 39  1  0  0  0  0
 20 47  1  0  0  0  0
 21 40  1  0  0  0  0
 22 23  1  0  0  0  0
 22 59  1  0  0  0  0
 23 31  2  0  0  0  0
 23 58  1  0  0  0  0
 24 85  1  0  0  0  0
 25 86  1  0  0  0  0
 26 28  2  0  0  0  0
 26 85  1  0  0  0  0
 27 87  1  0  0  0  0
 28 88  1  0  0  0  0
 29 69  2  0  0  0  0
 30 60  1  0  0  0  0
 30 70  2  0  0  0  0
 31 61  1  0  0  0  0
 31 70  1  0  0  0  0
 32 71  1  0  0  0  0
 32 74  1  0  0  0  0
 33 75  1  0  0  0  0
 33 80  2  0  0  0  0
 34 48  1  0  0  0  0
 34 76  1  0  0  0  0
 34 81  2  0  0  0  0
 35 65  1  0  0  0  0
 35 72  1  0  0  0  0
 35 82  2  0  0  0  0
 36 66  1  0  0  0  0
 36 77  1  0  0  0  0
 36 83  2  0  0  0  0
 37 73  1  0  0  0  0
 37 78  1  0  0  0  0
 37 84  2  0  0  0  0
 38 41  1  0  0  0  0
 39 48  1  0  0  0  0
 40 72  1  0  0  0  0
 41 43  1  0  0  0  0
 42 44  1  0  0  0  0
 42 45  1  0  0  0  0
 43 47  1  0  0  0  0
 44 49  1  0  0  0  0
 45 73  1  0  0  0  0
 46 49  1  0  0  0  0
 46 73  1  0  0  0  0
 47 76  1  0  0  0  0
 48 72  1  0  0  0  0
 49 71  1  0  0  0  0
 50 62  1  0  0  0  0
 51 66  1  0  0  0  0
 52 67  1  0  0  0  0
 53 67  1  0  0  0  0
 54 68  1  0  0  0  0
 55 68  1  0  0  0  0
 56 68  1  0  0  0  0
 57 79  1  0  0  0  0
 58 63  1  0  0  0  0
 59 86  1  0  0  0  0
 60 67  1  0  0  0  0
 61 62  1  0  0  0  0
 63 64  1  0  0  0  0
 64 78  1  0  0  0  0
 65 68  1  0  0  0  0
 65 77  1  0  0  0  0
 66 79  1  0  0  0  0
 69 71  1  0  0  0  0
M  CHG  1  79   1
M  ISO  4  37 100  59 101  78 100  86 101
M  END
> <Batch ID>
0041

> <Smiles>
CCCc1nc(CC(C)C)cc([101CH2:1][101O:1]c2ccc3c(c2)CN(C(=O)C(NC(=O)C(C)NC)C(C)(C)C)C(C(=O)NC2CCCc4ccccc42)C3)c1CCC[100NH:0][100C:0](=O)N1CCCC(n2nc(-c3ccc(Oc4ccc(F)cc4F)cc3)c(C(N)=O)c2N)C1

> <Shape>
0.262

> <Color>
0.066

> <Negative vol penalty>
0.000

$$$$

  -OEChem-04052317093D

 84 92  0     1  0  0  0  0  0999 V2000
  -23.3637  -17.5284   19.7315 C   0  0  0  0  0  0  0  0  0  0  0  0
  -24.1944  -18.5057   20.2702 C   0  0  0  0  0  0  0  0  0  0  0  0
  -25.9305  -13.5789   21.9566 C   0  0  0  0  0  0  0  0  0  0  0  0
  -25.3917  -14.6194   19.8437 C   0  0  0  0  0  0  0  0  0  0  0  0
  -22.3625  -17.8858   18.8294 C   0  0  0  0  0  0  0  0  0  0  0  0
  -24.0250  -19.8411   19.9062 C   0  0  0  0  0  0  0  0  0  0  0  0
  -24.8661  -24.7597   23.4568 C   0  0  0  0  0  0  0  0  0  0  0  0
  -24.8418  -12.7192   21.8109 C   0  0  0  0  0  0  0  0  0  0  0  0
  -24.3029  -13.7597   19.6980 C   0  0  0  0  0  0  0  0  0  0  0  0
  -25.9317  -25.6487   23.5907 C   0  0  0  0  0  0  0  0  0  0  0  0
  -24.1069   -9.8987   20.0970 C   0  0  0  0  0  0  0  0  0  0  0  0
  -24.3063   -8.5470   20.3773 C   0  0  0  0  0  0  0  0  0  0  0  0
  -24.8508  -27.1656   22.0577 C   0  0  0  0  0  0  0  0  0  0  0  0
  -22.6177   -8.6556   22.1019 C   0  0  0  0  0  0  0  0  0  0  0  0
  -30.6217  -26.6240   19.9590 C   0  0  0  0  0  0  0  0  0  0  0  0
  -26.2055  -14.5290   20.9730 C   0  0  0  0  0  0  0  0  0  0  0  0
  -28.6485  -15.2024   20.6805 C   0  0  0  0  0  0  0  0  0  0  0  0
  -22.1745  -19.2275   18.4617 C   0  0  0  0  0  0  0  0  0  0  0  0
  -23.7882  -25.0626   22.6125 C   0  0  0  0  0  0  0  0  0  0  0  0
  -23.0212  -20.2167   18.9974 C   0  0  0  0  0  0  0  0  0  0  0  0
  -23.7716  -26.2799   21.9169 C   0  0  0  0  0  0  0  0  0  0  0  0
  -24.0280  -12.8096   20.6816 C   0  0  0  0  0  0  0  0  0  0  0  0
  -25.9256  -26.8506   22.8889 C   0  0  0  0  0  0  0  0  0  0  0  0
  -23.1630  -10.6290   20.8191 C   0  0  0  0  0  0  0  0  0  0  0  0
  -23.5617   -7.9254   21.3797 C   0  0  0  0  0  0  0  0  0  0  0  0
  -22.4184  -10.0074   21.8215 C   0  0  0  0  0  0  0  0  0  0  0  0
  -27.3296  -15.4177   21.1232 C   0  0  0  0  0  0  0  0  0  0  0  0
  -29.3707  -26.9947   20.4007 C   0  0  0  0  0  0  0  0  0  0  0  0
  -28.4768  -25.1215   19.4405 C   0  0  0  0  0  0  0  0  0  0  0  0
  -29.7277  -24.7513   18.9982 C   0  0  0  0  0  0  0  0  0  0  0  0
  -29.3280  -16.3331   21.0631 C   0  0  0  0  0  0  0  0  0  0  0  0
  -29.2093  -14.0807   19.9856 C   0  0  0  0  0  0  0  0  0  0  0  0
  -22.5384  -23.7381   20.0072 C   0  0  0  0  0  0  0  0  0  0  0  0
  -20.2645  -26.0154   20.4140 C   0  0  0  0  0  0  0  0  0  0  0  0
  -19.4100  -29.0596   21.6983 C   0  0  0  0  0  0  0  0  0  0  0  0
  -29.6652  -21.8841   21.5308 C   0  0  0  0  0  0  0  0  0  0  0  0
  -21.1095  -19.5596   17.4468 C   0  0  0  0  0  0  0  0  0  0  0  0
  -22.6338  -24.1049   22.4997 C   0  0  0  0  0  0  0  0  0  0  0  0
  -22.6285  -26.6614   21.0134 C   0  0  0  0  0  0  0  0  0  0  0  0
  -20.7538  -21.0434   17.4004 C   0  0  0  0  0  0  0  0  0  0  0  0
  -27.9515  -20.1282   24.1109 C   0  0  0  0  0  0  0  0  0  0  0  0
  -22.0190  -21.8951   17.3774 C   0  0  0  0  0  0  0  0  0  0  0  0
  -27.7405  -18.7312   23.5247 C   0  0  0  0  0  0  0  0  0  0  0  0
  -27.8223  -21.2133   23.0441 C   0  0  0  0  0  0  0  0  0  0  0  0
  -28.4694  -19.6256   21.2737 C   0  0  0  0  0  0  0  0  0  0  0  0
  -22.8527  -21.6790   18.6462 C   0  0  1  0  0  0  0  0  0  0  0  0
  -21.8313  -24.2852   21.2148 C   0  0  1  0  0  0  0  0  0  0  0  0
  -28.6454  -18.4941   22.3007 C   0  0  2  0  0  0  0  0  0  0  0  0
  -27.2739  -24.2884   19.1561 C   0  0  0  0  0  0  0  0  0  0  0  0
  -17.4917  -30.6716   21.8356 C   0  0  0  0  0  0  0  0  0  0  0  0
  -20.7680  -26.8568   17.5247 C   0  0  0  0  0  0  0  0  0  0  0  0
  -19.5672  -28.9988   18.0125 C   0  0  0  0  0  0  0  0  0  0  0  0
  -18.3594  -26.8240   18.1970 C   0  0  0  0  0  0  0  0  0  0  0  0
  -19.3276  -28.8901   24.6519 C   0  0  0  0  0  0  0  0  0  0  0  0
  -29.1837  -28.2650   21.1912 C   0  0  0  0  0  0  0  0  0  0  0  0
  -29.9365  -23.5006   18.2147 C   0  0  0  0  0  0  0  0  0  0  0  0
  -29.3167  -28.0746   22.7037 C   0  0  0  0  0  0  0  0  0  0  0  0
  -31.2795  -22.7935   18.4859 C   0  0  0  0  0  0  0  0  0  0  0  0
  -31.5025  -22.4077   19.9467 C   0  0  0  0  0  0  0  0  0  0  0  0
  -28.2484  -27.1612   23.2935 C   0  0  0  0  0  0  0  0  0  1  0  0
  -20.0803  -27.4382   19.9444 C   0  0  1  0  0  0  0  0  0  0  0  0
  -18.2070  -29.5098   22.5074 C   0  0  2  0  0  0  0  0  0  0  0  0
  -19.7164  -27.5217   18.4351 C   0  0  0  0  0  0  0  0  0  0  0  0
  -30.8227  -25.4958   19.2497 N   0  0  0  0  0  0  0  0  0  0  0  0
  -27.1781  -16.5927   21.7399 N   0  0  0  0  0  0  0  0  0  0  0  0
  -28.2758  -26.2500   20.1494 N   0  0  0  0  0  0  0  0  0  0  0  0
  -28.4106  -17.1259   21.6876 N   0  0  0  0  0  0  0  0  0  0  0  0
  -21.5261  -25.6891   20.9313 N   0  0  0  0  0  0  0  0  0  0  0  0
  -28.7074  -20.9299   21.9117 N   0  0  0  0  0  0  0  0  0  0  0  0
  -30.6147  -16.7166   20.9230 N   0  0  0  0  0  0  0  0  0  0  0  0
  -28.3707  -13.0031   19.6697 N   0  0  0  0  0  0  0  0  0  0  0  0
  -22.2772  -22.4041   19.7586 N   0  0  0  0  0  0  0  0  0  0  0  0
  -19.0888  -28.0360   20.8321 N   0  0  0  0  0  0  0  0  0  0  0  0
  -30.4675  -21.5334   20.4519 N   0  0  0  0  0  0  0  0  0  0  0  0
  -18.6311  -29.9430   23.8688 N   0  3  0  0  0  0  0  0  0  0  0  0
  -30.4220  -14.0282   19.6691 O   0  0  0  0  0  0  0  0  0  0  0  0
  -23.2659  -24.4722   19.3488 O   0  0  0  0  0  0  0  0  0  0  0  0
  -19.3214  -25.2245   20.3318 O   0  0  0  0  0  0  0  0  0  0  0  0
  -20.5224  -29.5678   21.8198 O   0  0  0  0  0  0  0  0  0  0  0  0
  -29.7993  -22.9659   22.1126 O   0  0  0  0  0  0  0  0  0  0  0  0
  -22.9657  -11.9707   20.5390 O   0  0  0  0  0  0  0  0  0  0  0  0
  -26.9647  -27.7198   23.0172 O   0  0  0  0  0  0  0  0  0  1  0  0
  -23.7521   -6.6269   21.6478 F   0  0  0  0  0  0  0  0  0  0  0  0
  -21.5093  -10.7035   22.5178 F   0  0  0  0  0  0  0  0  0  0  0  0
  1  2  1  0  0  0  0
  1  5  2  0  0  0  0
  2  6  2  0  0  0  0
  3  8  2  0  0  0  0
  3 16  1  0  0  0  0
  4  9  1  0  0  0  0
  4 16  2  0  0  0  0
  5 18  1  0  0  0  0
  6 20  1  0  0  0  0
  7 10  2  0  0  0  0
  7 19  1  0  0  0  0
  8 22  1  0  0  0  0
  9 22  2  0  0  0  0
 10 23  1  0  0  0  0
 11 12  2  0  0  0  0
 11 24  1  0  0  0  0
 12 25  1  0  0  0  0
 13 21  1  0  0  0  0
 13 23  2  0  0  0  0
 14 25  2  0  0  0  0
 14 26  1  0  0  0  0
 15 28  1  0  0  0  0
 15 64  2  0  0  0  0
 16 27  1  0  0  0  0
 17 27  1  0  0  0  0
 17 31  2  0  0  0  0
 17 32  1  0  0  0  0
 18 20  2  0  0  0  0
 18 37  1  0  0  0  0
 19 21  2  0  0  0  0
 19 38  1  0  0  0  0
 20 46  1  0  0  0  0
 21 39  1  0  0  0  0
 22 81  1  0  0  0  0
 23 82  1  0  0  0  0
 24 26  2  0  0  0  0
 24 81  1  0  0  0  0
 25 83  1  0  0  0  0
 26 84  1  0  0  0  0
 27 65  2  0  0  0  0
 28 55  1  0  0  0  0
 28 66  2  0  0  0  0
 29 30  2  0  0  0  0
 29 49  1  0  0  0  0
 29 66  1  0  0  0  0
 30 56  1  0  0  0  0
 30 64  1  0  0  0  0
 31 67  1  0  0  0  0
 31 70  1  0  0  0  0
 32 71  1  0  0  0  0
 32 76  2  0  0  0  0
 33 47  1  0  0  0  0
 33 72  1  0  0  0  0
 33 77  2  0  0  0  0
 34 61  1  0  0  0  0
 34 68  1  0  0  0  0
 34 78  2  0  0  0  0
 35 62  1  0  0  0  0
 35 73  1  0  0  0  0
 35 79  2  0  0  0  0
 36 69  1  0  0  0  0
 36 74  1  0  0  0  0
 36 80  2  0  0  0  0
 37 40  1  0  0  0  0
 38 47  1  0  0  0  0
 39 68  1  0  0  0  0
 40 42  1  0  0  0  0
 41 43  1  0  0  0  0
 41 44  1  0  0  0  0
 42 46  1  0  0  0  0
 43 48  1  0  0  0  0
 44 69  1  0  0  0  0
 45 48  1  0  0  0  0
 45 69  1  0  0  0  0
 46 72  1  0  0  0  0
 47 68  1  0  0  0  0
 48 67  1  0  0  0  0
 50 62  1  0  0  0  0
 51 63  1  0  0  0  0
 52 63  1  0  0  0  0
 53 63  1  0  0  0  0
 54 75  1  0  0  0  0
 55 57  1  0  0  0  0
 56 58  1  0  0  0  0
 57 60  1  0  0  0  0
 58 59  1  0  0  0  0
 59 74  1  0  0  0  0
 60 82  1  0  0  0  0
 61 63  1  0  0  0  0
 61 73  1  0  0  0  0
 62 75  1  0  0  0  0
 65 67  1  0  0  0  0
M  CHG  1  75   1
M  ISO  4  36 100  60 101  74 100  82 101
M  END
> <Batch ID>
0041

> <Smiles>
CNC(C)C(=O)NC(C(=O)N1Cc2cc([101O:1][101CH2:1]CCc3cnc(CCC[100NH:0][100C:0](=O)N4CCCC(n5nc(-c6ccc(Oc7ccc(F)cc7F)cc6)c(C(N)=O)c5N)C4)c(C)n3)ccc2CC1C(=O)NC1CCCc2ccccc21)C(C)(C)C

> <Shape>
0.212

> <Color>
0.061

> <Negative vol penalty>
0.000

$$$$

  -OEChem-04052317093D

 81 89  0     1  0  0  0  0  0999 V2000
  -36.6168  -29.4998   12.2369 C   0  0  0  0  0  0  0  0  0  0  0  0
  -36.4002  -28.2851   12.8796 C   0  0  0  0  0  0  0  0  0  0  0  0
  -23.0000   -9.8929   19.9789 C   0  0  0  0  0  0  0  0  0  0  0  0
  -23.7301   -9.9385   22.2815 C   0  0  0  0  0  0  0  0  0  0  0  0
  -35.6621  -30.5122   12.3222 C   0  0  0  0  0  0  0  0  0  0  0  0
  -35.2291  -28.0825   13.6089 C   0  0  0  0  0  0  0  0  0  0  0  0
  -32.1176  -22.8404   14.1956 C   0  0  0  0  0  0  0  0  0  0  0  0
  -22.2357   -8.7566   20.2438 C   0  0  0  0  0  0  0  0  0  0  0  0
  -22.9657   -8.8022   22.5464 C   0  0  0  0  0  0  0  0  0  0  0  0
  -32.0916  -21.8722   15.1985 C   0  0  0  0  0  0  0  0  0  0  0  0
  -23.2138   -5.4649   22.0647 C   0  0  0  0  0  0  0  0  0  0  0  0
  -23.8044   -4.4465   22.8128 C   0  0  0  0  0  0  0  0  0  0  0  0
  -30.1431  -22.9243   16.1552 C   0  0  0  0  0  0  0  0  0  0  0  0
  -29.3577  -18.6302   20.9119 C   0  0  0  0  0  0  0  0  0  0  0  0
  -22.0838   -4.6823   24.4924 C   0  0  0  0  0  0  0  0  0  0  0  0
  -31.5454  -18.3381   20.0259 C   0  0  0  0  0  0  0  0  0  0  0  0
  -23.7473  -10.4838   20.9978 C   0  0  0  0  0  0  0  0  0  0  0  0
  -24.1287  -13.0005   20.8279 C   0  0  0  0  0  0  0  0  0  0  0  0
  -34.4743  -30.3185   13.0449 C   0  0  0  0  0  0  0  0  0  0  0  0
  -31.1614  -23.8658   14.1712 C   0  0  0  0  0  0  0  0  0  0  0  0
  -34.2582  -29.0938   13.7051 C   0  0  0  0  0  0  0  0  0  0  0  0
  -30.1576  -23.9027   15.1495 C   0  0  0  0  0  0  0  0  0  0  0  0
  -30.5705  -17.9506   20.9310 C   0  0  0  0  0  0  0  0  0  0  0  0
  -29.1595  -19.6620   20.0012 C   0  0  0  0  0  0  0  0  0  0  0  0
  -22.2185   -8.2112   21.5275 C   0  0  0  0  0  0  0  0  0  0  0  0
  -31.1060  -21.9157   16.1801 C   0  0  0  0  0  0  0  0  0  0  0  0
  -22.0582   -6.0922   22.5306 C   0  0  0  0  0  0  0  0  0  0  0  0
  -23.2394   -4.0552   24.0266 C   0  0  0  0  0  0  0  0  0  0  0  0
  -21.4932   -5.7008   23.7443 C   0  0  0  0  0  0  0  0  0  0  0  0
  -24.5375  -11.6573   20.7247 C   0  0  0  0  0  0  0  0  0  0  0  0
  -30.1976  -19.9730   19.1378 C   0  0  0  0  0  0  0  0  0  0  0  0
  -25.2366  -13.7256   20.4631 C   0  0  0  0  0  0  0  0  0  0  0  0
  -22.8608  -13.5440   21.2187 C   0  0  0  0  0  0  0  0  0  0  0  0
  -31.2656  -27.0356   14.3840 C   0  0  0  0  0  0  0  0  0  0  0  0
  -28.0984  -26.7945   13.7262 C   0  0  0  0  0  0  0  0  0  0  0  0
  -25.2647  -24.8934   13.7796 C   0  0  0  0  0  0  0  0  0  0  0  0
  -30.7322  -14.6674   20.7023 C   0  0  0  0  0  0  0  0  0  0  0  0
  -33.4930  -31.4592   13.1479 C   0  0  0  0  0  0  0  0  0  0  0  0
  -31.1872  -24.8871   13.0673 C   0  0  0  0  0  0  0  0  0  0  0  0
  -29.0959  -24.9710   15.1563 C   0  0  0  0  0  0  0  0  0  0  0  0
  -32.1093  -31.0307   13.6296 C   0  0  0  0  0  0  0  0  0  0  0  0
  -29.5898  -12.2485   18.3526 C   0  0  0  0  0  0  0  0  0  0  0  0
  -32.2269  -30.1097   14.8399 C   0  0  0  0  0  0  0  0  0  0  0  0
  -28.1426  -11.9856   18.7726 C   0  0  0  0  0  0  0  0  0  0  0  0
  -30.4945  -12.4819   19.5605 C   0  0  0  0  0  0  0  0  0  0  0  0
  -28.5862  -13.2710   20.9056 C   0  0  0  0  0  0  0  0  0  0  0  0
  -32.9892  -28.8272   14.4852 C   0  0  1  0  0  0  0  0  0  0  0  0
  -30.4713  -26.1830   13.4354 C   0  0  1  0  0  0  0  0  0  0  0  0
  -27.6249  -13.0852   19.7192 C   0  0  2  0  0  0  0  0  0  0  0  0
  -26.7576  -19.5942   19.2851 C   0  0  0  0  0  0  0  0  0  0  0  0
  -22.8222  -24.9818   13.2108 C   0  0  0  0  0  0  0  0  0  0  0  0
  -27.5798  -28.4685   16.2239 C   0  0  0  0  0  0  0  0  0  0  0  0
  -25.1890  -27.7303   16.1375 C   0  0  0  0  0  0  0  0  0  0  0  0
  -26.1513  -29.0582   14.2577 C   0  0  0  0  0  0  0  0  0  0  0  0
  -25.5230  -22.6923   11.8181 C   0  0  0  0  0  0  0  0  0  0  0  0
  -27.8617  -20.3930   19.9742 C   0  0  0  0  0  0  0  0  0  0  0  0
  -30.8144  -16.8431   21.8933 C   0  0  0  0  0  0  0  0  0  0  0  0
  -30.0409  -21.0775   18.1343 C   0  0  0  0  0  0  0  0  0  1  0  0
  -26.8434  -26.6444   14.5517 C   0  0  1  0  0  0  0  0  0  0  0  0
  -24.2147  -24.6204   12.7178 C   0  0  2  0  0  0  0  0  0  0  0  0
  -26.4619  -27.9562   15.2940 C   0  0  0  0  0  0  0  0  0  0  0  0
  -31.3896  -19.3354   19.1265 N   0  0  0  0  0  0  0  0  0  0  0  0
  -25.8061  -11.5337   20.3254 N   0  0  0  0  0  0  0  0  0  0  0  0
  -26.2039  -12.8085   20.1744 N   0  0  0  0  0  0  0  0  0  0  0  0
  -29.1673  -25.9507   14.0597 N   0  0  0  0  0  0  0  0  0  0  0  0
  -29.9481  -13.5375   20.4167 N   0  0  0  0  0  0  0  0  0  0  0  0
  -25.4680  -15.0519   20.3642 N   0  0  0  0  0  0  0  0  0  0  0  0
  -21.8310  -12.6574   21.5620 N   0  0  0  0  0  0  0  0  0  0  0  0
  -32.1317  -27.9136   13.7609 N   0  0  0  0  0  0  0  0  0  0  0  0
  -25.8139  -26.1508   13.6434 N   0  0  0  0  0  0  0  0  0  0  0  0
  -30.1362  -15.6230   21.5161 N   0  0  0  0  0  0  0  0  0  0  0  0
  -24.2206  -23.1783   12.3422 N   0  3  0  0  0  0  0  0  0  0  0  0
  -22.6424  -14.7789   21.2463 O   0  0  0  0  0  0  0  0  0  0  0  0
  -31.1035  -26.9073   15.5919 O   0  0  0  0  0  0  0  0  0  0  0  0
  -28.1267  -27.6247   12.8143 O   0  0  0  0  0  0  0  0  0  0  0  0
  -25.5648  -24.0746   14.6457 O   0  0  0  0  0  0  0  0  0  0  0  0
  -31.8764  -14.8161   20.2602 O   0  0  0  0  0  0  0  0  0  0  0  0
  -21.4726   -7.1026   21.7864 O   0  0  0  0  0  0  0  0  0  0  0  0
  -31.0787  -20.9724   17.1606 O   0  0  0  0  0  0  0  0  0  1  0  0
  -23.8058   -3.0761   24.7440 F   0  0  0  0  0  0  0  0  0  0  0  0
  -20.3824   -6.2989   24.1964 F   0  0  0  0  0  0  0  0  0  0  0  0
  1  2  1  0  0  0  0
  1  5  2  0  0  0  0
  2  6  2  0  0  0  0
  3  8  2  0  0  0  0
  3 17  1  0  0  0  0
  4  9  1  0  0  0  0
  4 17  2  0  0  0  0
  5 19  1  0  0  0  0
  6 21  1  0  0  0  0
  7 10  2  0  0  0  0
  7 20  1  0  0  0  0
  8 25  1  0  0  0  0
  9 25  2  0  0  0  0
 10 26  1  0  0  0  0
 11 12  2  0  0  0  0
 11 27  1  0  0  0  0
 12 28  1  0  0  0  0
 13 22  1  0  0  0  0
 13 26  2  0  0  0  0
 14 23  2  0  0  0  0
 14 24  1  0  0  0  0
 15 28  2  0  0  0  0
 15 29  1  0  0  0  0
 16 23  1  0  0  0  0
 16 62  2  0  0  0  0
 17 30  1  0  0  0  0
 18 30  1  0  0  0  0
 18 32  2  0  0  0  0
 18 33  1  0  0  0  0
 19 21  2  0  0  0  0
 19 38  1  0  0  0  0
 20 22  2  0  0  0  0
 20 39  1  0  0  0  0
 21 47  1  0  0  0  0
 22 40  1  0  0  0  0
 23 57  1  0  0  0  0
 24 31  2  0  0  0  0
 24 56  1  0  0  0  0
 25 78  1  0  0  0  0
 26 79  1  0  0  0  0
 27 29  2  0  0  0  0
 27 78  1  0  0  0  0
 28 80  1  0  0  0  0
 29 81  1  0  0  0  0
 30 63  2  0  0  0  0
 31 58  1  0  0  0  0
 31 62  1  0  0  0  0
 32 64  1  0  0  0  0
 32 67  1  0  0  0  0
 33 68  1  0  0  0  0
 33 73  2  0  0  0  0
 34 48  1  0  0  0  0
 34 69  1  0  0  0  0
 34 74  2  0  0  0  0
 35 59  1  0  0  0  0
 35 65  1  0  0  0  0
 35 75  2  0  0  0  0
 36 60  1  0  0  0  0
 36 70  1  0  0  0  0
 36 76  2  0  0  0  0
 37 66  1  0  0  0  0
 37 71  1  0  0  0  0
 37 77  2  0  0  0  0
 38 41  1  0  0  0  0
 39 48  1  0  0  0  0
 40 65  1  0  0  0  0
 41 43  1  0  0  0  0
 42 44  1  0  0  0  0
 42 45  1  0  0  0  0
 43 47  1  0  0  0  0
 44 49  1  0  0  0  0
 45 66  1  0  0  0  0
 46 49  1  0  0  0  0
 46 66  1  0  0  0  0
 47 69  1  0  0  0  0
 48 65  1  0  0  0  0
 49 64  1  0  0  0  0
 50 56  1  0  0  0  0
 51 60  1  0  0  0  0
 52 61  1  0  0  0  0
 53 61  1  0  0  0  0
 54 61  1  0  0  0  0
 55 72  1  0  0  0  0
 57 71  1  0  0  0  0
 58 79  1  0  0  0  0
 59 61  1  0  0  0  0
 59 70  1  0  0  0  0
 60 72  1  0  0  0  0
 63 64  1  0  0  0  0
M  CHG  1  72   1
M  ISO  4  37 100  58 101  71 100  79 101
M  END
> <Batch ID>
0041

> <Smiles>
CCc1cc(C[100NH:0][100C:0](=O)N2CCCC(n3nc(-c4ccc(Oc5ccc(F)cc5F)cc4)c(C(N)=O)c3N)C2)cnc1[101CH2:1][101O:1]c1ccc2c(c1)CN(C(=O)C(NC(=O)C(C)NC)C(C)(C)C)C(C(=O)NC1CCCc3ccccc31)C2

> <Shape>
0.209

> <Color>
0.198

> <Negative vol penalty>
0.000

$$$$

  -OEChem-04052317093D

 89 98  0     1  0  0  0  0  0999 V2000
  -20.4655  -23.9748   21.4965 C   0  0  0  0  0  0  0  0  0  0  0  0
  -21.3198  -24.7091   20.6803 C   0  0  0  0  0  0  0  0  0  0  0  0
  -28.0168  -14.3048   19.0492 C   0  0  0  0  0  0  0  0  0  0  0  0
  -28.1169  -15.3770   21.2119 C   0  0  0  0  0  0  0  0  0  0  0  0
  -19.6100  -24.6328   22.3792 C   0  0  0  0  0  0  0  0  0  0  0  0
  -21.3184  -26.1021   20.7454 C   0  0  0  0  0  0  0  0  0  0  0  0
  -25.9929  -28.0480   20.8275 C   0  0  0  0  0  0  0  0  0  0  0  0
  -29.4049  -14.1682   19.0526 C   0  0  0  0  0  0  0  0  0  0  0  0
  -29.5051  -15.2404   21.2153 C   0  0  0  0  0  0  0  0  0  0  0  0
  -26.6771  -28.1127   19.6144 C   0  0  0  0  0  0  0  0  0  0  0  0
  -33.0429  -14.8497   21.9564 C   0  0  0  0  0  0  0  0  0  0  0  0
  -33.6479  -14.3971   23.1289 C   0  0  0  0  0  0  0  0  0  0  0  0
  -26.1070  -30.4489   19.4244 C   0  0  0  0  0  0  0  0  0  0  0  0
  -22.6638  -26.3316   16.6540 C   0  0  0  0  0  0  0  0  0  0  0  0
  -32.3726  -12.3493   22.9963 C   0  0  0  0  0  0  0  0  0  0  0  0
  -24.9811  -26.2021   15.2189 C   0  0  0  0  0  0  0  0  0  0  0  0
  -27.3728  -14.9093   20.1288 C   0  0  0  0  0  0  0  0  0  0  0  0
  -24.9929  -14.1353   20.6237 C   0  0  0  0  0  0  0  0  0  0  0  0
  -19.6050  -26.0341   22.4622 C   0  0  0  0  0  0  0  0  0  0  0  0
  -25.3504  -29.1825   21.3436 C   0  0  0  0  0  0  0  0  0  0  0  0
  -20.4610  -26.7794   21.6291 C   0  0  0  0  0  0  0  0  0  0  0  0
  -25.4175  -30.3967   20.6454 C   0  0  0  0  0  0  0  0  0  0  0  0
  -23.3158  -27.5087   16.3036 C   0  0  0  0  0  0  0  0  0  0  0  0
  -30.1491  -14.6360   20.1357 C   0  0  0  0  0  0  0  0  0  0  0  0
  -26.7317  -29.3125   18.9112 C   0  0  0  0  0  0  0  0  0  0  0  0
  -32.1027  -14.0522   21.3039 C   0  0  0  0  0  0  0  0  0  0  0  0
  -24.4971  -27.4514   15.5725 C   0  0  0  0  0  0  0  0  0  0  0  0
  -33.3127  -13.1469   23.6488 C   0  0  0  0  0  0  0  0  0  0  0  0
  -31.7676  -12.8020   21.8238 C   0  0  0  0  0  0  0  0  0  0  0  0
  -25.9389  -15.0512   20.1256 C   0  0  0  0  0  0  0  0  0  0  0  0
  -23.2297  -25.1325   16.2518 C   0  0  0  0  0  0  0  0  0  0  0  0
  -23.7789  -14.7318   20.3851 C   0  0  0  0  0  0  0  0  0  0  0  0
  -25.1936  -12.8595   21.2464 C   0  0  0  0  0  0  0  0  0  0  0  0
  -22.3418  -29.9329   22.0429 C   0  0  0  0  0  0  0  0  0  0  0  0
  -23.7010  -32.6254   23.2367 C   0  0  0  0  0  0  0  0  0  0  0  0
  -26.3348  -34.7956   23.2156 C   0  0  0  0  0  0  0  0  0  0  0  0
  -21.8723  -18.5158   16.4530 C   0  0  0  0  0  0  0  0  0  0  0  0
  -18.6288  -26.7024   23.3977 C   0  0  0  0  0  0  0  0  0  0  0  0
  -24.6392  -29.1029   22.6666 C   0  0  0  0  0  0  0  0  0  0  0  0
  -24.7616  -31.6484   21.1665 C   0  0  0  0  0  0  0  0  0  0  0  0
  -18.9557  -28.1678   23.6739 C   0  0  0  0  0  0  0  0  0  0  0  0
  -18.9622  -20.5361   15.3690 C   0  0  0  0  0  0  0  0  0  0  0  0
  -21.7335  -19.0259   19.9247 C   0  0  0  0  0  0  0  0  0  0  0  0
  -19.2756  -28.8977   22.3732 C   0  0  0  0  0  0  0  0  0  0  0  0
  -19.5966  -21.8943   15.0798 C   0  0  0  0  0  0  0  0  0  0  0  0
  -22.7134  -17.9659   20.4269 C   0  0  0  0  0  0  0  0  0  0  0  0
  -19.9550  -19.3955   15.1732 C   0  0  0  0  0  0  0  0  0  0  0  0
  -22.2362  -19.7151   18.6551 C   0  0  0  0  0  0  0  0  0  0  0  0
  -21.8419  -20.9163   15.6697 C   0  0  0  0  0  0  0  0  0  0  0  0
  -23.5743  -17.7198   18.0676 C   0  0  0  0  0  0  0  0  0  0  0  0
  -20.5063  -28.2909   21.6885 C   0  0  1  0  0  0  0  0  0  0  0  0
  -23.5856  -30.1918   22.8451 C   0  0  1  0  0  0  0  0  0  0  0  0
  -20.8815  -22.0889   15.8956 C   0  0  1  0  0  0  0  0  0  0  0  0
  -23.0692  -16.9690   19.3095 C   0  0  1  0  0  0  0  0  0  0  0  0
  -22.7367  -28.8200   16.7188 C   0  0  0  0  0  0  0  0  0  0  0  0
  -27.1429  -36.9230   24.2733 C   0  0  0  0  0  0  0  0  0  0  0  0
  -21.7717  -34.2221   21.4936 C   0  0  0  0  0  0  0  0  0  0  0  0
  -23.2223  -36.2313   21.8500 C   0  0  0  0  0  0  0  0  0  0  0  0
  -22.1034  -35.1421   23.7954 C   0  0  0  0  0  0  0  0  0  0  0  0
  -28.7159  -33.4596   24.3578 C   0  0  0  0  0  0  0  0  0  0  0  0
  -22.5501  -23.8362   16.6142 C   0  0  0  0  0  0  0  0  0  0  0  0
  -21.5535  -23.4125   15.5367 C   0  0  0  0  0  0  0  0  0  0  0  0
  -27.2275  -29.8239   15.3579 C   0  0  0  0  0  0  0  0  0  0  0  0
  -26.9238  -30.3168   16.7640 C   0  0  0  0  0  0  0  0  0  1  0  0
  -26.5864  -28.4739   15.0773 C   0  0  0  0  0  0  0  0  0  0  0  0
  -24.0532  -33.9832   22.6785 C   0  0  1  0  0  0  0  0  0  0  0  0
  -27.1479  -35.4039   24.3440 C   0  0  2  0  0  0  0  0  0  0  0  0
  -22.7985  -34.8708   22.4433 C   0  0  0  0  0  0  0  0  0  0  0  0
  -24.3756  -25.0371   15.5409 N   0  0  0  0  0  0  0  0  0  0  0  0
  -25.3744  -16.1461   19.6094 N   0  0  0  0  0  0  0  0  0  0  0  0
  -24.0606  -15.9221   19.7818 N   0  0  0  0  0  0  0  0  0  0  0  0
  -24.0730  -31.5182   22.4612 N   0  0  0  0  0  0  0  0  0  0  0  0
  -21.1888  -19.6238   15.9246 N   0  0  0  0  0  0  0  0  0  0  0  0
  -22.6006  -18.7240   17.6340 N   0  0  0  0  0  0  0  0  0  0  0  0
  -22.5086  -14.3489   20.6345 N   0  0  0  0  0  0  0  0  0  0  0  0
  -26.5059  -12.3970   21.4141 N   0  0  0  0  0  0  0  0  0  0  0  0
  -21.7188  -28.7361   22.3413 N   0  0  0  0  0  0  0  0  0  0  0  0
  -25.0302  -34.5605   23.5952 N   0  0  0  0  0  0  0  0  0  0  0  0
  -28.5608  -34.9348   24.2756 N   0  3  0  0  0  0  0  0  0  0  0  0
  -24.2368  -12.1434   21.6275 O   0  0  0  0  0  0  0  0  0  0  0  0
  -21.9737  -30.7586   21.2156 O   0  0  0  0  0  0  0  0  0  0  0  0
  -23.1238  -32.5499   24.3242 O   0  0  0  0  0  0  0  0  0  0  0  0
  -26.8085  -34.5567   22.1070 O   0  0  0  0  0  0  0  0  0  0  0  0
  -21.8309  -17.4078   15.9038 O   0  0  0  0  0  0  0  0  0  0  0  0
  -31.5036  -14.5026   20.1395 O   0  0  0  0  0  0  0  0  0  0  0  0
  -27.4031  -29.3787   17.7180 O   0  0  0  0  0  0  0  0  0  1  0  0
  -25.1675  -28.5742   15.2093 O   0  0  0  0  0  0  0  0  0  0  0  0
  -33.8949  -12.7117   24.7740 F   0  0  0  0  0  0  0  0  0  0  0  0
  -30.8659  -12.0309   21.2008 F   0  0  0  0  0  0  0  0  0  0  0  0
  1  2  1  0  0  0  0
  1  5  2  0  0  0  0
  2  6  2  0  0  0  0
  3  8  2  0  0  0  0
  3 17  1  0  0  0  0
  4  9  1  0  0  0  0
  4 17  2  0  0  0  0
  5 19  1  0  0  0  0
  6 21  1  0  0  0  0
  7 10  2  0  0  0  0
  7 20  1  0  0  0  0
  8 24  1  0  0  0  0
  9 24  2  0  0  0  0
 10 25  1  0  0  0  0
 11 12  2  0  0  0  0
 11 26  1  0  0  0  0
 12 28  1  0  0  0  0
 13 22  1  0  0  0  0
 13 25  2  0  0  0  0
 14 23  1  0  0  0  0
 14 31  2  0  0  0  0
 15 28  2  0  0  0  0
 15 29  1  0  0  0  0
 16 27  1  0  0  0  0
 16 69  2  0  0  0  0
 17 30  1  0  0  0  0
 18 30  1  0  0  0  0
 18 32  2  0  0  0  0
 18 33  1  0  0  0  0
 19 21  2  0  0  0  0
 19 38  1  0  0  0  0
 20 22  2  0  0  0  0
 20 39  1  0  0  0  0
 21 51  1  0  0  0  0
 22 40  1  0  0  0  0
 23 27  2  0  0  0  0
 23 55  1  0  0  0  0
 24 85  1  0  0  0  0
 25 86  1  0  0  0  0
 26 29  2  0  0  0  0
 26 85  1  0  0  0  0
 27 87  1  0  0  0  0
 28 88  1  0  0  0  0
 29 89  1  0  0  0  0
 30 70  2  0  0  0  0
 31 61  1  0  0  0  0
 31 69  1  0  0  0  0
 32 71  1  0  0  0  0
 32 75  1  0  0  0  0
 33 76  1  0  0  0  0
 33 80  2  0  0  0  0
 34 52  1  0  0  0  0
 34 77  1  0  0  0  0
 34 81  2  0  0  0  0
 35 66  1  0  0  0  0
 35 72  1  0  0  0  0
 35 82  2  0  0  0  0
 36 67  1  0  0  0  0
 36 78  1  0  0  0  0
 36 83  2  0  0  0  0
 37 73  1  0  0  0  0
 37 74  1  0  0  0  0
 37 84  2  0  0  0  0
 38 41  1  0  0  0  0
 39 52  1  0  0  0  0
 40 72  1  0  0  0  0
 41 44  1  0  0  0  0
 42 45  1  0  0  0  0
 42 47  1  0  0  0  0
 43 46  1  0  0  0  0
 43 48  1  0  0  0  0
 44 51  1  0  0  0  0
 45 53  1  0  0  0  0
 46 54  1  0  0  0  0
 47 73  1  0  0  0  0
 48 74  1  0  0  0  0
 49 53  1  0  0  0  0
 49 73  1  0  0  0  0
 50 54  1  0  0  0  0
 50 74  1  0  0  0  0
 51 77  1  0  0  0  0
 52 72  1  0  0  0  0
 53 62  1  0  0  0  0
 54 71  1  0  0  0  0
 56 67  1  0  0  0  0
 57 68  1  0  0  0  0
 58 68  1  0  0  0  0
 59 68  1  0  0  0  0
 60 79  1  0  0  0  0
 61 62  1  0  0  0  0
 63 64  1  0  0  0  0
 63 65  1  0  0  0  0
 64 86  1  0  0  0  0
 65 87  1  0  0  0  0
 66 68  1  0  0  0  0
 66 78  1  0  0  0  0
 67 79  1  0  0  0  0
 70 71  1  0  0  0  0
M  CHG  1  79   1
M  ISO  4  37 100  64 101  73 100  86 101
M  END
> <Batch ID>
0041

> <Smiles>
CNC(C)C(=O)NC(C(=O)N1Cc2cc([101O:1][101CH2:1]CCOc3cnc(CCC4CCC[100N:0]([100C:0](=O)N5CCCC(n6nc(-c7ccc(Oc8ccc(F)cc8F)cc7)c(C(N)=O)c6N)C5)C4)cc3C)ccc2CC1C(=O)NC1CCCc2ccccc21)C(C)(C)C

> <Shape>
0.207

> <Color>
0.122

> <Negative vol penalty>
0.000

$$$$

  -OEChem-04052317093D

 81 89  0     1  0  0  0  0  0999 V2000
  -26.5941  -25.8094   24.2575 C   0  0  0  0  0  0  0  0  0  0  0  0
  -25.3082  -25.4885   23.8348 C   0  0  0  0  0  0  0  0  0  0  0  0
  -25.7312  -28.4795   21.5625 C   0  0  0  0  0  0  0  0  0  0  0  0
  -25.0841  -27.9697   19.2913 C   0  0  0  0  0  0  0  0  0  0  0  0
  -27.6907  -25.1315   23.7267 C   0  0  0  0  0  0  0  0  0  0  0  0
  -25.1181  -24.4901   22.8801 C   0  0  0  0  0  0  0  0  0  0  0  0
  -20.4396  -20.5517   22.5532 C   0  0  0  0  0  0  0  0  0  0  0  0
  -26.9799  -27.9004   21.3367 C   0  0  0  0  0  0  0  0  0  0  0  0
  -26.3328  -27.3906   19.0655 C   0  0  0  0  0  0  0  0  0  0  0  0
  -19.2722  -20.5432   21.7911 C   0  0  0  0  0  0  0  0  0  0  0  0
  -29.4790  -28.4352   18.4087 C   0  0  0  0  0  0  0  0  0  0  0  0
  -30.1353  -28.7564   17.2207 C   0  0  0  0  0  0  0  0  0  0  0  0
  -20.3483  -19.1178   20.1696 C   0  0  0  0  0  0  0  0  0  0  0  0
  -30.1368  -26.4240   16.5908 C   0  0  0  0  0  0  0  0  0  0  0  0
  -15.7543  -23.5691   18.8070 C   0  0  0  0  0  0  0  0  0  0  0  0
  -24.7832  -28.5141   20.5397 C   0  0  0  0  0  0  0  0  0  0  0  0
  -23.1310  -30.4574   20.5733 C   0  0  0  0  0  0  0  0  0  0  0  0
  -27.5133  -24.1176   22.7721 C   0  0  0  0  0  0  0  0  0  0  0  0
  -21.5756  -19.8510   22.1230 C   0  0  0  0  0  0  0  0  0  0  0  0
  -26.2134  -23.7988   22.3350 C   0  0  0  0  0  0  0  0  0  0  0  0
  -21.5281  -19.1169   20.9293 C   0  0  0  0  0  0  0  0  0  0  0  0
  -16.7894  -24.4412   18.5378 C   0  0  0  0  0  0  0  0  0  0  0  0
  -27.2807  -27.3560   20.0882 C   0  0  0  0  0  0  0  0  0  0  0  0
  -19.2273  -19.8285   20.5976 C   0  0  0  0  0  0  0  0  0  0  0  0
  -29.1516  -27.1083   18.6879 C   0  0  0  0  0  0  0  0  0  0  0  0
  -30.4643  -27.7509   16.3117 C   0  0  0  0  0  0  0  0  0  0  0  0
  -29.4805  -26.1027   17.7789 C   0  0  0  0  0  0  0  0  0  0  0  0
  -23.4930  -29.1116   20.7725 C   0  0  0  0  0  0  0  0  0  0  0  0
  -17.9195  -23.8739   17.9853 C   0  0  0  0  0  0  0  0  0  0  0  0
  -21.8076  -30.5144   20.9367 C   0  0  0  0  0  0  0  0  0  0  0  0
  -16.9630  -21.8122   18.0201 C   0  0  0  0  0  0  0  0  0  0  0  0
  -23.9203  -31.5576   20.1020 C   0  0  0  0  0  0  0  0  0  0  0  0
  -24.5419  -20.6637   21.3203 C   0  0  0  0  0  0  0  0  0  0  0  0
  -24.9632  -17.4512   21.1623 C   0  0  0  0  0  0  0  0  0  0  0  0
  -23.5700  -14.3634   20.7488 C   0  0  0  0  0  0  0  0  0  0  0  0
  -17.4522  -26.4102   21.1308 C   0  0  0  0  0  0  0  0  0  0  0  0
  -28.7324  -23.4452   22.1922 C   0  0  0  0  0  0  0  0  0  0  0  0
  -22.8186  -19.8484   22.9700 C   0  0  0  0  0  0  0  0  0  0  0  0
  -22.7139  -18.3316   20.4336 C   0  0  0  0  0  0  0  0  0  0  0  0
  -28.4194  -22.1424   21.4607 C   0  0  0  0  0  0  0  0  0  0  0  0
  -18.6249  -28.4167   23.8282 C   0  0  0  0  0  0  0  0  0  0  0  0
  -27.2243  -22.3261   20.5309 C   0  0  0  0  0  0  0  0  0  0  0  0
  -19.9728  -28.9437   23.3329 C   0  0  0  0  0  0  0  0  0  0  0  0
  -18.3711  -26.9861   23.3580 C   0  0  0  0  0  0  0  0  0  0  0  0
  -19.8425  -27.3084   21.4074 C   0  0  0  0  0  0  0  0  0  0  0  0
  -25.9648  -22.7048   21.3195 C   0  0  1  0  0  0  0  0  0  0  0  0
  -24.0805  -19.5196   22.1781 C   0  0  1  0  0  0  0  0  0  0  0  0
  -20.1184  -28.7674   21.8095 C   0  0  2  0  0  0  0  0  0  0  0  0
  -19.1029  -24.7211   17.6516 C   0  0  0  0  0  0  0  0  0  0  0  0
  -24.1725  -11.9302   20.6305 C   0  0  0  0  0  0  0  0  0  0  0  0
  -26.0368  -17.8569   18.3351 C   0  0  0  0  0  0  0  0  0  0  0  0
  -25.7223  -15.4050   17.9387 C   0  0  0  0  0  0  0  0  0  0  0  0
  -27.3027  -16.1889   19.7024 C   0  0  0  0  0  0  0  0  0  0  0  0
  -21.9014  -13.7164   23.1059 C   0  0  0  0  0  0  0  0  0  0  0  0
  -16.6695  -25.8916   18.8335 C   0  0  0  0  0  0  0  0  0  0  0  0
  -17.0604  -20.3344   17.7283 C   0  0  0  0  0  0  0  0  0  0  0  0
  -18.2397  -19.6796   18.4393 C   0  0  0  0  0  0  0  0  0  1  0  0
  -24.8129  -16.4050   20.0844 C   0  0  1  0  0  0  0  0  0  0  0  0
  -23.7307  -13.0728   21.5317 C   0  0  2  0  0  0  0  0  0  0  0  0
  -25.9468  -16.4802   19.0232 C   0  0  0  0  0  0  0  0  0  0  0  0
  -15.8073  -22.2438   18.5600 N   0  0  0  0  0  0  0  0  0  0  0  0
  -22.4813  -28.3674   21.2273 N   0  0  0  0  0  0  0  0  0  0  0  0
  -18.0411  -22.5582   17.7124 N   0  0  0  0  0  0  0  0  0  0  0  0
  -21.4706  -29.2487   21.3169 N   0  0  0  0  0  0  0  0  0  0  0  0
  -23.9082  -18.3653   21.2939 N   0  0  0  0  0  0  0  0  0  0  0  0
  -18.5232  -26.8873   21.9044 N   0  0  0  0  0  0  0  0  0  0  0  0
  -20.9110  -31.5232   20.9649 N   0  0  0  0  0  0  0  0  0  0  0  0
  -25.2625  -31.3243   19.7727 N   0  0  0  0  0  0  0  0  0  0  0  0
  -25.4000  -21.5369   21.9610 N   0  0  0  0  0  0  0  0  0  0  0  0
  -24.7217  -15.1213   20.7715 N   0  0  0  0  0  0  0  0  0  0  0  0
  -17.6778  -26.3543   19.7609 N   0  0  0  0  0  0  0  0  0  0  0  0
  -22.4409  -12.6927   22.1743 N   0  3  0  0  0  0  0  0  0  0  0  0
  -23.4538  -32.7168   19.9920 O   0  0  0  0  0  0  0  0  0  0  0  0
  -24.1496  -20.7471   20.1623 O   0  0  0  0  0  0  0  0  0  0  0  0
  -25.9760  -17.4529   21.8664 O   0  0  0  0  0  0  0  0  0  0  0  0
  -22.5283  -14.6670   20.1715 O   0  0  0  0  0  0  0  0  0  0  0  0
  -16.3730  -26.0651   21.6239 O   0  0  0  0  0  0  0  0  0  0  0  0
  -28.4992  -26.7911   19.8675 O   0  0  0  0  0  0  0  0  0  0  0  0
  -18.0893  -19.8191   19.8515 O   0  0  0  0  0  0  0  0  0  1  0  0
  -31.0932  -28.0597   15.1701 F   0  0  0  0  0  0  0  0  0  0  0  0
  -29.1675  -24.8263   18.0411 F   0  0  0  0  0  0  0  0  0  0  0  0
  1  2  1  0  0  0  0
  1  5  2  0  0  0  0
  2  6  2  0  0  0  0
  3  8  2  0  0  0  0
  3 16  1  0  0  0  0
  4  9  1  0  0  0  0
  4 16  2  0  0  0  0
  5 18  1  0  0  0  0
  6 20  1  0  0  0  0
  7 10  2  0  0  0  0
  7 19  1  0  0  0  0
  8 23  1  0  0  0  0
  9 23  2  0  0  0  0
 10 24  1  0  0  0  0
 11 12  2  0  0  0  0
 11 25  1  0  0  0  0
 12 26  1  0  0  0  0
 13 21  1  0  0  0  0
 13 24  2  0  0  0  0
 14 26  2  0  0  0  0
 14 27  1  0  0  0  0
 15 22  1  0  0  0  0
 15 61  2  0  0  0  0
 16 28  1  0  0  0  0
 17 28  1  0  0  0  0
 17 30  2  0  0  0  0
 17 32  1  0  0  0  0
 18 20  2  0  0  0  0
 18 37  1  0  0  0  0
 19 21  2  0  0  0  0
 19 38  1  0  0  0  0
 20 46  1  0  0  0  0
 21 39  1  0  0  0  0
 22 29  2  0  0  0  0
 22 55  1  0  0  0  0
 23 78  1  0  0  0  0
 24 79  1  0  0  0  0
 25 27  2  0  0  0  0
 25 78  1  0  0  0  0
 26 80  1  0  0  0  0
 27 81  1  0  0  0  0
 28 62  2  0  0  0  0
 29 49  1  0  0  0  0
 29 63  1  0  0  0  0
 30 64  1  0  0  0  0
 30 67  1  0  0  0  0
 31 56  1  0  0  0  0
 31 61  1  0  0  0  0
 31 63  2  0  0  0  0
 32 68  1  0  0  0  0
 32 73  2  0  0  0  0
 33 47  1  0  0  0  0
 33 69  1  0  0  0  0
 33 74  2  0  0  0  0
 34 58  1  0  0  0  0
 34 65  1  0  0  0  0
 34 75  2  0  0  0  0
 35 59  1  0  0  0  0
 35 70  1  0  0  0  0
 35 76  2  0  0  0  0
 36 66  1  0  0  0  0
 36 71  1  0  0  0  0
 36 77  2  0  0  0  0
 37 40  1  0  0  0  0
 38 47  1  0  0  0  0
 39 65  1  0  0  0  0
 40 42  1  0  0  0  0
 41 43  1  0  0  0  0
 41 44  1  0  0  0  0
 42 46  1  0  0  0  0
 43 48  1  0  0  0  0
 44 66  1  0  0  0  0
 45 48  1  0  0  0  0
 45 66  1  0  0  0  0
 46 69  1  0  0  0  0
 47 65  1  0  0  0  0
 48 64  1  0  0  0  0
 50 59  1  0  0  0  0
 51 60  1  0  0  0  0
 52 60  1  0  0  0  0
 53 60  1  0  0  0  0
 54 72  1  0  0  0  0
 55 71  1  0  0  0  0
 56 57  1  0  0  0  0
 57 79  1  0  0  0  0
 58 60  1  0  0  0  0
 58 70  1  0  0  0  0
 59 72  1  0  0  0  0
 62 64  1  0  0  0  0
M  CHG  1  72   1
M  ISO  4  36 100  57 101  71 100  79 101
M  END
> <Batch ID>
0041

> <Smiles>
CNC(C)C(=O)NC(C(=O)N1Cc2cc([101O:1][101CH2:1]Cc3ncc(C[100NH:0][100C:0](=O)N4CCCC(n5nc(-c6ccc(Oc7ccc(F)cc7F)cc6)c(C(N)=O)c5N)C4)c(C)n3)ccc2CC1C(=O)NC1CCCc2ccccc21)C(C)(C)C

> <Shape>
0.168

> <Color>
0.097

> <Negative vol penalty>
0.000

$$$$

  -OEChem-04052317093D

 85 93  0     1  0  0  0  0  0999 V2000
  -32.9132  -30.7194   20.3170 C   0  0  0  0  0  0  0  0  0  0  0  0
  -32.6154  -29.7538   21.2732 C   0  0  0  0  0  0  0  0  0  0  0  0
  -23.2474   -9.8124   19.9405 C   0  0  0  0  0  0  0  0  0  0  0  0
  -23.6342  -10.0206   22.3162 C   0  0  0  0  0  0  0  0  0  0  0  0
  -32.6401  -30.4743   18.9719 C   0  0  0  0  0  0  0  0  0  0  0  0
  -32.0432  -28.5429   20.8850 C   0  0  0  0  0  0  0  0  0  0  0  0
  -34.2107  -24.5591   23.1381 C   0  0  0  0  0  0  0  0  0  0  0  0
  -22.5086   -8.6503   20.1626 C   0  0  0  0  0  0  0  0  0  0  0  0
  -22.8954   -8.8585   22.5384 C   0  0  0  0  0  0  0  0  0  0  0  0
  -33.8475  -24.2990   24.4588 C   0  0  0  0  0  0  0  0  0  0  0  0
  -23.3714   -5.5198   22.2988 C   0  0  0  0  0  0  0  0  0  0  0  0
  -23.8963   -4.5773   23.1829 C   0  0  0  0  0  0  0  0  0  0  0  0
  -32.3371  -22.5787   23.6982 C   0  0  0  0  0  0  0  0  0  0  0  0
  -21.9418   -4.8038   24.5849 C   0  0  0  0  0  0  0  0  0  0  0  0
  -32.2220  -20.2419   27.4472 C   0  0  0  0  0  0  0  0  0  0  0  0
  -23.8102  -10.4975   21.0173 C   0  0  0  0  0  0  0  0  0  0  0  0
  -24.0900  -13.0192   20.7516 C   0  0  0  0  0  0  0  0  0  0  0  0
  -32.0732  -29.2559   18.5659 C   0  0  0  0  0  0  0  0  0  0  0  0
  -33.6308  -23.8372   22.0850 C   0  0  0  0  0  0  0  0  0  0  0  0
  -31.7611  -28.2818   19.5333 C   0  0  0  0  0  0  0  0  0  0  0  0
  -32.6966  -22.8298   22.3652 C   0  0  0  0  0  0  0  0  0  0  0  0
  -22.3326   -8.1733   21.4615 C   0  0  0  0  0  0  0  0  0  0  0  0
  -32.9084  -23.3107   24.7388 C   0  0  0  0  0  0  0  0  0  0  0  0
  -22.1317   -6.1045   22.5577 C   0  0  0  0  0  0  0  0  0  0  0  0
  -23.1815   -4.2192   24.3259 C   0  0  0  0  0  0  0  0  0  0  0  0
  -21.4169   -5.7464   23.7008 C   0  0  0  0  0  0  0  0  0  0  0  0
  -24.5739  -11.6977   20.7885 C   0  0  0  0  0  0  0  0  0  0  0  0
  -33.3491  -20.9148   27.8647 C   0  0  0  0  0  0  0  0  0  0  0  0
  -34.5779  -18.9999   27.6340 C   0  0  0  0  0  0  0  0  0  0  0  0
  -33.4505  -18.3269   27.2172 C   0  0  0  0  0  0  0  0  0  0  0  0
  -25.2026  -13.7855   20.5042 C   0  0  0  0  0  0  0  0  0  0  0  0
  -22.7542  -13.5101   20.9256 C   0  0  0  0  0  0  0  0  0  0  0  0
  -31.8322  -24.5877   19.5740 C   0  0  0  0  0  0  0  0  0  0  0  0
  -32.2695  -21.4635   18.8185 C   0  0  0  0  0  0  0  0  0  0  0  0
  -32.9757  -18.2977   19.8793 C   0  0  0  0  0  0  0  0  0  0  0  0
  -31.0439  -12.9369   21.5091 C   0  0  0  0  0  0  0  0  0  0  0  0
  -31.7525  -29.0553   17.1059 C   0  0  0  0  0  0  0  0  0  0  0  0
  -34.0532  -24.1115   20.6677 C   0  0  0  0  0  0  0  0  0  0  0  0
  -32.0597  -22.0126   21.2721 C   0  0  0  0  0  0  0  0  0  0  0  0
  -31.4910  -27.5980   16.7343 C   0  0  0  0  0  0  0  0  0  0  0  0
  -29.4838  -13.5938   18.3768 C   0  0  0  0  0  0  0  0  0  0  0  0
  -30.5482  -26.9506   17.7437 C   0  0  0  0  0  0  0  0  0  0  0  0
  -28.0049  -13.3016   18.6364 C   0  0  0  0  0  0  0  0  0  0  0  0
  -30.3916  -12.6310   19.1390 C   0  0  0  0  0  0  0  0  0  0  0  0
  -28.6554  -12.2620   20.8488 C   0  0  0  0  0  0  0  0  0  0  0  0
  -31.1628  -26.9460   19.1486 C   0  0  1  0  0  0  0  0  0  0  0  0
  -33.0180  -23.6672   19.6391 C   0  0  1  0  0  0  0  0  0  0  0  0
  -27.7014  -13.2427   20.1456 C   0  0  2  0  0  0  0  0  0  0  0  0
  -35.8972  -18.3146   27.7405 C   0  0  0  0  0  0  0  0  0  0  0  0
  -33.2249  -15.9473   19.0363 C   0  0  0  0  0  0  0  0  0  0  0  0
  -29.2350  -21.2174   18.6152 C   0  0  0  0  0  0  0  0  0  0  0  0
  -29.4995  -18.7300   18.7206 C   0  0  0  0  0  0  0  0  0  0  0  0
  -30.5017  -20.0100   16.8285 C   0  0  0  0  0  0  0  0  0  0  0  0
  -35.8014  -18.1620   20.7487 C   0  0  0  0  0  0  0  0  0  0  0  0
  -33.2768  -22.3779   28.2286 C   0  0  0  0  0  0  0  0  0  0  0  0
  -33.4978  -16.8821   26.8535 C   0  0  0  0  0  0  0  0  0  0  0  0
  -32.4938  -16.5273   25.7457 C   0  0  0  0  0  0  0  0  0  0  0  0
  -32.5229  -15.0352   25.4084 C   0  0  0  0  0  0  0  0  0  0  0  0
  -31.5464  -14.7026   24.2764 C   0  0  0  0  0  0  0  0  0  0  0  0
  -31.5412  -13.2188   23.9241 C   0  0  0  0  0  0  0  0  0  0  0  0
  -33.5376  -23.2865   27.0321 C   0  0  0  0  0  0  0  0  0  1  0  0
  -31.5420  -20.1771   19.1267 C   0  0  1  0  0  0  0  0  0  0  0  0
  -33.9410  -17.2509   19.3532 C   0  0  2  0  0  0  0  0  0  0  0  0
  -30.2049  -20.0502   18.3434 C   0  0  0  0  0  0  0  0  0  0  0  0
  -32.2525  -18.9358   27.1160 N   0  0  0  0  0  0  0  0  0  0  0  0
  -25.8913  -11.6251   20.5809 N   0  0  0  0  0  0  0  0  0  0  0  0
  -34.5473  -20.3059   27.9655 N   0  0  0  0  0  0  0  0  0  0  0  0
  -26.2447  -12.9105   20.4111 N   0  0  0  0  0  0  0  0  0  0  0  0
  -32.5008  -22.3227   19.9021 N   0  0  0  0  0  0  0  0  0  0  0  0
  -30.0530  -12.6235   20.5642 N   0  0  0  0  0  0  0  0  0  0  0  0
  -25.3815  -15.1157   20.3592 N   0  0  0  0  0  0  0  0  0  0  0  0
  -21.7297  -12.5861   21.1726 N   0  0  0  0  0  0  0  0  0  0  0  0
  -32.1518  -25.8958   19.2641 N   0  0  0  0  0  0  0  0  0  0  0  0
  -32.4908  -19.0996   18.8678 N   0  0  0  0  0  0  0  0  0  0  0  0
  -30.6375  -12.9128   22.8376 N   0  0  0  0  0  0  0  0  0  0  0  0
  -35.0020  -16.9711   20.3617 N   0  3  0  0  0  0  0  0  0  0  0  0
  -22.4746  -14.7305   20.8475 O   0  0  0  0  0  0  0  0  0  0  0  0
  -30.7102  -24.1437   19.7876 O   0  0  0  0  0  0  0  0  0  0  0  0
  -32.6259  -21.6942   17.6603 O   0  0  0  0  0  0  0  0  0  0  0  0
  -32.6785  -18.3920   21.0681 O   0  0  0  0  0  0  0  0  0  0  0  0
  -32.2036  -13.2226   21.1919 O   0  0  0  0  0  0  0  0  0  0  0  0
  -21.6116   -7.0395   21.6786 O   0  0  0  0  0  0  0  0  0  0  0  0
  -32.5515  -23.0553   26.0269 O   0  0  0  0  0  0  0  0  0  1  0  0
  -23.6850   -3.3129   25.1740 F   0  0  0  0  0  0  0  0  0  0  0  0
  -20.2249   -6.3038   23.9543 F   0  0  0  0  0  0  0  0  0  0  0  0
  1  2  1  0  0  0  0
  1  5  2  0  0  0  0
  2  6  2  0  0  0  0
  3  8  2  0  0  0  0
  3 16  1  0  0  0  0
  4  9  1  0  0  0  0
  4 16  2  0  0  0  0
  5 18  1  0  0  0  0
  6 20  1  0  0  0  0
  7 10  2  0  0  0  0
  7 19  1  0  0  0  0
  8 22  1  0  0  0  0
  9 22  2  0  0  0  0
 10 23  1  0  0  0  0
 11 12  2  0  0  0  0
 11 24  1  0  0  0  0
 12 25  1  0  0  0  0
 13 21  1  0  0  0  0
 13 23  2  0  0  0  0
 14 25  2  0  0  0  0
 14 26  1  0  0  0  0
 15 28  1  0  0  0  0
 15 65  2  0  0  0  0
 16 27  1  0  0  0  0
 17 27  1  0  0  0  0
 17 31  2  0  0  0  0
 17 32  1  0  0  0  0
 18 20  2  0  0  0  0
 18 37  1  0  0  0  0
 19 21  2  0  0  0  0
 19 38  1  0  0  0  0
 20 46  1  0  0  0  0
 21 39  1  0  0  0  0
 22 82  1  0  0  0  0
 23 83  1  0  0  0  0
 24 26  2  0  0  0  0
 24 82  1  0  0  0  0
 25 84  1  0  0  0  0
 26 85  1  0  0  0  0
 27 66  2  0  0  0  0
 28 55  1  0  0  0  0
 28 67  2  0  0  0  0
 29 30  2  0  0  0  0
 29 49  1  0  0  0  0
 29 67  1  0  0  0  0
 30 56  1  0  0  0  0
 30 65  1  0  0  0  0
 31 68  1  0  0  0  0
 31 71  1  0  0  0  0
 32 72  1  0  0  0  0
 32 77  2  0  0  0  0
 33 47  1  0  0  0  0
 33 73  1  0  0  0  0
 33 78  2  0  0  0  0
 34 62  1  0  0  0  0
 34 69  1  0  0  0  0
 34 79  2  0  0  0  0
 35 63  1  0  0  0  0
 35 74  1  0  0  0  0
 35 80  2  0  0  0  0
 36 70  1  0  0  0  0
 36 75  1  0  0  0  0
 36 81  2  0  0  0  0
 37 40  1  0  0  0  0
 38 47  1  0  0  0  0
 39 69  1  0  0  0  0
 40 42  1  0  0  0  0
 41 43  1  0  0  0  0
 41 44  1  0  0  0  0
 42 46  1  0  0  0  0
 43 48  1  0  0  0  0
 44 70  1  0  0  0  0
 45 48  1  0  0  0  0
 45 70  1  0  0  0  0
 46 73  1  0  0  0  0
 47 69  1  0  0  0  0
 48 68  1  0  0  0  0
 50 63  1  0  0  0  0
 51 64  1  0  0  0  0
 52 64  1  0  0  0  0
 53 64  1  0  0  0  0
 54 76  1  0  0  0  0
 55 61  1  0  0  0  0
 56 57  1  0  0  0  0
 57 58  1  0  0  0  0
 58 59  1  0  0  0  0
 59 60  1  0  0  0  0
 60 75  1  0  0  0  0
 61 83  1  0  0  0  0
 62 64  1  0  0  0  0
 62 74  1  0  0  0  0
 63 76  1  0  0  0  0
 66 68  1  0  0  0  0
M  CHG  1  76   1
M  ISO  4  36 100  61 101  75 100  83 101
M  END
> <Batch ID>
0041

> <Smiles>
CNC(C)C(=O)NC(C(=O)N1Cc2cc([101O:1][101CH2:1]Cc3cnc(CCCCC[100NH:0][100C:0](=O)N4CCCC(n5nc(-c6ccc(Oc7ccc(F)cc7F)cc6)c(C(N)=O)c5N)C4)c(C)n3)ccc2CC1C(=O)NC1CCCc2ccccc21)C(C)(C)C

> <Shape>
0.181

> <Color>
0.183

> <Negative vol penalty>
0.000

$$$$

  -OEChem-04052317093D

 82 90  0     1  0  0  0  0  0999 V2000
  -21.5781  -12.2074   20.8797 C   0  0  0  0  0  0  0  0  0  0  0  0
  -21.6272  -13.5274   21.3163 C   0  0  0  0  0  0  0  0  0  0  0  0
  -29.5322  -27.3646   21.6267 C   0  0  0  0  0  0  0  0  0  0  0  0
  -27.9027  -25.5880   21.7866 C   0  0  0  0  0  0  0  0  0  0  0  0
  -22.7581  -11.5327   20.5696 C   0  0  0  0  0  0  0  0  0  0  0  0
  -22.8565  -14.1731   21.4440 C   0  0  0  0  0  0  0  0  0  0  0  0
  -22.7948  -18.8636   19.5361 C   0  0  0  0  0  0  0  0  0  0  0  0
  -30.4438  -26.5934   22.3477 C   0  0  0  0  0  0  0  0  0  0  0  0
  -28.8143  -24.8168   22.5076 C   0  0  0  0  0  0  0  0  0  0  0  0
  -22.1999  -19.8584   20.3109 C   0  0  0  0  0  0  0  0  0  0  0  0
  -29.9743  -24.6464   25.6787 C   0  0  0  0  0  0  0  0  0  0  0  0
  -29.5092  -23.9895   26.8179 C   0  0  0  0  0  0  0  0  0  0  0  0
  -24.3808  -20.5831   21.0440 C   0  0  0  0  0  0  0  0  0  0  0  0
  -30.1203  -21.8653   25.8424 C   0  0  0  0  0  0  0  0  0  0  0  0
  -28.2616  -26.8620   21.3463 C   0  0  0  0  0  0  0  0  0  0  0  0
  -27.1485  -27.6889   19.2050 C   0  0  0  0  0  0  0  0  0  0  0  0
  -24.0018  -12.1735   20.6844 C   0  0  0  0  0  0  0  0  0  0  0  0
  -24.1889  -18.7139   19.5179 C   0  0  0  0  0  0  0  0  0  0  0  0
  -24.0543  -13.5059   21.1365 C   0  0  0  0  0  0  0  0  0  0  0  0
  -24.9911  -19.5873   20.2662 C   0  0  0  0  0  0  0  0  0  0  0  0
  -30.0849  -25.3195   22.7881 C   0  0  0  0  0  0  0  0  0  0  0  0
  -22.9928  -20.7165   21.0673 C   0  0  0  0  0  0  0  0  0  0  0  0
  -30.5123  -23.9128   24.6213 C   0  0  0  0  0  0  0  0  0  0  0  0
  -29.5822  -22.5989   26.8998 C   0  0  0  0  0  0  0  0  0  0  0  0
  -30.5853  -22.5223   24.7032 C   0  0  0  0  0  0  0  0  0  0  0  0
  -27.3192  -27.6584   20.6021 C   0  0  0  0  0  0  0  0  0  0  0  0
  -19.6481  -24.1155   24.1732 C   0  0  0  0  0  0  0  0  0  0  0  0
  -20.3659  -24.9869   23.3883 C   0  0  0  0  0  0  0  0  0  0  0  0
  -26.1378  -28.5966   19.0024 C   0  0  0  0  0  0  0  0  0  0  0  0
  -20.5503  -22.9129   22.6663 C   0  0  0  0  0  0  0  0  0  0  0  0
  -27.8415  -26.9618   18.1819 C   0  0  0  0  0  0  0  0  0  0  0  0
  -26.2077  -16.4027   20.3465 C   0  0  0  0  0  0  0  0  0  0  0  0
  -28.4109  -18.3925   19.0393 C   0  0  0  0  0  0  0  0  0  0  0  0
  -29.2855  -21.5737   18.1662 C   0  0  0  0  0  0  0  0  0  0  0  0
  -21.6345  -30.5210   22.4475 C   0  0  0  0  0  0  0  0  0  0  0  0
  -25.2537  -11.3881   20.3830 C   0  0  0  0  0  0  0  0  0  0  0  0
  -24.8166  -17.6530   18.6560 C   0  0  0  0  0  0  0  0  0  0  0  0
  -26.4935  -19.4814   20.2653 C   0  0  0  0  0  0  0  0  0  0  0  0
  -26.4891  -12.2630   20.1867 C   0  0  0  0  0  0  0  0  0  0  0  0
  -24.1737  -32.5073   20.9362 C   0  0  0  0  0  0  0  0  0  0  0  0
  -26.5811  -13.3121   21.2903 C   0  0  0  0  0  0  0  0  0  0  0  0
  -25.2524  -31.4926   20.5531 C   0  0  0  0  0  0  0  0  0  0  0  0
  -23.4982  -32.1417   22.2560 C   0  0  0  0  0  0  0  0  0  0  0  0
  -24.0319  -29.7577   21.9313 C   0  0  0  0  0  0  0  0  0  0  0  0
  -25.3668  -14.2483   21.2641 C   0  0  1  0  0  0  0  0  0  0  0  0
  -26.2184  -17.2627   19.1145 C   0  0  1  0  0  0  0  0  0  0  0  0
  -24.7031  -30.0535   20.5792 C   0  0  2  0  0  0  0  0  0  0  0  0
  -18.8310  -24.4139   25.3600 C   0  0  0  0  0  0  0  0  0  0  0  0
  -31.1642  -22.8919   17.1512 C   0  0  0  0  0  0  0  0  0  0  0  0
  -29.9661  -18.1867   21.6563 C   0  0  0  0  0  0  0  0  0  0  0  0
  -31.2722  -20.2053   20.9581 C   0  0  0  0  0  0  0  0  0  0  0  0
  -31.3800  -18.1191   19.5946 C   0  0  0  0  0  0  0  0  0  0  0  0
  -21.7949  -24.6536   21.3544 C   0  0  0  0  0  0  0  0  0  0  0  0
  -27.5911  -22.4734   15.9127 C   0  0  0  0  0  0  0  0  0  0  0  0
  -20.5547  -26.4470   23.4595 C   0  0  0  0  0  0  0  0  0  0  0  0
  -20.9904  -21.7712   21.7979 C   0  0  0  0  0  0  0  0  0  1  0  0
  -19.6886  -27.2688   22.4729 C   0  0  0  0  0  0  0  0  0  0  0  0
  -19.8719  -28.7801   22.5941 C   0  0  0  0  0  0  0  0  0  0  0  0
  -29.2745  -19.5182   19.5552 C   0  0  1  0  0  0  0  0  0  0  0  0
  -29.8679  -22.1425   16.8850 C   0  0  2  0  0  0  0  0  0  0  0  0
  -30.4448  -19.0083   20.4428 C   0  0  0  0  0  0  0  0  0  0  0  0
  -26.4840  -28.4813   21.2417 N   0  0  0  0  0  0  0  0  0  0  0  0
  -19.7673  -22.8260   23.7186 N   0  0  0  0  0  0  0  0  0  0  0  0
  -20.9387  -24.2019   22.4276 N   0  0  0  0  0  0  0  0  0  0  0  0
  -25.7787  -29.0376   20.2421 N   0  0  0  0  0  0  0  0  0  0  0  0
  -27.0596  -18.4239   19.4115 N   0  0  0  0  0  0  0  0  0  0  0  0
  -22.9980  -30.7655   22.2145 N   0  0  0  0  0  0  0  0  0  0  0  0
  -25.5300  -29.0526   17.8865 N   0  0  0  0  0  0  0  0  0  0  0  0
  -28.8526  -26.0698   18.5645 N   0  0  0  0  0  0  0  0  0  0  0  0
  -25.5028  -15.2229   20.2030 N   0  0  0  0  0  0  0  0  0  0  0  0
  -29.6995  -20.2765   18.3836 N   0  0  0  0  0  0  0  0  0  0  0  0
  -21.2426  -29.1895   22.3832 N   0  0  0  0  0  0  0  0  0  0  0  0
  -28.9026  -23.0841   16.2505 N   0  3  0  0  0  0  0  0  0  0  0  0
  -27.5833  -27.1112   16.9635 O   0  0  0  0  0  0  0  0  0  0  0  0
  -26.7967  -16.7808   21.3524 O   0  0  0  0  0  0  0  0  0  0  0  0
  -28.9153  -17.5215   18.3261 O   0  0  0  0  0  0  0  0  0  0  0  0
  -28.5410  -22.2170   18.9026 O   0  0  0  0  0  0  0  0  0  0  0  0
  -20.8254  -31.4232   22.6892 O   0  0  0  0  0  0  0  0  0  0  0  0
  -30.9743  -24.5666   23.4914 O   0  0  0  0  0  0  0  0  0  0  0  0
  -22.4147  -21.6879   21.8249 O   0  0  0  0  0  0  0  0  0  1  0  0
  -29.1370  -21.9683   27.9944 F   0  0  0  0  0  0  0  0  0  0  0  0
  -31.1022  -21.8122   23.6910 F   0  0  0  0  0  0  0  0  0  0  0  0
  1  2  1  0  0  0  0
  1  5  2  0  0  0  0
  2  6  2  0  0  0  0
  3  8  2  0  0  0  0
  3 15  1  0  0  0  0
  4  9  1  0  0  0  0
  4 15  2  0  0  0  0
  5 17  1  0  0  0  0
  6 19  1  0  0  0  0
  7 10  2  0  0  0  0
  7 18  1  0  0  0  0
  8 21  1  0  0  0  0
  9 21  2  0  0  0  0
 10 22  1  0  0  0  0
 11 12  2  0  0  0  0
 11 23  1  0  0  0  0
 12 24  1  0  0  0  0
 13 20  1  0  0  0  0
 13 22  2  0  0  0  0
 14 24  2  0  0  0  0
 14 25  1  0  0  0  0
 15 26  1  0  0  0  0
 16 26  1  0  0  0  0
 16 29  2  0  0  0  0
 16 31  1  0  0  0  0
 17 19  2  0  0  0  0
 17 36  1  0  0  0  0
 18 20  2  0  0  0  0
 18 37  1  0  0  0  0
 19 45  1  0  0  0  0
 20 38  1  0  0  0  0
 21 79  1  0  0  0  0
 22 80  1  0  0  0  0
 23 25  2  0  0  0  0
 23 79  1  0  0  0  0
 24 81  1  0  0  0  0
 25 82  1  0  0  0  0
 26 62  2  0  0  0  0
 27 28  2  0  0  0  0
 27 48  1  0  0  0  0
 27 63  1  0  0  0  0
 28 55  1  0  0  0  0
 28 64  1  0  0  0  0
 29 65  1  0  0  0  0
 29 68  1  0  0  0  0
 30 56  1  0  0  0  0
 30 63  2  0  0  0  0
 30 64  1  0  0  0  0
 31 69  1  0  0  0  0
 31 74  2  0  0  0  0
 32 46  1  0  0  0  0
 32 70  1  0  0  0  0
 32 75  2  0  0  0  0
 33 59  1  0  0  0  0
 33 66  1  0  0  0  0
 33 76  2  0  0  0  0
 34 60  1  0  0  0  0
 34 71  1  0  0  0  0
 34 77  2  0  0  0  0
 35 67  1  0  0  0  0
 35 72  1  0  0  0  0
 35 78  2  0  0  0  0
 36 39  1  0  0  0  0
 37 46  1  0  0  0  0
 38 66  1  0  0  0  0
 39 41  1  0  0  0  0
 40 42  1  0  0  0  0
 40 43  1  0  0  0  0
 41 45  1  0  0  0  0
 42 47  1  0  0  0  0
 43 67  1  0  0  0  0
 44 47  1  0  0  0  0
 44 67  1  0  0  0  0
 45 70  1  0  0  0  0
 46 66  1  0  0  0  0
 47 65  1  0  0  0  0
 49 60  1  0  0  0  0
 50 61  1  0  0  0  0
 51 61  1  0  0  0  0
 52 61  1  0  0  0  0
 53 64  1  0  0  0  0
 54 73  1  0  0  0  0
 55 57  1  0  0  0  0
 56 80  1  0  0  0  0
 57 58  1  0  0  0  0
 58 72  1  0  0  0  0
 59 61  1  0  0  0  0
 59 71  1  0  0  0  0
 60 73  1  0  0  0  0
 62 65  1  0  0  0  0
M  CHG  1  73   1
M  ISO  4  35 100  56 101  72 100  80 101
M  END
> <Batch ID>
0041

> <Smiles>
CNC(C)C(=O)NC(C(=O)N1Cc2cc([101O:1][101CH2:1]c3nc(C)c(CCC[100NH:0][100C:0](=O)N4CCCC(n5nc(-c6ccc(Oc7ccc(F)cc7F)cc6)c(C(N)=O)c5N)C4)n3C)ccc2CC1C(=O)NC1CCCc2ccccc21)C(C)(C)C

> <Shape>
0.216

> <Color>
0.083

> <Negative vol penalty>
0.000

$$$$

  -OEChem-04052317093D

 83 91  0     1  0  0  0  0  0999 V2000
  -28.9498  -10.9753   18.8627 C   0  0  0  0  0  0  0  0  0  0  0  0
  -28.0059  -11.9879   18.7248 C   0  0  0  0  0  0  0  0  0  0  0  0
  -22.6877  -27.2097   23.5562 C   0  0  0  0  0  0  0  0  0  0  0  0
  -22.4807  -27.0648   21.1534 C   0  0  0  0  0  0  0  0  0  0  0  0
  -30.0538  -11.1615   19.6936 C   0  0  0  0  0  0  0  0  0  0  0  0
  -28.1648  -13.1869   19.4186 C   0  0  0  0  0  0  0  0  0  0  0  0
  -27.2643  -17.2419   16.5218 C   0  0  0  0  0  0  0  0  0  0  0  0
  -24.0774  -27.2031   23.4369 C   0  0  0  0  0  0  0  0  0  0  0  0
  -23.8705  -27.0582   21.0341 C   0  0  0  0  0  0  0  0  0  0  0  0
  -25.9306  -17.5675   16.2791 C   0  0  0  0  0  0  0  0  0  0  0  0
  -26.3876  -29.3111   21.1296 C   0  0  0  0  0  0  0  0  0  0  0  0
  -26.9566  -30.1287   20.1532 C   0  0  0  0  0  0  0  0  0  0  0  0
  -26.0424  -19.2704   17.9840 C   0  0  0  0  0  0  0  0  0  0  0  0
  -27.9323  -28.1876   19.0963 C   0  0  0  0  0  0  0  0  0  0  0  0
  -20.9064  -19.7307   17.8900 C   0  0  0  0  0  0  0  0  0  0  0  0
  -21.8893  -27.1404   22.4144 C   0  0  0  0  0  0  0  0  0  0  0  0
  -19.6058  -28.2703   22.5421 C   0  0  0  0  0  0  0  0  0  0  0  0
  -30.2314  -12.3671   20.3905 C   0  0  0  0  0  0  0  0  0  0  0  0
  -27.9952  -17.9219   17.5066 C   0  0  0  0  0  0  0  0  0  0  0  0
  -29.2716  -13.3889   20.2607 C   0  0  0  0  0  0  0  0  0  0  0  0
  -27.3860  -18.9533   18.2355 C   0  0  0  0  0  0  0  0  0  0  0  0
  -22.0139  -20.1283   17.1816 C   0  0  0  0  0  0  0  0  0  0  0  0
  -24.6688  -27.1274   22.1759 C   0  0  0  0  0  0  0  0  0  0  0  0
  -25.3186  -18.5799   17.0122 C   0  0  0  0  0  0  0  0  0  0  0  0
  -26.5911  -27.9317   21.0894 C   0  0  0  0  0  0  0  0  0  0  0  0
  -27.7289  -29.5670   19.1365 C   0  0  0  0  0  0  0  0  0  0  0  0
  -27.3634  -27.3699   20.0728 C   0  0  0  0  0  0  0  0  0  0  0  0
  -20.4537  -27.1466   22.5370 C   0  0  0  0  0  0  0  0  0  0  0  0
  -21.4918  -20.7378   16.0250 C   0  0  0  0  0  0  0  0  0  0  0  0
  -18.3434  -27.7473   22.6815 C   0  0  0  0  0  0  0  0  0  0  0  0
  -19.9302  -29.6625   22.4306 C   0  0  0  0  0  0  0  0  0  0  0  0
  -29.4407  -17.0797   20.2094 C   0  0  0  0  0  0  0  0  0  0  0  0
  -30.4581  -20.1596   20.1683 C   0  0  0  0  0  0  0  0  0  0  0  0
  -29.9591  -23.3616   19.0983 C   0  0  0  0  0  0  0  0  0  0  0  0
  -15.9689  -22.4151   21.3473 C   0  0  0  0  0  0  0  0  0  0  0  0
  -31.4161  -12.5041   21.3138 C   0  0  0  0  0  0  0  0  0  0  0  0
  -29.4408  -17.5768   17.7378 C   0  0  0  0  0  0  0  0  0  0  0  0
  -28.1328  -19.7274   19.2898 C   0  0  0  0  0  0  0  0  0  0  0  0
  -31.7063  -13.9461   21.7224 C   0  0  0  0  0  0  0  0  0  0  0  0
  -16.0296  -23.9936   24.5381 C   0  0  0  0  0  0  0  0  0  0  0  0
  -30.4200  -14.6517   22.1401 C   0  0  0  0  0  0  0  0  0  0  0  0
  -17.0938  -25.0821   24.3875 C   0  0  0  0  0  0  0  0  0  0  0  0
  -16.4018  -22.7298   23.7660 C   0  0  0  0  0  0  0  0  0  0  0  0
  -17.7773  -24.0326   22.1898 C   0  0  0  0  0  0  0  0  0  0  0  0
  -29.4220  -14.7132   20.9776 C   0  0  1  0  0  0  0  0  0  0  0  0
  -29.9393  -17.9866   19.1201 C   0  0  1  0  0  0  0  0  0  0  0  0
  -17.4196  -25.3465   22.9052 C   0  0  2  0  0  0  0  0  0  0  0  0
  -22.2875  -20.4535   13.6644 C   0  0  0  0  0  0  0  0  0  0  0  0
  -30.9371  -25.6670   19.2583 C   0  0  0  0  0  0  0  0  0  0  0  0
  -29.3383  -20.4358   22.9932 C   0  0  0  0  0  0  0  0  0  0  0  0
  -29.4758  -22.9217   22.7296 C   0  0  0  0  0  0  0  0  0  0  0  0
  -31.5523  -21.5426   22.6357 C   0  0  0  0  0  0  0  0  0  0  0  0
  -30.4069  -23.5003   16.1761 C   0  0  0  0  0  0  0  0  0  0  0  0
  -23.4530  -19.9471   17.5658 C   0  0  0  0  0  0  0  0  0  1  0  0
  -22.2379  -21.3466   14.9098 C   0  0  0  0  0  0  0  0  0  0  0  0
  -17.7898  -21.1934   17.9950 C   0  0  0  0  0  0  0  0  0  0  0  0
  -16.3286  -20.9543   18.3867 C   0  0  0  0  0  0  0  0  0  0  0  0
  -18.4409  -19.9080   17.4782 C   0  0  0  0  0  0  0  0  0  0  0  0
  -15.6434  -22.2187   18.8948 C   0  0  0  0  0  0  0  0  0  0  0  0
  -29.9265  -21.4683   20.7010 C   0  0  1  0  0  0  0  0  0  0  0  0
  -30.9003  -24.3702   18.4649 C   0  0  2  0  0  0  0  0  0  0  0  0
  -30.0583  -21.5764   22.2464 C   0  0  0  0  0  0  0  0  0  0  0  0
  -19.7864  -25.9965   22.6634 N   0  0  0  0  0  0  0  0  0  0  0  0
  -20.1565  -20.7303   15.9962 N   0  0  0  0  0  0  0  0  0  0  0  0
  -19.8301  -20.1111   17.1435 N   0  0  0  0  0  0  0  0  0  0  0  0
  -18.5057  -26.3948   22.7492 N   0  0  0  0  0  0  0  0  0  0  0  0
  -29.5423  -19.3485   19.4833 N   0  0  0  0  0  0  0  0  0  0  0  0
  -16.6973  -23.0493   22.3672 N   0  0  0  0  0  0  0  0  0  0  0  0
  -17.1216  -28.3170   22.7517 N   0  0  0  0  0  0  0  0  0  0  0  0
  -21.2768  -30.0258   22.2935 N   0  0  0  0  0  0  0  0  0  0  0  0
  -29.7961  -15.7545   20.0448 N   0  0  0  0  0  0  0  0  0  0  0  0
  -30.6215  -22.5202   19.9669 N   0  0  0  0  0  0  0  0  0  0  0  0
  -16.3078  -22.7798   20.0500 N   0  0  0  0  0  0  0  0  0  0  0  0
  -30.4654  -24.6823   17.0741 N   0  3  0  0  0  0  0  0  0  0  0  0
  -19.0533  -30.5587   22.4685 O   0  0  0  0  0  0  0  0  0  0  0  0
  -28.7835  -17.5478   21.1317 O   0  0  0  0  0  0  0  0  0  0  0  0
  -31.6440  -19.8709   20.3471 O   0  0  0  0  0  0  0  0  0  0  0  0
  -28.7558  -23.3262   18.8503 O   0  0  0  0  0  0  0  0  0  0  0  0
  -15.0786  -21.5892   21.5760 O   0  0  0  0  0  0  0  0  0  0  0  0
  -26.0249  -27.1213   22.0591 O   0  0  0  0  0  0  0  0  0  0  0  0
  -24.0167  -18.8993   16.7778 O   0  0  0  0  0  0  0  0  0  1  0  0
  -28.2739  -30.3521   18.1981 F   0  0  0  0  0  0  0  0  0  0  0  0
  -27.5613  -26.0453   20.0283 F   0  0  0  0  0  0  0  0  0  0  0  0
  1  2  1  0  0  0  0
  1  5  2  0  0  0  0
  2  6  2  0  0  0  0
  3  8  2  0  0  0  0
  3 16  1  0  0  0  0
  4  9  1  0  0  0  0
  4 16  2  0  0  0  0
  5 18  1  0  0  0  0
  6 20  1  0  0  0  0
  7 10  2  0  0  0  0
  7 19  1  0  0  0  0
  8 23  1  0  0  0  0
  9 23  2  0  0  0  0
 10 24  1  0  0  0  0
 11 12  2  0  0  0  0
 11 25  1  0  0  0  0
 12 26  1  0  0  0  0
 13 21  1  0  0  0  0
 13 24  2  0  0  0  0
 14 26  2  0  0  0  0
 14 27  1  0  0  0  0
 15 22  2  0  0  0  0
 15 65  1  0  0  0  0
 16 28  1  0  0  0  0
 17 28  1  0  0  0  0
 17 30  2  0  0  0  0
 17 31  1  0  0  0  0
 18 20  2  0  0  0  0
 18 36  1  0  0  0  0
 19 21  2  0  0  0  0
 19 37  1  0  0  0  0
 20 45  1  0  0  0  0
 21 38  1  0  0  0  0
 22 29  1  0  0  0  0
 22 54  1  0  0  0  0
 23 80  1  0  0  0  0
 24 81  1  0  0  0  0
 25 27  2  0  0  0  0
 25 80  1  0  0  0  0
 26 82  1  0  0  0  0
 27 83  1  0  0  0  0
 28 63  2  0  0  0  0
 29 55  1  0  0  0  0
 29 64  2  0  0  0  0
 30 66  1  0  0  0  0
 30 69  1  0  0  0  0
 31 70  1  0  0  0  0
 31 75  2  0  0  0  0
 32 46  1  0  0  0  0
 32 71  1  0  0  0  0
 32 76  2  0  0  0  0
 33 60  1  0  0  0  0
 33 67  1  0  0  0  0
 33 77  2  0  0  0  0
 34 61  1  0  0  0  0
 34 72  1  0  0  0  0
 34 78  2  0  0  0  0
 35 68  1  0  0  0  0
 35 73  1  0  0  0  0
 35 79  2  0  0  0  0
 36 39  1  0  0  0  0
 37 46  1  0  0  0  0
 38 67  1  0  0  0  0
 39 41  1  0  0  0  0
 40 42  1  0  0  0  0
 40 43  1  0  0  0  0
 41 45  1  0  0  0  0
 42 47  1  0  0  0  0
 43 68  1  0  0  0  0
 44 47  1  0  0  0  0
 44 68  1  0  0  0  0
 45 71  1  0  0  0  0
 46 67  1  0  0  0  0
 47 66  1  0  0  0  0
 48 55  1  0  0  0  0
 49 61  1  0  0  0  0
 50 62  1  0  0  0  0
 51 62  1  0  0  0  0
 52 62  1  0  0  0  0
 53 74  1  0  0  0  0
 54 81  1  0  0  0  0
 56 57  1  0  0  0  0
 56 58  1  0  0  0  0
 57 59  1  0  0  0  0
 58 65  1  0  0  0  0
 59 73  1  0  0  0  0
 60 62  1  0  0  0  0
 60 72  1  0  0  0  0
 61 74  1  0  0  0  0
 63 66  1  0  0  0  0
 64 65  1  0  0  0  0
M  CHG  1  74   1
M  ISO  4  35 100  54 101  73 100  81 101
M  END
> <Batch ID>
0041

> <Smiles>
CCc1nn(CCCC[100NH:0][100C:0](=O)N2CCCC(n3nc(-c4ccc(Oc5ccc(F)cc5F)cc4)c(C(N)=O)c3N)C2)cc1[101CH2:1][101O:1]c1ccc2c(c1)CN(C(=O)C(NC(=O)C(C)NC)C(C)(C)C)C(C(=O)NC1CCCc3ccccc31)C2

> <Shape>
0.229

> <Color>
0.060

> <Negative vol penalty>
0.000

$$$$

  -OEChem-04052317093D

 84 92  0     1  0  0  0  0  0999 V2000
  -35.7256  -16.9068   20.7245 C   0  0  0  0  0  0  0  0  0  0  0  0
  -34.7312  -17.7247   20.1977 C   0  0  0  0  0  0  0  0  0  0  0  0
  -23.0731   -9.8726   19.9381 C   0  0  0  0  0  0  0  0  0  0  0  0
  -23.8395   -9.8706   22.2293 C   0  0  0  0  0  0  0  0  0  0  0  0
  -36.5350  -17.3736   21.7593 C   0  0  0  0  0  0  0  0  0  0  0  0
  -34.5449  -19.0097   20.7062 C   0  0  0  0  0  0  0  0  0  0  0  0
  -33.9384  -22.4724   17.0611 C   0  0  0  0  0  0  0  0  0  0  0  0
  -22.3301   -8.7183   20.1855 C   0  0  0  0  0  0  0  0  0  0  0  0
  -23.0965   -8.7163   22.4768 C   0  0  0  0  0  0  0  0  0  0  0  0
  -32.6873  -22.5408   16.4496 C   0  0  0  0  0  0  0  0  0  0  0  0
  -19.8702   -7.9155   23.0853 C   0  0  0  0  0  0  0  0  0  0  0  0
  -19.1166   -7.8708   24.2581 C   0  0  0  0  0  0  0  0  0  0  0  0
  -32.1221  -24.4354   17.8316 C   0  0  0  0  0  0  0  0  0  0  0  0
  -28.6914  -20.8447   20.4133 C   0  0  0  0  0  0  0  0  0  0  0  0
  -20.3604   -5.9306   24.9833 C   0  0  0  0  0  0  0  0  0  0  0  0
  -28.5405  -19.3707   18.5529 C   0  0  0  0  0  0  0  0  0  0  0  0
  -23.8278  -10.4487   20.9599 C   0  0  0  0  0  0  0  0  0  0  0  0
  -24.1689  -12.9744   20.8490 C   0  0  0  0  0  0  0  0  0  0  0  0
  -36.3649  -18.6685   22.2742 C   0  0  0  0  0  0  0  0  0  0  0  0
  -34.2872  -23.3797   18.0717 C   0  0  0  0  0  0  0  0  0  0  0  0
  -35.3519  -19.4938   21.7498 C   0  0  0  0  0  0  0  0  0  0  0  0
  -33.3792  -24.3780   18.4525 C   0  0  0  0  0  0  0  0  0  0  0  0
  -28.7510  -19.5497   19.9106 C   0  0  0  0  0  0  0  0  0  0  0  0
  -28.4268  -21.9061   19.5550 C   0  0  0  0  0  0  0  0  0  0  0  0
  -22.3418   -8.1402   21.4549 C   0  0  0  0  0  0  0  0  0  0  0  0
  -31.7779  -23.5206   16.8368 C   0  0  0  0  0  0  0  0  0  0  0  0
  -20.8689   -6.9678   22.8614 C   0  0  0  0  0  0  0  0  0  0  0  0
  -19.3617   -6.8784   25.2072 C   0  0  0  0  0  0  0  0  0  0  0  0
  -21.1140   -5.9754   23.8104 C   0  0  0  0  0  0  0  0  0  0  0  0
  -24.5960  -11.6408   20.7048 C   0  0  0  0  0  0  0  0  0  0  0  0
  -28.2310  -21.6217   18.2132 C   0  0  0  0  0  0  0  0  0  0  0  0
  -25.2598  -13.7255   20.4856 C   0  0  0  0  0  0  0  0  0  0  0  0
  -22.8995  -13.4883   21.2736 C   0  0  0  0  0  0  0  0  0  0  0  0
  -35.0554  -23.1270   21.1458 C   0  0  0  0  0  0  0  0  0  0  0  0
  -35.6447  -26.3039   20.8582 C   0  0  0  0  0  0  0  0  0  0  0  0
  -35.0439  -29.2231   19.1956 C   0  0  0  0  0  0  0  0  0  0  0  0
  -30.7439  -14.7448   20.6625 C   0  0  0  0  0  0  0  0  0  0  0  0
  -37.2330  -19.1120   23.4250 C   0  0  0  0  0  0  0  0  0  0  0  0
  -35.6508  -23.3093   18.7027 C   0  0  0  0  0  0  0  0  0  0  0  0
  -33.7127  -25.3886   19.5183 C   0  0  0  0  0  0  0  0  0  0  0  0
  -37.2170  -20.6212   23.6537 C   0  0  0  0  0  0  0  0  0  0  0  0
  -29.6000  -12.3696   18.2695 C   0  0  0  0  0  0  0  0  0  0  0  0
  -35.7868  -21.1505   23.6238 C   0  0  0  0  0  0  0  0  0  0  0  0
  -28.1638  -12.0739   18.7053 C   0  0  0  0  0  0  0  0  0  0  0  0
  -30.5205  -12.5858   19.4686 C   0  0  0  0  0  0  0  0  0  0  0  0
  -28.6225  -13.3110   20.8635 C   0  0  0  0  0  0  0  0  0  0  0  0
  -35.1353  -20.9027   22.2579 C   0  0  1  0  0  0  0  0  0  0  0  0
  -35.7062  -23.9629   20.0801 C   0  0  1  0  0  0  0  0  0  0  0  0
  -27.6451  -13.1409   19.6879 C   0  0  2  0  0  0  0  0  0  0  0  0
  -28.3597  -23.2959   20.0873 C   0  0  0  0  0  0  0  0  0  0  0  0
  -35.6410  -31.6604   19.2158 C   0  0  0  0  0  0  0  0  0  0  0  0
  -33.7868  -26.7368   23.2396 C   0  0  0  0  0  0  0  0  0  0  0  0
  -33.6707  -29.1597   22.6196 C   0  0  0  0  0  0  0  0  0  0  0  0
  -35.8557  -28.1417   23.2616 C   0  0  0  0  0  0  0  0  0  0  0  0
  -36.2328  -29.0733   16.4895 C   0  0  0  0  0  0  0  0  0  0  0  0
  -29.0328  -18.3929   20.8019 C   0  0  0  0  0  0  0  0  0  0  0  0
  -27.9414  -22.7326   17.2356 C   0  0  0  0  0  0  0  0  0  0  0  0
  -30.5295  -18.0484   20.9531 C   0  0  0  0  0  0  0  0  0  0  0  0
  -28.4758  -22.4678   15.8264 C   0  0  0  0  0  0  0  0  0  0  0  0
  -30.8129  -16.8905   21.9077 C   0  0  0  0  0  0  0  0  0  0  0  0
  -29.9955  -22.3660   15.7662 C   0  0  0  0  0  0  0  0  0  1  0  0
  -34.8276  -27.5622   21.0256 C   0  0  1  0  0  0  0  0  0  0  0  0
  -35.9830  -30.2877   18.6578 C   0  0  2  0  0  0  0  0  0  0  0  0
  -34.5279  -27.8800   22.5178 C   0  0  0  0  0  0  0  0  0  0  0  0
  -28.2810  -20.3769   17.6881 N   0  0  0  0  0  0  0  0  0  0  0  0
  -25.8596  -11.5468   20.2825 N   0  0  0  0  0  0  0  0  0  0  0  0
  -26.2360  -12.8310   20.1582 N   0  0  0  0  0  0  0  0  0  0  0  0
  -35.0560  -25.2746   20.1099 N   0  0  0  0  0  0  0  0  0  0  0  0
  -29.9722  -13.6107   20.3602 N   0  0  0  0  0  0  0  0  0  0  0  0
  -25.4698  -15.0573   20.4173 N   0  0  0  0  0  0  0  0  0  0  0  0
  -21.8887  -12.5776   21.6101 N   0  0  0  0  0  0  0  0  0  0  0  0
  -35.6082  -21.8688   21.2896 N   0  0  0  0  0  0  0  0  0  0  0  0
  -35.5527  -28.6161   20.3243 N   0  0  0  0  0  0  0  0  0  0  0  0
  -30.1470  -15.6702   21.5099 N   0  0  0  0  0  0  0  0  0  0  0  0
  -35.8983  -30.3501   17.1712 N   0  3  0  0  0  0  0  0  0  0  0  0
  -22.6632  -14.7186   21.3365 O   0  0  0  0  0  0  0  0  0  0  0  0
  -34.1220  -23.5900   21.7907 O   0  0  0  0  0  0  0  0  0  0  0  0
  -36.7668  -26.2394   21.3663 O   0  0  0  0  0  0  0  0  0  0  0  0
  -33.9651  -28.9591   18.6693 O   0  0  0  0  0  0  0  0  0  0  0  0
  -31.8786  -14.9223   20.2063 O   0  0  0  0  0  0  0  0  0  0  0  0
  -21.6167   -7.0140   21.6968 O   0  0  0  0  0  0  0  0  0  0  0  0
  -30.5558  -23.5891   16.2421 O   0  0  0  0  0  0  0  0  0  1  0  0
  -18.6389   -6.8365   26.3342 F   0  0  0  0  0  0  0  0  0  0  0  0
  -22.0729   -5.0629   23.6014 F   0  0  0  0  0  0  0  0  0  0  0  0
  1  2  1  0  0  0  0
  1  5  2  0  0  0  0
  2  6  2  0  0  0  0
  3  8  2  0  0  0  0
  3 17  1  0  0  0  0
  4  9  1  0  0  0  0
  4 17  2  0  0  0  0
  5 19  1  0  0  0  0
  6 21  1  0  0  0  0
  7 10  2  0  0  0  0
  7 20  1  0  0  0  0
  8 25  1  0  0  0  0
  9 25  2  0  0  0  0
 10 26  1  0  0  0  0
 11 12  2  0  0  0  0
 11 27  1  0  0  0  0
 12 28  1  0  0  0  0
 13 22  1  0  0  0  0
 13 26  2  0  0  0  0
 14 23  2  0  0  0  0
 14 24  1  0  0  0  0
 15 28  2  0  0  0  0
 15 29  1  0  0  0  0
 16 23  1  0  0  0  0
 16 65  2  0  0  0  0
 17 30  1  0  0  0  0
 18 30  1  0  0  0  0
 18 32  2  0  0  0  0
 18 33  1  0  0  0  0
 19 21  2  0  0  0  0
 19 38  1  0  0  0  0
 20 22  2  0  0  0  0
 20 39  1  0  0  0  0
 21 47  1  0  0  0  0
 22 40  1  0  0  0  0
 23 56  1  0  0  0  0
 24 31  2  0  0  0  0
 24 50  1  0  0  0  0
 25 81  1  0  0  0  0
 26 82  1  0  0  0  0
 27 29  2  0  0  0  0
 27 81  1  0  0  0  0
 28 83  1  0  0  0  0
 29 84  1  0  0  0  0
 30 66  2  0  0  0  0
 31 57  1  0  0  0  0
 31 65  1  0  0  0  0
 32 67  1  0  0  0  0
 32 70  1  0  0  0  0
 33 71  1  0  0  0  0
 33 76  2  0  0  0  0
 34 48  1  0  0  0  0
 34 72  1  0  0  0  0
 34 77  2  0  0  0  0
 35 62  1  0  0  0  0
 35 68  1  0  0  0  0
 35 78  2  0  0  0  0
 36 63  1  0  0  0  0
 36 73  1  0  0  0  0
 36 79  2  0  0  0  0
 37 69  1  0  0  0  0
 37 74  1  0  0  0  0
 37 80  2  0  0  0  0
 38 41  1  0  0  0  0
 39 48  1  0  0  0  0
 40 68  1  0  0  0  0
 41 43  1  0  0  0  0
 42 44  1  0  0  0  0
 42 45  1  0  0  0  0
 43 47  1  0  0  0  0
 44 49  1  0  0  0  0
 45 69  1  0  0  0  0
 46 49  1  0  0  0  0
 46 69  1  0  0  0  0
 47 72  1  0  0  0  0
 48 68  1  0  0  0  0
 49 67  1  0  0  0  0
 51 63  1  0  0  0  0
 52 64  1  0  0  0  0
 53 64  1  0  0  0  0
 54 64  1  0  0  0  0
 55 75  1  0  0  0  0
 56 58  1  0  0  0  0
 57 59  1  0  0  0  0
 58 60  1  0  0  0  0
 59 61  1  0  0  0  0
 60 74  1  0  0  0  0
 61 82  1  0  0  0  0
 62 64  1  0  0  0  0
 62 73  1  0  0  0  0
 63 75  1  0  0  0  0
 66 67  1  0  0  0  0
M  CHG  1  75   1
M  ISO  4  37 100  61 101  74 100  82 101
M  END
> <Batch ID>
0041

> <Smiles>
CNC(C)C(=O)NC(C(=O)N1Cc2cc([101O:1][101CH2:1]CCc3ncc(CCC[100NH:0][100C:0](=O)N4CCCC(n5nc(-c6ccc(Oc7ccc(F)cc7F)cc6)c(C(N)=O)c5N)C4)cc3C)ccc2CC1C(=O)NC1CCCc2ccccc21)C(C)(C)C

> <Shape>
0.219

> <Color>
0.196

> <Negative vol penalty>
0.000

$$$$

  -OEChem-04052317093D

 89 98  0     1  0  0  0  0  0999 V2000
  -17.8880  -32.8138   23.6825 C   0  0  0  0  0  0  0  0  0  0  0  0
  -19.1287  -33.0783   23.1115 C   0  0  0  0  0  0  0  0  0  0  0  0
  -28.4115  -10.5902   21.8514 C   0  0  0  0  0  0  0  0  0  0  0  0
  -27.1221  -11.1644   19.8906 C   0  0  0  0  0  0  0  0  0  0  0  0
  -17.6650  -31.6000   24.3313 C   0  0  0  0  0  0  0  0  0  0  0  0
  -20.1476  -32.1295   23.1898 C   0  0  0  0  0  0  0  0  0  0  0  0
  -25.7600  -29.6463   19.4952 C   0  0  0  0  0  0  0  0  0  0  0  0
  -30.3698  -24.5705   17.2478 C   0  0  0  0  0  0  0  0  0  0  0  0
  -27.5337   -9.5403   22.1212 C   0  0  0  0  0  0  0  0  0  0  0  0
  -26.2442  -10.1146   20.1604 C   0  0  0  0  0  0  0  0  0  0  0  0
  -27.1215  -29.3881   19.6485 C   0  0  0  0  0  0  0  0  0  0  0  0
  -23.6488   -9.5094   22.2409 C   0  0  0  0  0  0  0  0  0  0  0  0
  -22.2815   -9.7660   22.1406 C   0  0  0  0  0  0  0  0  0  0  0  0
  -30.6647  -25.8870   17.5786 C   0  0  0  0  0  0  0  0  0  0  0  0
  -26.5970  -27.2941   20.7251 C   0  0  0  0  0  0  0  0  0  0  0  0
  -29.8905  -23.1157   20.5481 C   0  0  0  0  0  0  0  0  0  0  0  0
  -22.0881   -8.0677   20.4332 C   0  0  0  0  0  0  0  0  0  0  0  0
  -28.2057  -11.4023   20.7361 C   0  0  0  0  0  0  0  0  0  0  0  0
  -30.2807  -12.4387   19.6740 C   0  0  0  0  0  0  0  0  0  0  0  0
  -18.6786  -30.6319   24.4092 C   0  0  0  0  0  0  0  0  0  0  0  0
  -24.8051  -28.7338   19.9662 C   0  0  0  0  0  0  0  0  0  0  0  0
  -19.9383  -30.9022   23.8414 C   0  0  0  0  0  0  0  0  0  0  0  0
  -25.2241  -27.5418   20.5741 C   0  0  0  0  0  0  0  0  0  0  0  0
  -29.5956  -21.7992   20.2171 C   0  0  0  0  0  0  0  0  0  0  0  0
  -30.1066  -23.6238   18.2304 C   0  0  0  0  0  0  0  0  0  0  0  0
  -30.1537  -24.0624   19.5655 C   0  0  0  0  0  0  0  0  0  0  0  0
  -26.4501   -9.3025   21.2757 C   0  0  0  0  0  0  0  0  0  0  0  0
  -27.5401  -28.2133   20.2661 C   0  0  0  0  0  0  0  0  0  0  0  0
  -24.2359   -8.5321   21.4373 C   0  0  0  0  0  0  0  0  0  0  0  0
  -21.5011   -9.0451   21.2368 C   0  0  0  0  0  0  0  0  0  0  0  0
  -23.4555   -7.8112   20.5334 C   0  0  0  0  0  0  0  0  0  0  0  0
  -29.1118  -12.4873   20.4571 C   0  0  0  0  0  0  0  0  0  0  0  0
  -30.6859  -26.2164   18.9161 C   0  0  0  0  0  0  0  0  0  0  0  0
  -29.5745  -21.4699   18.8796 C   0  0  0  0  0  0  0  0  0  0  0  0
  -30.7784  -13.7180   19.7203 C   0  0  0  0  0  0  0  0  0  0  0  0
  -30.8643  -11.3358   18.9678 C   0  0  0  0  0  0  0  0  0  0  0  0
  -22.4813  -28.8367   22.1326 C   0  0  0  0  0  0  0  0  0  0  0  0
  -21.7997  -25.8853   20.9720 C   0  0  0  0  0  0  0  0  0  0  0  0
  -22.8940  -23.0797   19.3664 C   0  0  0  0  0  0  0  0  0  0  0  0
  -27.7529  -18.8467   20.9289 C   0  0  0  0  0  0  0  0  0  0  0  0
  -18.4054  -29.3539   25.1619 C   0  0  0  0  0  0  0  0  0  0  0  0
  -23.3406  -29.0145   19.7691 C   0  0  0  0  0  0  0  0  0  0  0  0
  -24.2391  -26.5202   21.0789 C   0  0  0  0  0  0  0  0  0  0  0  0
  -19.4194  -28.2494   24.8751 C   0  0  0  0  0  0  0  0  0  0  0  0
  -30.9101  -17.5985   22.4991 C   0  0  0  0  0  0  0  0  0  0  0  0
  -20.8407  -28.7994   24.9413 C   0  0  0  0  0  0  0  0  0  0  0  0
  -30.8532  -16.1169   22.1301 C   0  0  0  0  0  0  0  0  0  0  0  0
  -29.5114  -18.1912   22.6197 C   0  0  0  0  0  0  0  0  0  0  0  0
  -28.6098  -16.5329   21.0216 C   0  0  0  0  0  0  0  0  0  0  0  0
  -21.0608  -29.8881   23.8840 C   0  0  1  0  0  0  0  0  0  0  0  0
  -22.4497  -28.2552   20.7475 C   0  0  1  0  0  0  0  0  0  0  0  0
  -30.0013  -15.8963   20.8686 C   0  0  2  0  0  0  0  0  0  0  0  0
  -29.5974  -19.8376   16.9766 C   0  0  0  0  0  0  0  0  0  0  0  0
  -26.2110  -20.9834   23.4433 C   0  0  0  0  0  0  0  0  0  0  0  0
  -22.1172  -20.8211   18.5966 C   0  0  0  0  0  0  0  0  0  0  0  0
  -21.9415  -24.8608   23.8426 C   0  0  0  0  0  0  0  0  0  0  0  0
  -22.1102  -22.5353   22.9305 C   0  0  0  0  0  0  0  0  0  0  0  0
  -20.0726  -23.9034   22.4844 C   0  0  0  0  0  0  0  0  0  0  0  0
  -23.4510  -23.7256   16.5324 C   0  0  0  0  0  0  0  0  0  0  0  0
  -29.3164  -20.8028   21.2876 C   0  0  0  0  0  0  0  0  0  0  0  0
  -31.0005  -27.6330   19.3314 C   0  0  0  0  0  0  0  0  0  0  0  0
  -29.2644  -20.0750   18.4466 C   0  0  0  0  0  0  0  0  0  0  0  0
  -26.5842  -21.9095   22.2942 C   0  0  0  0  0  0  0  0  0  0  0  0
  -26.8910  -21.1556   21.0057 C   0  0  0  0  0  0  0  0  0  0  0  0
  -29.7494  -28.4988   19.4333 C   0  0  0  0  0  0  0  0  0  1  0  0
  -22.2342  -24.4786   21.3060 C   0  0  1  0  0  0  0  0  0  0  0  0
  -22.3042  -22.2820   18.2174 C   0  0  2  0  0  0  0  0  0  0  0  0
  -21.6084  -23.9645   22.6332 C   0  0  0  0  0  0  0  0  0  0  0  0
  -29.8227  -22.3518   17.8886 N   0  0  0  0  0  0  0  0  0  0  0  0
  -30.4377  -25.3346   19.9073 N   0  0  0  0  0  0  0  0  0  0  0  0
  -28.8808  -13.7013   20.9640 N   0  0  0  0  0  0  0  0  0  0  0  0
  -29.9114  -14.4273   20.4984 N   0  0  0  0  0  0  0  0  0  0  0  0
  -22.8183  -26.8433   20.8686 N   0  0  0  0  0  0  0  0  0  0  0  0
  -28.7102  -17.9405   21.4142 N   0  0  0  0  0  0  0  0  0  0  0  0
  -31.8688  -14.2941   19.1711 N   0  0  0  0  0  0  0  0  0  0  0  0
  -30.2231  -10.0909   19.0257 N   0  0  0  0  0  0  0  0  0  0  0  0
  -21.2559  -29.2933   22.5792 N   0  0  0  0  0  0  0  0  0  0  0  0
  -21.9128  -23.6643   20.1390 N   0  0  0  0  0  0  0  0  0  0  0  0
  -27.9866  -20.2099   21.1646 N   0  0  0  0  0  0  0  0  0  0  0  0
  -23.1993  -22.3479   17.0278 N   0  3  0  0  0  0  0  0  0  0  0  0
  -31.9318  -11.4470   18.3184 O   0  0  0  0  0  0  0  0  0  0  0  0
  -23.5389  -28.8675   22.7509 O   0  0  0  0  0  0  0  0  0  0  0  0
  -20.6015  -26.1238   20.8019 O   0  0  0  0  0  0  0  0  0  0  0  0
  -24.1039  -23.1718   19.5614 O   0  0  0  0  0  0  0  0  0  0  0  0
  -26.7526  -18.4601   20.3110 O   0  0  0  0  0  0  0  0  0  0  0  0
  -25.5934   -8.2780   21.5386 O   0  0  0  0  0  0  0  0  0  0  0  0
  -28.8684  -27.9591   20.4177 O   0  0  0  0  0  0  0  0  0  1  0  0
  -20.1877   -9.2905   21.1417 F   0  0  0  0  0  0  0  0  0  0  0  0
  -24.0136   -6.8701   19.7596 F   0  0  0  0  0  0  0  0  0  0  0  0
  1  2  1  0  0  0  0
  1  5  2  0  0  0  0
  2  6  2  0  0  0  0
  3  9  2  0  0  0  0
  3 18  1  0  0  0  0
  4 10  1  0  0  0  0
  4 18  2  0  0  0  0
  5 20  1  0  0  0  0
  6 22  1  0  0  0  0
  7 11  2  0  0  0  0
  7 21  1  0  0  0  0
  8 14  2  0  0  0  0
  8 25  1  0  0  0  0
  9 27  1  0  0  0  0
 10 27  2  0  0  0  0
 11 28  1  0  0  0  0
 12 13  2  0  0  0  0
 12 29  1  0  0  0  0
 13 30  1  0  0  0  0
 14 33  1  0  0  0  0
 15 23  1  0  0  0  0
 15 28  2  0  0  0  0
 16 24  1  0  0  0  0
 16 26  2  0  0  0  0
 17 30  2  0  0  0  0
 17 31  1  0  0  0  0
 18 32  1  0  0  0  0
 19 32  1  0  0  0  0
 19 35  2  0  0  0  0
 19 36  1  0  0  0  0
 20 22  2  0  0  0  0
 20 41  1  0  0  0  0
 21 23  2  0  0  0  0
 21 42  1  0  0  0  0
 22 50  1  0  0  0  0
 23 43  1  0  0  0  0
 24 34  2  0  0  0  0
 24 60  1  0  0  0  0
 25 26  1  0  0  0  0
 25 69  2  0  0  0  0
 26 70  1  0  0  0  0
 27 86  1  0  0  0  0
 28 87  1  0  0  0  0
 29 31  2  0  0  0  0
 29 86  1  0  0  0  0
 30 88  1  0  0  0  0
 31 89  1  0  0  0  0
 32 71  2  0  0  0  0
 33 61  1  0  0  0  0
 33 70  2  0  0  0  0
 34 62  1  0  0  0  0
 34 69  1  0  0  0  0
 35 72  1  0  0  0  0
 35 75  1  0  0  0  0
 36 76  1  0  0  0  0
 36 81  2  0  0  0  0
 37 51  1  0  0  0  0
 37 77  1  0  0  0  0
 37 82  2  0  0  0  0
 38 66  1  0  0  0  0
 38 73  1  0  0  0  0
 38 83  2  0  0  0  0
 39 67  1  0  0  0  0
 39 78  1  0  0  0  0
 39 84  2  0  0  0  0
 40 74  1  0  0  0  0
 40 79  1  0  0  0  0
 40 85  2  0  0  0  0
 41 44  1  0  0  0  0
 42 51  1  0  0  0  0
 43 73  1  0  0  0  0
 44 46  1  0  0  0  0
 45 47  1  0  0  0  0
 45 48  1  0  0  0  0
 46 50  1  0  0  0  0
 47 52  1  0  0  0  0
 48 74  1  0  0  0  0
 49 52  1  0  0  0  0
 49 74  1  0  0  0  0
 50 77  1  0  0  0  0
 51 73  1  0  0  0  0
 52 72  1  0  0  0  0
 53 62  1  0  0  0  0
 54 63  1  0  0  0  0
 55 67  1  0  0  0  0
 56 68  1  0  0  0  0
 57 68  1  0  0  0  0
 58 68  1  0  0  0  0
 59 80  1  0  0  0  0
 60 79  1  0  0  0  0
 61 65  1  0  0  0  0
 63 64  1  0  0  0  0
 64 79  1  0  0  0  0
 65 87  1  0  0  0  0
 66 68  1  0  0  0  0
 66 78  1  0  0  0  0
 67 80  1  0  0  0  0
 71 72  1  0  0  0  0
M  CHG  1  80   1
M  ISO  4  40 100  65 101  79 100  87 101
M  END
> <Batch ID>
0041

> <Smiles>
CCC[100N:0](Cc1cc2nc(C[101CH2:1][101O:1]c3ccc4c(c3)CN(C(=O)C(NC(=O)C(C)NC)C(C)(C)C)C(C(=O)NC3CCCc5ccccc53)C4)ccc2nc1CC)[100C:0](=O)N1CCCC(n2nc(-c3ccc(Oc4ccc(F)cc4F)cc3)c(C(N)=O)c2N)C1

> <Shape>
0.295

> <Color>
0.094

> <Negative vol penalty>
0.000

$$$$

  -OEChem-04052317093D

 83 91  0     1  0  0  0  0  0999 V2000
  -29.8418  -13.2418   20.2195 C   0  0  0  0  0  0  0  0  0  0  0  0
  -29.4424  -14.3946   19.5509 C   0  0  0  0  0  0  0  0  0  0  0  0
  -24.3322  -28.6714   22.1192 C   0  0  0  0  0  0  0  0  0  0  0  0
  -25.4029  -30.2585   20.6455 C   0  0  0  0  0  0  0  0  0  0  0  0
  -28.8857  -12.3360   20.6769 C   0  0  0  0  0  0  0  0  0  0  0  0
  -28.0866  -14.6416   19.3383 C   0  0  0  0  0  0  0  0  0  0  0  0
  -26.8020  -19.4330   20.3566 C   0  0  0  0  0  0  0  0  0  0  0  0
  -23.8876  -29.7195   22.9250 C   0  0  0  0  0  0  0  0  0  0  0  0
  -24.9582  -31.3067   21.4513 C   0  0  0  0  0  0  0  0  0  0  0  0
  -27.1200  -20.3948   19.3987 C   0  0  0  0  0  0  0  0  0  0  0  0
  -22.7751  -31.9566   25.5673 C   0  0  0  0  0  0  0  0  0  0  0  0
  -22.9113  -31.8176   26.9484 C   0  0  0  0  0  0  0  0  0  0  0  0
  -28.7570  -21.9139   12.5907 C   0  0  0  0  0  0  0  0  0  0  0  0
  -24.8442  -20.3437   18.6005 C   0  0  0  0  0  0  0  0  0  0  0  0
  -25.3044  -31.6080   26.6913 C   0  0  0  0  0  0  0  0  0  0  0  0
  -28.7666  -22.3577   11.2836 C   0  0  0  0  0  0  0  0  0  0  0  0
  -25.0899  -28.9409   20.9795 C   0  0  0  0  0  0  0  0  0  0  0  0
  -24.8813  -27.2886   19.0471 C   0  0  0  0  0  0  0  0  0  0  0  0
  -27.5170  -12.5768   20.4783 C   0  0  0  0  0  0  0  0  0  0  0  0
  -25.5031  -18.9105   20.4366 C   0  0  0  0  0  0  0  0  0  0  0  0
  -27.1113  -13.7375   19.7923 C   0  0  0  0  0  0  0  0  0  0  0  0
  -24.5116  -19.3772   19.5619 C   0  0  0  0  0  0  0  0  0  0  0  0
  -29.1637  -22.7952   13.5769 C   0  0  0  0  0  0  0  0  0  0  0  0
  -24.2006  -31.0371   22.5911 C   0  0  0  0  0  0  0  0  0  0  0  0
  -26.1418  -20.8482   18.5186 C   0  0  0  0  0  0  0  0  0  0  0  0
  -23.9035  -31.9212   24.7480 C   0  0  0  0  0  0  0  0  0  0  0  0
  -24.1760  -31.6433   27.5105 C   0  0  0  0  0  0  0  0  0  0  0  0
  -25.1682  -31.7470   25.3101 C   0  0  0  0  0  0  0  0  0  0  0  0
  -25.5500  -27.8586   20.1470 C   0  0  0  0  0  0  0  0  0  0  0  0
  -29.5534  -24.0620   13.1908 C   0  0  0  0  0  0  0  0  0  0  0  0
  -25.7296  -26.3044   18.6019 C   0  0  0  0  0  0  0  0  0  0  0  0
  -23.6073  -27.6194   18.4785 C   0  0  0  0  0  0  0  0  0  0  0  0
  -24.2225  -16.0215   20.0943 C   0  0  0  0  0  0  0  0  0  0  0  0
  -21.5221  -17.5298   21.0714 C   0  0  0  0  0  0  0  0  0  0  0  0
  -19.7815  -20.4500   21.3712 C   0  0  0  0  0  0  0  0  0  0  0  0
  -31.3824  -25.2187   17.9842 C   0  0  0  0  0  0  0  0  0  0  0  0
  -26.5226  -11.5452   20.9492 C   0  0  0  0  0  0  0  0  0  0  0  0
  -25.1695  -17.8930   21.4930 C   0  0  0  0  0  0  0  0  0  0  0  0
  -23.0971  -18.8631   19.6198 C   0  0  0  0  0  0  0  0  0  0  0  0
  -25.0891  -12.0659   21.0134 C   0  0  0  0  0  0  0  0  0  0  0  0
  -29.4638  -23.7558   20.6026 C   0  0  0  0  0  0  0  0  0  0  0  0
  -24.7409  -12.8297   19.7397 C   0  0  0  0  0  0  0  0  0  0  0  0
  -28.1968  -24.6117   20.6498 C   0  0  0  0  0  0  0  0  0  0  0  0
  -30.6994  -24.5940   20.2820 C   0  0  0  0  0  0  0  0  0  0  0  0
  -29.3252  -26.2689   19.1074 C   0  0  0  0  0  0  0  0  0  0  0  0
  -25.6489  -14.0529   19.5643 C   0  0  1  0  0  0  0  0  0  0  0  0
  -23.9424  -17.0546   21.1487 C   0  0  1  0  0  0  0  0  0  0  0  0
  -28.0446  -25.4589   19.3722 C   0  0  2  0  0  0  0  0  0  0  0  0
  -17.5859  -21.3609   22.1754 C   0  0  0  0  0  0  0  0  0  0  0  0
  -20.1544  -16.4299   18.5755 C   0  0  0  0  0  0  0  0  0  0  0  0
  -18.3243  -18.1020   18.9264 C   0  0  0  0  0  0  0  0  0  0  0  0
  -18.7594  -16.3518   20.6498 C   0  0  0  0  0  0  0  0  0  0  0  0
  -21.1015  -22.1770   23.3797 C   0  0  0  0  0  0  0  0  0  0  0  0
  -29.1714  -22.3603   15.0206 C   0  0  0  0  0  0  0  0  0  0  0  0
  -30.0043  -25.0649   14.1985 C   0  0  0  0  0  0  0  0  0  0  0  0
  -27.7815  -22.3213   15.6596 C   0  0  0  0  0  0  0  0  0  0  0  0
  -31.4567  -24.8775   14.6794 C   0  0  0  0  0  0  0  0  0  0  0  0
  -31.9314  -25.9360   15.6727 C   0  0  0  0  0  0  0  0  0  0  0  0
  -27.7897  -21.7991   17.0915 C   0  0  0  0  0  0  0  0  0  1  0  0
  -20.3958  -18.2601   20.3806 C   0  0  1  0  0  0  0  0  0  0  0  0
  -19.0309  -21.0596   22.5414 C   0  0  2  0  0  0  0  0  0  0  0  0
  -19.4355  -17.2944   19.6305 C   0  0  0  0  0  0  0  0  0  0  0  0
  -29.1530  -23.6032   10.9345 N   0  0  0  0  0  0  0  0  0  0  0  0
  -26.7319  -27.2841   20.3861 N   0  0  0  0  0  0  0  0  0  0  0  0
  -29.5530  -24.4692   11.9039 N   0  0  0  0  0  0  0  0  0  0  0  0
  -26.8124  -26.3428   19.4302 N   0  0  0  0  0  0  0  0  0  0  0  0
  -22.8219  -17.8644   20.6659 N   0  0  0  0  0  0  0  0  0  0  0  0
  -30.4905  -25.3720   19.0585 N   0  0  0  0  0  0  0  0  0  0  0  0
  -25.6473  -25.4183   17.5868 N   0  0  0  0  0  0  0  0  0  0  0  0
  -22.8659  -28.6575   19.0590 N   0  0  0  0  0  0  0  0  0  0  0  0
  -25.2213  -15.1285   20.4329 N   0  0  0  0  0  0  0  0  0  0  0  0
  -19.7471  -19.0720   21.4045 N   0  0  0  0  0  0  0  0  0  0  0  0
  -31.1083  -25.9884   16.8603 N   0  0  0  0  0  0  0  0  0  0  0  0
  -19.6820  -22.3301   22.9691 N   0  3  0  0  0  0  0  0  0  0  0  0
  -23.1330  -27.0016   17.4952 O   0  0  0  0  0  0  0  0  0  0  0  0
  -23.5792  -16.0326   19.0514 O   0  0  0  0  0  0  0  0  0  0  0  0
  -21.2586  -16.6985   21.9438 O   0  0  0  0  0  0  0  0  0  0  0  0
  -20.3392  -21.1284   20.5114 O   0  0  0  0  0  0  0  0  0  0  0  0
  -32.3481  -24.4487   18.0218 O   0  0  0  0  0  0  0  0  0  0  0  0
  -23.7667  -32.0602   23.3770 O   0  0  0  0  0  0  0  0  0  0  0  0
  -26.4497  -21.7865   17.5822 O   0  0  0  0  0  0  0  0  0  1  0  0
  -24.3068  -31.5114   28.8370 F   0  0  0  0  0  0  0  0  0  0  0  0
  -26.2560  -31.7134   24.5283 F   0  0  0  0  0  0  0  0  0  0  0  0
  1  2  1  0  0  0  0
  1  5  2  0  0  0  0
  2  6  2  0  0  0  0
  3  8  2  0  0  0  0
  3 17  1  0  0  0  0
  4  9  1  0  0  0  0
  4 17  2  0  0  0  0
  5 19  1  0  0  0  0
  6 21  1  0  0  0  0
  7 10  2  0  0  0  0
  7 20  1  0  0  0  0
  8 24  1  0  0  0  0
  9 24  2  0  0  0  0
 10 25  1  0  0  0  0
 11 12  2  0  0  0  0
 11 26  1  0  0  0  0
 12 27  1  0  0  0  0
 13 16  2  0  0  0  0
 13 23  1  0  0  0  0
 14 22  1  0  0  0  0
 14 25  2  0  0  0  0
 15 27  2  0  0  0  0
 15 28  1  0  0  0  0
 16 63  1  0  0  0  0
 17 29  1  0  0  0  0
 18 29  1  0  0  0  0
 18 31  2  0  0  0  0
 18 32  1  0  0  0  0
 19 21  2  0  0  0  0
 19 37  1  0  0  0  0
 20 22  2  0  0  0  0
 20 38  1  0  0  0  0
 21 46  1  0  0  0  0
 22 39  1  0  0  0  0
 23 30  2  0  0  0  0
 23 54  1  0  0  0  0
 24 80  1  0  0  0  0
 25 81  1  0  0  0  0
 26 28  2  0  0  0  0
 26 80  1  0  0  0  0
 27 82  1  0  0  0  0
 28 83  1  0  0  0  0
 29 64  2  0  0  0  0
 30 55  1  0  0  0  0
 30 65  1  0  0  0  0
 31 66  1  0  0  0  0
 31 69  1  0  0  0  0
 32 70  1  0  0  0  0
 32 75  2  0  0  0  0
 33 47  1  0  0  0  0
 33 71  1  0  0  0  0
 33 76  2  0  0  0  0
 34 60  1  0  0  0  0
 34 67  1  0  0  0  0
 34 77  2  0  0  0  0
 35 61  1  0  0  0  0
 35 72  1  0  0  0  0
 35 78  2  0  0  0  0
 36 68  1  0  0  0  0
 36 73  1  0  0  0  0
 36 79  2  0  0  0  0
 37 40  1  0  0  0  0
 38 47  1  0  0  0  0
 39 67  1  0  0  0  0
 40 42  1  0  0  0  0
 41 43  1  0  0  0  0
 41 44  1  0  0  0  0
 42 46  1  0  0  0  0
 43 48  1  0  0  0  0
 44 68  1  0  0  0  0
 45 48  1  0  0  0  0
 45 68  1  0  0  0  0
 46 71  1  0  0  0  0
 47 67  1  0  0  0  0
 48 66  1  0  0  0  0
 49 61  1  0  0  0  0
 50 62  1  0  0  0  0
 51 62  1  0  0  0  0
 52 62  1  0  0  0  0
 53 74  1  0  0  0  0
 54 56  1  0  0  0  0
 55 57  1  0  0  0  0
 56 59  1  0  0  0  0
 57 58  1  0  0  0  0
 58 73  1  0  0  0  0
 59 81  1  0  0  0  0
 60 62  1  0  0  0  0
 60 72  1  0  0  0  0
 61 74  1  0  0  0  0
 63 65  2  0  0  0  0
 64 66  1  0  0  0  0
M  CHG  1  74   1
M  ISO  4  36 100  59 101  73 100  81 101
M  END
> <Batch ID>
0041

> <Smiles>
CNC(C)C(=O)NC(C(=O)N1Cc2cc([101O:1][101CH2:1]CCc3ccnnc3CCC[100NH:0][100C:0](=O)N3CCCC(n4nc(-c5ccc(Oc6ccc(F)cc6F)cc5)c(C(N)=O)c4N)C3)ccc2CC1C(=O)NC1CCCc2ccccc21)C(C)(C)C

> <Shape>
0.193

> <Color>
0.061

> <Negative vol penalty>
0.000

$$$$

  -OEChem-04052317093D

 84 92  0     1  0  0  0  0  0999 V2000
  -24.5578  -32.9271   28.5605 C   0  0  0  0  0  0  0  0  0  0  0  0
  -25.4002  -32.1092   27.8144 C   0  0  0  0  0  0  0  0  0  0  0  0
  -24.2807  -14.1307   20.6152 C   0  0  0  0  0  0  0  0  0  0  0  0
  -26.4723  -13.7543   19.6705 C   0  0  0  0  0  0  0  0  0  0  0  0
  -23.1834  -32.9085   28.3269 C   0  0  0  0  0  0  0  0  0  0  0  0
  -24.8685  -31.2713   26.8347 C   0  0  0  0  0  0  0  0  0  0  0  0
  -27.4596  -29.7342   21.5028 C   0  0  0  0  0  0  0  0  0  0  0  0
  -23.9414  -12.8026   20.3572 C   0  0  0  0  0  0  0  0  0  0  0  0
  -26.1329  -12.4261   19.4125 C   0  0  0  0  0  0  0  0  0  0  0  0
  -28.1765  -28.6090   21.0982 C   0  0  0  0  0  0  0  0  0  0  0  0
  -24.5119   -9.7714   21.7427 C   0  0  0  0  0  0  0  0  0  0  0  0
  -23.8639   -9.0600   22.7524 C   0  0  0  0  0  0  0  0  0  0  0  0
  -26.1570  -27.6589   20.1827 C   0  0  0  0  0  0  0  0  0  0  0  0
  -30.0001  -23.9612   20.4411 C   0  0  0  0  0  0  0  0  0  0  0  0
  -21.9756   -8.7022   21.2884 C   0  0  0  0  0  0  0  0  0  0  0  0
  -30.9816  -25.1785   18.6490 C   0  0  0  0  0  0  0  0  0  0  0  0
  -25.5462  -14.6065   20.2718 C   0  0  0  0  0  0  0  0  0  0  0  0
  -26.4896  -16.4934   21.7063 C   0  0  0  0  0  0  0  0  0  0  0  0
  -22.6356  -32.0770   27.3373 C   0  0  0  0  0  0  0  0  0  0  0  0
  -26.0816  -29.8255   21.2596 C   0  0  0  0  0  0  0  0  0  0  0  0
  -23.4854  -31.2405   26.5885 C   0  0  0  0  0  0  0  0  0  0  0  0
  -25.4254  -28.7875   20.5829 C   0  0  0  0  0  0  0  0  0  0  0  0
  -30.2100  -25.1770   19.7998 C   0  0  0  0  0  0  0  0  0  0  0  0
  -30.5603  -22.8006   19.9193 C   0  0  0  0  0  0  0  0  0  0  0  0
  -24.8674  -11.9503   19.7558 C   0  0  0  0  0  0  0  0  0  0  0  0
  -27.5247  -27.5699   20.4406 C   0  0  0  0  0  0  0  0  0  0  0  0
  -23.8918   -9.9483   20.5058 C   0  0  0  0  0  0  0  0  0  0  0  0
  -22.5958   -8.5254   22.5253 C   0  0  0  0  0  0  0  0  0  0  0  0
  -22.6236   -9.4137   20.2787 C   0  0  0  0  0  0  0  0  0  0  0  0
  -25.8971  -15.9785   20.5376 C   0  0  0  0  0  0  0  0  0  0  0  0
  -31.3161  -22.9084   18.7630 C   0  0  0  0  0  0  0  0  0  0  0  0
  -26.6166  -17.8391   21.4626 C   0  0  0  0  0  0  0  0  0  0  0  0
  -26.8894  -15.8157   22.9049 C   0  0  0  0  0  0  0  0  0  0  0  0
  -23.4917  -30.0581   23.0879 C   0  0  0  0  0  0  0  0  0  0  0  0
  -21.9895  -30.4317   20.2373 C   0  0  0  0  0  0  0  0  0  0  0  0
  -21.9985  -29.9007   16.8661 C   0  0  0  0  0  0  0  0  0  0  0  0
  -27.0362  -21.0490   16.4256 C   0  0  0  0  0  0  0  0  0  0  0  0
  -21.1388  -32.0565   27.1533 C   0  0  0  0  0  0  0  0  0  0  0  0
  -25.3277  -31.0578   21.6787 C   0  0  0  0  0  0  0  0  0  0  0  0
  -23.9512  -28.8458   20.2797 C   0  0  0  0  0  0  0  0  0  0  0  0
  -20.6952  -31.4158   25.8407 C   0  0  0  0  0  0  0  0  0  0  0  0
  -24.5959  -21.4045   18.9937 C   0  0  0  0  0  0  0  0  0  0  0  0
  -21.4374  -30.1033   25.6097 C   0  0  0  0  0  0  0  0  0  0  0  0
  -24.7061  -20.1007   19.7861 C   0  0  0  0  0  0  0  0  0  0  0  0
  -24.8071  -21.1760   17.4987 C   0  0  0  0  0  0  0  0  0  0  0  0
  -26.1656  -19.1681   17.9424 C   0  0  0  0  0  0  0  0  0  0  0  0
  -22.9491  -30.3362   25.5001 C   0  0  1  0  0  0  0  0  0  0  0  0
  -23.8294  -30.8171   21.8359 C   0  0  1  0  0  0  0  0  0  0  0  0
  -26.0154  -19.3564   19.4617 C   0  0  2  0  0  0  0  0  0  0  0  0
  -31.2106  -21.3358   21.8476 C   0  0  0  0  0  0  0  0  0  0  0  0
  -20.6166  -30.2872   14.8074 C   0  0  0  0  0  0  0  0  0  0  0  0
  -20.1322  -28.1548   21.0595 C   0  0  0  0  0  0  0  0  0  0  0  0
  -19.4303  -27.9554   18.6645 C   0  0  0  0  0  0  0  0  0  0  0  0
  -18.9955  -30.0678   19.9181 C   0  0  0  0  0  0  0  0  0  0  0  0
  -24.1108  -31.5558   15.6180 C   0  0  0  0  0  0  0  0  0  0  0  0
  -30.3409  -21.4950   20.6024 C   0  0  0  0  0  0  0  0  0  0  0  0
  -29.6188  -26.4473   20.3365 C   0  0  0  0  0  0  0  0  0  1  0  0
  -31.9415  -21.6948   18.1569 C   0  0  0  0  0  0  0  0  0  0  0  0
  -30.9226  -20.8409   17.3878 C   0  0  0  0  0  0  0  0  0  0  0  0
  -30.3022  -21.6160   16.2216 C   0  0  0  0  0  0  0  0  0  0  0  0
  -29.2956  -20.7837   15.4338 C   0  0  0  0  0  0  0  0  0  0  0  0
  -21.3609  -29.4995   19.2298 C   0  0  1  0  0  0  0  0  0  0  0  0
  -21.7218  -30.8313   15.6991 C   0  0  2  0  0  0  0  0  0  0  0  0
  -20.0071  -28.9171   19.7253 C   0  0  0  0  0  0  0  0  0  0  0  0
  -31.5421  -24.0716   18.1122 N   0  0  0  0  0  0  0  0  0  0  0  0
  -25.6638  -16.9204   19.6198 N   0  0  0  0  0  0  0  0  0  0  0  0
  -26.1119  -18.0407   20.2117 N   0  0  0  0  0  0  0  0  0  0  0  0
  -23.2566  -30.0686   20.7152 N   0  0  0  0  0  0  0  0  0  0  0  0
  -26.0667  -20.4674   17.2591 N   0  0  0  0  0  0  0  0  0  0  0  0
  -27.1096  -18.8578   22.1985 N   0  0  0  0  0  0  0  0  0  0  0  0
  -26.6871  -14.4314   22.9890 N   0  0  0  0  0  0  0  0  0  0  0  0
  -23.2863  -30.8604   24.1940 N   0  0  0  0  0  0  0  0  0  0  0  0
  -21.2677  -30.2498   17.9821 N   0  0  0  0  0  0  0  0  0  0  0  0
  -28.2034  -20.3143   16.2568 N   0  0  0  0  0  0  0  0  0  0  0  0
  -22.9497  -31.0050   14.8727 N   0  3  0  0  0  0  0  0  0  0  0  0
  -27.3956  -16.4225   23.8791 O   0  0  0  0  0  0  0  0  0  0  0  0
  -23.4212  -28.8352   23.0526 O   0  0  0  0  0  0  0  0  0  0  0  0
  -21.3818  -31.4483   20.5820 O   0  0  0  0  0  0  0  0  0  0  0  0
  -22.7815  -28.9562   16.7937 O   0  0  0  0  0  0  0  0  0  0  0  0
  -26.8759  -22.1446   15.8771 O   0  0  0  0  0  0  0  0  0  0  0  0
  -24.5367  -10.6542   19.5041 O   0  0  0  0  0  0  0  0  0  0  0  0
  -28.2220  -26.4702   20.0452 O   0  0  0  0  0  0  0  0  0  1  0  0
  -21.9743   -7.8409   23.4945 F   0  0  0  0  0  0  0  0  0  0  0  0
  -22.0232   -9.5794   19.0921 F   0  0  0  0  0  0  0  0  0  0  0  0
  1  2  1  0  0  0  0
  1  5  2  0  0  0  0
  2  6  2  0  0  0  0
  3  8  2  0  0  0  0
  3 17  1  0  0  0  0
  4  9  1  0  0  0  0
  4 17  2  0  0  0  0
  5 19  1  0  0  0  0
  6 21  1  0  0  0  0
  7 10  2  0  0  0  0
  7 20  1  0  0  0  0
  8 25  1  0  0  0  0
  9 25  2  0  0  0  0
 10 26  1  0  0  0  0
 11 12  2  0  0  0  0
 11 27  1  0  0  0  0
 12 28  1  0  0  0  0
 13 22  1  0  0  0  0
 13 26  2  0  0  0  0
 14 23  2  0  0  0  0
 14 24  1  0  0  0  0
 15 28  2  0  0  0  0
 15 29  1  0  0  0  0
 16 23  1  0  0  0  0
 16 65  2  0  0  0  0
 17 30  1  0  0  0  0
 18 30  1  0  0  0  0
 18 32  2  0  0  0  0
 18 33  1  0  0  0  0
 19 21  2  0  0  0  0
 19 38  1  0  0  0  0
 20 22  2  0  0  0  0
 20 39  1  0  0  0  0
 21 47  1  0  0  0  0
 22 40  1  0  0  0  0
 23 57  1  0  0  0  0
 24 31  2  0  0  0  0
 24 56  1  0  0  0  0
 25 81  1  0  0  0  0
 26 82  1  0  0  0  0
 27 29  2  0  0  0  0
 27 81  1  0  0  0  0
 28 83  1  0  0  0  0
 29 84  1  0  0  0  0
 30 66  2  0  0  0  0
 31 58  1  0  0  0  0
 31 65  1  0  0  0  0
 32 67  1  0  0  0  0
 32 70  1  0  0  0  0
 33 71  1  0  0  0  0
 33 76  2  0  0  0  0
 34 48  1  0  0  0  0
 34 72  1  0  0  0  0
 34 77  2  0  0  0  0
 35 62  1  0  0  0  0
 35 68  1  0  0  0  0
 35 78  2  0  0  0  0
 36 63  1  0  0  0  0
 36 73  1  0  0  0  0
 36 79  2  0  0  0  0
 37 69  1  0  0  0  0
 37 74  1  0  0  0  0
 37 80  2  0  0  0  0
 38 41  1  0  0  0  0
 39 48  1  0  0  0  0
 40 68  1  0  0  0  0
 41 43  1  0  0  0  0
 42 44  1  0  0  0  0
 42 45  1  0  0  0  0
 43 47  1  0  0  0  0
 44 49  1  0  0  0  0
 45 69  1  0  0  0  0
 46 49  1  0  0  0  0
 46 69  1  0  0  0  0
 47 72  1  0  0  0  0
 48 68  1  0  0  0  0
 49 67  1  0  0  0  0
 50 56  1  0  0  0  0
 51 63  1  0  0  0  0
 52 64  1  0  0  0  0
 53 64  1  0  0  0  0
 54 64  1  0  0  0  0
 55 75  1  0  0  0  0
 57 82  1  0  0  0  0
 58 59  1  0  0  0  0
 59 60  1  0  0  0  0
 60 61  1  0  0  0  0
 61 74  1  0  0  0  0
 62 64  1  0  0  0  0
 62 73  1  0  0  0  0
 63 75  1  0  0  0  0
 66 67  1  0  0  0  0
M  CHG  1  75   1
M  ISO  4  37 100  57 101  74 100  82 101
M  END
> <Batch ID>
0041

> <Smiles>
CCc1cc([101CH2:1][101O:1]c2ccc3c(c2)CN(C(=O)C(NC(=O)C(C)NC)C(C)(C)C)C(C(=O)NC2CCCc4ccccc42)C3)cnc1CCCC[100NH:0][100C:0](=O)N1CCCC(n2nc(-c3ccc(Oc4ccc(F)cc4F)cc3)c(C(N)=O)c2N)C1

> <Shape>
0.221

> <Color>
0.086

> <Negative vol penalty>
0.000

$$$$

  -OEChem-04052317093D

 83 91  0     1  0  0  0  0  0999 V2000
  -28.6268  -18.1922   19.2981 C   0  0  0  0  0  0  0  0  0  0  0  0
  -27.4688  -18.9006   18.9939 C   0  0  0  0  0  0  0  0  0  0  0  0
  -23.2350  -13.7789   20.4601 C   0  0  0  0  0  0  0  0  0  0  0  0
  -25.0206  -14.9403   21.6003 C   0  0  0  0  0  0  0  0  0  0  0  0
  -29.5207  -18.6928   20.2438 C   0  0  0  0  0  0  0  0  0  0  0  0
  -27.2034  -20.1096   19.6361 C   0  0  0  0  0  0  0  0  0  0  0  0
  -24.1320  -26.4800   18.4959 C   0  0  0  0  0  0  0  0  0  0  0  0
  -24.0803  -12.6904   20.2449 C   0  0  0  0  0  0  0  0  0  0  0  0
  -25.8659  -13.8518   21.3852 C   0  0  0  0  0  0  0  0  0  0  0  0
  -23.1830  -27.3339   19.0564 C   0  0  0  0  0  0  0  0  0  0  0  0
  -27.7046  -12.5893   18.8442 C   0  0  0  0  0  0  0  0  0  0  0  0
  -28.9991  -12.8526   18.3967 C   0  0  0  0  0  0  0  0  0  0  0  0
  -24.8382  -28.1407   20.6148 C   0  0  0  0  0  0  0  0  0  0  0  0
  -29.8980  -11.7897   20.3714 C   0  0  0  0  0  0  0  0  0  0  0  0
  -20.4543  -27.3786   23.3635 C   0  0  0  0  0  0  0  0  0  0  0  0
  -23.7052  -14.9039   21.1377 C   0  0  0  0  0  0  0  0  0  0  0  0
  -21.9874  -16.2439   22.4647 C   0  0  0  0  0  0  0  0  0  0  0  0
  -29.2710  -19.9133   20.8908 C   0  0  0  0  0  0  0  0  0  0  0  0
  -25.4405  -26.4421   18.9987 C   0  0  0  0  0  0  0  0  0  0  0  0
  -28.0942  -20.6263   20.5922 C   0  0  0  0  0  0  0  0  0  0  0  0
  -25.8026  -27.2873   20.0573 C   0  0  0  0  0  0  0  0  0  0  0  0
  -19.4240  -26.5496   22.9782 C   0  0  0  0  0  0  0  0  0  0  0  0
  -18.7539  -27.1801   21.9010 C   0  0  0  0  0  0  0  0  0  0  0  0
  -25.3958  -12.7268   20.7075 C   0  0  0  0  0  0  0  0  0  0  0  0
  -23.5353  -28.1624   20.1178 C   0  0  0  0  0  0  0  0  0  0  0  0
  -27.5067  -11.9262   20.0554 C   0  0  0  0  0  0  0  0  0  0  0  0
  -30.0959  -12.4528   19.1602 C   0  0  0  0  0  0  0  0  0  0  0  0
  -28.6034  -11.5264   20.8189 C   0  0  0  0  0  0  0  0  0  0  0  0
  -22.8326  -16.0288   21.3597 C   0  0  0  0  0  0  0  0  0  0  0  0
  -19.3952  -28.3753   21.6607 C   0  0  0  0  0  0  0  0  0  0  0  0
  -21.3759  -17.4451   22.2006 C   0  0  0  0  0  0  0  0  0  0  0  0
  -21.7741  -15.4307   23.6261 C   0  0  0  0  0  0  0  0  0  0  0  0
  -27.2560  -24.2176   20.3624 C   0  0  0  0  0  0  0  0  0  0  0  0
  -29.5455  -26.5048   20.1402 C   0  0  0  0  0  0  0  0  0  0  0  0
  -30.3140  -29.8211   19.8996 C   0  0  0  0  0  0  0  0  0  0  0  0
  -21.6062  -22.7484   20.4780 C   0  0  0  0  0  0  0  0  0  0  0  0
  -30.2432  -20.3908   21.9403 C   0  0  0  0  0  0  0  0  0  0  0  0
  -26.4595  -25.5347   18.3657 C   0  0  0  0  0  0  0  0  0  0  0  0
  -27.1995  -27.2993   20.6203 C   0  0  0  0  0  0  0  0  0  0  0  0
  -30.0737  -21.8641   22.3022 C   0  0  0  0  0  0  0  0  0  0  0  0
  -21.2787  -20.2321   17.9804 C   0  0  0  0  0  0  0  0  0  0  0  0
  -28.6009  -22.1932   22.5245 C   0  0  0  0  0  0  0  0  0  0  0  0
  -21.5900  -18.9335   18.7265 C   0  0  0  0  0  0  0  0  0  0  0  0
  -22.1422  -21.3894   18.4774 C   0  0  0  0  0  0  0  0  0  0  0  0
  -22.4077  -20.3167   20.6802 C   0  0  0  0  0  0  0  0  0  0  0  0
  -27.7835  -21.9536   21.2494 C   0  0  1  0  0  0  0  0  0  0  0  0
  -27.6254  -25.2065   19.2931 C   0  0  1  0  0  0  0  0  0  0  0  0
  -21.5226  -19.1335   20.2525 C   0  0  2  0  0  0  0  0  0  0  0  0
  -17.5829  -26.6550   21.1687 C   0  0  0  0  0  0  0  0  0  0  0  0
  -19.1153  -29.4229   20.6560 C   0  0  0  0  0  0  0  0  0  0  0  0
  -32.2722  -31.3854   19.7745 C   0  0  0  0  0  0  0  0  0  0  0  0
  -30.0303  -26.1330   23.1296 C   0  0  0  0  0  0  0  0  0  0  0  0
  -31.2637  -28.3118   23.1297 C   0  0  0  0  0  0  0  0  0  0  0  0
  -32.1064  -26.4035   21.7618 C   0  0  0  0  0  0  0  0  0  0  0  0
  -29.4869  -30.8295   17.2429 C   0  0  0  0  0  0  0  0  0  0  0  0
  -19.0890  -25.2456   23.5845 C   0  0  0  0  0  0  0  0  0  0  0  0
  -19.5838  -24.0111   22.7930 C   0  0  0  0  0  0  0  0  0  0  0  0
  -21.3954  -29.6392   22.6524 C   0  0  0  0  0  0  0  0  0  0  0  0
  -21.0947  -23.9764   22.5731 C   0  0  0  0  0  0  0  0  0  0  0  0
  -22.7571  -29.3058   22.0525 C   0  0  0  0  0  0  0  0  0  1  0  0
  -30.0217  -27.6304   21.0263 C   0  0  1  0  0  0  0  0  0  0  0  0
  -31.2617  -30.5715   18.9813 C   0  0  2  0  0  0  0  0  0  0  0  0
  -30.8286  -27.1183   22.2527 C   0  0  0  0  0  0  0  0  0  0  0  0
  -22.7666  -17.0142   20.4605 N   0  0  0  0  0  0  0  0  0  0  0  0
  -20.4274  -28.4852   22.5555 N   0  0  0  0  0  0  0  0  0  0  0  0
  -21.8725  -17.8601   21.0000 N   0  0  0  0  0  0  0  0  0  0  0  0
  -28.1583  -26.3897   19.9716 N   0  0  0  0  0  0  0  0  0  0  0  0
  -22.0321  -21.5264   19.9317 N   0  0  0  0  0  0  0  0  0  0  0  0
  -20.4672  -18.1762   22.8804 N   0  0  0  0  0  0  0  0  0  0  0  0
  -22.4838  -14.2274   23.7388 N   0  0  0  0  0  0  0  0  0  0  0  0
  -27.9774  -23.0401   20.3132 N   0  0  0  0  0  0  0  0  0  0  0  0
  -30.7622  -28.5441   20.1631 N   0  0  0  0  0  0  0  0  0  0  0  0
  -21.5233  -22.7912   21.8643 N   0  0  0  0  0  0  0  0  0  0  0  0
  -30.5007  -31.4993   18.0977 N   0  3  0  0  0  0  0  0  0  0  0  0
  -20.9654  -15.7534   24.5292 O   0  0  0  0  0  0  0  0  0  0  0  0
  -26.3821  -24.5025   21.1729 O   0  0  0  0  0  0  0  0  0  0  0  0
  -30.3740  -25.7596   19.6112 O   0  0  0  0  0  0  0  0  0  0  0  0
  -29.2813  -30.3195   20.3421 O   0  0  0  0  0  0  0  0  0  0  0  0
  -21.3159  -23.7270   19.7815 O   0  0  0  0  0  0  0  0  0  0  0  0
  -26.2208  -11.6648   20.4980 O   0  0  0  0  0  0  0  0  0  0  0  0
  -22.6109  -28.9964   20.6671 O   0  0  0  0  0  0  0  0  0  1  0  0
  -31.3390  -12.7044   18.7296 F   0  0  0  0  0  0  0  0  0  0  0  0
  -28.4196  -10.8879   21.9827 F   0  0  0  0  0  0  0  0  0  0  0  0
  1  2  1  0  0  0  0
  1  5  2  0  0  0  0
  2  6  2  0  0  0  0
  3  8  2  0  0  0  0
  3 16  1  0  0  0  0
  4  9  1  0  0  0  0
  4 16  2  0  0  0  0
  5 18  1  0  0  0  0
  6 20  1  0  0  0  0
  7 10  2  0  0  0  0
  7 19  1  0  0  0  0
  8 24  1  0  0  0  0
  9 24  2  0  0  0  0
 10 25  1  0  0  0  0
 11 12  2  0  0  0  0
 11 26  1  0  0  0  0
 12 27  1  0  0  0  0
 13 21  1  0  0  0  0
 13 25  2  0  0  0  0
 14 27  2  0  0  0  0
 14 28  1  0  0  0  0
 15 22  2  0  0  0  0
 15 65  1  0  0  0  0
 16 29  1  0  0  0  0
 17 29  1  0  0  0  0
 17 31  2  0  0  0  0
 17 32  1  0  0  0  0
 18 20  2  0  0  0  0
 18 37  1  0  0  0  0
 19 21  2  0  0  0  0
 19 38  1  0  0  0  0
 20 46  1  0  0  0  0
 21 39  1  0  0  0  0
 22 23  1  0  0  0  0
 22 56  1  0  0  0  0
 23 30  2  0  0  0  0
 23 49  1  0  0  0  0
 24 80  1  0  0  0  0
 25 81  1  0  0  0  0
 26 28  2  0  0  0  0
 26 80  1  0  0  0  0
 27 82  1  0  0  0  0
 28 83  1  0  0  0  0
 29 64  2  0  0  0  0
 30 50  1  0  0  0  0
 30 65  1  0  0  0  0
 31 66  1  0  0  0  0
 31 69  1  0  0  0  0
 32 70  1  0  0  0  0
 32 75  2  0  0  0  0
 33 47  1  0  0  0  0
 33 71  1  0  0  0  0
 33 76  2  0  0  0  0
 34 61  1  0  0  0  0
 34 67  1  0  0  0  0
 34 77  2  0  0  0  0
 35 62  1  0  0  0  0
 35 72  1  0  0  0  0
 35 78  2  0  0  0  0
 36 68  1  0  0  0  0
 36 73  1  0  0  0  0
 36 79  2  0  0  0  0
 37 40  1  0  0  0  0
 38 47  1  0  0  0  0
 39 67  1  0  0  0  0
 40 42  1  0  0  0  0
 41 43  1  0  0  0  0
 41 44  1  0  0  0  0
 42 46  1  0  0  0  0
 43 48  1  0  0  0  0
 44 68  1  0  0  0  0
 45 48  1  0  0  0  0
 45 68  1  0  0  0  0
 46 71  1  0  0  0  0
 47 67  1  0  0  0  0
 48 66  1  0  0  0  0
 51 62  1  0  0  0  0
 52 63  1  0  0  0  0
 53 63  1  0  0  0  0
 54 63  1  0  0  0  0
 55 74  1  0  0  0  0
 56 57  1  0  0  0  0
 57 59  1  0  0  0  0
 58 60  1  0  0  0  0
 58 65  1  0  0  0  0
 59 73  1  0  0  0  0
 60 81  1  0  0  0  0
 61 63  1  0  0  0  0
 61 72  1  0  0  0  0
 62 74  1  0  0  0  0
 64 66  1  0  0  0  0
M  CHG  1  74   1
M  ISO  4  36 100  60 101  73 100  81 101
M  END
> <Batch ID>
0041

> <Smiles>
CNC(C)C(=O)NC(C(=O)N1Cc2cc([101O:1][101CH2:1]Cn3cc(CCC[100NH:0][100C:0](=O)N4CCCC(n5nc(-c6ccc(Oc7ccc(F)cc7F)cc6)c(C(N)=O)c5N)C4)c(C)c3C)ccc2CC1C(=O)NC1CCCc2ccccc21)C(C)(C)C

> <Shape>
0.248

> <Color>
0.066

> <Negative vol penalty>
0.000

$$$$

  -OEChem-04052317093D

 78 86  0     1  0  0  0  0  0999 V2000
  -16.5889  -28.7091   23.4575 C   0  0  0  0  0  0  0  0  0  0  0  0
  -17.4559  -28.0478   22.5936 C   0  0  0  0  0  0  0  0  0  0  0  0
  -26.3051  -13.5453   21.6196 C   0  0  0  0  0  0  0  0  0  0  0  0
  -25.2113  -14.5160   19.6965 C   0  0  0  0  0  0  0  0  0  0  0  0
  -16.9844  -29.9014   24.0624 C   0  0  0  0  0  0  0  0  0  0  0  0
  -18.7186  -28.5790   22.3332 C   0  0  0  0  0  0  0  0  0  0  0  0
  -23.8899  -25.4567   21.3260 C   0  0  0  0  0  0  0  0  0  0  0  0
  -25.3809  -12.5006   21.6179 C   0  0  0  0  0  0  0  0  0  0  0  0
  -24.2871  -13.4713   19.6948 C   0  0  0  0  0  0  0  0  0  0  0  0
  -24.5572  -25.0998   20.1551 C   0  0  0  0  0  0  0  0  0  0  0  0
  -23.5273   -9.3861   21.8994 C   0  0  0  0  0  0  0  0  0  0  0  0
  -24.0138   -8.0896   22.0666 C   0  0  0  0  0  0  0  0  0  0  0  0
  -25.9832  -27.0318   20.3860 C   0  0  0  0  0  0  0  0  0  0  0  0
  -25.3528   -8.3346   20.0706 C   0  0  0  0  0  0  0  0  0  0  0  0
  -30.6502  -25.2586   18.7683 C   0  0  0  0  0  0  0  0  0  0  0  0
  -29.6023  -25.3553   17.8833 C   0  0  0  0  0  0  0  0  0  0  0  0
  -26.2203  -14.5531   20.6589 C   0  0  0  0  0  0  0  0  0  0  0  0
  -28.4071  -15.6790   19.9824 C   0  0  0  0  0  0  0  0  0  0  0  0
  -18.2562  -30.4425   23.8168 C   0  0  0  0  0  0  0  0  0  0  0  0
  -24.2577  -26.6117   22.0311 C   0  0  0  0  0  0  0  0  0  0  0  0
  -19.1310  -29.7804   22.9343 C   0  0  0  0  0  0  0  0  0  0  0  0
  -25.3206  -27.3997   21.5671 C   0  0  0  0  0  0  0  0  0  0  0  0
  -24.3719  -12.4635   20.6555 C   0  0  0  0  0  0  0  0  0  0  0  0
  -25.6021  -25.8890   19.6833 C   0  0  0  0  0  0  0  0  0  0  0  0
  -23.9535  -10.1568   20.8177 C   0  0  0  0  0  0  0  0  0  0  0  0
  -24.9266   -7.5638   21.1523 C   0  0  0  0  0  0  0  0  0  0  0  0
  -24.8662   -9.6311   19.9033 C   0  0  0  0  0  0  0  0  0  0  0  0
  -27.1743  -15.6329   20.6605 C   0  0  0  0  0  0  0  0  0  0  0  0
  -28.9302  -16.9076   20.3041 C   0  0  0  0  0  0  0  0  0  0  0  0
  -29.4561  -23.5299   19.1093 C   0  0  0  0  0  0  0  0  0  0  0  0
  -29.0243  -14.6989   19.1373 C   0  0  0  0  0  0  0  0  0  0  0  0
  -22.7956  -29.3239   22.8121 C   0  0  0  0  0  0  0  0  0  0  0  0
  -28.2400  -22.4196   20.9602 C   0  0  0  0  0  0  0  0  0  0  0  0
  -25.5173  -29.8511   24.4963 C   0  0  0  0  0  0  0  0  0  0  0  0
  -28.8414  -29.1976   24.9092 C   0  0  0  0  0  0  0  0  0  0  0  0
  -18.6212  -31.7585   24.4568 C   0  0  0  0  0  0  0  0  0  0  0  0
  -23.5455  -26.9683   23.3070 C   0  0  0  0  0  0  0  0  0  0  0  0
  -25.7675  -28.6384   22.2981 C   0  0  0  0  0  0  0  0  0  0  0  0
  -20.1174  -32.0594   24.4201 C   0  0  0  0  0  0  0  0  0  0  0  0
  -27.4965  -20.3047   23.7555 C   0  0  0  0  0  0  0  0  0  0  0  0
  -20.6826  -31.7876   23.0296 C   0  0  0  0  0  0  0  0  0  0  0  0
  -27.4178  -18.9088   23.1386 C   0  0  0  0  0  0  0  0  0  0  0  0
  -26.9652  -21.3683   22.7997 C   0  0  0  0  0  0  0  0  0  0  0  0
  -27.5519  -19.9734   20.8422 C   0  0  0  0  0  0  0  0  0  0  0  0
  -20.5182  -30.3121   22.6460 C   0  0  1  0  0  0  0  0  0  0  0  0
  -23.6664  -28.4462   23.6658 C   0  0  1  0  0  0  0  0  0  0  0  0
  -28.1072  -18.8726   21.7632 C   0  0  2  0  0  0  0  0  0  0  0  0
  -30.8047  -29.8065   26.3486 C   0  0  0  0  0  0  0  0  0  0  0  0
  -25.7481  -32.5257   23.0460 C   0  0  0  0  0  0  0  0  0  0  0  0
  -28.1379  -32.6403   23.7836 C   0  0  0  0  0  0  0  0  0  0  0  0
  -26.3106  -32.6077   25.4814 C   0  0  0  0  0  0  0  0  0  0  0  0
  -29.1857  -26.4038   25.8228 C   0  0  0  0  0  0  0  0  0  0  0  0
  -28.9065  -22.2564   19.6173 C   0  0  0  0  0  0  0  0  0  0  0  0
  -27.5720  -23.8780   17.3899 C   0  0  0  0  0  0  0  0  0  0  0  0
  -26.3297  -24.1523   18.2306 C   0  0  0  0  0  0  0  0  0  1  0  0
  -26.8498  -30.4959   24.2001 C   0  0  1  0  0  0  0  0  0  0  0  0
  -29.6516  -28.8369   26.1412 C   0  0  2  0  0  0  0  0  0  0  0  0
  -26.7522  -32.0452   24.1127 C   0  0  0  0  0  0  0  0  0  0  0  0
  -30.5535  -24.1199   19.5283 N   0  0  0  0  0  0  0  0  0  0  0  0
  -26.9288  -16.7438   21.3603 N   0  0  0  0  0  0  0  0  0  0  0  0
  -28.8461  -24.2407   18.1133 N   0  0  0  0  0  0  0  0  0  0  0  0
  -28.0147  -17.4995   21.1236 N   0  0  0  0  0  0  0  0  0  0  0  0
  -25.0358  -28.9488   23.5373 N   0  0  0  0  0  0  0  0  0  0  0  0
  -27.6292  -21.2864   21.4976 N   0  0  0  0  0  0  0  0  0  0  0  0
  -30.0793  -17.5285   19.9630 N   0  0  0  0  0  0  0  0  0  0  0  0
  -28.3499  -13.4911   18.9120 N   0  0  0  0  0  0  0  0  0  0  0  0
  -21.5186  -29.5031   23.3086 N   0  0  0  0  0  0  0  0  0  0  0  0
  -27.7732  -30.0120   25.2208 N   0  0  0  0  0  0  0  0  0  0  0  0
  -30.2115  -27.4622   26.0088 N   0  3  0  0  0  0  0  0  0  0  0  0
  -30.1481  -14.8820   18.6110 O   0  0  0  0  0  0  0  0  0  0  0  0
  -23.2492  -29.8043   21.7800 O   0  0  0  0  0  0  0  0  0  0  0  0
  -28.2651  -23.5215   21.5147 O   0  0  0  0  0  0  0  0  0  0  0  0
  -24.9289  -30.1322   25.5434 O   0  0  0  0  0  0  0  0  0  0  0  0
  -29.1295  -28.8000   23.7825 O   0  0  0  0  0  0  0  0  0  0  0  0
  -23.4701  -11.4441   20.6534 O   0  0  0  0  0  0  0  0  0  0  0  0
  -26.2547  -25.5433   18.5403 O   0  0  0  0  0  0  0  0  0  1  0  0
  -25.3949   -6.3194   21.3139 F   0  0  0  0  0  0  0  0  0  0  0  0
  -25.2803  -10.3671   18.8628 F   0  0  0  0  0  0  0  0  0  0  0  0
  1  2  1  0  0  0  0
  1  5  2  0  0  0  0
  2  6  2  0  0  0  0
  3  8  2  0  0  0  0
  3 17  1  0  0  0  0
  4  9  1  0  0  0  0
  4 17  2  0  0  0  0
  5 19  1  0  0  0  0
  6 21  1  0  0  0  0
  7 10  2  0  0  0  0
  7 20  1  0  0  0  0
  8 23  1  0  0  0  0
  9 23  2  0  0  0  0
 10 24  1  0  0  0  0
 11 12  2  0  0  0  0
 11 25  1  0  0  0  0
 12 26  1  0  0  0  0
 13 22  1  0  0  0  0
 13 24  2  0  0  0  0
 14 26  2  0  0  0  0
 14 27  1  0  0  0  0
 15 16  2  0  0  0  0
 15 59  1  0  0  0  0
 16 61  1  0  0  0  0
 17 28  1  0  0  0  0
 18 28  1  0  0  0  0
 18 29  2  0  0  0  0
 18 31  1  0  0  0  0
 19 21  2  0  0  0  0
 19 36  1  0  0  0  0
 20 22  2  0  0  0  0
 20 37  1  0  0  0  0
 21 45  1  0  0  0  0
 22 38  1  0  0  0  0
 23 75  1  0  0  0  0
 24 76  1  0  0  0  0
 25 27  2  0  0  0  0
 25 75  1  0  0  0  0
 26 77  1  0  0  0  0
 27 78  1  0  0  0  0
 28 60  2  0  0  0  0
 29 62  1  0  0  0  0
 29 65  1  0  0  0  0
 30 53  1  0  0  0  0
 30 59  2  0  0  0  0
 30 61  1  0  0  0  0
 31 66  1  0  0  0  0
 31 70  2  0  0  0  0
 32 46  1  0  0  0  0
 32 67  1  0  0  0  0
 32 71  2  0  0  0  0
 33 53  1  0  0  0  0
 33 64  1  0  0  0  0
 33 72  2  0  0  0  0
 34 56  1  0  0  0  0
 34 63  1  0  0  0  0
 34 73  2  0  0  0  0
 35 57  1  0  0  0  0
 35 68  1  0  0  0  0
 35 74  2  0  0  0  0
 36 39  1  0  0  0  0
 37 46  1  0  0  0  0
 38 63  1  0  0  0  0
 39 41  1  0  0  0  0
 40 42  1  0  0  0  0
 40 43  1  0  0  0  0
 41 45  1  0  0  0  0
 42 47  1  0  0  0  0
 43 64  1  0  0  0  0
 44 47  1  0  0  0  0
 44 64  1  0  0  0  0
 45 67  1  0  0  0  0
 46 63  1  0  0  0  0
 47 62  1  0  0  0  0
 48 57  1  0  0  0  0
 49 58  1  0  0  0  0
 50 58  1  0  0  0  0
 51 58  1  0  0  0  0
 52 69  1  0  0  0  0
 54 55  1  0  0  0  0
 54 61  1  0  0  0  0
 55 76  1  0  0  0  0
 56 58  1  0  0  0  0
 56 68  1  0  0  0  0
 57 69  1  0  0  0  0
 60 62  1  0  0  0  0
M  CHG  1  69   1
M  ISO  4  33 100  53 100  55 101  76 101
M  END
> <Batch ID>
0041

> <Smiles>
CNC(C)C(=O)NC(C(=O)N1Cc2cc([101O:1][101CH2:1]Cn3ccnc3[100CH2:0][100C:0](=O)N3CCCC(n4nc(-c5ccc(Oc6ccc(F)cc6F)cc5)c(C(N)=O)c4N)C3)ccc2CC1C(=O)NC1CCCc2ccccc21)C(C)(C)C

> <Shape>
0.283

> <Color>
0.062

> <Negative vol penalty>
0.000

$$$$

  -OEChem-04052317093D

 81 89  0     1  0  0  0  0  0999 V2000
  -23.1093  -29.8244   21.8733 C   0  0  0  0  0  0  0  0  0  0  0  0
  -22.5645  -28.5718   21.6095 C   0  0  0  0  0  0  0  0  0  0  0  0
  -23.2624  -16.1162   21.4621 C   0  0  0  0  0  0  0  0  0  0  0  0
  -22.5782  -15.1350   19.3631 C   0  0  0  0  0  0  0  0  0  0  0  0
  -24.4165  -30.1112   21.4821 C   0  0  0  0  0  0  0  0  0  0  0  0
  -23.3263  -27.6055   20.9533 C   0  0  0  0  0  0  0  0  0  0  0  0
  -24.6659  -21.2270   24.0211 C   0  0  0  0  0  0  0  0  0  0  0  0
  -22.2934  -17.1085   21.3142 C   0  0  0  0  0  0  0  0  0  0  0  0
  -21.6091  -16.1272   19.2151 C   0  0  0  0  0  0  0  0  0  0  0  0
  -24.7892  -19.9058   24.4518 C   0  0  0  0  0  0  0  0  0  0  0  0
  -20.2386  -20.1087   21.3124 C   0  0  0  0  0  0  0  0  0  0  0  0
  -20.6108  -21.4260   21.5806 C   0  0  0  0  0  0  0  0  0  0  0  0
  -26.1424  -19.3896   22.5152 C   0  0  0  0  0  0  0  0  0  0  0  0
  -22.2896  -21.3046   19.8474 C   0  0  0  0  0  0  0  0  0  0  0  0
  -30.6553  -14.4725   22.9951 C   0  0  0  0  0  0  0  0  0  0  0  0
  -23.4049  -15.1295   20.4865 C   0  0  0  0  0  0  0  0  0  0  0  0
  -24.2554  -12.8560   21.2711 C   0  0  0  0  0  0  0  0  0  0  0  0
  -25.1980  -29.1447   20.8295 C   0  0  0  0  0  0  0  0  0  0  0  0
  -25.2940  -21.6387   22.8424 C   0  0  0  0  0  0  0  0  0  0  0  0
  -24.6447  -27.8801   20.5519 C   0  0  0  0  0  0  0  0  0  0  0  0
  -26.0329  -20.7147   22.0853 C   0  0  0  0  0  0  0  0  0  0  0  0
  -21.4667  -17.1140   20.1907 C   0  0  0  0  0  0  0  0  0  0  0  0
  -25.5254  -18.9894   23.7006 C   0  0  0  0  0  0  0  0  0  0  0  0
  -20.8919  -19.3894   20.3117 C   0  0  0  0  0  0  0  0  0  0  0  0
  -21.6362  -22.0239   20.8481 C   0  0  0  0  0  0  0  0  0  0  0  0
  -21.9174  -19.9873   19.5792 C   0  0  0  0  0  0  0  0  0  0  0  0
  -24.4061  -14.1045   20.6385 C   0  0  0  0  0  0  0  0  0  0  0  0
  -30.7690  -15.0914   21.7742 C   0  0  0  0  0  0  0  0  0  0  0  0
  -30.4470  -15.5258   23.9055 C   0  0  0  0  0  0  0  0  0  0  0  0
  -25.4858  -12.2581   21.1485 C   0  0  0  0  0  0  0  0  0  0  0  0
  -23.1058  -12.2874   21.9121 C   0  0  0  0  0  0  0  0  0  0  0  0
  -30.9956  -14.4858   20.4555 C   0  0  0  0  0  0  0  0  0  0  0  0
  -26.0058  -24.4462   20.4576 C   0  0  0  0  0  0  0  0  0  0  0  0
  -28.6016  -22.8358   20.7382 C   0  0  0  0  0  0  0  0  0  0  0  0
  -31.1422  -21.4822   22.0094 C   0  0  0  0  0  0  0  0  0  0  0  0
  -26.5899  -29.5168   20.3837 C   0  0  0  0  0  0  0  0  0  0  0  0
  -25.1373  -23.0366   22.3084 C   0  0  0  0  0  0  0  0  0  0  0  0
  -26.6625  -21.1939   20.8059 C   0  0  0  0  0  0  0  0  0  0  0  0
  -27.4576  -28.3126   20.0271 C   0  0  0  0  0  0  0  0  0  0  0  0
  -29.3434  -12.1535   18.3174 C   0  0  0  0  0  0  0  0  0  0  0  0
  -26.6848  -27.3418   19.1398 C   0  0  0  0  0  0  0  0  0  0  0  0
  -27.8720  -12.2849   18.7146 C   0  0  0  0  0  0  0  0  0  0  0  0
  -30.0686  -13.4949   18.3895 C   0  0  0  0  0  0  0  0  0  0  0  0
  -28.4783  -14.3188   20.0915 C   0  0  0  0  0  0  0  0  0  0  0  0
  -25.4479  -26.7973   19.8644 C   0  0  1  0  0  0  0  0  0  0  0  0
  -26.4008  -23.5572   21.6000 C   0  0  1  0  0  0  0  0  0  0  0  0
  -27.7231  -12.9796   20.0812 C   0  0  1  0  0  0  0  0  0  0  0  0
  -33.5215  -20.6850   21.9866 C   0  0  0  0  0  0  0  0  0  0  0  0
  -28.0076  -21.4565   18.0833 C   0  0  0  0  0  0  0  0  0  0  0  0
  -30.3129  -20.4824   18.1548 C   0  0  0  0  0  0  0  0  0  0  0  0
  -30.0087  -22.9563   18.0554 C   0  0  0  0  0  0  0  0  0  0  0  0
  -30.6708  -17.4946   21.0472 C   0  0  0  0  0  0  0  0  0  0  0  0
  -31.8608  -23.1971   24.3120 C   0  0  0  0  0  0  0  0  0  0  0  0
  -30.2546  -15.4251   25.3979 C   0  0  0  0  0  0  0  0  0  0  0  0
  -28.7904  -15.2707   25.8247 C   0  0  0  0  0  0  0  0  0  0  0  0
  -27.9266  -16.4795   25.4512 C   0  0  0  0  0  0  0  0  0  0  0  0
  -26.4717  -16.2695   25.8674 C   0  0  0  0  0  0  0  0  0  0  0  0
  -25.6129  -17.4824   25.5387 C   0  0  0  0  0  0  0  0  0  1  0  0
  -29.4664  -21.7259   20.1964 C   0  0  1  0  0  0  0  0  0  0  0  0
  -32.5808  -21.8215   22.3554 C   0  0  2  0  0  0  0  0  0  0  0  0
  -29.4307  -21.6509   18.6438 C   0  0  0  0  0  0  0  0  0  0  0  0
  -25.6355  -14.2901   20.1504 N   0  0  0  0  0  0  0  0  0  0  0  0
  -30.4289  -16.7230   23.3137 N   0  0  0  0  0  0  0  0  0  0  0  0
  -30.6273  -16.4258   22.0181 N   0  0  0  0  0  0  0  0  0  0  0  0
  -26.2684  -13.1503   20.4765 N   0  0  0  0  0  0  0  0  0  0  0  0
  -29.8804  -14.1150   19.7005 N   0  0  0  0  0  0  0  0  0  0  0  0
  -27.2643  -22.5211   21.0085 N   0  0  0  0  0  0  0  0  0  0  0  0
  -25.9639  -11.0616   21.5512 N   0  0  0  0  0  0  0  0  0  0  0  0
  -21.9220  -13.0369   21.9485 N   0  0  0  0  0  0  0  0  0  0  0  0
  -25.8277  -25.7703   20.8106 N   0  0  0  0  0  0  0  0  0  0  0  0
  -30.7980  -21.9368   20.7540 N   0  0  0  0  0  0  0  0  0  0  0  0
  -32.7136  -22.0864   23.8159 N   0  3  0  0  0  0  0  0  0  0  0  0
  -23.1324  -11.1552   22.4515 O   0  0  0  0  0  0  0  0  0  0  0  0
  -32.1698  -14.3395   20.1193 O   0  0  0  0  0  0  0  0  0  0  0  0
  -25.8735  -23.9676   19.3373 O   0  0  0  0  0  0  0  0  0  0  0  0
  -29.0942  -23.9539   20.9127 O   0  0  0  0  0  0  0  0  0  0  0  0
  -30.3993  -20.8715   22.7746 O   0  0  0  0  0  0  0  0  0  0  0  0
  -20.5208  -18.0819   20.0461 O   0  0  0  0  0  0  0  0  0  0  0  0
  -25.6454  -17.7023   24.1291 O   0  0  0  0  0  0  0  0  0  1  0  0
  -21.9925  -23.2894   21.1048 F   0  0  0  0  0  0  0  0  0  0  0  0
  -22.5480  -19.3016   18.6159 F   0  0  0  0  0  0  0  0  0  0  0  0
  1  2  1  0  0  0  0
  1  5  2  0  0  0  0
  2  6  2  0  0  0  0
  3  8  2  0  0  0  0
  3 16  1  0  0  0  0
  4  9  1  0  0  0  0
  4 16  2  0  0  0  0
  5 18  1  0  0  0  0
  6 20  1  0  0  0  0
  7 10  2  0  0  0  0
  7 19  1  0  0  0  0
  8 22  1  0  0  0  0
  9 22  2  0  0  0  0
 10 23  1  0  0  0  0
 11 12  2  0  0  0  0
 11 24  1  0  0  0  0
 12 25  1  0  0  0  0
 13 21  1  0  0  0  0
 13 23  2  0  0  0  0
 14 25  2  0  0  0  0
 14 26  1  0  0  0  0
 15 28  2  0  0  0  0
 15 29  1  0  0  0  0
 16 27  1  0  0  0  0
 17 27  1  0  0  0  0
 17 30  2  0  0  0  0
 17 31  1  0  0  0  0
 18 20  2  0  0  0  0
 18 36  1  0  0  0  0
 19 21  2  0  0  0  0
 19 37  1  0  0  0  0
 20 45  1  0  0  0  0
 21 38  1  0  0  0  0
 22 78  1  0  0  0  0
 23 79  1  0  0  0  0
 24 26  2  0  0  0  0
 24 78  1  0  0  0  0
 25 80  1  0  0  0  0
 26 81  1  0  0  0  0
 27 62  2  0  0  0  0
 28 32  1  0  0  0  0
 28 64  1  0  0  0  0
 29 54  1  0  0  0  0
 29 63  2  0  0  0  0
 30 65  1  0  0  0  0
 30 68  1  0  0  0  0
 31 69  1  0  0  0  0
 31 73  2  0  0  0  0
 32 66  1  0  0  0  0
 32 74  2  0  0  0  0
 33 46  1  0  0  0  0
 33 70  1  0  0  0  0
 33 75  2  0  0  0  0
 34 59  1  0  0  0  0
 34 67  1  0  0  0  0
 34 76  2  0  0  0  0
 35 60  1  0  0  0  0
 35 71  1  0  0  0  0
 35 77  2  0  0  0  0
 36 39  1  0  0  0  0
 37 46  1  0  0  0  0
 38 67  1  0  0  0  0
 39 41  1  0  0  0  0
 40 42  1  0  0  0  0
 40 43  1  0  0  0  0
 41 45  1  0  0  0  0
 42 47  1  0  0  0  0
 43 66  1  0  0  0  0
 44 47  1  0  0  0  0
 44 66  1  0  0  0  0
 45 70  1  0  0  0  0
 46 67  1  0  0  0  0
 47 65  1  0  0  0  0
 48 60  1  0  0  0  0
 49 61  1  0  0  0  0
 50 61  1  0  0  0  0
 51 61  1  0  0  0  0
 52 64  1  0  0  0  0
 53 72  1  0  0  0  0
 54 55  1  0  0  0  0
 55 56  1  0  0  0  0
 56 57  1  0  0  0  0
 57 58  1  0  0  0  0
 58 79  1  0  0  0  0
 59 61  1  0  0  0  0
 59 71  1  0  0  0  0
 60 72  1  0  0  0  0
 62 65  1  0  0  0  0
 63 64  1  0  0  0  0
M  CHG  1  72   1
M  ISO  4  28 100  32 100  58 101  79 101
M  END
> <Batch ID>
0041

> <Smiles>
CNC(C)C(=O)NC(C(=O)N1Cc2cc([101O:1][101CH2:1]CCCCc3c[100c:0]([100C:0](=O)N4CCCC(n5nc(-c6ccc(Oc7ccc(F)cc7F)cc6)c(C(N)=O)c5N)C4)n(C)n3)ccc2CC1C(=O)NC1CCCc2ccccc21)C(C)(C)C

> <Shape>
0.210

> <Color>
0.095

> <Negative vol penalty>
0.000

$$$$
