
  -OEChem-04052317123D

 87 95  0     1  0  0  0  0  0999 V2000
  -16.8782  -26.6391   23.8702 C   0  0  0  0  0  0  0  0  0  0  0  0
  -18.1051  -26.5485   23.2208 C   0  0  0  0  0  0  0  0  0  0  0  0
  -24.8668   -8.3340   20.7802 C   0  0  0  0  0  0  0  0  0  0  0  0
  -23.1620   -9.9787   20.3053 C   0  0  0  0  0  0  0  0  0  0  0  0
  -16.3416  -27.8899   24.1728 C   0  0  0  0  0  0  0  0  0  0  0  0
  -18.7958  -27.7087   22.8726 C   0  0  0  0  0  0  0  0  0  0  0  0
  -23.7291  -27.4403   23.9840 C   0  0  0  0  0  0  0  0  0  0  0  0
  -23.8797   -7.4096   21.1222 C   0  0  0  0  0  0  0  0  0  0  0  0
  -22.1749   -9.0544   20.6472 C   0  0  0  0  0  0  0  0  0  0  0  0
  -24.5382  -26.7072   23.1170 C   0  0  0  0  0  0  0  0  0  0  0  0
  -21.7188   -5.3642   19.5161 C   0  0  0  0  0  0  0  0  0  0  0  0
  -21.8432   -4.0681   19.0159 C   0  0  0  0  0  0  0  0  0  0  0  0
  -25.2635  -28.7562   22.0708 C   0  0  0  0  0  0  0  0  0  0  0  0
  -27.2360  -26.1524   18.1946 C   0  0  0  0  0  0  0  0  0  0  0  0
  -21.9194   -3.2050   21.2712 C   0  0  0  0  0  0  0  0  0  0  0  0
  -28.7597  -25.7976   19.9860 C   0  0  0  0  0  0  0  0  0  0  0  0
  -24.5079   -9.6186   20.3718 C   0  0  0  0  0  0  0  0  0  0  0  0
  -26.0877  -10.7877   18.7455 C   0  0  0  0  0  0  0  0  0  0  0  0
  -17.0306  -29.0659   23.8368 C   0  0  0  0  0  0  0  0  0  0  0  0
  -23.6728  -28.8386   23.8936 C   0  0  0  0  0  0  0  0  0  0  0  0
  -18.2673  -28.9764   23.1698 C   0  0  0  0  0  0  0  0  0  0  0  0
  -24.4549  -29.5050   22.9396 C   0  0  0  0  0  0  0  0  0  0  0  0
  -27.6281  -26.4316   19.4991 C   0  0  0  0  0  0  0  0  0  0  0  0
  -27.9772  -25.2603   17.4278 C   0  0  0  0  0  0  0  0  0  0  0  0
  -22.5338   -7.7698   21.0556 C   0  0  0  0  0  0  0  0  0  0  0  0
  -25.3033  -27.3649   22.1583 C   0  0  0  0  0  0  0  0  0  0  0  0
  -21.6947   -5.5807   20.8939 C   0  0  0  0  0  0  0  0  0  0  0  0
  -21.9435   -2.9885   19.8934 C   0  0  0  0  0  0  0  0  0  0  0  0
  -21.7950   -4.5011   21.7714 C   0  0  0  0  0  0  0  0  0  0  0  0
  -25.5271  -10.5740   20.0190 C   0  0  0  0  0  0  0  0  0  0  0  0
  -29.0934  -24.6788   18.0073 C   0  0  0  0  0  0  0  0  0  0  0  0
  -27.0033  -11.7934   18.9377 C   0  0  0  0  0  0  0  0  0  0  0  0
  -25.8061  -10.1355   17.5001 C   0  0  0  0  0  0  0  0  0  0  0  0
  -21.3861  -30.9555   23.2662 C   0  0  0  0  0  0  0  0  0  0  0  0
  -23.7040  -33.0979   24.0143 C   0  0  0  0  0  0  0  0  0  0  0  0
  -27.0360  -33.7913   24.2675 C   0  0  0  0  0  0  0  0  0  0  0  0
  -28.5170  -16.5515   20.9451 C   0  0  0  0  0  0  0  0  0  0  0  0
  -16.3884  -30.3959   24.1422 C   0  0  0  0  0  0  0  0  0  0  0  0
  -22.8155  -29.6167   24.8538 C   0  0  0  0  0  0  0  0  0  0  0  0
  -24.4456  -31.0059   22.8148 C   0  0  0  0  0  0  0  0  0  0  0  0
  -17.3600  -31.5714   24.0740 C   0  0  0  0  0  0  0  0  0  0  0  0
  -28.8275  -13.8347   23.1799 C   0  0  0  0  0  0  0  0  0  0  0  0
  -18.2098  -31.4890   22.8099 C   0  0  0  0  0  0  0  0  0  0  0  0
  -28.0290  -12.7529   22.4540 C   0  0  0  0  0  0  0  0  0  0  0  0
  -28.1648  -15.2092   23.0701 C   0  0  0  0  0  0  0  0  0  0  0  0
  -27.0725  -14.5401   20.9531 C   0  0  0  0  0  0  0  0  0  0  0  0
  -19.0584  -30.2118   22.7980 C   0  0  1  0  0  0  0  0  0  0  0  0
  -22.4421  -31.0016   24.3342 C   0  0  1  0  0  0  0  0  0  0  0  0
  -27.7479  -13.1608   20.9974 C   0  0  2  0  0  0  0  0  0  0  0  0
  -28.4231  -25.6768   14.9958 C   0  0  0  0  0  0  0  0  0  0  0  0
  -28.6233  -35.6393   24.8695 C   0  0  0  0  0  0  0  0  0  0  0  0
  -23.1545  -34.4410   21.3303 C   0  0  0  0  0  0  0  0  0  0  0  0
  -25.3406  -35.6392   21.5611 C   0  0  0  0  0  0  0  0  0  0  0  0
  -23.5278  -36.0227   23.2312 C   0  0  0  0  0  0  0  0  0  0  0  0
  -28.3426  -18.1636   22.8882 C   0  0  0  0  0  0  0  0  0  0  0  0
  -28.1973  -32.2254   26.4942 C   0  0  0  0  0  0  0  0  0  0  0  0
  -27.5617  -24.9553   16.0300 C   0  0  0  0  0  0  0  0  0  0  0  0
  -26.8507  -27.3901   20.3526 C   0  0  0  0  0  0  0  0  0  1  0  0
  -29.9280  -23.7135   17.2306 C   0  0  0  0  0  0  0  0  0  0  0  0
  -30.5959  -22.6227   18.0857 C   0  0  0  0  0  0  0  0  0  0  0  0
  -29.5820  -21.7131   18.7870 C   0  0  0  0  0  0  0  0  0  0  0  0
  -30.2847  -20.6268   19.6051 C   0  0  0  0  0  0  0  0  0  0  0  0
  -29.2711  -19.6938   20.2743 C   0  0  0  0  0  0  0  0  0  0  0  0
  -29.9387  -18.5630   21.0499 C   0  0  0  0  0  0  0  0  0  0  0  0
  -24.7777  -33.8250   23.2412 C   0  0  1  0  0  0  0  0  0  0  0  0
  -27.8500  -34.4322   25.3770 C   0  0  2  0  0  0  0  0  0  0  0  0
  -24.1991  -34.9535   22.3418 C   0  0  0  0  0  0  0  0  0  0  0  0
  -29.5052  -24.9253   19.2712 N   0  0  0  0  0  0  0  0  0  0  0  0
  -26.0434  -11.3791   20.9513 N   0  0  0  0  0  0  0  0  0  0  0  0
  -26.9381  -12.1084   20.2631 N   0  0  0  0  0  0  0  0  0  0  0  0
  -23.5865  -31.7219   23.7723 N   0  0  0  0  0  0  0  0  0  0  0  0
  -27.8709  -15.5383   21.6687 N   0  0  0  0  0  0  0  0  0  0  0  0
  -27.8497  -12.4300   18.1006 N   0  0  0  0  0  0  0  0  0  0  0  0
  -24.8365   -9.1237   17.4801 N   0  0  0  0  0  0  0  0  0  0  0  0
  -20.2059  -30.3593   23.6674 N   0  0  0  0  0  0  0  0  0  0  0  0
  -25.7495  -34.2857   24.2270 N   0  0  0  0  0  0  0  0  0  0  0  0
  -28.9714  -17.6658   21.6662 N   0  0  0  0  0  0  0  0  0  0  0  0
  -28.8230  -33.4526   25.9378 N   0  3  0  0  0  0  0  0  0  0  0  0
  -26.4084  -10.4297   16.4398 O   0  0  0  0  0  0  0  0  0  0  0  0
  -21.6240  -31.4274   22.1606 O   0  0  0  0  0  0  0  0  0  0  0  0
  -23.0005  -33.7264   24.8091 O   0  0  0  0  0  0  0  0  0  0  0  0
  -27.4965  -32.9401   23.5100 O   0  0  0  0  0  0  0  0  0  0  0  0
  -28.6728  -16.4700   19.7199 O   0  0  0  0  0  0  0  0  0  0  0  0
  -21.5704   -6.8680   21.3890 O   0  0  0  0  0  0  0  0  0  0  0  0
  -26.0933  -26.6517   21.3104 O   0  0  0  0  0  0  0  0  0  1  0  0
  -22.0613   -1.7438   19.4129 F   0  0  0  0  0  0  0  0  0  0  0  0
  -21.7713   -4.7028   23.0961 F   0  0  0  0  0  0  0  0  0  0  0  0
  1  2  1  0  0  0  0
  1  5  2  0  0  0  0
  2  6  2  0  0  0  0
  3  8  2  0  0  0  0
  3 17  1  0  0  0  0
  4  9  1  0  0  0  0
  4 17  2  0  0  0  0
  5 19  1  0  0  0  0
  6 21  1  0  0  0  0
  7 10  2  0  0  0  0
  7 20  1  0  0  0  0
  8 25  1  0  0  0  0
  9 25  2  0  0  0  0
 10 26  1  0  0  0  0
 11 12  2  0  0  0  0
 11 27  1  0  0  0  0
 12 28  1  0  0  0  0
 13 22  1  0  0  0  0
 13 26  2  0  0  0  0
 14 23  2  0  0  0  0
 14 24  1  0  0  0  0
 15 28  2  0  0  0  0
 15 29  1  0  0  0  0
 16 23  1  0  0  0  0
 16 68  2  0  0  0  0
 17 30  1  0  0  0  0
 18 30  1  0  0  0  0
 18 32  2  0  0  0  0
 18 33  1  0  0  0  0
 19 21  2  0  0  0  0
 19 38  1  0  0  0  0
 20 22  2  0  0  0  0
 20 39  1  0  0  0  0
 21 47  1  0  0  0  0
 22 40  1  0  0  0  0
 23 58  1  0  0  0  0
 24 31  2  0  0  0  0
 24 57  1  0  0  0  0
 25 84  1  0  0  0  0
 26 85  1  0  0  0  0
 27 29  2  0  0  0  0
 27 84  1  0  0  0  0
 28 86  1  0  0  0  0
 29 87  1  0  0  0  0
 30 69  2  0  0  0  0
 31 59  1  0  0  0  0
 31 68  1  0  0  0  0
 32 70  1  0  0  0  0
 32 73  1  0  0  0  0
 33 74  1  0  0  0  0
 33 79  2  0  0  0  0
 34 48  1  0  0  0  0
 34 75  1  0  0  0  0
 34 80  2  0  0  0  0
 35 65  1  0  0  0  0
 35 71  1  0  0  0  0
 35 81  2  0  0  0  0
 36 66  1  0  0  0  0
 36 76  1  0  0  0  0
 36 82  2  0  0  0  0
 37 72  1  0  0  0  0
 37 77  1  0  0  0  0
 37 83  2  0  0  0  0
 38 41  1  0  0  0  0
 39 48  1  0  0  0  0
 40 71  1  0  0  0  0
 41 43  1  0  0  0  0
 42 44  1  0  0  0  0
 42 45  1  0  0  0  0
 43 47  1  0  0  0  0
 44 49  1  0  0  0  0
 45 72  1  0  0  0  0
 46 49  1  0  0  0  0
 46 72  1  0  0  0  0
 47 75  1  0  0  0  0
 48 71  1  0  0  0  0
 49 70  1  0  0  0  0
 50 57  1  0  0  0  0
 51 66  1  0  0  0  0
 52 67  1  0  0  0  0
 53 67  1  0  0  0  0
 54 67  1  0  0  0  0
 55 77  1  0  0  0  0
 56 78  1  0  0  0  0
 58 85  1  0  0  0  0
 59 60  1  0  0  0  0
 60 61  1  0  0  0  0
 61 62  1  0  0  0  0
 62 63  1  0  0  0  0
 63 64  1  0  0  0  0
 64 77  1  0  0  0  0
 65 67  1  0  0  0  0
 65 76  1  0  0  0  0
 66 78  1  0  0  0  0
 69 70  1  0  0  0  0
M  CHG  1  78   1
M  ISO  4  37 100  58 101  77 100  85 101
M  END
> <Batch ID>
0042

> <Smiles>
CCc1cc([101CH2:1][101O:1]c2ccc3c(c2)CN(C(=O)C(NC(=O)C(C)NC)C(C)(C)C)C(C(=O)NC2CCCc4ccccc42)C3)cnc1CCCCCC[100N:0](C)[100C:0](=O)N1CCCC(n2nc(-c3ccc(Oc4ccc(F)cc4F)cc3)c(C(N)=O)c2N)C1

> <Shape>
0.292

> <Color>
0.076

> <Negative vol penalty>
0.000

$$$$

  -OEChem-04052317123D

 89 97  0     1  0  0  0  0  0999 V2000
  -32.6848  -29.0426   24.1107 C   0  0  0  0  0  0  0  0  0  0  0  0
  -32.2476  -28.5285   22.8942 C   0  0  0  0  0  0  0  0  0  0  0  0
  -27.8270  -17.8335   21.4517 C   0  0  0  0  0  0  0  0  0  0  0  0
  -28.1839  -17.4263   19.0971 C   0  0  0  0  0  0  0  0  0  0  0  0
  -31.8639  -28.9637   25.2349 C   0  0  0  0  0  0  0  0  0  0  0  0
  -30.9895  -27.9344   22.8014 C   0  0  0  0  0  0  0  0  0  0  0  0
  -27.1880  -28.0933   18.0025 C   0  0  0  0  0  0  0  0  0  0  0  0
  -26.7614  -16.9334   21.4458 C   0  0  0  0  0  0  0  0  0  0  0  0
  -27.1183  -16.5262   19.0912 C   0  0  0  0  0  0  0  0  0  0  0  0
  -26.9321  -27.1829   16.9780 C   0  0  0  0  0  0  0  0  0  0  0  0
  -24.1764  -14.4715   22.1325 C   0  0  0  0  0  0  0  0  0  0  0  0
  -24.0997  -13.5505   23.1773 C   0  0  0  0  0  0  0  0  0  0  0  0
  -25.0438  -26.3315   18.2145 C   0  0  0  0  0  0  0  0  0  0  0  0
  -26.2552  -12.6582   22.5490 C   0  0  0  0  0  0  0  0  0  0  0  0
  -28.5382  -18.0800   20.2773 C   0  0  0  0  0  0  0  0  0  0  0  0
  -30.9931  -18.7230   20.5373 C   0  0  0  0  0  0  0  0  0  0  0  0
  -30.5912  -28.3770   25.1536 C   0  0  0  0  0  0  0  0  0  0  0  0
  -26.3789  -28.1223   19.1475 C   0  0  0  0  0  0  0  0  0  0  0  0
  -30.1513  -27.8464   23.9258 C   0  0  0  0  0  0  0  0  0  0  0  0
  -25.2900  -27.2449   19.2509 C   0  0  0  0  0  0  0  0  0  0  0  0
  -26.4071  -16.2798   20.2656 C   0  0  0  0  0  0  0  0  0  0  0  0
  -25.8616  -26.2999   17.0852 C   0  0  0  0  0  0  0  0  0  0  0  0
  -25.2925  -14.4858   21.2959 C   0  0  0  0  0  0  0  0  0  0  0  0
  -25.1391  -12.6439   23.3856 C   0  0  0  0  0  0  0  0  0  0  0  0
  -26.3319  -13.5792   21.5042 C   0  0  0  0  0  0  0  0  0  0  0  0
  -29.6387  -19.0101   20.2826 C   0  0  0  0  0  0  0  0  0  0  0  0
  -26.4148  -21.1757   14.6164 C   0  0  0  0  0  0  0  0  0  0  0  0
  -25.6993  -20.9176   15.7514 C   0  0  0  0  0  0  0  0  0  0  0  0
  -31.6284  -19.9354   20.4231 C   0  0  0  0  0  0  0  0  0  0  0  0
  -24.9530  -22.8154   14.8901 C   0  0  0  0  0  0  0  0  0  0  0  0
  -31.6209  -17.4723   20.8491 C   0  0  0  0  0  0  0  0  0  0  0  0
  -26.8649  -27.6333   22.2505 C   0  0  0  0  0  0  0  0  0  0  0  0
  -23.7806  -28.6092   22.4896 C   0  0  0  0  0  0  0  0  0  0  0  0
  -20.7373  -28.9880   20.9923 C   0  0  0  0  0  0  0  0  0  0  0  0
  -30.3103  -24.9658   17.4551 C   0  0  0  0  0  0  0  0  0  0  0  0
  -29.7586  -28.2723   26.4068 C   0  0  0  0  0  0  0  0  0  0  0  0
  -26.6521  -29.1284   20.2317 C   0  0  0  0  0  0  0  0  0  0  0  0
  -24.3791  -27.2494   20.4504 C   0  0  0  0  0  0  0  0  0  0  0  0
  -28.2883  -27.9631   26.1372 C   0  0  0  0  0  0  0  0  0  0  0  0
  -30.8640  -24.6282   20.9560 C   0  0  0  0  0  0  0  0  0  0  0  0
  -28.1580  -26.8294   25.1251 C   0  0  0  0  0  0  0  0  0  0  0  0
  -30.7349  -23.1242   21.2033 C   0  0  0  0  0  0  0  0  0  0  0  0
  -29.8822  -25.1112   19.8906 C   0  0  0  0  0  0  0  0  0  0  0  0
  -29.8156  -22.8735   18.8601 C   0  0  0  0  0  0  0  0  0  0  0  0
  -28.7831  -27.2166   23.7794 C   0  0  1  0  0  0  0  0  0  0  0  0
  -26.0731  -28.7223   21.5834 C   0  0  1  0  0  0  0  0  0  0  0  0
  -30.8241  -22.3296   19.8865 C   0  0  2  0  0  0  0  0  0  0  0  0
  -27.0402  -19.6297   12.7442 C   0  0  0  0  0  0  0  0  0  0  0  0
  -22.6762  -17.6301   15.7280 C   0  0  0  0  0  0  0  0  0  0  0  0
  -18.4004  -29.7784   21.4522 C   0  0  0  0  0  0  0  0  0  0  0  0
  -23.2187  -26.0400   24.0366 C   0  0  0  0  0  0  0  0  0  0  0  0
  -20.7758  -26.4169   23.6384 C   0  0  0  0  0  0  0  0  0  0  0  0
  -22.0940  -28.0770   24.9534 C   0  0  0  0  0  0  0  0  0  0  0  0
  -20.9183  -31.0948   18.9217 C   0  0  0  0  0  0  0  0  0  0  0  0
  -27.5002  -20.4201   13.9773 C   0  0  0  0  0  0  0  0  0  0  0  0
  -25.7651  -19.8124   16.7127 C   0  0  0  0  0  0  0  0  0  0  0  0
  -24.1517  -24.0797   14.6955 C   0  0  0  0  0  0  0  0  0  0  0  0
  -23.9753  -18.3993   15.5483 C   0  0  0  0  0  0  0  0  0  0  0  0
  -24.4235  -19.0552   16.8544 C   0  0  0  0  0  0  0  0  0  0  0  0
  -28.5653  -23.8062   14.0063 C   0  0  0  0  0  0  0  0  0  0  0  0
  -27.3458  -24.1894   13.1612 C   0  0  0  0  0  0  0  0  0  0  0  0
  -29.4771  -25.0150   14.2407 C   0  0  0  0  0  0  0  0  0  0  0  0
  -26.4039  -23.0092   12.8976 C   0  0  0  0  0  0  0  0  0  0  0  0
  -30.7329  -24.6574   15.0291 C   0  0  0  0  0  0  0  0  0  0  0  0
  -24.2513  -25.0193   15.8923 C   0  0  0  0  0  0  0  0  0  1  0  0
  -22.4363  -27.9232   22.4531 C   0  0  1  0  0  0  0  0  0  0  0  0
  -19.7795  -30.1647   20.9408 C   0  0  2  0  0  0  0  0  0  0  0  0
  -22.1493  -27.1126   23.7485 C   0  0  0  0  0  0  0  0  0  0  0  0
  -29.4251  -20.3034   20.0260 N   0  0  0  0  0  0  0  0  0  0  0  0
  -25.9317  -22.3556   14.1039 N   0  0  0  0  0  0  0  0  0  0  0  0
  -30.6538  -20.8397   20.1191 N   0  0  0  0  0  0  0  0  0  0  0  0
  -24.8024  -21.9484   15.8966 N   0  3  0  0  0  0  0  0  0  0  0  0
  -24.6913  -28.2475   21.4867 N   0  0  0  0  0  0  0  0  0  0  0  0
  -30.0191  -24.3178   18.6668 N   0  0  0  0  0  0  0  0  0  0  0  0
  -32.9200  -20.3054   20.5541 N   0  0  0  0  0  0  0  0  0  0  0  0
  -30.8208  -16.3242   20.9271 N   0  0  0  0  0  0  0  0  0  0  0  0
  -27.8974  -28.0943   23.0447 N   0  0  0  0  0  0  0  0  0  0  0  0
  -21.4543  -28.9643   22.1698 N   0  0  0  0  0  0  0  0  0  0  0  0
  -30.4296  -24.1392   16.3445 N   0  0  0  0  0  0  0  0  0  0  0  0
  -19.6406  -30.6586   19.5416 N   0  3  0  0  0  0  0  0  0  0  0  0
  -32.8523  -17.3784   21.0688 O   0  0  0  0  0  0  0  0  0  0  0  0
  -26.5605  -26.4616   22.0599 O   0  0  0  0  0  0  0  0  0  0  0  0
  -24.0115  -29.4408   23.3709 O   0  0  0  0  0  0  0  0  0  0  0  0
  -20.8366  -28.1695   20.0808 O   0  0  0  0  0  0  0  0  0  0  0  0
  -30.4587  -26.1896   17.3702 O   0  0  0  0  0  0  0  0  0  0  0  0
  -25.3675  -15.4012   20.2596 O   0  0  0  0  0  0  0  0  0  0  0  0
  -25.6100  -25.4098   16.0870 O   0  0  0  0  0  0  0  0  0  1  0  0
  -25.0660  -11.7606   24.3898 F   0  0  0  0  0  0  0  0  0  0  0  0
  -27.4072  -13.5889   20.7045 F   0  0  0  0  0  0  0  0  0  0  0  0
  1  2  1  0  0  0  0
  1  5  2  0  0  0  0
  2  6  2  0  0  0  0
  3  8  2  0  0  0  0
  3 15  1  0  0  0  0
  4  9  1  0  0  0  0
  4 15  2  0  0  0  0
  5 17  1  0  0  0  0
  6 19  1  0  0  0  0
  7 10  2  0  0  0  0
  7 18  1  0  0  0  0
  8 21  1  0  0  0  0
  9 21  2  0  0  0  0
 10 22  1  0  0  0  0
 11 12  2  0  0  0  0
 11 23  1  0  0  0  0
 12 24  1  0  0  0  0
 13 20  1  0  0  0  0
 13 22  2  0  0  0  0
 14 24  2  0  0  0  0
 14 25  1  0  0  0  0
 15 26  1  0  0  0  0
 16 26  1  0  0  0  0
 16 29  2  0  0  0  0
 16 31  1  0  0  0  0
 17 19  2  0  0  0  0
 17 36  1  0  0  0  0
 18 20  2  0  0  0  0
 18 37  1  0  0  0  0
 19 45  1  0  0  0  0
 20 38  1  0  0  0  0
 21 86  1  0  0  0  0
 22 87  1  0  0  0  0
 23 25  2  0  0  0  0
 23 86  1  0  0  0  0
 24 88  1  0  0  0  0
 25 89  1  0  0  0  0
 26 69  2  0  0  0  0
 27 28  2  0  0  0  0
 27 55  1  0  0  0  0
 27 70  1  0  0  0  0
 28 56  1  0  0  0  0
 28 72  1  0  0  0  0
 29 71  1  0  0  0  0
 29 75  1  0  0  0  0
 30 57  1  0  0  0  0
 30 70  1  0  0  0  0
 30 72  2  0  0  0  0
 31 76  1  0  0  0  0
 31 81  2  0  0  0  0
 32 46  1  0  0  0  0
 32 77  1  0  0  0  0
 32 82  2  0  0  0  0
 33 66  1  0  0  0  0
 33 73  1  0  0  0  0
 33 83  2  0  0  0  0
 34 67  1  0  0  0  0
 34 78  1  0  0  0  0
 34 84  2  0  0  0  0
 35 74  1  0  0  0  0
 35 79  1  0  0  0  0
 35 85  2  0  0  0  0
 36 39  1  0  0  0  0
 37 46  1  0  0  0  0
 38 73  1  0  0  0  0
 39 41  1  0  0  0  0
 40 42  1  0  0  0  0
 40 43  1  0  0  0  0
 41 45  1  0  0  0  0
 42 47  1  0  0  0  0
 43 74  1  0  0  0  0
 44 47  1  0  0  0  0
 44 74  1  0  0  0  0
 45 77  1  0  0  0  0
 46 73  1  0  0  0  0
 47 71  1  0  0  0  0
 48 55  1  0  0  0  0
 49 58  1  0  0  0  0
 50 67  1  0  0  0  0
 51 68  1  0  0  0  0
 52 68  1  0  0  0  0
 53 68  1  0  0  0  0
 54 80  1  0  0  0  0
 56 59  1  0  0  0  0
 57 65  1  0  0  0  0
 58 59  1  0  0  0  0
 60 61  1  0  0  0  0
 60 62  1  0  0  0  0
 61 63  1  0  0  0  0
 62 64  1  0  0  0  0
 63 70  1  0  0  0  0
 64 79  1  0  0  0  0
 65 87  1  0  0  0  0
 66 68  1  0  0  0  0
 66 78  1  0  0  0  0
 67 80  1  0  0  0  0
 69 71  1  0  0  0  0
M  CHG  2  72   1  80   1
M  ISO  4  35 100  65 101  79 100  87 101
M  END
> <Batch ID>
0042

> <Smiles>
CCCCc1nc(C[101CH2:1][101O:1]c2ccc3c(c2)CN(C(=O)C(NC(=O)C(C)NC)C(C)(C)C)C(C(=O)NC2CCCc4ccccc42)C3)n(CCCCC[100NH:0][100C:0](=O)N2CCCC(n3nc(-c4ccc(Oc5ccc(F)cc5F)cc4)c(C(N)=O)c3N)C2)c1CC

> <Shape>
0.168

> <Color>
0.074

> <Negative vol penalty>
0.000

$$$$

  -OEChem-04052317123D

 85 93  0     1  0  0  0  0  0999 V2000
  -27.9943  -34.3665   24.1871 C   0  0  0  0  0  0  0  0  0  0  0  0
  -28.5798  -33.6439   23.1524 C   0  0  0  0  0  0  0  0  0  0  0  0
  -26.8222  -13.0357   21.0392 C   0  0  0  0  0  0  0  0  0  0  0  0
  -26.6747  -13.3272   18.6454 C   0  0  0  0  0  0  0  0  0  0  0  0
  -27.3657  -33.6959   25.2355 C   0  0  0  0  0  0  0  0  0  0  0  0
  -28.5380  -32.2502   23.1662 C   0  0  0  0  0  0  0  0  0  0  0  0
  -28.1544  -26.6324   18.7379 C   0  0  0  0  0  0  0  0  0  0  0  0
  -26.2232  -11.7814   20.9234 C   0  0  0  0  0  0  0  0  0  0  0  0
  -26.0757  -12.0728   18.5295 C   0  0  0  0  0  0  0  0  0  0  0  0
  -28.8057  -25.4306   18.4638 C   0  0  0  0  0  0  0  0  0  0  0  0
  -23.1071  -10.5380   20.5132 C   0  0  0  0  0  0  0  0  0  0  0  0
  -22.0945  -10.2182   21.4176 C   0  0  0  0  0  0  0  0  0  0  0  0
  -27.6234  -24.3813   20.2860 C   0  0  0  0  0  0  0  0  0  0  0  0
  -23.3898   -8.3356   22.2020 C   0  0  0  0  0  0  0  0  0  0  0  0
  -30.7485  -20.4731   13.4327 C   0  0  0  0  0  0  0  0  0  0  0  0
  -27.0479  -13.8087   19.9002 C   0  0  0  0  0  0  0  0  0  0  0  0
  -29.0421  -15.3980   19.9700 C   0  0  0  0  0  0  0  0  0  0  0  0
  -27.3078  -32.2935   25.2572 C   0  0  0  0  0  0  0  0  0  0  0  0
  -27.2392  -26.7207   19.7967 C   0  0  0  0  0  0  0  0  0  0  0  0
  -27.9092  -31.5602   24.2166 C   0  0  0  0  0  0  0  0  0  0  0  0
  -26.9599  -25.5847   20.5698 C   0  0  0  0  0  0  0  0  0  0  0  0
  -30.0158  -21.0558   15.9494 C   0  0  0  0  0  0  0  0  0  0  0  0
  -25.8500  -11.2999   19.6686 C   0  0  0  0  0  0  0  0  0  0  0  0
  -28.5424  -24.3055   19.2397 C   0  0  0  0  0  0  0  0  0  0  0  0
  -24.2610   -9.7566   20.4531 C   0  0  0  0  0  0  0  0  0  0  0  0
  -22.2359   -9.1170   22.2621 C   0  0  0  0  0  0  0  0  0  0  0  0
  -24.4023   -8.6554   21.2975 C   0  0  0  0  0  0  0  0  0  0  0  0
  -27.6661  -15.1047   20.0192 C   0  0  0  0  0  0  0  0  0  0  0  0
  -31.2916  -20.6349   15.6341 C   0  0  0  0  0  0  0  0  0  0  0  0
  -29.1412  -21.1578   14.8869 C   0  0  0  0  0  0  0  0  0  0  0  0
  -29.1087  -16.7604   20.1310 C   0  0  0  0  0  0  0  0  0  0  0  0
  -30.1600  -14.5176   19.7944 C   0  0  0  0  0  0  0  0  0  0  0  0
  -27.0821  -28.3990   22.4916 C   0  0  0  0  0  0  0  0  0  0  0  0
  -24.1429  -27.0435   22.7064 C   0  0  0  0  0  0  0  0  0  0  0  0
  -22.0655  -24.4776   21.8417 C   0  0  0  0  0  0  0  0  0  0  0  0
  -25.2295  -21.1895   19.0419 C   0  0  0  0  0  0  0  0  0  0  0  0
  -26.6587  -31.6119   26.4357 C   0  0  0  0  0  0  0  0  0  0  0  0
  -26.5251  -28.0175   20.0626 C   0  0  0  0  0  0  0  0  0  0  0  0
  -25.9709  -25.6217   21.7051 C   0  0  0  0  0  0  0  0  0  0  0  0
  -26.3311  -30.1422   26.1847 C   0  0  0  0  0  0  0  0  0  0  0  0
  -26.7704  -20.4106   22.1557 C   0  0  0  0  0  0  0  0  0  0  0  0
  -27.5198  -29.4319   25.5450 C   0  0  0  0  0  0  0  0  0  0  0  0
  -27.2988  -18.9889   21.9568 C   0  0  0  0  0  0  0  0  0  0  0  0
  -25.4357  -20.6212   21.4442 C   0  0  0  0  0  0  0  0  0  0  0  0
  -25.9648  -18.8522   19.8119 C   0  0  0  0  0  0  0  0  0  0  0  0
  -27.8630  -30.0479   24.1833 C   0  0  1  0  0  0  0  0  0  0  0  0
  -25.9962  -28.1268   21.4894 C   0  0  1  0  0  0  0  0  0  0  0  0
  -27.3363  -18.6083   20.4645 C   0  0  2  0  0  0  0  0  0  0  0  0
  -33.7300  -20.3254   16.1293 C   0  0  0  0  0  0  0  0  0  0  0  0
  -19.7331  -23.6246   22.2015 C   0  0  0  0  0  0  0  0  0  0  0  0
  -24.9263  -26.0850   25.4952 C   0  0  0  0  0  0  0  0  0  0  0  0
  -23.0010  -24.4867   25.4108 C   0  0  0  0  0  0  0  0  0  0  0  0
  -22.5852  -26.9441   25.3068 C   0  0  0  0  0  0  0  0  0  0  0  0
  -21.4294  -24.6600   18.9571 C   0  0  0  0  0  0  0  0  0  0  0  0
  -29.6038  -21.3832   17.3641 C   0  0  0  0  0  0  0  0  0  0  0  0
  -32.3250  -20.4872   16.7020 C   0  0  0  0  0  0  0  0  0  0  0  0
  -27.7329  -21.6038   15.1067 C   0  0  0  0  0  0  0  0  0  0  0  0
  -26.7419  -20.4307   15.0757 C   0  0  0  0  0  0  0  0  0  0  0  0
  -25.2982  -20.9055   15.2654 C   0  0  0  0  0  0  0  0  0  0  0  0
  -25.0835  -21.6110   16.6005 C   0  0  0  0  0  0  0  0  0  0  0  0
  -29.5490  -22.8855   17.6191 C   0  0  0  0  0  0  0  0  0  1  0  0
  -23.5933  -25.7719   23.3063 C   0  0  1  0  0  0  0  0  0  0  0  0
  -20.6403  -24.4678   21.3191 C   0  0  2  0  0  0  0  0  0  0  0  0
  -23.5466  -25.8214   24.8597 C   0  0  0  0  0  0  0  0  0  0  0  0
  -31.6936  -20.3339   14.3818 N   0  0  0  0  0  0  0  0  0  0  0  0
  -29.4751  -20.8736   13.6110 N   0  0  0  0  0  0  0  0  0  0  0  0
  -26.9129  -16.1933   20.1977 N   0  0  0  0  0  0  0  0  0  0  0  0
  -27.8189  -17.1838   20.2620 N   0  0  0  0  0  0  0  0  0  0  0  0
  -25.3029  -26.9144   21.9296 N   0  0  0  0  0  0  0  0  0  0  0  0
  -25.5395  -20.2433   20.0327 N   0  0  0  0  0  0  0  0  0  0  0  0
  -30.1443  -17.6255   20.1718 N   0  0  0  0  0  0  0  0  0  0  0  0
  -29.9133  -13.1463   19.6434 N   0  0  0  0  0  0  0  0  0  0  0  0
  -26.9325  -29.5916   23.1732 N   0  0  0  0  0  0  0  0  0  0  0  0
  -22.2961  -25.5506   22.6763 N   0  0  0  0  0  0  0  0  0  0  0  0
  -25.3602  -20.7513   17.7298 N   0  0  0  0  0  0  0  0  0  0  0  0
  -20.5993  -23.9128   19.9366 N   0  3  0  0  0  0  0  0  0  0  0  0
  -31.3437  -14.9327   19.7885 O   0  0  0  0  0  0  0  0  0  0  0  0
  -27.9877  -27.5863   22.6369 O   0  0  0  0  0  0  0  0  0  0  0  0
  -23.5602  -28.1109   22.9132 O   0  0  0  0  0  0  0  0  0  0  0  0
  -22.8906  -23.6171   21.5426 O   0  0  0  0  0  0  0  0  0  0  0  0
  -24.8686  -22.3412   19.3069 O   0  0  0  0  0  0  0  0  0  0  0  0
  -25.2657  -10.0759   19.5551 O   0  0  0  0  0  0  0  0  0  0  0  0
  -29.1772  -23.1313   18.9747 O   0  0  0  0  0  0  0  0  0  1  0  0
  -21.2641   -8.8109   23.1316 F   0  0  0  0  0  0  0  0  0  0  0  0
  -25.5091   -7.9017   21.2452 F   0  0  0  0  0  0  0  0  0  0  0  0
  1  2  1  0  0  0  0
  1  5  2  0  0  0  0
  2  6  2  0  0  0  0
  3  8  2  0  0  0  0
  3 16  1  0  0  0  0
  4  9  1  0  0  0  0
  4 16  2  0  0  0  0
  5 18  1  0  0  0  0
  6 20  1  0  0  0  0
  7 10  2  0  0  0  0
  7 19  1  0  0  0  0
  8 23  1  0  0  0  0
  9 23  2  0  0  0  0
 10 24  1  0  0  0  0
 11 12  2  0  0  0  0
 11 25  1  0  0  0  0
 12 26  1  0  0  0  0
 13 21  1  0  0  0  0
 13 24  2  0  0  0  0
 14 26  2  0  0  0  0
 14 27  1  0  0  0  0
 15 65  2  0  0  0  0
 15 66  1  0  0  0  0
 16 28  1  0  0  0  0
 17 28  1  0  0  0  0
 17 31  2  0  0  0  0
 17 32  1  0  0  0  0
 18 20  2  0  0  0  0
 18 37  1  0  0  0  0
 19 21  2  0  0  0  0
 19 38  1  0  0  0  0
 20 46  1  0  0  0  0
 21 39  1  0  0  0  0
 22 29  2  0  0  0  0
 22 30  1  0  0  0  0
 22 55  1  0  0  0  0
 23 82  1  0  0  0  0
 24 83  1  0  0  0  0
 25 27  2  0  0  0  0
 25 82  1  0  0  0  0
 26 84  1  0  0  0  0
 27 85  1  0  0  0  0
 28 67  2  0  0  0  0
 29 56  1  0  0  0  0
 29 65  1  0  0  0  0
 30 57  1  0  0  0  0
 30 66  2  0  0  0  0
 31 68  1  0  0  0  0
 31 71  1  0  0  0  0
 32 72  1  0  0  0  0
 32 77  2  0  0  0  0
 33 47  1  0  0  0  0
 33 73  1  0  0  0  0
 33 78  2  0  0  0  0
 34 62  1  0  0  0  0
 34 69  1  0  0  0  0
 34 79  2  0  0  0  0
 35 63  1  0  0  0  0
 35 74  1  0  0  0  0
 35 80  2  0  0  0  0
 36 70  1  0  0  0  0
 36 75  1  0  0  0  0
 36 81  2  0  0  0  0
 37 40  1  0  0  0  0
 38 47  1  0  0  0  0
 39 69  1  0  0  0  0
 40 42  1  0  0  0  0
 41 43  1  0  0  0  0
 41 44  1  0  0  0  0
 42 46  1  0  0  0  0
 43 48  1  0  0  0  0
 44 70  1  0  0  0  0
 45 48  1  0  0  0  0
 45 70  1  0  0  0  0
 46 73  1  0  0  0  0
 47 69  1  0  0  0  0
 48 68  1  0  0  0  0
 49 56  1  0  0  0  0
 50 63  1  0  0  0  0
 51 64  1  0  0  0  0
 52 64  1  0  0  0  0
 53 64  1  0  0  0  0
 54 76  1  0  0  0  0
 55 61  1  0  0  0  0
 57 58  1  0  0  0  0
 58 59  1  0  0  0  0
 59 60  1  0  0  0  0
 60 75  1  0  0  0  0
 61 83  1  0  0  0  0
 62 64  1  0  0  0  0
 62 74  1  0  0  0  0
 63 76  1  0  0  0  0
 67 68  1  0  0  0  0
M  CHG  1  76   1
M  ISO  4  36 100  61 101  75 100  83 101
M  END
> <Batch ID>
0042

> <Smiles>
CCc1ncnc(CCCC[100NH:0][100C:0](=O)N2CCCC(n3nc(-c4ccc(Oc5ccc(F)cc5F)cc4)c(C(N)=O)c3N)C2)c1C[101CH2:1][101O:1]c1ccc2c(c1)CN(C(=O)C(NC(=O)C(C)NC)C(C)(C)C)C(C(=O)NC1CCCc3ccccc31)C2

> <Shape>
0.195

> <Color>
0.080

> <Negative vol penalty>
0.000

$$$$

  -OEChem-04052317123D

 85 93  0     1  0  0  0  0  0999 V2000
  -30.9574  -31.6416   16.7047 C   0  0  0  0  0  0  0  0  0  0  0  0
  -30.6701  -30.8898   17.8394 C   0  0  0  0  0  0  0  0  0  0  0  0
  -23.0710   -9.8724   19.9424 C   0  0  0  0  0  0  0  0  0  0  0  0
  -23.8347   -9.8777   22.2345 C   0  0  0  0  0  0  0  0  0  0  0  0
  -30.1337  -31.5517   15.5834 C   0  0  0  0  0  0  0  0  0  0  0  0
  -29.5582  -30.0485   17.8540 C   0  0  0  0  0  0  0  0  0  0  0  0
  -29.0709  -24.6398   20.6849 C   0  0  0  0  0  0  0  0  0  0  0  0
  -22.3268   -8.7196   20.1929 C   0  0  0  0  0  0  0  0  0  0  0  0
  -23.0904   -8.7249   22.4851 C   0  0  0  0  0  0  0  0  0  0  0  0
  -28.5075  -24.2667   21.9044 C   0  0  0  0  0  0  0  0  0  0  0  0
  -19.3805   -7.9241   21.6486 C   0  0  0  0  0  0  0  0  0  0  0  0
  -18.0728   -7.8790   21.1655 C   0  0  0  0  0  0  0  0  0  0  0  0
  -26.4708  -23.6504   20.7681 C   0  0  0  0  0  0  0  0  0  0  0  0
  -28.2201  -20.0521   22.5858 C   0  0  0  0  0  0  0  0  0  0  0  0
  -18.6291   -5.9363   19.8413 C   0  0  0  0  0  0  0  0  0  0  0  0
  -27.7045  -17.8828   22.8991 C   0  0  0  0  0  0  0  0  0  0  0  0
  -23.8250  -10.4515   20.9631 C   0  0  0  0  0  0  0  0  0  0  0  0
  -24.1682  -12.9765   20.8439 C   0  0  0  0  0  0  0  0  0  0  0  0
  -29.0166  -30.7015   15.5807 C   0  0  0  0  0  0  0  0  0  0  0  0
  -28.3334  -24.5310   19.4972 C   0  0  0  0  0  0  0  0  0  0  0  0
  -28.7180  -29.9481   16.7321 C   0  0  0  0  0  0  0  0  0  0  0  0
  -27.0280  -24.0203   19.5345 C   0  0  0  0  0  0  0  0  0  0  0  0
  -28.3440  -18.7501   22.0412 C   0  0  0  0  0  0  0  0  0  0  0  0
  -22.3365   -8.1459   21.4643 C   0  0  0  0  0  0  0  0  0  0  0  0
  -27.2063  -23.7747   21.9465 C   0  0  0  0  0  0  0  0  0  0  0  0
  -20.3126   -6.9754   21.2280 C   0  0  0  0  0  0  0  0  0  0  0  0
  -17.6970   -6.8850   20.2618 C   0  0  0  0  0  0  0  0  0  0  0  0
  -19.9368   -5.9814   20.3244 C   0  0  0  0  0  0  0  0  0  0  0  0
  -24.5944  -11.6420   20.7048 C   0  0  0  0  0  0  0  0  0  0  0  0
  -27.5088  -19.9407   23.7601 C   0  0  0  0  0  0  0  0  0  0  0  0
  -25.2602  -13.7255   20.4792 C   0  0  0  0  0  0  0  0  0  0  0  0
  -22.8987  -13.4929   21.2652 C   0  0  0  0  0  0  0  0  0  0  0  0
  -27.2979  -26.5851   17.3036 C   0  0  0  0  0  0  0  0  0  0  0  0
  -26.3763  -23.8803   15.7683 C   0  0  0  0  0  0  0  0  0  0  0  0
  -25.5050  -20.5870   15.9721 C   0  0  0  0  0  0  0  0  0  0  0  0
  -30.7449  -14.7410   20.6591 C   0  0  0  0  0  0  0  0  0  0  0  0
  -28.1286  -30.6735   14.3620 C   0  0  0  0  0  0  0  0  0  0  0  0
  -28.9649  -24.9125   18.1864 C   0  0  0  0  0  0  0  0  0  0  0  0
  -26.2013  -23.8648   18.2852 C   0  0  0  0  0  0  0  0  0  0  0  0
  -27.1831  -29.4756   14.3246 C   0  0  0  0  0  0  0  0  0  0  0  0
  -29.6019  -12.3585   18.2730 C   0  0  0  0  0  0  0  0  0  0  0  0
  -26.5045  -29.2888   15.6779 C   0  0  0  0  0  0  0  0  0  0  0  0
  -28.1650  -12.0654   18.7081 C   0  0  0  0  0  0  0  0  0  0  0  0
  -30.5211  -12.5781   19.4725 C   0  0  0  0  0  0  0  0  0  0  0  0
  -28.6221  -13.3096   20.8626 C   0  0  0  0  0  0  0  0  0  0  0  0
  -27.5350  -29.0054   16.7775 C   0  0  1  0  0  0  0  0  0  0  0  0
  -27.9418  -25.2423   17.1039 C   0  0  1  0  0  0  0  0  0  0  0  0
  -27.6459  -13.1362   19.6864 C   0  0  2  0  0  0  0  0  0  0  0  0
  -24.7663  -18.6533   14.5535 C   0  0  0  0  0  0  0  0  0  0  0  0
  -27.3056  -17.0933   25.8784 C   0  0  0  0  0  0  0  0  0  0  0  0
  -25.1454  -17.4229   24.6012 C   0  0  0  0  0  0  0  0  0  0  0  0
  -23.5804  -25.0881   15.5824 C   0  0  0  0  0  0  0  0  0  0  0  0
  -22.7055  -22.8046   15.0456 C   0  0  0  0  0  0  0  0  0  0  0  0
  -24.3437  -23.9016   13.5174 C   0  0  0  0  0  0  0  0  0  0  0  0
  -27.8830  -18.9871   16.7100 C   0  0  0  0  0  0  0  0  0  0  0  0
  -29.0307  -18.3886   20.7864 C   0  0  0  0  0  0  0  0  0  0  0  0
  -27.0899  -21.0054   24.7422 C   0  0  0  0  0  0  0  0  0  0  0  0
  -30.5328  -18.0457   20.9381 C   0  0  0  0  0  0  0  0  0  0  0  0
  -25.7232  -21.6221   24.4363 C   0  0  0  0  0  0  0  0  0  0  0  0
  -30.8142  -16.8908   21.8971 C   0  0  0  0  0  0  0  0  0  0  0  0
  -25.6808  -22.3671   23.1072 C   0  0  0  0  0  0  0  0  0  1  0  0
  -25.1292  -23.0297   15.7568 C   0  0  1  0  0  0  0  0  0  0  0  0
  -25.9520  -19.3755   15.1740 C   0  0  2  0  0  0  0  0  0  0  0  0
  -26.4592  -18.0638   25.0523 C   0  0  0  0  0  0  0  0  0  0  0  0
  -23.9543  -23.7106   14.9995 C   0  0  0  0  0  0  0  0  0  0  0  0
  -25.8585  -11.5456   20.2844 N   0  0  0  0  0  0  0  0  0  0  0  0
  -27.2009  -18.6175   23.9406 N   0  0  0  0  0  0  0  0  0  0  0  0
  -26.2360  -12.8290   20.1561 N   0  0  0  0  0  0  0  0  0  0  0  0
  -26.8608  -24.2574   17.0288 N   0  0  0  0  0  0  0  0  0  0  0  0
  -29.9727  -13.6065   20.3599 N   0  0  0  0  0  0  0  0  0  0  0  0
  -25.4714  -15.0568   20.4066 N   0  0  0  0  0  0  0  0  0  0  0  0
  -21.8868  -12.5842   21.6036 N   0  0  0  0  0  0  0  0  0  0  0  0
  -27.9804  -27.6301   16.7105 N   0  0  0  0  0  0  0  0  0  0  0  0
  -25.5227  -21.7358   15.2097 N   0  0  0  0  0  0  0  0  0  0  0  0
  -30.1477  -15.6697   21.5026 N   0  0  0  0  0  0  0  0  0  0  0  0
  -26.6794  -18.4162   16.0524 N   0  3  0  0  0  0  0  0  0  0  0  0
  -22.6634  -14.7236   21.3236 O   0  0  0  0  0  0  0  0  0  0  0  0
  -26.2581  -26.6669   17.9468 O   0  0  0  0  0  0  0  0  0  0  0  0
  -26.9052  -24.1926   14.6986 O   0  0  0  0  0  0  0  0  0  0  0  0
  -25.1698  -20.5202   17.1527 O   0  0  0  0  0  0  0  0  0  0  0  0
  -31.8802  -14.9160   20.2037 O   0  0  0  0  0  0  0  0  0  0  0  0
  -21.6103   -7.0211   21.7092 O   0  0  0  0  0  0  0  0  0  0  0  0
  -26.6538  -23.4105   23.1356 O   0  0  0  0  0  0  0  0  0  1  0  0
  -16.4408   -6.8409   19.7992 F   0  0  0  0  0  0  0  0  0  0  0  0
  -20.8275   -5.0666   19.9176 F   0  0  0  0  0  0  0  0  0  0  0  0
  1  2  1  0  0  0  0
  1  5  2  0  0  0  0
  2  6  2  0  0  0  0
  3  8  2  0  0  0  0
  3 17  1  0  0  0  0
  4  9  1  0  0  0  0
  4 17  2  0  0  0  0
  5 19  1  0  0  0  0
  6 21  1  0  0  0  0
  7 10  2  0  0  0  0
  7 20  1  0  0  0  0
  8 24  1  0  0  0  0
  9 24  2  0  0  0  0
 10 25  1  0  0  0  0
 11 12  2  0  0  0  0
 11 26  1  0  0  0  0
 12 27  1  0  0  0  0
 13 22  1  0  0  0  0
 13 25  2  0  0  0  0
 14 23  1  0  0  0  0
 14 30  2  0  0  0  0
 15 27  2  0  0  0  0
 15 28  1  0  0  0  0
 16 23  2  0  0  0  0
 16 67  1  0  0  0  0
 17 29  1  0  0  0  0
 18 29  1  0  0  0  0
 18 31  2  0  0  0  0
 18 32  1  0  0  0  0
 19 21  2  0  0  0  0
 19 37  1  0  0  0  0
 20 22  2  0  0  0  0
 20 38  1  0  0  0  0
 21 46  1  0  0  0  0
 22 39  1  0  0  0  0
 23 56  1  0  0  0  0
 24 82  1  0  0  0  0
 25 83  1  0  0  0  0
 26 28  2  0  0  0  0
 26 82  1  0  0  0  0
 27 84  1  0  0  0  0
 28 85  1  0  0  0  0
 29 66  2  0  0  0  0
 30 57  1  0  0  0  0
 30 67  1  0  0  0  0
 31 68  1  0  0  0  0
 31 71  1  0  0  0  0
 32 72  1  0  0  0  0
 32 77  2  0  0  0  0
 33 47  1  0  0  0  0
 33 73  1  0  0  0  0
 33 78  2  0  0  0  0
 34 62  1  0  0  0  0
 34 69  1  0  0  0  0
 34 79  2  0  0  0  0
 35 63  1  0  0  0  0
 35 74  1  0  0  0  0
 35 80  2  0  0  0  0
 36 70  1  0  0  0  0
 36 75  1  0  0  0  0
 36 81  2  0  0  0  0
 37 40  1  0  0  0  0
 38 47  1  0  0  0  0
 39 69  1  0  0  0  0
 40 42  1  0  0  0  0
 41 43  1  0  0  0  0
 41 44  1  0  0  0  0
 42 46  1  0  0  0  0
 43 48  1  0  0  0  0
 44 70  1  0  0  0  0
 45 48  1  0  0  0  0
 45 70  1  0  0  0  0
 46 73  1  0  0  0  0
 47 69  1  0  0  0  0
 48 68  1  0  0  0  0
 49 63  1  0  0  0  0
 50 64  1  0  0  0  0
 51 64  1  0  0  0  0
 52 65  1  0  0  0  0
 53 65  1  0  0  0  0
 54 65  1  0  0  0  0
 55 76  1  0  0  0  0
 56 58  1  0  0  0  0
 57 59  1  0  0  0  0
 58 60  1  0  0  0  0
 59 61  1  0  0  0  0
 60 75  1  0  0  0  0
 61 83  1  0  0  0  0
 62 65  1  0  0  0  0
 62 74  1  0  0  0  0
 63 76  1  0  0  0  0
 64 67  1  0  0  0  0
 66 68  1  0  0  0  0
M  CHG  1  76   1
M  ISO  4  36 100  61 101  75 100  83 101
M  END
> <Batch ID>
0042

> <Smiles>
CNC(C)C(=O)NC(C(=O)N1Cc2cc([101O:1][101CH2:1]CCc3cc(CCC[100NH:0][100C:0](=O)N4CCCC(n5nc(-c6ccc(Oc7ccc(F)cc7F)cc6)c(C(N)=O)c5N)C4)cn3C(C)C)ccc2CC1C(=O)NC1CCCc2ccccc21)C(C)(C)C

> <Shape>
0.178

> <Color>
0.196

> <Negative vol penalty>
0.000

$$$$

  -OEChem-04052317123D

 83 91  0     1  0  0  0  0  0999 V2000
  -16.7505  -21.7738   17.2403 C   0  0  0  0  0  0  0  0  0  0  0  0
  -17.7040  -22.3282   18.0881 C   0  0  0  0  0  0  0  0  0  0  0  0
  -23.9812  -28.5074   19.3752 C   0  0  0  0  0  0  0  0  0  0  0  0
  -24.1815  -27.9145   21.7087 C   0  0  0  0  0  0  0  0  0  0  0  0
  -16.5017  -20.4023   17.2749 C   0  0  0  0  0  0  0  0  0  0  0  0
  -18.4087  -21.5115   18.9718 C   0  0  0  0  0  0  0  0  0  0  0  0
  -24.2352  -22.1665   20.7404 C   0  0  0  0  0  0  0  0  0  0  0  0
  -22.6759  -28.9454   19.5984 C   0  0  0  0  0  0  0  0  0  0  0  0
  -22.8761  -28.3525   21.9320 C   0  0  0  0  0  0  0  0  0  0  0  0
  -24.8124  -22.7248   21.8801 C   0  0  0  0  0  0  0  0  0  0  0  0
  -19.4732  -28.9803   23.0437 C   0  0  0  0  0  0  0  0  0  0  0  0
  -18.6403  -28.1696   23.8147 C   0  0  0  0  0  0  0  0  0  0  0  0
  -24.9461  -20.5330   22.8787 C   0  0  0  0  0  0  0  0  0  0  0  0
  -30.2632  -22.5079   26.1785 C   0  0  0  0  0  0  0  0  0  0  0  0
  -28.2008  -23.4166   27.0183 C   0  0  0  0  0  0  0  0  0  0  0  0
  -18.9057  -26.3771   22.2167 C   0  0  0  0  0  0  0  0  0  0  0  0
  -24.7340  -27.9919   20.4303 C   0  0  0  0  0  0  0  0  0  0  0  0
  -27.2626  -28.3005   20.2927 C   0  0  0  0  0  0  0  0  0  0  0  0
  -17.2105  -19.5670   18.1527 C   0  0  0  0  0  0  0  0  0  0  0  0
  -23.9987  -20.7864   20.6655 C   0  0  0  0  0  0  0  0  0  0  0  0
  -18.1682  -20.1278   19.0191 C   0  0  0  0  0  0  0  0  0  0  0  0
  -24.3682  -19.9593   21.7359 C   0  0  0  0  0  0  0  0  0  0  0  0
  -29.4392  -22.8290   27.2515 C   0  0  0  0  0  0  0  0  0  0  0  0
  -22.1233  -28.8679   20.8768 C   0  0  0  0  0  0  0  0  0  0  0  0
  -25.1653  -21.9084   22.9506 C   0  0  0  0  0  0  0  0  0  0  0  0
  -20.0223  -28.4895   21.8591 C   0  0  0  0  0  0  0  0  0  0  0  0
  -18.3565  -26.8680   23.4013 C   0  0  0  0  0  0  0  0  0  0  0  0
  -19.7386  -27.1879   21.4456 C   0  0  0  0  0  0  0  0  0  0  0  0
  -26.0823  -27.5388   20.2002 C   0  0  0  0  0  0  0  0  0  0  0  0
  -29.8061  -22.7925   24.9019 C   0  0  0  0  0  0  0  0  0  0  0  0
  -27.8361  -23.6607   25.7041 C   0  0  0  0  0  0  0  0  0  0  0  0
  -28.2670  -27.4165   19.9828 C   0  0  0  0  0  0  0  0  0  0  0  0
  -27.4355  -29.6836   20.6288 C   0  0  0  0  0  0  0  0  0  0  0  0
  -21.4099  -18.9675   20.3599 C   0  0  0  0  0  0  0  0  0  0  0  0
  -23.5925  -16.5795   20.1224 C   0  0  0  0  0  0  0  0  0  0  0  0
  -26.7405  -15.4531   20.8064 C   0  0  0  0  0  0  0  0  0  0  0  0
  -28.7087  -21.4563   20.3459 C   0  0  0  0  0  0  0  0  0  0  0  0
  -16.8734  -18.0974   18.1873 C   0  0  0  0  0  0  0  0  0  0  0  0
  -23.3998  -20.1962   19.4184 C   0  0  0  0  0  0  0  0  0  0  0  0
  -24.1540  -18.4690   21.6971 C   0  0  0  0  0  0  0  0  0  0  0  0
  -17.9290  -17.2467   18.8889 C   0  0  0  0  0  0  0  0  0  0  0  0
  -29.1171  -23.4596   17.4311 C   0  0  0  0  0  0  0  0  0  0  0  0
  -18.3439  -17.8912   20.2077 C   0  0  0  0  0  0  0  0  0  0  0  0
  -28.4922  -24.8009   17.8186 C   0  0  0  0  0  0  0  0  0  0  0  0
  -28.3537  -22.2848   18.0385 C   0  0  0  0  0  0  0  0  0  0  0  0
  -27.5421  -23.6980   19.8873 C   0  0  0  0  0  0  0  0  0  0  0  0
  -18.9707  -19.2711   19.9742 C   0  0  1  0  0  0  0  0  0  0  0  0
  -22.7326  -18.8453   19.6574 C   0  0  1  0  0  0  0  0  0  0  0  0
  -28.3104  -24.9150   19.3441 C   0  0  2  0  0  0  0  0  0  0  0  0
  -29.8815  -22.5434   28.6466 C   0  0  0  0  0  0  0  0  0  0  0  0
  -28.2206  -13.4471   20.5195 C   0  0  0  0  0  0  0  0  0  0  0  0
  -22.0937  -15.1557   22.3666 C   0  0  0  0  0  0  0  0  0  0  0  0
  -24.0967  -13.6862   22.6776 C   0  0  0  0  0  0  0  0  0  0  0  0
  -22.8588  -13.6626   20.5120 C   0  0  0  0  0  0  0  0  0  0  0  0
  -28.7003  -16.9840   19.2018 C   0  0  0  0  0  0  0  0  0  0  0  0
  -30.6630  -22.4602   23.7263 C   0  0  0  0  0  0  0  0  0  0  0  0
  -26.4996  -24.2992   25.4139 C   0  0  0  0  0  0  0  0  0  0  0  0
  -30.4389  -21.0471   23.1535 C   0  0  0  0  0  0  0  0  0  0  0  0
  -29.0038  -20.7680   22.7120 C   0  0  0  0  0  0  0  0  0  0  0  0
  -25.9288  -23.8637   24.0686 C   0  0  0  0  0  0  0  0  0  1  0  0
  -24.2864  -15.6641   21.1019 C   0  0  1  0  0  0  0  0  0  0  0  0
  -27.7815  -14.7788   19.9311 C   0  0  2  0  0  0  0  0  0  0  0  0
  -23.3363  -14.5704   21.6663 C   0  0  0  0  0  0  0  0  0  0  0  0
  -26.3139  -26.2686   19.8581 N   0  0  0  0  0  0  0  0  0  0  0  0
  -28.6095  -23.3627   24.6360 N   0  0  0  0  0  0  0  0  0  0  0  0
  -27.6512  -26.2254   19.7329 N   0  0  0  0  0  0  0  0  0  0  0  0
  -23.5594  -17.9403   20.4584 N   0  0  0  0  0  0  0  0  0  0  0  0
  -28.2173  -22.4534   19.4873 N   0  0  0  0  0  0  0  0  0  0  0  0
  -29.6079  -27.5495   19.9023 N   0  0  0  0  0  0  0  0  0  0  0  0
  -26.2973  -30.4478   20.9199 N   0  0  0  0  0  0  0  0  0  0  0  0
  -20.3342  -19.1347   19.5088 N   0  0  0  0  0  0  0  0  0  0  0  0
  -25.4581  -15.1384   20.4096 N   0  0  0  0  0  0  0  0  0  0  0  0
  -28.5445  -21.6978   21.7044 N   0  0  0  0  0  0  0  0  0  0  0  0
  -28.9827  -15.6495   19.7905 N   0  3  0  0  0  0  0  0  0  0  0  0
  -28.5645  -30.2297   20.6538 O   0  0  0  0  0  0  0  0  0  0  0  0
  -21.3683  -18.9125   21.5834 O   0  0  0  0  0  0  0  0  0  0  0  0
  -23.1042  -16.1056   19.0935 O   0  0  0  0  0  0  0  0  0  0  0  0
  -27.0356  -16.1829   21.7503 O   0  0  0  0  0  0  0  0  0  0  0  0
  -29.2581  -20.4295   19.9327 O   0  0  0  0  0  0  0  0  0  0  0  0
  -20.8497  -29.2954   21.0951 O   0  0  0  0  0  0  0  0  0  0  0  0
  -25.7283  -22.4508   24.0645 O   0  0  0  0  0  0  0  0  0  1  0  0
  -17.5579  -26.0890   24.1426 F   0  0  0  0  0  0  0  0  0  0  0  0
  -20.2641  -26.7105   20.3091 F   0  0  0  0  0  0  0  0  0  0  0  0
  1  2  1  0  0  0  0
  1  5  2  0  0  0  0
  2  6  2  0  0  0  0
  3  8  2  0  0  0  0
  3 17  1  0  0  0  0
  4  9  1  0  0  0  0
  4 17  2  0  0  0  0
  5 19  1  0  0  0  0
  6 21  1  0  0  0  0
  7 10  2  0  0  0  0
  7 20  1  0  0  0  0
  8 24  1  0  0  0  0
  9 24  2  0  0  0  0
 10 25  1  0  0  0  0
 11 12  2  0  0  0  0
 11 26  1  0  0  0  0
 12 27  1  0  0  0  0
 13 22  1  0  0  0  0
 13 25  2  0  0  0  0
 14 23  1  0  0  0  0
 14 30  2  0  0  0  0
 15 23  2  0  0  0  0
 15 31  1  0  0  0  0
 16 27  2  0  0  0  0
 16 28  1  0  0  0  0
 17 29  1  0  0  0  0
 18 29  1  0  0  0  0
 18 32  2  0  0  0  0
 18 33  1  0  0  0  0
 19 21  2  0  0  0  0
 19 38  1  0  0  0  0
 20 22  2  0  0  0  0
 20 39  1  0  0  0  0
 21 47  1  0  0  0  0
 22 40  1  0  0  0  0
 23 50  1  0  0  0  0
 24 80  1  0  0  0  0
 25 81  1  0  0  0  0
 26 28  2  0  0  0  0
 26 80  1  0  0  0  0
 27 82  1  0  0  0  0
 28 83  1  0  0  0  0
 29 64  2  0  0  0  0
 30 56  1  0  0  0  0
 30 65  1  0  0  0  0
 31 57  1  0  0  0  0
 31 65  2  0  0  0  0
 32 66  1  0  0  0  0
 32 69  1  0  0  0  0
 33 70  1  0  0  0  0
 33 75  2  0  0  0  0
 34 48  1  0  0  0  0
 34 71  1  0  0  0  0
 34 76  2  0  0  0  0
 35 61  1  0  0  0  0
 35 67  1  0  0  0  0
 35 77  2  0  0  0  0
 36 62  1  0  0  0  0
 36 72  1  0  0  0  0
 36 78  2  0  0  0  0
 37 68  1  0  0  0  0
 37 73  1  0  0  0  0
 37 79  2  0  0  0  0
 38 41  1  0  0  0  0
 39 48  1  0  0  0  0
 40 67  1  0  0  0  0
 41 43  1  0  0  0  0
 42 44  1  0  0  0  0
 42 45  1  0  0  0  0
 43 47  1  0  0  0  0
 44 49  1  0  0  0  0
 45 68  1  0  0  0  0
 46 49  1  0  0  0  0
 46 68  1  0  0  0  0
 47 71  1  0  0  0  0
 48 67  1  0  0  0  0
 49 66  1  0  0  0  0
 51 62  1  0  0  0  0
 52 63  1  0  0  0  0
 53 63  1  0  0  0  0
 54 63  1  0  0  0  0
 55 74  1  0  0  0  0
 56 58  1  0  0  0  0
 57 60  1  0  0  0  0
 58 59  1  0  0  0  0
 59 73  1  0  0  0  0
 60 81  1  0  0  0  0
 61 63  1  0  0  0  0
 61 72  1  0  0  0  0
 62 74  1  0  0  0  0
 64 66  1  0  0  0  0
M  CHG  1  74   1
M  ISO  4  37 100  60 101  73 100  81 101
M  END
> <Batch ID>
0042

> <Smiles>
CNC(C)C(=O)NC(C(=O)N1Cc2cc([101O:1][101CH2:1]Cc3cc(C)cc(CCC[100NH:0][100C:0](=O)N4CCCC(n5nc(-c6ccc(Oc7ccc(F)cc7F)cc6)c(C(N)=O)c5N)C4)n3)ccc2CC1C(=O)NC1CCCc2ccccc21)C(C)(C)C

> <Shape>
0.188

> <Color>
0.062

> <Negative vol penalty>
0.000

$$$$

  -OEChem-04052317123D

 82 90  0     1  0  0  0  0  0999 V2000
  -25.4758  -34.4966   18.5787 C   0  0  0  0  0  0  0  0  0  0  0  0
  -25.4825  -33.1073   18.6509 C   0  0  0  0  0  0  0  0  0  0  0  0
  -23.0833   -9.8044   19.9925 C   0  0  0  0  0  0  0  0  0  0  0  0
  -23.8211   -9.8967   22.2913 C   0  0  0  0  0  0  0  0  0  0  0  0
  -26.6138  -35.1765   18.1465 C   0  0  0  0  0  0  0  0  0  0  0  0
  -26.6268  -32.3970   18.2898 C   0  0  0  0  0  0  0  0  0  0  0  0
  -28.6753  -27.1971   20.7939 C   0  0  0  0  0  0  0  0  0  0  0  0
  -22.3442   -8.6559   20.2758 C   0  0  0  0  0  0  0  0  0  0  0  0
  -23.0819   -8.7482   22.5746 C   0  0  0  0  0  0  0  0  0  0  0  0
  -28.5621  -25.8620   20.4083 C   0  0  0  0  0  0  0  0  0  0  0  0
  -19.8531   -7.9511   23.1745 C   0  0  0  0  0  0  0  0  0  0  0  0
  -19.0852   -7.9474   24.3389 C   0  0  0  0  0  0  0  0  0  0  0  0
  -30.7255  -25.9908   19.3489 C   0  0  0  0  0  0  0  0  0  0  0  0
  -28.6304  -20.8223   20.1071 C   0  0  0  0  0  0  0  0  0  0  0  0
  -20.3314   -6.0450   25.1545 C   0  0  0  0  0  0  0  0  0  0  0  0
  -28.5113  -19.2759   18.3040 C   0  0  0  0  0  0  0  0  0  0  0  0
  -23.8219  -10.4248   21.0002 C   0  0  0  0  0  0  0  0  0  0  0  0
  -24.1493  -12.9463   20.7948 C   0  0  0  0  0  0  0  0  0  0  0  0
  -27.7758  -34.4746   17.7891 C   0  0  0  0  0  0  0  0  0  0  0  0
  -29.8116  -27.9434   20.4499 C   0  0  0  0  0  0  0  0  0  0  0  0
  -27.7809  -33.0680   17.8511 C   0  0  0  0  0  0  0  0  0  0  0  0
  -30.8518  -27.3344   19.7336 C   0  0  0  0  0  0  0  0  0  0  0  0
  -28.7039  -19.5091   19.6562 C   0  0  0  0  0  0  0  0  0  0  0  0
  -28.3702  -21.8478   19.2048 C   0  0  0  0  0  0  0  0  0  0  0  0
  -22.3434   -8.1278   21.5669 C   0  0  0  0  0  0  0  0  0  0  0  0
  -29.5860  -25.2596   19.6832 C   0  0  0  0  0  0  0  0  0  0  0  0
  -20.8601   -7.0018   23.0000 C   0  0  0  0  0  0  0  0  0  0  0  0
  -19.3244   -6.9943   25.3290 C   0  0  0  0  0  0  0  0  0  0  0  0
  -21.0992   -6.0487   23.9900 C   0  0  0  0  0  0  0  0  0  0  0  0
  -24.5861  -11.6108   20.7081 C   0  0  0  0  0  0  0  0  0  0  0  0
  -28.1928  -21.5100   17.8728 C   0  0  0  0  0  0  0  0  0  0  0  0
  -25.2403  -13.6896   20.4157 C   0  0  0  0  0  0  0  0  0  0  0  0
  -22.8718  -13.4683   21.1835 C   0  0  0  0  0  0  0  0  0  0  0  0
  -30.3423  -30.5443   18.7013 C   0  0  0  0  0  0  0  0  0  0  0  0
  -33.3628  -30.2175   19.8379 C   0  0  0  0  0  0  0  0  0  0  0  0
  -35.7674  -28.1673   21.1268 C   0  0  0  0  0  0  0  0  0  0  0  0
  -30.7156  -14.7501   20.6195 C   0  0  0  0  0  0  0  0  0  0  0  0
  -28.9658  -35.2507   17.2828 C   0  0  0  0  0  0  0  0  0  0  0  0
  -29.9303  -29.3748   20.8965 C   0  0  0  0  0  0  0  0  0  0  0  0
  -32.1014  -28.0862   19.3568 C   0  0  0  0  0  0  0  0  0  0  0  0
  -30.2613  -34.4433   17.2756 C   0  0  0  0  0  0  0  0  0  0  0  0
  -29.6156  -12.2761   18.3074 C   0  0  0  0  0  0  0  0  0  0  0  0
  -30.0273  -33.0639   16.6680 C   0  0  0  0  0  0  0  0  0  0  0  0
  -28.1759  -11.9884   18.7369 C   0  0  0  0  0  0  0  0  0  0  0  0
  -30.5198  -12.5448   19.5083 C   0  0  0  0  0  0  0  0  0  0  0  0
  -28.6004  -13.3117   20.8505 C   0  0  0  0  0  0  0  0  0  0  0  0
  -29.0112  -32.2634   17.4916 C   0  0  1  0  0  0  0  0  0  0  0  0
  -30.9043  -30.1865   20.0481 C   0  0  1  0  0  0  0  0  0  0  0  0
  -27.6387  -13.0896   19.6707 C   0  0  2  0  0  0  0  0  0  0  0  0
  -27.9115  -22.5701   16.8586 C   0  0  0  0  0  0  0  0  0  0  0  0
  -38.1476  -28.1797   21.9219 C   0  0  0  0  0  0  0  0  0  0  0  0
  -34.3267  -30.2991   16.9440 C   0  0  0  0  0  0  0  0  0  0  0  0
  -36.5186  -29.3719   17.7211 C   0  0  0  0  0  0  0  0  0  0  0  0
  -35.7408  -31.5918   18.5514 C   0  0  0  0  0  0  0  0  0  0  0  0
  -34.9825  -27.3285   23.8542 C   0  0  0  0  0  0  0  0  0  0  0  0
  -28.9814  -18.3898   20.5954 C   0  0  0  0  0  0  0  0  0  0  0  0
  -28.2877  -23.2669   19.6850 C   0  0  0  0  0  0  0  0  0  1  0  0
  -30.4781  -18.0610   20.7782 C   0  0  0  0  0  0  0  0  0  0  0  0
  -30.7564  -16.9430   21.7807 C   0  0  0  0  0  0  0  0  0  0  0  0
  -34.6045  -29.4909   19.3804 C   0  0  1  0  0  0  0  0  0  0  0  0
  -36.6879  -28.3227   22.3239 C   0  0  2  0  0  0  0  0  0  0  0  0
  -35.2734  -30.1746   18.1545 C   0  0  0  0  0  0  0  0  0  0  0  0
  -28.2567  -20.2460   17.3975 N   0  0  0  0  0  0  0  0  0  0  0  0
  -25.8554  -11.5085   20.3053 N   0  0  0  0  0  0  0  0  0  0  0  0
  -26.2257  -12.7892   20.1355 N   0  0  0  0  0  0  0  0  0  0  0  0
  -32.1676  -29.4851   19.8109 N   0  0  0  0  0  0  0  0  0  0  0  0
  -29.9545  -13.6001   20.3525 N   0  0  0  0  0  0  0  0  0  0  0  0
  -25.4432  -15.0191   20.2980 N   0  0  0  0  0  0  0  0  0  0  0  0
  -21.8622  -12.5649   21.5430 N   0  0  0  0  0  0  0  0  0  0  0  0
  -29.6345  -31.7310   18.6842 N   0  0  0  0  0  0  0  0  0  0  0  0
  -35.4693  -29.3839   20.5504 N   0  0  0  0  0  0  0  0  0  0  0  0
  -30.1028  -15.7039   21.4228 N   0  0  0  0  0  0  0  0  0  0  0  0
  -36.3799  -27.2884   23.3517 N   0  3  0  0  0  0  0  0  0  0  0  0
  -22.6274  -14.6986   21.1954 O   0  0  0  0  0  0  0  0  0  0  0  0
  -30.5376  -29.7995   17.7480 O   0  0  0  0  0  0  0  0  0  0  0  0
  -33.4514  -31.3895   20.2123 O   0  0  0  0  0  0  0  0  0  0  0  0
  -35.3572  -27.0755   20.7392 O   0  0  0  0  0  0  0  0  0  0  0  0
  -31.8548  -14.9169   20.1707 O   0  0  0  0  0  0  0  0  0  0  0  0
  -21.6221   -7.0073   21.8437 O   0  0  0  0  0  0  0  0  0  0  0  0
  -29.4777  -23.9568   19.3050 O   0  0  0  0  0  0  0  0  0  1  0  0
  -18.5879   -6.9918   26.4478 F   0  0  0  0  0  0  0  0  0  0  0  0
  -22.0660   -5.1349   23.8286 F   0  0  0  0  0  0  0  0  0  0  0  0
  1  2  1  0  0  0  0
  1  5  2  0  0  0  0
  2  6  2  0  0  0  0
  3  8  2  0  0  0  0
  3 17  1  0  0  0  0
  4  9  1  0  0  0  0
  4 17  2  0  0  0  0
  5 19  1  0  0  0  0
  6 21  1  0  0  0  0
  7 10  2  0  0  0  0
  7 20  1  0  0  0  0
  8 25  1  0  0  0  0
  9 25  2  0  0  0  0
 10 26  1  0  0  0  0
 11 12  2  0  0  0  0
 11 27  1  0  0  0  0
 12 28  1  0  0  0  0
 13 22  1  0  0  0  0
 13 26  2  0  0  0  0
 14 23  2  0  0  0  0
 14 24  1  0  0  0  0
 15 28  2  0  0  0  0
 15 29  1  0  0  0  0
 16 23  1  0  0  0  0
 16 63  2  0  0  0  0
 17 30  1  0  0  0  0
 18 30  1  0  0  0  0
 18 32  2  0  0  0  0
 18 33  1  0  0  0  0
 19 21  2  0  0  0  0
 19 38  1  0  0  0  0
 20 22  2  0  0  0  0
 20 39  1  0  0  0  0
 21 47  1  0  0  0  0
 22 40  1  0  0  0  0
 23 56  1  0  0  0  0
 24 31  2  0  0  0  0
 24 57  1  0  0  0  0
 25 79  1  0  0  0  0
 26 80  1  0  0  0  0
 27 29  2  0  0  0  0
 27 79  1  0  0  0  0
 28 81  1  0  0  0  0
 29 82  1  0  0  0  0
 30 64  2  0  0  0  0
 31 50  1  0  0  0  0
 31 63  1  0  0  0  0
 32 65  1  0  0  0  0
 32 68  1  0  0  0  0
 33 69  1  0  0  0  0
 33 74  2  0  0  0  0
 34 48  1  0  0  0  0
 34 70  1  0  0  0  0
 34 75  2  0  0  0  0
 35 60  1  0  0  0  0
 35 66  1  0  0  0  0
 35 76  2  0  0  0  0
 36 61  1  0  0  0  0
 36 71  1  0  0  0  0
 36 77  2  0  0  0  0
 37 67  1  0  0  0  0
 37 72  1  0  0  0  0
 37 78  2  0  0  0  0
 38 41  1  0  0  0  0
 39 48  1  0  0  0  0
 40 66  1  0  0  0  0
 41 43  1  0  0  0  0
 42 44  1  0  0  0  0
 42 45  1  0  0  0  0
 43 47  1  0  0  0  0
 44 49  1  0  0  0  0
 45 67  1  0  0  0  0
 46 49  1  0  0  0  0
 46 67  1  0  0  0  0
 47 70  1  0  0  0  0
 48 66  1  0  0  0  0
 49 65  1  0  0  0  0
 51 61  1  0  0  0  0
 52 62  1  0  0  0  0
 53 62  1  0  0  0  0
 54 62  1  0  0  0  0
 55 73  1  0  0  0  0
 56 58  1  0  0  0  0
 57 80  1  0  0  0  0
 58 59  1  0  0  0  0
 59 72  1  0  0  0  0
 60 62  1  0  0  0  0
 60 71  1  0  0  0  0
 61 73  1  0  0  0  0
 64 65  1  0  0  0  0
M  CHG  1  73   1
M  ISO  4  37 100  57 101  72 100  80 101
M  END
> <Batch ID>
0042

> <Smiles>
CNC(C)C(=O)NC(C(=O)N1Cc2cc([101O:1][101CH2:1]c3cc(CCC[100NH:0][100C:0](=O)N4CCCC(n5nc(-c6ccc(Oc7ccc(F)cc7F)cc6)c(C(N)=O)c5N)C4)cnc3C)ccc2CC1C(=O)NC1CCCc2ccccc21)C(C)(C)C

> <Shape>
0.259

> <Color>
0.202

> <Negative vol penalty>
0.000

$$$$

  -OEChem-04052317123D

 84 92  0     1  0  0  0  0  0999 V2000
  -25.5177  -28.9341   23.7320 C   0  0  0  0  0  0  0  0  0  0  0  0
  -25.4064  -27.5669   23.9638 C   0  0  0  0  0  0  0  0  0  0  0  0
  -20.2513  -22.4760   22.6461 C   0  0  0  0  0  0  0  0  0  0  0  0
  -21.9100  -22.5198   20.8899 C   0  0  0  0  0  0  0  0  0  0  0  0
  -25.8343  -29.4003   22.4567 C   0  0  0  0  0  0  0  0  0  0  0  0
  -25.6106  -26.6651   22.9201 C   0  0  0  0  0  0  0  0  0  0  0  0
  -28.1408  -20.0864   21.6409 C   0  0  0  0  0  0  0  0  0  0  0  0
  -19.7376  -23.6904   22.1912 C   0  0  0  0  0  0  0  0  0  0  0  0
  -21.3963  -23.7342   20.4350 C   0  0  0  0  0  0  0  0  0  0  0  0
  -27.7710  -18.8909   21.0264 C   0  0  0  0  0  0  0  0  0  0  0  0
  -18.2175  -26.9587   21.7108 C   0  0  0  0  0  0  0  0  0  0  0  0
  -17.9251  -27.9374   22.6606 C   0  0  0  0  0  0  0  0  0  0  0  0
  -28.3911  -19.8077   18.8831 C   0  0  0  0  0  0  0  0  0  0  0  0
  -25.1078  -14.3663   21.4468 C   0  0  0  0  0  0  0  0  0  0  0  0
  -20.2377  -27.9499   23.3598 C   0  0  0  0  0  0  0  0  0  0  0  0
  -25.3333  -12.8609   19.6194 C   0  0  0  0  0  0  0  0  0  0  0  0
  -21.3376  -21.8907   21.9955 C   0  0  0  0  0  0  0  0  0  0  0  0
  -21.4791  -19.3446   22.0644 C   0  0  0  0  0  0  0  0  0  0  0  0
  -26.0520  -28.5033   21.3991 C   0  0  0  0  0  0  0  0  0  0  0  0
  -28.6291  -21.1573   20.8785 C   0  0  0  0  0  0  0  0  0  0  0  0
  -25.9292  -27.1197   21.6291 C   0  0  0  0  0  0  0  0  0  0  0  0
  -28.7688  -21.0149   19.4906 C   0  0  0  0  0  0  0  0  0  0  0  0
  -25.0171  -14.1289   20.0798 C   0  0  0  0  0  0  0  0  0  0  0  0
  -25.5063  -13.3429   22.2996 C   0  0  0  0  0  0  0  0  0  0  0  0
  -20.3101  -24.3195   21.0857 C   0  0  0  0  0  0  0  0  0  0  0  0
  -27.8934  -18.7524   19.6470 C   0  0  0  0  0  0  0  0  0  0  0  0
  -19.5200  -26.4755   21.5855 C   0  0  0  0  0  0  0  0  0  0  0  0
  -18.9351  -28.4330   23.4851 C   0  0  0  0  0  0  0  0  0  0  0  0
  -20.5301  -26.9711   22.4099 C   0  0  0  0  0  0  0  0  0  0  0  0
  -21.8690  -20.6365   22.4652 C   0  0  0  0  0  0  0  0  0  0  0  0
  -25.8004  -12.1100   21.7398 C   0  0  0  0  0  0  0  0  0  0  0  0
  -22.2786  -18.5018   22.7973 C   0  0  0  0  0  0  0  0  0  0  0  0
  -20.4834  -18.9422   21.1145 C   0  0  0  0  0  0  0  0  0  0  0  0
  -27.6663  -24.1341   20.3172 C   0  0  0  0  0  0  0  0  0  0  0  0
  -30.5045  -24.3440   18.7606 C   0  0  0  0  0  0  0  0  0  0  0  0
  -33.0478  -22.7421   17.1443 C   0  0  0  0  0  0  0  0  0  0  0  0
  -27.2721  -17.0972   24.8558 C   0  0  0  0  0  0  0  0  0  0  0  0
  -26.3455  -29.0564   20.0270 C   0  0  0  0  0  0  0  0  0  0  0  0
  -29.0489  -22.4310   21.5597 C   0  0  0  0  0  0  0  0  0  0  0  0
  -29.3067  -22.1274   18.6294 C   0  0  0  0  0  0  0  0  0  0  0  0
  -26.9149  -28.0200   19.0615 C   0  0  0  0  0  0  0  0  0  0  0  0
  -25.3422  -19.4452   26.7102 C   0  0  0  0  0  0  0  0  0  0  0  0
  -26.1060  -26.7285   19.1269 C   0  0  0  0  0  0  0  0  0  0  0  0
  -24.2388  -19.8622   25.7363 C   0  0  0  0  0  0  0  0  0  0  0  0
  -26.6704  -19.2141   25.9930 C   0  0  0  0  0  0  0  0  0  0  0  0
  -25.5035  -18.6878   23.8869 C   0  0  0  0  0  0  0  0  0  0  0  0
  -26.1678  -26.1091   20.5283 C   0  0  1  0  0  0  0  0  0  0  0  0
  -29.0503  -23.6363   20.6244 C   0  0  1  0  0  0  0  0  0  0  0  0
  -24.1314  -18.8781   24.5559 C   0  0  2  0  0  0  0  0  0  0  0  0
  -26.2327  -10.9735   22.6075 C   0  0  0  0  0  0  0  0  0  0  0  0
  -35.2094  -23.1838   15.9485 C   0  0  0  0  0  0  0  0  0  0  0  0
  -28.9529  -25.3256   16.3236 C   0  0  0  0  0  0  0  0  0  0  0  0
  -30.9742  -24.8404   14.9282 C   0  0  0  0  0  0  0  0  0  0  0  0
  -31.0981  -26.5376   16.7521 C   0  0  0  0  0  0  0  0  0  0  0  0
  -34.5886  -21.1329   19.0925 C   0  0  0  0  0  0  0  0  0  0  0  0
  -24.5873  -15.2167   19.1283 C   0  0  0  0  0  0  0  0  0  0  0  0
  -25.6073  -13.5910   23.7650 C   0  0  0  0  0  0  0  0  0  0  0  0
  -25.7478  -16.0514   18.5823 C   0  0  0  0  0  0  0  0  0  0  0  0
  -27.0423  -13.8331   24.2755 C   0  0  0  0  0  0  0  0  0  0  0  0
  -27.7561  -15.0070   23.6085 C   0  0  0  0  0  0  0  0  0  0  0  0
  -26.4890  -16.8331   19.6606 C   0  0  0  0  0  0  0  0  0  1  0  0
  -30.9713  -24.0840   17.3487 C   0  0  1  0  0  0  0  0  0  0  0  0
  -34.5557  -22.8523   17.2810 C   0  0  2  0  0  0  0  0  0  0  0  0
  -30.4871  -25.1764   16.3539 C   0  0  0  0  0  0  0  0  0  0  0  0
  -25.7240  -11.8417   20.4170 N   0  0  0  0  0  0  0  0  0  0  0  0
  -22.8405  -20.6209   23.3817 N   0  0  0  0  0  0  0  0  0  0  0  0
  -23.0677  -19.3088   23.5630 N   0  0  0  0  0  0  0  0  0  0  0  0
  -29.6976  -23.3553   19.3414 N   0  0  0  0  0  0  0  0  0  0  0  0
  -26.5000  -18.2703   24.8857 N   0  0  0  0  0  0  0  0  0  0  0  0
  -22.3764  -17.1566   22.8552 N   0  0  0  0  0  0  0  0  0  0  0  0
  -19.7529  -19.9370   20.4504 N   0  0  0  0  0  0  0  0  0  0  0  0
  -27.4318  -25.4328   20.7268 N   0  0  0  0  0  0  0  0  0  0  0  0
  -32.4213  -23.9395   17.4182 N   0  0  0  0  0  0  0  0  0  0  0  0
  -27.0438  -16.2542   23.7751 N   0  0  0  0  0  0  0  0  0  0  0  0
  -35.1259  -21.5681   17.7776 N   0  3  0  0  0  0  0  0  0  0  0  0
  -20.2370  -17.7360   20.8742 O   0  0  0  0  0  0  0  0  0  0  0  0
  -26.8707  -23.3952   19.7492 O   0  0  0  0  0  0  0  0  0  0  0  0
  -30.8492  -25.3827   19.3299 O   0  0  0  0  0  0  0  0  0  0  0  0
  -32.4825  -21.6992   16.8228 O   0  0  0  0  0  0  0  0  0  0  0  0
  -28.0994  -16.8190   25.7304 O   0  0  0  0  0  0  0  0  0  0  0  0
  -19.8089  -25.5044   20.6414 O   0  0  0  0  0  0  0  0  0  0  0  0
  -27.5326  -17.5867   19.0446 O   0  0  0  0  0  0  0  0  0  1  0  0
  -18.6545  -29.3740   24.3962 F   0  0  0  0  0  0  0  0  0  0  0  0
  -21.7835  -26.5116   22.2934 F   0  0  0  0  0  0  0  0  0  0  0  0
  1  2  1  0  0  0  0
  1  5  2  0  0  0  0
  2  6  2  0  0  0  0
  3  8  2  0  0  0  0
  3 17  1  0  0  0  0
  4  9  1  0  0  0  0
  4 17  2  0  0  0  0
  5 19  1  0  0  0  0
  6 21  1  0  0  0  0
  7 10  2  0  0  0  0
  7 20  1  0  0  0  0
  8 25  1  0  0  0  0
  9 25  2  0  0  0  0
 10 26  1  0  0  0  0
 11 12  2  0  0  0  0
 11 27  1  0  0  0  0
 12 28  1  0  0  0  0
 13 22  1  0  0  0  0
 13 26  2  0  0  0  0
 14 23  2  0  0  0  0
 14 24  1  0  0  0  0
 15 28  2  0  0  0  0
 15 29  1  0  0  0  0
 16 23  1  0  0  0  0
 16 65  2  0  0  0  0
 17 30  1  0  0  0  0
 18 30  1  0  0  0  0
 18 32  2  0  0  0  0
 18 33  1  0  0  0  0
 19 21  2  0  0  0  0
 19 38  1  0  0  0  0
 20 22  2  0  0  0  0
 20 39  1  0  0  0  0
 21 47  1  0  0  0  0
 22 40  1  0  0  0  0
 23 56  1  0  0  0  0
 24 31  2  0  0  0  0
 24 57  1  0  0  0  0
 25 81  1  0  0  0  0
 26 82  1  0  0  0  0
 27 29  2  0  0  0  0
 27 81  1  0  0  0  0
 28 83  1  0  0  0  0
 29 84  1  0  0  0  0
 30 66  2  0  0  0  0
 31 50  1  0  0  0  0
 31 65  1  0  0  0  0
 32 67  1  0  0  0  0
 32 70  1  0  0  0  0
 33 71  1  0  0  0  0
 33 76  2  0  0  0  0
 34 48  1  0  0  0  0
 34 72  1  0  0  0  0
 34 77  2  0  0  0  0
 35 62  1  0  0  0  0
 35 68  1  0  0  0  0
 35 78  2  0  0  0  0
 36 63  1  0  0  0  0
 36 73  1  0  0  0  0
 36 79  2  0  0  0  0
 37 69  1  0  0  0  0
 37 74  1  0  0  0  0
 37 80  2  0  0  0  0
 38 41  1  0  0  0  0
 39 48  1  0  0  0  0
 40 68  1  0  0  0  0
 41 43  1  0  0  0  0
 42 44  1  0  0  0  0
 42 45  1  0  0  0  0
 43 47  1  0  0  0  0
 44 49  1  0  0  0  0
 45 69  1  0  0  0  0
 46 49  1  0  0  0  0
 46 69  1  0  0  0  0
 47 72  1  0  0  0  0
 48 68  1  0  0  0  0
 49 67  1  0  0  0  0
 51 63  1  0  0  0  0
 52 64  1  0  0  0  0
 53 64  1  0  0  0  0
 54 64  1  0  0  0  0
 55 75  1  0  0  0  0
 56 58  1  0  0  0  0
 57 59  1  0  0  0  0
 58 61  1  0  0  0  0
 59 60  1  0  0  0  0
 60 74  1  0  0  0  0
 61 82  1  0  0  0  0
 62 64  1  0  0  0  0
 62 73  1  0  0  0  0
 63 75  1  0  0  0  0
 66 67  1  0  0  0  0
M  CHG  1  75   1
M  ISO  4  37 100  61 101  74 100  82 101
M  END
> <Batch ID>
0042

> <Smiles>
CNC(C)C(=O)NC(C(=O)N1Cc2cc([101O:1][101CH2:1]CCc3cnc(C)c(CCC[100NH:0][100C:0](=O)N4CCCC(n5nc(-c6ccc(Oc7ccc(F)cc7F)cc6)c(C(N)=O)c5N)C4)c3)ccc2CC1C(=O)NC1CCCc2ccccc21)C(C)(C)C

> <Shape>
0.189

> <Color>
0.082

> <Negative vol penalty>
0.000

$$$$

  -OEChem-04052317123D

 87 95  0     1  0  0  0  0  0999 V2000
  -26.7064  -32.0050   24.7766 C   0  0  0  0  0  0  0  0  0  0  0  0
  -26.2425  -30.7083   24.9732 C   0  0  0  0  0  0  0  0  0  0  0  0
  -23.0207   -9.8319   19.9966 C   0  0  0  0  0  0  0  0  0  0  0  0
  -23.7047   -9.9593   22.3103 C   0  0  0  0  0  0  0  0  0  0  0  0
  -26.4291  -32.6699   23.5829 C   0  0  0  0  0  0  0  0  0  0  0  0
  -25.5000  -30.0760   23.9765 C   0  0  0  0  0  0  0  0  0  0  0  0
  -26.9792  -25.2973   23.1882 C   0  0  0  0  0  0  0  0  0  0  0  0
  -22.2583   -8.6998   20.2843 C   0  0  0  0  0  0  0  0  0  0  0  0
  -22.9423   -8.8272   22.5980 C   0  0  0  0  0  0  0  0  0  0  0  0
  -26.5508  -24.3387   24.1054 C   0  0  0  0  0  0  0  0  0  0  0  0
  -23.2206   -5.4775   22.2331 C   0  0  0  0  0  0  0  0  0  0  0  0
  -23.8026   -4.4886   23.0262 C   0  0  0  0  0  0  0  0  0  0  0  0
  -24.8116  -23.6620   22.5768 C   0  0  0  0  0  0  0  0  0  0  0  0
  -27.7458  -20.4574   23.4477 C   0  0  0  0  0  0  0  0  0  0  0  0
  -27.4833  -17.8604   22.4632 C   0  0  0  0  0  0  0  0  0  0  0  0
  -22.0476   -4.7684   24.6630 C   0  0  0  0  0  0  0  0  0  0  0  0
  -23.7439  -10.4616   21.0096 C   0  0  0  0  0  0  0  0  0  0  0  0
  -24.1129  -12.9737   20.7631 C   0  0  0  0  0  0  0  0  0  0  0  0
  -25.6911  -32.0419   22.5672 C   0  0  0  0  0  0  0  0  0  0  0  0
  -26.3191  -25.4531   21.9609 C   0  0  0  0  0  0  0  0  0  0  0  0
  -25.2114  -30.7335   22.7686 C   0  0  0  0  0  0  0  0  0  0  0  0
  -25.2352  -24.6217   21.6447 C   0  0  0  0  0  0  0  0  0  0  0  0
  -28.4344  -20.0750   22.2966 C   0  0  0  0  0  0  0  0  0  0  0  0
  -26.9259  -19.5412   24.1067 C   0  0  0  0  0  0  0  0  0  0  0  0
  -28.3032  -18.7766   21.8043 C   0  0  0  0  0  0  0  0  0  0  0  0
  -26.7947  -18.2427   23.6144 C   0  0  0  0  0  0  0  0  0  0  0  0
  -22.2191   -8.1974   21.5849 C   0  0  0  0  0  0  0  0  0  0  0  0
  -25.4651  -23.5228   23.8010 C   0  0  0  0  0  0  0  0  0  0  0  0
  -22.0521   -6.1119   22.6550 C   0  0  0  0  0  0  0  0  0  0  0  0
  -23.2161   -4.1341   24.2411 C   0  0  0  0  0  0  0  0  0  0  0  0
  -21.4656   -5.7573   23.8698 C   0  0  0  0  0  0  0  0  0  0  0  0
  -24.5320  -11.6308   20.7129 C   0  0  0  0  0  0  0  0  0  0  0  0
  -25.2233  -13.6940   20.3961 C   0  0  0  0  0  0  0  0  0  0  0  0
  -22.8341  -13.5212   21.1106 C   0  0  0  0  0  0  0  0  0  0  0  0
  -24.7137  -27.8126   20.5611 C   0  0  0  0  0  0  0  0  0  0  0  0
  -24.6829  -25.7725   18.0393 C   0  0  0  0  0  0  0  0  0  0  0  0
  -24.8708  -22.5569   16.9117 C   0  0  0  0  0  0  0  0  0  0  0  0
  -30.7071  -14.6810   20.7114 C   0  0  0  0  0  0  0  0  0  0  0  0
  -25.3761  -32.8179   21.3129 C   0  0  0  0  0  0  0  0  0  0  0  0
  -26.8102  -26.4738   20.9712 C   0  0  0  0  0  0  0  0  0  0  0  0
  -24.5051  -24.7351   20.3323 C   0  0  0  0  0  0  0  0  0  0  0  0
  -24.9024  -31.9408   20.1568 C   0  0  0  0  0  0  0  0  0  0  0  0
  -29.6266  -12.1774   18.4220 C   0  0  0  0  0  0  0  0  0  0  0  0
  -23.8490  -30.9476   20.6370 C   0  0  0  0  0  0  0  0  0  0  0  0
  -28.1731  -11.9187   18.8221 C   0  0  0  0  0  0  0  0  0  0  0  0
  -30.5057  -12.4571   19.6389 C   0  0  0  0  0  0  0  0  0  0  0  0
  -28.5662  -13.2774   20.9192 C   0  0  0  0  0  0  0  0  0  0  0  0
  -24.4240  -30.0051   21.7012 C   0  0  1  0  0  0  0  0  0  0  0  0
  -25.7423  -26.8932   19.9657 C   0  0  1  0  0  0  0  0  0  0  0  0
  -27.6298  -13.0456   19.7210 C   0  0  2  0  0  0  0  0  0  0  0  0
  -29.3059  -21.0733   21.6077 C   0  0  0  0  0  0  0  0  0  0  0  0
  -26.7179  -16.0334   24.8253 C   0  0  0  0  0  0  0  0  0  0  0  0
  -24.7623  -16.7652   23.4129 C   0  0  0  0  0  0  0  0  0  0  0  0
  -24.7750  -21.2002   14.8028 C   0  0  0  0  0  0  0  0  0  0  0  0
  -21.6520  -26.1144   17.9600 C   0  0  0  0  0  0  0  0  0  0  0  0
  -21.5290  -24.0707   16.5189 C   0  0  0  0  0  0  0  0  0  0  0  0
  -22.7579  -26.0880   15.7170 C   0  0  0  0  0  0  0  0  0  0  0  0
  -27.6220  -21.5390   17.3039 C   0  0  0  0  0  0  0  0  0  0  0  0
  -26.1921  -19.9772   25.3497 C   0  0  0  0  0  0  0  0  0  0  0  0
  -29.0302  -18.3447   20.5733 C   0  0  0  0  0  0  0  0  0  0  0  0
  -30.5140  -17.9974   20.7998 C   0  0  0  0  0  0  0  0  0  0  0  0
  -24.7038  -20.2506   25.1223 C   0  0  0  0  0  0  0  0  0  0  0  0
  -30.7520  -16.8958   21.8303 C   0  0  0  0  0  0  0  0  0  0  0  0
  -24.4418  -21.4070   24.1644 C   0  0  0  0  0  0  0  0  0  1  0  0
  -25.9233  -17.2444   24.3033 C   0  0  0  0  0  0  0  0  0  0  0  0
  -23.7599  -24.6779   17.5608 C   0  0  1  0  0  0  0  0  0  0  0  0
  -25.6755  -21.9289   15.7880 C   0  0  2  0  0  0  0  0  0  0  0  0
  -22.4370  -25.2367   16.9648 C   0  0  0  0  0  0  0  0  0  0  0  0
  -25.8091  -11.5027   20.3430 N   0  0  0  0  0  0  0  0  0  0  0  0
  -26.2019  -12.7744   20.1573 N   0  0  0  0  0  0  0  0  0  0  0  0
  -25.0191  -25.7524   19.4003 N   0  0  0  0  0  0  0  0  0  0  0  0
  -29.9358  -13.5368   20.4485 N   0  0  0  0  0  0  0  0  0  0  0  0
  -25.4483  -15.0178   20.2574 N   0  0  0  0  0  0  0  0  0  0  0  0
  -21.8033  -12.6395   21.4631 N   0  0  0  0  0  0  0  0  0  0  0  0
  -25.2372  -28.9803   21.0824 N   0  0  0  0  0  0  0  0  0  0  0  0
  -24.5375  -23.8652   16.6317 N   0  0  0  0  0  0  0  0  0  0  0  0
  -30.0891  -15.6591   21.4809 N   0  0  0  0  0  0  0  0  0  0  0  0
  -26.6581  -20.9524   16.3376 N   0  3  0  0  0  0  0  0  0  0  0  0
  -22.6075  -14.7549   21.0926 O   0  0  0  0  0  0  0  0  0  0  0  0
  -23.5323  -27.4873   20.5471 O   0  0  0  0  0  0  0  0  0  0  0  0
  -25.0963  -26.6101   17.2336 O   0  0  0  0  0  0  0  0  0  0  0  0
  -24.5651  -21.9466   17.9337 O   0  0  0  0  0  0  0  0  0  0  0  0
  -31.8589  -14.8228   20.2870 O   0  0  0  0  0  0  0  0  0  0  0  0
  -21.4751   -7.0929   21.8661 O   0  0  0  0  0  0  0  0  0  0  0  0
  -25.0445  -22.5867   24.6948 O   0  0  0  0  0  0  0  0  0  1  0  0
  -23.7743   -3.1834   25.0019 F   0  0  0  0  0  0  0  0  0  0  0  0
  -20.3424   -6.3624   24.2798 F   0  0  0  0  0  0  0  0  0  0  0  0
  1  2  1  0  0  0  0
  1  5  2  0  0  0  0
  2  6  2  0  0  0  0
  3  8  2  0  0  0  0
  3 17  1  0  0  0  0
  4  9  1  0  0  0  0
  4 17  2  0  0  0  0
  5 19  1  0  0  0  0
  6 21  1  0  0  0  0
  7 10  2  0  0  0  0
  7 20  1  0  0  0  0
  8 27  1  0  0  0  0
  9 27  2  0  0  0  0
 10 28  1  0  0  0  0
 11 12  2  0  0  0  0
 11 29  1  0  0  0  0
 12 30  1  0  0  0  0
 13 22  1  0  0  0  0
 13 28  2  0  0  0  0
 14 23  2  0  0  0  0
 14 24  1  0  0  0  0
 15 25  2  0  0  0  0
 15 26  1  0  0  0  0
 16 30  2  0  0  0  0
 16 31  1  0  0  0  0
 17 32  1  0  0  0  0
 18 32  1  0  0  0  0
 18 33  2  0  0  0  0
 18 34  1  0  0  0  0
 19 21  2  0  0  0  0
 19 39  1  0  0  0  0
 20 22  2  0  0  0  0
 20 40  1  0  0  0  0
 21 48  1  0  0  0  0
 22 41  1  0  0  0  0
 23 25  1  0  0  0  0
 23 51  1  0  0  0  0
 24 26  2  0  0  0  0
 24 59  1  0  0  0  0
 25 60  1  0  0  0  0
 26 65  1  0  0  0  0
 27 84  1  0  0  0  0
 28 85  1  0  0  0  0
 29 31  2  0  0  0  0
 29 84  1  0  0  0  0
 30 86  1  0  0  0  0
 31 87  1  0  0  0  0
 32 69  2  0  0  0  0
 33 70  1  0  0  0  0
 33 73  1  0  0  0  0
 34 74  1  0  0  0  0
 34 79  2  0  0  0  0
 35 49  1  0  0  0  0
 35 75  1  0  0  0  0
 35 80  2  0  0  0  0
 36 66  1  0  0  0  0
 36 71  1  0  0  0  0
 36 81  2  0  0  0  0
 37 67  1  0  0  0  0
 37 76  1  0  0  0  0
 37 82  2  0  0  0  0
 38 72  1  0  0  0  0
 38 77  1  0  0  0  0
 38 83  2  0  0  0  0
 39 42  1  0  0  0  0
 40 49  1  0  0  0  0
 41 71  1  0  0  0  0
 42 44  1  0  0  0  0
 43 45  1  0  0  0  0
 43 46  1  0  0  0  0
 44 48  1  0  0  0  0
 45 50  1  0  0  0  0
 46 72  1  0  0  0  0
 47 50  1  0  0  0  0
 47 72  1  0  0  0  0
 48 75  1  0  0  0  0
 49 71  1  0  0  0  0
 50 70  1  0  0  0  0
 52 65  1  0  0  0  0
 53 65  1  0  0  0  0
 54 67  1  0  0  0  0
 55 68  1  0  0  0  0
 56 68  1  0  0  0  0
 57 68  1  0  0  0  0
 58 78  1  0  0  0  0
 59 62  1  0  0  0  0
 60 61  1  0  0  0  0
 61 63  1  0  0  0  0
 62 64  1  0  0  0  0
 63 77  1  0  0  0  0
 64 85  1  0  0  0  0
 66 68  1  0  0  0  0
 66 76  1  0  0  0  0
 67 78  1  0  0  0  0
 69 70  1  0  0  0  0
M  CHG  1  78   1
M  ISO  4  38 100  64 101  77 100  85 101
M  END
> <Batch ID>
0042

> <Smiles>
CNC(C)C(=O)NC(C(=O)N1Cc2cc([101O:1][101CH2:1]CCc3cc(C)c(CCC[100NH:0][100C:0](=O)N4CCCC(n5nc(-c6ccc(Oc7ccc(F)cc7F)cc6)c(C(N)=O)c5N)C4)cc3C(C)C)ccc2CC1C(=O)NC1CCCc2ccccc21)C(C)(C)C

> <Shape>
0.282

> <Color>
0.204

> <Negative vol penalty>
0.000

$$$$

  -OEChem-04052317123D

 82 90  0     1  0  0  0  0  0999 V2000
  -32.9535  -25.2354   17.8030 C   0  0  0  0  0  0  0  0  0  0  0  0
  -31.5864  -25.0932   17.5877 C   0  0  0  0  0  0  0  0  0  0  0  0
  -25.5239  -13.5150   19.5689 C   0  0  0  0  0  0  0  0  0  0  0  0
  -23.8400  -14.9995   20.4620 C   0  0  0  0  0  0  0  0  0  0  0  0
  -33.4214  -25.6666   19.0436 C   0  0  0  0  0  0  0  0  0  0  0  0
  -30.6865  -25.3811   18.6132 C   0  0  0  0  0  0  0  0  0  0  0  0
  -25.0981  -27.8176   18.0310 C   0  0  0  0  0  0  0  0  0  0  0  0
  -25.1194  -12.5204   20.4594 C   0  0  0  0  0  0  0  0  0  0  0  0
  -23.4354  -14.0050   21.3525 C   0  0  0  0  0  0  0  0  0  0  0  0
  -23.8251  -27.2497   18.0074 C   0  0  0  0  0  0  0  0  0  0  0  0
  -24.2913   -9.4678   22.2512 C   0  0  0  0  0  0  0  0  0  0  0  0
  -24.1406   -8.1736   21.7532 C   0  0  0  0  0  0  0  0  0  0  0  0
  -23.5823  -27.7110   20.3627 C   0  0  0  0  0  0  0  0  0  0  0  0
  -22.4652   -8.9652   20.2029 C   0  0  0  0  0  0  0  0  0  0  0  0
  -23.4681  -23.4521   20.1627 C   0  0  0  0  0  0  0  0  0  0  0  0
  -24.8842  -14.7545   19.5703 C   0  0  0  0  0  0  0  0  0  0  0  0
  -24.8127  -16.0101   17.3508 C   0  0  0  0  0  0  0  0  0  0  0  0
  -32.5263  -25.9693   20.0818 C   0  0  0  0  0  0  0  0  0  0  0  0
  -25.6281  -28.3275   19.2249 C   0  0  0  0  0  0  0  0  0  0  0  0
  -31.1430  -25.8155   19.8692 C   0  0  0  0  0  0  0  0  0  0  0  0
  -24.8613  -28.2872   20.3982 C   0  0  0  0  0  0  0  0  0  0  0  0
  -24.0752  -12.7654   21.3511 C   0  0  0  0  0  0  0  0  0  0  0  0
  -23.0681  -27.1937   19.1740 C   0  0  0  0  0  0  0  0  0  0  0  0
  -23.5288  -10.5107   21.7251 C   0  0  0  0  0  0  0  0  0  0  0  0
  -23.2276   -7.9223   20.7290 C   0  0  0  0  0  0  0  0  0  0  0  0
  -22.6158  -10.2593   20.7009 C   0  0  0  0  0  0  0  0  0  0  0  0
  -25.3019  -15.7825   18.6511 C   0  0  0  0  0  0  0  0  0  0  0  0
  -22.1440  -23.1276   20.0063 C   0  0  0  0  0  0  0  0  0  0  0  0
  -25.5271  -17.0931   16.8999 C   0  0  0  0  0  0  0  0  0  0  0  0
  -23.8028  -15.3057   16.6163 C   0  0  0  0  0  0  0  0  0  0  0  0
  -28.1475  -27.6373   21.0359 C   0  0  0  0  0  0  0  0  0  0  0  0
  -27.2090  -30.2794   22.6671 C   0  0  0  0  0  0  0  0  0  0  0  0
  -27.7833  -22.0443   18.9353 C   0  0  0  0  0  0  0  0  0  0  0  0
  -24.6906  -32.4250   23.5042 C   0  0  0  0  0  0  0  0  0  0  0  0
  -33.0817  -26.3867   21.4205 C   0  0  0  0  0  0  0  0  0  0  0  0
  -26.9923  -28.9611   19.2279 C   0  0  0  0  0  0  0  0  0  0  0  0
  -25.3764  -28.8391   21.7015 C   0  0  0  0  0  0  0  0  0  0  0  0
  -32.0439  -27.0304   22.3365 C   0  0  0  0  0  0  0  0  0  0  0  0
  -29.8155  -19.2059   18.1270 C   0  0  0  0  0  0  0  0  0  0  0  0
  -30.7589  -26.2085   22.3479 C   0  0  0  0  0  0  0  0  0  0  0  0
  -28.8171  -18.0499   18.0845 C   0  0  0  0  0  0  0  0  0  0  0  0
  -29.4411  -20.2282   19.1955 C   0  0  0  0  0  0  0  0  0  0  0  0
  -27.0519  -19.6093   19.0213 C   0  0  0  0  0  0  0  0  0  0  0  0
  -30.1342  -26.1419   20.9490 C   0  0  1  0  0  0  0  0  0  0  0  0
  -27.6370  -28.9849   20.6103 C   0  0  1  0  0  0  0  0  0  0  0  0
  -27.3762  -18.5692   17.9343 C   0  0  2  0  0  0  0  0  0  0  0  0
  -24.2197  -34.4669   24.8849 C   0  0  0  0  0  0  0  0  0  0  0  0
  -25.7966  -21.7964   17.4776 C   0  0  0  0  0  0  0  0  0  0  0  0
  -26.2887  -23.9625   18.6240 C   0  0  0  0  0  0  0  0  0  0  0  0
  -27.2197  -28.5698   25.1944 C   0  0  0  0  0  0  0  0  0  0  0  0
  -25.8634  -30.3484   26.3194 C   0  0  0  0  0  0  0  0  0  0  0  0
  -28.1563  -30.8701   25.4870 C   0  0  0  0  0  0  0  0  0  0  0  0
  -23.9097  -33.9980   21.1220 C   0  0  0  0  0  0  0  0  0  0  0  0
  -20.9310  -24.0187   20.0963 C   0  0  0  0  0  0  0  0  0  0  0  0
  -20.5342  -24.6554   18.7626 C   0  0  0  0  0  0  0  0  0  0  0  0
  -25.5300  -22.0191   20.0197 C   0  0  0  0  0  0  0  0  0  0  0  0
  -21.5936  -25.5990   18.2051 C   0  0  0  0  0  0  0  0  0  1  0  0
  -26.2784  -30.5462   23.8255 C   0  0  1  0  0  0  0  0  0  0  0  0
  -24.6213  -33.9415   23.5155 C   0  0  2  0  0  0  0  0  0  0  0  0
  -26.3361  -22.4322   18.7643 C   0  0  0  0  0  0  0  0  0  0  0  0
  -26.8702  -30.0714   25.1826 C   0  0  0  0  0  0  0  0  0  0  0  0
  -26.2536  -16.6509   19.0033 N   0  0  0  0  0  0  0  0  0  0  0  0
  -22.0273  -21.7931   19.7324 N   0  0  0  0  0  0  0  0  0  0  0  0
  -23.2491  -21.2717   19.7142 N   0  0  0  0  0  0  0  0  0  0  0  0
  -24.1116  -22.2681   19.9725 N   0  0  0  0  0  0  0  0  0  0  0  0
  -26.3683  -17.4347   17.9177 N   0  0  0  0  0  0  0  0  0  0  0  0
  -26.7184  -29.4428   21.6546 N   0  0  0  0  0  0  0  0  0  0  0  0
  -28.0583  -20.6801   19.0318 N   0  0  0  0  0  0  0  0  0  0  0  0
  -25.5117  -17.7769   15.7361 N   0  0  0  0  0  0  0  0  0  0  0  0
  -23.1685  -14.2164   17.2289 N   0  0  0  0  0  0  0  0  0  0  0  0
  -29.4467  -27.3781   20.6431 N   0  0  0  0  0  0  0  0  0  0  0  0
  -25.9634  -31.9699   23.7764 N   0  0  0  0  0  0  0  0  0  0  0  0
  -23.6248  -34.4219   22.5170 N   0  3  0  0  0  0  0  0  0  0  0  0
  -23.4842  -15.6224   15.4451 O   0  0  0  0  0  0  0  0  0  0  0  0
  -27.4173  -26.8887   21.6748 O   0  0  0  0  0  0  0  0  0  0  0  0
  -28.3273  -30.8000   22.6574 O   0  0  0  0  0  0  0  0  0  0  0  0
  -28.6425  -22.9286   18.9786 O   0  0  0  0  0  0  0  0  0  0  0  0
  -23.7126  -31.7152   23.2802 O   0  0  0  0  0  0  0  0  0  0  0  0
  -23.6801  -11.7951   22.2200 O   0  0  0  0  0  0  0  0  0  0  0  0
  -21.8255  -26.6394   19.1539 O   0  0  0  0  0  0  0  0  0  1  0  0
  -23.0842   -6.6797   20.2498 F   0  0  0  0  0  0  0  0  0  0  0  0
  -21.8814  -11.2574   20.1907 F   0  0  0  0  0  0  0  0  0  0  0  0
  1  2  1  0  0  0  0
  1  5  2  0  0  0  0
  2  6  2  0  0  0  0
  3  8  2  0  0  0  0
  3 16  1  0  0  0  0
  4  9  1  0  0  0  0
  4 16  2  0  0  0  0
  5 18  1  0  0  0  0
  6 20  1  0  0  0  0
  7 10  2  0  0  0  0
  7 19  1  0  0  0  0
  8 22  1  0  0  0  0
  9 22  2  0  0  0  0
 10 23  1  0  0  0  0
 11 12  2  0  0  0  0
 11 24  1  0  0  0  0
 12 25  1  0  0  0  0
 13 21  1  0  0  0  0
 13 23  2  0  0  0  0
 14 25  2  0  0  0  0
 14 26  1  0  0  0  0
 15 28  2  0  0  0  0
 15 65  1  0  0  0  0
 16 27  1  0  0  0  0
 17 27  1  0  0  0  0
 17 29  2  0  0  0  0
 17 30  1  0  0  0  0
 18 20  2  0  0  0  0
 18 35  1  0  0  0  0
 19 21  2  0  0  0  0
 19 36  1  0  0  0  0
 20 44  1  0  0  0  0
 21 37  1  0  0  0  0
 22 79  1  0  0  0  0
 23 80  1  0  0  0  0
 24 26  2  0  0  0  0
 24 79  1  0  0  0  0
 25 81  1  0  0  0  0
 26 82  1  0  0  0  0
 27 62  2  0  0  0  0
 28 54  1  0  0  0  0
 28 63  1  0  0  0  0
 29 66  1  0  0  0  0
 29 69  1  0  0  0  0
 30 70  1  0  0  0  0
 30 74  2  0  0  0  0
 31 45  1  0  0  0  0
 31 71  1  0  0  0  0
 31 75  2  0  0  0  0
 32 58  1  0  0  0  0
 32 67  1  0  0  0  0
 32 76  2  0  0  0  0
 33 60  1  0  0  0  0
 33 68  1  0  0  0  0
 33 77  2  0  0  0  0
 34 59  1  0  0  0  0
 34 72  1  0  0  0  0
 34 78  2  0  0  0  0
 35 38  1  0  0  0  0
 36 45  1  0  0  0  0
 37 67  1  0  0  0  0
 38 40  1  0  0  0  0
 39 41  1  0  0  0  0
 39 42  1  0  0  0  0
 40 44  1  0  0  0  0
 41 46  1  0  0  0  0
 42 68  1  0  0  0  0
 43 46  1  0  0  0  0
 43 68  1  0  0  0  0
 44 71  1  0  0  0  0
 45 67  1  0  0  0  0
 46 66  1  0  0  0  0
 47 59  1  0  0  0  0
 48 60  1  0  0  0  0
 49 60  1  0  0  0  0
 50 61  1  0  0  0  0
 51 61  1  0  0  0  0
 52 61  1  0  0  0  0
 53 73  1  0  0  0  0
 54 55  1  0  0  0  0
 55 57  1  0  0  0  0
 56 60  1  0  0  0  0
 56 65  1  0  0  0  0
 57 80  1  0  0  0  0
 58 61  1  0  0  0  0
 58 72  1  0  0  0  0
 59 73  1  0  0  0  0
 62 66  1  0  0  0  0
 63 64  2  0  0  0  0
 64 65  1  0  0  0  0
M  CHG  1  73   1
M  ISO  4  33 100  57 101  60 100  80 101
M  END
> <Batch ID>
0042

> <Smiles>
CNC(C)C(=O)NC(C(=O)N1Cc2cc([101O:1][101CH2:1]CCc3cn(C[100C:0](C)(C)[100C:0](=O)N4CCCC(n5nc(-c6ccc(Oc7ccc(F)cc7F)cc6)c(C(N)=O)c5N)C4)nn3)ccc2CC1C(=O)NC1CCCc2ccccc21)C(C)(C)C

> <Shape>
0.241

> <Color>
0.065

> <Negative vol penalty>
0.000

$$$$

  -OEChem-04052317122D

  0  0  0     0  0  0  0  0  0999 V2000
M  END
$$$$

  -OEChem-04052317123D

 82 90  0     1  0  0  0  0  0999 V2000
  -39.0560  -28.2163   19.4708 C   0  0  0  0  0  0  0  0  0  0  0  0
  -38.7263  -26.9678   19.9885 C   0  0  0  0  0  0  0  0  0  0  0  0
  -23.0154   -9.9981   20.0324 C   0  0  0  0  0  0  0  0  0  0  0  0
  -23.6453  -10.0974   22.3627 C   0  0  0  0  0  0  0  0  0  0  0  0
  -38.0742  -29.1980   19.3431 C   0  0  0  0  0  0  0  0  0  0  0  0
  -37.4148  -26.7007   20.3798 C   0  0  0  0  0  0  0  0  0  0  0  0
  -34.4571  -21.3563   19.9376 C   0  0  0  0  0  0  0  0  0  0  0  0
  -22.1682   -8.9246   20.3071 C   0  0  0  0  0  0  0  0  0  0  0  0
  -22.7980   -9.0239   22.6375 C   0  0  0  0  0  0  0  0  0  0  0  0
  -34.2089  -20.3423   20.8618 C   0  0  0  0  0  0  0  0  0  0  0  0
  -21.0748   -6.0791   23.8899 C   0  0  0  0  0  0  0  0  0  0  0  0
  -21.5633   -5.0605   24.7081 C   0  0  0  0  0  0  0  0  0  0  0  0
  -31.3255  -16.1937   25.9297 C   0  0  0  0  0  0  0  0  0  0  0  0
  -32.0409  -21.2969   21.3178 C   0  0  0  0  0  0  0  0  0  0  0  0
  -23.3390   -4.6402   23.1246 C   0  0  0  0  0  0  0  0  0  0  0  0
  -31.5292  -17.5173   26.2852 C   0  0  0  0  0  0  0  0  0  0  0  0
  -23.7540  -10.5844   21.0602 C   0  0  0  0  0  0  0  0  0  0  0  0
  -24.3047  -13.0624   20.8066 C   0  0  0  0  0  0  0  0  0  0  0  0
  -36.7480  -28.9396   19.7240 C   0  0  0  0  0  0  0  0  0  0  0  0
  -33.5019  -22.3560   19.7042 C   0  0  0  0  0  0  0  0  0  0  0  0
  -36.4147  -27.6803   20.2583 C   0  0  0  0  0  0  0  0  0  0  0  0
  -32.2784  -22.3210   20.3883 C   0  0  0  0  0  0  0  0  0  0  0  0
  -31.1713  -15.8988   24.5797 C   0  0  0  0  0  0  0  0  0  0  0  0
  -31.2247  -16.9220   23.6397 C   0  0  0  0  0  0  0  0  0  0  0  0
  -22.0594   -8.4376   21.6096 C   0  0  0  0  0  0  0  0  0  0  0  0
  -33.0019  -20.3141   21.5541 C   0  0  0  0  0  0  0  0  0  0  0  0
  -21.7184   -6.3782   22.6890 C   0  0  0  0  0  0  0  0  0  0  0  0
  -22.6954   -4.3411   24.3255 C   0  0  0  0  0  0  0  0  0  0  0  0
  -22.8505   -5.6587   22.3064 C   0  0  0  0  0  0  0  0  0  0  0  0
  -24.6298  -11.6930   20.7769 C   0  0  0  0  0  0  0  0  0  0  0  0
  -31.4327  -18.2130   24.0978 C   0  0  0  0  0  0  0  0  0  0  0  0
  -25.4722  -13.6999   20.4648 C   0  0  0  0  0  0  0  0  0  0  0  0
  -23.0587  -13.7010   21.1157 C   0  0  0  0  0  0  0  0  0  0  0  0
  -33.4281  -25.5142   20.0568 C   0  0  0  0  0  0  0  0  0  0  0  0
  -30.5504  -25.2200   18.5888 C   0  0  0  0  0  0  0  0  0  0  0  0
  -27.8731  -23.2440   17.8311 C   0  0  0  0  0  0  0  0  0  0  0  0
  -31.2400  -12.1498   20.8900 C   0  0  0  0  0  0  0  0  0  0  0  0
  -35.7313  -30.0478   19.6112 C   0  0  0  0  0  0  0  0  0  0  0  0
  -33.7740  -23.4278   18.6845 C   0  0  0  0  0  0  0  0  0  0  0  0
  -31.2117  -23.3593   20.1591 C   0  0  0  0  0  0  0  0  0  0  0  0
  -34.2872  -29.5609   19.6998 C   0  0  0  0  0  0  0  0  0  0  0  0
  -29.4818  -13.0661   17.9326 C   0  0  0  0  0  0  0  0  0  0  0  0
  -34.1222  -28.5882   20.8632 C   0  0  0  0  0  0  0  0  0  0  0  0
  -28.0096  -12.9417   18.3289 C   0  0  0  0  0  0  0  0  0  0  0  0
  -30.3365  -11.9844   18.5894 C   0  0  0  0  0  0  0  0  0  0  0  0
  -28.7369  -11.7757   20.4526 C   0  0  0  0  0  0  0  0  0  0  0  0
  -34.9980  -27.3443   20.6707 C   0  0  1  0  0  0  0  0  0  0  0  0
  -32.9390  -24.6858   18.9025 C   0  0  1  0  0  0  0  0  0  0  0  0
  -27.8442  -12.8790   19.8593 C   0  0  2  0  0  0  0  0  0  0  0  0
  -31.0627  -16.6351   22.1848 C   0  0  0  0  0  0  0  0  0  0  0  0
  -25.6594  -23.2940   16.6501 C   0  0  0  0  0  0  0  0  0  0  0  0
  -29.3404  -26.7620   20.9272 C   0  0  0  0  0  0  0  0  0  0  0  0
  -27.0830  -25.9656   20.1938 C   0  0  0  0  0  0  0  0  0  0  0  0
  -28.4483  -27.4042   18.6809 C   0  0  0  0  0  0  0  0  0  0  0  0
  -28.7129  -21.1439   15.9224 C   0  0  0  0  0  0  0  0  0  0  0  0
  -30.9504  -14.4812   24.1664 C   0  0  0  0  0  0  0  0  0  0  0  0
  -31.4996  -19.3583   23.1307 C   0  0  0  0  0  0  0  0  0  1  0  0
  -32.2069  -13.7733   23.6237 C   0  0  0  0  0  0  0  0  0  0  0  0
  -31.9914  -12.3083   23.2500 C   0  0  0  0  0  0  0  0  0  0  0  0
  -29.1311  -24.9986   19.0531 C   0  0  1  0  0  0  0  0  0  0  0  0
  -27.1447  -22.9928   16.5231 C   0  0  2  0  0  0  0  0  0  0  0  0
  -28.5214  -26.2640   19.7197 C   0  0  0  0  0  0  0  0  0  0  0  0
  -31.5870  -18.5382   25.4009 N   0  0  0  0  0  0  0  0  0  0  0  0
  -25.9040  -11.4727   20.4424 N   0  0  0  0  0  0  0  0  0  0  0  0
  -26.3898  -12.7122   20.2587 N   0  0  0  0  0  0  0  0  0  0  0  0
  -31.5276  -24.3903   19.1567 N   0  0  0  0  0  0  0  0  0  0  0  0
  -30.1346  -11.9790   20.0403 N   0  0  0  0  0  0  0  0  0  0  0  0
  -25.7931  -15.0035   20.3232 N   0  0  0  0  0  0  0  0  0  0  0  0
  -21.9596  -12.8966   21.4463 N   0  0  0  0  0  0  0  0  0  0  0  0
  -34.3923  -26.4428   19.7142 N   0  0  0  0  0  0  0  0  0  0  0  0
  -28.3911  -24.5205   17.8902 N   0  0  0  0  0  0  0  0  0  0  0  0
  -30.9599  -12.1385   22.2510 N   0  0  0  0  0  0  0  0  0  0  0  0
  -27.3019  -21.5703   16.1076 N   0  3  0  0  0  0  0  0  0  0  0  0
  -22.9198  -14.9472   21.0832 O   0  0  0  0  0  0  0  0  0  0  0  0
  -32.9638  -25.3258   21.1751 O   0  0  0  0  0  0  0  0  0  0  0  0
  -30.7825  -26.0921   17.7478 O   0  0  0  0  0  0  0  0  0  0  0  0
  -27.9694  -22.3942   18.7137 O   0  0  0  0  0  0  0  0  0  0  0  0
  -32.3904  -12.3065   20.4670 O   0  0  0  0  0  0  0  0  0  0  0  0
  -21.2326   -7.3902   21.8781 O   0  0  0  0  0  0  0  0  0  0  0  0
  -32.7573  -19.3260   22.4572 O   0  0  0  0  0  0  0  0  0  1  0  0
  -23.1653   -3.3640   25.1120 F   0  0  0  0  0  0  0  0  0  0  0  0
  -23.4737   -5.9423   21.1544 F   0  0  0  0  0  0  0  0  0  0  0  0
  1  2  1  0  0  0  0
  1  5  2  0  0  0  0
  2  6  2  0  0  0  0
  3  8  2  0  0  0  0
  3 17  1  0  0  0  0
  4  9  1  0  0  0  0
  4 17  2  0  0  0  0
  5 19  1  0  0  0  0
  6 21  1  0  0  0  0
  7 10  2  0  0  0  0
  7 20  1  0  0  0  0
  8 25  1  0  0  0  0
  9 25  2  0  0  0  0
 10 26  1  0  0  0  0
 11 12  2  0  0  0  0
 11 27  1  0  0  0  0
 12 28  1  0  0  0  0
 13 16  1  0  0  0  0
 13 23  2  0  0  0  0
 14 22  1  0  0  0  0
 14 26  2  0  0  0  0
 15 28  2  0  0  0  0
 15 29  1  0  0  0  0
 16 63  2  0  0  0  0
 17 30  1  0  0  0  0
 18 30  1  0  0  0  0
 18 32  2  0  0  0  0
 18 33  1  0  0  0  0
 19 21  2  0  0  0  0
 19 38  1  0  0  0  0
 20 22  2  0  0  0  0
 20 39  1  0  0  0  0
 21 47  1  0  0  0  0
 22 40  1  0  0  0  0
 23 24  1  0  0  0  0
 23 56  1  0  0  0  0
 24 31  2  0  0  0  0
 24 50  1  0  0  0  0
 25 79  1  0  0  0  0
 26 80  1  0  0  0  0
 27 29  2  0  0  0  0
 27 79  1  0  0  0  0
 28 81  1  0  0  0  0
 29 82  1  0  0  0  0
 30 64  2  0  0  0  0
 31 57  1  0  0  0  0
 31 63  1  0  0  0  0
 32 65  1  0  0  0  0
 32 68  1  0  0  0  0
 33 69  1  0  0  0  0
 33 74  2  0  0  0  0
 34 48  1  0  0  0  0
 34 70  1  0  0  0  0
 34 75  2  0  0  0  0
 35 60  1  0  0  0  0
 35 66  1  0  0  0  0
 35 76  2  0  0  0  0
 36 61  1  0  0  0  0
 36 71  1  0  0  0  0
 36 77  2  0  0  0  0
 37 67  1  0  0  0  0
 37 72  1  0  0  0  0
 37 78  2  0  0  0  0
 38 41  1  0  0  0  0
 39 48  1  0  0  0  0
 40 66  1  0  0  0  0
 41 43  1  0  0  0  0
 42 44  1  0  0  0  0
 42 45  1  0  0  0  0
 43 47  1  0  0  0  0
 44 49  1  0  0  0  0
 45 67  1  0  0  0  0
 46 49  1  0  0  0  0
 46 67  1  0  0  0  0
 47 70  1  0  0  0  0
 48 66  1  0  0  0  0
 49 65  1  0  0  0  0
 51 61  1  0  0  0  0
 52 62  1  0  0  0  0
 53 62  1  0  0  0  0
 54 62  1  0  0  0  0
 55 73  1  0  0  0  0
 56 58  1  0  0  0  0
 57 80  1  0  0  0  0
 58 59  1  0  0  0  0
 59 72  1  0  0  0  0
 60 62  1  0  0  0  0
 60 71  1  0  0  0  0
 61 73  1  0  0  0  0
 64 65  1  0  0  0  0
M  CHG  1  73   1
M  ISO  4  37 100  57 101  72 100  80 101
M  END
> <Batch ID>
0042

> <Smiles>
CNC(C)C(=O)NC(C(=O)N1Cc2cc([101O:1][101CH2:1]c3nccc(CCC[100NH:0][100C:0](=O)N4CCCC(n5nc(-c6ccc(Oc7ccc(F)cc7F)cc6)c(C(N)=O)c5N)C4)c3C)ccc2CC1C(=O)NC1CCCc2ccccc21)C(C)(C)C

> <Shape>
0.212

> <Color>
0.169

> <Negative vol penalty>
0.000

$$$$

  -OEChem-04052317123D

 86 94  0     1  0  0  0  0  0999 V2000
  -26.5809  -35.2129   23.7346 C   0  0  0  0  0  0  0  0  0  0  0  0
  -27.0250  -33.9215   23.4692 C   0  0  0  0  0  0  0  0  0  0  0  0
  -28.6664  -12.9742   23.2152 C   0  0  0  0  0  0  0  0  0  0  0  0
  -27.2753  -13.0200   21.2404 C   0  0  0  0  0  0  0  0  0  0  0  0
  -25.2575  -35.4290   24.1167 C   0  0  0  0  0  0  0  0  0  0  0  0
  -26.1463  -32.8452   23.5868 C   0  0  0  0  0  0  0  0  0  0  0  0
  -26.4970  -29.6174   19.7005 C   0  0  0  0  0  0  0  0  0  0  0  0
  -28.1986  -11.6948   23.5151 C   0  0  0  0  0  0  0  0  0  0  0  0
  -26.8075  -11.7406   21.5403 C   0  0  0  0  0  0  0  0  0  0  0  0
  -27.5726  -28.7304   19.7046 C   0  0  0  0  0  0  0  0  0  0  0  0
  -27.9010   -8.5569   21.2415 C   0  0  0  0  0  0  0  0  0  0  0  0
  -27.8335   -7.6324   20.1992 C   0  0  0  0  0  0  0  0  0  0  0  0
  -26.1261  -26.9898   20.5396 C   0  0  0  0  0  0  0  0  0  0  0  0
  -25.4522   -7.4159   20.5455 C   0  0  0  0  0  0  0  0  0  0  0  0
  -28.2047  -13.6368   22.0779 C   0  0  0  0  0  0  0  0  0  0  0  0
  -29.8088  -15.2924   20.9853 C   0  0  0  0  0  0  0  0  0  0  0  0
  -24.3596  -34.3558   24.2296 C   0  0  0  0  0  0  0  0  0  0  0  0
  -25.2281  -29.1996   20.1270 C   0  0  0  0  0  0  0  0  0  0  0  0
  -24.8100  -33.0470   23.9720 C   0  0  0  0  0  0  0  0  0  0  0  0
  -25.0355  -27.8728   20.5376 C   0  0  0  0  0  0  0  0  0  0  0  0
  -27.2692  -11.0780   22.6776 C   0  0  0  0  0  0  0  0  0  0  0  0
  -27.3879  -27.4171   20.1270 C   0  0  0  0  0  0  0  0  0  0  0  0
  -26.7441   -8.9109   21.9358 C   0  0  0  0  0  0  0  0  0  0  0  0
  -26.6091   -7.0619   19.8512 C   0  0  0  0  0  0  0  0  0  0  0  0
  -25.5197   -8.3404   21.5878 C   0  0  0  0  0  0  0  0  0  0  0  0
  -28.6872  -14.9586   21.7679 C   0  0  0  0  0  0  0  0  0  0  0  0
  -27.7216  -23.8102   16.6146 C   0  0  0  0  0  0  0  0  0  0  0  0
  -27.4627  -22.6214   17.2606 C   0  0  0  0  0  0  0  0  0  0  0  0
  -29.1759  -24.3978   18.2786 C   0  0  0  0  0  0  0  0  0  0  0  0
  -28.9166  -23.2094   18.9251 C   0  0  0  0  0  0  0  0  0  0  0  0
  -29.8382  -16.6655   20.9954 C   0  0  0  0  0  0  0  0  0  0  0  0
  -30.7407  -14.4376   20.3096 C   0  0  0  0  0  0  0  0  0  0  0  0
  -23.2597  -30.0456   22.4750 C   0  0  0  0  0  0  0  0  0  0  0  0
  -21.2405  -27.9783   21.0015 C   0  0  0  0  0  0  0  0  0  0  0  0
  -20.8467  -25.2729   18.9587 C   0  0  0  0  0  0  0  0  0  0  0  0
  -25.6116  -20.8285   21.8057 C   0  0  0  0  0  0  0  0  0  0  0  0
  -22.9510  -34.6335   24.6917 C   0  0  0  0  0  0  0  0  0  0  0  0
  -24.0722  -30.1614   20.0912 C   0  0  0  0  0  0  0  0  0  0  0  0
  -23.6887  -27.3690   20.9857 C   0  0  0  0  0  0  0  0  0  0  0  0
  -21.9856  -33.4804   24.4296 C   0  0  0  0  0  0  0  0  0  0  0  0
  -28.6017  -20.4175   23.6944 C   0  0  0  0  0  0  0  0  0  0  0  0
  -22.6059  -32.1559   24.8627 C   0  0  0  0  0  0  0  0  0  0  0  0
  -29.0639  -19.0020   23.3442 C   0  0  0  0  0  0  0  0  0  0  0  0
  -27.0796  -20.5104   23.7755 C   0  0  0  0  0  0  0  0  0  0  0  0
  -26.8270  -18.6063   22.2313 C   0  0  0  0  0  0  0  0  0  0  0  0
  -23.8805  -31.8564   24.0645 C   0  0  1  0  0  0  0  0  0  0  0  0
  -22.9386  -29.7684   21.0335 C   0  0  1  0  0  0  0  0  0  0  0  0
  -28.3525  -18.4758   22.0831 C   0  0  2  0  0  0  0  0  0  0  0  0
  -27.0583  -24.1546   15.3253 C   0  0  0  0  0  0  0  0  0  0  0  0
  -31.3330  -25.6364   17.8981 C   0  0  0  0  0  0  0  0  0  0  0  0
  -19.0785  -23.7924   17.9693 C   0  0  0  0  0  0  0  0  0  0  0  0
  -20.9103  -26.5783   23.6924 C   0  0  0  0  0  0  0  0  0  0  0  0
  -19.9398  -24.6178   22.4747 C   0  0  0  0  0  0  0  0  0  0  0  0
  -18.7953  -26.8324   22.3822 C   0  0  0  0  0  0  0  0  0  0  0  0
  -21.6112  -26.0101   16.1963 C   0  0  0  0  0  0  0  0  0  0  0  0
  -26.5068  -21.6244   16.7006 C   0  0  0  0  0  0  0  0  0  0  0  0
  -25.7733  -20.8394   17.7998 C   0  0  0  0  0  0  0  0  0  0  0  0
  -24.9339  -21.7599   18.6908 C   0  0  0  0  0  0  0  0  0  0  0  0
  -24.1866  -20.9989   19.7810 C   0  0  0  0  0  0  0  0  0  0  0  0
  -29.4563  -26.7570   19.1566 C   0  0  0  0  0  0  0  0  0  1  0  0
  -30.1471  -25.4228   18.8430 C   0  0  1  0  0  0  0  0  0  0  0  0
  -20.9559  -26.4998   21.1121 C   0  0  1  0  0  0  0  0  0  0  0  0
  -19.9347  -25.0332   17.7691 C   0  0  2  0  0  0  0  0  0  0  0  0
  -20.1763  -26.1418   22.4088 C   0  0  0  0  0  0  0  0  0  0  0  0
  -28.0503  -16.0332   22.2408 N   0  0  0  0  0  0  0  0  0  0  0  0
  -28.5829  -24.7197   17.1120 N   0  0  0  0  0  0  0  0  0  0  0  0
  -28.0555  -22.2997   18.4274 N   0  0  0  0  0  0  0  0  0  0  0  0
  -28.7741  -17.0556   21.7542 N   0  0  0  0  0  0  0  0  0  0  0  0
  -22.5912  -28.3491   20.9387 N   0  0  0  0  0  0  0  0  0  0  0  0
  -26.4664  -19.9971   22.5481 N   0  0  0  0  0  0  0  0  0  0  0  0
  -30.6703  -17.5653   20.4293 N   0  0  0  0  0  0  0  0  0  0  0  0
  -30.5639  -13.0504   20.4029 N   0  0  0  0  0  0  0  0  0  0  0  0
  -23.5466  -31.3705   22.7428 N   0  0  0  0  0  0  0  0  0  0  0  0
  -20.2718  -26.1225   19.8801 N   0  0  0  0  0  0  0  0  0  0  0  0
  -25.0778  -20.2663   20.6526 N   0  0  0  0  0  0  0  0  0  0  0  0
  -20.7391  -24.8539   16.5275 N   0  3  0  0  0  0  0  0  0  0  0  0
  -31.7113  -14.8902   19.6564 O   0  0  0  0  0  0  0  0  0  0  0  0
  -23.2465  -29.1258   23.2846 O   0  0  0  0  0  0  0  0  0  0  0  0
  -20.2988  -28.7742   20.9646 O   0  0  0  0  0  0  0  0  0  0  0  0
  -21.9565  -24.7551   19.0622 O   0  0  0  0  0  0  0  0  0  0  0  0
  -25.3483  -21.9879   22.1424 O   0  0  0  0  0  0  0  0  0  0  0  0
  -26.8126   -9.8295   22.9698 O   0  0  0  0  0  0  0  0  0  0  0  0
  -28.4362  -26.5494   20.1326 O   0  0  0  0  0  0  0  0  0  1  0  0
  -26.5442   -6.1753   18.8493 F   0  0  0  0  0  0  0  0  0  0  0  0
  -24.4048   -8.6774   22.2504 F   0  0  0  0  0  0  0  0  0  0  0  0
  -29.6494  -22.7612   20.4089 Cl  0  0  0  0  0  0  0  0  0  0  0  0
  1  2  1  0  0  0  0
  1  5  2  0  0  0  0
  2  6  2  0  0  0  0
  3  8  2  0  0  0  0
  3 15  1  0  0  0  0
  4  9  1  0  0  0  0
  4 15  2  0  0  0  0
  5 17  1  0  0  0  0
  6 19  1  0  0  0  0
  7 10  2  0  0  0  0
  7 18  1  0  0  0  0
  8 21  1  0  0  0  0
  9 21  2  0  0  0  0
 10 22  1  0  0  0  0
 11 12  2  0  0  0  0
 11 23  1  0  0  0  0
 12 24  1  0  0  0  0
 13 20  1  0  0  0  0
 13 22  2  0  0  0  0
 14 24  2  0  0  0  0
 14 25  1  0  0  0  0
 15 26  1  0  0  0  0
 16 26  1  0  0  0  0
 16 31  2  0  0  0  0
 16 32  1  0  0  0  0
 17 19  2  0  0  0  0
 17 37  1  0  0  0  0
 18 20  2  0  0  0  0
 18 38  1  0  0  0  0
 19 46  1  0  0  0  0
 20 39  1  0  0  0  0
 21 82  1  0  0  0  0
 22 83  1  0  0  0  0
 23 25  2  0  0  0  0
 23 82  1  0  0  0  0
 24 84  1  0  0  0  0
 25 85  1  0  0  0  0
 26 65  2  0  0  0  0
 27 28  1  0  0  0  0
 27 49  1  0  0  0  0
 27 66  2  0  0  0  0
 28 56  1  0  0  0  0
 28 67  2  0  0  0  0
 29 30  2  0  0  0  0
 29 61  1  0  0  0  0
 29 66  1  0  0  0  0
 30 67  1  0  0  0  0
 30 86  1  0  0  0  0
 31 68  1  0  0  0  0
 31 71  1  0  0  0  0
 32 72  1  0  0  0  0
 32 77  2  0  0  0  0
 33 47  1  0  0  0  0
 33 73  1  0  0  0  0
 33 78  2  0  0  0  0
 34 62  1  0  0  0  0
 34 69  1  0  0  0  0
 34 79  2  0  0  0  0
 35 63  1  0  0  0  0
 35 74  1  0  0  0  0
 35 80  2  0  0  0  0
 36 70  1  0  0  0  0
 36 75  1  0  0  0  0
 36 81  2  0  0  0  0
 37 40  1  0  0  0  0
 38 47  1  0  0  0  0
 39 69  1  0  0  0  0
 40 42  1  0  0  0  0
 41 43  1  0  0  0  0
 41 44  1  0  0  0  0
 42 46  1  0  0  0  0
 43 48  1  0  0  0  0
 44 70  1  0  0  0  0
 45 48  1  0  0  0  0
 45 70  1  0  0  0  0
 46 73  1  0  0  0  0
 47 69  1  0  0  0  0
 48 68  1  0  0  0  0
 50 61  1  0  0  0  0
 51 63  1  0  0  0  0
 52 64  1  0  0  0  0
 53 64  1  0  0  0  0
 54 64  1  0  0  0  0
 55 76  1  0  0  0  0
 56 57  1  0  0  0  0
 57 58  1  0  0  0  0
 58 59  1  0  0  0  0
 59 75  1  0  0  0  0
 60 61  1  0  0  0  0
 60 83  1  0  0  0  0
 62 64  1  0  0  0  0
 62 74  1  0  0  0  0
 63 76  1  0  0  0  0
 65 68  1  0  0  0  0
M  CHG  1  76   1
M  ISO  4  36 100  60 101  75 100  83 101
M  END
> <Batch ID>
0042

> <Smiles>
CNC(C)C(=O)NC(C(=O)N1Cc2cc([101O:1][101CH2:1]C(C)c3nc(C)c(CCCC[100NH:0][100C:0](=O)N4CCCC(n5nc(-c6ccc(Oc7ccc(F)cc7F)cc6)c(C(N)=O)c5N)C4)nc3Cl)ccc2CC1C(=O)NC1CCCc2ccccc21)C(C)(C)C

> <Shape>
0.249

> <Color>
0.087

> <Negative vol penalty>
0.000

$$$$

  -OEChem-04052317123D

 82 90  0     1  0  0  0  0  0999 V2000
  -19.9641  -21.1269   21.3489 C   0  0  0  0  0  0  0  0  0  0  0  0
  -21.2793  -20.6737   21.3727 C   0  0  0  0  0  0  0  0  0  0  0  0
  -23.2496   -9.8323   19.9312 C   0  0  0  0  0  0  0  0  0  0  0  0
  -23.6356  -10.0303   22.3079 C   0  0  0  0  0  0  0  0  0  0  0  0
  -19.1723  -20.9062   20.2228 C   0  0  0  0  0  0  0  0  0  0  0  0
  -21.8030  -19.9987   20.2707 C   0  0  0  0  0  0  0  0  0  0  0  0
  -26.4482  -21.5969   19.0411 C   0  0  0  0  0  0  0  0  0  0  0  0
  -22.5090   -8.6704   20.1482 C   0  0  0  0  0  0  0  0  0  0  0  0
  -22.8950   -8.8684   22.5250 C   0  0  0  0  0  0  0  0  0  0  0  0
  -27.5079  -21.1334   19.8195 C   0  0  0  0  0  0  0  0  0  0  0  0
  -23.3662   -5.5300   22.2720 C   0  0  0  0  0  0  0  0  0  0  0  0
  -23.8894   -4.5831   23.1524 C   0  0  0  0  0  0  0  0  0  0  0  0
  -28.0258  -19.4938   18.1276 C   0  0  0  0  0  0  0  0  0  0  0  0
  -21.9345   -4.8068   24.5545 C   0  0  0  0  0  0  0  0  0  0  0  0
  -30.9902  -15.1871   23.6114 C   0  0  0  0  0  0  0  0  0  0  0  0
  -28.9413  -15.7255   24.3372 C   0  0  0  0  0  0  0  0  0  0  0  0
  -23.8129  -10.5123   21.0110 C   0  0  0  0  0  0  0  0  0  0  0  0
  -24.0966  -13.0346   20.7557 C   0  0  0  0  0  0  0  0  0  0  0  0
  -19.6896  -20.2366   19.1027 C   0  0  0  0  0  0  0  0  0  0  0  0
  -26.1622  -21.0042   17.8028 C   0  0  0  0  0  0  0  0  0  0  0  0
  -21.0169  -19.7676   19.1291 C   0  0  0  0  0  0  0  0  0  0  0  0
  -26.9635  -19.9534   17.3341 C   0  0  0  0  0  0  0  0  0  0  0  0
  -30.2009  -14.0655   23.4842 C   0  0  0  0  0  0  0  0  0  0  0  0
  -22.3317   -8.1884   21.4451 C   0  0  0  0  0  0  0  0  0  0  0  0
  -28.2951  -20.0798   19.3641 C   0  0  0  0  0  0  0  0  0  0  0  0
  -22.1273   -6.1154   22.5328 C   0  0  0  0  0  0  0  0  0  0  0  0
  -23.1735   -4.2214   24.2937 C   0  0  0  0  0  0  0  0  0  0  0  0
  -21.4114   -5.7538   23.6740 C   0  0  0  0  0  0  0  0  0  0  0  0
  -28.9047  -14.4060   23.9434 C   0  0  0  0  0  0  0  0  0  0  0  0
  -24.5785  -11.7122   20.7874 C   0  0  0  0  0  0  0  0  0  0  0  0
  -25.2105  -13.8002   20.5119 C   0  0  0  0  0  0  0  0  0  0  0  0
  -22.7614  -13.5267   20.9311 C   0  0  0  0  0  0  0  0  0  0  0  0
  -23.6764  -19.4418   16.5848 C   0  0  0  0  0  0  0  0  0  0  0  0
  -31.0529  -12.8196   21.5198 C   0  0  0  0  0  0  0  0  0  0  0  0
  -25.4209  -19.5855   13.8537 C   0  0  0  0  0  0  0  0  0  0  0  0
  -28.4876  -19.8883   12.3873 C   0  0  0  0  0  0  0  0  0  0  0  0
  -18.7808  -19.9798   17.9267 C   0  0  0  0  0  0  0  0  0  0  0  0
  -25.0321  -21.5334   16.9630 C   0  0  0  0  0  0  0  0  0  0  0  0
  -26.7106  -19.2962   16.0027 C   0  0  0  0  0  0  0  0  0  0  0  0
  -19.5272  -19.5859   16.6547 C   0  0  0  0  0  0  0  0  0  0  0  0
  -29.4910  -13.6308   18.3986 C   0  0  0  0  0  0  0  0  0  0  0  0
  -20.5783  -18.5235   16.9599 C   0  0  0  0  0  0  0  0  0  0  0  0
  -28.0145  -13.3239   18.6455 C   0  0  0  0  0  0  0  0  0  0  0  0
  -30.3964  -12.6535   19.1417 C   0  0  0  0  0  0  0  0  0  0  0  0
  -28.6578  -12.2722   20.8602 C   0  0  0  0  0  0  0  0  0  0  0  0
  -21.6287  -19.0531   17.9436 C   0  0  1  0  0  0  0  0  0  0  0  0
  -24.5130  -20.5169   15.9508 C   0  0  1  0  0  0  0  0  0  0  0  0
  -27.7087  -13.2552   20.1522 C   0  0  2  0  0  0  0  0  0  0  0  0
  -31.7667  -12.1021   23.7767 C   0  0  0  0  0  0  0  0  0  0  0  0
  -29.6000  -19.9328   10.1383 C   0  0  0  0  0  0  0  0  0  0  0  0
  -25.1020  -16.5586   13.6388 C   0  0  0  0  0  0  0  0  0  0  0  0
  -26.9721  -16.5497   11.9742 C   0  0  0  0  0  0  0  0  0  0  0  0
  -24.8656  -17.7888   11.4743 C   0  0  0  0  0  0  0  0  0  0  0  0
  -29.5160  -22.6293   12.8212 C   0  0  0  0  0  0  0  0  0  0  0  0
  -29.8763  -18.6830   23.7256 C   0  0  0  0  0  0  0  0  0  0  0  0
  -29.9880  -18.6231   22.2014 C   0  0  0  0  0  0  0  0  0  0  0  0
  -30.6879  -17.5900   24.4302 C   0  0  0  0  0  0  0  0  0  0  0  0
  -29.1985  -19.7437   21.5383 C   0  0  0  0  0  0  0  0  0  1  0  0
  -30.6288  -12.7525   22.9654 C   0  0  1  0  0  0  0  0  0  0  0  0
  -26.4638  -18.7085   13.2039 C   0  0  1  0  0  0  0  0  0  0  0  0
  -28.9776  -20.7648   11.2488 C   0  0  2  0  0  0  0  0  0  0  0  0
  -25.8547  -17.4123   12.5988 C   0  0  0  0  0  0  0  0  0  0  0  0
  -25.8959  -11.6385   20.5801 N   0  0  0  0  0  0  0  0  0  0  0  0
  -30.2139  -16.1901   24.1307 N   0  0  0  0  0  0  0  0  0  0  0  0
  -26.2513  -12.9241   20.4158 N   0  0  0  0  0  0  0  0  0  0  0  0
  -25.5903  -19.8451   15.2211 N   0  0  0  0  0  0  0  0  0  0  0  0
  -30.0595  -12.6004   20.5654 N   0  0  0  0  0  0  0  0  0  0  0  0
  -25.3913  -15.1308   20.3724 N   0  0  0  0  0  0  0  0  0  0  0  0
  -21.7354  -12.6033   21.1739 N   0  0  0  0  0  0  0  0  0  0  0  0
  -22.5695  -19.9163   17.2622 N   0  0  0  0  0  0  0  0  0  0  0  0
  -27.1594  -19.5501   12.2363 N   0  0  0  0  0  0  0  0  0  0  0  0
  -29.9999  -21.7307   11.7418 N   0  3  0  0  0  0  0  0  0  0  0  0
  -22.4837  -14.7478   20.8579 O   0  0  0  0  0  0  0  0  0  0  0  0
  -24.0097  -18.2684   16.4667 O   0  0  0  0  0  0  0  0  0  0  0  0
  -32.2318  -13.0626   21.2490 O   0  0  0  0  0  0  0  0  0  0  0  0
  -24.4941  -20.0298   13.1715 O   0  0  0  0  0  0  0  0  0  0  0  0
  -29.2117  -19.5357   13.3157 O   0  0  0  0  0  0  0  0  0  0  0  0
  -21.6089   -7.0548   21.6573 O   0  0  0  0  0  0  0  0  0  0  0  0
  -29.3296  -19.6250   20.1223 O   0  0  0  0  0  0  0  0  0  1  0  0
  -23.6753   -3.3109   25.1383 F   0  0  0  0  0  0  0  0  0  0  0  0
  -20.2201   -6.3119   23.9293 F   0  0  0  0  0  0  0  0  0  0  0  0
  -27.8439  -13.6039   23.9883 F   0  0  0  0  0  0  0  0  0  0  0  0
  1  2  1  0  0  0  0
  1  5  2  0  0  0  0
  2  6  2  0  0  0  0
  3  8  2  0  0  0  0
  3 17  1  0  0  0  0
  4  9  1  0  0  0  0
  4 17  2  0  0  0  0
  5 19  1  0  0  0  0
  6 21  1  0  0  0  0
  7 10  2  0  0  0  0
  7 20  1  0  0  0  0
  8 24  1  0  0  0  0
  9 24  2  0  0  0  0
 10 25  1  0  0  0  0
 11 12  2  0  0  0  0
 11 26  1  0  0  0  0
 12 27  1  0  0  0  0
 13 22  1  0  0  0  0
 13 25  2  0  0  0  0
 14 27  2  0  0  0  0
 14 28  1  0  0  0  0
 15 23  2  0  0  0  0
 15 64  1  0  0  0  0
 16 29  2  0  0  0  0
 16 64  1  0  0  0  0
 17 30  1  0  0  0  0
 18 30  1  0  0  0  0
 18 31  2  0  0  0  0
 18 32  1  0  0  0  0
 19 21  2  0  0  0  0
 19 37  1  0  0  0  0
 20 22  2  0  0  0  0
 20 38  1  0  0  0  0
 21 46  1  0  0  0  0
 22 39  1  0  0  0  0
 23 29  1  0  0  0  0
 23 59  1  0  0  0  0
 24 78  1  0  0  0  0
 25 79  1  0  0  0  0
 26 28  2  0  0  0  0
 26 78  1  0  0  0  0
 27 80  1  0  0  0  0
 28 81  1  0  0  0  0
 29 82  1  0  0  0  0
 30 63  2  0  0  0  0
 31 65  1  0  0  0  0
 31 68  1  0  0  0  0
 32 69  1  0  0  0  0
 32 73  2  0  0  0  0
 33 47  1  0  0  0  0
 33 70  1  0  0  0  0
 33 74  2  0  0  0  0
 34 59  1  0  0  0  0
 34 67  1  0  0  0  0
 34 75  2  0  0  0  0
 35 60  1  0  0  0  0
 35 66  1  0  0  0  0
 35 76  2  0  0  0  0
 36 61  1  0  0  0  0
 36 71  1  0  0  0  0
 36 77  2  0  0  0  0
 37 40  1  0  0  0  0
 38 47  1  0  0  0  0
 39 66  1  0  0  0  0
 40 42  1  0  0  0  0
 41 43  1  0  0  0  0
 41 44  1  0  0  0  0
 42 46  1  0  0  0  0
 43 48  1  0  0  0  0
 44 67  1  0  0  0  0
 45 48  1  0  0  0  0
 45 67  1  0  0  0  0
 46 70  1  0  0  0  0
 47 66  1  0  0  0  0
 48 65  1  0  0  0  0
 49 59  1  0  0  0  0
 50 61  1  0  0  0  0
 51 62  1  0  0  0  0
 52 62  1  0  0  0  0
 53 62  1  0  0  0  0
 54 72  1  0  0  0  0
 55 56  1  0  0  0  0
 55 57  1  0  0  0  0
 56 58  1  0  0  0  0
 57 64  1  0  0  0  0
 58 79  1  0  0  0  0
 60 62  1  0  0  0  0
 60 71  1  0  0  0  0
 61 72  1  0  0  0  0
 63 65  1  0  0  0  0
M  CHG  1  72   1
M  ISO  4  34 100  58 101  59 100  79 101
M  END
> <Batch ID>
0042

> <Smiles>
CNC(C)C(=O)NC(C(=O)N1Cc2cc([101O:1][101CH2:1]CCCn3cc(F)c([100CH:0](C)[100C:0](=O)N4CCCC(n5nc(-c6ccc(Oc7ccc(F)cc7F)cc6)c(C(N)=O)c5N)C4)c3)ccc2CC1C(=O)NC1CCCc2ccccc21)C(C)(C)C

> <Shape>
0.179

> <Color>
0.202

> <Negative vol penalty>
0.000

$$$$

  -OEChem-04052317123D

 84 92  0     1  0  0  0  0  0999 V2000
  -16.7024  -30.0488   24.5526 C   0  0  0  0  0  0  0  0  0  0  0  0
  -17.3195  -28.8173   24.7474 C   0  0  0  0  0  0  0  0  0  0  0  0
  -23.0896   -9.9335   21.5250 C   0  0  0  0  0  0  0  0  0  0  0  0
  -23.7097  -11.0612   23.5697 C   0  0  0  0  0  0  0  0  0  0  0  0
  -17.1086  -30.8726   23.5036 C   0  0  0  0  0  0  0  0  0  0  0  0
  -18.3425  -28.4083   23.8926 C   0  0  0  0  0  0  0  0  0  0  0  0
  -24.4202  -24.6165   23.8733 C   0  0  0  0  0  0  0  0  0  0  0  0
  -22.3182   -9.0308   22.2568 C   0  0  0  0  0  0  0  0  0  0  0  0
  -22.9383  -10.1585   24.3015 C   0  0  0  0  0  0  0  0  0  0  0  0
  -25.0351  -23.5708   23.1861 C   0  0  0  0  0  0  0  0  0  0  0  0
  -20.4731   -6.2100   23.6216 C   0  0  0  0  0  0  0  0  0  0  0  0
  -20.5805   -4.8562   23.3037 C   0  0  0  0  0  0  0  0  0  0  0  0
  -25.7075  -25.1113   21.4558 C   0  0  0  0  0  0  0  0  0  0  0  0
  -27.4880  -18.3063   20.3686 C   0  0  0  0  0  0  0  0  0  0  0  0
  -22.9378   -4.9196   23.8295 C   0  0  0  0  0  0  0  0  0  0  0  0
  -23.7854  -10.9487   22.1814 C   0  0  0  0  0  0  0  0  0  0  0  0
  -24.1641  -13.1079   20.8768 C   0  0  0  0  0  0  0  0  0  0  0  0
  -18.1437  -30.4777   22.6414 C   0  0  0  0  0  0  0  0  0  0  0  0
  -24.4350  -25.9176   23.3506 C   0  0  0  0  0  0  0  0  0  0  0  0
  -18.7620  -29.2270   22.8303 C   0  0  0  0  0  0  0  0  0  0  0  0
  -25.0943  -26.1722   22.1395 C   0  0  0  0  0  0  0  0  0  0  0  0
  -28.3297  -18.8299   19.3937 C   0  0  0  0  0  0  0  0  0  0  0  0
  -26.7812  -19.1650   21.2031 C   0  0  0  0  0  0  0  0  0  0  0  0
  -22.2425   -9.1432   23.6450 C   0  0  0  0  0  0  0  0  0  0  0  0
  -25.6764  -23.8176   21.9757 C   0  0  0  0  0  0  0  0  0  0  0  0
  -21.5981   -6.9188   24.0434 C   0  0  0  0  0  0  0  0  0  0  0  0
  -21.8128   -4.2109   23.4077 C   0  0  0  0  0  0  0  0  0  0  0  0
  -22.8304   -6.2736   24.1474 C   0  0  0  0  0  0  0  0  0  0  0  0
  -24.5829  -11.8812   21.4260 C   0  0  0  0  0  0  0  0  0  0  0  0
  -28.4289  -20.2084   19.2948 C   0  0  0  0  0  0  0  0  0  0  0  0
  -26.9499  -20.5284   21.0234 C   0  0  0  0  0  0  0  0  0  0  0  0
  -25.2851  -13.6090   20.2614 C   0  0  0  0  0  0  0  0  0  0  0  0
  -22.8770  -13.7381   20.9191 C   0  0  0  0  0  0  0  0  0  0  0  0
  -22.2101  -27.9742   22.3893 C   0  0  0  0  0  0  0  0  0  0  0  0
  -24.7429  -29.9805   22.1033 C   0  0  0  0  0  0  0  0  0  0  0  0
  -28.1085  -30.3557   21.6805 C   0  0  0  0  0  0  0  0  0  0  0  0
  -30.7594  -14.6945   20.2551 C   0  0  0  0  0  0  0  0  0  0  0  0
  -18.5161  -31.3814   21.4928 C   0  0  0  0  0  0  0  0  0  0  0  0
  -23.7901  -27.0395   24.1173 C   0  0  0  0  0  0  0  0  0  0  0  0
  -25.1561  -27.5549   21.5457 C   0  0  0  0  0  0  0  0  0  0  0  0
  -19.8620  -31.0381   20.8594 C   0  0  0  0  0  0  0  0  0  0  0  0
  -29.7393  -11.4331   19.2552 C   0  0  0  0  0  0  0  0  0  0  0  0
  -19.9714  -29.5357   20.6195 C   0  0  0  0  0  0  0  0  0  0  0  0
  -28.2749  -11.3582   19.6910 C   0  0  0  0  0  0  0  0  0  0  0  0
  -30.5849  -12.2234   20.2514 C   0  0  0  0  0  0  0  0  0  0  0  0
  -28.6119  -13.4976   20.9981 C   0  0  0  0  0  0  0  0  0  0  0  0
  -19.8922  -28.7591   21.9394 C   0  0  1  0  0  0  0  0  0  0  0  0
  -23.4233  -28.2309   23.2377 C   0  0  1  0  0  0  0  0  0  0  0  0
  -27.7085  -12.7579   19.9965 C   0  0  2  0  0  0  0  0  0  0  0  0
  -29.3184  -20.8279   18.2671 C   0  0  0  0  0  0  0  0  0  0  0  0
  -24.5560  -18.1091   21.6724 C   0  0  0  0  0  0  0  0  0  0  0  0
  -29.8803  -32.1174   21.4476 C   0  0  0  0  0  0  0  0  0  0  0  0
  -23.8557  -30.4894   19.2286 C   0  0  0  0  0  0  0  0  0  0  0  0
  -26.1192  -31.4584   18.7752 C   0  0  0  0  0  0  0  0  0  0  0  0
  -24.6217  -32.5268   20.4601 C   0  0  0  0  0  0  0  0  0  0  0  0
  -29.5123  -29.4305   24.1161 C   0  0  0  0  0  0  0  0  0  0  0  0
  -25.8779  -18.6103   22.2499 C   0  0  0  0  0  0  0  0  0  0  0  0
  -29.0896  -17.9153   18.4964 C   0  0  0  0  0  0  0  0  0  0  0  0
  -26.2113  -21.5017   21.8944 C   0  0  0  0  0  0  0  0  0  1  0  0
  -30.5681  -17.7174   18.8880 C   0  0  0  0  0  0  0  0  0  0  0  0
  -30.7763  -17.1758   20.3006 C   0  0  0  0  0  0  0  0  0  0  0  0
  -25.7219  -30.3165   21.0044 C   0  0  1  0  0  0  0  0  0  0  0  0
  -29.1260  -31.2138   22.4104 C   0  0  2  0  0  0  0  0  0  0  0  0
  -25.0770  -31.1712   19.8771 C   0  0  0  0  0  0  0  0  0  0  0  0
  -25.8694  -11.6190   21.1811 N   0  0  0  0  0  0  0  0  0  0  0  0
  -27.7583  -21.0742   20.0874 N   0  0  0  0  0  0  0  0  0  0  0  0
  -26.2688  -12.6878   20.4710 N   0  0  0  0  0  0  0  0  0  0  0  0
  -24.5052  -28.6175   22.3298 N   0  0  0  0  0  0  0  0  0  0  0  0
  -29.9943  -13.5414   20.4962 N   0  0  0  0  0  0  0  0  0  0  0  0
  -25.5155  -14.7434   19.5667 N   0  0  0  0  0  0  0  0  0  0  0  0
  -21.8357  -13.0861   21.5936 N   0  0  0  0  0  0  0  0  0  0  0  0
  -21.1547  -28.8291   22.6435 N   0  0  0  0  0  0  0  0  0  0  0  0
  -26.8642  -30.9493   21.6548 N   0  0  0  0  0  0  0  0  0  0  0  0
  -30.1217  -15.9031   20.5069 N   0  0  0  0  0  0  0  0  0  0  0  0
  -30.1147  -30.3539   23.1204 N   0  3  0  0  0  0  0  0  0  0  0  0
  -22.6525  -14.8388   20.3608 O   0  0  0  0  0  0  0  0  0  0  0  0
  -22.2305  -27.0686   21.5640 O   0  0  0  0  0  0  0  0  0  0  0  0
  -24.2141  -30.8937   22.7422 O   0  0  0  0  0  0  0  0  0  0  0  0
  -28.3903  -29.2693   21.1797 O   0  0  0  0  0  0  0  0  0  0  0  0
  -31.9226  -14.6503   19.8406 O   0  0  0  0  0  0  0  0  0  0  0  0
  -21.4897   -8.2626   24.3595 O   0  0  0  0  0  0  0  0  0  0  0  0
  -26.2768  -22.7986   21.3026 O   0  0  0  0  0  0  0  0  0  1  0  0
  -21.9154   -2.9104   23.1038 F   0  0  0  0  0  0  0  0  0  0  0  0
  -23.9144   -6.9489   24.5532 F   0  0  0  0  0  0  0  0  0  0  0  0
  1  2  1  0  0  0  0
  1  5  2  0  0  0  0
  2  6  2  0  0  0  0
  3  8  2  0  0  0  0
  3 16  1  0  0  0  0
  4  9  1  0  0  0  0
  4 16  2  0  0  0  0
  5 18  1  0  0  0  0
  6 20  1  0  0  0  0
  7 10  2  0  0  0  0
  7 19  1  0  0  0  0
  8 24  1  0  0  0  0
  9 24  2  0  0  0  0
 10 25  1  0  0  0  0
 11 12  2  0  0  0  0
 11 26  1  0  0  0  0
 12 27  1  0  0  0  0
 13 21  1  0  0  0  0
 13 25  2  0  0  0  0
 14 22  2  0  0  0  0
 14 23  1  0  0  0  0
 15 27  2  0  0  0  0
 15 28  1  0  0  0  0
 16 29  1  0  0  0  0
 17 29  1  0  0  0  0
 17 32  2  0  0  0  0
 17 33  1  0  0  0  0
 18 20  2  0  0  0  0
 18 38  1  0  0  0  0
 19 21  2  0  0  0  0
 19 39  1  0  0  0  0
 20 47  1  0  0  0  0
 21 40  1  0  0  0  0
 22 30  1  0  0  0  0
 22 58  1  0  0  0  0
 23 31  2  0  0  0  0
 23 57  1  0  0  0  0
 24 81  1  0  0  0  0
 25 82  1  0  0  0  0
 26 28  2  0  0  0  0
 26 81  1  0  0  0  0
 27 83  1  0  0  0  0
 28 84  1  0  0  0  0
 29 65  2  0  0  0  0
 30 50  1  0  0  0  0
 30 66  2  0  0  0  0
 31 59  1  0  0  0  0
 31 66  1  0  0  0  0
 32 67  1  0  0  0  0
 32 70  1  0  0  0  0
 33 71  1  0  0  0  0
 33 76  2  0  0  0  0
 34 48  1  0  0  0  0
 34 72  1  0  0  0  0
 34 77  2  0  0  0  0
 35 62  1  0  0  0  0
 35 68  1  0  0  0  0
 35 78  2  0  0  0  0
 36 63  1  0  0  0  0
 36 73  1  0  0  0  0
 36 79  2  0  0  0  0
 37 69  1  0  0  0  0
 37 74  1  0  0  0  0
 37 80  2  0  0  0  0
 38 41  1  0  0  0  0
 39 48  1  0  0  0  0
 40 68  1  0  0  0  0
 41 43  1  0  0  0  0
 42 44  1  0  0  0  0
 42 45  1  0  0  0  0
 43 47  1  0  0  0  0
 44 49  1  0  0  0  0
 45 69  1  0  0  0  0
 46 49  1  0  0  0  0
 46 69  1  0  0  0  0
 47 72  1  0  0  0  0
 48 68  1  0  0  0  0
 49 67  1  0  0  0  0
 51 57  1  0  0  0  0
 52 63  1  0  0  0  0
 53 64  1  0  0  0  0
 54 64  1  0  0  0  0
 55 64  1  0  0  0  0
 56 75  1  0  0  0  0
 58 60  1  0  0  0  0
 59 82  1  0  0  0  0
 60 61  1  0  0  0  0
 61 74  1  0  0  0  0
 62 64  1  0  0  0  0
 62 73  1  0  0  0  0
 63 75  1  0  0  0  0
 65 67  1  0  0  0  0
M  CHG  1  75   1
M  ISO  4  37 100  59 101  74 100  82 101
M  END
> <Batch ID>
0042

> <Smiles>
CCc1cc(CCC[100NH:0][100C:0](=O)N2CCCC(n3nc(-c4ccc(Oc5ccc(F)cc5F)cc4)c(C(N)=O)c3N)C2)c(C)nc1[101CH2:1][101O:1]c1ccc2c(c1)CN(C(=O)C(NC(=O)C(C)NC)C(C)(C)C)C(C(=O)NC1CCCc3ccccc31)C2

> <Shape>
0.296

> <Color>
0.171

> <Negative vol penalty>
0.000

$$$$

  -OEChem-04052317123D

 80 88  0     1  0  0  0  0  0999 V2000
  -22.0748  -12.9177   26.0933 C   0  0  0  0  0  0  0  0  0  0  0  0
  -22.8448  -13.8614   25.4210 C   0  0  0  0  0  0  0  0  0  0  0  0
  -23.1001   -9.8622   21.4202 C   0  0  0  0  0  0  0  0  0  0  0  0
  -23.8893  -10.7054   23.5423 C   0  0  0  0  0  0  0  0  0  0  0  0
  -20.7628  -13.2201   26.4553 C   0  0  0  0  0  0  0  0  0  0  0  0
  -22.3028  -15.1078   25.1094 C   0  0  0  0  0  0  0  0  0  0  0  0
  -25.4795  -18.9175   26.1292 C   0  0  0  0  0  0  0  0  0  0  0  0
  -22.3870   -8.8630   22.0823 C   0  0  0  0  0  0  0  0  0  0  0  0
  -23.1761   -9.7061   24.2045 C   0  0  0  0  0  0  0  0  0  0  0  0
  -26.5113  -19.1469   25.2200 C   0  0  0  0  0  0  0  0  0  0  0  0
  -20.6472   -5.8700   23.1954 C   0  0  0  0  0  0  0  0  0  0  0  0
  -20.7227   -4.5728   22.6883 C   0  0  0  0  0  0  0  0  0  0  0  0
  -28.6648  -18.7711   19.2347 C   0  0  0  0  0  0  0  0  0  0  0  0
  -25.2438  -20.9540   24.2469 C   0  0  0  0  0  0  0  0  0  0  0  0
  -23.1152   -4.5804   23.0248 C   0  0  0  0  0  0  0  0  0  0  0  0
  -28.0990  -19.9524   19.6612 C   0  0  0  0  0  0  0  0  0  0  0  0
  -29.7417  -19.4418   21.0950 C   0  0  0  0  0  0  0  0  0  0  0  0
  -23.8513  -10.7834   22.1501 C   0  0  0  0  0  0  0  0  0  0  0  0
  -24.1318  -13.1027   21.1254 C   0  0  0  0  0  0  0  0  0  0  0  0
  -20.2077  -14.4744   26.1565 C   0  0  0  0  0  0  0  0  0  0  0  0
  -24.3155  -19.6989   26.0969 C   0  0  0  0  0  0  0  0  0  0  0  0
  -20.9817  -15.4268   25.4666 C   0  0  0  0  0  0  0  0  0  0  0  0
  -24.1998  -20.7342   25.1584 C   0  0  0  0  0  0  0  0  0  0  0  0
  -29.7041  -18.4481   20.1417 C   0  0  0  0  0  0  0  0  0  0  0  0
  -22.4250   -8.7849   23.4745 C   0  0  0  0  0  0  0  0  0  0  0  0
  -26.3923  -20.1634   24.2768 C   0  0  0  0  0  0  0  0  0  0  0  0
  -21.8057   -6.5225   23.6171 C   0  0  0  0  0  0  0  0  0  0  0  0
  -21.9566   -3.9280   22.6031 C   0  0  0  0  0  0  0  0  0  0  0  0
  -23.0397   -5.8777   23.5319 C   0  0  0  0  0  0  0  0  0  0  0  0
  -24.5887  -11.8156   21.4667 C   0  0  0  0  0  0  0  0  0  0  0  0
  -25.2012  -13.6906   20.4951 C   0  0  0  0  0  0  0  0  0  0  0  0
  -22.8550  -13.7123   21.3575 C   0  0  0  0  0  0  0  0  0  0  0  0
  -21.2325  -19.1111   25.5935 C   0  0  0  0  0  0  0  0  0  0  0  0
  -30.6849  -14.7779   20.3065 C   0  0  0  0  0  0  0  0  0  0  0  0
  -20.9064  -22.2384   26.3909 C   0  0  0  0  0  0  0  0  0  0  0  0
  -22.3259  -25.3336   26.6185 C   0  0  0  0  0  0  0  0  0  0  0  0
  -18.7695  -14.7384   26.5263 C   0  0  0  0  0  0  0  0  0  0  0  0
  -23.2230  -19.4561   27.1018 C   0  0  0  0  0  0  0  0  0  0  0  0
  -22.9793  -21.6145   25.0952 C   0  0  0  0  0  0  0  0  0  0  0  0
  -18.3930  -16.2173   26.4905 C   0  0  0  0  0  0  0  0  0  0  0  0
  -29.5425  -11.7199   18.8288 C   0  0  0  0  0  0  0  0  0  0  0  0
  -18.9075  -16.8684   25.2106 C   0  0  0  0  0  0  0  0  0  0  0  0
  -28.1257  -11.5625   19.3792 C   0  0  0  0  0  0  0  0  0  0  0  0
  -30.4735  -12.3556   19.8565 C   0  0  0  0  0  0  0  0  0  0  0  0
  -28.5716  -13.5107   20.9384 C   0  0  0  0  0  0  0  0  0  0  0  0
  -20.4374  -16.7989   25.1328 C   0  0  1  0  0  0  0  0  0  0  0  0
  -21.8643  -19.9785   26.6452 C   0  0  1  0  0  0  0  0  0  0  0  0
  -27.5914  -12.9003   19.9210 C   0  0  2  0  0  0  0  0  0  0  0  0
  -30.3304  -16.1175   22.3399 C   0  0  0  0  0  0  0  0  0  0  0  0
  -21.7995  -27.6992   27.2698 C   0  0  0  0  0  0  0  0  0  0  0  0
  -19.3855  -22.6181   23.7732 C   0  0  0  0  0  0  0  0  0  0  0  0
  -19.7206  -25.0871   24.0175 C   0  0  0  0  0  0  0  0  0  0  0  0
  -18.4120  -23.8323   25.7309 C   0  0  0  0  0  0  0  0  0  0  0  0
  -24.3683  -25.3210   28.7604 C   0  0  0  0  0  0  0  0  0  0  0  0
  -30.5853  -17.2665   20.0777 C   0  0  0  0  0  0  0  0  0  0  0  0
  -28.4570  -21.5983   21.5859 C   0  0  0  0  0  0  0  0  0  0  0  0
  -27.2090  -21.4469   22.4489 C   0  0  0  0  0  0  0  0  0  1  0  0
  -30.0459  -16.0335   20.8440 C   0  0  1  0  0  0  0  0  0  0  0  0
  -20.9216  -23.5427   25.6310 C   0  0  1  0  0  0  0  0  0  0  0  0
  -22.3372  -26.3566   27.7400 C   0  0  2  0  0  0  0  0  0  0  0  0
  -19.6322  -23.7524   24.7878 C   0  0  0  0  0  0  0  0  0  0  0  0
  -25.8499  -11.5980   21.0847 N   0  0  0  0  0  0  0  0  0  0  0  0
  -28.7614  -20.3506   20.7930 N   0  0  0  0  0  0  0  0  0  0  0  0
  -26.1947  -12.7563   20.4968 N   0  0  0  0  0  0  0  0  0  0  0  0
  -21.9357  -21.3335   26.0948 N   0  0  0  0  0  0  0  0  0  0  0  0
  -29.9200  -13.6127   20.3633 N   0  0  0  0  0  0  0  0  0  0  0  0
  -25.3791  -14.9106   19.9451 N   0  0  0  0  0  0  0  0  0  0  0  0
  -21.8693  -12.9674   22.0191 N   0  0  0  0  0  0  0  0  0  0  0  0
  -21.0331  -17.8022   25.9889 N   0  0  0  0  0  0  0  0  0  0  0  0
  -21.1660  -24.5880   26.6190 N   0  0  0  0  0  0  0  0  0  0  0  0
  -23.7251  -26.5568   28.2445 N   0  3  0  0  0  0  0  0  0  0  0  0
  -22.5905  -14.8771   20.9744 O   0  0  0  0  0  0  0  0  0  0  0  0
  -20.9458  -19.5940   24.5043 O   0  0  0  0  0  0  0  0  0  0  0  0
  -31.8288  -14.8335   19.8475 O   0  0  0  0  0  0  0  0  0  0  0  0
  -20.0183  -22.0331   27.2220 O   0  0  0  0  0  0  0  0  0  0  0  0
  -23.2517  -25.2108   25.8195 O   0  0  0  0  0  0  0  0  0  0  0  0
  -21.7291   -7.8101   24.1210 O   0  0  0  0  0  0  0  0  0  0  0  0
  -27.3976  -20.3890   23.3878 O   0  0  0  0  0  0  0  0  0  1  0  0
  -22.0288   -2.6817   22.1176 F   0  0  0  0  0  0  0  0  0  0  0  0
  -24.1559   -6.4990   23.9366 F   0  0  0  0  0  0  0  0  0  0  0  0
  1  2  1  0  0  0  0
  1  5  2  0  0  0  0
  2  6  2  0  0  0  0
  3  8  2  0  0  0  0
  3 18  1  0  0  0  0
  4  9  1  0  0  0  0
  4 18  2  0  0  0  0
  5 20  1  0  0  0  0
  6 22  1  0  0  0  0
  7 10  2  0  0  0  0
  7 21  1  0  0  0  0
  8 25  1  0  0  0  0
  9 25  2  0  0  0  0
 10 26  1  0  0  0  0
 11 12  2  0  0  0  0
 11 27  1  0  0  0  0
 12 28  1  0  0  0  0
 13 16  2  0  0  0  0
 13 24  1  0  0  0  0
 14 23  1  0  0  0  0
 14 26  2  0  0  0  0
 15 28  2  0  0  0  0
 15 29  1  0  0  0  0
 16 63  1  0  0  0  0
 17 24  2  0  0  0  0
 17 63  1  0  0  0  0
 18 30  1  0  0  0  0
 19 30  1  0  0  0  0
 19 31  2  0  0  0  0
 19 32  1  0  0  0  0
 20 22  2  0  0  0  0
 20 37  1  0  0  0  0
 21 23  2  0  0  0  0
 21 38  1  0  0  0  0
 22 46  1  0  0  0  0
 23 39  1  0  0  0  0
 24 55  1  0  0  0  0
 25 77  1  0  0  0  0
 26 78  1  0  0  0  0
 27 29  2  0  0  0  0
 27 77  1  0  0  0  0
 28 79  1  0  0  0  0
 29 80  1  0  0  0  0
 30 62  2  0  0  0  0
 31 64  1  0  0  0  0
 31 67  1  0  0  0  0
 32 68  1  0  0  0  0
 32 72  2  0  0  0  0
 33 47  1  0  0  0  0
 33 69  1  0  0  0  0
 33 73  2  0  0  0  0
 34 58  1  0  0  0  0
 34 66  1  0  0  0  0
 34 74  2  0  0  0  0
 35 59  1  0  0  0  0
 35 65  1  0  0  0  0
 35 75  2  0  0  0  0
 36 60  1  0  0  0  0
 36 70  1  0  0  0  0
 36 76  2  0  0  0  0
 37 40  1  0  0  0  0
 38 47  1  0  0  0  0
 39 65  1  0  0  0  0
 40 42  1  0  0  0  0
 41 43  1  0  0  0  0
 41 44  1  0  0  0  0
 42 46  1  0  0  0  0
 43 48  1  0  0  0  0
 44 66  1  0  0  0  0
 45 48  1  0  0  0  0
 45 66  1  0  0  0  0
 46 69  1  0  0  0  0
 47 65  1  0  0  0  0
 48 64  1  0  0  0  0
 49 58  1  0  0  0  0
 50 60  1  0  0  0  0
 51 61  1  0  0  0  0
 52 61  1  0  0  0  0
 53 61  1  0  0  0  0
 54 71  1  0  0  0  0
 55 58  1  0  0  0  0
 56 57  1  0  0  0  0
 56 63  1  0  0  0  0
 57 78  1  0  0  0  0
 59 61  1  0  0  0  0
 59 70  1  0  0  0  0
 60 71  1  0  0  0  0
 62 64  1  0  0  0  0
M  CHG  1  71   1
M  ISO  4  34 100  57 101  58 100  78 101
M  END
> <Batch ID>
0042

> <Smiles>
CNC(C)C(=O)NC(C(=O)N1Cc2cc([101O:1][101CH2:1]Cn3ccc(C[100CH:0](C)[100C:0](=O)N4CCCC(n5nc(-c6ccc(Oc7ccc(F)cc7F)cc6)c(C(N)=O)c5N)C4)c3)ccc2CC1C(=O)NC1CCCc2ccccc21)C(C)(C)C

> <Shape>
0.191

> <Color>
0.162

> <Negative vol penalty>
0.000

$$$$

  -OEChem-04052317123D

 89 97  0     1  0  0  0  0  0999 V2000
  -28.4141  -36.0877   20.6320 C   0  0  0  0  0  0  0  0  0  0  0  0
  -28.6491  -34.7184   20.7054 C   0  0  0  0  0  0  0  0  0  0  0  0
  -24.4634  -14.0631   20.0034 C   0  0  0  0  0  0  0  0  0  0  0  0
  -26.2071  -14.2448   21.6658 C   0  0  0  0  0  0  0  0  0  0  0  0
  -27.3590  -36.6520   21.3476 C   0  0  0  0  0  0  0  0  0  0  0  0
  -27.8297  -33.9129   21.4954 C   0  0  0  0  0  0  0  0  0  0  0  0
  -26.4597  -29.6405   19.1471 C   0  0  0  0  0  0  0  0  0  0  0  0
  -23.9087  -12.9911   20.7024 C   0  0  0  0  0  0  0  0  0  0  0  0
  -25.6524  -13.1728   22.3648 C   0  0  0  0  0  0  0  0  0  0  0  0
  -27.4020  -28.6145   19.0910 C   0  0  0  0  0  0  0  0  0  0  0  0
  -22.2395   -9.9748   21.8599 C   0  0  0  0  0  0  0  0  0  0  0  0
  -21.8445   -8.8556   21.1271 C   0  0  0  0  0  0  0  0  0  0  0  0
  -26.3056  -27.5147   20.9369 C   0  0  0  0  0  0  0  0  0  0  0  0
  -30.4073  -24.1011   18.6039 C   0  0  0  0  0  0  0  0  0  0  0  0
  -24.1131   -8.5649   20.3485 C   0  0  0  0  0  0  0  0  0  0  0  0
  -25.6126  -14.6900   20.4851 C   0  0  0  0  0  0  0  0  0  0  0  0
  -25.8893  -17.1635   19.9258 C   0  0  0  0  0  0  0  0  0  0  0  0
  -26.5203  -35.8516   22.1391 C   0  0  0  0  0  0  0  0  0  0  0  0
  -25.4380  -29.6168   20.1072 C   0  0  0  0  0  0  0  0  0  0  0  0
  -26.7632  -34.4673   22.2233 C   0  0  0  0  0  0  0  0  0  0  0  0
  -25.3501  -28.5403   21.0015 C   0  0  0  0  0  0  0  0  0  0  0  0
  -30.3949  -24.5566   19.9175 C   0  0  0  0  0  0  0  0  0  0  0  0
  -30.2012  -23.6550   20.9582 C   0  0  0  0  0  0  0  0  0  0  0  0
  -24.5031  -12.5459   21.8831 C   0  0  0  0  0  0  0  0  0  0  0  0
  -27.3268  -27.5528   19.9878 C   0  0  0  0  0  0  0  0  0  0  0  0
  -23.5713  -10.3891   21.8369 C   0  0  0  0  0  0  0  0  0  0  0  0
  -22.7813   -8.1506   20.3714 C   0  0  0  0  0  0  0  0  0  0  0  0
  -24.5081   -9.6841   21.0812 C   0  0  0  0  0  0  0  0  0  0  0  0
  -26.1864  -15.7971   19.7631 C   0  0  0  0  0  0  0  0  0  0  0  0
  -30.2229  -22.7453   18.3858 C   0  0  0  0  0  0  0  0  0  0  0  0
  -30.0259  -22.3192   20.6347 C   0  0  0  0  0  0  0  0  0  0  0  0
  -26.6940  -17.8008   19.0132 C   0  0  0  0  0  0  0  0  0  0  0  0
  -24.9683  -17.7998   20.8217 C   0  0  0  0  0  0  0  0  0  0  0  0
  -24.5922  -31.4931   22.5296 C   0  0  0  0  0  0  0  0  0  0  0  0
  -22.0497  -29.4848   22.6880 C   0  0  0  0  0  0  0  0  0  0  0  0
  -20.7442  -26.4047   22.0130 C   0  0  0  0  0  0  0  0  0  0  0  0
  -31.6418  -18.4727   16.5206 C   0  0  0  0  0  0  0  0  0  0  0  0
  -25.4214  -36.5139   22.9319 C   0  0  0  0  0  0  0  0  0  0  0  0
  -24.4135  -30.7177   20.1373 C   0  0  0  0  0  0  0  0  0  0  0  0
  -24.2606  -28.4575   22.0381 C   0  0  0  0  0  0  0  0  0  0  0  0
  -24.3698  -35.5360   23.4499 C   0  0  0  0  0  0  0  0  0  0  0  0
  -29.4917  -15.9456   15.2294 C   0  0  0  0  0  0  0  0  0  0  0  0
  -25.0379  -34.3179   24.0799 C   0  0  0  0  0  0  0  0  0  0  0  0
  -28.4199  -15.7903   16.3096 C   0  0  0  0  0  0  0  0  0  0  0  0
  -30.8664  -16.2225   15.8340 C   0  0  0  0  0  0  0  0  0  0  0  0
  -29.8423  -17.2085   17.8472 C   0  0  0  0  0  0  0  0  0  0  0  0
  -25.8811  -33.5568   23.0498 C   0  0  1  0  0  0  0  0  0  0  0  0
  -23.7190  -30.8507   21.4891 C   0  0  1  0  0  0  0  0  0  0  0  0
  -28.4286  -16.9835   17.2839 C   0  0  2  0  0  0  0  0  0  0  0  0
  -31.5789  -24.8952   24.3449 C   0  0  0  0  0  0  0  0  0  0  0  0
  -29.8190  -17.4143   21.7404 C   0  0  0  0  0  0  0  0  0  0  0  0
  -18.6532  -25.0464   22.2957 C   0  0  0  0  0  0  0  0  0  0  0  0
  -22.7227  -29.0666   25.6345 C   0  0  0  0  0  0  0  0  0  0  0  0
  -21.2496  -27.0423   25.6118 C   0  0  0  0  0  0  0  0  0  0  0  0
  -20.2808  -29.2930   25.1441 C   0  0  0  0  0  0  0  0  0  0  0  0
  -20.4068  -26.1018   19.0883 C   0  0  0  0  0  0  0  0  0  0  0  0
  -30.5904  -26.0291   20.1855 C   0  0  0  0  0  0  0  0  0  0  0  0
  -30.1856  -24.1144   22.3774 C   0  0  0  0  0  0  0  0  0  0  0  0
  -30.2316  -22.2206   16.9888 C   0  0  0  0  0  0  0  0  0  0  0  0
  -29.8151  -21.3033   21.7095 C   0  0  0  0  0  0  0  0  0  0  0  0
  -31.5992  -24.3944   22.9094 C   0  0  0  0  0  0  0  0  0  0  0  0
  -29.7092  -18.8324   22.2775 C   0  0  0  0  0  0  0  0  0  0  0  0
  -31.6216  -21.7956   16.4764 C   0  0  0  0  0  0  0  0  0  0  0  0
  -29.9645  -19.8678   21.1822 C   0  0  0  0  0  0  0  0  0  0  0  0
  -32.3043  -20.7251   17.3251 C   0  0  0  0  0  0  0  0  0  0  0  0
  -29.5525  -26.8906   19.4744 C   0  0  0  0  0  0  0  0  0  1  0  0
  -21.7520  -28.1916   23.4078 C   0  0  1  0  0  0  0  0  0  0  0  0
  -19.4284  -25.9843   21.3835 C   0  0  2  0  0  0  0  0  0  0  0  0
  -21.5231  -28.4006   24.9314 C   0  0  0  0  0  0  0  0  0  0  0  0
  -27.1078  -15.5783   18.8213 N   0  0  0  0  0  0  0  0  0  0  0  0
  -30.0319  -21.8394   19.3708 N   0  0  0  0  0  0  0  0  0  0  0  0
  -27.3966  -16.8158   18.3838 N   0  0  0  0  0  0  0  0  0  0  0  0
  -23.2863  -29.5613   22.0316 N   0  0  0  0  0  0  0  0  0  0  0  0
  -30.8063  -17.3665   16.7469 N   0  0  0  0  0  0  0  0  0  0  0  0
  -26.8620  -19.1021   18.6958 N   0  0  0  0  0  0  0  0  0  0  0  0
  -24.2205  -16.9961   21.6929 N   0  0  0  0  0  0  0  0  0  0  0  0
  -25.0317  -32.7588   22.1917 N   0  0  0  0  0  0  0  0  0  0  0  0
  -20.6216  -27.5875   22.7110 N   0  0  0  0  0  0  0  0  0  0  0  0
  -31.5170  -19.5167   17.4291 N   0  0  0  0  0  0  0  0  0  0  0  0
  -19.6728  -25.2861   20.0897 N   0  3  0  0  0  0  0  0  0  0  0  0
  -24.8012  -19.0429   20.8374 O   0  0  0  0  0  0  0  0  0  0  0  0
  -24.8470  -30.8859   23.5630 O   0  0  0  0  0  0  0  0  0  0  0  0
  -21.2128  -30.3909   22.7013 O   0  0  0  0  0  0  0  0  0  0  0  0
  -21.7766  -25.7475   21.9001 O   0  0  0  0  0  0  0  0  0  0  0  0
  -32.4361  -18.5283   15.5756 O   0  0  0  0  0  0  0  0  0  0  0  0
  -23.9620  -11.5000   22.5656 O   0  0  0  0  0  0  0  0  0  0  0  0
  -28.2456  -26.5504   19.9357 O   0  0  0  0  0  0  0  0  0  1  0  0
  -22.4022   -7.0750   19.6690 F   0  0  0  0  0  0  0  0  0  0  0  0
  -25.7891  -10.0766   21.0562 F   0  0  0  0  0  0  0  0  0  0  0  0
  1  2  1  0  0  0  0
  1  5  2  0  0  0  0
  2  6  2  0  0  0  0
  3  8  2  0  0  0  0
  3 16  1  0  0  0  0
  4  9  1  0  0  0  0
  4 16  2  0  0  0  0
  5 18  1  0  0  0  0
  6 20  1  0  0  0  0
  7 10  2  0  0  0  0
  7 19  1  0  0  0  0
  8 24  1  0  0  0  0
  9 24  2  0  0  0  0
 10 25  1  0  0  0  0
 11 12  2  0  0  0  0
 11 26  1  0  0  0  0
 12 27  1  0  0  0  0
 13 21  1  0  0  0  0
 13 25  2  0  0  0  0
 14 22  2  0  0  0  0
 14 30  1  0  0  0  0
 15 27  2  0  0  0  0
 15 28  1  0  0  0  0
 16 29  1  0  0  0  0
 17 29  1  0  0  0  0
 17 32  2  0  0  0  0
 17 33  1  0  0  0  0
 18 20  2  0  0  0  0
 18 38  1  0  0  0  0
 19 21  2  0  0  0  0
 19 39  1  0  0  0  0
 20 47  1  0  0  0  0
 21 40  1  0  0  0  0
 22 23  1  0  0  0  0
 22 57  1  0  0  0  0
 23 31  2  0  0  0  0
 23 58  1  0  0  0  0
 24 86  1  0  0  0  0
 25 87  1  0  0  0  0
 26 28  2  0  0  0  0
 26 86  1  0  0  0  0
 27 88  1  0  0  0  0
 28 89  1  0  0  0  0
 29 70  2  0  0  0  0
 30 59  1  0  0  0  0
 30 71  2  0  0  0  0
 31 60  1  0  0  0  0
 31 71  1  0  0  0  0
 32 72  1  0  0  0  0
 32 75  1  0  0  0  0
 33 76  1  0  0  0  0
 33 81  2  0  0  0  0
 34 48  1  0  0  0  0
 34 77  1  0  0  0  0
 34 82  2  0  0  0  0
 35 67  1  0  0  0  0
 35 73  1  0  0  0  0
 35 83  2  0  0  0  0
 36 68  1  0  0  0  0
 36 78  1  0  0  0  0
 36 84  2  0  0  0  0
 37 74  1  0  0  0  0
 37 79  1  0  0  0  0
 37 85  2  0  0  0  0
 38 41  1  0  0  0  0
 39 48  1  0  0  0  0
 40 73  1  0  0  0  0
 41 43  1  0  0  0  0
 42 44  1  0  0  0  0
 42 45  1  0  0  0  0
 43 47  1  0  0  0  0
 44 49  1  0  0  0  0
 45 74  1  0  0  0  0
 46 49  1  0  0  0  0
 46 74  1  0  0  0  0
 47 77  1  0  0  0  0
 48 73  1  0  0  0  0
 49 72  1  0  0  0  0
 50 61  1  0  0  0  0
 51 62  1  0  0  0  0
 52 68  1  0  0  0  0
 53 69  1  0  0  0  0
 54 69  1  0  0  0  0
 55 69  1  0  0  0  0
 56 80  1  0  0  0  0
 57 66  1  0  0  0  0
 58 61  1  0  0  0  0
 59 63  1  0  0  0  0
 60 64  1  0  0  0  0
 62 64  1  0  0  0  0
 63 65  1  0  0  0  0
 65 79  1  0  0  0  0
 66 87  1  0  0  0  0
 67 69  1  0  0  0  0
 67 78  1  0  0  0  0
 68 80  1  0  0  0  0
 70 72  1  0  0  0  0
M  CHG  1  80   1
M  ISO  4  37 100  66 101  79 100  87 101
M  END
> <Batch ID>
0042

> <Smiles>
CCCCc1nc(CCC[100NH:0][100C:0](=O)N2CCCC(n3nc(-c4ccc(Oc5ccc(F)cc5F)cc4)c(C(N)=O)c3N)C2)cc(C[101CH2:1][101O:1]c2ccc3c(c2)CN(C(=O)C(NC(=O)C(C)NC)C(C)(C)C)C(C(=O)NC2CCCc4ccccc42)C3)c1CCC

> <Shape>
0.291

> <Color>
0.073

> <Negative vol penalty>
0.000

$$$$

  -OEChem-04052317123D

 82 90  0     1  0  0  0  0  0999 V2000
  -24.4047  -30.2561   17.6879 C   0  0  0  0  0  0  0  0  0  0  0  0
  -23.7437  -29.0407   17.5425 C   0  0  0  0  0  0  0  0  0  0  0  0
  -30.5657  -20.0167   19.5530 C   0  0  0  0  0  0  0  0  0  0  0  0
  -28.3455  -19.6719   20.4412 C   0  0  0  0  0  0  0  0  0  0  0  0
  -25.4899  -30.3585   18.5572 C   0  0  0  0  0  0  0  0  0  0  0  0
  -24.1682  -27.9266   18.2656 C   0  0  0  0  0  0  0  0  0  0  0  0
  -21.6294  -22.0075   21.4019 C   0  0  0  0  0  0  0  0  0  0  0  0
  -30.1969  -21.2925   19.1264 C   0  0  0  0  0  0  0  0  0  0  0  0
  -27.9767  -20.9477   20.0148 C   0  0  0  0  0  0  0  0  0  0  0  0
  -21.8378  -20.6293   21.4296 C   0  0  0  0  0  0  0  0  0  0  0  0
  -29.7827  -24.3549   20.4987 C   0  0  0  0  0  0  0  0  0  0  0  0
  -30.6685  -25.4031   20.7483 C   0  0  0  0  0  0  0  0  0  0  0  0
  -23.6745  -20.9439   22.9614 C   0  0  0  0  0  0  0  0  0  0  0  0
  -22.5051  -15.9442   22.8975 C   0  0  0  0  0  0  0  0  0  0  0  0
  -30.8335  -25.8285   18.3758 C   0  0  0  0  0  0  0  0  0  0  0  0
  -29.6400  -19.2063   20.2103 C   0  0  0  0  0  0  0  0  0  0  0  0
  -31.0448  -17.5574   21.5576 C   0  0  0  0  0  0  0  0  0  0  0  0
  -25.9219  -29.2475   19.2986 C   0  0  0  0  0  0  0  0  0  0  0  0
  -22.4503  -22.8667   22.1465 C   0  0  0  0  0  0  0  0  0  0  0  0
  -25.2610  -28.0138   19.1447 C   0  0  0  0  0  0  0  0  0  0  0  0
  -23.4728  -22.3325   22.9435 C   0  0  0  0  0  0  0  0  0  0  0  0
  -22.8523  -14.6049   23.0354 C   0  0  0  0  0  0  0  0  0  0  0  0
  -23.2419  -13.8749   21.9180 C   0  0  0  0  0  0  0  0  0  0  0  0
  -28.9025  -21.7580   19.3574 C   0  0  0  0  0  0  0  0  0  0  0  0
  -22.8623  -20.0975   22.2072 C   0  0  0  0  0  0  0  0  0  0  0  0
  -29.4224  -24.0434   19.1876 C   0  0  0  0  0  0  0  0  0  0  0  0
  -31.1939  -26.1399   19.6869 C   0  0  0  0  0  0  0  0  0  0  0  0
  -29.9478  -24.7803   18.1262 C   0  0  0  0  0  0  0  0  0  0  0  0
  -30.0202  -17.8881   20.6506 C   0  0  0  0  0  0  0  0  0  0  0  0
  -22.5637  -16.5023   21.6307 C   0  0  0  0  0  0  0  0  0  0  0  0
  -23.2673  -14.5256   20.6949 C   0  0  0  0  0  0  0  0  0  0  0  0
  -31.0015  -16.1870   21.6397 C   0  0  0  0  0  0  0  0  0  0  0  0
  -31.9542  -18.4124   22.2630 C   0  0  0  0  0  0  0  0  0  0  0  0
  -24.4545  -25.2291   21.4355 C   0  0  0  0  0  0  0  0  0  0  0  0
  -24.5879  -25.5637   24.6593 C   0  0  0  0  0  0  0  0  0  0  0  0
  -24.2092  -24.1406   27.7379 C   0  0  0  0  0  0  0  0  0  0  0  0
  -26.6521  -12.1812   20.6983 C   0  0  0  0  0  0  0  0  0  0  0  0
  -27.1294  -29.3947   20.1903 C   0  0  0  0  0  0  0  0  0  0  0  0
  -22.1954  -24.3489   22.1268 C   0  0  0  0  0  0  0  0  0  0  0  0
  -24.3690  -23.2102   23.7771 C   0  0  0  0  0  0  0  0  0  0  0  0
  -27.2816  -28.2614   21.2016 C   0  0  0  0  0  0  0  0  0  0  0  0
  -29.8224  -12.3182   19.0838 C   0  0  0  0  0  0  0  0  0  0  0  0
  -27.0857  -26.9098   20.5222 C   0  0  0  0  0  0  0  0  0  0  0  0
  -30.3251  -13.7314   19.3841 C   0  0  0  0  0  0  0  0  0  0  0  0
  -28.3117  -12.2917   18.8626 C   0  0  0  0  0  0  0  0  0  0  0  0
  -28.0188  -14.3086   20.2482 C   0  0  0  0  0  0  0  0  0  0  0  0
  -25.6762  -26.7889   19.9304 C   0  0  1  0  0  0  0  0  0  0  0  0
  -23.4184  -25.1708   22.5222 C   0  0  1  0  0  0  0  0  0  0  0  0
  -29.5287  -14.3772   20.5339 C   0  0  2  0  0  0  0  0  0  0  0  0
  -22.7959  -13.9761   24.3883 C   0  0  0  0  0  0  0  0  0  0  0  0
  -23.6788  -13.7943   19.4590 C   0  0  0  0  0  0  0  0  0  0  0  0
  -24.4263  -24.6525   30.1850 C   0  0  0  0  0  0  0  0  0  0  0  0
  -27.6240  -25.3668   24.4287 C   0  0  0  0  0  0  0  0  0  0  0  0
  -27.7130  -24.9291   26.8922 C   0  0  0  0  0  0  0  0  0  0  0  0
  -26.8103  -27.0942   26.0437 C   0  0  0  0  0  0  0  0  0  0  0  0
  -21.3398  -23.6025   28.2236 C   0  0  0  0  0  0  0  0  0  0  0  0
  -23.6222  -12.4373   22.0360 C   0  0  0  0  0  0  0  0  0  0  0  0
  -22.1974  -17.9454   21.4442 C   0  0  0  0  0  0  0  0  0  1  0  0
  -25.0379  -12.2197   22.5830 C   0  0  0  0  0  0  0  0  0  0  0  0
  -25.4447  -24.9856   25.7596 C   0  0  1  0  0  0  0  0  0  0  0  0
  -23.4903  -24.6180   28.9868 C   0  0  2  0  0  0  0  0  0  0  0  0
  -26.8825  -25.5773   25.7639 C   0  0  0  0  0  0  0  0  0  0  0  0
  -29.3734  -16.8144   20.1893 N   0  0  0  0  0  0  0  0  0  0  0  0
  -22.9371  -15.8251   20.5219 N   0  0  0  0  0  0  0  0  0  0  0  0
  -29.9932  -15.7955   20.8089 N   0  0  0  0  0  0  0  0  0  0  0  0
  -24.0840  -24.6534   23.7195 N   0  0  0  0  0  0  0  0  0  0  0  0
  -27.6153  -12.9176   19.9892 N   0  0  0  0  0  0  0  0  0  0  0  0
  -31.7281  -15.2908   22.3406 N   0  0  0  0  0  0  0  0  0  0  0  0
  -31.5779  -18.8919   23.5250 N   0  0  0  0  0  0  0  0  0  0  0  0
  -24.7131  -26.5052   20.9727 N   0  0  0  0  0  0  0  0  0  0  0  0
  -24.7090  -25.1941   27.0020 N   0  0  0  0  0  0  0  0  0  0  0  0
  -26.0442  -12.8470   21.7556 N   0  0  0  0  0  0  0  0  0  0  0  0
  -22.3507  -23.7125   29.3066 N   0  3  0  0  0  0  0  0  0  0  0  0
  -33.0606  -18.7548   21.7810 O   0  0  0  0  0  0  0  0  0  0  0  0
  -24.9815  -24.1933   21.0469 O   0  0  0  0  0  0  0  0  0  0  0  0
  -24.3677  -26.7773   24.6386 O   0  0  0  0  0  0  0  0  0  0  0  0
  -24.3197  -22.9517   27.4464 O   0  0  0  0  0  0  0  0  0  0  0  0
  -26.3595  -11.0148   20.4139 O   0  0  0  0  0  0  0  0  0  0  0  0
  -28.5423  -23.0030   18.9415 O   0  0  0  0  0  0  0  0  0  0  0  0
  -23.0683  -18.7527   22.2355 O   0  0  0  0  0  0  0  0  0  1  0  0
  -32.0432  -27.1475   19.9268 F   0  0  0  0  0  0  0  0  0  0  0  0
  -29.6045  -24.4865   16.8646 F   0  0  0  0  0  0  0  0  0  0  0  0
  1  2  1  0  0  0  0
  1  5  2  0  0  0  0
  2  6  2  0  0  0  0
  3  8  2  0  0  0  0
  3 16  1  0  0  0  0
  4  9  1  0  0  0  0
  4 16  2  0  0  0  0
  5 18  1  0  0  0  0
  6 20  1  0  0  0  0
  7 10  2  0  0  0  0
  7 19  1  0  0  0  0
  8 24  1  0  0  0  0
  9 24  2  0  0  0  0
 10 25  1  0  0  0  0
 11 12  2  0  0  0  0
 11 26  1  0  0  0  0
 12 27  1  0  0  0  0
 13 21  1  0  0  0  0
 13 25  2  0  0  0  0
 14 22  2  0  0  0  0
 14 30  1  0  0  0  0
 15 27  2  0  0  0  0
 15 28  1  0  0  0  0
 16 29  1  0  0  0  0
 17 29  1  0  0  0  0
 17 32  2  0  0  0  0
 17 33  1  0  0  0  0
 18 20  2  0  0  0  0
 18 38  1  0  0  0  0
 19 21  2  0  0  0  0
 19 39  1  0  0  0  0
 20 47  1  0  0  0  0
 21 40  1  0  0  0  0
 22 23  1  0  0  0  0
 22 50  1  0  0  0  0
 23 31  2  0  0  0  0
 23 57  1  0  0  0  0
 24 79  1  0  0  0  0
 25 80  1  0  0  0  0
 26 28  2  0  0  0  0
 26 79  1  0  0  0  0
 27 81  1  0  0  0  0
 28 82  1  0  0  0  0
 29 63  2  0  0  0  0
 30 58  1  0  0  0  0
 30 64  2  0  0  0  0
 31 51  1  0  0  0  0
 31 64  1  0  0  0  0
 32 65  1  0  0  0  0
 32 68  1  0  0  0  0
 33 69  1  0  0  0  0
 33 74  2  0  0  0  0
 34 48  1  0  0  0  0
 34 70  1  0  0  0  0
 34 75  2  0  0  0  0
 35 60  1  0  0  0  0
 35 66  1  0  0  0  0
 35 76  2  0  0  0  0
 36 61  1  0  0  0  0
 36 71  1  0  0  0  0
 36 77  2  0  0  0  0
 37 67  1  0  0  0  0
 37 72  1  0  0  0  0
 37 78  2  0  0  0  0
 38 41  1  0  0  0  0
 39 48  1  0  0  0  0
 40 66  1  0  0  0  0
 41 43  1  0  0  0  0
 42 44  1  0  0  0  0
 42 45  1  0  0  0  0
 43 47  1  0  0  0  0
 44 49  1  0  0  0  0
 45 67  1  0  0  0  0
 46 49  1  0  0  0  0
 46 67  1  0  0  0  0
 47 70  1  0  0  0  0
 48 66  1  0  0  0  0
 49 65  1  0  0  0  0
 52 61  1  0  0  0  0
 53 62  1  0  0  0  0
 54 62  1  0  0  0  0
 55 62  1  0  0  0  0
 56 73  1  0  0  0  0
 57 59  1  0  0  0  0
 58 80  1  0  0  0  0
 59 72  1  0  0  0  0
 60 62  1  0  0  0  0
 60 71  1  0  0  0  0
 61 73  1  0  0  0  0
 63 65  1  0  0  0  0
M  CHG  1  73   1
M  ISO  4  37 100  58 101  72 100  80 101
M  END
> <Batch ID>
0042

> <Smiles>
CNC(C)C(=O)NC(C(=O)N1Cc2cc([101O:1][101CH2:1]c3cc(C)c(CC[100NH:0][100C:0](=O)N4CCCC(n5nc(-c6ccc(Oc7ccc(F)cc7F)cc6)c(C(N)=O)c5N)C4)c(C)n3)ccc2CC1C(=O)NC1CCCc2ccccc21)C(C)(C)C

> <Shape>
0.208

> <Color>
0.063

> <Negative vol penalty>
0.000

$$$$

  -OEChem-04052317123D

 80 88  0     1  0  0  0  0  0999 V2000
  -29.6056  -24.6355   15.3784 C   0  0  0  0  0  0  0  0  0  0  0  0
  -29.3312  -24.3272   16.7069 C   0  0  0  0  0  0  0  0  0  0  0  0
  -24.2246  -12.2437   19.4062 C   0  0  0  0  0  0  0  0  0  0  0  0
  -25.5214  -12.1484   21.4424 C   0  0  0  0  0  0  0  0  0  0  0  0
  -29.3471  -25.9170   14.8936 C   0  0  0  0  0  0  0  0  0  0  0  0
  -28.7991  -25.3005   17.5518 C   0  0  0  0  0  0  0  0  0  0  0  0
  -24.9908  -23.5402   20.3879 C   0  0  0  0  0  0  0  0  0  0  0  0
  -24.4446  -10.8815   19.2023 C   0  0  0  0  0  0  0  0  0  0  0  0
  -25.7415  -10.7862   21.2386 C   0  0  0  0  0  0  0  0  0  0  0  0
  -25.3283  -22.7698   21.4997 C   0  0  0  0  0  0  0  0  0  0  0  0
  -24.0367   -7.8989   21.6604 C   0  0  0  0  0  0  0  0  0  0  0  0
  -23.8826   -7.0481   22.7550 C   0  0  0  0  0  0  0  0  0  0  0  0
  -25.0084  -24.6922   22.9214 C   0  0  0  0  0  0  0  0  0  0  0  0
  -26.1872   -6.3551   22.5409 C   0  0  0  0  0  0  0  0  0  0  0  0
  -28.2243  -20.5412   24.0931 C   0  0  0  0  0  0  0  0  0  0  0  0
  -24.7630  -12.8772   20.5263 C   0  0  0  0  0  0  0  0  0  0  0  0
  -23.4727  -14.8779   21.4427 C   0  0  0  0  0  0  0  0  0  0  0  0
  -28.8026  -26.9038   15.7306 C   0  0  0  0  0  0  0  0  0  0  0  0
  -24.6697  -24.8974   20.5333 C   0  0  0  0  0  0  0  0  0  0  0  0
  -28.5344  -26.5968   17.0782 C   0  0  0  0  0  0  0  0  0  0  0  0
  -24.6647  -25.4770   21.8101 C   0  0  0  0  0  0  0  0  0  0  0  0
  -25.2030  -10.1527   20.1185 C   0  0  0  0  0  0  0  0  0  0  0  0
  -25.3399  -23.3464   22.7664 C   0  0  0  0  0  0  0  0  0  0  0  0
  -25.2661   -7.9777   21.0060 C   0  0  0  0  0  0  0  0  0  0  0  0
  -24.9578   -6.2763   23.1952 C   0  0  0  0  0  0  0  0  0  0  0  0
  -26.3413   -7.2059   21.4463 C   0  0  0  0  0  0  0  0  0  0  0  0
  -24.5365  -14.2844   20.7371 C   0  0  0  0  0  0  0  0  0  0  0  0
  -28.2720  -21.7122   24.8731 C   0  0  0  0  0  0  0  0  0  0  0  0
  -29.4713  -20.4571   23.5235 C   0  0  0  0  0  0  0  0  0  0  0  0
  -23.7124  -16.2274   21.3541 C   0  0  0  0  0  0  0  0  0  0  0  0
  -22.3667  -14.2642   22.1179 C   0  0  0  0  0  0  0  0  0  0  0  0
  -25.9150  -27.6232   19.4736 C   0  0  0  0  0  0  0  0  0  0  0  0
  -23.2795  -28.9124   20.8574 C   0  0  0  0  0  0  0  0  0  0  0  0
  -20.8014  -28.6355   23.1874 C   0  0  0  0  0  0  0  0  0  0  0  0
  -28.6984  -19.4371   20.5239 C   0  0  0  0  0  0  0  0  0  0  0  0
  -28.5845  -28.2884   15.1738 C   0  0  0  0  0  0  0  0  0  0  0  0
  -24.2819  -25.7082   19.3272 C   0  0  0  0  0  0  0  0  0  0  0  0
  -24.3079  -26.9248   22.0224 C   0  0  0  0  0  0  0  0  0  0  0  0
  -27.6706  -29.1548   16.0365 C   0  0  0  0  0  0  0  0  0  0  0  0
  -25.7599  -19.4883   18.5142 C   0  0  0  0  0  0  0  0  0  0  0  0
  -28.0719  -29.0564   17.5049 C   0  0  0  0  0  0  0  0  0  0  0  0
  -25.0171  -18.2140   18.9196 C   0  0  0  0  0  0  0  0  0  0  0  0
  -27.2728  -19.2808   18.5041 C   0  0  0  0  0  0  0  0  0  0  0  0
  -27.0896  -17.4678   20.1634 C   0  0  0  0  0  0  0  0  0  0  0  0
  -27.9339  -27.6185   18.0194 C   0  0  1  0  0  0  0  0  0  0  0  0
  -24.4719  -27.2083   19.5293 C   0  0  1  0  0  0  0  0  0  0  0  0
  -25.5634  -17.6433   20.2422 C   0  0  2  0  0  0  0  0  0  0  0  0
  -18.8174  -29.8652   24.1087 C   0  0  0  0  0  0  0  0  0  0  0  0
  -25.1485  -30.7758   22.3887 C   0  0  0  0  0  0  0  0  0  0  0  0
  -23.2520  -31.2890   23.9406 C   0  0  0  0  0  0  0  0  0  0  0  0
  -23.0714  -31.8647   21.5201 C   0  0  0  0  0  0  0  0  0  0  0  0
  -31.5271  -21.8955   23.6625 C   0  0  0  0  0  0  0  0  0  0  0  0
  -18.9452  -26.4717   22.3927 C   0  0  0  0  0  0  0  0  0  0  0  0
  -27.1696  -22.2973   25.7221 C   0  0  0  0  0  0  0  0  0  0  0  0
  -30.0510  -19.4605   22.6045 C   0  0  0  0  0  0  0  0  0  0  0  0
  -26.2942  -23.2733   24.9436 C   0  0  0  0  0  0  0  0  0  1  0  0
  -22.9436  -29.4417   22.2307 C   0  0  1  0  0  0  0  0  0  0  0  0
  -19.3007  -28.8433   23.0914 C   0  0  2  0  0  0  0  0  0  0  0  0
  -23.6126  -30.8160   22.5161 C   0  0  0  0  0  0  0  0  0  0  0  0
  -25.3886  -15.1833   20.2371 N   0  0  0  0  0  0  0  0  0  0  0  0
  -29.4556  -22.3277   24.8074 N   0  0  0  0  0  0  0  0  0  0  0  0
  -30.1632  -21.5404   23.9794 N   0  0  0  0  0  0  0  0  0  0  0  0
  -24.8604  -16.3553   20.6289 N   0  0  0  0  0  0  0  0  0  0  0  0
  -23.9419  -27.6776   20.8112 N   0  0  0  0  0  0  0  0  0  0  0  0
  -27.7267  -18.7396   19.7875 N   0  0  0  0  0  0  0  0  0  0  0  0
  -23.0511  -17.3053   21.8266 N   0  0  0  0  0  0  0  0  0  0  0  0
  -22.2726  -12.8658   22.1115 N   0  0  0  0  0  0  0  0  0  0  0  0
  -26.5456  -27.3078   18.2852 N   0  0  0  0  0  0  0  0  0  0  0  0
  -21.4874  -29.4565   22.3175 N   0  0  0  0  0  0  0  0  0  0  0  0
  -29.0678  -18.8584   21.7320 N   0  0  0  0  0  0  0  0  0  0  0  0
  -18.5834  -27.5602   23.3368 N   0  3  0  0  0  0  0  0  0  0  0  0
  -21.4790  -14.9366   22.6953 O   0  0  0  0  0  0  0  0  0  0  0  0
  -26.4186  -28.1890   20.4369 O   0  0  0  0  0  0  0  0  0  0  0  0
  -22.9595  -29.5671   19.8620 O   0  0  0  0  0  0  0  0  0  0  0  0
  -21.3141  -27.8284   23.9597 O   0  0  0  0  0  0  0  0  0  0  0  0
  -29.1957  -20.4998   20.1363 O   0  0  0  0  0  0  0  0  0  0  0  0
  -25.4178   -8.8234   19.9200 O   0  0  0  0  0  0  0  0  0  0  0  0
  -25.6696  -22.5969   23.8533 O   0  0  0  0  0  0  0  0  0  1  0  0
  -24.8101   -5.4605   24.2473 F   0  0  0  0  0  0  0  0  0  0  0  0
  -27.5251   -7.2782   20.8224 F   0  0  0  0  0  0  0  0  0  0  0  0
  1  2  1  0  0  0  0
  1  5  2  0  0  0  0
  2  6  2  0  0  0  0
  3  8  2  0  0  0  0
  3 16  1  0  0  0  0
  4  9  1  0  0  0  0
  4 16  2  0  0  0  0
  5 18  1  0  0  0  0
  6 20  1  0  0  0  0
  7 10  2  0  0  0  0
  7 19  1  0  0  0  0
  8 22  1  0  0  0  0
  9 22  2  0  0  0  0
 10 23  1  0  0  0  0
 11 12  2  0  0  0  0
 11 24  1  0  0  0  0
 12 25  1  0  0  0  0
 13 21  1  0  0  0  0
 13 23  2  0  0  0  0
 14 25  2  0  0  0  0
 14 26  1  0  0  0  0
 15 28  1  0  0  0  0
 15 29  2  0  0  0  0
 16 27  1  0  0  0  0
 17 27  1  0  0  0  0
 17 30  2  0  0  0  0
 17 31  1  0  0  0  0
 18 20  2  0  0  0  0
 18 36  1  0  0  0  0
 19 21  2  0  0  0  0
 19 37  1  0  0  0  0
 20 45  1  0  0  0  0
 21 38  1  0  0  0  0
 22 77  1  0  0  0  0
 23 78  1  0  0  0  0
 24 26  2  0  0  0  0
 24 77  1  0  0  0  0
 25 79  1  0  0  0  0
 26 80  1  0  0  0  0
 27 60  2  0  0  0  0
 28 54  1  0  0  0  0
 28 61  2  0  0  0  0
 29 55  1  0  0  0  0
 29 62  1  0  0  0  0
 30 63  1  0  0  0  0
 30 66  1  0  0  0  0
 31 67  1  0  0  0  0
 31 72  2  0  0  0  0
 32 46  1  0  0  0  0
 32 68  1  0  0  0  0
 32 73  2  0  0  0  0
 33 57  1  0  0  0  0
 33 64  1  0  0  0  0
 33 74  2  0  0  0  0
 34 58  1  0  0  0  0
 34 69  1  0  0  0  0
 34 75  2  0  0  0  0
 35 65  1  0  0  0  0
 35 70  1  0  0  0  0
 35 76  2  0  0  0  0
 36 39  1  0  0  0  0
 37 46  1  0  0  0  0
 38 64  1  0  0  0  0
 39 41  1  0  0  0  0
 40 42  1  0  0  0  0
 40 43  1  0  0  0  0
 41 45  1  0  0  0  0
 42 47  1  0  0  0  0
 43 65  1  0  0  0  0
 44 47  1  0  0  0  0
 44 65  1  0  0  0  0
 45 68  1  0  0  0  0
 46 64  1  0  0  0  0
 47 63  1  0  0  0  0
 48 58  1  0  0  0  0
 49 59  1  0  0  0  0
 50 59  1  0  0  0  0
 51 59  1  0  0  0  0
 52 62  1  0  0  0  0
 53 71  1  0  0  0  0
 54 56  1  0  0  0  0
 55 70  1  0  0  0  0
 56 78  1  0  0  0  0
 57 59  1  0  0  0  0
 57 69  1  0  0  0  0
 58 71  1  0  0  0  0
 60 63  1  0  0  0  0
 61 62  1  0  0  0  0
M  CHG  1  71   1
M  ISO  4  35 100  56 101  70 100  78 101
M  END
> <Batch ID>
0042

> <Smiles>
CNC(C)C(=O)NC(C(=O)N1Cc2cc([101O:1][101CH2:1]Cc3cc(C[100NH:0][100C:0](=O)N4CCCC(n5nc(-c6ccc(Oc7ccc(F)cc7F)cc6)c(C(N)=O)c5N)C4)n(C)n3)ccc2CC1C(=O)NC1CCCc2ccccc21)C(C)(C)C

> <Shape>
0.201

> <Color>
0.080

> <Negative vol penalty>
0.000

$$$$

  -OEChem-04052317123D

 85 93  0     1  0  0  0  0  0999 V2000
  -28.2584  -11.1029   21.1949 C   0  0  0  0  0  0  0  0  0  0  0  0
  -28.7925  -12.3394   20.8468 C   0  0  0  0  0  0  0  0  0  0  0  0
  -18.0047  -28.0906   22.3578 C   0  0  0  0  0  0  0  0  0  0  0  0
  -18.8389  -26.1275   21.2231 C   0  0  0  0  0  0  0  0  0  0  0  0
  -26.8834  -10.8892   21.1073 C   0  0  0  0  0  0  0  0  0  0  0  0
  -27.9520  -13.3627   20.4100 C   0  0  0  0  0  0  0  0  0  0  0  0
  -28.6170  -19.3636   21.4357 C   0  0  0  0  0  0  0  0  0  0  0  0
  -16.7048  -27.5942   22.2610 C   0  0  0  0  0  0  0  0  0  0  0  0
  -17.5389  -25.6311   21.1263 C   0  0  0  0  0  0  0  0  0  0  0  0
  -29.1387  -20.3961   20.6575 C   0  0  0  0  0  0  0  0  0  0  0  0
  -14.4804  -23.6784   20.9009 C   0  0  0  0  0  0  0  0  0  0  0  0
  -14.2736  -22.3348   21.2130 C   0  0  0  0  0  0  0  0  0  0  0  0
  -26.9121  -20.9544   19.9162 C   0  0  0  0  0  0  0  0  0  0  0  0
  -28.7304  -25.1590   18.0474 C   0  0  0  0  0  0  0  0  0  0  0  0
  -15.1049  -22.7259   23.4476 C   0  0  0  0  0  0  0  0  0  0  0  0
  -19.0718  -27.3573   21.8388 C   0  0  0  0  0  0  0  0  0  0  0  0
  -21.3317  -27.6544   22.9841 C   0  0  0  0  0  0  0  0  0  0  0  0
  -26.0246  -11.9134   20.6784 C   0  0  0  0  0  0  0  0  0  0  0  0
  -27.2377  -19.1114   21.4516 C   0  0  0  0  0  0  0  0  0  0  0  0
  -26.5644  -13.1620   20.3153 C   0  0  0  0  0  0  0  0  0  0  0  0
  -26.3751  -19.9198   20.6975 C   0  0  0  0  0  0  0  0  0  0  0  0
  -28.1780  -26.3830   18.4078 C   0  0  0  0  0  0  0  0  0  0  0  0
  -28.8698  -27.2240   19.2724 C   0  0  0  0  0  0  0  0  0  0  0  0
  -16.4719  -26.3645   21.6453 C   0  0  0  0  0  0  0  0  0  0  0  0
  -28.2865  -21.1898   19.8953 C   0  0  0  0  0  0  0  0  0  0  0  0
  -14.9995  -24.5458   21.8621 C   0  0  0  0  0  0  0  0  0  0  0  0
  -14.5858  -21.8585   22.4864 C   0  0  0  0  0  0  0  0  0  0  0  0
  -15.3117  -24.0696   23.1354 C   0  0  0  0  0  0  0  0  0  0  0  0
  -20.4148  -27.8697   21.9379 C   0  0  0  0  0  0  0  0  0  0  0  0
  -29.9674  -24.8252   18.5747 C   0  0  0  0  0  0  0  0  0  0  0  0
  -30.1005  -26.7977   19.7451 C   0  0  0  0  0  0  0  0  0  0  0  0
  -22.4543  -28.3493   22.6053 C   0  0  0  0  0  0  0  0  0  0  0  0
  -21.1822  -26.8941   24.1905 C   0  0  0  0  0  0  0  0  0  0  0  0
  -25.3971  -16.6537   20.6296 C   0  0  0  0  0  0  0  0  0  0  0  0
  -23.0498  -18.4813   21.9227 C   0  0  0  0  0  0  0  0  0  0  0  0
  -21.9405  -21.5931   22.7789 C   0  0  0  0  0  0  0  0  0  0  0  0
  -24.5876  -30.0580   17.2780 C   0  0  0  0  0  0  0  0  0  0  0  0
  -24.5503  -11.6203   20.5548 C   0  0  0  0  0  0  0  0  0  0  0  0
  -26.6880  -18.0109   22.3171 C   0  0  0  0  0  0  0  0  0  0  0  0
  -24.8846  -19.7032   20.6957 C   0  0  0  0  0  0  0  0  0  0  0  0
  -23.6875  -12.8744   20.4401 C   0  0  0  0  0  0  0  0  0  0  0  0
  -23.8157  -32.1571   20.0483 C   0  0  0  0  0  0  0  0  0  0  0  0
  -24.2863  -13.8433   19.4254 C   0  0  0  0  0  0  0  0  0  0  0  0
  -22.9393  -31.2769   20.9411 C   0  0  0  0  0  0  0  0  0  0  0  0
  -23.5487  -31.9009   18.5667 C   0  0  0  0  0  0  0  0  0  0  0  0
  -22.7796  -29.6091   19.0460 C   0  0  0  0  0  0  0  0  0  0  0  0
  -25.6825  -14.3047   19.8606 C   0  0  1  0  0  0  0  0  0  0  0  0
  -25.3200  -17.5162   21.8575 C   0  0  1  0  0  0  0  0  0  0  0  0
  -23.0527  -29.7915   20.5488 C   0  0  2  0  0  0  0  0  0  0  0  0
  -30.8914  -27.6581   20.6756 C   0  0  0  0  0  0  0  0  0  0  0  0
  -27.7187  -28.5193   21.0844 C   0  0  0  0  0  0  0  0  0  0  0  0
  -19.9671  -22.7736   23.7836 C   0  0  0  0  0  0  0  0  0  0  0  0
  -21.5205  -18.1492   19.3033 C   0  0  0  0  0  0  0  0  0  0  0  0
  -20.0672  -20.0690   19.9893 C   0  0  0  0  0  0  0  0  0  0  0  0
  -20.1104  -17.9868   21.3624 C   0  0  0  0  0  0  0  0  0  0  0  0
  -23.5583  -22.6258   25.0317 C   0  0  0  0  0  0  0  0  0  0  0  0
  -26.8448  -26.7681   17.8570 C   0  0  0  0  0  0  0  0  0  0  0  0
  -28.3031  -28.5440   19.6746 C   0  0  0  0  0  0  0  0  0  0  0  0
  -30.5985  -23.5050   18.2046 C   0  0  0  0  0  0  0  0  0  0  0  0
  -26.9054  -27.7542   16.6746 C   0  0  0  0  0  0  0  0  0  0  0  0
  -25.5439  -28.1067   16.0792 C   0  0  0  0  0  0  0  0  0  0  0  0
  -30.2074  -22.3861   19.1639 C   0  0  0  0  0  0  0  0  0  1  0  0
  -22.1068  -19.5377   21.3996 C   0  0  1  0  0  0  0  0  0  0  0  0
  -21.3145  -22.1232   24.0562 C   0  0  2  0  0  0  0  0  0  0  0  0
  -20.9795  -18.9388   20.5120 C   0  0  0  0  0  0  0  0  0  0  0  0
  -20.9117  -28.6412   20.9674 N   0  0  0  0  0  0  0  0  0  0  0  0
  -30.6692  -25.6158   19.4173 N   0  0  0  0  0  0  0  0  0  0  0  0
  -22.1530  -28.9168   21.4022 N   0  0  0  0  0  0  0  0  0  0  0  0
  -24.3961  -18.6107   21.5532 N   0  0  0  0  0  0  0  0  0  0  0  0
  -23.6738  -30.4739   18.2603 N   0  0  0  0  0  0  0  0  0  0  0  0
  -23.6597  -28.5242   23.1873 N   0  0  0  0  0  0  0  0  0  0  0  0
  -19.9632  -26.2427   24.4230 N   0  0  0  0  0  0  0  0  0  0  0  0
  -25.5825  -15.3105   20.8962 N   0  0  0  0  0  0  0  0  0  0  0  0
  -21.6239  -20.2679   22.5667 N   0  0  0  0  0  0  0  0  0  0  0  0
  -24.6479  -28.6880   17.0540 N   0  0  0  0  0  0  0  0  0  0  0  0
  -22.2061  -23.1363   24.6883 N   0  3  0  0  0  0  0  0  0  0  0  0
  -22.0966  -26.8088   25.0450 O   0  0  0  0  0  0  0  0  0  0  0  0
  -25.2946  -17.1685   19.5223 O   0  0  0  0  0  0  0  0  0  0  0  0
  -22.6094  -17.5786   22.6389 O   0  0  0  0  0  0  0  0  0  0  0  0
  -22.6373  -22.2863   22.0410 O   0  0  0  0  0  0  0  0  0  0  0  0
  -25.3010  -30.8486   16.6511 O   0  0  0  0  0  0  0  0  0  0  0  0
  -15.2036  -25.8797   21.5509 O   0  0  0  0  0  0  0  0  0  0  0  0
  -28.7932  -22.1978   19.1343 O   0  0  0  0  0  0  0  0  0  1  0  0
  -14.3857  -20.5685   22.7864 F   0  0  0  0  0  0  0  0  0  0  0  0
  -15.8096  -24.8984   24.0633 F   0  0  0  0  0  0  0  0  0  0  0  0
  1  2  1  0  0  0  0
  1  5  2  0  0  0  0
  2  6  2  0  0  0  0
  3  8  2  0  0  0  0
  3 16  1  0  0  0  0
  4  9  1  0  0  0  0
  4 16  2  0  0  0  0
  5 18  1  0  0  0  0
  6 20  1  0  0  0  0
  7 10  2  0  0  0  0
  7 19  1  0  0  0  0
  8 24  1  0  0  0  0
  9 24  2  0  0  0  0
 10 25  1  0  0  0  0
 11 12  2  0  0  0  0
 11 26  1  0  0  0  0
 12 27  1  0  0  0  0
 13 21  1  0  0  0  0
 13 25  2  0  0  0  0
 14 22  2  0  0  0  0
 14 30  1  0  0  0  0
 15 27  2  0  0  0  0
 15 28  1  0  0  0  0
 16 29  1  0  0  0  0
 17 29  1  0  0  0  0
 17 32  2  0  0  0  0
 17 33  1  0  0  0  0
 18 20  2  0  0  0  0
 18 38  1  0  0  0  0
 19 21  2  0  0  0  0
 19 39  1  0  0  0  0
 20 47  1  0  0  0  0
 21 40  1  0  0  0  0
 22 23  1  0  0  0  0
 22 57  1  0  0  0  0
 23 31  2  0  0  0  0
 23 58  1  0  0  0  0
 24 82  1  0  0  0  0
 25 83  1  0  0  0  0
 26 28  2  0  0  0  0
 26 82  1  0  0  0  0
 27 84  1  0  0  0  0
 28 85  1  0  0  0  0
 29 66  2  0  0  0  0
 30 59  1  0  0  0  0
 30 67  2  0  0  0  0
 31 50  1  0  0  0  0
 31 67  1  0  0  0  0
 32 68  1  0  0  0  0
 32 71  1  0  0  0  0
 33 72  1  0  0  0  0
 33 77  2  0  0  0  0
 34 48  1  0  0  0  0
 34 73  1  0  0  0  0
 34 78  2  0  0  0  0
 35 63  1  0  0  0  0
 35 69  1  0  0  0  0
 35 79  2  0  0  0  0
 36 64  1  0  0  0  0
 36 74  1  0  0  0  0
 36 80  2  0  0  0  0
 37 70  1  0  0  0  0
 37 75  1  0  0  0  0
 37 81  2  0  0  0  0
 38 41  1  0  0  0  0
 39 48  1  0  0  0  0
 40 69  1  0  0  0  0
 41 43  1  0  0  0  0
 42 44  1  0  0  0  0
 42 45  1  0  0  0  0
 43 47  1  0  0  0  0
 44 49  1  0  0  0  0
 45 70  1  0  0  0  0
 46 49  1  0  0  0  0
 46 70  1  0  0  0  0
 47 73  1  0  0  0  0
 48 69  1  0  0  0  0
 49 68  1  0  0  0  0
 51 58  1  0  0  0  0
 52 64  1  0  0  0  0
 53 65  1  0  0  0  0
 54 65  1  0  0  0  0
 55 65  1  0  0  0  0
 56 76  1  0  0  0  0
 57 60  1  0  0  0  0
 59 62  1  0  0  0  0
 60 61  1  0  0  0  0
 61 75  1  0  0  0  0
 62 83  1  0  0  0  0
 63 65  1  0  0  0  0
 63 74  1  0  0  0  0
 64 76  1  0  0  0  0
 66 68  1  0  0  0  0
M  CHG  1  76   1
M  ISO  4  37 100  62 101  75 100  83 101
M  END
> <Batch ID>
0042

> <Smiles>
CCc1c(CCC[100NH:0][100C:0](=O)N2CCCC(n3nc(-c4ccc(Oc5ccc(F)cc5F)cc4)c(C(N)=O)c3N)C2)cc(C[101CH2:1][101O:1]c2ccc3c(c2)CN(C(=O)C(NC(=O)C(C)NC)C(C)(C)C)C(C(=O)NC2CCCc4ccccc42)C3)nc1C

> <Shape>
0.224

> <Color>
0.073

> <Negative vol penalty>
0.000

$$$$

  -OEChem-04052317123D

 82 90  0     1  0  0  0  0  0999 V2000
  -17.9352  -28.0544   22.7122 C   0  0  0  0  0  0  0  0  0  0  0  0
  -18.8376  -27.1676   22.1336 C   0  0  0  0  0  0  0  0  0  0  0  0
  -23.1996   -9.6910   19.9681 C   0  0  0  0  0  0  0  0  0  0  0  0
  -23.8199   -9.8952   22.2942 C   0  0  0  0  0  0  0  0  0  0  0  0
  -18.4032  -29.1563   23.4268 C   0  0  0  0  0  0  0  0  0  0  0  0
  -20.2087  -27.3829   22.2685 C   0  0  0  0  0  0  0  0  0  0  0  0
  -22.7341  -23.1516   23.4361 C   0  0  0  0  0  0  0  0  0  0  0  0
  -22.4832   -8.5306   20.2610 C   0  0  0  0  0  0  0  0  0  0  0  0
  -23.1034   -8.7347   22.5871 C   0  0  0  0  0  0  0  0  0  0  0  0
  -22.9845  -22.2531   22.3999 C   0  0  0  0  0  0  0  0  0  0  0  0
  -19.4831   -7.7257   21.5969 C   0  0  0  0  0  0  0  0  0  0  0  0
  -18.2102   -7.5926   21.0426 C   0  0  0  0  0  0  0  0  0  0  0  0
  -25.2342  -23.1036   22.2140 C   0  0  0  0  0  0  0  0  0  0  0  0
  -27.0212  -19.5412   20.3280 C   0  0  0  0  0  0  0  0  0  0  0  0
  -18.9163   -5.5820   19.9041 C   0  0  0  0  0  0  0  0  0  0  0  0
  -27.1624  -17.6464   22.2864 C   0  0  0  0  0  0  0  0  0  0  0  0
  -23.8680  -10.3733   20.9848 C   0  0  0  0  0  0  0  0  0  0  0  0
  -24.1272  -12.8945   20.6953 C   0  0  0  0  0  0  0  0  0  0  0  0
  -19.7807  -29.3799   23.5787 C   0  0  0  0  0  0  0  0  0  0  0  0
  -23.7302  -24.0419   23.8624 C   0  0  0  0  0  0  0  0  0  0  0  0
  -20.6956  -28.4896   22.9847 C   0  0  0  0  0  0  0  0  0  0  0  0
  -24.9948  -24.0107   23.2576 C   0  0  0  0  0  0  0  0  0  0  0  0
  -28.2392  -19.2943   20.9517 C   0  0  0  0  0  0  0  0  0  0  0  0
  -28.3196  -18.3304   21.9506 C   0  0  0  0  0  0  0  0  0  0  0  0
  -22.4351   -8.0525   21.5704 C   0  0  0  0  0  0  0  0  0  0  0  0
  -24.2337  -22.2309   21.7867 C   0  0  0  0  0  0  0  0  0  0  0  0
  -20.4728   -6.7871   21.3048 C   0  0  0  0  0  0  0  0  0  0  0  0
  -17.9267   -6.5207   20.1962 C   0  0  0  0  0  0  0  0  0  0  0  0
  -20.1893   -5.7152   20.4584 C   0  0  0  0  0  0  0  0  0  0  0  0
  -24.6087  -11.5717   20.6828 C   0  0  0  0  0  0  0  0  0  0  0  0
  -25.9222  -18.8029   20.7364 C   0  0  0  0  0  0  0  0  0  0  0  0
  -25.2121  -13.6582   20.3399 C   0  0  0  0  0  0  0  0  0  0  0  0
  -22.8165  -13.3888   21.0009 C   0  0  0  0  0  0  0  0  0  0  0  0
  -24.0237  -27.2058   23.9480 C   0  0  0  0  0  0  0  0  0  0  0  0
  -26.7659  -26.5182   25.5388 C   0  0  0  0  0  0  0  0  0  0  0  0
  -29.2553  -24.2753   26.1860 C   0  0  0  0  0  0  0  0  0  0  0  0
  -30.6353  -14.9046   20.7646 C   0  0  0  0  0  0  0  0  0  0  0  0
  -20.2389  -30.6108   24.3200 C   0  0  0  0  0  0  0  0  0  0  0  0
  -23.4527  -24.9867   24.9995 C   0  0  0  0  0  0  0  0  0  0  0  0
  -26.1045  -24.9317   23.6919 C   0  0  0  0  0  0  0  0  0  0  0  0
  -21.7074  -30.5612   24.7339 C   0  0  0  0  0  0  0  0  0  0  0  0
  -29.7277  -12.3093   18.5024 C   0  0  0  0  0  0  0  0  0  0  0  0
  -22.5747  -30.0935   23.5695 C   0  0  0  0  0  0  0  0  0  0  0  0
  -28.2781  -11.9913   18.8732 C   0  0  0  0  0  0  0  0  0  0  0  0
  -30.5628  -12.6532   19.7338 C   0  0  0  0  0  0  0  0  0  0  0  0
  -28.5567  -13.4075   20.9505 C   0  0  0  0  0  0  0  0  0  0  0  0
  -22.1904  -28.6756   23.1300 C   0  0  1  0  0  0  0  0  0  0  0  0
  -24.3772  -26.2002   25.0071 C   0  0  1  0  0  0  0  0  0  0  0  0
  -27.6617  -13.1091   19.7355 C   0  0  2  0  0  0  0  0  0  0  0  0
  -29.4426  -20.0727   20.5344 C   0  0  0  0  0  0  0  0  0  0  0  0
  -31.3780  -24.0128   27.4985 C   0  0  0  0  0  0  0  0  0  0  0  0
  -28.2322  -28.2650   23.5118 C   0  0  0  0  0  0  0  0  0  0  0  0
  -30.3782  -27.2213   24.2694 C   0  0  0  0  0  0  0  0  0  0  0  0
  -29.0000  -28.5414   25.8759 C   0  0  0  0  0  0  0  0  0  0  0  0
  -28.1536  -22.0070   27.7353 C   0  0  0  0  0  0  0  0  0  0  0  0
  -29.5981  -18.0264   22.6513 C   0  0  0  0  0  0  0  0  0  0  0  0
  -24.5836  -19.0442   20.0819 C   0  0  0  0  0  0  0  0  0  0  0  0
  -30.5510  -17.1405   21.8383 C   0  0  0  0  0  0  0  0  0  0  0  0
  -23.7721  -20.1169   20.8000 C   0  0  0  0  0  0  0  0  0  1  0  0
  -28.1982  -26.2600   25.1381 C   0  0  1  0  0  0  0  0  0  0  0  0
  -29.8717  -23.8033   27.4905 C   0  0  2  0  0  0  0  0  0  0  0  0
  -28.9309  -27.5558   24.6891 C   0  0  0  0  0  0  0  0  0  0  0  0
  -25.9615  -17.8585   21.7030 N   0  0  0  0  0  0  0  0  0  0  0  0
  -25.8990  -11.4958   20.3459 N   0  0  0  0  0  0  0  0  0  0  0  0
  -26.2374  -12.7806   20.1434 N   0  0  0  0  0  0  0  0  0  0  0  0
  -25.7823  -25.8417   24.8035 N   0  0  0  0  0  0  0  0  0  0  0  0
  -29.9241  -13.7210   20.5071 N   0  0  0  0  0  0  0  0  0  0  0  0
  -25.3794  -14.9881   20.1793 N   0  0  0  0  0  0  0  0  0  0  0  0
  -21.8188  -12.4673   21.3471 N   0  0  0  0  0  0  0  0  0  0  0  0
  -22.7359  -27.6971   24.0461 N   0  0  0  0  0  0  0  0  0  0  0  0
  -28.8225  -25.5819   26.2689 N   0  0  0  0  0  0  0  0  0  0  0  0
  -29.9544  -15.8678   21.4989 N   0  0  0  0  0  0  0  0  0  0  0  0
  -29.5978  -22.3532   27.6981 N   0  3  0  0  0  0  0  0  0  0  0  0
  -22.5340  -14.6100   20.9521 O   0  0  0  0  0  0  0  0  0  0  0  0
  -24.8581  -27.5142   23.1052 O   0  0  0  0  0  0  0  0  0  0  0  0
  -26.5287  -27.2863   26.4745 O   0  0  0  0  0  0  0  0  0  0  0  0
  -29.1698  -23.5580   25.1917 O   0  0  0  0  0  0  0  0  0  0  0  0
  -31.7895  -15.0914   20.3648 O   0  0  0  0  0  0  0  0  0  0  0  0
  -21.7359   -6.9203   21.8566 O   0  0  0  0  0  0  0  0  0  0  0  0
  -24.4805  -21.3553   20.7747 O   0  0  0  0  0  0  0  0  0  1  0  0
  -16.7038   -6.3921   19.6651 F   0  0  0  0  0  0  0  0  0  0  0  0
  -21.1356   -4.8097   20.1751 F   0  0  0  0  0  0  0  0  0  0  0  0
  1  2  1  0  0  0  0
  1  5  2  0  0  0  0
  2  6  2  0  0  0  0
  3  8  2  0  0  0  0
  3 17  1  0  0  0  0
  4  9  1  0  0  0  0
  4 17  2  0  0  0  0
  5 19  1  0  0  0  0
  6 21  1  0  0  0  0
  7 10  2  0  0  0  0
  7 20  1  0  0  0  0
  8 25  1  0  0  0  0
  9 25  2  0  0  0  0
 10 26  1  0  0  0  0
 11 12  2  0  0  0  0
 11 27  1  0  0  0  0
 12 28  1  0  0  0  0
 13 22  1  0  0  0  0
 13 26  2  0  0  0  0
 14 23  2  0  0  0  0
 14 31  1  0  0  0  0
 15 28  2  0  0  0  0
 15 29  1  0  0  0  0
 16 24  2  0  0  0  0
 16 63  1  0  0  0  0
 17 30  1  0  0  0  0
 18 30  1  0  0  0  0
 18 32  2  0  0  0  0
 18 33  1  0  0  0  0
 19 21  2  0  0  0  0
 19 38  1  0  0  0  0
 20 22  2  0  0  0  0
 20 39  1  0  0  0  0
 21 47  1  0  0  0  0
 22 40  1  0  0  0  0
 23 24  1  0  0  0  0
 23 50  1  0  0  0  0
 24 56  1  0  0  0  0
 25 79  1  0  0  0  0
 26 80  1  0  0  0  0
 27 29  2  0  0  0  0
 27 79  1  0  0  0  0
 28 81  1  0  0  0  0
 29 82  1  0  0  0  0
 30 64  2  0  0  0  0
 31 57  1  0  0  0  0
 31 63  2  0  0  0  0
 32 65  1  0  0  0  0
 32 68  1  0  0  0  0
 33 69  1  0  0  0  0
 33 74  2  0  0  0  0
 34 48  1  0  0  0  0
 34 70  1  0  0  0  0
 34 75  2  0  0  0  0
 35 60  1  0  0  0  0
 35 66  1  0  0  0  0
 35 76  2  0  0  0  0
 36 61  1  0  0  0  0
 36 71  1  0  0  0  0
 36 77  2  0  0  0  0
 37 67  1  0  0  0  0
 37 72  1  0  0  0  0
 37 78  2  0  0  0  0
 38 41  1  0  0  0  0
 39 48  1  0  0  0  0
 40 66  1  0  0  0  0
 41 43  1  0  0  0  0
 42 44  1  0  0  0  0
 42 45  1  0  0  0  0
 43 47  1  0  0  0  0
 44 49  1  0  0  0  0
 45 67  1  0  0  0  0
 46 49  1  0  0  0  0
 46 67  1  0  0  0  0
 47 70  1  0  0  0  0
 48 66  1  0  0  0  0
 49 65  1  0  0  0  0
 51 61  1  0  0  0  0
 52 62  1  0  0  0  0
 53 62  1  0  0  0  0
 54 62  1  0  0  0  0
 55 73  1  0  0  0  0
 56 58  1  0  0  0  0
 57 59  1  0  0  0  0
 58 72  1  0  0  0  0
 59 80  1  0  0  0  0
 60 62  1  0  0  0  0
 60 71  1  0  0  0  0
 61 73  1  0  0  0  0
 64 65  1  0  0  0  0
M  CHG  1  73   1
M  ISO  4  37 100  59 101  72 100  80 101
M  END
> <Batch ID>
0042

> <Smiles>
CNC(C)C(=O)NC(C(=O)N1Cc2cc([101O:1][101CH2:1]Cc3cc(C)c(CC[100NH:0][100C:0](=O)N4CCCC(n5nc(-c6ccc(Oc7ccc(F)cc7F)cc6)c(C(N)=O)c5N)C4)cn3)ccc2CC1C(=O)NC1CCCc2ccccc21)C(C)(C)C

> <Shape>
0.229

> <Color>
0.204

> <Negative vol penalty>
0.000

$$$$

  -OEChem-04052317123D

 88 96  0     1  0  0  0  0  0999 V2000
  -31.0027  -22.6258   22.0366 C   0  0  0  0  0  0  0  0  0  0  0  0
  -29.9409  -22.6098   21.1379 C   0  0  0  0  0  0  0  0  0  0  0  0
  -24.0168   -9.5417   19.7859 C   0  0  0  0  0  0  0  0  0  0  0  0
  -24.5696   -9.6790   22.1338 C   0  0  0  0  0  0  0  0  0  0  0  0
  -30.7981  -23.0527   23.3480 C   0  0  0  0  0  0  0  0  0  0  0  0
  -28.6735  -23.0197   21.5504 C   0  0  0  0  0  0  0  0  0  0  0  0
  -26.4288  -26.0706   18.1891 C   0  0  0  0  0  0  0  0  0  0  0  0
  -23.6519   -8.2055   19.9499 C   0  0  0  0  0  0  0  0  0  0  0  0
  -24.2046   -8.3427   22.2979 C   0  0  0  0  0  0  0  0  0  0  0  0
  -25.8614  -25.4717   17.0652 C   0  0  0  0  0  0  0  0  0  0  0  0
  -21.3493   -6.5632   22.6156 C   0  0  0  0  0  0  0  0  0  0  0  0
  -20.5599   -6.2394   23.7190 C   0  0  0  0  0  0  0  0  0  0  0  0
  -23.6846  -25.6161   18.0948 C   0  0  0  0  0  0  0  0  0  0  0  0
  -25.5978  -18.8818   21.1356 C   0  0  0  0  0  0  0  0  0  0  0  0
  -28.2386  -18.5836   20.2871 C   0  0  0  0  0  0  0  0  0  0  0  0
  -22.2852   -4.7473   24.5153 C   0  0  0  0  0  0  0  0  0  0  0  0
  -24.4757  -10.2785   20.8779 C   0  0  0  0  0  0  0  0  0  0  0  0
  -24.0241  -12.7889   20.8384 C   0  0  0  0  0  0  0  0  0  0  0  0
  -29.5297  -23.4772   23.7742 C   0  0  0  0  0  0  0  0  0  0  0  0
  -25.6285  -26.4374   19.2807 C   0  0  0  0  0  0  0  0  0  0  0  0
  -28.4515  -23.4515   22.8691 C   0  0  0  0  0  0  0  0  0  0  0  0
  -24.2439  -26.2218   19.2303 C   0  0  0  0  0  0  0  0  0  0  0  0
  -26.4890  -18.1149   21.8860 C   0  0  0  0  0  0  0  0  0  0  0  0
  -27.3473  -19.3504   19.5366 C   0  0  0  0  0  0  0  0  0  0  0  0
  -26.0269  -19.4995   19.9608 C   0  0  0  0  0  0  0  0  0  0  0  0
  -27.8094  -17.9659   21.4618 C   0  0  0  0  0  0  0  0  0  0  0  0
  -23.7457   -7.6060   21.2059 C   0  0  0  0  0  0  0  0  0  0  0  0
  -24.4895  -25.2417   17.0191 C   0  0  0  0  0  0  0  0  0  0  0  0
  -22.6066   -5.9791   22.4620 C   0  0  0  0  0  0  0  0  0  0  0  0
  -21.0278   -5.3314   24.6689 C   0  0  0  0  0  0  0  0  0  0  0  0
  -23.0746   -5.0711   23.4119 C   0  0  0  0  0  0  0  0  0  0  0  0
  -24.8534  -11.6587   20.7090 C   0  0  0  0  0  0  0  0  0  0  0  0
  -24.8527  -13.8539   20.5819 C   0  0  0  0  0  0  0  0  0  0  0  0
  -22.6296  -12.8689   21.1616 C   0  0  0  0  0  0  0  0  0  0  0  0
  -25.4888  -25.5958   22.3427 C   0  0  0  0  0  0  0  0  0  0  0  0
  -29.7537  -16.4415   21.3398 C   0  0  0  0  0  0  0  0  0  0  0  0
  -23.2878  -27.9740   22.4928 C   0  0  0  0  0  0  0  0  0  0  0  0
  -21.0035  -29.9147   20.8611 C   0  0  0  0  0  0  0  0  0  0  0  0
  -29.3468  -23.8854   25.2145 C   0  0  0  0  0  0  0  0  0  0  0  0
  -26.2523  -27.1068   20.4745 C   0  0  0  0  0  0  0  0  0  0  0  0
  -23.3382  -26.6155   20.3674 C   0  0  0  0  0  0  0  0  0  0  0  0
  -28.0555  -24.6587   25.4692 C   0  0  0  0  0  0  0  0  0  0  0  0
  -29.5424  -14.0126   18.7138 C   0  0  0  0  0  0  0  0  0  0  0  0
  -26.8765  -23.9667   24.7926 C   0  0  0  0  0  0  0  0  0  0  0  0
  -28.2515  -13.2570   19.0267 C   0  0  0  0  0  0  0  0  0  0  0  0
  -30.2655  -14.4346   19.9890 C   0  0  0  0  0  0  0  0  0  0  0  0
  -28.1325  -14.4836   21.2417 C   0  0  0  0  0  0  0  0  0  0  0  0
  -27.0674  -23.9121   23.2721 C   0  0  1  0  0  0  0  0  0  0  0  0
  -25.4136  -26.9709   21.7417 C   0  0  1  0  0  0  0  0  0  0  0  0
  -27.3551  -14.0658   19.9810 C   0  0  2  0  0  0  0  0  0  0  0  0
  -26.0071  -17.4636   23.1406 C   0  0  0  0  0  0  0  0  0  0  0  0
  -27.8292  -20.0017   18.2820 C   0  0  0  0  0  0  0  0  0  0  0  0
  -30.6099  -17.0837   24.0308 C   0  0  0  0  0  0  0  0  0  0  0  0
  -19.3327  -31.7448   21.2568 C   0  0  0  0  0  0  0  0  0  0  0  0
  -21.3719  -25.9523   23.7385 C   0  0  0  0  0  0  0  0  0  0  0  0
  -19.4924  -27.5274   23.2342 C   0  0  0  0  0  0  0  0  0  0  0  0
  -21.3180  -28.2229   24.7854 C   0  0  0  0  0  0  0  0  0  0  0  0
  -22.4150  -31.7585   19.0263 C   0  0  0  0  0  0  0  0  0  0  0  0
  -25.0452  -20.3229   19.1658 C   0  0  0  0  0  0  0  0  0  0  0  0
  -29.5863  -17.9455   23.3031 C   0  0  0  0  0  0  0  0  0  0  0  0
  -24.1043  -19.4891   18.2861 C   0  0  0  0  0  0  0  0  0  0  0  0
  -23.8470  -22.7014   14.5371 C   0  0  0  0  0  0  0  0  0  0  0  0
  -23.1334  -20.2897   17.4236 C   0  0  0  0  0  0  0  0  0  0  0  0
  -23.0056  -21.9100   15.5271 C   0  0  0  0  0  0  0  0  0  0  0  0
  -24.7476  -23.7416   15.1919 C   0  0  0  0  0  0  0  0  0  1  0  0
  -28.7817  -17.1502   22.2491 C   0  0  1  0  0  0  0  0  0  0  0  0
  -21.7921  -28.0597   22.3074 C   0  0  1  0  0  0  0  0  0  0  0  0
  -20.7659  -31.4140   20.8703 C   0  0  2  0  0  0  0  0  0  0  0  0
  -21.0107  -27.4313   23.4956 C   0  0  0  0  0  0  0  0  0  0  0  0
  -26.1122  -11.9760   20.3946 N   0  0  0  0  0  0  0  0  0  0  0  0
  -26.0800  -13.3177   20.3242 N   0  0  0  0  0  0  0  0  0  0  0  0
  -23.9963  -27.2611   21.5153 N   0  0  0  0  0  0  0  0  0  0  0  0
  -29.3740  -15.1808   20.8787 N   0  0  0  0  0  0  0  0  0  0  0  0
  -24.6439  -15.1873   20.5539 N   0  0  0  0  0  0  0  0  0  0  0  0
  -21.9285  -11.6781   21.3955 N   0  0  0  0  0  0  0  0  0  0  0  0
  -26.7687  -25.1978   22.6787 N   0  0  0  0  0  0  0  0  0  0  0  0
  -21.4900  -29.4673   22.0713 N   0  0  0  0  0  0  0  0  0  0  0  0
  -21.0336  -31.9891   19.5217 N   0  3  0  0  0  0  0  0  0  0  0  0
  -23.8723  -21.1423   16.4518 N   0  3  0  0  0  0  0  0  0  0  0  0
  -22.0193  -13.9631   21.2245 O   0  0  0  0  0  0  0  0  0  0  0  0
  -24.4614  -24.9447   22.4919 O   0  0  0  0  0  0  0  0  0  0  0  0
  -30.8169  -16.9947   21.0468 O   0  0  0  0  0  0  0  0  0  0  0  0
  -23.8092  -28.5256   23.4652 O   0  0  0  0  0  0  0  0  0  0  0  0
  -20.7764  -29.2102   19.8800 O   0  0  0  0  0  0  0  0  0  0  0  0
  -23.3895   -6.3022   21.3664 O   0  0  0  0  0  0  0  0  0  0  0  0
  -23.9331  -24.6568   15.9236 O   0  0  0  0  0  0  0  0  0  1  0  0
  -20.2703   -5.0217   25.7292 F   0  0  0  0  0  0  0  0  0  0  0  0
  -24.2821   -4.5076   23.2703 F   0  0  0  0  0  0  0  0  0  0  0  0
  1  2  1  0  0  0  0
  1  5  2  0  0  0  0
  2  6  2  0  0  0  0
  3  8  2  0  0  0  0
  3 17  1  0  0  0  0
  4  9  1  0  0  0  0
  4 17  2  0  0  0  0
  5 19  1  0  0  0  0
  6 21  1  0  0  0  0
  7 10  2  0  0  0  0
  7 20  1  0  0  0  0
  8 27  1  0  0  0  0
  9 27  2  0  0  0  0
 10 28  1  0  0  0  0
 11 12  2  0  0  0  0
 11 29  1  0  0  0  0
 12 30  1  0  0  0  0
 13 22  1  0  0  0  0
 13 28  2  0  0  0  0
 14 23  1  0  0  0  0
 14 25  2  0  0  0  0
 15 24  2  0  0  0  0
 15 26  1  0  0  0  0
 16 30  2  0  0  0  0
 16 31  1  0  0  0  0
 17 32  1  0  0  0  0
 18 32  1  0  0  0  0
 18 33  2  0  0  0  0
 18 34  1  0  0  0  0
 19 21  2  0  0  0  0
 19 39  1  0  0  0  0
 20 22  2  0  0  0  0
 20 40  1  0  0  0  0
 21 48  1  0  0  0  0
 22 41  1  0  0  0  0
 23 26  2  0  0  0  0
 23 51  1  0  0  0  0
 24 25  1  0  0  0  0
 24 52  1  0  0  0  0
 25 59  1  0  0  0  0
 26 66  1  0  0  0  0
 27 85  1  0  0  0  0
 28 86  1  0  0  0  0
 29 31  2  0  0  0  0
 29 85  1  0  0  0  0
 30 87  1  0  0  0  0
 31 88  1  0  0  0  0
 32 70  2  0  0  0  0
 33 71  1  0  0  0  0
 33 74  1  0  0  0  0
 34 75  1  0  0  0  0
 34 80  2  0  0  0  0
 35 49  1  0  0  0  0
 35 76  1  0  0  0  0
 35 81  2  0  0  0  0
 36 66  1  0  0  0  0
 36 73  1  0  0  0  0
 36 82  2  0  0  0  0
 37 67  1  0  0  0  0
 37 72  1  0  0  0  0
 37 83  2  0  0  0  0
 38 68  1  0  0  0  0
 38 77  1  0  0  0  0
 38 84  2  0  0  0  0
 39 42  1  0  0  0  0
 40 49  1  0  0  0  0
 41 72  1  0  0  0  0
 42 44  1  0  0  0  0
 43 45  1  0  0  0  0
 43 46  1  0  0  0  0
 44 48  1  0  0  0  0
 45 50  1  0  0  0  0
 46 73  1  0  0  0  0
 47 50  1  0  0  0  0
 47 73  1  0  0  0  0
 48 76  1  0  0  0  0
 49 72  1  0  0  0  0
 50 71  1  0  0  0  0
 53 60  1  0  0  0  0
 54 68  1  0  0  0  0
 55 69  1  0  0  0  0
 56 69  1  0  0  0  0
 57 69  1  0  0  0  0
 58 78  1  0  0  0  0
 59 61  1  0  0  0  0
 60 66  1  0  0  0  0
 61 63  1  0  0  0  0
 62 64  1  0  0  0  0
 62 65  1  0  0  0  0
 63 79  1  0  0  0  0
 64 79  1  0  0  0  0
 65 86  1  0  0  0  0
 67 69  1  0  0  0  0
 67 77  1  0  0  0  0
 68 78  1  0  0  0  0
 70 71  1  0  0  0  0
M  CHG  2  78   1  79   1
M  ISO  4  36 100  65 101  66 100  86 101
M  END
> <Batch ID>
0042

> <Smiles>
CC[100CH:0](c1cc(C)c(CCCNCC[101CH2:1][101O:1]c2ccc3c(c2)CN(C(=O)C(NC(=O)C(C)NC)C(C)(C)C)C(C(=O)NC2CCCc4ccccc42)C3)cc1C)[100C:0](=O)N1CCCC(n2nc(-c3ccc(Oc4ccc(F)cc4F)cc3)c(C(N)=O)c2N)C1

> <Shape>
0.241

> <Color>
0.135

> <Negative vol penalty>
0.000

$$$$

  -OEChem-04052317123D

 85 93  0     1  0  0  0  0  0999 V2000
  -23.9675   -6.0384   23.6751 C   0  0  0  0  0  0  0  0  0  0  0  0
  -25.1631   -6.7498   23.6749 C   0  0  0  0  0  0  0  0  0  0  0  0
  -24.3802  -29.9401   20.6349 C   0  0  0  0  0  0  0  0  0  0  0  0
  -24.5417  -28.6715   22.6847 C   0  0  0  0  0  0  0  0  0  0  0  0
  -22.9221   -6.4341   22.8418 C   0  0  0  0  0  0  0  0  0  0  0  0
  -25.3143   -7.8567   22.8405 C   0  0  0  0  0  0  0  0  0  0  0  0
  -28.5567  -14.2385   22.5643 C   0  0  0  0  0  0  0  0  0  0  0  0
  -24.0629  -31.0837   21.3676 C   0  0  0  0  0  0  0  0  0  0  0  0
  -24.2245  -29.8152   23.4175 C   0  0  0  0  0  0  0  0  0  0  0  0
  -29.3941  -14.9862   21.7377 C   0  0  0  0  0  0  0  0  0  0  0  0
  -23.8111  -32.4838   25.8518 C   0  0  0  0  0  0  0  0  0  0  0  0
  -24.5691  -32.7562   26.9906 C   0  0  0  0  0  0  0  0  0  0  0  0
  -27.4921  -15.6250   20.3986 C   0  0  0  0  0  0  0  0  0  0  0  0
  -30.1609  -20.2420   20.7241 C   0  0  0  0  0  0  0  0  0  0  0  0
  -29.2054  -19.3243   18.7038 C   0  0  0  0  0  0  0  0  0  0  0  0
  -26.5646  -32.8753   25.6338 C   0  0  0  0  0  0  0  0  0  0  0  0
  -24.6195  -28.7339   21.2934 C   0  0  0  0  0  0  0  0  0  0  0  0
  -26.2299  -27.1104   20.1627 C   0  0  0  0  0  0  0  0  0  0  0  0
  -23.0571   -7.5522   22.0038 C   0  0  0  0  0  0  0  0  0  0  0  0
  -27.1798  -14.1695   22.3074 C   0  0  0  0  0  0  0  0  0  0  0  0
  -24.2702   -8.2669   21.9941 C   0  0  0  0  0  0  0  0  0  0  0  0
  -26.6389  -14.8778   21.2250 C   0  0  0  0  0  0  0  0  0  0  0  0
  -30.1787  -19.2925   19.7025 C   0  0  0  0  0  0  0  0  0  0  0  0
  -29.1698  -21.2233   20.7471 C   0  0  0  0  0  0  0  0  0  0  0  0
  -28.2143  -20.3056   18.7267 C   0  0  0  0  0  0  0  0  0  0  0  0
  -23.9851  -31.0213   22.7589 C   0  0  0  0  0  0  0  0  0  0  0  0
  -28.8623  -15.6773   20.6530 C   0  0  0  0  0  0  0  0  0  0  0  0
  -24.4299  -32.4070   24.6040 C   0  0  0  0  0  0  0  0  0  0  0  0
  -25.9459  -32.9520   26.8816 C   0  0  0  0  0  0  0  0  0  0  0  0
  -25.8066  -32.6028   24.4950 C   0  0  0  0  0  0  0  0  0  0  0  0
  -28.1965  -21.2551   19.7484 C   0  0  0  0  0  0  0  0  0  0  0  0
  -24.9467  -27.5520   20.5370 C   0  0  0  0  0  0  0  0  0  0  0  0
  -26.0034  -25.9501   19.4635 C   0  0  0  0  0  0  0  0  0  0  0  0
  -27.5121  -27.6965   20.4239 C   0  0  0  0  0  0  0  0  0  0  0  0
  -25.1459  -11.8340   21.5917 C   0  0  0  0  0  0  0  0  0  0  0  0
  -22.9380  -14.1901   21.9023 C   0  0  0  0  0  0  0  0  0  0  0  0
  -22.2334  -17.5285   21.8277 C   0  0  0  0  0  0  0  0  0  0  0  0
  -23.4006  -21.0478   18.8818 C   0  0  0  0  0  0  0  0  0  0  0  0
  -21.9162   -7.9134   21.0858 C   0  0  0  0  0  0  0  0  0  0  0  0
  -26.2861  -13.3801   23.2243 C   0  0  0  0  0  0  0  0  0  0  0  0
  -25.1646  -14.8527   20.9181 C   0  0  0  0  0  0  0  0  0  0  0  0
  -22.0233   -9.3215   20.5061 C   0  0  0  0  0  0  0  0  0  0  0  0
  -21.7009  -23.9490   17.7110 C   0  0  0  0  0  0  0  0  0  0  0  0
  -23.4346   -9.5797   19.9881 C   0  0  0  0  0  0  0  0  0  0  0  0
  -22.4957  -25.1076   18.3159 C   0  0  0  0  0  0  0  0  0  0  0  0
  -21.6229  -22.7593   18.6652 C   0  0  0  0  0  0  0  0  0  0  0  0
  -23.7199  -23.4371   19.7683 C   0  0  0  0  0  0  0  0  0  0  0  0
  -24.4636   -9.4879   21.1213 C   0  0  1  0  0  0  0  0  0  0  0  0
  -24.9738  -12.9640   22.5670 C   0  0  1  0  0  0  0  0  0  0  0  0
  -23.8737  -24.6391   18.8208 C   0  0  2  0  0  0  0  0  0  0  0  0
  -29.6893  -23.5916   21.3854 C   0  0  0  0  0  0  0  0  0  0  0  0
  -20.3324  -19.1467   22.0824 C   0  0  0  0  0  0  0  0  0  0  0  0
  -21.9319  -13.4424   19.1205 C   0  0  0  0  0  0  0  0  0  0  0  0
  -20.7240  -15.6341   19.0444 C   0  0  0  0  0  0  0  0  0  0  0  0
  -20.1307  -13.9446   20.7812 C   0  0  0  0  0  0  0  0  0  0  0  0
  -23.5194  -18.8544   24.1400 C   0  0  0  0  0  0  0  0  0  0  0  0
  -31.2517  -18.2312   19.6768 C   0  0  0  0  0  0  0  0  0  0  0  0
  -29.1535  -22.2368   21.8410 C   0  0  0  0  0  0  0  0  0  0  0  0
  -27.1753  -20.3371   17.6568 C   0  0  0  0  0  0  0  0  0  0  0  0
  -26.0378  -19.3135   17.8422 C   0  0  0  0  0  0  0  0  0  0  0  0
  -25.2786  -19.4495   19.1603 C   0  0  0  0  0  0  0  0  0  0  0  0
  -30.8435  -16.9755   20.4394 C   0  0  0  0  0  0  0  0  0  1  0  0
  -22.3159  -15.2019   20.9705 C   0  0  1  0  0  0  0  0  0  0  0  0
  -21.4648  -18.4174   22.7886 C   0  0  2  0  0  0  0  0  0  0  0  0
  -21.3037  -14.5548   19.9835 C   0  0  0  0  0  0  0  0  0  0  0  0
  -23.9768  -26.7387   20.1106 N   0  0  0  0  0  0  0  0  0  0  0  0
  -24.6509  -25.7743   19.4612 N   0  0  0  0  0  0  0  0  0  0  0  0
  -24.3328  -14.0616   21.8400 N   0  0  0  0  0  0  0  0  0  0  0  0
  -22.9629  -22.3637   19.1054 N   0  0  0  0  0  0  0  0  0  0  0  0
  -26.8311  -25.0733   18.8565 N   0  0  0  0  0  0  0  0  0  0  0  0
  -27.5644  -28.8897   21.1574 N   0  0  0  0  0  0  0  0  0  0  0  0
  -24.4412  -10.6925   21.9231 N   0  0  0  0  0  0  0  0  0  0  0  0
  -21.7420  -16.2401   21.8197 N   0  0  0  0  0  0  0  0  0  0  0  0
  -24.6855  -20.7579   19.3243 N   0  0  0  0  0  0  0  0  0  0  0  0
  -22.3725  -19.4328   23.3936 N   0  3  0  0  0  0  0  0  0  0  0  0
  -28.5786  -27.1862   20.0049 O   0  0  0  0  0  0  0  0  0  0  0  0
  -25.8636  -11.9870   20.6103 O   0  0  0  0  0  0  0  0  0  0  0  0
  -22.2138  -13.5428   22.6627 O   0  0  0  0  0  0  0  0  0  0  0  0
  -23.1731  -17.9370   21.1490 O   0  0  0  0  0  0  0  0  0  0  0  0
  -22.7004  -20.1960   18.3240 O   0  0  0  0  0  0  0  0  0  0  0  0
  -23.6758  -32.1372   23.4743 O   0  0  0  0  0  0  0  0  0  0  0  0
  -29.6776  -16.4074   19.8442 O   0  0  0  0  0  0  0  0  0  1  0  0
  -26.6734  -33.2152   27.9750 F   0  0  0  0  0  0  0  0  0  0  0  0
  -26.4065  -32.5315   23.2988 F   0  0  0  0  0  0  0  0  0  0  0  0
  -27.2425  -22.1976   19.7708 F   0  0  0  0  0  0  0  0  0  0  0  0
  1  2  1  0  0  0  0
  1  5  2  0  0  0  0
  2  6  2  0  0  0  0
  3  8  2  0  0  0  0
  3 17  1  0  0  0  0
  4  9  1  0  0  0  0
  4 17  2  0  0  0  0
  5 19  1  0  0  0  0
  6 21  1  0  0  0  0
  7 10  2  0  0  0  0
  7 20  1  0  0  0  0
  8 26  1  0  0  0  0
  9 26  2  0  0  0  0
 10 27  1  0  0  0  0
 11 12  2  0  0  0  0
 11 28  1  0  0  0  0
 12 29  1  0  0  0  0
 13 22  1  0  0  0  0
 13 27  2  0  0  0  0
 14 23  2  0  0  0  0
 14 24  1  0  0  0  0
 15 23  1  0  0  0  0
 15 25  2  0  0  0  0
 16 29  2  0  0  0  0
 16 30  1  0  0  0  0
 17 32  1  0  0  0  0
 18 32  1  0  0  0  0
 18 33  2  0  0  0  0
 18 34  1  0  0  0  0
 19 21  2  0  0  0  0
 19 39  1  0  0  0  0
 20 22  2  0  0  0  0
 20 40  1  0  0  0  0
 21 48  1  0  0  0  0
 22 41  1  0  0  0  0
 23 57  1  0  0  0  0
 24 31  2  0  0  0  0
 24 58  1  0  0  0  0
 25 31  1  0  0  0  0
 25 59  1  0  0  0  0
 26 81  1  0  0  0  0
 27 82  1  0  0  0  0
 28 30  2  0  0  0  0
 28 81  1  0  0  0  0
 29 83  1  0  0  0  0
 30 84  1  0  0  0  0
 31 85  1  0  0  0  0
 32 66  2  0  0  0  0
 33 67  1  0  0  0  0
 33 70  1  0  0  0  0
 34 71  1  0  0  0  0
 34 76  2  0  0  0  0
 35 49  1  0  0  0  0
 35 72  1  0  0  0  0
 35 77  2  0  0  0  0
 36 63  1  0  0  0  0
 36 68  1  0  0  0  0
 36 78  2  0  0  0  0
 37 64  1  0  0  0  0
 37 73  1  0  0  0  0
 37 79  2  0  0  0  0
 38 69  1  0  0  0  0
 38 74  1  0  0  0  0
 38 80  2  0  0  0  0
 39 42  1  0  0  0  0
 40 49  1  0  0  0  0
 41 68  1  0  0  0  0
 42 44  1  0  0  0  0
 43 45  1  0  0  0  0
 43 46  1  0  0  0  0
 44 48  1  0  0  0  0
 45 50  1  0  0  0  0
 46 69  1  0  0  0  0
 47 50  1  0  0  0  0
 47 69  1  0  0  0  0
 48 72  1  0  0  0  0
 49 68  1  0  0  0  0
 50 67  1  0  0  0  0
 51 58  1  0  0  0  0
 52 64  1  0  0  0  0
 53 65  1  0  0  0  0
 54 65  1  0  0  0  0
 55 65  1  0  0  0  0
 56 75  1  0  0  0  0
 57 62  1  0  0  0  0
 59 60  1  0  0  0  0
 60 61  1  0  0  0  0
 61 74  1  0  0  0  0
 62 82  1  0  0  0  0
 63 65  1  0  0  0  0
 63 73  1  0  0  0  0
 64 75  1  0  0  0  0
 66 67  1  0  0  0  0
M  CHG  1  75   1
M  ISO  4  38 100  62 101  74 100  82 101
M  END
> <Batch ID>
0042

> <Smiles>
CCc1cc(C[101CH2:1][101O:1]c2ccc3c(c2)CN(C(=O)C(NC(=O)C(C)NC)C(C)(C)C)C(C(=O)NC2CCCc4ccccc42)C3)cc(CCC[100NH:0][100C:0](=O)N2CCCC(n3nc(-c4ccc(Oc5ccc(F)cc5F)cc4)c(C(N)=O)c3N)C2)c1F

> <Shape>
0.255

> <Color>
0.074

> <Negative vol penalty>
0.000

$$$$

  -OEChem-04052317123D

 83 91  0     1  0  0  0  0  0999 V2000
  -26.7824  -27.7182   15.5261 C   0  0  0  0  0  0  0  0  0  0  0  0
  -27.4893  -26.9017   16.4030 C   0  0  0  0  0  0  0  0  0  0  0  0
  -23.1910   -9.8217   19.9296 C   0  0  0  0  0  0  0  0  0  0  0  0
  -23.5807   -9.9929   22.3078 C   0  0  0  0  0  0  0  0  0  0  0  0
  -25.3911  -27.7750   15.5966 C   0  0  0  0  0  0  0  0  0  0  0  0
  -26.8053  -26.1423   17.3517 C   0  0  0  0  0  0  0  0  0  0  0  0
  -27.1815  -19.8863   20.8212 C   0  0  0  0  0  0  0  0  0  0  0  0
  -22.4265   -8.6737   20.1375 C   0  0  0  0  0  0  0  0  0  0  0  0
  -22.8162   -8.8448   22.5157 C   0  0  0  0  0  0  0  0  0  0  0  0
  -27.1474  -19.3686   22.1152 C   0  0  0  0  0  0  0  0  0  0  0  0
  -21.2665   -5.7554   23.6398 C   0  0  0  0  0  0  0  0  0  0  0  0
  -21.7678   -4.7924   24.5156 C   0  0  0  0  0  0  0  0  0  0  0  0
  -24.7381  -19.4861   22.0922 C   0  0  0  0  0  0  0  0  0  0  0  0
  -23.7199   -4.5354   23.1154 C   0  0  0  0  0  0  0  0  0  0  0  0
  -29.2543  -14.3606   25.4357 C   0  0  0  0  0  0  0  0  0  0  0  0
  -23.7681  -10.4813   21.0148 C   0  0  0  0  0  0  0  0  0  0  0  0
  -24.1038  -12.9991   20.7794 C   0  0  0  0  0  0  0  0  0  0  0  0
  -24.6891  -27.0086   16.5402 C   0  0  0  0  0  0  0  0  0  0  0  0
  -25.9926  -20.2185   20.1559 C   0  0  0  0  0  0  0  0  0  0  0  0
  -25.4034  -26.1899   17.4357 C   0  0  0  0  0  0  0  0  0  0  0  0
  -24.7597  -20.0054   20.7888 C   0  0  0  0  0  0  0  0  0  0  0  0
  -30.2791  -15.0437   24.7537 C   0  0  0  0  0  0  0  0  0  0  0  0
  -22.2391   -8.1852   21.4305 C   0  0  0  0  0  0  0  0  0  0  0  0
  -25.9257  -19.1711   22.7521 C   0  0  0  0  0  0  0  0  0  0  0  0
  -21.9918   -6.1083   22.5018 C   0  0  0  0  0  0  0  0  0  0  0  0
  -22.9945   -4.1824   24.2534 C   0  0  0  0  0  0  0  0  0  0  0  0
  -23.2185   -5.4984   22.2396 C   0  0  0  0  0  0  0  0  0  0  0  0
  -24.5584  -11.6669   20.8006 C   0  0  0  0  0  0  0  0  0  0  0  0
  -29.7910  -16.3166   24.5866 C   0  0  0  0  0  0  0  0  0  0  0  0
  -25.2333  -13.7435   20.5416 C   0  0  0  0  0  0  0  0  0  0  0  0
  -22.7791  -13.5174   20.9588 C   0  0  0  0  0  0  0  0  0  0  0  0
  -24.7502  -22.9009   18.9877 C   0  0  0  0  0  0  0  0  0  0  0  0
  -22.4679  -20.8917   17.8578 C   0  0  0  0  0  0  0  0  0  0  0  0
  -20.8369  -17.9074   18.1416 C   0  0  0  0  0  0  0  0  0  0  0  0
  -31.0538  -12.7538   21.5386 C   0  0  0  0  0  0  0  0  0  0  0  0
  -23.1881  -27.1391   16.6095 C   0  0  0  0  0  0  0  0  0  0  0  0
  -26.0453  -20.7510   18.7502 C   0  0  0  0  0  0  0  0  0  0  0  0
  -23.4540  -20.3269   20.1104 C   0  0  0  0  0  0  0  0  0  0  0  0
  -22.5149  -26.0175   17.3963 C   0  0  0  0  0  0  0  0  0  0  0  0
  -29.5106  -13.4825   18.4138 C   0  0  0  0  0  0  0  0  0  0  0  0
  -23.2482  -25.7732   18.7113 C   0  0  0  0  0  0  0  0  0  0  0  0
  -28.0254  -13.2201   18.6693 C   0  0  0  0  0  0  0  0  0  0  0  0
  -30.3963  -12.4908   19.1648 C   0  0  0  0  0  0  0  0  0  0  0  0
  -28.6513  -12.1399   20.8693 C   0  0  0  0  0  0  0  0  0  0  0  0
  -24.6957  -25.3323   18.4622 C   0  0  1  0  0  0  0  0  0  0  0  0
  -24.7962  -21.5359   18.3614 C   0  0  1  0  0  0  0  0  0  0  0  0
  -27.7198  -13.1498   20.1775 C   0  0  2  0  0  0  0  0  0  0  0  0
  -30.3795  -17.5090   23.9476 C   0  0  0  0  0  0  0  0  0  0  0  0
  -32.7002  -14.7457   25.3646 C   0  0  0  0  0  0  0  0  0  0  0  0
  -18.9931  -16.5631   17.0972 C   0  0  0  0  0  0  0  0  0  0  0  0
  -25.3645  -16.4351   24.7090 C   0  0  0  0  0  0  0  0  0  0  0  0
  -20.4000  -22.6800   19.2125 C   0  0  0  0  0  0  0  0  0  0  0  0
  -18.7351  -20.8272   18.9607 C   0  0  0  0  0  0  0  0  0  0  0  0
  -19.7503  -21.8731   16.9363 C   0  0  0  0  0  0  0  0  0  0  0  0
  -22.6853  -15.7078   17.4317 C   0  0  0  0  0  0  0  0  0  0  0  0
  -27.5927  -17.4824   25.2396 C   0  0  0  0  0  0  0  0  0  0  0  0
  -31.5555  -12.9956   23.9570 C   0  0  0  0  0  0  0  0  0  0  0  0
  -31.5801  -14.5083   24.3196 C   0  0  1  0  0  0  0  0  0  0  0  0
  -21.1595  -20.3550   18.3859 C   0  0  1  0  0  0  0  0  0  0  0  0
  -20.4867  -16.8489   17.1114 C   0  0  2  0  0  0  0  0  0  0  0  0
  -26.4586  -17.3732   24.2148 C   0  0  2  0  0  0  0  0  0  1  0  0
  -20.0357  -21.4295   18.3876 C   0  0  0  0  0  0  0  0  0  0  0  0
  -28.1954  -15.1355   25.6850 N   0  0  0  0  0  0  0  0  0  0  0  0
  -25.8740  -11.5676   20.5927 N   0  0  0  0  0  0  0  0  0  0  0  0
  -28.5521  -16.3187   25.1568 N   0  0  0  0  0  0  0  0  0  0  0  0
  -26.2559  -12.8469   20.4385 N   0  0  0  0  0  0  0  0  0  0  0  0
  -23.5581  -20.8511   18.7386 N   0  0  0  0  0  0  0  0  0  0  0  0
  -30.0567  -12.4737   20.5896 N   0  0  0  0  0  0  0  0  0  0  0  0
  -25.4417  -15.0711   20.4126 N   0  0  0  0  0  0  0  0  0  0  0  0
  -21.7342  -12.6134   21.1943 N   0  0  0  0  0  0  0  0  0  0  0  0
  -24.7400  -23.9385   18.0751 N   0  0  0  0  0  0  0  0  0  0  0  0
  -20.8530  -19.1711   17.5903 N   0  0  0  0  0  0  0  0  0  0  0  0
  -30.6460  -12.7228   22.8666 N   0  0  0  0  0  0  0  0  0  0  0  0
  -21.2056  -15.5780   17.4095 N   0  3  0  0  0  0  0  0  0  0  0  0
  -22.5267  -14.7445   20.8952 O   0  0  0  0  0  0  0  0  0  0  0  0
  -24.7243  -23.0050   20.2084 O   0  0  0  0  0  0  0  0  0  0  0  0
  -22.5225  -21.3242   16.7039 O   0  0  0  0  0  0  0  0  0  0  0  0
  -21.0690  -17.6403   19.3186 O   0  0  0  0  0  0  0  0  0  0  0  0
  -32.2197  -13.0175   21.2253 O   0  0  0  0  0  0  0  0  0  0  0  0
  -21.4931   -7.0651   21.6338 O   0  0  0  0  0  0  0  0  0  0  0  0
  -25.8896  -18.6666   24.0154 O   0  0  0  0  0  0  0  0  0  1  0  0
  -23.4766   -3.2588   25.0952 F   0  0  0  0  0  0  0  0  0  0  0  0
  -23.9204   -5.8342   21.1485 F   0  0  0  0  0  0  0  0  0  0  0  0
  1  2  1  0  0  0  0
  1  5  2  0  0  0  0
  2  6  2  0  0  0  0
  3  8  2  0  0  0  0
  3 16  1  0  0  0  0
  4  9  1  0  0  0  0
  4 16  2  0  0  0  0
  5 18  1  0  0  0  0
  6 20  1  0  0  0  0
  7 10  2  0  0  0  0
  7 19  1  0  0  0  0
  8 23  1  0  0  0  0
  9 23  2  0  0  0  0
 10 24  1  0  0  0  0
 11 12  2  0  0  0  0
 11 25  1  0  0  0  0
 12 26  1  0  0  0  0
 13 21  1  0  0  0  0
 13 24  2  0  0  0  0
 14 26  2  0  0  0  0
 14 27  1  0  0  0  0
 15 22  1  0  0  0  0
 15 63  2  0  0  0  0
 16 28  1  0  0  0  0
 17 28  1  0  0  0  0
 17 30  2  0  0  0  0
 17 31  1  0  0  0  0
 18 20  2  0  0  0  0
 18 36  1  0  0  0  0
 19 21  2  0  0  0  0
 19 37  1  0  0  0  0
 20 45  1  0  0  0  0
 21 38  1  0  0  0  0
 22 29  2  0  0  0  0
 22 58  1  0  0  0  0
 23 80  1  0  0  0  0
 24 81  1  0  0  0  0
 25 27  2  0  0  0  0
 25 80  1  0  0  0  0
 26 82  1  0  0  0  0
 27 83  1  0  0  0  0
 28 64  2  0  0  0  0
 29 48  1  0  0  0  0
 29 65  1  0  0  0  0
 30 66  1  0  0  0  0
 30 69  1  0  0  0  0
 31 70  1  0  0  0  0
 31 75  2  0  0  0  0
 32 46  1  0  0  0  0
 32 71  1  0  0  0  0
 32 76  2  0  0  0  0
 33 59  1  0  0  0  0
 33 67  1  0  0  0  0
 33 77  2  0  0  0  0
 34 60  1  0  0  0  0
 34 72  1  0  0  0  0
 34 78  2  0  0  0  0
 35 68  1  0  0  0  0
 35 73  1  0  0  0  0
 35 79  2  0  0  0  0
 36 39  1  0  0  0  0
 37 46  1  0  0  0  0
 38 67  1  0  0  0  0
 39 41  1  0  0  0  0
 40 42  1  0  0  0  0
 40 43  1  0  0  0  0
 41 45  1  0  0  0  0
 42 47  1  0  0  0  0
 43 68  1  0  0  0  0
 44 47  1  0  0  0  0
 44 68  1  0  0  0  0
 45 71  1  0  0  0  0
 46 67  1  0  0  0  0
 47 66  1  0  0  0  0
 49 58  1  0  0  0  0
 50 60  1  0  0  0  0
 51 61  1  0  0  0  0
 52 62  1  0  0  0  0
 53 62  1  0  0  0  0
 54 62  1  0  0  0  0
 55 74  1  0  0  0  0
 56 61  1  0  0  0  0
 56 65  1  0  0  0  0
 57 58  1  0  0  0  0
 57 73  1  0  0  0  0
 59 62  1  0  0  0  0
 59 72  1  0  0  0  0
 60 74  1  0  0  0  0
 61 81  1  0  0  0  0
 63 65  1  0  0  0  0
 64 66  1  0  0  0  0
M  CHG  1  74   1
M  ISO  4  35 100  61 101  73 100  81 101
M  END
> <Batch ID>
0042

> <Smiles>
CNC(C)C(=O)NC(C(=O)N1Cc2cc([101O:1][101CH:1](C)Cn3ncc(C(C)C[100NH:0][100C:0](=O)N4CCCC(n5nc(-c6ccc(Oc7ccc(F)cc7F)cc6)c(C(N)=O)c5N)C4)c3C)ccc2CC1C(=O)NC1CCCc2ccccc21)C(C)(C)C

> <Shape>
0.153

> <Color>
0.182

> <Negative vol penalty>
0.000

$$$$

  -OEChem-04052317123D

 83 91  0     1  0  0  0  0  0999 V2000
  -16.6739  -32.8268   23.3340 C   0  0  0  0  0  0  0  0  0  0  0  0
  -18.0531  -33.0086   23.3160 C   0  0  0  0  0  0  0  0  0  0  0  0
  -26.5168  -14.5366   19.1240 C   0  0  0  0  0  0  0  0  0  0  0  0
  -25.5592  -14.7835   21.3284 C   0  0  0  0  0  0  0  0  0  0  0  0
  -16.1425  -31.5396   23.4007 C   0  0  0  0  0  0  0  0  0  0  0  0
  -18.9016  -31.9032   23.3658 C   0  0  0  0  0  0  0  0  0  0  0  0
  -24.3244  -31.2967   20.5852 C   0  0  0  0  0  0  0  0  0  0  0  0
  -26.4088  -13.1501   19.2324 C   0  0  0  0  0  0  0  0  0  0  0  0
  -25.4512  -13.3970   21.4367 C   0  0  0  0  0  0  0  0  0  0  0  0
  -25.6335  -31.4553   21.0378 C   0  0  0  0  0  0  0  0  0  0  0  0
  -24.5900   -9.9371   22.1478 C   0  0  0  0  0  0  0  0  0  0  0  0
  -23.3956   -9.4158   22.6450 C   0  0  0  0  0  0  0  0  0  0  0  0
  -30.5473  -27.5384   17.9242 C   0  0  0  0  0  0  0  0  0  0  0  0
  -25.7770  -29.0806   21.4367 C   0  0  0  0  0  0  0  0  0  0  0  0
  -22.1883  -10.4427   20.8216 C   0  0  0  0  0  0  0  0  0  0  0  0
  -30.7322  -28.5752   18.8120 C   0  0  0  0  0  0  0  0  0  0  0  0
  -26.0920  -15.3532   20.1720 C   0  0  0  0  0  0  0  0  0  0  0  0
  -25.2433  -17.6756   19.5442 C   0  0  0  0  0  0  0  0  0  0  0  0
  -16.9848  -30.4174   23.4415 C   0  0  0  0  0  0  0  0  0  0  0  0
  -23.7270  -30.0281   20.5652 C   0  0  0  0  0  0  0  0  0  0  0  0
  -18.3809  -30.5998   23.4344 C   0  0  0  0  0  0  0  0  0  0  0  0
  -24.4610  -28.9081   20.9810 C   0  0  0  0  0  0  0  0  0  0  0  0
  -30.4963  -26.3400   18.6781 C   0  0  0  0  0  0  0  0  0  0  0  0
  -25.8760  -12.5803   20.3887 C   0  0  0  0  0  0  0  0  0  0  0  0
  -26.3590  -30.3476   21.4663 C   0  0  0  0  0  0  0  0  0  0  0  0
  -24.5836  -10.7113   20.9875 C   0  0  0  0  0  0  0  0  0  0  0  0
  -22.1948   -9.6686   21.9819 C   0  0  0  0  0  0  0  0  0  0  0  0
  -23.3827  -10.9641   20.3244 C   0  0  0  0  0  0  0  0  0  0  0  0
  -26.2038  -16.7855   20.0609 C   0  0  0  0  0  0  0  0  0  0  0  0
  -30.6514  -26.6810   20.0036 C   0  0  0  0  0  0  0  0  0  0  0  0
  -25.8258  -18.9141   19.6594 C   0  0  0  0  0  0  0  0  0  0  0  0
  -23.9410  -17.4069   19.0081 C   0  0  0  0  0  0  0  0  0  0  0  0
  -21.2102  -28.7112   21.9918 C   0  0  0  0  0  0  0  0  0  0  0  0
  -21.9189  -26.2026   20.0612 C   0  0  0  0  0  0  0  0  0  0  0  0
  -24.2596  -24.5311   18.2245 C   0  0  0  0  0  0  0  0  0  0  0  0
  -28.5650  -22.6271   22.6018 C   0  0  0  0  0  0  0  0  0  0  0  0
  -16.3644  -29.0479   23.5608 C   0  0  0  0  0  0  0  0  0  0  0  0
  -22.3231  -29.8700   20.0490 C   0  0  0  0  0  0  0  0  0  0  0  0
  -23.8725  -27.5219   20.9602 C   0  0  0  0  0  0  0  0  0  0  0  0
  -17.3291  -27.9114   23.2323 C   0  0  0  0  0  0  0  0  0  0  0  0
  -30.5786  -20.2272   20.7898 C   0  0  0  0  0  0  0  0  0  0  0  0
  -18.6665  -28.1269   23.9335 C   0  0  0  0  0  0  0  0  0  0  0  0
  -29.5295  -19.1862   20.3951 C   0  0  0  0  0  0  0  0  0  0  0  0
  -30.3056  -20.7865   22.1829 C   0  0  0  0  0  0  0  0  0  0  0  0
  -27.8940  -20.3280   21.9641 C   0  0  0  0  0  0  0  0  0  0  0  0
  -19.3339  -29.4245   23.4619 C   0  0  1  0  0  0  0  0  0  0  0  0
  -21.6392  -28.6040   20.5558 C   0  0  1  0  0  0  0  0  0  0  0  0
  -28.1016  -19.7408   20.5562 C   0  0  2  0  0  0  0  0  0  0  0  0
  -30.3107  -24.9797   18.1351 C   0  0  0  0  0  0  0  0  0  0  0  0
  -24.5501  -22.4933   16.7891 C   0  0  0  0  0  0  0  0  0  0  0  0
  -21.9534  -24.4510   22.5593 C   0  0  0  0  0  0  0  0  0  0  0  0
  -23.1521  -22.7002   21.2303 C   0  0  0  0  0  0  0  0  0  0  0  0
  -20.8535  -23.4090   20.5696 C   0  0  0  0  0  0  0  0  0  0  0  0
  -24.9985  -26.1565   15.8642 C   0  0  0  0  0  0  0  0  0  0  0  0
  -30.6763  -25.8281   21.2110 C   0  0  0  0  0  0  0  0  0  0  0  0
  -29.3558  -25.8008   22.0162 C   0  0  0  0  0  0  0  0  0  0  0  0
  -29.9400  -29.9438   21.5319 C   0  0  0  0  0  0  0  0  0  0  0  0
  -30.9891  -28.8476   21.3327 C   0  0  0  0  0  0  0  0  0  0  0  0
  -29.3872  -24.8810   23.2350 C   0  0  0  0  0  0  0  0  0  0  0  0
  -28.5270  -29.4018   21.7136 C   0  0  0  0  0  0  0  0  0  1  0  0
  -22.7956  -24.9791   20.1765 C   0  0  1  0  0  0  0  0  0  0  0  0
  -24.2245  -23.9786   16.8109 C   0  0  2  0  0  0  0  0  0  0  0  0
  -22.1994  -23.9111   21.1363 C   0  0  0  0  0  0  0  0  0  0  0  0
  -27.3124  -17.4058   20.4736 N   0  0  0  0  0  0  0  0  0  0  0  0
  -30.7937  -28.0422   20.0731 N   0  0  0  0  0  0  0  0  0  0  0  0
  -27.0522  -18.6989   20.2162 N   0  0  0  0  0  0  0  0  0  0  0  0
  -22.4942  -27.4198   20.4528 N   0  0  0  0  0  0  0  0  0  0  0  0
  -28.9366  -21.3152   22.2639 N   0  0  0  0  0  0  0  0  0  0  0  0
  -25.4036  -20.1553   19.3378 N   0  0  0  0  0  0  0  0  0  0  0  0
  -23.4979  -16.0780   18.9636 N   0  0  0  0  0  0  0  0  0  0  0  0
  -19.9435  -29.2362   22.1630 N   0  0  0  0  0  0  0  0  0  0  0  0
  -23.0138  -24.5035   18.8147 N   0  0  0  0  0  0  0  0  0  0  0  0
  -29.6120  -23.4978   22.8782 N   0  0  0  0  0  0  0  0  0  0  0  0
  -25.2138  -24.6893   15.9523 N   0  3  0  0  0  0  0  0  0  0  0  0
  -23.1990  -18.3166   18.5660 O   0  0  0  0  0  0  0  0  0  0  0  0
  -21.9716  -28.3434   22.8789 O   0  0  0  0  0  0  0  0  0  0  0  0
  -20.7683  -26.0839   19.6325 O   0  0  0  0  0  0  0  0  0  0  0  0
  -25.2899  -24.9423   18.7535 O   0  0  0  0  0  0  0  0  0  0  0  0
  -27.3868  -22.9970   22.6485 O   0  0  0  0  0  0  0  0  0  0  0  0
  -25.7703  -11.2275   20.4947 O   0  0  0  0  0  0  0  0  0  0  0  0
  -27.6368  -30.4998   21.9091 O   0  0  0  0  0  0  0  0  0  1  0  0
  -21.0481   -9.1666   22.4586 F   0  0  0  0  0  0  0  0  0  0  0  0
  -23.3704  -11.7061   19.2086 F   0  0  0  0  0  0  0  0  0  0  0  0
  1  2  1  0  0  0  0
  1  5  2  0  0  0  0
  2  6  2  0  0  0  0
  3  8  2  0  0  0  0
  3 17  1  0  0  0  0
  4  9  1  0  0  0  0
  4 17  2  0  0  0  0
  5 19  1  0  0  0  0
  6 21  1  0  0  0  0
  7 10  2  0  0  0  0
  7 20  1  0  0  0  0
  8 24  1  0  0  0  0
  9 24  2  0  0  0  0
 10 25  1  0  0  0  0
 11 12  2  0  0  0  0
 11 26  1  0  0  0  0
 12 27  1  0  0  0  0
 13 16  2  0  0  0  0
 13 23  1  0  0  0  0
 14 22  1  0  0  0  0
 14 25  2  0  0  0  0
 15 27  2  0  0  0  0
 15 28  1  0  0  0  0
 16 65  1  0  0  0  0
 17 29  1  0  0  0  0
 18 29  1  0  0  0  0
 18 31  2  0  0  0  0
 18 32  1  0  0  0  0
 19 21  2  0  0  0  0
 19 37  1  0  0  0  0
 20 22  2  0  0  0  0
 20 38  1  0  0  0  0
 21 46  1  0  0  0  0
 22 39  1  0  0  0  0
 23 30  2  0  0  0  0
 23 49  1  0  0  0  0
 24 80  1  0  0  0  0
 25 81  1  0  0  0  0
 26 28  2  0  0  0  0
 26 80  1  0  0  0  0
 27 82  1  0  0  0  0
 28 83  1  0  0  0  0
 29 64  2  0  0  0  0
 30 55  1  0  0  0  0
 30 65  1  0  0  0  0
 31 66  1  0  0  0  0
 31 69  1  0  0  0  0
 32 70  1  0  0  0  0
 32 75  2  0  0  0  0
 33 47  1  0  0  0  0
 33 71  1  0  0  0  0
 33 76  2  0  0  0  0
 34 61  1  0  0  0  0
 34 67  1  0  0  0  0
 34 77  2  0  0  0  0
 35 62  1  0  0  0  0
 35 72  1  0  0  0  0
 35 78  2  0  0  0  0
 36 68  1  0  0  0  0
 36 73  1  0  0  0  0
 36 79  2  0  0  0  0
 37 40  1  0  0  0  0
 38 47  1  0  0  0  0
 39 67  1  0  0  0  0
 40 42  1  0  0  0  0
 41 43  1  0  0  0  0
 41 44  1  0  0  0  0
 42 46  1  0  0  0  0
 43 48  1  0  0  0  0
 44 68  1  0  0  0  0
 45 48  1  0  0  0  0
 45 68  1  0  0  0  0
 46 71  1  0  0  0  0
 47 67  1  0  0  0  0
 48 66  1  0  0  0  0
 50 62  1  0  0  0  0
 51 63  1  0  0  0  0
 52 63  1  0  0  0  0
 53 63  1  0  0  0  0
 54 74  1  0  0  0  0
 55 56  1  0  0  0  0
 56 59  1  0  0  0  0
 57 58  1  0  0  0  0
 57 60  1  0  0  0  0
 58 65  1  0  0  0  0
 59 73  1  0  0  0  0
 60 81  1  0  0  0  0
 61 63  1  0  0  0  0
 61 72  1  0  0  0  0
 62 74  1  0  0  0  0
 64 66  1  0  0  0  0
M  CHG  1  74   1
M  ISO  4  36 100  60 101  73 100  81 101
M  END
> <Batch ID>
0042

> <Smiles>
CNC(C)C(=O)NC(C(=O)N1Cc2cc([101O:1][101CH2:1]CCn3ccc(C)c3CCC[100NH:0][100C:0](=O)N3CCCC(n4nc(-c5ccc(Oc6ccc(F)cc6F)cc5)c(C(N)=O)c4N)C3)ccc2CC1C(=O)NC1CCCc2ccccc21)C(C)(C)C

> <Shape>
0.248

> <Color>
0.065

> <Negative vol penalty>
0.000

$$$$

  -OEChem-04052317123D

 89 98  0     1  0  0  0  0  0999 V2000
  -34.0586  -35.6481   18.1670 C   0  0  0  0  0  0  0  0  0  0  0  0
  -33.4776  -34.4397   17.7959 C   0  0  0  0  0  0  0  0  0  0  0  0
  -22.9914  -10.0462   19.8993 C   0  0  0  0  0  0  0  0  0  0  0  0
  -24.1169   -9.7528   22.0169 C   0  0  0  0  0  0  0  0  0  0  0  0
  -33.8751  -36.1410   19.4583 C   0  0  0  0  0  0  0  0  0  0  0  0
  -32.7136  -33.7230   18.7162 C   0  0  0  0  0  0  0  0  0  0  0  0
  -27.7528  -30.3317   17.5349 C   0  0  0  0  0  0  0  0  0  0  0  0
  -22.3085   -8.8460   20.0959 C   0  0  0  0  0  0  0  0  0  0  0  0
  -23.4339   -8.5526   22.2136 C   0  0  0  0  0  0  0  0  0  0  0  0
  -27.5742  -28.9602   17.3595 C   0  0  0  0  0  0  0  0  0  0  0  0
  -20.3551   -7.5744   23.2058 C   0  0  0  0  0  0  0  0  0  0  0  0
  -19.8006   -7.3448   24.4650 C   0  0  0  0  0  0  0  0  0  0  0  0
  -26.9407  -28.7522   19.6778 C   0  0  0  0  0  0  0  0  0  0  0  0
  -27.8743  -23.9539   17.5684 C   0  0  0  0  0  0  0  0  0  0  0  0
  -25.8135  -24.3270   16.3859 C   0  0  0  0  0  0  0  0  0  0  0  0
  -21.1625   -5.3635   24.7034 C   0  0  0  0  0  0  0  0  0  0  0  0
  -23.8957  -10.4996   20.8597 C   0  0  0  0  0  0  0  0  0  0  0  0
  -24.1916  -13.0260   21.0534 C   0  0  0  0  0  0  0  0  0  0  0  0
  -33.1005  -35.4347   20.3919 C   0  0  0  0  0  0  0  0  0  0  0  0
  -27.5368  -30.9230   18.7880 C   0  0  0  0  0  0  0  0  0  0  0  0
  -32.5206  -34.2063   20.0216 C   0  0  0  0  0  0  0  0  0  0  0  0
  -27.1148  -30.1318   19.8659 C   0  0  0  0  0  0  0  0  0  0  0  0
  -26.9712  -24.8267   16.9718 C   0  0  0  0  0  0  0  0  0  0  0  0
  -22.5297   -8.0992   21.2531 C   0  0  0  0  0  0  0  0  0  0  0  0
  -27.1709  -28.1697   18.4317 C   0  0  0  0  0  0  0  0  0  0  0  0
  -21.3132   -6.6985   22.6954 C   0  0  0  0  0  0  0  0  0  0  0  0
  -20.2043   -6.2394   25.2138 C   0  0  0  0  0  0  0  0  0  0  0  0
  -21.7169   -5.5930   23.4442 C   0  0  0  0  0  0  0  0  0  0  0  0
  -24.6019  -11.7391   20.6569 C   0  0  0  0  0  0  0  0  0  0  0  0
  -27.5758  -22.6010   17.5525 C   0  0  0  0  0  0  0  0  0  0  0  0
  -25.6073  -22.9573   16.4228 C   0  0  0  0  0  0  0  0  0  0  0  0
  -25.2030  -13.8540   20.6316 C   0  0  0  0  0  0  0  0  0  0  0  0
  -23.0026  -13.4363   21.7417 C   0  0  0  0  0  0  0  0  0  0  0  0
  -29.3506  -32.5051   20.8642 C   0  0  0  0  0  0  0  0  0  0  0  0
  -26.5314  -32.9250   22.4128 C   0  0  0  0  0  0  0  0  0  0  0  0
  -23.3500  -31.8310   22.9864 C   0  0  0  0  0  0  0  0  0  0  0  0
  -30.8282  -14.6517   20.4359 C   0  0  0  0  0  0  0  0  0  0  0  0
  -32.9695  -35.9841   21.7904 C   0  0  0  0  0  0  0  0  0  0  0  0
  -27.7080  -32.4081   18.9542 C   0  0  0  0  0  0  0  0  0  0  0  0
  -26.8500  -30.7212   21.2264 C   0  0  0  0  0  0  0  0  0  0  0  0
  -31.8358  -35.3484   22.5909 C   0  0  0  0  0  0  0  0  0  0  0  0
  -29.1412  -12.9863   17.5930 C   0  0  0  0  0  0  0  0  0  0  0  0
  -31.8657  -33.8302   22.4455 C   0  0  0  0  0  0  0  0  0  0  0  0
  -29.0523  -20.6450   17.1332 C   0  0  0  0  0  0  0  0  0  0  0  0
  -27.8267  -20.8881   19.3371 C   0  0  0  0  0  0  0  0  0  0  0  0
  -29.9689  -19.5960   17.7621 C   0  0  0  0  0  0  0  0  0  0  0  0
  -28.7462  -19.8385   19.9607 C   0  0  0  0  0  0  0  0  0  0  0  0
  -27.8060  -12.5604   18.2011 C   0  0  0  0  0  0  0  0  0  0  0  0
  -30.2455  -13.0585   18.6432 C   0  0  0  0  0  0  0  0  0  0  0  0
  -28.5785  -13.4978   20.4159 C   0  0  0  0  0  0  0  0  0  0  0  0
  -31.6646  -33.4119   20.9840 C   0  0  1  0  0  0  0  0  0  0  0  0
  -28.5212  -21.6350   18.1847 C   0  0  0  0  0  0  0  0  0  0  0  0
  -27.9570  -32.8227   20.4011 C   0  0  1  0  0  0  0  0  0  0  0  0
  -29.2755  -18.8525   18.9112 C   0  0  0  0  0  0  0  0  0  0  0  0
  -27.4337  -13.4603   19.3923 C   0  0  2  0  0  0  0  0  0  0  0  0
  -23.2160  -22.2989   16.7895 C   0  0  0  0  0  0  0  0  0  0  0  0
  -21.2981  -32.3582   24.3314 C   0  0  0  0  0  0  0  0  0  0  0  0
  -27.8714  -31.7774   24.9023 C   0  0  0  0  0  0  0  0  0  0  0  0
  -25.5946  -31.4444   25.8891 C   0  0  0  0  0  0  0  0  0  0  0  0
  -26.3855  -33.7432   25.3295 C   0  0  0  0  0  0  0  0  0  0  0  0
  -31.1170  -16.3552   22.1950 C   0  0  0  0  0  0  0  0  0  0  0  0
  -21.7180  -32.2405   20.5517 C   0  0  0  0  0  0  0  0  0  0  0  0
  -27.2444  -26.3020   16.9612 C   0  0  0  0  0  0  0  0  0  1  0  0
  -24.3763  -22.3863   15.8020 C   0  0  0  0  0  0  0  0  0  0  0  0
  -30.2268  -17.8434   19.5516 C   0  0  0  0  0  0  0  0  0  0  0  0
  -29.4970  -16.8030   20.3892 C   0  0  0  0  0  0  0  0  0  0  0  0
  -25.7630  -32.1575   23.4613 C   0  0  1  0  0  0  0  0  0  0  0  0
  -22.0213  -32.5648   23.0097 C   0  0  2  0  0  0  0  0  0  0  0  0
  -26.4104  -32.2689   24.8705 C   0  0  0  0  0  0  0  0  0  0  0  0
  -25.7819  -11.7440   20.0311 N   0  0  0  0  0  0  0  0  0  0  0  0
  -26.4615  -22.0783   16.9931 N   0  0  0  0  0  0  0  0  0  0  0  0
  -26.1217  -13.0443   20.0311 N   0  0  0  0  0  0  0  0  0  0  0  0
  -27.0374  -32.1771   21.3402 N   0  0  0  0  0  0  0  0  0  0  0  0
  -29.8486  -13.8848   19.7838 N   0  0  0  0  0  0  0  0  0  0  0  0
  -25.3872  -15.1885   20.7194 N   0  0  0  0  0  0  0  0  0  0  0  0
  -22.0675  -12.4565   22.1021 N   0  0  0  0  0  0  0  0  0  0  0  0
  -30.2677  -33.5091   20.6182 N   0  0  0  0  0  0  0  0  0  0  0  0
  -24.3881  -32.6411   23.3955 N   0  0  0  0  0  0  0  0  0  0  0  0
  -30.4115  -15.8559   21.0232 N   0  0  0  0  0  0  0  0  0  0  0  0
  -21.1408  -32.0769   21.9108 N   0  3  0  0  0  0  0  0  0  0  0  0
  -22.7685  -14.6381   22.0140 O   0  0  0  0  0  0  0  0  0  0  0  0
  -29.5769  -31.4295   21.4061 O   0  0  0  0  0  0  0  0  0  0  0  0
  -26.6712  -34.1442   22.5370 O   0  0  0  0  0  0  0  0  0  0  0  0
  -23.4559  -30.6556   22.6435 O   0  0  0  0  0  0  0  0  0  0  0  0
  -32.0097  -14.2857   20.4819 O   0  0  0  0  0  0  0  0  0  0  0  0
  -21.8632   -6.9282   21.4454 O   0  0  0  0  0  0  0  0  0  0  0  0
  -26.9965  -26.8307   18.2633 O   0  0  0  0  0  0  0  0  0  1  0  0
  -19.6730   -6.0199   26.4236 F   0  0  0  0  0  0  0  0  0  0  0  0
  -22.6378   -4.7487   22.9596 F   0  0  0  0  0  0  0  0  0  0  0  0
  1  2  1  0  0  0  0
  1  5  2  0  0  0  0
  2  6  2  0  0  0  0
  3  8  2  0  0  0  0
  3 17  1  0  0  0  0
  4  9  1  0  0  0  0
  4 17  2  0  0  0  0
  5 19  1  0  0  0  0
  6 21  1  0  0  0  0
  7 10  2  0  0  0  0
  7 20  1  0  0  0  0
  8 24  1  0  0  0  0
  9 24  2  0  0  0  0
 10 25  1  0  0  0  0
 11 12  2  0  0  0  0
 11 26  1  0  0  0  0
 12 27  1  0  0  0  0
 13 22  1  0  0  0  0
 13 25  2  0  0  0  0
 14 23  1  0  0  0  0
 14 30  2  0  0  0  0
 15 23  2  0  0  0  0
 15 31  1  0  0  0  0
 16 27  2  0  0  0  0
 16 28  1  0  0  0  0
 17 29  1  0  0  0  0
 18 29  1  0  0  0  0
 18 32  2  0  0  0  0
 18 33  1  0  0  0  0
 19 21  2  0  0  0  0
 19 38  1  0  0  0  0
 20 22  2  0  0  0  0
 20 39  1  0  0  0  0
 21 51  1  0  0  0  0
 22 40  1  0  0  0  0
 23 63  1  0  0  0  0
 24 86  1  0  0  0  0
 25 87  1  0  0  0  0
 26 28  2  0  0  0  0
 26 86  1  0  0  0  0
 27 88  1  0  0  0  0
 28 89  1  0  0  0  0
 29 70  2  0  0  0  0
 30 52  1  0  0  0  0
 30 71  1  0  0  0  0
 31 64  1  0  0  0  0
 31 71  2  0  0  0  0
 32 72  1  0  0  0  0
 32 75  1  0  0  0  0
 33 76  1  0  0  0  0
 33 81  2  0  0  0  0
 34 53  1  0  0  0  0
 34 77  1  0  0  0  0
 34 82  2  0  0  0  0
 35 67  1  0  0  0  0
 35 73  1  0  0  0  0
 35 83  2  0  0  0  0
 36 68  1  0  0  0  0
 36 78  1  0  0  0  0
 36 84  2  0  0  0  0
 37 74  1  0  0  0  0
 37 79  1  0  0  0  0
 37 85  2  0  0  0  0
 38 41  1  0  0  0  0
 39 53  1  0  0  0  0
 40 73  1  0  0  0  0
 41 43  1  0  0  0  0
 42 48  1  0  0  0  0
 42 49  1  0  0  0  0
 43 51  1  0  0  0  0
 44 46  1  0  0  0  0
 44 52  1  0  0  0  0
 45 47  1  0  0  0  0
 45 52  1  0  0  0  0
 46 54  1  0  0  0  0
 47 54  1  0  0  0  0
 48 55  1  0  0  0  0
 49 74  1  0  0  0  0
 50 55  1  0  0  0  0
 50 74  1  0  0  0  0
 51 77  1  0  0  0  0
 53 73  1  0  0  0  0
 54 65  1  0  0  0  0
 55 72  1  0  0  0  0
 56 64  1  0  0  0  0
 57 68  1  0  0  0  0
 58 69  1  0  0  0  0
 59 69  1  0  0  0  0
 60 69  1  0  0  0  0
 61 79  1  0  0  0  0
 62 80  1  0  0  0  0
 63 87  1  0  0  0  0
 65 66  1  0  0  0  0
 66 79  1  0  0  0  0
 67 69  1  0  0  0  0
 67 78  1  0  0  0  0
 68 80  1  0  0  0  0
 70 72  1  0  0  0  0
M  CHG  1  80   1
M  ISO  4  37 100  63 101  79 100  87 101
M  END
> <Batch ID>
0042

> <Smiles>
CCc1cc([101CH2:1][101O:1]c2ccc3c(c2)CN(C(=O)C(NC(=O)C(C)NC)C(C)(C)C)C(C(=O)NC2CCCc4ccccc42)C3)cc(C2CCC(CC[100N:0](C)[100C:0](=O)N3CCCC(n4nc(-c5ccc(Oc6ccc(F)cc6F)cc5)c(C(N)=O)c4N)C3)CC2)n1

> <Shape>
0.296

> <Color>
0.187

> <Negative vol penalty>
0.000

$$$$

  -OEChem-04052317123D

 88 96  0     1  0  0  0  0  0999 V2000
  -27.5992  -23.3779   14.9591 C   0  0  0  0  0  0  0  0  0  0  0  0
  -26.4877  -23.7471   15.7100 C   0  0  0  0  0  0  0  0  0  0  0  0
  -26.3398  -13.7097   19.9840 C   0  0  0  0  0  0  0  0  0  0  0  0
  -24.3407  -13.8291   21.3355 C   0  0  0  0  0  0  0  0  0  0  0  0
  -28.8635  -23.3669   15.5466 C   0  0  0  0  0  0  0  0  0  0  0  0
  -26.6399  -24.1045   17.0492 C   0  0  0  0  0  0  0  0  0  0  0  0
  -24.0212  -28.2667   18.2589 C   0  0  0  0  0  0  0  0  0  0  0  0
  -26.4039  -12.3333   20.2005 C   0  0  0  0  0  0  0  0  0  0  0  0
  -24.4047  -12.4527   21.5519 C   0  0  0  0  0  0  0  0  0  0  0  0
  -22.6497  -28.1196   18.4615 C   0  0  0  0  0  0  0  0  0  0  0  0
  -23.6332   -9.6288   19.8633 C   0  0  0  0  0  0  0  0  0  0  0  0
  -22.4508   -8.8992   19.7400 C   0  0  0  0  0  0  0  0  0  0  0  0
  -23.0101  -28.1014   20.8467 C   0  0  0  0  0  0  0  0  0  0  0  0
  -22.6522   -8.1841   22.0389 C   0  0  0  0  0  0  0  0  0  0  0  0
  -25.3082  -14.4577   20.5516 C   0  0  0  0  0  0  0  0  0  0  0  0
  -24.5747  -16.5462   19.2836 C   0  0  0  0  0  0  0  0  0  0  0  0
  -29.0326  -23.7336   16.8911 C   0  0  0  0  0  0  0  0  0  0  0  0
  -24.9001  -28.3214   19.3502 C   0  0  0  0  0  0  0  0  0  0  0  0
  -27.9076  -24.0971   17.6556 C   0  0  0  0  0  0  0  0  0  0  0  0
  -24.3921  -28.2519   20.6553 C   0  0  0  0  0  0  0  0  0  0  0  0
  -25.4364  -11.7047   20.9844 C   0  0  0  0  0  0  0  0  0  0  0  0
  -22.1442  -28.0340   19.7554 C   0  0  0  0  0  0  0  0  0  0  0  0
  -24.3251   -9.6361   21.0745 C   0  0  0  0  0  0  0  0  0  0  0  0
  -21.9603   -8.1769   20.8278 C   0  0  0  0  0  0  0  0  0  0  0  0
  -23.8347   -8.9137   22.1623 C   0  0  0  0  0  0  0  0  0  0  0  0
  -25.2418  -15.8797   20.3289 C   0  0  0  0  0  0  0  0  0  0  0  0
  -20.4251  -22.4957   22.6122 C   0  0  0  0  0  0  0  0  0  0  0  0
  -20.3732  -24.8827   23.8067 C   0  0  0  0  0  0  0  0  0  0  0  0
  -21.2301  -22.7654   23.6971 C   0  0  0  0  0  0  0  0  0  0  0  0
  -19.5688  -24.6135   22.7214 C   0  0  0  0  0  0  0  0  0  0  0  0
  -24.8124  -17.8783   19.5189 C   0  0  0  0  0  0  0  0  0  0  0  0
  -23.8087  -16.0091   18.1971 C   0  0  0  0  0  0  0  0  0  0  0  0
  -27.3257  -26.5373   20.3685 C   0  0  0  0  0  0  0  0  0  0  0  0
  -27.6450  -28.9115   22.5557 C   0  0  0  0  0  0  0  0  0  0  0  0
  -26.1929  -31.4653   24.2924 C   0  0  0  0  0  0  0  0  0  0  0  0
  -26.1125  -20.9747   24.4760 C   0  0  0  0  0  0  0  0  0  0  0  0
  -30.4125  -23.6608   17.4954 C   0  0  0  0  0  0  0  0  0  0  0  0
  -26.3741  -28.5072   19.1155 C   0  0  0  0  0  0  0  0  0  0  0  0
  -25.2913  -28.3259   21.8613 C   0  0  0  0  0  0  0  0  0  0  0  0
  -30.5392  -24.4139   18.8172 C   0  0  0  0  0  0  0  0  0  0  0  0
  -28.0364  -20.8166   21.4843 C   0  0  0  0  0  0  0  0  0  0  0  0
  -29.3656  -24.0840   19.7341 C   0  0  0  0  0  0  0  0  0  0  0  0
  -27.4782  -19.5935   20.7546 C   0  0  0  0  0  0  0  0  0  0  0  0
  -28.0652  -20.6070   22.9967 C   0  0  0  0  0  0  0  0  0  0  0  0
  -26.2186  -18.9805   22.8609 C   0  0  0  0  0  0  0  0  0  0  0  0
  -28.0354  -24.5151   19.1044 C   0  0  1  0  0  0  0  0  0  0  0  0
  -27.2299  -28.0346   20.2867 C   0  0  1  0  0  0  0  0  0  0  0  0
  -26.1177  -19.1657   21.3372 C   0  0  2  0  0  0  0  0  0  0  0  0
  -20.4469  -21.1659   21.9395 C   0  0  0  0  0  0  0  0  0  0  0  0
  -20.3515  -26.2123   24.4799 C   0  0  0  0  0  0  0  0  0  0  0  0
  -17.5442  -28.4560   21.4038 C   0  0  0  0  0  0  0  0  0  0  0  0
  -26.6966  -33.1985   26.0358 C   0  0  0  0  0  0  0  0  0  0  0  0
  -27.5405  -26.7623   24.7190 C   0  0  0  0  0  0  0  0  0  0  0  0
  -27.0911  -28.5684   26.3936 C   0  0  0  0  0  0  0  0  0  0  0  0
  -29.2332  -28.5601   25.1154 C   0  0  0  0  0  0  0  0  0  0  0  0
  -19.3037  -25.4075   19.7106 C   0  0  0  0  0  0  0  0  0  0  0  0
  -25.5662  -33.6828   22.4353 C   0  0  0  0  0  0  0  0  0  0  0  0
  -22.1606  -21.7397   24.2484 C   0  0  0  0  0  0  0  0  0  0  0  0
  -18.6258  -25.6545   22.1614 C   0  0  0  0  0  0  0  0  0  0  0  0
  -17.9424  -27.3711   20.4098 C   0  0  0  0  0  0  0  0  0  0  0  0
  -23.1656  -22.2803   25.2852 C   0  0  0  0  0  0  0  0  0  0  0  0
  -24.0834  -21.2168   25.8842 C   0  0  0  0  0  0  0  0  0  0  0  0
  -20.3972  -27.1785   21.1236 C   0  0  0  0  0  0  0  0  0  1  0  0
  -27.0863  -29.1791   23.9323 C   0  0  1  0  0  0  0  0  0  0  0  0
  -26.6412  -32.8931   24.5471 C   0  0  2  0  0  0  0  0  0  0  0  0
  -27.7208  -28.2641   25.0175 C   0  0  0  0  0  0  0  0  0  0  0  0
  -19.0806  -26.4056   20.8712 C   0  0  2  0  0  0  0  0  0  0  0  0
  -25.8572  -16.7192   21.1659 N   0  0  0  0  0  0  0  0  0  0  0  0
  -21.2183  -23.9636   24.3140 N   0  0  0  0  0  0  0  0  0  0  0  0
  -19.5803  -23.4151   22.1047 N   0  0  0  0  0  0  0  0  0  0  0  0
  -25.5778  -17.9269   20.6467 N   0  0  0  0  0  0  0  0  0  0  0  0
  -26.7256  -28.5014   21.5798 N   0  0  0  0  0  0  0  0  0  0  0  0
  -26.7444  -20.2044   23.4858 N   0  0  0  0  0  0  0  0  0  0  0  0
  -24.4393  -19.0012   18.8690 N   0  0  0  0  0  0  0  0  0  0  0  0
  -23.6642  -14.6181   18.1049 N   0  0  0  0  0  0  0  0  0  0  0  0
  -27.8533  -25.9447   19.2372 N   0  0  0  0  0  0  0  0  0  0  0  0
  -27.2653  -30.6065   24.1751 N   0  0  0  0  0  0  0  0  0  0  0  0
  -24.8603  -20.5268   24.8787 N   0  0  0  0  0  0  0  0  0  0  0  0
  -25.7001  -33.8538   23.9050 N   0  3  0  0  0  0  0  0  0  0  0  0
  -23.2821  -16.7402   17.3243 O   0  0  0  0  0  0  0  0  0  0  0  0
  -26.9503  -25.9624   21.3835 O   0  0  0  0  0  0  0  0  0  0  0  0
  -28.8516  -29.0677   22.3518 O   0  0  0  0  0  0  0  0  0  0  0  0
  -25.0097  -31.1433   24.2098 O   0  0  0  0  0  0  0  0  0  0  0  0
  -26.6240  -21.9895   24.9612 O   0  0  0  0  0  0  0  0  0  0  0  0
  -25.4985  -10.3615   21.1956 O   0  0  0  0  0  0  0  0  0  0  0  0
  -20.8060  -27.8898   19.9560 O   0  0  0  0  0  0  0  0  0  1  0  0
  -20.8240   -7.4775   20.7096 F   0  0  0  0  0  0  0  0  0  0  0  0
  -24.4944   -8.9178   23.3287 F   0  0  0  0  0  0  0  0  0  0  0  0
  1  2  1  0  0  0  0
  1  5  2  0  0  0  0
  2  6  2  0  0  0  0
  3  8  2  0  0  0  0
  3 15  1  0  0  0  0
  4  9  1  0  0  0  0
  4 15  2  0  0  0  0
  5 17  1  0  0  0  0
  6 19  1  0  0  0  0
  7 10  2  0  0  0  0
  7 18  1  0  0  0  0
  8 21  1  0  0  0  0
  9 21  2  0  0  0  0
 10 22  1  0  0  0  0
 11 12  2  0  0  0  0
 11 23  1  0  0  0  0
 12 24  1  0  0  0  0
 13 20  1  0  0  0  0
 13 22  2  0  0  0  0
 14 24  2  0  0  0  0
 14 25  1  0  0  0  0
 15 26  1  0  0  0  0
 16 26  1  0  0  0  0
 16 31  2  0  0  0  0
 16 32  1  0  0  0  0
 17 19  2  0  0  0  0
 17 37  1  0  0  0  0
 18 20  2  0  0  0  0
 18 38  1  0  0  0  0
 19 46  1  0  0  0  0
 20 39  1  0  0  0  0
 21 85  1  0  0  0  0
 22 86  1  0  0  0  0
 23 25  2  0  0  0  0
 23 85  1  0  0  0  0
 24 87  1  0  0  0  0
 25 88  1  0  0  0  0
 26 68  2  0  0  0  0
 27 29  1  0  0  0  0
 27 49  1  0  0  0  0
 27 70  2  0  0  0  0
 28 30  2  0  0  0  0
 28 50  1  0  0  0  0
 28 69  1  0  0  0  0
 29 58  1  0  0  0  0
 29 69  2  0  0  0  0
 30 59  1  0  0  0  0
 30 70  1  0  0  0  0
 31 71  1  0  0  0  0
 31 74  1  0  0  0  0
 32 75  1  0  0  0  0
 32 80  2  0  0  0  0
 33 47  1  0  0  0  0
 33 76  1  0  0  0  0
 33 81  2  0  0  0  0
 34 64  1  0  0  0  0
 34 72  1  0  0  0  0
 34 82  2  0  0  0  0
 35 65  1  0  0  0  0
 35 77  1  0  0  0  0
 35 83  2  0  0  0  0
 36 73  1  0  0  0  0
 36 78  1  0  0  0  0
 36 84  2  0  0  0  0
 37 40  1  0  0  0  0
 38 47  1  0  0  0  0
 39 72  1  0  0  0  0
 40 42  1  0  0  0  0
 41 43  1  0  0  0  0
 41 44  1  0  0  0  0
 42 46  1  0  0  0  0
 43 48  1  0  0  0  0
 44 73  1  0  0  0  0
 45 48  1  0  0  0  0
 45 73  1  0  0  0  0
 46 76  1  0  0  0  0
 47 72  1  0  0  0  0
 48 71  1  0  0  0  0
 51 60  1  0  0  0  0
 52 65  1  0  0  0  0
 53 66  1  0  0  0  0
 54 66  1  0  0  0  0
 55 66  1  0  0  0  0
 56 67  1  0  0  0  0
 57 79  1  0  0  0  0
 58 61  1  0  0  0  0
 59 67  1  0  0  0  0
 60 67  1  0  0  0  0
 61 62  1  0  0  0  0
 62 78  1  0  0  0  0
 63 67  1  0  0  0  0
 63 86  1  0  0  0  0
 64 66  1  0  0  0  0
 64 77  1  0  0  0  0
 65 79  1  0  0  0  0
 68 71  1  0  0  0  0
M  CHG  1  79   1
M  ISO  4  36 100  63 101  78 100  86 101
M  END
> <Batch ID>
0042

> <Smiles>
CCC(C)(Cc1nc(C)c(CCC[100NH:0][100C:0](=O)N2CCCC(n3nc(-c4ccc(Oc5ccc(F)cc5F)cc4)c(C(N)=O)c3N)C2)nc1C)[101CH2:1][101O:1]c1ccc2c(c1)CN(C(=O)C(NC(=O)C(C)NC)C(C)(C)C)C(C(=O)NC1CCCc3ccccc31)C2

> <Shape>
0.242

> <Color>
0.066

> <Negative vol penalty>
0.000

$$$$

  -OEChem-04052317123D

 83 91  0     1  0  0  0  0  0999 V2000
  -32.9296  -24.7377   10.6503 C   0  0  0  0  0  0  0  0  0  0  0  0
  -32.8113  -23.8512   11.7159 C   0  0  0  0  0  0  0  0  0  0  0  0
  -23.1957   -9.7743   19.9562 C   0  0  0  0  0  0  0  0  0  0  0  0
  -23.5954  -10.0036   22.3279 C   0  0  0  0  0  0  0  0  0  0  0  0
  -32.8210  -26.1101   10.8714 C   0  0  0  0  0  0  0  0  0  0  0  0
  -32.5855  -24.3366   13.0034 C   0  0  0  0  0  0  0  0  0  0  0  0
  -29.2343  -21.6973   17.3977 C   0  0  0  0  0  0  0  0  0  0  0  0
  -22.4483   -8.6208   20.1937 C   0  0  0  0  0  0  0  0  0  0  0  0
  -22.8479   -8.8501   22.5653 C   0  0  0  0  0  0  0  0  0  0  0  0
  -29.5798  -20.9135   18.4977 C   0  0  0  0  0  0  0  0  0  0  0  0
  -23.2949   -5.5052   22.3579 C   0  0  0  0  0  0  0  0  0  0  0  0
  -23.8160   -4.5674   23.2492 C   0  0  0  0  0  0  0  0  0  0  0  0
  -29.5421  -22.8760   19.9001 C   0  0  0  0  0  0  0  0  0  0  0  0
  -21.8701   -4.8247   24.6578 C   0  0  0  0  0  0  0  0  0  0  0  0
  -31.8589  -18.0838   23.6474 C   0  0  0  0  0  0  0  0  0  0  0  0
  -23.7693  -10.4657   21.0233 C   0  0  0  0  0  0  0  0  0  0  0  0
  -24.0689  -12.9821   20.7304 C   0  0  0  0  0  0  0  0  0  0  0  0
  -32.5842  -26.6120   12.1608 C   0  0  0  0  0  0  0  0  0  0  0  0
  -29.0504  -23.0803   17.5387 C   0  0  0  0  0  0  0  0  0  0  0  0
  -32.4751  -25.7170   13.2422 C   0  0  0  0  0  0  0  0  0  0  0  0
  -29.1918  -23.6746   18.8008 C   0  0  0  0  0  0  0  0  0  0  0  0
  -30.6182  -17.5133   23.8275 C   0  0  0  0  0  0  0  0  0  0  0  0
  -29.8156  -17.8884   22.7220 C   0  0  0  0  0  0  0  0  0  0  0  0
  -22.2744   -8.1587   21.4982 C   0  0  0  0  0  0  0  0  0  0  0  0
  -29.7366  -21.5033   19.7486 C   0  0  0  0  0  0  0  0  0  0  0  0
  -22.0613   -6.1029   22.6165 C   0  0  0  0  0  0  0  0  0  0  0  0
  -23.1037   -4.2271   24.3991 C   0  0  0  0  0  0  0  0  0  0  0  0
  -21.3490   -5.7626   23.7665 C   0  0  0  0  0  0  0  0  0  0  0  0
  -24.5419  -11.6570   20.7786 C   0  0  0  0  0  0  0  0  0  0  0  0
  -30.5903  -18.6765   21.8998 C   0  0  0  0  0  0  0  0  0  0  0  0
  -25.1867  -13.7364   20.4700 C   0  0  0  0  0  0  0  0  0  0  0  0
  -22.7381  -13.4860   20.9056 C   0  0  0  0  0  0  0  0  0  0  0  0
  -30.4599  -25.6644   16.3389 C   0  0  0  0  0  0  0  0  0  0  0  0
  -28.0618  -27.2110   17.8813 C   0  0  0  0  0  0  0  0  0  0  0  0
  -25.7452  -27.1962   20.3873 C   0  0  0  0  0  0  0  0  0  0  0  0
  -31.0254  -12.8489   21.4566 C   0  0  0  0  0  0  0  0  0  0  0  0
  -32.5214  -28.1059   12.3581 C   0  0  0  0  0  0  0  0  0  0  0  0
  -28.6517  -23.9076   16.3474 C   0  0  0  0  0  0  0  0  0  0  0  0
  -28.9857  -25.1520   19.0092 C   0  0  0  0  0  0  0  0  0  0  0  0
  -31.9083  -28.5187   13.6937 C   0  0  0  0  0  0  0  0  0  0  0  0
  -29.4561  -13.4869   18.3249 C   0  0  0  0  0  0  0  0  0  0  0  0
  -32.5048  -27.6964   14.8317 C   0  0  0  0  0  0  0  0  0  0  0  0
  -27.9760  -13.2098   18.5943 C   0  0  0  0  0  0  0  0  0  0  0  0
  -30.3593  -12.5243   19.0928 C   0  0  0  0  0  0  0  0  0  0  0  0
  -28.6282  -12.1875   20.8143 C   0  0  0  0  0  0  0  0  0  0  0  0
  -32.2052  -26.2036   14.6495 C   0  0  1  0  0  0  0  0  0  0  0  0
  -28.9928  -25.3861   16.5057 C   0  0  1  0  0  0  0  0  0  0  0  0
  -27.6792  -13.1689   20.1055 C   0  0  2  0  0  0  0  0  0  0  0  0
  -28.4071  -17.5062   22.4910 C   0  0  0  0  0  0  0  0  0  0  0  0
  -23.9547  -28.6170   21.4232 C   0  0  0  0  0  0  0  0  0  0  0  0
  -30.2004  -28.9127   19.2380 C   0  0  0  0  0  0  0  0  0  0  0  0
  -28.4772  -29.6203   20.9108 C   0  0  0  0  0  0  0  0  0  0  0  0
  -28.1742  -30.1783   18.4984 C   0  0  0  0  0  0  0  0  0  0  0  0
  -32.9490  -19.5311   21.9342 C   0  0  0  0  0  0  0  0  0  0  0  0
  -23.6453  -25.2041   19.7703 C   0  0  0  0  0  0  0  0  0  0  0  0
  -30.2111  -16.6684   24.9679 C   0  0  0  0  0  0  0  0  0  0  0  0
  -30.2529  -19.3429   20.5985 C   0  0  0  0  0  0  0  0  0  1  0  0
  -30.1787  -15.1669   24.6162 C   0  0  0  0  0  0  0  0  0  0  0  0
  -31.5557  -14.6387   24.2034 C   0  0  0  0  0  0  0  0  0  0  0  0
  -31.5363  -13.1513   23.8663 C   0  0  0  0  0  0  0  0  0  0  0  0
  -27.8768  -27.7873   19.2643 C   0  0  1  0  0  0  0  0  0  0  0  0
  -24.2669  -27.5413   20.3945 C   0  0  2  0  0  0  0  0  0  0  0  0
  -28.6880  -29.0971   19.4739 C   0  0  0  0  0  0  0  0  0  0  0  0
  -25.8577  -11.5712   20.5657 N   0  0  0  0  0  0  0  0  0  0  0  0
  -31.8305  -18.7883   22.4722 N   0  0  0  0  0  0  0  0  0  0  0  0
  -26.2210  -12.8518   20.3811 N   0  0  0  0  0  0  0  0  0  0  0  0
  -28.6029  -25.9194   17.8125 N   0  0  0  0  0  0  0  0  0  0  0  0
  -30.0274  -12.5342   20.5195 N   0  0  0  0  0  0  0  0  0  0  0  0
  -25.3760  -15.0635   20.3105 N   0  0  0  0  0  0  0  0  0  0  0  0
  -21.7070  -12.5732   21.1668 N   0  0  0  0  0  0  0  0  0  0  0  0
  -30.8409  -25.9113   15.0338 N   0  0  0  0  0  0  0  0  0  0  0  0
  -26.4383  -27.9384   19.4546 N   0  0  0  0  0  0  0  0  0  0  0  0
  -30.6250  -12.8419   22.7871 N   0  0  0  0  0  0  0  0  0  0  0  0
  -23.4547  -26.3338   20.7160 N   0  3  0  0  0  0  0  0  0  0  0  0
  -22.4684  -14.7078   20.8163 O   0  0  0  0  0  0  0  0  0  0  0  0
  -31.1918  -25.6572   17.3217 O   0  0  0  0  0  0  0  0  0  0  0  0
  -27.7314  -27.8793   16.8985 O   0  0  0  0  0  0  0  0  0  0  0  0
  -26.2366  -26.3553   21.1369 O   0  0  0  0  0  0  0  0  0  0  0  0
  -32.1859  -13.1216   21.1311 O   0  0  0  0  0  0  0  0  0  0  0  0
  -21.5449   -7.0332   21.7303 O   0  0  0  0  0  0  0  0  0  0  0  0
  -30.0745  -20.7407   20.8239 O   0  0  0  0  0  0  0  0  0  1  0  0
  -23.6035   -3.3253   25.2541 F   0  0  0  0  0  0  0  0  0  0  0  0
  -20.1629   -6.3326   24.0198 F   0  0  0  0  0  0  0  0  0  0  0  0
  1  2  1  0  0  0  0
  1  5  2  0  0  0  0
  2  6  2  0  0  0  0
  3  8  2  0  0  0  0
  3 16  1  0  0  0  0
  4  9  1  0  0  0  0
  4 16  2  0  0  0  0
  5 18  1  0  0  0  0
  6 20  1  0  0  0  0
  7 10  2  0  0  0  0
  7 19  1  0  0  0  0
  8 24  1  0  0  0  0
  9 24  2  0  0  0  0
 10 25  1  0  0  0  0
 11 12  2  0  0  0  0
 11 26  1  0  0  0  0
 12 27  1  0  0  0  0
 13 21  1  0  0  0  0
 13 25  2  0  0  0  0
 14 27  2  0  0  0  0
 14 28  1  0  0  0  0
 15 22  2  0  0  0  0
 15 65  1  0  0  0  0
 16 29  1  0  0  0  0
 17 29  1  0  0  0  0
 17 31  2  0  0  0  0
 17 32  1  0  0  0  0
 18 20  2  0  0  0  0
 18 37  1  0  0  0  0
 19 21  2  0  0  0  0
 19 38  1  0  0  0  0
 20 46  1  0  0  0  0
 21 39  1  0  0  0  0
 22 23  1  0  0  0  0
 22 56  1  0  0  0  0
 23 30  2  0  0  0  0
 23 49  1  0  0  0  0
 24 80  1  0  0  0  0
 25 81  1  0  0  0  0
 26 28  2  0  0  0  0
 26 80  1  0  0  0  0
 27 82  1  0  0  0  0
 28 83  1  0  0  0  0
 29 64  2  0  0  0  0
 30 57  1  0  0  0  0
 30 65  1  0  0  0  0
 31 66  1  0  0  0  0
 31 69  1  0  0  0  0
 32 70  1  0  0  0  0
 32 75  2  0  0  0  0
 33 47  1  0  0  0  0
 33 71  1  0  0  0  0
 33 76  2  0  0  0  0
 34 61  1  0  0  0  0
 34 67  1  0  0  0  0
 34 77  2  0  0  0  0
 35 62  1  0  0  0  0
 35 72  1  0  0  0  0
 35 78  2  0  0  0  0
 36 68  1  0  0  0  0
 36 73  1  0  0  0  0
 36 79  2  0  0  0  0
 37 40  1  0  0  0  0
 38 47  1  0  0  0  0
 39 67  1  0  0  0  0
 40 42  1  0  0  0  0
 41 43  1  0  0  0  0
 41 44  1  0  0  0  0
 42 46  1  0  0  0  0
 43 48  1  0  0  0  0
 44 68  1  0  0  0  0
 45 48  1  0  0  0  0
 45 68  1  0  0  0  0
 46 71  1  0  0  0  0
 47 67  1  0  0  0  0
 48 66  1  0  0  0  0
 50 62  1  0  0  0  0
 51 63  1  0  0  0  0
 52 63  1  0  0  0  0
 53 63  1  0  0  0  0
 54 65  1  0  0  0  0
 55 74  1  0  0  0  0
 56 58  1  0  0  0  0
 57 81  1  0  0  0  0
 58 59  1  0  0  0  0
 59 60  1  0  0  0  0
 60 73  1  0  0  0  0
 61 63  1  0  0  0  0
 61 72  1  0  0  0  0
 62 74  1  0  0  0  0
 64 66  1  0  0  0  0
M  CHG  1  74   1
M  ISO  4  36 100  57 101  73 100  81 101
M  END
> <Batch ID>
0042

> <Smiles>
CNC(C)C(=O)NC(C(=O)N1Cc2cc([101O:1][101CH2:1]c3c(C)c(CCCC[100NH:0][100C:0](=O)N4CCCC(n5nc(-c6ccc(Oc7ccc(F)cc7F)cc6)c(C(N)=O)c5N)C4)cn3C)ccc2CC1C(=O)NC1CCCc2ccccc21)C(C)(C)C

> <Shape>
0.255

> <Color>
0.195

> <Negative vol penalty>
0.000

$$$$

  -OEChem-04052317123D

 82 90  0     1  0  0  0  0  0999 V2000
  -16.7757  -29.5255   24.7821 C   0  0  0  0  0  0  0  0  0  0  0  0
  -17.5160  -28.3685   25.0024 C   0  0  0  0  0  0  0  0  0  0  0  0
  -22.9857  -10.1811   21.5530 C   0  0  0  0  0  0  0  0  0  0  0  0
  -23.6509  -11.3147   23.5802 C   0  0  0  0  0  0  0  0  0  0  0  0
  -16.9873  -30.2779   23.6274 C   0  0  0  0  0  0  0  0  0  0  0  0
  -18.4677  -27.9624   24.0675 C   0  0  0  0  0  0  0  0  0  0  0  0
  -24.8120  -24.6646   23.6308 C   0  0  0  0  0  0  0  0  0  0  0  0
  -22.1718   -9.3274   22.2975 C   0  0  0  0  0  0  0  0  0  0  0  0
  -22.8369  -10.4610   24.3247 C   0  0  0  0  0  0  0  0  0  0  0  0
  -25.4342  -23.6105   22.9634 C   0  0  0  0  0  0  0  0  0  0  0  0
  -22.5539   -6.5860   24.2374 C   0  0  0  0  0  0  0  0  0  0  0  0
  -22.6038   -5.2236   23.9425 C   0  0  0  0  0  0  0  0  0  0  0  0
  -25.7698  -25.0320   21.0436 C   0  0  0  0  0  0  0  0  0  0  0  0
  -20.2479   -5.2529   23.4081 C   0  0  0  0  0  0  0  0  0  0  0  0
  -28.6425  -20.1377   19.0010 C   0  0  0  0  0  0  0  0  0  0  0  0
  -23.7253  -11.1748   22.1944 C   0  0  0  0  0  0  0  0  0  0  0  0
  -24.2060  -13.2914   20.8540 C   0  0  0  0  0  0  0  0  0  0  0  0
  -17.9488  -29.8861   22.6826 C   0  0  0  0  0  0  0  0  0  0  0  0
  -24.6539  -25.9092   23.0045 C   0  0  0  0  0  0  0  0  0  0  0  0
  -18.6914  -28.7095   22.8985 C   0  0  0  0  0  0  0  0  0  0  0  0
  -25.1474  -26.1010   21.7061 C   0  0  0  0  0  0  0  0  0  0  0  0
  -22.0974   -9.4673   23.6833 C   0  0  0  0  0  0  0  0  0  0  0  0
  -25.9107  -23.7932   21.6686 C   0  0  0  0  0  0  0  0  0  0  0  0
  -21.3509   -7.2818   24.1177 C   0  0  0  0  0  0  0  0  0  0  0  0
  -21.4509   -4.5570   23.5278 C   0  0  0  0  0  0  0  0  0  0  0  0
  -20.1979   -6.6153   23.7030 C   0  0  0  0  0  0  0  0  0  0  0  0
  -24.5667  -12.0566   21.4259 C   0  0  0  0  0  0  0  0  0  0  0  0
  -28.6324  -18.7902   19.2865 C   0  0  0  0  0  0  0  0  0  0  0  0
  -27.3399  -19.1906   21.1302 C   0  0  0  0  0  0  0  0  0  0  0  0
  -27.3507  -20.5382   20.8450 C   0  0  0  0  0  0  0  0  0  0  0  0
  -25.3505  -13.7300   20.2341 C   0  0  0  0  0  0  0  0  0  0  0  0
  -22.9489  -13.9803   20.8807 C   0  0  0  0  0  0  0  0  0  0  0  0
  -22.1636  -27.6908   22.1511 C   0  0  0  0  0  0  0  0  0  0  0  0
  -24.4630  -29.8514   21.3980 C   0  0  0  0  0  0  0  0  0  0  0  0
  -27.7136  -30.4441   20.5440 C   0  0  0  0  0  0  0  0  0  0  0  0
  -30.8686  -14.5643   20.2291 C   0  0  0  0  0  0  0  0  0  0  0  0
  -18.1088  -30.7059   21.4269 C   0  0  0  0  0  0  0  0  0  0  0  0
  -24.0043  -27.0441   23.7479 C   0  0  0  0  0  0  0  0  0  0  0  0
  -25.0207  -27.4237   20.9970 C   0  0  0  0  0  0  0  0  0  0  0  0
  -19.3992  -30.4105   20.6668 C   0  0  0  0  0  0  0  0  0  0  0  0
  -29.7035  -11.3360   19.2820 C   0  0  0  0  0  0  0  0  0  0  0  0
  -19.6116  -28.9052   20.5404 C   0  0  0  0  0  0  0  0  0  0  0  0
  -28.2360  -11.3355   19.7137 C   0  0  0  0  0  0  0  0  0  0  0  0
  -30.5814  -12.1041   20.2675 C   0  0  0  0  0  0  0  0  0  0  0  0
  -28.6665  -13.4797   20.9848 C   0  0  0  0  0  0  0  0  0  0  0  0
  -19.7502  -28.2499   21.9198 C   0  0  1  0  0  0  0  0  0  0  0  0
  -23.4379  -28.1174   22.8234 C   0  0  1  0  0  0  0  0  0  0  0  0
  -27.7332  -12.7647   19.9929 C   0  0  2  0  0  0  0  0  0  0  0  0
  -26.6148  -18.6531   22.3164 C   0  0  0  0  0  0  0  0  0  0  0  0
  -29.2871  -32.3081   19.9551 C   0  0  0  0  0  0  0  0  0  0  0  0
  -23.2157  -30.0230   18.6187 C   0  0  0  0  0  0  0  0  0  0  0  0
  -25.3201  -31.1176   17.8180 C   0  0  0  0  0  0  0  0  0  0  0  0
  -23.9351  -32.2182   19.5766 C   0  0  0  0  0  0  0  0  0  0  0  0
  -29.4590  -29.8585   22.8612 C   0  0  0  0  0  0  0  0  0  0  0  0
  -29.3522  -17.8268   18.4092 C   0  0  0  0  0  0  0  0  0  0  0  0
  -26.6331  -21.5279   21.7150 C   0  0  0  0  0  0  0  0  0  1  0  0
  -30.8195  -17.5686   18.8093 C   0  0  0  0  0  0  0  0  0  0  0  0
  -30.9987  -17.0427   20.2319 C   0  0  0  0  0  0  0  0  0  0  0  0
  -25.2785  -30.1590   20.1654 C   0  0  1  0  0  0  0  0  0  0  0  0
  -28.7282  -31.4417   21.0730 C   0  0  2  0  0  0  0  0  0  0  0  0
  -24.4381  -30.8538   19.0570 C   0  0  0  0  0  0  0  0  0  0  0  0
  -28.0019  -21.0360   19.7751 N   0  0  0  0  0  0  0  0  0  0  0  0
  -25.8406  -11.7317   21.1902 N   0  0  0  0  0  0  0  0  0  0  0  0
  -27.9808  -18.2924   20.3562 N   0  0  0  0  0  0  0  0  0  0  0  0
  -26.2904  -12.7687   20.4632 N   0  0  0  0  0  0  0  0  0  0  0  0
  -24.3724  -28.5008   21.7632 N   0  0  0  0  0  0  0  0  0  0  0  0
  -30.0509  -13.4518   20.4874 N   0  0  0  0  0  0  0  0  0  0  0  0
  -25.6345  -14.8404   19.5208 N   0  0  0  0  0  0  0  0  0  0  0  0
  -21.8770  -13.3883   21.5626 N   0  0  0  0  0  0  0  0  0  0  0  0
  -21.0731  -28.4817   22.4589 N   0  0  0  0  0  0  0  0  0  0  0  0
  -26.4273  -30.9352   20.6192 N   0  0  0  0  0  0  0  0  0  0  0  0
  -30.2861  -15.8049   20.4577 N   0  0  0  0  0  0  0  0  0  0  0  0
  -29.8620  -30.7298   21.7275 N   0  3  0  0  0  0  0  0  0  0  0  0
  -22.7765  -15.0801   20.3027 O   0  0  0  0  0  0  0  0  0  0  0  0
  -22.1697  -26.7172   21.4070 O   0  0  0  0  0  0  0  0  0  0  0  0
  -23.9321  -30.7761   22.0181 O   0  0  0  0  0  0  0  0  0  0  0  0
  -28.0307  -29.3411   20.1044 O   0  0  0  0  0  0  0  0  0  0  0  0
  -32.0298  -14.4598   19.8197 O   0  0  0  0  0  0  0  0  0  0  0  0
  -21.3031   -8.6346   24.4101 O   0  0  0  0  0  0  0  0  0  0  0  0
  -26.5178  -22.7658   21.0146 O   0  0  0  0  0  0  0  0  0  1  0  0
  -21.4993   -3.2490   23.2432 F   0  0  0  0  0  0  0  0  0  0  0  0
  -19.0396   -7.2787   23.5850 F   0  0  0  0  0  0  0  0  0  0  0  0
  1  2  1  0  0  0  0
  1  5  2  0  0  0  0
  2  6  2  0  0  0  0
  3  8  2  0  0  0  0
  3 16  1  0  0  0  0
  4  9  1  0  0  0  0
  4 16  2  0  0  0  0
  5 18  1  0  0  0  0
  6 20  1  0  0  0  0
  7 10  2  0  0  0  0
  7 19  1  0  0  0  0
  8 22  1  0  0  0  0
  9 22  2  0  0  0  0
 10 23  1  0  0  0  0
 11 12  2  0  0  0  0
 11 24  1  0  0  0  0
 12 25  1  0  0  0  0
 13 21  1  0  0  0  0
 13 23  2  0  0  0  0
 14 25  2  0  0  0  0
 14 26  1  0  0  0  0
 15 28  1  0  0  0  0
 15 62  2  0  0  0  0
 16 27  1  0  0  0  0
 17 27  1  0  0  0  0
 17 31  2  0  0  0  0
 17 32  1  0  0  0  0
 18 20  2  0  0  0  0
 18 37  1  0  0  0  0
 19 21  2  0  0  0  0
 19 38  1  0  0  0  0
 20 46  1  0  0  0  0
 21 39  1  0  0  0  0
 22 79  1  0  0  0  0
 23 80  1  0  0  0  0
 24 26  2  0  0  0  0
 24 79  1  0  0  0  0
 25 81  1  0  0  0  0
 26 82  1  0  0  0  0
 27 63  2  0  0  0  0
 28 55  1  0  0  0  0
 28 64  2  0  0  0  0
 29 30  2  0  0  0  0
 29 49  1  0  0  0  0
 29 64  1  0  0  0  0
 30 56  1  0  0  0  0
 30 62  1  0  0  0  0
 31 65  1  0  0  0  0
 31 68  1  0  0  0  0
 32 69  1  0  0  0  0
 32 74  2  0  0  0  0
 33 47  1  0  0  0  0
 33 70  1  0  0  0  0
 33 75  2  0  0  0  0
 34 59  1  0  0  0  0
 34 66  1  0  0  0  0
 34 76  2  0  0  0  0
 35 60  1  0  0  0  0
 35 71  1  0  0  0  0
 35 77  2  0  0  0  0
 36 67  1  0  0  0  0
 36 72  1  0  0  0  0
 36 78  2  0  0  0  0
 37 40  1  0  0  0  0
 38 47  1  0  0  0  0
 39 66  1  0  0  0  0
 40 42  1  0  0  0  0
 41 43  1  0  0  0  0
 41 44  1  0  0  0  0
 42 46  1  0  0  0  0
 43 48  1  0  0  0  0
 44 67  1  0  0  0  0
 45 48  1  0  0  0  0
 45 67  1  0  0  0  0
 46 70  1  0  0  0  0
 47 66  1  0  0  0  0
 48 65  1  0  0  0  0
 50 60  1  0  0  0  0
 51 61  1  0  0  0  0
 52 61  1  0  0  0  0
 53 61  1  0  0  0  0
 54 73  1  0  0  0  0
 55 57  1  0  0  0  0
 56 80  1  0  0  0  0
 57 58  1  0  0  0  0
 58 72  1  0  0  0  0
 59 61  1  0  0  0  0
 59 71  1  0  0  0  0
 60 73  1  0  0  0  0
 63 65  1  0  0  0  0
M  CHG  1  73   1
M  ISO  4  36 100  56 101  72 100  80 101
M  END
> <Batch ID>
0042

> <Smiles>
CNC(C)C(=O)NC(C(=O)N1Cc2cc([101O:1][101CH2:1]c3ncc(CCC[100NH:0][100C:0](=O)N4CCCC(n5nc(-c6ccc(Oc7ccc(F)cc7F)cc6)c(C(N)=O)c5N)C4)nc3C)ccc2CC1C(=O)NC1CCCc2ccccc21)C(C)(C)C

> <Shape>
0.289

> <Color>
0.143

> <Negative vol penalty>
0.000

$$$$

  -OEChem-04052317123D

 84 92  0     1  0  0  0  0  0999 V2000
  -18.6887  -33.1875   20.8728 C   0  0  0  0  0  0  0  0  0  0  0  0
  -19.9373  -32.8214   20.3805 C   0  0  0  0  0  0  0  0  0  0  0  0
  -26.6737  -17.3255   21.5931 C   0  0  0  0  0  0  0  0  0  0  0  0
  -28.7491  -17.1551   20.3680 C   0  0  0  0  0  0  0  0  0  0  0  0
  -18.2687  -32.7240   22.1189 C   0  0  0  0  0  0  0  0  0  0  0  0
  -20.7671  -31.9923   21.1344 C   0  0  0  0  0  0  0  0  0  0  0  0
  -24.6241  -27.7335   19.0151 C   0  0  0  0  0  0  0  0  0  0  0  0
  -26.6194  -15.9354   21.6945 C   0  0  0  0  0  0  0  0  0  0  0  0
  -28.6948  -15.7650   20.4694 C   0  0  0  0  0  0  0  0  0  0  0  0
  -25.9991  -27.7446   18.7846 C   0  0  0  0  0  0  0  0  0  0  0  0
  -25.7499  -12.4147   21.9636 C   0  0  0  0  0  0  0  0  0  0  0  0
  -24.5292  -11.7913   21.7050 C   0  0  0  0  0  0  0  0  0  0  0  0
  -26.3635  -26.7384   20.9465 C   0  0  0  0  0  0  0  0  0  0  0  0
  -30.9857  -25.6438   17.2256 C   0  0  0  0  0  0  0  0  0  0  0  0
  -24.5394  -12.7000   19.4664 C   0  0  0  0  0  0  0  0  0  0  0  0
  -27.7385  -17.9353   20.9297 C   0  0  0  0  0  0  0  0  0  0  0  0
  -28.4008  -20.2668   21.7256 C   0  0  0  0  0  0  0  0  0  0  0  0
  -19.0898  -31.8810   22.8843 C   0  0  0  0  0  0  0  0  0  0  0  0
  -24.1084  -27.2339   20.2196 C   0  0  0  0  0  0  0  0  0  0  0  0
  -20.3583  -31.5181   22.3925 C   0  0  0  0  0  0  0  0  0  0  0  0
  -24.9815  -26.7197   21.1888 C   0  0  0  0  0  0  0  0  0  0  0  0
  -31.5124  -24.3743   17.3865 C   0  0  0  0  0  0  0  0  0  0  0  0
  -27.6300  -15.1551   21.1327 C   0  0  0  0  0  0  0  0  0  0  0  0
  -26.8692  -27.2497   19.7515 C   0  0  0  0  0  0  0  0  0  0  0  0
  -26.3653  -13.1809   20.9737 C   0  0  0  0  0  0  0  0  0  0  0  0
  -23.9240  -11.9339   20.4564 C   0  0  0  0  0  0  0  0  0  0  0  0
  -25.7600  -13.3235   19.7251 C   0  0  0  0  0  0  0  0  0  0  0  0
  -27.7949  -19.3712   20.8241 C   0  0  0  0  0  0  0  0  0  0  0  0
  -30.7578  -26.3971   18.3596 C   0  0  0  0  0  0  0  0  0  0  0  0
  -31.7766  -23.9423   18.6707 C   0  0  0  0  0  0  0  0  0  0  0  0
  -28.1803  -21.5069   21.1779 C   0  0  0  0  0  0  0  0  0  0  0  0
  -29.1004  -20.0014   22.9486 C   0  0  0  0  0  0  0  0  0  0  0  0
  -22.4219  -28.4614   22.6180 C   0  0  0  0  0  0  0  0  0  0  0  0
  -22.3680  -25.3835   23.6408 C   0  0  0  0  0  0  0  0  0  0  0  0
  -23.8192  -22.2949   23.6112 C   0  0  0  0  0  0  0  0  0  0  0  0
  -26.9668  -22.9316   15.3439 C   0  0  0  0  0  0  0  0  0  0  0  0
  -18.6122  -31.4435   24.2463 C   0  0  0  0  0  0  0  0  0  0  0  0
  -22.6210  -27.2043   20.4418 C   0  0  0  0  0  0  0  0  0  0  0  0
  -24.4771  -26.1536   22.4901 C   0  0  0  0  0  0  0  0  0  0  0  0
  -19.3967  -30.2651   24.8174 C   0  0  0  0  0  0  0  0  0  0  0  0
  -25.1122  -23.8946   18.3992 C   0  0  0  0  0  0  0  0  0  0  0  0
  -20.8961  -30.4912   24.6512 C   0  0  0  0  0  0  0  0  0  0  0  0
  -25.5963  -22.8667   19.4206 C   0  0  0  0  0  0  0  0  0  0  0  0
  -25.1626  -23.3472   16.9760 C   0  0  0  0  0  0  0  0  0  0  0  0
  -26.9812  -21.7929   17.6013 C   0  0  0  0  0  0  0  0  0  0  0  0
  -21.2767  -30.6003   23.1698 C   0  0  1  0  0  0  0  0  0  0  0  0
  -22.2384  -27.1449   21.9174 C   0  0  1  0  0  0  0  0  0  0  0  0
  -26.9870  -22.3290   19.0408 C   0  0  2  0  0  0  0  0  0  0  0  0
  -32.3438  -22.5859   18.9213 C   0  0  0  0  0  0  0  0  0  0  0  0
  -24.0882  -19.8440   24.0785 C   0  0  0  0  0  0  0  0  0  0  0  0
  -23.4602  -26.3824   26.3090 C   0  0  0  0  0  0  0  0  0  0  0  0
  -24.0740  -24.0193   26.8631 C   0  0  0  0  0  0  0  0  0  0  0  0
  -21.6837  -24.6324   26.4984 C   0  0  0  0  0  0  0  0  0  0  0  0
  -28.5418  -21.9178   13.7405 C   0  0  0  0  0  0  0  0  0  0  0  0
  -22.3124  -21.5467   21.1762 C   0  0  0  0  0  0  0  0  0  0  0  0
  -31.7778  -23.5204   16.1952 C   0  0  0  0  0  0  0  0  0  0  0  0
  -30.1841  -27.7881   18.2398 C   0  0  0  0  0  0  0  0  0  0  0  0
  -30.5536  -23.2935   15.2849 C   0  0  0  0  0  0  0  0  0  0  0  0
  -29.3932  -22.5680   15.9626 C   0  0  0  0  0  0  0  0  0  0  0  0
  -28.6599  -27.7924   18.2836 C   0  0  0  0  0  0  0  0  0  1  0  0
  -23.2536  -24.5332   24.5192 C   0  0  1  0  0  0  0  0  0  0  0  0
  -23.2340  -20.9089   23.4084 C   0  0  2  0  0  0  0  0  0  0  0  0
  -23.1278  -24.9042   26.0238 C   0  0  0  0  0  0  0  0  0  0  0  0
  -27.2316  -19.9898   19.7829 N   0  0  0  0  0  0  0  0  0  0  0  0
  -31.0259  -25.9488   19.6044 N   0  0  0  0  0  0  0  0  0  0  0  0
  -31.5439  -24.7013   19.7624 N   0  0  0  0  0  0  0  0  0  0  0  0
  -27.4826  -21.2874   20.0268 N   0  0  0  0  0  0  0  0  0  0  0  0
  -23.0150  -26.1525   22.6632 N   0  0  0  0  0  0  0  0  0  0  0  0
  -26.4829  -22.8034   16.6563 N   0  0  0  0  0  0  0  0  0  0  0  0
  -28.5170  -22.7529   21.5736 N   0  0  0  0  0  0  0  0  0  0  0  0
  -29.2362  -18.6702   23.3653 N   0  0  0  0  0  0  0  0  0  0  0  0
  -21.3163  -29.2884   22.5602 N   0  0  0  0  0  0  0  0  0  0  0  0
  -22.9185  -23.1461   24.2157 N   0  0  0  0  0  0  0  0  0  0  0  0
  -28.2411  -22.4081   15.0781 N   0  0  0  0  0  0  0  0  0  0  0  0
  -23.1431  -20.5925   21.9549 N   0  3  0  0  0  0  0  0  0  0  0  0
  -29.5764  -20.9188   23.6595 O   0  0  0  0  0  0  0  0  0  0  0  0
  -23.4870  -28.7080   23.1715 O   0  0  0  0  0  0  0  0  0  0  0  0
  -21.1464  -25.3607   23.8111 O   0  0  0  0  0  0  0  0  0  0  0  0
  -24.9623  -22.5916   23.2709 O   0  0  0  0  0  0  0  0  0  0  0  0
  -26.3018  -23.4911   14.4625 O   0  0  0  0  0  0  0  0  0  0  0  0
  -27.5775  -13.7987   21.2317 O   0  0  0  0  0  0  0  0  0  0  0  0
  -28.2118  -27.2599   19.5294 O   0  0  0  0  0  0  0  0  0  1  0  0
  -22.7526  -11.3338   20.2077 F   0  0  0  0  0  0  0  0  0  0  0  0
  -26.3470  -14.0574   18.7697 F   0  0  0  0  0  0  0  0  0  0  0  0
  1  2  1  0  0  0  0
  1  5  2  0  0  0  0
  2  6  2  0  0  0  0
  3  8  2  0  0  0  0
  3 16  1  0  0  0  0
  4  9  1  0  0  0  0
  4 16  2  0  0  0  0
  5 18  1  0  0  0  0
  6 20  1  0  0  0  0
  7 10  2  0  0  0  0
  7 19  1  0  0  0  0
  8 23  1  0  0  0  0
  9 23  2  0  0  0  0
 10 24  1  0  0  0  0
 11 12  2  0  0  0  0
 11 25  1  0  0  0  0
 12 26  1  0  0  0  0
 13 21  1  0  0  0  0
 13 24  2  0  0  0  0
 14 22  2  0  0  0  0
 14 29  1  0  0  0  0
 15 26  2  0  0  0  0
 15 27  1  0  0  0  0
 16 28  1  0  0  0  0
 17 28  1  0  0  0  0
 17 31  2  0  0  0  0
 17 32  1  0  0  0  0
 18 20  2  0  0  0  0
 18 37  1  0  0  0  0
 19 21  2  0  0  0  0
 19 38  1  0  0  0  0
 20 46  1  0  0  0  0
 21 39  1  0  0  0  0
 22 30  1  0  0  0  0
 22 56  1  0  0  0  0
 23 81  1  0  0  0  0
 24 82  1  0  0  0  0
 25 27  2  0  0  0  0
 25 81  1  0  0  0  0
 26 83  1  0  0  0  0
 27 84  1  0  0  0  0
 28 64  2  0  0  0  0
 29 57  1  0  0  0  0
 29 65  2  0  0  0  0
 30 49  1  0  0  0  0
 30 66  2  0  0  0  0
 31 67  1  0  0  0  0
 31 70  1  0  0  0  0
 32 71  1  0  0  0  0
 32 76  2  0  0  0  0
 33 47  1  0  0  0  0
 33 72  1  0  0  0  0
 33 77  2  0  0  0  0
 34 61  1  0  0  0  0
 34 68  1  0  0  0  0
 34 78  2  0  0  0  0
 35 62  1  0  0  0  0
 35 73  1  0  0  0  0
 35 79  2  0  0  0  0
 36 69  1  0  0  0  0
 36 74  1  0  0  0  0
 36 80  2  0  0  0  0
 37 40  1  0  0  0  0
 38 47  1  0  0  0  0
 39 68  1  0  0  0  0
 40 42  1  0  0  0  0
 41 43  1  0  0  0  0
 41 44  1  0  0  0  0
 42 46  1  0  0  0  0
 43 48  1  0  0  0  0
 44 69  1  0  0  0  0
 45 48  1  0  0  0  0
 45 69  1  0  0  0  0
 46 72  1  0  0  0  0
 47 68  1  0  0  0  0
 48 67  1  0  0  0  0
 50 62  1  0  0  0  0
 51 63  1  0  0  0  0
 52 63  1  0  0  0  0
 53 63  1  0  0  0  0
 54 74  1  0  0  0  0
 55 75  1  0  0  0  0
 56 58  1  0  0  0  0
 57 60  1  0  0  0  0
 58 59  1  0  0  0  0
 59 74  1  0  0  0  0
 60 82  1  0  0  0  0
 61 63  1  0  0  0  0
 61 73  1  0  0  0  0
 62 75  1  0  0  0  0
 64 67  1  0  0  0  0
 65 66  1  0  0  0  0
M  CHG  1  75   1
M  ISO  4  36 100  60 101  74 100  82 101
M  END
> <Batch ID>
0042

> <Smiles>
CNC(C)C(=O)NC(C(=O)N1Cc2cc([101O:1][101CH2:1]Cc3cc(CCC[100N:0](C)[100C:0](=O)N4CCCC(n5nc(-c6ccc(Oc7ccc(F)cc7F)cc6)c(C(N)=O)c5N)C4)c(C)nn3)ccc2CC1C(=O)NC1CCCc2ccccc21)C(C)(C)C

> <Shape>
0.177

> <Color>
0.093

> <Negative vol penalty>
0.000

$$$$

  -OEChem-04052317123D

 81 89  0     1  0  0  0  0  0999 V2000
  -19.5036  -23.9828   23.2632 C   0  0  0  0  0  0  0  0  0  0  0  0
  -20.7786  -24.0009   22.7069 C   0  0  0  0  0  0  0  0  0  0  0  0
  -26.0109  -15.3150   22.8267 C   0  0  0  0  0  0  0  0  0  0  0  0
  -25.4076  -14.8085   20.5428 C   0  0  0  0  0  0  0  0  0  0  0  0
  -18.7519  -25.1557   23.3190 C   0  0  0  0  0  0  0  0  0  0  0  0
  -21.3022  -25.1918   22.2050 C   0  0  0  0  0  0  0  0  0  0  0  0
  -27.1557  -26.9871   22.3436 C   0  0  0  0  0  0  0  0  0  0  0  0
  -25.0811  -14.3792   23.2799 C   0  0  0  0  0  0  0  0  0  0  0  0
  -24.4778  -13.8727   20.9960 C   0  0  0  0  0  0  0  0  0  0  0  0
  -28.1732  -26.9428   21.3914 C   0  0  0  0  0  0  0  0  0  0  0  0
  -24.5043  -10.7015   22.1637 C   0  0  0  0  0  0  0  0  0  0  0  0
  -24.4695   -9.4626   21.5239 C   0  0  0  0  0  0  0  0  0  0  0  0
  -27.6791  -29.2198   20.7665 C   0  0  0  0  0  0  0  0  0  0  0  0
  -22.1679   -9.8497   20.8994 C   0  0  0  0  0  0  0  0  0  0  0  0
  -28.3703  -26.5257   16.3162 C   0  0  0  0  0  0  0  0  0  0  0  0
  -26.1741  -15.5297   21.4582 C   0  0  0  0  0  0  0  0  0  0  0  0
  -28.4888  -16.2693   20.6817 C   0  0  0  0  0  0  0  0  0  0  0  0
  -19.2704  -26.3636   22.8263 C   0  0  0  0  0  0  0  0  0  0  0  0
  -26.3838  -28.1463   22.5071 C   0  0  0  0  0  0  0  0  0  0  0  0
  -20.5562  -26.3817   22.2530 C   0  0  0  0  0  0  0  0  0  0  0  0
  -26.6542  -29.2771   21.7231 C   0  0  0  0  0  0  0  0  0  0  0  0
  -28.3286  -25.1550   16.2392 C   0  0  0  0  0  0  0  0  0  0  0  0
  -24.3145  -13.6581   22.3646 C   0  0  0  0  0  0  0  0  0  0  0  0
  -28.4331  -28.0583   20.6007 C   0  0  0  0  0  0  0  0  0  0  0  0
  -23.3709  -11.5146   22.1714 C   0  0  0  0  0  0  0  0  0  0  0  0
  -23.3013   -9.0367   20.8917 C   0  0  0  0  0  0  0  0  0  0  0  0
  -22.2027  -11.0887   21.5393 C   0  0  0  0  0  0  0  0  0  0  0  0
  -27.1340  -16.4966   20.9894 C   0  0  0  0  0  0  0  0  0  0  0  0
  -29.4960  -24.7297   16.9012 C   0  0  0  0  0  0  0  0  0  0  0  0
  -28.9611  -17.4961   20.2840 C   0  0  0  0  0  0  0  0  0  0  0  0
  -29.2521  -15.0574   20.7493 C   0  0  0  0  0  0  0  0  0  0  0  0
  -23.3019  -28.8534   22.1825 C   0  0  0  0  0  0  0  0  0  0  0  0
  -24.2297  -31.7123   23.4025 C   0  0  0  0  0  0  0  0  0  0  0  0
  -26.7405  -33.9665   23.9140 C   0  0  0  0  0  0  0  0  0  0  0  0
  -26.2510  -22.1735   17.9106 C   0  0  0  0  0  0  0  0  0  0  0  0
  -18.4019  -27.5961   22.8655 C   0  0  0  0  0  0  0  0  0  0  0  0
  -25.3075  -28.1870   23.5570 C   0  0  0  0  0  0  0  0  0  0  0  0
  -25.8677  -30.5527   21.8735 C   0  0  0  0  0  0  0  0  0  0  0  0
  -19.1764  -28.8940   22.6519 C   0  0  0  0  0  0  0  0  0  0  0  0
  -28.2330  -22.1811   20.9387 C   0  0  0  0  0  0  0  0  0  0  0  0
  -20.1295  -28.7584   21.4688 C   0  0  0  0  0  0  0  0  0  0  0  0
  -28.3008  -20.6873   21.2616 C   0  0  0  0  0  0  0  0  0  0  0  0
  -26.8686  -22.5629   20.3723 C   0  0  0  0  0  0  0  0  0  0  0  0
  -26.5252  -20.2862   19.4934 C   0  0  0  0  0  0  0  0  0  0  0  0
  -21.1686  -27.6591   21.7206 C   0  0  1  0  0  0  0  0  0  0  0  0
  -24.2456  -29.2475   23.2833 C   0  0  1  0  0  0  0  0  0  0  0  0
  -27.8875  -19.8326   20.0488 C   0  0  2  0  0  0  0  0  0  0  0  0
  -29.9592  -23.3478   17.1171 C   0  0  0  0  0  0  0  0  0  0  0  0
  -27.1855  -36.2277   24.9069 C   0  0  0  0  0  0  0  0  0  0  0  0
  -22.9096  -33.0298   20.9877 C   0  0  0  0  0  0  0  0  0  0  0  0
  -24.1790  -35.1206   21.5222 C   0  0  0  0  0  0  0  0  0  0  0  0
  -22.5298  -34.2121   23.1585 C   0  0  0  0  0  0  0  0  0  0  0  0
  -28.6714  -32.8584   25.8640 C   0  0  0  0  0  0  0  0  0  0  0  0
  -27.2897  -24.3275   15.6033 C   0  0  0  0  0  0  0  0  0  0  0  0
  -30.0163  -28.2083   17.3365 C   0  0  0  0  0  0  0  0  0  0  0  0
  -26.0097  -24.1612   16.4451 C   0  0  0  0  0  0  0  0  0  0  0  0
  -29.2575  -28.8258   18.5061 C   0  0  0  0  0  0  0  0  0  1  0  0
  -24.7291  -33.0121   22.8194 C   0  0  1  0  0  0  0  0  0  0  0  0
  -27.1740  -34.7272   25.1540 C   0  0  2  0  0  0  0  0  0  0  0  0
  -23.6006  -33.8191   22.1175 C   0  0  0  0  0  0  0  0  0  0  0  0
  -26.7693  -17.7680   20.8033 N   0  0  0  0  0  0  0  0  0  0  0  0
  -30.2261  -25.7478   17.3644 N   0  0  0  0  0  0  0  0  0  0  0  0
  -29.5157  -26.8264   16.9929 N   0  0  0  0  0  0  0  0  0  0  0  0
  -27.9019  -18.3505   20.3744 N   0  0  0  0  0  0  0  0  0  0  0  0
  -24.8216  -30.5408   22.9093 N   0  0  0  0  0  0  0  0  0  0  0  0
  -26.5436  -21.7250   19.2093 N   0  0  0  0  0  0  0  0  0  0  0  0
  -30.1751  -17.9166   19.8693 N   0  0  0  0  0  0  0  0  0  0  0  0
  -28.6112  -13.8873   21.1789 N   0  0  0  0  0  0  0  0  0  0  0  0
  -22.2025  -28.1359   22.6139 N   0  0  0  0  0  0  0  0  0  0  0  0
  -25.3829  -33.7249   23.9115 N   0  0  0  0  0  0  0  0  0  0  0  0
  -26.2829  -23.5505   17.7270 N   0  0  0  0  0  0  0  0  0  0  0  0
  -28.5434  -34.3083   25.5664 N   0  3  0  0  0  0  0  0  0  0  0  0
  -30.4704  -15.0170   20.4537 O   0  0  0  0  0  0  0  0  0  0  0  0
  -23.5518  -29.1776   21.0275 O   0  0  0  0  0  0  0  0  0  0  0  0
  -23.3520  -31.7359   24.2690 O   0  0  0  0  0  0  0  0  0  0  0  0
  -27.5268  -33.6242   23.0336 O   0  0  0  0  0  0  0  0  0  0  0  0
  -25.9862  -21.4032   16.9813 O   0  0  0  0  0  0  0  0  0  0  0  0
  -23.4073  -12.7447   22.8064 O   0  0  0  0  0  0  0  0  0  0  0  0
  -29.4252  -28.0176   19.6701 O   0  0  0  0  0  0  0  0  0  1  0  0
  -23.2685   -7.8475   20.2760 F   0  0  0  0  0  0  0  0  0  0  0  0
  -21.1111  -11.8659   21.5424 F   0  0  0  0  0  0  0  0  0  0  0  0
  1  2  1  0  0  0  0
  1  5  2  0  0  0  0
  2  6  2  0  0  0  0
  3  8  2  0  0  0  0
  3 16  1  0  0  0  0
  4  9  1  0  0  0  0
  4 16  2  0  0  0  0
  5 18  1  0  0  0  0
  6 20  1  0  0  0  0
  7 10  2  0  0  0  0
  7 19  1  0  0  0  0
  8 23  1  0  0  0  0
  9 23  2  0  0  0  0
 10 24  1  0  0  0  0
 11 12  2  0  0  0  0
 11 25  1  0  0  0  0
 12 26  1  0  0  0  0
 13 21  1  0  0  0  0
 13 24  2  0  0  0  0
 14 26  2  0  0  0  0
 14 27  1  0  0  0  0
 15 22  2  0  0  0  0
 15 63  1  0  0  0  0
 16 28  1  0  0  0  0
 17 28  1  0  0  0  0
 17 30  2  0  0  0  0
 17 31  1  0  0  0  0
 18 20  2  0  0  0  0
 18 36  1  0  0  0  0
 19 21  2  0  0  0  0
 19 37  1  0  0  0  0
 20 45  1  0  0  0  0
 21 38  1  0  0  0  0
 22 29  1  0  0  0  0
 22 54  1  0  0  0  0
 23 78  1  0  0  0  0
 24 79  1  0  0  0  0
 25 27  2  0  0  0  0
 25 78  1  0  0  0  0
 26 80  1  0  0  0  0
 27 81  1  0  0  0  0
 28 61  2  0  0  0  0
 29 48  1  0  0  0  0
 29 62  2  0  0  0  0
 30 64  1  0  0  0  0
 30 67  1  0  0  0  0
 31 68  1  0  0  0  0
 31 73  2  0  0  0  0
 32 46  1  0  0  0  0
 32 69  1  0  0  0  0
 32 74  2  0  0  0  0
 33 58  1  0  0  0  0
 33 65  1  0  0  0  0
 33 75  2  0  0  0  0
 34 59  1  0  0  0  0
 34 70  1  0  0  0  0
 34 76  2  0  0  0  0
 35 66  1  0  0  0  0
 35 71  1  0  0  0  0
 35 77  2  0  0  0  0
 36 39  1  0  0  0  0
 37 46  1  0  0  0  0
 38 65  1  0  0  0  0
 39 41  1  0  0  0  0
 40 42  1  0  0  0  0
 40 43  1  0  0  0  0
 41 45  1  0  0  0  0
 42 47  1  0  0  0  0
 43 66  1  0  0  0  0
 44 47  1  0  0  0  0
 44 66  1  0  0  0  0
 45 69  1  0  0  0  0
 46 65  1  0  0  0  0
 47 64  1  0  0  0  0
 49 59  1  0  0  0  0
 50 60  1  0  0  0  0
 51 60  1  0  0  0  0
 52 60  1  0  0  0  0
 53 72  1  0  0  0  0
 54 56  1  0  0  0  0
 55 57  1  0  0  0  0
 55 63  1  0  0  0  0
 56 71  1  0  0  0  0
 57 79  1  0  0  0  0
 58 60  1  0  0  0  0
 58 70  1  0  0  0  0
 59 72  1  0  0  0  0
 61 64  1  0  0  0  0
 62 63  1  0  0  0  0
M  CHG  1  72   1
M  ISO  4  35 100  57 101  71 100  79 101
M  END
> <Batch ID>
0042

> <Smiles>
CNC(C)C(=O)NC(C(=O)N1Cc2cc([101O:1][101CH2:1]Cn3cc(CC[100NH:0][100C:0](=O)N4CCCC(n5nc(-c6ccc(Oc7ccc(F)cc7F)cc6)c(C(N)=O)c5N)C4)c(C)n3)ccc2CC1C(=O)NC1CCCc2ccccc21)C(C)(C)C

> <Shape>
0.286

> <Color>
0.076

> <Negative vol penalty>
0.000

$$$$

  -OEChem-04052317123D

 86 94  0     1  0  0  0  0  0999 V2000
  -18.1548  -15.1471   21.1488 C   0  0  0  0  0  0  0  0  0  0  0  0
  -19.3036  -15.9312   21.1798 C   0  0  0  0  0  0  0  0  0  0  0  0
  -23.1779   -9.7752   19.9249 C   0  0  0  0  0  0  0  0  0  0  0  0
  -23.7900   -9.9216   22.2575 C   0  0  0  0  0  0  0  0  0  0  0  0
  -17.1826  -15.2976   22.1367 C   0  0  0  0  0  0  0  0  0  0  0  0
  -19.4802  -16.8672   22.1982 C   0  0  0  0  0  0  0  0  0  0  0  0
  -24.1573  -16.7687   24.1374 C   0  0  0  0  0  0  0  0  0  0  0  0
  -22.4465   -8.6173   20.1894 C   0  0  0  0  0  0  0  0  0  0  0  0
  -23.0585   -8.7637   22.5221 C   0  0  0  0  0  0  0  0  0  0  0  0
  -25.1650  -17.3902   23.4012 C   0  0  0  0  0  0  0  0  0  0  0  0
  -20.7132   -5.4205   20.1870 C   0  0  0  0  0  0  0  0  0  0  0  0
  -20.8599   -4.3447   19.3114 C   0  0  0  0  0  0  0  0  0  0  0  0
  -25.0105  -19.3246   24.8343 C   0  0  0  0  0  0  0  0  0  0  0  0
  -25.1870  -19.6790   18.1726 C   0  0  0  0  0  0  0  0  0  0  0  0
  -25.1575  -20.9199   20.2452 C   0  0  0  0  0  0  0  0  0  0  0  0
  -23.2210   -4.2562   19.8158 C   0  0  0  0  0  0  0  0  0  0  0  0
  -23.8497  -10.4273   20.9589 C   0  0  0  0  0  0  0  0  0  0  0  0
  -24.1399  -12.9509   20.7253 C   0  0  0  0  0  0  0  0  0  0  0  0
  -17.3519  -16.2291   23.1732 C   0  0  0  0  0  0  0  0  0  0  0  0
  -23.5600  -17.4259   25.2227 C   0  0  0  0  0  0  0  0  0  0  0  0
  -18.5087  -17.0312   23.2002 C   0  0  0  0  0  0  0  0  0  0  0  0
  -23.9972  -18.7082   25.5842 C   0  0  0  0  0  0  0  0  0  0  0  0
  -24.4958  -20.4405   19.1148 C   0  0  0  0  0  0  0  0  0  0  0  0
  -26.5400  -19.3967   18.3609 C   0  0  0  0  0  0  0  0  0  0  0  0
  -26.5105  -20.6377   20.4336 C   0  0  0  0  0  0  0  0  0  0  0  0
  -27.2017  -19.8760   19.4914 C   0  0  0  0  0  0  0  0  0  0  0  0
  -22.3868   -8.1115   21.4880 C   0  0  0  0  0  0  0  0  0  0  0  0
  -25.5897  -18.6695   23.7478 C   0  0  0  0  0  0  0  0  0  0  0  0
  -21.8205   -5.9142   20.8770 C   0  0  0  0  0  0  0  0  0  0  0  0
  -22.1138   -3.7625   19.1258 C   0  0  0  0  0  0  0  0  0  0  0  0
  -23.0743   -5.3320   20.6914 C   0  0  0  0  0  0  0  0  0  0  0  0
  -24.6058  -11.6231   20.6861 C   0  0  0  0  0  0  0  0  0  0  0  0
  -25.2353  -13.7092   20.3911 C   0  0  0  0  0  0  0  0  0  0  0  0
  -22.8337  -13.4540   21.0360 C   0  0  0  0  0  0  0  0  0  0  0  0
  -20.6154  -18.4096   25.9048 C   0  0  0  0  0  0  0  0  0  0  0  0
  -21.9376  -19.1186   28.7808 C   0  0  0  0  0  0  0  0  0  0  0  0
  -24.7440  -19.8602   30.5755 C   0  0  0  0  0  0  0  0  0  0  0  0
  -30.6709  -14.8815   20.8660 C   0  0  0  0  0  0  0  0  0  0  0  0
  -16.2516  -16.3892   24.1922 C   0  0  0  0  0  0  0  0  0  0  0  0
  -22.4928  -16.7311   26.0231 C   0  0  0  0  0  0  0  0  0  0  0  0
  -23.4024  -19.4485   26.7532 C   0  0  0  0  0  0  0  0  0  0  0  0
  -16.6883  -17.1407   25.4471 C   0  0  0  0  0  0  0  0  0  0  0  0
  -29.7430  -12.3468   18.5442 C   0  0  0  0  0  0  0  0  0  0  0  0
  -17.4706  -18.3956   25.0728 C   0  0  0  0  0  0  0  0  0  0  0  0
  -28.2881  -12.0380   18.9018 C   0  0  0  0  0  0  0  0  0  0  0  0
  -30.5765  -12.6540   19.7863 C   0  0  0  0  0  0  0  0  0  0  0  0
  -28.5739  -13.4056   21.0105 C   0  0  0  0  0  0  0  0  0  0  0  0
  -18.7480  -18.0400   24.3026 C   0  0  1  0  0  0  0  0  0  0  0  0
  -21.5976  -17.6981   26.7918 C   0  0  1  0  0  0  0  0  0  0  0  0
  -27.6810  -13.1442   19.7855 C   0  0  2  0  0  0  0  0  0  0  0  0
  -23.0491  -20.7418   18.9138 C   0  0  0  0  0  0  0  0  0  0  0  0
  -28.1375  -19.4338   16.4287 C   0  0  0  0  0  0  0  0  0  0  0  0
  -25.5039  -20.4268   32.8990 C   0  0  0  0  0  0  0  0  0  0  0  0
  -20.8409  -21.9463   28.4473 C   0  0  0  0  0  0  0  0  0  0  0  0
  -22.3952  -22.6885   30.2643 C   0  0  0  0  0  0  0  0  0  0  0  0
  -20.6192  -21.0067   30.7544 C   0  0  0  0  0  0  0  0  0  0  0  0
  -26.4791  -17.4667   30.7165 C   0  0  0  0  0  0  0  0  0  0  0  0
  -27.2576  -18.5798   17.3364 C   0  0  0  0  0  0  0  0  0  0  0  0
  -27.2031  -21.1683   21.6652 C   0  0  0  0  0  0  0  0  0  0  0  0
  -28.6525  -19.5736   19.6928 C   0  0  0  0  0  0  0  0  0  0  0  0
  -28.8722  -18.4619   20.7284 C   0  0  0  0  0  0  0  0  0  0  0  0
  -30.3623  -18.1871   20.9521 C   0  0  0  0  0  0  0  0  0  0  0  0
  -30.6081  -17.0945   21.9875 C   0  0  0  0  0  0  0  0  0  0  0  0
  -26.5327  -20.7031   22.9533 C   0  0  0  0  0  0  0  0  0  1  0  0
  -22.6244  -20.3253   29.3734 C   0  0  1  0  0  0  0  0  0  0  0  0
  -25.2734  -19.3135   31.8890 C   0  0  2  0  0  0  0  0  0  0  0  0
  -21.6300  -21.4788   29.6866 C   0  0  0  0  0  0  0  0  0  0  0  0
  -25.8966  -11.5392   20.3532 N   0  0  0  0  0  0  0  0  0  0  0  0
  -26.2511  -12.8239   20.1800 N   0  0  0  0  0  0  0  0  0  0  0  0
  -22.3576  -18.7296   27.5009 N   0  0  0  0  0  0  0  0  0  0  0  0
  -29.9470  -13.7123   20.5799 N   0  0  0  0  0  0  0  0  0  0  0  0
  -25.4190  -15.0401   20.2601 N   0  0  0  0  0  0  0  0  0  0  0  0
  -21.8237  -12.5371   21.3577 N   0  0  0  0  0  0  0  0  0  0  0  0
  -19.7701  -17.5653   25.2105 N   0  0  0  0  0  0  0  0  0  0  0  0
  -23.3659  -19.8441   30.5339 N   0  0  0  0  0  0  0  0  0  0  0  0
  -29.9980  -15.8367   21.6181 N   0  0  0  0  0  0  0  0  0  0  0  0
  -26.5646  -18.6019   31.6711 N   0  3  0  0  0  0  0  0  0  0  0  0
  -22.5659  -14.6793   21.0124 O   0  0  0  0  0  0  0  0  0  0  0  0
  -20.6229  -19.6340   25.8551 O   0  0  0  0  0  0  0  0  0  0  0  0
  -21.0659  -18.5381   29.4325 O   0  0  0  0  0  0  0  0  0  0  0  0
  -25.4794  -20.2648   29.6777 O   0  0  0  0  0  0  0  0  0  0  0  0
  -31.8290  -15.0632   20.4753 O   0  0  0  0  0  0  0  0  0  0  0  0
  -21.6731   -6.9818   21.7466 O   0  0  0  0  0  0  0  0  0  0  0  0
  -26.5727  -19.2787   23.0306 O   0  0  0  0  0  0  0  0  0  1  0  0
  -22.2542   -2.7285   18.2861 F   0  0  0  0  0  0  0  0  0  0  0  0
  -24.1415   -5.8012   21.3523 F   0  0  0  0  0  0  0  0  0  0  0  0
  1  2  1  0  0  0  0
  1  5  2  0  0  0  0
  2  6  2  0  0  0  0
  3  8  2  0  0  0  0
  3 17  1  0  0  0  0
  4  9  1  0  0  0  0
  4 17  2  0  0  0  0
  5 19  1  0  0  0  0
  6 21  1  0  0  0  0
  7 10  2  0  0  0  0
  7 20  1  0  0  0  0
  8 27  1  0  0  0  0
  9 27  2  0  0  0  0
 10 28  1  0  0  0  0
 11 12  2  0  0  0  0
 11 29  1  0  0  0  0
 12 30  1  0  0  0  0
 13 22  1  0  0  0  0
 13 28  2  0  0  0  0
 14 23  2  0  0  0  0
 14 24  1  0  0  0  0
 15 23  1  0  0  0  0
 15 25  2  0  0  0  0
 16 30  2  0  0  0  0
 16 31  1  0  0  0  0
 17 32  1  0  0  0  0
 18 32  1  0  0  0  0
 18 33  2  0  0  0  0
 18 34  1  0  0  0  0
 19 21  2  0  0  0  0
 19 39  1  0  0  0  0
 20 22  2  0  0  0  0
 20 40  1  0  0  0  0
 21 48  1  0  0  0  0
 22 41  1  0  0  0  0
 23 51  1  0  0  0  0
 24 26  2  0  0  0  0
 24 58  1  0  0  0  0
 25 26  1  0  0  0  0
 25 59  1  0  0  0  0
 26 60  1  0  0  0  0
 27 83  1  0  0  0  0
 28 84  1  0  0  0  0
 29 31  2  0  0  0  0
 29 83  1  0  0  0  0
 30 85  1  0  0  0  0
 31 86  1  0  0  0  0
 32 68  2  0  0  0  0
 33 69  1  0  0  0  0
 33 72  1  0  0  0  0
 34 73  1  0  0  0  0
 34 78  2  0  0  0  0
 35 49  1  0  0  0  0
 35 74  1  0  0  0  0
 35 79  2  0  0  0  0
 36 65  1  0  0  0  0
 36 70  1  0  0  0  0
 36 80  2  0  0  0  0
 37 66  1  0  0  0  0
 37 75  1  0  0  0  0
 37 81  2  0  0  0  0
 38 71  1  0  0  0  0
 38 76  1  0  0  0  0
 38 82  2  0  0  0  0
 39 42  1  0  0  0  0
 40 49  1  0  0  0  0
 41 70  1  0  0  0  0
 42 44  1  0  0  0  0
 43 45  1  0  0  0  0
 43 46  1  0  0  0  0
 44 48  1  0  0  0  0
 45 50  1  0  0  0  0
 46 71  1  0  0  0  0
 47 50  1  0  0  0  0
 47 71  1  0  0  0  0
 48 74  1  0  0  0  0
 49 70  1  0  0  0  0
 50 69  1  0  0  0  0
 52 58  1  0  0  0  0
 53 66  1  0  0  0  0
 54 67  1  0  0  0  0
 55 67  1  0  0  0  0
 56 67  1  0  0  0  0
 57 77  1  0  0  0  0
 59 64  1  0  0  0  0
 60 61  1  0  0  0  0
 61 62  1  0  0  0  0
 62 63  1  0  0  0  0
 63 76  1  0  0  0  0
 64 84  1  0  0  0  0
 65 67  1  0  0  0  0
 65 75  1  0  0  0  0
 66 77  1  0  0  0  0
 68 69  1  0  0  0  0
M  CHG  1  77   1
M  ISO  4  38 100  64 101  76 100  84 101
M  END
> <Batch ID>
0042

> <Smiles>
CCc1cc(C)cc(C[101CH2:1][101O:1]c2ccc3c(c2)CN(C(=O)C(NC(=O)C(C)NC)C(C)(C)C)C(C(=O)NC2CCCc4ccccc42)C3)c1CCCC[100NH:0][100C:0](=O)N1CCCC(n2nc(-c3ccc(Oc4ccc(F)cc4F)cc3)c(C(N)=O)c2N)C1

> <Shape>
0.173

> <Color>
0.190

> <Negative vol penalty>
0.000

$$$$

  -OEChem-04052317123D

 82 90  0     1  0  0  0  0  0999 V2000
  -18.1596  -25.2948   21.7883 C   0  0  0  0  0  0  0  0  0  0  0  0
  -19.4391  -25.3445   21.2444 C   0  0  0  0  0  0  0  0  0  0  0  0
  -23.6877  -14.9941   20.2527 C   0  0  0  0  0  0  0  0  0  0  0  0
  -25.5075  -16.5557   19.9590 C   0  0  0  0  0  0  0  0  0  0  0  0
  -17.5261  -26.4716   22.1857 C   0  0  0  0  0  0  0  0  0  0  0  0
  -20.0855  -26.5712   21.0966 C   0  0  0  0  0  0  0  0  0  0  0  0
  -24.9177  -26.4146   22.6033 C   0  0  0  0  0  0  0  0  0  0  0  0
  -24.4732  -13.9767   19.7109 C   0  0  0  0  0  0  0  0  0  0  0  0
  -26.2931  -15.5384   19.4172 C   0  0  0  0  0  0  0  0  0  0  0  0
  -25.8378  -25.8329   21.7321 C   0  0  0  0  0  0  0  0  0  0  0  0
  -28.9018  -13.2710   18.2895 C   0  0  0  0  0  0  0  0  0  0  0  0
  -30.2219  -13.1668   18.7277 C   0  0  0  0  0  0  0  0  0  0  0  0
  -26.5231  -28.0271   21.0006 C   0  0  0  0  0  0  0  0  0  0  0  0
  -29.4442  -12.8272   20.9898 C   0  0  0  0  0  0  0  0  0  0  0  0
  -26.0707  -25.0514   16.7016 C   0  0  0  0  0  0  0  0  0  0  0  0
  -24.2048  -16.2836   20.3767 C   0  0  0  0  0  0  0  0  0  0  0  0
  -23.2959  -17.7041   22.2907 C   0  0  0  0  0  0  0  0  0  0  0  0
  -18.1690  -27.7123   22.0517 C   0  0  0  0  0  0  0  0  0  0  0  0
  -24.7855  -27.8089   22.6719 C   0  0  0  0  0  0  0  0  0  0  0  0
  -19.4595  -27.7657   21.4914 C   0  0  0  0  0  0  0  0  0  0  0  0
  -25.6024  -28.6240   21.8753 C   0  0  0  0  0  0  0  0  0  0  0  0
  -25.3838  -23.8626   16.6649 C   0  0  0  0  0  0  0  0  0  0  0  0
  -25.7759  -14.2488   19.2932 C   0  0  0  0  0  0  0  0  0  0  0  0
  -26.6386  -26.6391   20.9285 C   0  0  0  0  0  0  0  0  0  0  0  0
  -27.8529  -13.1534   19.2015 C   0  0  0  0  0  0  0  0  0  0  0  0
  -30.4932  -12.9449   20.0778 C   0  0  0  0  0  0  0  0  0  0  0  0
  -28.1241  -12.9315   20.5516 C   0  0  0  0  0  0  0  0  0  0  0  0
  -23.3937  -17.3351   20.9357 C   0  0  0  0  0  0  0  0  0  0  0  0
  -26.1711  -22.9776   17.4256 C   0  0  0  0  0  0  0  0  0  0  0  0
  -22.4029  -18.7477   22.2988 C   0  0  0  0  0  0  0  0  0  0  0  0
  -23.9536  -17.1531   23.4394 C   0  0  0  0  0  0  0  0  0  0  0  0
  -22.4359  -29.8705   22.0948 C   0  0  0  0  0  0  0  0  0  0  0  0
  -24.5522  -32.0185   23.2906 C   0  0  0  0  0  0  0  0  0  0  0  0
  -27.8045  -32.8401   23.9181 C   0  0  0  0  0  0  0  0  0  0  0  0
  -20.7619  -22.7422   18.1512 C   0  0  0  0  0  0  0  0  0  0  0  0
  -17.4255  -28.9621   22.4517 C   0  0  0  0  0  0  0  0  0  0  0  0
  -23.8071  -28.4215   23.6362 C   0  0  0  0  0  0  0  0  0  0  0  0
  -25.5136  -30.1267   21.9260 C   0  0  0  0  0  0  0  0  0  0  0  0
  -18.3274  -30.1838   22.6077 C   0  0  0  0  0  0  0  0  0  0  0  0
  -18.6426  -20.4767   19.8984 C   0  0  0  0  0  0  0  0  0  0  0  0
  -19.2818  -30.2974   21.4232 C   0  0  0  0  0  0  0  0  0  0  0  0
  -19.6111  -19.4479   20.4847 C   0  0  0  0  0  0  0  0  0  0  0  0
  -19.0906  -20.9508   18.5177 C   0  0  0  0  0  0  0  0  0  0  0  0
  -21.4419  -20.4314   19.0425 C   0  0  0  0  0  0  0  0  0  0  0  0
  -20.2033  -29.0747   21.3379 C   0  0  1  0  0  0  0  0  0  0  0  0
  -23.3957  -29.8389   23.2504 C   0  0  1  0  0  0  0  0  0  0  0  0
  -21.0620  -19.9651   20.4584 C   0  0  2  0  0  0  0  0  0  0  0  0
  -25.9068  -21.5581   17.7190 C   0  0  0  0  0  0  0  0  0  0  0  0
  -29.2236  -34.6778   24.8701 C   0  0  0  0  0  0  0  0  0  0  0  0
  -24.1462  -33.6483   20.7433 C   0  0  0  0  0  0  0  0  0  0  0  0
  -26.2304  -34.9164   21.3056 C   0  0  0  0  0  0  0  0  0  0  0  0
  -24.2665  -35.0043   22.8412 C   0  0  0  0  0  0  0  0  0  0  0  0
  -28.8700  -31.0752   26.0414 C   0  0  0  0  0  0  0  0  0  0  0  0
  -24.1099  -23.5882   15.9791 C   0  0  0  0  0  0  0  0  0  0  0  0
  -22.9367  -24.5196   16.3751 C   0  0  0  0  0  0  0  0  0  0  0  0
  -28.2656  -25.8133   17.7892 C   0  0  0  0  0  0  0  0  0  0  0  0
  -22.5486  -24.4380   17.8499 C   0  0  0  0  0  0  0  0  0  0  0  0
  -27.8350  -26.7895   18.8786 C   0  0  0  0  0  0  0  0  0  1  0  0
  -25.6404  -32.8862   22.7061 C   0  0  1  0  0  0  0  0  0  0  0  0
  -28.4846  -33.3813   25.1627 C   0  0  2  0  0  0  0  0  0  0  0  0
  -25.0715  -34.0855   21.8964 C   0  0  0  0  0  0  0  0  0  0  0  0
  -22.6240  -18.0832   20.1407 N   0  0  0  0  0  0  0  0  0  0  0  0
  -27.2738  -23.5549   17.9101 N   0  0  0  0  0  0  0  0  0  0  0  0
  -27.1844  -24.8154   17.4526 N   0  0  0  0  0  0  0  0  0  0  0  0
  -22.0341  -18.9327   20.9988 N   0  0  0  0  0  0  0  0  0  0  0  0
  -24.5374  -30.6779   22.8803 N   0  0  0  0  0  0  0  0  0  0  0  0
  -20.4742  -21.4300   18.5618 N   0  0  0  0  0  0  0  0  0  0  0  0
  -21.9049  -19.5157   23.2910 N   0  0  0  0  0  0  0  0  0  0  0  0
  -24.8401  -16.0837   23.2527 N   0  0  0  0  0  0  0  0  0  0  0  0
  -21.2644  -29.1723   22.3172 N   0  0  0  0  0  0  0  0  0  0  0  0
  -26.4985  -33.2715   23.8213 N   0  0  0  0  0  0  0  0  0  0  0  0
  -22.0972  -23.1182   18.2307 N   0  0  0  0  0  0  0  0  0  0  0  0
  -29.4650  -32.3902   25.6897 N   0  3  0  0  0  0  0  0  0  0  0  0
  -23.7483  -17.5851   24.5990 O   0  0  0  0  0  0  0  0  0  0  0  0
  -22.7354  -30.4842   21.0772 O   0  0  0  0  0  0  0  0  0  0  0  0
  -23.7492  -32.5103   24.0875 O   0  0  0  0  0  0  0  0  0  0  0  0
  -28.3759  -32.1109   23.1104 O   0  0  0  0  0  0  0  0  0  0  0  0
  -19.8924  -23.5226   17.7490 O   0  0  0  0  0  0  0  0  0  0  0  0
  -26.5428  -13.2563   18.7647 O   0  0  0  0  0  0  0  0  0  0  0  0
  -27.5370  -26.0740   20.0768 O   0  0  0  0  0  0  0  0  0  1  0  0
  -31.7609  -12.8433   20.4982 F   0  0  0  0  0  0  0  0  0  0  0  0
  -27.1206  -12.8165   21.4322 F   0  0  0  0  0  0  0  0  0  0  0  0
  1  2  1  0  0  0  0
  1  5  2  0  0  0  0
  2  6  2  0  0  0  0
  3  8  2  0  0  0  0
  3 16  1  0  0  0  0
  4  9  1  0  0  0  0
  4 16  2  0  0  0  0
  5 18  1  0  0  0  0
  6 20  1  0  0  0  0
  7 10  2  0  0  0  0
  7 19  1  0  0  0  0
  8 23  1  0  0  0  0
  9 23  2  0  0  0  0
 10 24  1  0  0  0  0
 11 12  2  0  0  0  0
 11 25  1  0  0  0  0
 12 26  1  0  0  0  0
 13 21  1  0  0  0  0
 13 24  2  0  0  0  0
 14 26  2  0  0  0  0
 14 27  1  0  0  0  0
 15 22  2  0  0  0  0
 15 64  1  0  0  0  0
 16 28  1  0  0  0  0
 17 28  1  0  0  0  0
 17 30  2  0  0  0  0
 17 31  1  0  0  0  0
 18 20  2  0  0  0  0
 18 36  1  0  0  0  0
 19 21  2  0  0  0  0
 19 37  1  0  0  0  0
 20 45  1  0  0  0  0
 21 38  1  0  0  0  0
 22 29  1  0  0  0  0
 22 54  1  0  0  0  0
 23 79  1  0  0  0  0
 24 80  1  0  0  0  0
 25 27  2  0  0  0  0
 25 79  1  0  0  0  0
 26 81  1  0  0  0  0
 27 82  1  0  0  0  0
 28 62  2  0  0  0  0
 29 48  1  0  0  0  0
 29 63  2  0  0  0  0
 30 65  1  0  0  0  0
 30 68  1  0  0  0  0
 31 69  1  0  0  0  0
 31 74  2  0  0  0  0
 32 46  1  0  0  0  0
 32 70  1  0  0  0  0
 32 75  2  0  0  0  0
 33 59  1  0  0  0  0
 33 66  1  0  0  0  0
 33 76  2  0  0  0  0
 34 60  1  0  0  0  0
 34 71  1  0  0  0  0
 34 77  2  0  0  0  0
 35 67  1  0  0  0  0
 35 72  1  0  0  0  0
 35 78  2  0  0  0  0
 36 39  1  0  0  0  0
 37 46  1  0  0  0  0
 38 66  1  0  0  0  0
 39 41  1  0  0  0  0
 40 42  1  0  0  0  0
 40 43  1  0  0  0  0
 41 45  1  0  0  0  0
 42 47  1  0  0  0  0
 43 67  1  0  0  0  0
 44 47  1  0  0  0  0
 44 67  1  0  0  0  0
 45 70  1  0  0  0  0
 46 66  1  0  0  0  0
 47 65  1  0  0  0  0
 49 60  1  0  0  0  0
 50 61  1  0  0  0  0
 51 61  1  0  0  0  0
 52 61  1  0  0  0  0
 53 73  1  0  0  0  0
 54 55  1  0  0  0  0
 55 57  1  0  0  0  0
 56 58  1  0  0  0  0
 56 64  1  0  0  0  0
 57 72  1  0  0  0  0
 58 80  1  0  0  0  0
 59 61  1  0  0  0  0
 59 71  1  0  0  0  0
 60 73  1  0  0  0  0
 62 65  1  0  0  0  0
 63 64  1  0  0  0  0
M  CHG  1  73   1
M  ISO  4  35 100  58 101  72 100  80 101
M  END
> <Batch ID>
0042

> <Smiles>
CNC(C)C(=O)NC(C(=O)N1Cc2cc([101O:1][101CH2:1]Cn3cc(CCC[100NH:0][100C:0](=O)N4CCCC(n5nc(-c6ccc(Oc7ccc(F)cc7F)cc6)c(C(N)=O)c5N)C4)c(C)n3)ccc2CC1C(=O)NC1CCCc2ccccc21)C(C)(C)C

> <Shape>
0.216

> <Color>
0.066

> <Negative vol penalty>
0.000

$$$$

  -OEChem-04052317123D

 83 91  0     1  0  0  0  0  0999 V2000
  -16.4707  -24.1968   27.1450 C   0  0  0  0  0  0  0  0  0  0  0  0
  -17.6331  -23.4334   27.1833 C   0  0  0  0  0  0  0  0  0  0  0  0
  -22.9882  -10.0277   19.9749 C   0  0  0  0  0  0  0  0  0  0  0  0
  -23.8156   -9.9479   22.2435 C   0  0  0  0  0  0  0  0  0  0  0  0
  -16.2496  -25.0753   26.0852 C   0  0  0  0  0  0  0  0  0  0  0  0
  -18.5747  -23.5474   26.1611 C   0  0  0  0  0  0  0  0  0  0  0  0
  -24.6606  -23.1235   26.6977 C   0  0  0  0  0  0  0  0  0  0  0  0
  -29.5736  -19.0415   26.1466 C   0  0  0  0  0  0  0  0  0  0  0  0
  -22.2104   -8.8959   20.2188 C   0  0  0  0  0  0  0  0  0  0  0  0
  -23.0376   -8.8161   22.4874 C   0  0  0  0  0  0  0  0  0  0  0  0
  -25.5521  -22.0771   26.4651 C   0  0  0  0  0  0  0  0  0  0  0  0
  -19.8017   -8.1192   23.1683 C   0  0  0  0  0  0  0  0  0  0  0  0
  -19.0789   -8.0761   24.3605 C   0  0  0  0  0  0  0  0  0  0  0  0
  -30.5055  -18.0923   25.7417 C   0  0  0  0  0  0  0  0  0  0  0  0
  -25.9896  -22.9484   24.2586 C   0  0  0  0  0  0  0  0  0  0  0  0
  -20.2697   -6.0770   25.0103 C   0  0  0  0  0  0  0  0  0  0  0  0
  -23.7909  -10.5537   20.9873 C   0  0  0  0  0  0  0  0  0  0  0  0
  -24.2213  -13.0672   20.9196 C   0  0  0  0  0  0  0  0  0  0  0  0
  -17.1934  -25.2072   25.0545 C   0  0  0  0  0  0  0  0  0  0  0  0
  -24.4183  -24.0857   25.7068 C   0  0  0  0  0  0  0  0  0  0  0  0
  -18.3654  -24.4275   25.0858 C   0  0  0  0  0  0  0  0  0  0  0  0
  -25.0965  -24.0074   24.4821 C   0  0  0  0  0  0  0  0  0  0  0  0
  -28.2810  -19.0006   25.6359 C   0  0  0  0  0  0  0  0  0  0  0  0
  -22.2350   -8.2901   21.4750 C   0  0  0  0  0  0  0  0  0  0  0  0
  -26.2146  -21.9878   25.2444 C   0  0  0  0  0  0  0  0  0  0  0  0
  -20.7585   -7.1412   22.8971 C   0  0  0  0  0  0  0  0  0  0  0  0
  -19.3129   -7.0550   25.2815 C   0  0  0  0  0  0  0  0  0  0  0  0
  -20.9926   -6.1200   23.8181 C   0  0  0  0  0  0  0  0  0  0  0  0
  -24.5951  -11.7225   20.7358 C   0  0  0  0  0  0  0  0  0  0  0  0
  -30.0979  -17.1305   24.8314 C   0  0  0  0  0  0  0  0  0  0  0  0
  -27.9731  -17.9982   24.7302 C   0  0  0  0  0  0  0  0  0  0  0  0
  -25.3290  -13.7862   20.5418 C   0  0  0  0  0  0  0  0  0  0  0  0
  -22.9836  -13.6172   21.3899 C   0  0  0  0  0  0  0  0  0  0  0  0
  -21.8653  -25.0094   24.0537 C   0  0  0  0  0  0  0  0  0  0  0  0
  -23.8847  -27.3014   22.9624 C   0  0  0  0  0  0  0  0  0  0  0  0
  -27.0972  -28.2895   22.3703 C   0  0  0  0  0  0  0  0  0  0  0  0
  -30.8495  -14.6025   20.5877 C   0  0  0  0  0  0  0  0  0  0  0  0
  -16.8885  -26.1352   23.9053 C   0  0  0  0  0  0  0  0  0  0  0  0
  -23.4738  -25.2232   25.9832 C   0  0  0  0  0  0  0  0  0  0  0  0
  -24.8868  -25.0264   23.3929 C   0  0  0  0  0  0  0  0  0  0  0  0
  -18.1100  -26.4726   23.0542 C   0  0  0  0  0  0  0  0  0  0  0  0
  -29.5550  -12.3231   18.1783 C   0  0  0  0  0  0  0  0  0  0  0  0
  -18.9004  -25.2088   22.7302 C   0  0  0  0  0  0  0  0  0  0  0  0
  -28.1213  -12.0700   18.6475 C   0  0  0  0  0  0  0  0  0  0  0  0
  -30.5148  -12.4797   19.3557 C   0  0  0  0  0  0  0  0  0  0  0  0
  -28.6831  -13.2423   20.8175 C   0  0  0  0  0  0  0  0  0  0  0  0
  -19.4220  -24.5413   24.0084 C   0  0  1  0  0  0  0  0  0  0  0  0
  -22.9152  -25.8580   24.7134 C   0  0  1  0  0  0  0  0  0  0  0  0
  -27.6687  -13.1334   19.6663 C   0  0  2  0  0  0  0  0  0  0  0  0
  -26.3635  -16.5761   23.4367 C   0  0  0  0  0  0  0  0  0  0  0  0
  -28.4303  -30.1993   21.4362 C   0  0  0  0  0  0  0  0  0  0  0  0
  -23.1378  -26.4360   20.1334 C   0  0  0  0  0  0  0  0  0  0  0  0
  -25.1475  -27.6742   19.2989 C   0  0  0  0  0  0  0  0  0  0  0  0
  -23.3146  -28.9098   20.4551 C   0  0  0  0  0  0  0  0  0  0  0  0
  -28.4759  -28.7406   24.9500 C   0  0  0  0  0  0  0  0  0  0  0  0
  -27.2714  -20.0230   26.0680 C   0  0  0  0  0  0  0  0  0  1  0  0
  -31.0718  -16.0952   24.3765 C   0  0  0  0  0  0  0  0  0  0  0  0
  -26.5996  -17.9033   24.1512 C   0  0  0  0  0  0  0  0  0  0  0  0
  -31.8794  -16.4870   23.1238 C   0  0  0  0  0  0  0  0  0  0  0  0
  -31.0308  -16.7166   21.8750 C   0  0  0  0  0  0  0  0  0  0  0  0
  -24.8453  -27.4163   21.8035 C   0  0  1  0  0  0  0  0  0  0  0  0
  -27.8287  -29.5810   22.6886 C   0  0  2  0  0  0  0  0  0  0  0  0
  -24.1140  -27.5886   20.4423 C   0  0  0  0  0  0  0  0  0  0  0  0
  -25.8427  -11.5922   20.2768 N   0  0  0  0  0  0  0  0  0  0  0  0
  -28.8513  -17.0587   24.3134 N   0  0  0  0  0  0  0  0  0  0  0  0
  -26.2624  -12.8643   20.1689 N   0  0  0  0  0  0  0  0  0  0  0  0
  -23.9487  -26.1163   23.7088 N   0  0  0  0  0  0  0  0  0  0  0  0
  -30.0289  -13.5039   20.2834 N   0  0  0  0  0  0  0  0  0  0  0  0
  -25.5858  -15.1107   20.4955 N   0  0  0  0  0  0  0  0  0  0  0  0
  -21.9495  -12.7365   21.7353 N   0  0  0  0  0  0  0  0  0  0  0  0
  -20.5824  -25.2463   24.5093 N   0  0  0  0  0  0  0  0  0  0  0  0
  -25.7561  -28.5068   22.1348 N   0  0  0  0  0  0  0  0  0  0  0  0
  -30.3101  -15.5301   21.4705 N   0  0  0  0  0  0  0  0  0  0  0  0
  -28.9281  -29.3272   23.6622 N   0  3  0  0  0  0  0  0  0  0  0  0
  -22.7944  -14.8536   21.4850 O   0  0  0  0  0  0  0  0  0  0  0  0
  -22.1945  -24.2007   23.1939 O   0  0  0  0  0  0  0  0  0  0  0  0
  -23.1110  -28.2320   23.2010 O   0  0  0  0  0  0  0  0  0  0  0  0
  -27.6599  -27.1976   22.3307 O   0  0  0  0  0  0  0  0  0  0  0  0
  -31.9772  -14.7488   20.1040 O   0  0  0  0  0  0  0  0  0  0  0  0
  -21.4759   -7.1858   21.7134 O   0  0  0  0  0  0  0  0  0  0  0  0
  -27.0848  -20.9672   25.0145 O   0  0  0  0  0  0  0  0  0  1  0  0
  -18.6198   -7.0146   26.4269 F   0  0  0  0  0  0  0  0  0  0  0  0
  -21.9113   -5.1783   23.5636 F   0  0  0  0  0  0  0  0  0  0  0  0
  1  2  1  0  0  0  0
  1  5  2  0  0  0  0
  2  6  2  0  0  0  0
  3  9  2  0  0  0  0
  3 17  1  0  0  0  0
  4 10  1  0  0  0  0
  4 17  2  0  0  0  0
  5 19  1  0  0  0  0
  6 21  1  0  0  0  0
  7 11  2  0  0  0  0
  7 20  1  0  0  0  0
  8 14  2  0  0  0  0
  8 23  1  0  0  0  0
  9 24  1  0  0  0  0
 10 24  2  0  0  0  0
 11 25  1  0  0  0  0
 12 13  2  0  0  0  0
 12 26  1  0  0  0  0
 13 27  1  0  0  0  0
 14 30  1  0  0  0  0
 15 22  1  0  0  0  0
 15 25  2  0  0  0  0
 16 27  2  0  0  0  0
 16 28  1  0  0  0  0
 17 29  1  0  0  0  0
 18 29  1  0  0  0  0
 18 32  2  0  0  0  0
 18 33  1  0  0  0  0
 19 21  2  0  0  0  0
 19 38  1  0  0  0  0
 20 22  2  0  0  0  0
 20 39  1  0  0  0  0
 21 47  1  0  0  0  0
 22 40  1  0  0  0  0
 23 31  2  0  0  0  0
 23 56  1  0  0  0  0
 24 80  1  0  0  0  0
 25 81  1  0  0  0  0
 26 28  2  0  0  0  0
 26 80  1  0  0  0  0
 27 82  1  0  0  0  0
 28 83  1  0  0  0  0
 29 64  2  0  0  0  0
 30 57  1  0  0  0  0
 30 65  2  0  0  0  0
 31 58  1  0  0  0  0
 31 65  1  0  0  0  0
 32 66  1  0  0  0  0
 32 69  1  0  0  0  0
 33 70  1  0  0  0  0
 33 75  2  0  0  0  0
 34 48  1  0  0  0  0
 34 71  1  0  0  0  0
 34 76  2  0  0  0  0
 35 61  1  0  0  0  0
 35 67  1  0  0  0  0
 35 77  2  0  0  0  0
 36 62  1  0  0  0  0
 36 72  1  0  0  0  0
 36 78  2  0  0  0  0
 37 68  1  0  0  0  0
 37 73  1  0  0  0  0
 37 79  2  0  0  0  0
 38 41  1  0  0  0  0
 39 48  1  0  0  0  0
 40 67  1  0  0  0  0
 41 43  1  0  0  0  0
 42 44  1  0  0  0  0
 42 45  1  0  0  0  0
 43 47  1  0  0  0  0
 44 49  1  0  0  0  0
 45 68  1  0  0  0  0
 46 49  1  0  0  0  0
 46 68  1  0  0  0  0
 47 71  1  0  0  0  0
 48 67  1  0  0  0  0
 49 66  1  0  0  0  0
 50 58  1  0  0  0  0
 51 62  1  0  0  0  0
 52 63  1  0  0  0  0
 53 63  1  0  0  0  0
 54 63  1  0  0  0  0
 55 74  1  0  0  0  0
 56 81  1  0  0  0  0
 57 59  1  0  0  0  0
 59 60  1  0  0  0  0
 60 73  1  0  0  0  0
 61 63  1  0  0  0  0
 61 72  1  0  0  0  0
 62 74  1  0  0  0  0
 64 66  1  0  0  0  0
M  CHG  1  74   1
M  ISO  4  37 100  56 101  73 100  81 101
M  END
> <Batch ID>
0042

> <Smiles>
CCc1nc(CCC[100NH:0][100C:0](=O)N2CCCC(n3nc(-c4ccc(Oc5ccc(F)cc5F)cc4)c(C(N)=O)c3N)C2)ccc1[101CH2:1][101O:1]c1ccc2c(c1)CN(C(=O)C(NC(=O)C(C)NC)C(C)(C)C)C(C(=O)NC1CCCc3ccccc31)C2

> <Shape>
0.218

> <Color>
0.203

> <Negative vol penalty>
0.000

$$$$

  -OEChem-04052317123D

 85 93  0     1  0  0  0  0  0999 V2000
  -18.0366  -10.0944   21.8627 C   0  0  0  0  0  0  0  0  0  0  0  0
  -18.1407  -11.4527   21.5803 C   0  0  0  0  0  0  0  0  0  0  0  0
  -25.0838  -28.8950   21.2487 C   0  0  0  0  0  0  0  0  0  0  0  0
  -24.1744  -26.6894   20.8676 C   0  0  0  0  0  0  0  0  0  0  0  0
  -19.0504   -9.4513   22.5717 C   0  0  0  0  0  0  0  0  0  0  0  0
  -19.2582  -12.1689   22.0077 C   0  0  0  0  0  0  0  0  0  0  0  0
  -23.4565  -17.6416   20.0737 C   0  0  0  0  0  0  0  0  0  0  0  0
  -23.7939  -29.4257   21.2560 C   0  0  0  0  0  0  0  0  0  0  0  0
  -22.8844  -27.2201   20.8749 C   0  0  0  0  0  0  0  0  0  0  0  0
  -23.9694  -18.8361   20.5777 C   0  0  0  0  0  0  0  0  0  0  0  0
  -19.3315  -27.9399   21.1527 C   0  0  0  0  0  0  0  0  0  0  0  0
  -18.3540  -27.2603   21.8795 C   0  0  0  0  0  0  0  0  0  0  0  0
  -25.6958  -17.6031   21.7261 C   0  0  0  0  0  0  0  0  0  0  0  0
  -19.6454  -27.5621   23.8989 C   0  0  0  0  0  0  0  0  0  0  0  0
  -28.5254  -20.1984   18.1689 C   0  0  0  0  0  0  0  0  0  0  0  0
  -25.2741  -27.5269   21.0545 C   0  0  0  0  0  0  0  0  0  0  0  0
  -27.3309  -26.4886   22.1495 C   0  0  0  0  0  0  0  0  0  0  0  0
  -20.1855  -10.1579   22.9995 C   0  0  0  0  0  0  0  0  0  0  0  0
  -24.0538  -16.4160   20.4015 C   0  0  0  0  0  0  0  0  0  0  0  0
  -20.2875  -11.5349   22.7241 C   0  0  0  0  0  0  0  0  0  0  0  0
  -25.1900  -16.3947   21.2229 C   0  0  0  0  0  0  0  0  0  0  0  0
  -29.7569  -20.6958   17.8192 C   0  0  0  0  0  0  0  0  0  0  0  0
  -22.6942  -28.5883   21.0691 C   0  0  0  0  0  0  0  0  0  0  0  0
  -25.0875  -18.8167   21.4064 C   0  0  0  0  0  0  0  0  0  0  0  0
  -20.4661  -28.4306   21.7991 C   0  0  0  0  0  0  0  0  0  0  0  0
  -18.5109  -27.0714   23.2525 C   0  0  0  0  0  0  0  0  0  0  0  0
  -20.6230  -28.2417   23.1722 C   0  0  0  0  0  0  0  0  0  0  0  0
  -26.6064  -26.9782   21.0463 C   0  0  0  0  0  0  0  0  0  0  0  0
  -30.4432  -20.8278   19.0412 C   0  0  0  0  0  0  0  0  0  0  0  0
  -28.5317  -26.0840   21.6196 C   0  0  0  0  0  0  0  0  0  0  0  0
  -26.9522  -26.4067   23.5300 C   0  0  0  0  0  0  0  0  0  0  0  0
  -23.1009  -13.7914   21.9205 C   0  0  0  0  0  0  0  0  0  0  0  0
  -25.9902  -12.6631   20.9709 C   0  0  0  0  0  0  0  0  0  0  0  0
  -29.1908  -13.3448   20.0024 C   0  0  0  0  0  0  0  0  0  0  0  0
  -30.1840  -24.3228   16.1406 C   0  0  0  0  0  0  0  0  0  0  0  0
  -21.2332   -9.4300   23.8038 C   0  0  0  0  0  0  0  0  0  0  0  0
  -23.5044  -15.1386   19.8280 C   0  0  0  0  0  0  0  0  0  0  0  0
  -25.8804  -15.1070   21.5883 C   0  0  0  0  0  0  0  0  0  0  0  0
  -22.5601  -10.1792   23.8956 C   0  0  0  0  0  0  0  0  0  0  0  0
  -31.5430  -27.0227   18.0221 C   0  0  0  0  0  0  0  0  0  0  0  0
  -22.3221  -11.6463   24.2387 C   0  0  0  0  0  0  0  0  0  0  0  0
  -30.4973  -27.2733   19.1101 C   0  0  0  0  0  0  0  0  0  0  0  0
  -30.8951  -26.6297   16.6963 C   0  0  0  0  0  0  0  0  0  0  0  0
  -28.9153  -25.7418   17.8649 C   0  0  0  0  0  0  0  0  0  0  0  0
  -21.4959  -12.3406   23.1493 C   0  0  1  0  0  0  0  0  0  0  0  0
  -23.8837  -13.9060   20.6431 C   0  0  1  0  0  0  0  0  0  0  0  0
  -29.5231  -26.0865   19.2354 C   0  0  2  0  0  0  0  0  0  0  0  0
  -31.8582  -22.7571   19.7907 C   0  0  0  0  0  0  0  0  0  0  0  0
  -24.9545  -22.6416   20.8501 C   0  0  0  0  0  0  0  0  0  0  0  0
  -31.3279  -12.2152   19.3285 C   0  0  0  0  0  0  0  0  0  0  0  0
  -26.5311  -11.9515   23.8883 C   0  0  0  0  0  0  0  0  0  0  0  0
  -28.9574  -11.7304   23.3119 C   0  0  0  0  0  0  0  0  0  0  0  0
  -27.2803  -10.2283   22.2380 C   0  0  0  0  0  0  0  0  0  0  0  0
  -27.4881  -21.3906   22.1109 C   0  0  0  0  0  0  0  0  0  0  0  0
  -29.1572  -14.6180   17.3309 C   0  0  0  0  0  0  0  0  0  0  0  0
  -30.2390  -21.0157   16.4650 C   0  0  0  0  0  0  0  0  0  0  0  0
  -31.8150  -21.3198   19.2581 C   0  0  0  0  0  0  0  0  0  0  0  0
  -25.8595  -21.6227   20.1725 C   0  0  0  0  0  0  0  0  0  0  0  0
  -27.4215  -19.5569   20.3980 C   0  0  0  0  0  0  0  0  0  0  0  0
  -29.3586  -22.0239   15.7013 C   0  0  0  0  0  0  0  0  0  0  0  0
  -27.3818  -12.6607   21.5561 C   0  0  1  0  0  0  0  0  0  0  0  0
  -30.0239  -12.8288   18.8430 C   0  0  2  0  0  0  0  0  0  0  0  0
  -27.5237  -11.6670   22.7434 C   0  0  0  0  0  0  0  0  0  0  0  0
  -26.5848  -20.6420   21.1194 C   0  0  1  0  0  0  0  0  0  1  0  0
  -27.2899  -26.8935   19.9019 N   0  0  0  0  0  0  0  0  0  0  0  0
  -29.7086  -20.4452   20.0891 N   0  0  0  0  0  0  0  0  0  0  0  0
  -28.5479  -20.0680   19.5264 N   0  0  0  0  0  0  0  0  0  0  0  0
  -28.4565  -26.3461   20.2832 N   0  0  0  0  0  0  0  0  0  0  0  0
  -25.3017  -13.8840   21.0078 N   0  0  0  0  0  0  0  0  0  0  0  0
  -29.9844  -25.4978   16.8840 N   0  0  0  0  0  0  0  0  0  0  0  0
  -29.6340  -25.5334   22.1710 N   0  0  0  0  0  0  0  0  0  0  0  0
  -25.6820  -26.8669   23.9028 N   0  0  0  0  0  0  0  0  0  0  0  0
  -22.3264  -12.6502   22.0052 N   0  0  0  0  0  0  0  0  0  0  0  0
  -28.2910  -12.3987   20.4456 N   0  0  0  0  0  0  0  0  0  0  0  0
  -29.2798  -23.2962   16.3839 N   0  0  0  0  0  0  0  0  0  0  0  0
  -30.3482  -13.9393   17.9035 N   0  3  0  0  0  0  0  0  0  0  0  0
  -27.7239  -25.9544   24.4095 O   0  0  0  0  0  0  0  0  0  0  0  0
  -23.1939  -14.6724   22.7672 O   0  0  0  0  0  0  0  0  0  0  0  0
  -25.5336  -11.6220   20.4922 O   0  0  0  0  0  0  0  0  0  0  0  0
  -29.3273  -14.4729   20.4706 O   0  0  0  0  0  0  0  0  0  0  0  0
  -31.1034  -24.1960   15.3248 O   0  0  0  0  0  0  0  0  0  0  0  0
  -21.4353  -29.1057   21.0763 O   0  0  0  0  0  0  0  0  0  0  0  0
  -25.5899  -19.9810   21.9002 O   0  0  0  0  0  0  0  0  0  1  0  0
  -17.5713  -26.4201   23.9505 F   0  0  0  0  0  0  0  0  0  0  0  0
  -21.7102  -28.7118   23.7988 F   0  0  0  0  0  0  0  0  0  0  0  0
  1  2  1  0  0  0  0
  1  5  2  0  0  0  0
  2  6  2  0  0  0  0
  3  8  2  0  0  0  0
  3 16  1  0  0  0  0
  4  9  1  0  0  0  0
  4 16  2  0  0  0  0
  5 18  1  0  0  0  0
  6 20  1  0  0  0  0
  7 10  2  0  0  0  0
  7 19  1  0  0  0  0
  8 23  1  0  0  0  0
  9 23  2  0  0  0  0
 10 24  1  0  0  0  0
 11 12  2  0  0  0  0
 11 25  1  0  0  0  0
 12 26  1  0  0  0  0
 13 21  1  0  0  0  0
 13 24  2  0  0  0  0
 14 26  2  0  0  0  0
 14 27  1  0  0  0  0
 15 22  2  0  0  0  0
 15 67  1  0  0  0  0
 16 28  1  0  0  0  0
 17 28  1  0  0  0  0
 17 30  2  0  0  0  0
 17 31  1  0  0  0  0
 18 20  2  0  0  0  0
 18 36  1  0  0  0  0
 19 21  2  0  0  0  0
 19 37  1  0  0  0  0
 20 45  1  0  0  0  0
 21 38  1  0  0  0  0
 22 29  1  0  0  0  0
 22 56  1  0  0  0  0
 23 82  1  0  0  0  0
 24 83  1  0  0  0  0
 25 27  2  0  0  0  0
 25 82  1  0  0  0  0
 26 84  1  0  0  0  0
 27 85  1  0  0  0  0
 28 65  2  0  0  0  0
 29 57  1  0  0  0  0
 29 66  2  0  0  0  0
 30 68  1  0  0  0  0
 30 71  1  0  0  0  0
 31 72  1  0  0  0  0
 31 77  2  0  0  0  0
 32 46  1  0  0  0  0
 32 73  1  0  0  0  0
 32 78  2  0  0  0  0
 33 61  1  0  0  0  0
 33 69  1  0  0  0  0
 33 79  2  0  0  0  0
 34 62  1  0  0  0  0
 34 74  1  0  0  0  0
 34 80  2  0  0  0  0
 35 70  1  0  0  0  0
 35 75  1  0  0  0  0
 35 81  2  0  0  0  0
 36 39  1  0  0  0  0
 37 46  1  0  0  0  0
 38 69  1  0  0  0  0
 39 41  1  0  0  0  0
 40 42  1  0  0  0  0
 40 43  1  0  0  0  0
 41 45  1  0  0  0  0
 42 47  1  0  0  0  0
 43 70  1  0  0  0  0
 44 47  1  0  0  0  0
 44 70  1  0  0  0  0
 45 73  1  0  0  0  0
 46 69  1  0  0  0  0
 47 68  1  0  0  0  0
 48 57  1  0  0  0  0
 49 58  1  0  0  0  0
 50 62  1  0  0  0  0
 51 63  1  0  0  0  0
 52 63  1  0  0  0  0
 53 63  1  0  0  0  0
 54 64  1  0  0  0  0
 55 76  1  0  0  0  0
 56 60  1  0  0  0  0
 58 64  1  0  0  0  0
 59 64  1  0  0  0  0
 59 67  1  0  0  0  0
 60 75  1  0  0  0  0
 61 63  1  0  0  0  0
 61 74  1  0  0  0  0
 62 76  1  0  0  0  0
 64 83  1  0  0  0  0
 65 68  1  0  0  0  0
 66 67  1  0  0  0  0
M  CHG  1  76   1
M  ISO  4  35 100  64 101  75 100  83 101
M  END
> <Batch ID>
0042

> <Smiles>
CCc1nn(C[101C:1](C)(CC)[101O:1]c2ccc3c(c2)CN(C(=O)C(NC(=O)C(C)NC)C(C)(C)C)C(C(=O)NC2CCCc4ccccc42)C3)cc1CC[100NH:0][100C:0](=O)N1CCCC(n2nc(-c3ccc(Oc4ccc(F)cc4F)cc3)c(C(N)=O)c2N)C1

> <Shape>
0.234

> <Color>
0.074

> <Negative vol penalty>
0.000

$$$$

  -OEChem-04052317123D

 83 91  0     1  0  0  0  0  0999 V2000
  -29.8400  -12.3552   20.0555 C   0  0  0  0  0  0  0  0  0  0  0  0
  -29.7226  -13.7036   19.7339 C   0  0  0  0  0  0  0  0  0  0  0  0
  -20.2179  -28.3578   23.9037 C   0  0  0  0  0  0  0  0  0  0  0  0
  -20.6622  -26.8889   22.0377 C   0  0  0  0  0  0  0  0  0  0  0  0
  -28.7001  -11.5560   20.1314 C   0  0  0  0  0  0  0  0  0  0  0  0
  -28.4651  -14.2534   19.4871 C   0  0  0  0  0  0  0  0  0  0  0  0
  -27.8105  -18.7168   21.7880 C   0  0  0  0  0  0  0  0  0  0  0  0
  -18.8516  -28.2907   23.6313 C   0  0  0  0  0  0  0  0  0  0  0  0
  -19.2958  -26.8218   21.7653 C   0  0  0  0  0  0  0  0  0  0  0  0
  -28.4055  -19.8309   21.1976 C   0  0  0  0  0  0  0  0  0  0  0  0
  -15.8950  -25.9747   20.7983 C   0  0  0  0  0  0  0  0  0  0  0  0
  -15.3485  -24.7211   20.5237 C   0  0  0  0  0  0  0  0  0  0  0  0
  -26.2844  -20.4400   20.2234 C   0  0  0  0  0  0  0  0  0  0  0  0
  -30.6473  -24.4789   17.4114 C   0  0  0  0  0  0  0  0  0  0  0  0
  -16.0438  -23.9409   22.7020 C   0  0  0  0  0  0  0  0  0  0  0  0
  -30.2945  -24.3854   20.1156 C   0  0  0  0  0  0  0  0  0  0  0  0
  -21.1233  -27.6569   23.1069 C   0  0  0  0  0  0  0  0  0  0  0  0
  -23.2765  -26.8781   24.2315 C   0  0  0  0  0  0  0  0  0  0  0  0
  -27.4271  -12.0984   19.8948 C   0  0  0  0  0  0  0  0  0  0  0  0
  -26.4480  -18.4495   21.5913 C   0  0  0  0  0  0  0  0  0  0  0  0
  -27.3072  -13.4604   19.5586 C   0  0  0  0  0  0  0  0  0  0  0  0
  -25.6739  -19.3233   20.8146 C   0  0  0  0  0  0  0  0  0  0  0  0
  -30.2370  -23.2904   18.0051 C   0  0  0  0  0  0  0  0  0  0  0  0
  -30.0549  -23.2344   19.3824 C   0  0  0  0  0  0  0  0  0  0  0  0
  -18.3905  -27.5227   22.5621 C   0  0  0  0  0  0  0  0  0  0  0  0
  -27.6431  -20.6911   20.4128 C   0  0  0  0  0  0  0  0  0  0  0  0
  -16.5160  -26.2114   22.0247 C   0  0  0  0  0  0  0  0  0  0  0  0
  -15.4229  -23.7042   21.4756 C   0  0  0  0  0  0  0  0  0  0  0  0
  -16.5903  -25.1945   22.9766 C   0  0  0  0  0  0  0  0  0  0  0  0
  -22.5348  -27.7263   23.3875 C   0  0  0  0  0  0  0  0  0  0  0  0
  -30.8601  -25.5743   18.2328 C   0  0  0  0  0  0  0  0  0  0  0  0
  -24.5611  -27.3585   24.1581 C   0  0  0  0  0  0  0  0  0  0  0  0
  -22.8430  -25.7563   25.0120 C   0  0  0  0  0  0  0  0  0  0  0  0
  -24.7950  -16.0721   20.2802 C   0  0  0  0  0  0  0  0  0  0  0  0
  -22.2516  -17.7284   21.4249 C   0  0  0  0  0  0  0  0  0  0  0  0
  -20.9613  -20.7209   22.4381 C   0  0  0  0  0  0  0  0  0  0  0  0
  -27.5101  -30.4944   19.9962 C   0  0  0  0  0  0  0  0  0  0  0  0
  -26.2283  -11.1845   19.9421 C   0  0  0  0  0  0  0  0  0  0  0  0
  -25.8153  -17.2583   22.2570 C   0  0  0  0  0  0  0  0  0  0  0  0
  -24.2028  -19.0921   20.5891 C   0  0  0  0  0  0  0  0  0  0  0  0
  -24.8985  -11.9284   20.0338 C   0  0  0  0  0  0  0  0  0  0  0  0
  -27.0107  -31.3985   23.4035 C   0  0  0  0  0  0  0  0  0  0  0  0
  -24.8557  -13.0717   19.0249 C   0  0  0  0  0  0  0  0  0  0  0  0
  -25.8739  -30.4833   23.8619 C   0  0  0  0  0  0  0  0  0  0  0  0
  -26.8254  -31.8467   21.9555 C   0  0  0  0  0  0  0  0  0  0  0  0
  -25.4952  -29.8354   21.4462 C   0  0  0  0  0  0  0  0  0  0  0  0
  -25.9583  -14.0991   19.3083 C   0  0  1  0  0  0  0  0  0  0  0  0
  -24.5335  -16.7999   21.5684 C   0  0  1  0  0  0  0  0  0  0  0  0
  -25.6672  -29.3123   22.8826 C   0  0  2  0  0  0  0  0  0  0  0  0
  -29.9987  -22.0919   17.1476 C   0  0  0  0  0  0  0  0  0  0  0  0
  -18.8429  -21.7680   23.2827 C   0  0  0  0  0  0  0  0  0  0  0  0
  -21.0939  -17.6569   18.6027 C   0  0  0  0  0  0  0  0  0  0  0  0
  -19.5150  -19.4783   19.2794 C   0  0  0  0  0  0  0  0  0  0  0  0
  -19.4263  -17.2640   20.4246 C   0  0  0  0  0  0  0  0  0  0  0  0
  -22.2382  -21.5285   24.9829 C   0  0  0  0  0  0  0  0  0  0  0  0
  -29.6141  -21.9782   20.0745 C   0  0  0  0  0  0  0  0  0  1  0  0
  -31.3013  -26.8662   17.6302 C   0  0  0  0  0  0  0  0  0  0  0  0
  -30.1142  -27.7566   17.2320 C   0  0  0  0  0  0  0  0  0  0  0  0
  -29.2590  -28.1356   18.4447 C   0  0  0  0  0  0  0  0  0  0  0  0
  -28.0811  -29.0311   18.0747 C   0  0  0  0  0  0  0  0  0  0  0  0
  -21.3608  -18.8237   20.8904 C   0  0  1  0  0  0  0  0  0  0  0  0
  -20.1577  -21.1072   23.6667 C   0  0  2  0  0  0  0  0  0  0  0  0
  -20.3771  -18.3093   19.8017 C   0  0  0  0  0  0  0  0  0  0  0  0
  -30.6938  -25.5581   19.5744 N   0  0  0  0  0  0  0  0  0  0  0  0
  -23.2858  -28.6738   22.8197 N   0  0  0  0  0  0  0  0  0  0  0  0
  -24.5127  -28.4240   23.3080 N   0  0  0  0  0  0  0  0  0  0  0  0
  -23.6315  -17.9104   21.2560 N   0  0  0  0  0  0  0  0  0  0  0  0
  -26.6360  -30.6888   21.0784 N   0  0  0  0  0  0  0  0  0  0  0  0
  -25.7162  -26.9693   24.7385 N   0  0  0  0  0  0  0  0  0  0  0  0
  -21.4885  -25.3982   24.9723 N   0  0  0  0  0  0  0  0  0  0  0  0
  -25.5852  -14.9472   20.4200 N   0  0  0  0  0  0  0  0  0  0  0  0
  -20.7088  -19.4221   22.0502 N   0  0  0  0  0  0  0  0  0  0  0  0
  -27.2641  -29.3692   19.2189 N   0  0  0  0  0  0  0  0  0  0  0  0
  -20.9317  -22.0578   24.5141 N   0  3  0  0  0  0  0  0  0  0  0  0
  -23.6302  -25.1011   25.7362 O   0  0  0  0  0  0  0  0  0  0  0  0
  -24.3141  -16.4987   19.2369 O   0  0  0  0  0  0  0  0  0  0  0  0
  -21.7422  -16.7508   21.9785 O   0  0  0  0  0  0  0  0  0  0  0  0
  -21.7328  -21.4953   21.8763 O   0  0  0  0  0  0  0  0  0  0  0  0
  -28.4440  -31.2635   19.7447 O   0  0  0  0  0  0  0  0  0  0  0  0
  -17.0573  -27.4568   22.2961 O   0  0  0  0  0  0  0  0  0  0  0  0
  -28.2215  -21.7788   19.8348 O   0  0  0  0  0  0  0  0  0  1  0  0
  -14.8967  -22.5009   21.2124 F   0  0  0  0  0  0  0  0  0  0  0  0
  -17.1845  -25.4164   24.1571 F   0  0  0  0  0  0  0  0  0  0  0  0
  1  2  1  0  0  0  0
  1  5  2  0  0  0  0
  2  6  2  0  0  0  0
  3  8  2  0  0  0  0
  3 17  1  0  0  0  0
  4  9  1  0  0  0  0
  4 17  2  0  0  0  0
  5 19  1  0  0  0  0
  6 21  1  0  0  0  0
  7 10  2  0  0  0  0
  7 20  1  0  0  0  0
  8 25  1  0  0  0  0
  9 25  2  0  0  0  0
 10 26  1  0  0  0  0
 11 12  2  0  0  0  0
 11 27  1  0  0  0  0
 12 28  1  0  0  0  0
 13 22  1  0  0  0  0
 13 26  2  0  0  0  0
 14 23  1  0  0  0  0
 14 31  2  0  0  0  0
 15 28  2  0  0  0  0
 15 29  1  0  0  0  0
 16 24  1  0  0  0  0
 16 64  2  0  0  0  0
 17 30  1  0  0  0  0
 18 30  1  0  0  0  0
 18 32  2  0  0  0  0
 18 33  1  0  0  0  0
 19 21  2  0  0  0  0
 19 38  1  0  0  0  0
 20 22  2  0  0  0  0
 20 39  1  0  0  0  0
 21 47  1  0  0  0  0
 22 40  1  0  0  0  0
 23 24  2  0  0  0  0
 23 50  1  0  0  0  0
 24 56  1  0  0  0  0
 25 80  1  0  0  0  0
 26 81  1  0  0  0  0
 27 29  2  0  0  0  0
 27 80  1  0  0  0  0
 28 82  1  0  0  0  0
 29 83  1  0  0  0  0
 30 65  2  0  0  0  0
 31 57  1  0  0  0  0
 31 64  1  0  0  0  0
 32 66  1  0  0  0  0
 32 69  1  0  0  0  0
 33 70  1  0  0  0  0
 33 75  2  0  0  0  0
 34 48  1  0  0  0  0
 34 71  1  0  0  0  0
 34 76  2  0  0  0  0
 35 61  1  0  0  0  0
 35 67  1  0  0  0  0
 35 77  2  0  0  0  0
 36 62  1  0  0  0  0
 36 72  1  0  0  0  0
 36 78  2  0  0  0  0
 37 68  1  0  0  0  0
 37 73  1  0  0  0  0
 37 79  2  0  0  0  0
 38 41  1  0  0  0  0
 39 48  1  0  0  0  0
 40 67  1  0  0  0  0
 41 43  1  0  0  0  0
 42 44  1  0  0  0  0
 42 45  1  0  0  0  0
 43 47  1  0  0  0  0
 44 49  1  0  0  0  0
 45 68  1  0  0  0  0
 46 49  1  0  0  0  0
 46 68  1  0  0  0  0
 47 71  1  0  0  0  0
 48 67  1  0  0  0  0
 49 66  1  0  0  0  0
 51 62  1  0  0  0  0
 52 63  1  0  0  0  0
 53 63  1  0  0  0  0
 54 63  1  0  0  0  0
 55 74  1  0  0  0  0
 56 81  1  0  0  0  0
 57 58  1  0  0  0  0
 58 59  1  0  0  0  0
 59 60  1  0  0  0  0
 60 73  1  0  0  0  0
 61 63  1  0  0  0  0
 61 72  1  0  0  0  0
 62 74  1  0  0  0  0
 65 66  1  0  0  0  0
M  CHG  1  74   1
M  ISO  4  37 100  56 101  73 100  81 101
M  END
> <Batch ID>
0042

> <Smiles>
CNC(C)C(=O)NC(C(=O)N1Cc2cc([101O:1][101CH2:1]c3cnc(CCCC[100NH:0][100C:0](=O)N4CCCC(n5nc(-c6ccc(Oc7ccc(F)cc7F)cc6)c(C(N)=O)c5N)C4)cc3C)ccc2CC1C(=O)NC1CCCc2ccccc21)C(C)(C)C

> <Shape>
0.224

> <Color>
0.088

> <Negative vol penalty>
0.000

$$$$

  -OEChem-04052317123D

 81 89  0     1  0  0  0  0  0999 V2000
  -30.1160  -24.5887   17.1947 C   0  0  0  0  0  0  0  0  0  0  0  0
  -28.9170  -24.5383   17.8985 C   0  0  0  0  0  0  0  0  0  0  0  0
  -27.7120  -14.3413   18.8929 C   0  0  0  0  0  0  0  0  0  0  0  0
  -25.6274  -15.2169   19.7444 C   0  0  0  0  0  0  0  0  0  0  0  0
  -31.1449  -25.4219   17.6316 C   0  0  0  0  0  0  0  0  0  0  0  0
  -28.7467  -25.3203   19.0404 C   0  0  0  0  0  0  0  0  0  0  0  0
  -24.2476  -27.6419   19.1518 C   0  0  0  0  0  0  0  0  0  0  0  0
  -27.3947  -13.0846   19.4083 C   0  0  0  0  0  0  0  0  0  0  0  0
  -25.3101  -13.9601   20.2597 C   0  0  0  0  0  0  0  0  0  0  0  0
  -23.1440  -26.8744   19.5217 C   0  0  0  0  0  0  0  0  0  0  0  0
  -24.1164  -11.0210   19.0948 C   0  0  0  0  0  0  0  0  0  0  0  0
  -22.8210  -10.5462   18.8894 C   0  0  0  0  0  0  0  0  0  0  0  0
  -23.2588  -27.7936   21.7490 C   0  0  0  0  0  0  0  0  0  0  0  0
  -22.4882  -10.4208   21.2791 C   0  0  0  0  0  0  0  0  0  0  0  0
  -24.0719  -23.7272   21.7705 C   0  0  0  0  0  0  0  0  0  0  0  0
  -26.8283  -15.4075   19.0610 C   0  0  0  0  0  0  0  0  0  0  0  0
  -26.8427  -17.2047   17.2506 C   0  0  0  0  0  0  0  0  0  0  0  0
  -30.9836  -26.2218   18.7739 C   0  0  0  0  0  0  0  0  0  0  0  0
  -24.8728  -28.4843   20.0824 C   0  0  0  0  0  0  0  0  0  0  0  0
  -29.7750  -26.1640   19.4938 C   0  0  0  0  0  0  0  0  0  0  0  0
  -24.3685  -28.5727   21.3878 C   0  0  0  0  0  0  0  0  0  0  0  0
  -26.1938  -12.8940   20.0917 C   0  0  0  0  0  0  0  0  0  0  0  0
  -22.6512  -26.9480   20.8212 C   0  0  0  0  0  0  0  0  0  0  0  0
  -24.5977  -11.1956   20.3923 C   0  0  0  0  0  0  0  0  0  0  0  0
  -22.0069  -10.2462   19.9816 C   0  0  0  0  0  0  0  0  0  0  0  0
  -23.7836  -10.8955   21.4844 C   0  0  0  0  0  0  0  0  0  0  0  0
  -27.1558  -16.7060   18.5293 C   0  0  0  0  0  0  0  0  0  0  0  0
  -22.9132  -23.1081   22.2764 C   0  0  0  0  0  0  0  0  0  0  0  0
  -25.0996  -23.1793   22.4985 C   0  0  0  0  0  0  0  0  0  0  0  0
  -27.3694  -18.4731   17.2383 C   0  0  0  0  0  0  0  0  0  0  0  0
  -26.1386  -16.5775   16.1706 C   0  0  0  0  0  0  0  0  0  0  0  0
  -27.7776  -28.6482   21.3626 C   0  0  0  0  0  0  0  0  0  0  0  0
  -26.6234  -31.3846   22.6672 C   0  0  0  0  0  0  0  0  0  0  0  0
  -23.9105  -33.2006   23.6616 C   0  0  0  0  0  0  0  0  0  0  0  0
  -28.6455  -22.4004   21.5741 C   0  0  0  0  0  0  0  0  0  0  0  0
  -32.1415  -27.0713   19.2347 C   0  0  0  0  0  0  0  0  0  0  0  0
  -26.0458  -29.3259   19.6603 C   0  0  0  0  0  0  0  0  0  0  0  0
  -24.9913  -29.4768   22.4189 C   0  0  0  0  0  0  0  0  0  0  0  0
  -31.7441  -28.1490   20.2402 C   0  0  0  0  0  0  0  0  0  0  0  0
  -30.8951  -21.0822   19.1496 C   0  0  0  0  0  0  0  0  0  0  0  0
  -30.8439  -27.5627   21.3232 C   0  0  0  0  0  0  0  0  0  0  0  0
  -30.1636  -19.8561   18.6003 C   0  0  0  0  0  0  0  0  0  0  0  0
  -30.6426  -21.2674   20.6442 C   0  0  0  0  0  0  0  0  0  0  0  0
  -28.4885  -20.0809   20.4824 C   0  0  0  0  0  0  0  0  0  0  0  0
  -29.5431  -27.0158   20.7229 C   0  0  1  0  0  0  0  0  0  0  0  0
  -26.9204  -29.7622   20.8317 C   0  0  1  0  0  0  0  0  0  0  0  0
  -28.6677  -19.8847   18.9673 C   0  0  2  0  0  0  0  0  0  0  0  0
  -23.2851  -35.3851   24.7266 C   0  0  0  0  0  0  0  0  0  0  0  0
  -27.4766  -30.2994   25.3883 C   0  0  0  0  0  0  0  0  0  0  0  0
  -26.0103  -32.0239   26.4580 C   0  0  0  0  0  0  0  0  0  0  0  0
  -27.9392  -32.7329   25.0440 C   0  0  0  0  0  0  0  0  0  0  0  0
  -25.1843  -21.4717   24.3401 C   0  0  0  0  0  0  0  0  0  0  0  0
  -22.3756  -34.0553   21.2798 C   0  0  0  0  0  0  0  0  0  0  0  0
  -21.4868  -23.3343   21.8430 C   0  0  0  0  0  0  0  0  0  0  0  0
  -26.5545  -23.4125   22.4473 C   0  0  0  0  0  0  0  0  0  0  0  0
  -20.7770  -24.4473   22.6170 C   0  0  0  0  0  0  0  0  0  0  0  0
  -21.5015  -25.7867   22.5491 C   0  0  0  0  0  0  0  0  0  1  0  0
  -25.8939  -31.7369   23.9410 C   0  0  1  0  0  0  0  0  0  0  0  0
  -23.5229  -34.6480   23.4179 C   0  0  2  0  0  0  0  0  0  0  0  0
  -26.8192  -31.6797   25.1892 C   0  0  0  0  0  0  0  0  0  0  0  0
  -27.8293  -17.5858   19.2752 N   0  0  0  0  0  0  0  0  0  0  0  0
  -23.1791  -22.2337   23.2504 N   0  0  0  0  0  0  0  0  0  0  0  0
  -24.5168  -22.2993   23.3623 N   0  0  0  0  0  0  0  0  0  0  0  0
  -27.9439  -18.6501   18.4626 N   0  0  0  0  0  0  0  0  0  0  0  0
  -26.1399  -30.2750   21.9596 N   0  0  0  0  0  0  0  0  0  0  0  0
  -29.2049  -21.2876   20.9248 N   0  0  0  0  0  0  0  0  0  0  0  0
  -27.3926  -19.4432   16.2998 N   0  0  0  0  0  0  0  0  0  0  0  0
  -25.6646  -15.2710   16.3514 N   0  0  0  0  0  0  0  0  0  0  0  0
  -28.6301  -28.0982   20.4243 N   0  0  0  0  0  0  0  0  0  0  0  0
  -25.2790  -33.0400   23.7122 N   0  0  0  0  0  0  0  0  0  0  0  0
  -27.2751  -22.3414   21.7960 N   0  0  0  0  0  0  0  0  0  0  0  0
  -22.2763  -34.7205   22.6045 N   0  3  0  0  0  0  0  0  0  0  0  0
  -25.9501  -17.1524   15.0717 O   0  0  0  0  0  0  0  0  0  0  0  0
  -27.6744  -28.3134   22.5369 O   0  0  0  0  0  0  0  0  0  0  0  0
  -27.5824  -32.0730   22.3094 O   0  0  0  0  0  0  0  0  0  0  0  0
  -23.0820  -32.3030   23.7974 O   0  0  0  0  0  0  0  0  0  0  0  0
  -29.3167  -23.3768   21.9250 O   0  0  0  0  0  0  0  0  0  0  0  0
  -25.8837  -11.6678   20.5945 O   0  0  0  0  0  0  0  0  0  0  0  0
  -21.5746  -26.1994   21.1850 O   0  0  0  0  0  0  0  0  0  1  0  0
  -20.7624   -9.7917   19.7842 F   0  0  0  0  0  0  0  0  0  0  0  0
  -24.2401  -11.0624   22.7333 F   0  0  0  0  0  0  0  0  0  0  0  0
  1  2  1  0  0  0  0
  1  5  2  0  0  0  0
  2  6  2  0  0  0  0
  3  8  2  0  0  0  0
  3 16  1  0  0  0  0
  4  9  1  0  0  0  0
  4 16  2  0  0  0  0
  5 18  1  0  0  0  0
  6 20  1  0  0  0  0
  7 10  2  0  0  0  0
  7 19  1  0  0  0  0
  8 22  1  0  0  0  0
  9 22  2  0  0  0  0
 10 23  1  0  0  0  0
 11 12  2  0  0  0  0
 11 24  1  0  0  0  0
 12 25  1  0  0  0  0
 13 21  1  0  0  0  0
 13 23  2  0  0  0  0
 14 25  2  0  0  0  0
 14 26  1  0  0  0  0
 15 28  1  0  0  0  0
 15 29  2  0  0  0  0
 16 27  1  0  0  0  0
 17 27  1  0  0  0  0
 17 30  2  0  0  0  0
 17 31  1  0  0  0  0
 18 20  2  0  0  0  0
 18 36  1  0  0  0  0
 19 21  2  0  0  0  0
 19 37  1  0  0  0  0
 20 45  1  0  0  0  0
 21 38  1  0  0  0  0
 22 78  1  0  0  0  0
 23 79  1  0  0  0  0
 24 26  2  0  0  0  0
 24 78  1  0  0  0  0
 25 80  1  0  0  0  0
 26 81  1  0  0  0  0
 27 61  2  0  0  0  0
 28 54  1  0  0  0  0
 28 62  2  0  0  0  0
 29 55  1  0  0  0  0
 29 63  1  0  0  0  0
 30 64  1  0  0  0  0
 30 67  1  0  0  0  0
 31 68  1  0  0  0  0
 31 73  2  0  0  0  0
 32 46  1  0  0  0  0
 32 69  1  0  0  0  0
 32 74  2  0  0  0  0
 33 58  1  0  0  0  0
 33 65  1  0  0  0  0
 33 75  2  0  0  0  0
 34 59  1  0  0  0  0
 34 70  1  0  0  0  0
 34 76  2  0  0  0  0
 35 66  1  0  0  0  0
 35 71  1  0  0  0  0
 35 77  2  0  0  0  0
 36 39  1  0  0  0  0
 37 46  1  0  0  0  0
 38 65  1  0  0  0  0
 39 41  1  0  0  0  0
 40 42  1  0  0  0  0
 40 43  1  0  0  0  0
 41 45  1  0  0  0  0
 42 47  1  0  0  0  0
 43 66  1  0  0  0  0
 44 47  1  0  0  0  0
 44 66  1  0  0  0  0
 45 69  1  0  0  0  0
 46 65  1  0  0  0  0
 47 64  1  0  0  0  0
 48 59  1  0  0  0  0
 49 60  1  0  0  0  0
 50 60  1  0  0  0  0
 51 60  1  0  0  0  0
 52 63  1  0  0  0  0
 53 72  1  0  0  0  0
 54 56  1  0  0  0  0
 55 71  1  0  0  0  0
 56 57  1  0  0  0  0
 57 79  1  0  0  0  0
 58 60  1  0  0  0  0
 58 70  1  0  0  0  0
 59 72  1  0  0  0  0
 61 64  1  0  0  0  0
 62 63  1  0  0  0  0
M  CHG  1  72   1
M  ISO  4  35 100  57 101  71 100  79 101
M  END
> <Batch ID>
0042

> <Smiles>
CNC(C)C(=O)NC(C(=O)N1Cc2cc([101O:1][101CH2:1]CCc3cc(C[100NH:0][100C:0](=O)N4CCCC(n5nc(-c6ccc(Oc7ccc(F)cc7F)cc6)c(C(N)=O)c5N)C4)n(C)n3)ccc2CC1C(=O)NC1CCCc2ccccc21)C(C)(C)C

> <Shape>
0.287

> <Color>
0.064

> <Negative vol penalty>
0.000

$$$$

  -OEChem-04052317123D

 86 94  0     1  0  0  0  0  0999 V2000
  -32.4862  -29.7378   16.0188 C   0  0  0  0  0  0  0  0  0  0  0  0
  -31.6026  -29.0198   16.8182 C   0  0  0  0  0  0  0  0  0  0  0  0
  -23.8985   -9.0219   19.7270 C   0  0  0  0  0  0  0  0  0  0  0  0
  -23.1754  -10.2529   21.6760 C   0  0  0  0  0  0  0  0  0  0  0  0
  -32.9894  -30.9603   16.4619 C   0  0  0  0  0  0  0  0  0  0  0  0
  -31.2225  -29.5233   18.0617 C   0  0  0  0  0  0  0  0  0  0  0  0
  -26.2430  -29.1098   18.8857 C   0  0  0  0  0  0  0  0  0  0  0  0
  -28.4844  -25.5023   21.8664 C   0  0  0  0  0  0  0  0  0  0  0  0
  -23.1218   -7.9342   20.1258 C   0  0  0  0  0  0  0  0  0  0  0  0
  -22.3986   -9.1652   22.0749 C   0  0  0  0  0  0  0  0  0  0  0  0
  -25.7607  -27.8548   19.2545 C   0  0  0  0  0  0  0  0  0  0  0  0
  -22.8819   -6.1794   23.5857 C   0  0  0  0  0  0  0  0  0  0  0  0
  -22.9377   -5.8004   24.9269 C   0  0  0  0  0  0  0  0  0  0  0  0
  -29.8148  -25.6351   21.4846 C   0  0  0  0  0  0  0  0  0  0  0  0
  -25.7092  -28.5592   21.5611 C   0  0  0  0  0  0  0  0  0  0  0  0
  -20.5645   -6.2009   25.1387 C   0  0  0  0  0  0  0  0  0  0  0  0
  -23.9253  -10.1813   20.5021 C   0  0  0  0  0  0  0  0  0  0  0  0
  -24.3323  -12.3764   19.2678 C   0  0  0  0  0  0  0  0  0  0  0  0
  -32.6078  -31.4837   17.7073 C   0  0  0  0  0  0  0  0  0  0  0  0
  -26.4727  -30.0970   19.8547 C   0  0  0  0  0  0  0  0  0  0  0  0
  -31.7221  -30.7533   18.5225 C   0  0  0  0  0  0  0  0  0  0  0  0
  -26.1920  -29.8268   21.2017 C   0  0  0  0  0  0  0  0  0  0  0  0
  -27.8668  -24.2586   21.7934 C   0  0  0  0  0  0  0  0  0  0  0  0
  -22.3719   -8.0058   21.2998 C   0  0  0  0  0  0  0  0  0  0  0  0
  -25.4965  -27.5783   20.5927 C   0  0  0  0  0  0  0  0  0  0  0  0
  -21.6675   -6.5693   23.0210 C   0  0  0  0  0  0  0  0  0  0  0  0
  -21.7790   -5.8111   25.7034 C   0  0  0  0  0  0  0  0  0  0  0  0
  -20.5088   -6.5800   23.7975 C   0  0  0  0  0  0  0  0  0  0  0  0
  -24.7279  -11.3051   20.0910 C   0  0  0  0  0  0  0  0  0  0  0  0
  -30.4782  -24.5027   21.0406 C   0  0  0  0  0  0  0  0  0  0  0  0
  -28.6175  -23.1878   21.3354 C   0  0  0  0  0  0  0  0  0  0  0  0
  -25.4482  -13.1724   19.1801 C   0  0  0  0  0  0  0  0  0  0  0  0
  -23.0690  -12.6295   18.6387 C   0  0  0  0  0  0  0  0  0  0  0  0
  -29.0281  -31.6910   20.8710 C   0  0  0  0  0  0  0  0  0  0  0  0
  -29.7697  -15.7074   21.6676 C   0  0  0  0  0  0  0  0  0  0  0  0
  -26.8336  -33.3216   22.6169 C   0  0  0  0  0  0  0  0  0  0  0  0
  -23.7520  -33.3686   24.0826 C   0  0  0  0  0  0  0  0  0  0  0  0
  -33.2149  -32.7865   18.1640 C   0  0  0  0  0  0  0  0  0  0  0  0
  -26.9678  -31.4546   19.4373 C   0  0  0  0  0  0  0  0  0  0  0  0
  -26.4024  -30.8589   22.2781 C   0  0  0  0  0  0  0  0  0  0  0  0
  -32.4708  -33.4290   19.3319 C   0  0  0  0  0  0  0  0  0  0  0  0
  -30.2262  -12.3239   20.5797 C   0  0  0  0  0  0  0  0  0  0  0  0
  -32.1710  -32.3916   20.4093 C   0  0  0  0  0  0  0  0  0  0  0  0
  -28.8021  -11.8360   20.3171 C   0  0  0  0  0  0  0  0  0  0  0  0
  -30.2771  -13.2891   21.7600 C   0  0  0  0  0  0  0  0  0  0  0  0
  -27.9326  -13.9740   21.3651 C   0  0  0  0  0  0  0  0  0  0  0  0
  -31.2668  -31.2782   19.8668 C   0  0  1  0  0  0  0  0  0  0  0  0
  -27.6525  -32.2148   20.5690 C   0  0  1  0  0  0  0  0  0  0  0  0
  -27.8319  -13.0205   20.1613 C   0  0  2  0  0  0  0  0  0  0  0  0
  -32.0569  -24.9291   19.1399 C   0  0  0  0  0  0  0  0  0  0  0  0
  -22.2536  -34.8250   25.4722 C   0  0  0  0  0  0  0  0  0  0  0  0
  -28.5107  -32.6873   25.0857 C   0  0  0  0  0  0  0  0  0  0  0  0
  -26.5400  -33.3101   26.4987 C   0  0  0  0  0  0  0  0  0  0  0  0
  -27.5969  -35.0142   25.0150 C   0  0  0  0  0  0  0  0  0  0  0  0
  -21.6676  -33.4272   21.9824 C   0  0  0  0  0  0  0  0  0  0  0  0
  -26.4240  -24.1085   22.2048 C   0  0  0  0  0  0  0  0  0  0  0  0
  -31.9075  -24.6087   20.6246 C   0  0  0  0  0  0  0  0  0  0  0  0
  -28.0074  -21.8279   21.2389 C   0  0  0  0  0  0  0  0  0  0  0  0
  -28.7321  -16.7840   21.4723 C   0  0  0  0  0  0  0  0  0  0  0  0
  -25.4559  -23.9945   21.0252 C   0  0  0  0  0  0  0  0  0  0  0  0
  -28.9965  -20.6716   21.4672 C   0  0  0  0  0  0  0  0  0  0  0  0
  -29.3547  -18.1718   21.5890 C   0  0  0  0  0  0  0  0  0  0  0  0
  -28.3320  -19.2935   21.3790 C   0  0  0  0  0  0  0  0  0  0  0  0
  -25.4194  -25.2427   20.1512 C   0  0  0  0  0  0  0  0  0  1  0  0
  -26.2220  -33.1579   23.9874 C   0  0  1  0  0  0  0  0  0  0  0  0
  -22.6432  -34.4052   24.0634 C   0  0  2  0  0  0  0  0  0  0  0  0
  -27.2152  -33.5221   25.1269 C   0  0  0  0  0  0  0  0  0  0  0  0
  -25.9962  -11.4080   20.4971 N   0  0  0  0  0  0  0  0  0  0  0  0
  -29.9118  -23.2781   20.9558 N   0  0  0  0  0  0  0  0  0  0  0  0
  -26.4072  -12.5534   19.9268 N   0  0  0  0  0  0  0  0  0  0  0  0
  -26.8939  -32.1691   21.8206 N   0  0  0  0  0  0  0  0  0  0  0  0
  -29.3255  -14.3876   21.5845 N   0  0  0  0  0  0  0  0  0  0  0  0
  -25.6930  -14.3343   18.5380 N   0  0  0  0  0  0  0  0  0  0  0  0
  -22.0296  -11.7096   18.8331 N   0  0  0  0  0  0  0  0  0  0  0  0
  -29.8943  -31.7317   19.7952 N   0  0  0  0  0  0  0  0  0  0  0  0
  -24.9978  -33.9515   23.9855 N   0  0  0  0  0  0  0  0  0  0  0  0
  -21.4344  -33.8581   23.3848 N   0  3  0  0  0  0  0  0  0  0  0  0
  -22.8729  -13.6329   17.9119 O   0  0  0  0  0  0  0  0  0  0  0  0
  -29.2849  -31.2818   21.9972 O   0  0  0  0  0  0  0  0  0  0  0  0
  -30.9402  -16.0317   21.8846 O   0  0  0  0  0  0  0  0  0  0  0  0
  -27.2363  -34.4326   22.2631 O   0  0  0  0  0  0  0  0  0  0  0  0
  -23.5349  -32.1626   24.1783 O   0  0  0  0  0  0  0  0  0  0  0  0
  -21.6137   -6.9446   21.6891 O   0  0  0  0  0  0  0  0  0  0  0  0
  -25.0263  -26.3539   20.9556 O   0  0  0  0  0  0  0  0  0  1  0  0
  -21.8324   -5.4456   26.9909 F   0  0  0  0  0  0  0  0  0  0  0  0
  -19.3390   -6.9524   23.2603 F   0  0  0  0  0  0  0  0  0  0  0  0
  1  2  1  0  0  0  0
  1  5  2  0  0  0  0
  2  6  2  0  0  0  0
  3  9  2  0  0  0  0
  3 17  1  0  0  0  0
  4 10  1  0  0  0  0
  4 17  2  0  0  0  0
  5 19  1  0  0  0  0
  6 21  1  0  0  0  0
  7 11  2  0  0  0  0
  7 20  1  0  0  0  0
  8 14  2  0  0  0  0
  8 23  1  0  0  0  0
  9 24  1  0  0  0  0
 10 24  2  0  0  0  0
 11 25  1  0  0  0  0
 12 13  2  0  0  0  0
 12 26  1  0  0  0  0
 13 27  1  0  0  0  0
 14 30  1  0  0  0  0
 15 22  1  0  0  0  0
 15 25  2  0  0  0  0
 16 27  2  0  0  0  0
 16 28  1  0  0  0  0
 17 29  1  0  0  0  0
 18 29  1  0  0  0  0
 18 32  2  0  0  0  0
 18 33  1  0  0  0  0
 19 21  2  0  0  0  0
 19 38  1  0  0  0  0
 20 22  2  0  0  0  0
 20 39  1  0  0  0  0
 21 47  1  0  0  0  0
 22 40  1  0  0  0  0
 23 31  2  0  0  0  0
 23 56  1  0  0  0  0
 24 83  1  0  0  0  0
 25 84  1  0  0  0  0
 26 28  2  0  0  0  0
 26 83  1  0  0  0  0
 27 85  1  0  0  0  0
 28 86  1  0  0  0  0
 29 68  2  0  0  0  0
 30 57  1  0  0  0  0
 30 69  2  0  0  0  0
 31 58  1  0  0  0  0
 31 69  1  0  0  0  0
 32 70  1  0  0  0  0
 32 73  1  0  0  0  0
 33 74  1  0  0  0  0
 33 78  2  0  0  0  0
 34 48  1  0  0  0  0
 34 75  1  0  0  0  0
 34 79  2  0  0  0  0
 35 59  1  0  0  0  0
 35 72  1  0  0  0  0
 35 80  2  0  0  0  0
 36 65  1  0  0  0  0
 36 71  1  0  0  0  0
 36 81  2  0  0  0  0
 37 66  1  0  0  0  0
 37 76  1  0  0  0  0
 37 82  2  0  0  0  0
 38 41  1  0  0  0  0
 39 48  1  0  0  0  0
 40 71  1  0  0  0  0
 41 43  1  0  0  0  0
 42 44  1  0  0  0  0
 42 45  1  0  0  0  0
 43 47  1  0  0  0  0
 44 49  1  0  0  0  0
 45 72  1  0  0  0  0
 46 49  1  0  0  0  0
 46 72  1  0  0  0  0
 47 75  1  0  0  0  0
 48 71  1  0  0  0  0
 49 70  1  0  0  0  0
 50 57  1  0  0  0  0
 51 66  1  0  0  0  0
 52 67  1  0  0  0  0
 53 67  1  0  0  0  0
 54 67  1  0  0  0  0
 55 77  1  0  0  0  0
 56 60  1  0  0  0  0
 58 61  1  0  0  0  0
 59 62  1  0  0  0  0
 60 64  1  0  0  0  0
 61 63  1  0  0  0  0
 62 63  1  0  0  0  0
 64 84  1  0  0  0  0
 65 67  1  0  0  0  0
 65 76  1  0  0  0  0
 66 77  1  0  0  0  0
 68 70  1  0  0  0  0
M  CHG  1  77   1
M  ISO  4  35 100  59 100  64 101  84 101
M  END
> <Batch ID>
0042

> <Smiles>
CCc1ccc(CC[101CH2:1][101O:1]c2ccc3c(c2)CN(C(=O)C(NC(=O)C(C)NC)C(C)(C)C)C(C(=O)NC2CCCc4ccccc42)C3)c(CCCC[100CH2:0][100C:0](=O)N2CCCC(n3nc(-c4ccc(Oc5ccc(F)cc5F)cc4)c(C(N)=O)c3N)C2)n1

> <Shape>
0.254

> <Color>
0.126

> <Negative vol penalty>
0.000

$$$$

  -OEChem-04052317123D

 84 92  0     1  0  0  0  0  0999 V2000
  -22.1578   -8.1609   20.7153 C   0  0  0  0  0  0  0  0  0  0  0  0
  -21.9401   -9.5343   20.6746 C   0  0  0  0  0  0  0  0  0  0  0  0
  -25.5515  -31.5107   22.3687 C   0  0  0  0  0  0  0  0  0  0  0  0
  -26.7398  -32.0057   20.3242 C   0  0  0  0  0  0  0  0  0  0  0  0
  -23.3564   -7.6610   21.2228 C   0  0  0  0  0  0  0  0  0  0  0  0
  -22.9205  -10.4087   21.1424 C   0  0  0  0  0  0  0  0  0  0  0  0
  -23.6671  -14.3342   18.0313 C   0  0  0  0  0  0  0  0  0  0  0  0
  -25.7459  -32.8230   22.7995 C   0  0  0  0  0  0  0  0  0  0  0  0
  -26.9341  -33.3181   20.7550 C   0  0  0  0  0  0  0  0  0  0  0  0
  -22.7334  -15.3686   18.0760 C   0  0  0  0  0  0  0  0  0  0  0  0
  -24.3863  -35.8634   22.2162 C   0  0  0  0  0  0  0  0  0  0  0  0
  -23.2960  -36.5307   22.7743 C   0  0  0  0  0  0  0  0  0  0  0  0
  -24.2337  -16.6549   19.4594 C   0  0  0  0  0  0  0  0  0  0  0  0
  -24.5228  -36.8102   24.8368 C   0  0  0  0  0  0  0  0  0  0  0  0
  -23.2271  -21.3746   16.0021 C   0  0  0  0  0  0  0  0  0  0  0  0
  -26.0485  -31.1020   21.1311 C   0  0  0  0  0  0  0  0  0  0  0  0
  -24.7660  -29.2488   19.9359 C   0  0  0  0  0  0  0  0  0  0  0  0
  -24.3559   -8.5300   21.6881 C   0  0  0  0  0  0  0  0  0  0  0  0
  -24.8886  -14.4481   18.7105 C   0  0  0  0  0  0  0  0  0  0  0  0
  -24.1330   -9.9199   21.6578 C   0  0  0  0  0  0  0  0  0  0  0  0
  -25.1823  -15.6215   19.4196 C   0  0  0  0  0  0  0  0  0  0  0  0
  -24.0479  -21.7550   17.0442 C   0  0  0  0  0  0  0  0  0  0  0  0
  -26.4372  -33.7267   21.9926 C   0  0  0  0  0  0  0  0  0  0  0  0
  -23.0154  -16.5280   18.7925 C   0  0  0  0  0  0  0  0  0  0  0  0
  -25.5449  -35.6694   22.9684 C   0  0  0  0  0  0  0  0  0  0  0  0
  -23.3642  -37.0041   24.0846 C   0  0  0  0  0  0  0  0  0  0  0  0
  -25.6131  -36.1429   24.2787 C   0  0  0  0  0  0  0  0  0  0  0  0
  -25.8485  -29.7463   20.6858 C   0  0  0  0  0  0  0  0  0  0  0  0
  -23.7329  -21.2220   18.2774 C   0  0  0  0  0  0  0  0  0  0  0  0
  -25.0452  -27.9138   19.7739 C   0  0  0  0  0  0  0  0  0  0  0  0
  -21.9734  -20.0864   17.3934 C   0  0  0  0  0  0  0  0  0  0  0  0
  -23.6112  -29.9324   19.4308 C   0  0  0  0  0  0  0  0  0  0  0  0
  -26.2988  -12.8559   21.0727 C   0  0  0  0  0  0  0  0  0  0  0  0
  -28.7949  -14.8064   20.3749 C   0  0  0  0  0  0  0  0  0  0  0  0
  -29.8853  -17.7507   19.0373 C   0  0  0  0  0  0  0  0  0  0  0  0
  -28.6291  -23.7980   18.6072 C   0  0  0  0  0  0  0  0  0  0  0  0
  -25.6158   -7.9412   22.2715 C   0  0  0  0  0  0  0  0  0  0  0  0
  -25.8962  -13.3342   18.6303 C   0  0  0  0  0  0  0  0  0  0  0  0
  -26.4876  -15.8017   20.1491 C   0  0  0  0  0  0  0  0  0  0  0  0
  -26.7557   -8.9483   22.4009 C   0  0  0  0  0  0  0  0  0  0  0  0
  -28.5506  -24.9947   21.9596 C   0  0  0  0  0  0  0  0  0  0  0  0
  -26.2513  -10.2490   23.0179 C   0  0  0  0  0  0  0  0  0  0  0  0
  -27.7571  -26.2990   21.8639 C   0  0  0  0  0  0  0  0  0  0  0  0
  -29.4353  -24.7810   20.7333 C   0  0  0  0  0  0  0  0  0  0  0  0
  -27.9361  -26.1586   19.3446 C   0  0  0  0  0  0  0  0  0  0  0  0
  -25.1824  -10.9013   22.1329 C   0  0  1  0  0  0  0  0  0  0  0  0
  -26.8946  -13.3474   19.7838 C   0  0  1  0  0  0  0  0  0  0  0  0
  -26.9870  -26.3904   20.5328 C   0  0  2  0  0  0  0  0  0  0  0  0
  -23.8629  -22.5846   20.3781 C   0  0  0  0  0  0  0  0  0  0  0  0
  -31.9762  -19.0820   18.6461 C   0  0  0  0  0  0  0  0  0  0  0  0
  -28.8439  -15.5912   23.3230 C   0  0  0  0  0  0  0  0  0  0  0  0
  -30.2584  -17.5618   22.7032 C   0  0  0  0  0  0  0  0  0  0  0  0
  -31.0988  -15.2485   22.2971 C   0  0  0  0  0  0  0  0  0  0  0  0
  -29.5120  -17.6924   16.1019 C   0  0  0  0  0  0  0  0  0  0  0  0
  -25.1893  -22.6797   16.8258 C   0  0  0  0  0  0  0  0  0  0  0  0
  -24.5520  -21.5631   19.4783 C   0  0  0  0  0  0  0  0  0  0  0  0
  -20.8077  -19.1478   17.5898 C   0  0  0  0  0  0  0  0  0  0  0  0
  -26.5677  -21.9904   16.7293 C   0  0  0  0  0  0  0  0  0  0  0  0
  -27.7278  -22.9457   16.4577 C   0  0  0  0  0  0  0  0  0  0  0  0
  -21.2483  -17.6929   17.7080 C   0  0  0  0  0  0  0  0  0  1  0  0
  -29.2494  -16.1690   20.8395 C   0  0  1  0  0  0  0  0  0  0  0  0
  -31.0102  -18.0605   18.0662 C   0  0  2  0  0  0  0  0  0  0  0  0
  -29.8372  -16.1387   22.2787 C   0  0  0  0  0  0  0  0  0  0  0  0
  -22.1771  -20.5389   16.1415 N   0  0  0  0  0  0  0  0  0  0  0  0
  -26.7483  -28.8041   20.9799 N   0  0  0  0  0  0  0  0  0  0  0  0
  -22.6988  -20.3816   18.4889 N   0  0  0  0  0  0  0  0  0  0  0  0
  -26.2317  -27.7011   20.4120 N   0  0  0  0  0  0  0  0  0  0  0  0
  -27.4377  -14.6818   20.0460 N   0  0  0  0  0  0  0  0  0  0  0  0
  -28.6440  -24.8787   19.5044 N   0  0  0  0  0  0  0  0  0  0  0  0
  -24.3891  -26.9129   19.1493 N   0  0  0  0  0  0  0  0  0  0  0  0
  -23.4810  -31.3039   19.6881 N   0  0  0  0  0  0  0  0  0  0  0  0
  -25.7978  -11.5698   21.0065 N   0  0  0  0  0  0  0  0  0  0  0  0
  -30.1773  -16.6576   19.8253 N   0  0  0  0  0  0  0  0  0  0  0  0
  -27.8489  -23.9706   17.4705 N   0  0  0  0  0  0  0  0  0  0  0  0
  -30.4600  -18.6043   16.7924 N   0  3  0  0  0  0  0  0  0  0  0  0
  -22.7132  -29.3409   18.7849 O   0  0  0  0  0  0  0  0  0  0  0  0
  -26.2953  -13.5886   22.0549 O   0  0  0  0  0  0  0  0  0  0  0  0
  -29.6155  -13.8884   20.2994 O   0  0  0  0  0  0  0  0  0  0  0  0
  -28.8524  -18.4145   19.0938 O   0  0  0  0  0  0  0  0  0  0  0  0
  -29.2600  -22.7545   18.8072 O   0  0  0  0  0  0  0  0  0  0  0  0
  -26.6268  -35.0074   22.4126 O   0  0  0  0  0  0  0  0  0  0  0  0
  -22.1056  -17.5389   18.8383 O   0  0  0  0  0  0  0  0  0  1  0  0
  -22.3177  -37.6462   24.6199 F   0  0  0  0  0  0  0  0  0  0  0  0
  -26.7239  -35.9606   25.0058 F   0  0  0  0  0  0  0  0  0  0  0  0
  1  2  1  0  0  0  0
  1  5  2  0  0  0  0
  2  6  2  0  0  0  0
  3  8  2  0  0  0  0
  3 16  1  0  0  0  0
  4  9  1  0  0  0  0
  4 16  2  0  0  0  0
  5 18  1  0  0  0  0
  6 20  1  0  0  0  0
  7 10  2  0  0  0  0
  7 19  1  0  0  0  0
  8 23  1  0  0  0  0
  9 23  2  0  0  0  0
 10 24  1  0  0  0  0
 11 12  2  0  0  0  0
 11 25  1  0  0  0  0
 12 26  1  0  0  0  0
 13 21  1  0  0  0  0
 13 24  2  0  0  0  0
 14 26  2  0  0  0  0
 14 27  1  0  0  0  0
 15 22  1  0  0  0  0
 15 64  2  0  0  0  0
 16 28  1  0  0  0  0
 17 28  1  0  0  0  0
 17 30  2  0  0  0  0
 17 32  1  0  0  0  0
 18 20  2  0  0  0  0
 18 37  1  0  0  0  0
 19 21  2  0  0  0  0
 19 38  1  0  0  0  0
 20 46  1  0  0  0  0
 21 39  1  0  0  0  0
 22 29  2  0  0  0  0
 22 55  1  0  0  0  0
 23 81  1  0  0  0  0
 24 82  1  0  0  0  0
 25 27  2  0  0  0  0
 25 81  1  0  0  0  0
 26 83  1  0  0  0  0
 27 84  1  0  0  0  0
 28 65  2  0  0  0  0
 29 56  1  0  0  0  0
 29 66  1  0  0  0  0
 30 67  1  0  0  0  0
 30 70  1  0  0  0  0
 31 57  1  0  0  0  0
 31 64  1  0  0  0  0
 31 66  2  0  0  0  0
 32 71  1  0  0  0  0
 32 76  2  0  0  0  0
 33 47  1  0  0  0  0
 33 72  1  0  0  0  0
 33 77  2  0  0  0  0
 34 61  1  0  0  0  0
 34 68  1  0  0  0  0
 34 78  2  0  0  0  0
 35 62  1  0  0  0  0
 35 73  1  0  0  0  0
 35 79  2  0  0  0  0
 36 69  1  0  0  0  0
 36 74  1  0  0  0  0
 36 80  2  0  0  0  0
 37 40  1  0  0  0  0
 38 47  1  0  0  0  0
 39 68  1  0  0  0  0
 40 42  1  0  0  0  0
 41 43  1  0  0  0  0
 41 44  1  0  0  0  0
 42 46  1  0  0  0  0
 43 48  1  0  0  0  0
 44 69  1  0  0  0  0
 45 48  1  0  0  0  0
 45 69  1  0  0  0  0
 46 72  1  0  0  0  0
 47 68  1  0  0  0  0
 48 67  1  0  0  0  0
 49 56  1  0  0  0  0
 50 62  1  0  0  0  0
 51 63  1  0  0  0  0
 52 63  1  0  0  0  0
 53 63  1  0  0  0  0
 54 75  1  0  0  0  0
 55 58  1  0  0  0  0
 57 60  1  0  0  0  0
 58 59  1  0  0  0  0
 59 74  1  0  0  0  0
 60 82  1  0  0  0  0
 61 63  1  0  0  0  0
 61 73  1  0  0  0  0
 62 75  1  0  0  0  0
 65 67  1  0  0  0  0
M  CHG  1  75   1
M  ISO  4  36 100  60 101  74 100  82 101
M  END
> <Batch ID>
0042

> <Smiles>
CCc1nc(C[101CH2:1][101O:1]c2ccc3c(c2)CN(C(=O)C(NC(=O)C(C)NC)C(C)(C)C)C(C(=O)NC2CCCc4ccccc42)C3)ncc1CCC[100NH:0][100C:0](=O)N1CCCC(n2nc(-c3ccc(Oc4ccc(F)cc4F)cc3)c(C(N)=O)c2N)C1

> <Shape>
0.269

> <Color>
0.068

> <Negative vol penalty>
0.000

$$$$

  -OEChem-04052317123D

 81 89  0     1  0  0  0  0  0999 V2000
  -21.0894  -19.9602   22.6159 C   0  0  0  0  0  0  0  0  0  0  0  0
  -22.3923  -20.1328   22.1596 C   0  0  0  0  0  0  0  0  0  0  0  0
  -27.8062  -12.2653   22.7534 C   0  0  0  0  0  0  0  0  0  0  0  0
  -27.4099  -11.6990   20.4384 C   0  0  0  0  0  0  0  0  0  0  0  0
  -20.1703  -21.0031   22.5077 C   0  0  0  0  0  0  0  0  0  0  0  0
  -22.7765  -21.3479   21.5938 C   0  0  0  0  0  0  0  0  0  0  0  0
  -28.2633  -24.0352   22.0178 C   0  0  0  0  0  0  0  0  0  0  0  0
  -26.8866  -11.2938   23.1485 C   0  0  0  0  0  0  0  0  0  0  0  0
  -26.4903  -10.7275   20.8334 C   0  0  0  0  0  0  0  0  0  0  0  0
  -29.3572  -24.0756   21.1543 C   0  0  0  0  0  0  0  0  0  0  0  0
  -23.7723   -8.3450   21.2160 C   0  0  0  0  0  0  0  0  0  0  0  0
  -22.5616   -8.2797   20.5264 C   0  0  0  0  0  0  0  0  0  0  0  0
  -28.5892  -26.1929   20.2903 C   0  0  0  0  0  0  0  0  0  0  0  0
  -22.0640  -10.5504   21.1850 C   0  0  0  0  0  0  0  0  0  0  0  0
  -28.0678  -12.4680   21.3983 C   0  0  0  0  0  0  0  0  0  0  0  0
  -30.4010  -13.3035   20.7937 C   0  0  0  0  0  0  0  0  0  0  0  0
  -20.5461  -22.2349   21.9491 C   0  0  0  0  0  0  0  0  0  0  0  0
  -27.3167  -25.0697   22.0163 C   0  0  0  0  0  0  0  0  0  0  0  0
  -21.8612  -22.4078   21.4768 C   0  0  0  0  0  0  0  0  0  0  0  0
  -27.4855  -26.1644   21.1565 C   0  0  0  0  0  0  0  0  0  0  0  0
  -26.2287  -10.5248   22.1885 C   0  0  0  0  0  0  0  0  0  0  0  0
  -29.5187  -25.1531   20.2883 C   0  0  0  0  0  0  0  0  0  0  0  0
  -24.1288   -9.5130   21.8902 C   0  0  0  0  0  0  0  0  0  0  0  0
  -21.7074   -9.3824   20.5109 C   0  0  0  0  0  0  0  0  0  0  0  0
  -23.2747  -10.6156   21.8746 C   0  0  0  0  0  0  0  0  0  0  0  0
  -29.0171  -13.4718   20.9896 C   0  0  0  0  0  0  0  0  0  0  0  0
  -31.3229  -21.7759   16.9537 C   0  0  0  0  0  0  0  0  0  0  0  0
  -30.1932  -22.1069   16.1924 C   0  0  0  0  0  0  0  0  0  0  0  0
  -30.8474  -14.5452   20.4126 C   0  0  0  0  0  0  0  0  0  0  0  0
  -31.2105  -12.1295   20.9427 C   0  0  0  0  0  0  0  0  0  0  0  0
  -24.2055  -25.2626   21.3939 C   0  0  0  0  0  0  0  0  0  0  0  0
  -24.5866  -28.3167   22.4182 C   0  0  0  0  0  0  0  0  0  0  0  0
  -26.6797  -30.9661   22.9149 C   0  0  0  0  0  0  0  0  0  0  0  0
  -28.1256  -19.0574   17.7504 C   0  0  0  0  0  0  0  0  0  0  0  0
  -19.5046  -23.3169   21.8102 C   0  0  0  0  0  0  0  0  0  0  0  0
  -26.1566  -25.0242   22.9726 C   0  0  0  0  0  0  0  0  0  0  0  0
  -26.5085  -27.3103   21.1302 C   0  0  0  0  0  0  0  0  0  0  0  0
  -20.0943  -24.6988   21.5402 C   0  0  0  0  0  0  0  0  0  0  0  0
  -29.8582  -19.2000   20.9246 C   0  0  0  0  0  0  0  0  0  0  0  0
  -21.1590  -24.6213   20.4507 C   0  0  0  0  0  0  0  0  0  0  0  0
  -29.9676  -17.7157   21.2783 C   0  0  0  0  0  0  0  0  0  0  0  0
  -28.5273  -19.5098   20.2458 C   0  0  0  0  0  0  0  0  0  0  0  0
  -28.3582  -17.2074   19.3832 C   0  0  0  0  0  0  0  0  0  0  0  0
  -22.3227  -23.7195   20.8796 C   0  0  1  0  0  0  0  0  0  0  0  0
  -24.9781  -25.8826   22.5237 C   0  0  1  0  0  0  0  0  0  0  0  0
  -29.6912  -16.8256   20.0521 C   0  0  2  0  0  0  0  0  0  0  0  0
  -31.8800  -20.4533   17.2693 C   0  0  0  0  0  0  0  0  0  0  0  0
  -26.6942  -33.3392   23.7308 C   0  0  0  0  0  0  0  0  0  0  0  0
  -23.3074  -29.2220   19.8002 C   0  0  0  0  0  0  0  0  0  0  0  0
  -24.2000  -31.5195   20.2394 C   0  0  0  0  0  0  0  0  0  0  0  0
  -22.5638  -30.4959   21.8199 C   0  0  0  0  0  0  0  0  0  0  0  0
  -28.5712  -30.3259   25.0993 C   0  0  0  0  0  0  0  0  0  0  0  0
  -29.2473  -21.2244   15.4944 C   0  0  0  0  0  0  0  0  0  0  0  0
  -31.3478  -25.2932   17.1549 C   0  0  0  0  0  0  0  0  0  0  0  0
  -27.9118  -21.0109   16.2354 C   0  0  0  0  0  0  0  0  0  0  0  0
  -30.4043  -25.8743   18.2023 C   0  0  0  0  0  0  0  0  0  1  0  0
  -24.9381  -29.6291   21.7601 C   0  0  1  0  0  0  0  0  0  0  0  0
  -26.8830  -31.8788   24.1108 C   0  0  2  0  0  0  0  0  0  0  0  0
  -23.7699  -30.1943   20.9038 C   0  0  0  0  0  0  0  0  0  0  0  0
  -28.6112  -14.7221   20.7527 N   0  0  0  0  0  0  0  0  0  0  0  0
  -31.9032  -22.8891   17.4108 N   0  0  0  0  0  0  0  0  0  0  0  0
  -30.0427  -23.4339   16.1586 N   0  0  0  0  0  0  0  0  0  0  0  0
  -29.7468  -15.3506   20.4042 N   0  0  0  0  0  0  0  0  0  0  0  0
  -31.0903  -23.8280   16.9002 N   0  0  0  0  0  0  0  0  0  0  0  0
  -25.3872  -27.2166   22.0797 N   0  0  0  0  0  0  0  0  0  0  0  0
  -28.3340  -18.6414   19.0759 N   0  0  0  0  0  0  0  0  0  0  0  0
  -32.0702  -15.0159   20.0874 N   0  0  0  0  0  0  0  0  0  0  0  0
  -30.5913  -10.9370   21.3411 N   0  0  0  0  0  0  0  0  0  0  0  0
  -23.1905  -24.4188   21.8028 N   0  0  0  0  0  0  0  0  0  0  0  0
  -25.3787  -30.5174   22.8303 N   0  0  0  0  0  0  0  0  0  0  0  0
  -28.1096  -20.4316   17.5455 N   0  0  0  0  0  0  0  0  0  0  0  0
  -28.2569  -31.7108   24.6630 N   0  3  0  0  0  0  0  0  0  0  0  0
  -32.4492  -12.1417   20.7447 O   0  0  0  0  0  0  0  0  0  0  0  0
  -24.5070  -25.5310   20.2369 O   0  0  0  0  0  0  0  0  0  0  0  0
  -23.6412  -28.2710   23.2092 O   0  0  0  0  0  0  0  0  0  0  0  0
  -27.5837  -30.6828   22.1320 O   0  0  0  0  0  0  0  0  0  0  0  0
  -27.9706  -18.2626   16.8170 O   0  0  0  0  0  0  0  0  0  0  0  0
  -25.3315   -9.5765   22.5737 O   0  0  0  0  0  0  0  0  0  0  0  0
  -30.5851  -25.1948   19.4441 O   0  0  0  0  0  0  0  0  0  1  0  0
  -20.5456   -9.3200   19.8473 F   0  0  0  0  0  0  0  0  0  0  0  0
  -23.6123  -11.7408   22.5195 F   0  0  0  0  0  0  0  0  0  0  0  0
  1  2  1  0  0  0  0
  1  5  2  0  0  0  0
  2  6  2  0  0  0  0
  3  8  2  0  0  0  0
  3 15  1  0  0  0  0
  4  9  1  0  0  0  0
  4 15  2  0  0  0  0
  5 17  1  0  0  0  0
  6 19  1  0  0  0  0
  7 10  2  0  0  0  0
  7 18  1  0  0  0  0
  8 21  1  0  0  0  0
  9 21  2  0  0  0  0
 10 22  1  0  0  0  0
 11 12  2  0  0  0  0
 11 23  1  0  0  0  0
 12 24  1  0  0  0  0
 13 20  1  0  0  0  0
 13 22  2  0  0  0  0
 14 24  2  0  0  0  0
 14 25  1  0  0  0  0
 15 26  1  0  0  0  0
 16 26  1  0  0  0  0
 16 29  2  0  0  0  0
 16 30  1  0  0  0  0
 17 19  2  0  0  0  0
 17 35  1  0  0  0  0
 18 20  2  0  0  0  0
 18 36  1  0  0  0  0
 19 44  1  0  0  0  0
 20 37  1  0  0  0  0
 21 78  1  0  0  0  0
 22 79  1  0  0  0  0
 23 25  2  0  0  0  0
 23 78  1  0  0  0  0
 24 80  1  0  0  0  0
 25 81  1  0  0  0  0
 26 60  2  0  0  0  0
 27 28  1  0  0  0  0
 27 47  1  0  0  0  0
 27 61  2  0  0  0  0
 28 53  1  0  0  0  0
 28 62  2  0  0  0  0
 29 63  1  0  0  0  0
 29 67  1  0  0  0  0
 30 68  1  0  0  0  0
 30 73  2  0  0  0  0
 31 45  1  0  0  0  0
 31 69  1  0  0  0  0
 31 74  2  0  0  0  0
 32 57  1  0  0  0  0
 32 65  1  0  0  0  0
 32 75  2  0  0  0  0
 33 58  1  0  0  0  0
 33 70  1  0  0  0  0
 33 76  2  0  0  0  0
 34 66  1  0  0  0  0
 34 71  1  0  0  0  0
 34 77  2  0  0  0  0
 35 38  1  0  0  0  0
 36 45  1  0  0  0  0
 37 65  1  0  0  0  0
 38 40  1  0  0  0  0
 39 41  1  0  0  0  0
 39 42  1  0  0  0  0
 40 44  1  0  0  0  0
 41 46  1  0  0  0  0
 42 66  1  0  0  0  0
 43 46  1  0  0  0  0
 43 66  1  0  0  0  0
 44 69  1  0  0  0  0
 45 65  1  0  0  0  0
 46 63  1  0  0  0  0
 48 58  1  0  0  0  0
 49 59  1  0  0  0  0
 50 59  1  0  0  0  0
 51 59  1  0  0  0  0
 52 72  1  0  0  0  0
 53 55  1  0  0  0  0
 54 56  1  0  0  0  0
 54 64  1  0  0  0  0
 55 71  1  0  0  0  0
 56 79  1  0  0  0  0
 57 59  1  0  0  0  0
 57 70  1  0  0  0  0
 58 72  1  0  0  0  0
 60 63  1  0  0  0  0
 61 64  1  0  0  0  0
 62 64  1  0  0  0  0
M  CHG  1  72   1
M  ISO  4  34 100  56 101  71 100  79 101
M  END
> <Batch ID>
0042

> <Smiles>
CNC(C)C(=O)NC(C(=O)N1Cc2cc([101O:1][101CH2:1]Cn3nc(C)c(CC[100NH:0][100C:0](=O)N4CCCC(n5nc(-c6ccc(Oc7ccc(F)cc7F)cc6)c(C(N)=O)c5N)C4)n3)ccc2CC1C(=O)NC1CCCc2ccccc21)C(C)(C)C

> <Shape>
0.250

> <Color>
0.064

> <Negative vol penalty>
0.000

$$$$

  -OEChem-04052317123D

 84 92  0     1  0  0  0  0  0999 V2000
  -25.2661  -33.2201   26.0654 C   0  0  0  0  0  0  0  0  0  0  0  0
  -25.2552  -31.8645   26.3781 C   0  0  0  0  0  0  0  0  0  0  0  0
  -22.9387   -9.9086   19.9931 C   0  0  0  0  0  0  0  0  0  0  0  0
  -23.6739   -9.9234   22.2945 C   0  0  0  0  0  0  0  0  0  0  0  0
  -25.1037  -33.6306   24.7429 C   0  0  0  0  0  0  0  0  0  0  0  0
  -25.0807  -30.9187   25.3685 C   0  0  0  0  0  0  0  0  0  0  0  0
  -27.6191  -25.3539   25.0586 C   0  0  0  0  0  0  0  0  0  0  0  0
  -22.1463   -8.7906   20.2534 C   0  0  0  0  0  0  0  0  0  0  0  0
  -22.8815   -8.8053   22.5548 C   0  0  0  0  0  0  0  0  0  0  0  0
  -27.1399  -24.0851   25.3814 C   0  0  0  0  0  0  0  0  0  0  0  0
  -23.0441   -5.4655   22.0548 C   0  0  0  0  0  0  0  0  0  0  0  0
  -23.6102   -4.4284   22.7962 C   0  0  0  0  0  0  0  0  0  0  0  0
  -26.5289  -23.7355   23.0740 C   0  0  0  0  0  0  0  0  0  0  0  0
  -27.7042  -17.7093   22.6815 C   0  0  0  0  0  0  0  0  0  0  0  0
  -21.8991   -4.6987   24.4804 C   0  0  0  0  0  0  0  0  0  0  0  0
  -23.7025  -10.4750   21.0137 C   0  0  0  0  0  0  0  0  0  0  0  0
  -24.1471  -12.9820   20.8565 C   0  0  0  0  0  0  0  0  0  0  0  0
  -24.9367  -32.6889   23.7153 C   0  0  0  0  0  0  0  0  0  0  0  0
  -27.5467  -25.8282   23.7409 C   0  0  0  0  0  0  0  0  0  0  0  0
  -24.9145  -31.3170   24.0312 C   0  0  0  0  0  0  0  0  0  0  0  0
  -27.0102  -25.0097   22.7367 C   0  0  0  0  0  0  0  0  0  0  0  0
  -27.0653  -18.0948   23.8547 C   0  0  0  0  0  0  0  0  0  0  0  0
  -28.5410  -18.6052   22.0255 C   0  0  0  0  0  0  0  0  0  0  0  0
  -22.1177   -8.2389   21.5342 C   0  0  0  0  0  0  0  0  0  0  0  0
  -26.5921  -23.2768   24.3896 C   0  0  0  0  0  0  0  0  0  0  0  0
  -21.9057   -6.1192   22.5262 C   0  0  0  0  0  0  0  0  0  0  0  0
  -23.0377   -4.0450   24.0090 C   0  0  0  0  0  0  0  0  0  0  0  0
  -21.3332   -5.7358   23.7390 C   0  0  0  0  0  0  0  0  0  0  0  0
  -24.5217  -11.6296   20.7453 C   0  0  0  0  0  0  0  0  0  0  0  0
  -27.2947  -19.3770   24.3270 C   0  0  0  0  0  0  0  0  0  0  0  0
  -28.7042  -19.8647   22.5795 C   0  0  0  0  0  0  0  0  0  0  0  0
  -25.2724  -13.6809   20.4934 C   0  0  0  0  0  0  0  0  0  0  0  0
  -22.8941  -13.5553   21.2526 C   0  0  0  0  0  0  0  0  0  0  0  0
  -26.0923  -28.2662   22.3111 C   0  0  0  0  0  0  0  0  0  0  0  0
  -27.7704  -27.2468   19.7290 C   0  0  0  0  0  0  0  0  0  0  0  0
  -29.3756  -24.6864   18.1434 C   0  0  0  0  0  0  0  0  0  0  0  0
  -30.7905  -14.4820   20.7269 C   0  0  0  0  0  0  0  0  0  0  0  0
  -24.7175  -33.1823   22.3070 C   0  0  0  0  0  0  0  0  0  0  0  0
  -28.0924  -27.1888   23.4041 C   0  0  0  0  0  0  0  0  0  0  0  0
  -26.9279  -25.4641   21.3031 C   0  0  0  0  0  0  0  0  0  0  0  0
  -24.9131  -32.1024   21.2459 C   0  0  0  0  0  0  0  0  0  0  0  0
  -29.5830  -12.1056   18.3665 C   0  0  0  0  0  0  0  0  0  0  0  0
  -24.1904  -30.8209   21.6489 C   0  0  0  0  0  0  0  0  0  0  0  0
  -28.1304  -11.8771   18.7879 C   0  0  0  0  0  0  0  0  0  0  0  0
  -30.4955  -12.3095   19.5739 C   0  0  0  0  0  0  0  0  0  0  0  0
  -28.6102  -13.1393   20.9269 C   0  0  0  0  0  0  0  0  0  0  0  0
  -24.7525  -30.2597   22.9606 C   0  0  1  0  0  0  0  0  0  0  0  0
  -27.4986  -27.7708   22.1251 C   0  0  1  0  0  0  0  0  0  0  0  0
  -27.6423  -12.9843   19.7414 C   0  0  2  0  0  0  0  0  0  0  0  0
  -26.1676  -17.1395   24.5623 C   0  0  0  0  0  0  0  0  0  0  0  0
  -29.5924  -20.8672   21.9182 C   0  0  0  0  0  0  0  0  0  0  0  0
  -30.6157  -24.1474   16.0294 C   0  0  0  0  0  0  0  0  0  0  0  0
  -25.1279  -27.1499   18.2065 C   0  0  0  0  0  0  0  0  0  0  0  0
  -26.2578  -25.7387   16.4744 C   0  0  0  0  0  0  0  0  0  0  0  0
  -27.0528  -28.0649   16.8981 C   0  0  0  0  0  0  0  0  0  0  0  0
  -31.8446  -24.0078   19.6275 C   0  0  0  0  0  0  0  0  0  0  0  0
  -29.2282  -18.1986   20.7679 C   0  0  0  0  0  0  0  0  0  0  0  0
  -26.6279  -19.8519   25.5951 C   0  0  0  0  0  0  0  0  0  0  0  0
  -30.7063  -17.7968   20.9476 C   0  0  0  0  0  0  0  0  0  0  0  0
  -30.9299  -16.6486   21.9293 C   0  0  0  0  0  0  0  0  0  0  0  0
  -26.7540  -21.3593   25.7871 C   0  0  0  0  0  0  0  0  0  1  0  0
  -27.5193  -26.2644   18.6106 C   0  0  1  0  0  0  0  0  0  0  0  0
  -30.7354  -24.6117   17.4726 C   0  0  2  0  0  0  0  0  0  0  0  0
  -26.4891  -26.7964   17.5747 C   0  0  0  0  0  0  0  0  0  0  0  0
  -25.7860  -11.4761   20.3429 N   0  0  0  0  0  0  0  0  0  0  0  0
  -28.1006  -20.2751   23.7174 N   0  0  0  0  0  0  0  0  0  0  0  0
  -26.2157  -12.7412   20.1980 N   0  0  0  0  0  0  0  0  0  0  0  0
  -27.4690  -26.8048   21.0250 N   0  0  0  0  0  0  0  0  0  0  0  0
  -29.9775  -13.3739   20.4368 N   0  0  0  0  0  0  0  0  0  0  0  0
  -25.5371  -15.0015   20.4011 N   0  0  0  0  0  0  0  0  0  0  0  0
  -21.8429  -12.6933   21.5932 N   0  0  0  0  0  0  0  0  0  0  0  0
  -26.0093  -29.5826   22.7232 N   0  0  0  0  0  0  0  0  0  0  0  0
  -28.8261  -25.9472   18.0450 N   0  0  0  0  0  0  0  0  0  0  0  0
  -30.2204  -15.4481   21.5469 N   0  0  0  0  0  0  0  0  0  0  0  0
  -31.6206  -23.6593   18.2009 N   0  3  0  0  0  0  0  0  0  0  0  0
  -22.7071  -14.7952   21.2873 O   0  0  0  0  0  0  0  0  0  0  0  0
  -25.1520  -27.5105   22.0953 O   0  0  0  0  0  0  0  0  0  0  0  0
  -28.2241  -28.3627   19.4633 O   0  0  0  0  0  0  0  0  0  0  0  0
  -28.8516  -23.7217   18.6960 O   0  0  0  0  0  0  0  0  0  0  0  0
  -31.9373  -14.6042   20.2833 O   0  0  0  0  0  0  0  0  0  0  0  0
  -21.3444   -7.1481   21.7886 O   0  0  0  0  0  0  0  0  0  0  0  0
  -26.1230  -22.0381   24.7020 O   0  0  0  0  0  0  0  0  0  1  0  0
  -23.5804   -3.0480   24.7201 F   0  0  0  0  0  0  0  0  0  0  0  0
  -20.2387   -6.3593   24.1965 F   0  0  0  0  0  0  0  0  0  0  0  0
  1  2  1  0  0  0  0
  1  5  2  0  0  0  0
  2  6  2  0  0  0  0
  3  8  2  0  0  0  0
  3 16  1  0  0  0  0
  4  9  1  0  0  0  0
  4 16  2  0  0  0  0
  5 18  1  0  0  0  0
  6 20  1  0  0  0  0
  7 10  2  0  0  0  0
  7 19  1  0  0  0  0
  8 24  1  0  0  0  0
  9 24  2  0  0  0  0
 10 25  1  0  0  0  0
 11 12  2  0  0  0  0
 11 26  1  0  0  0  0
 12 27  1  0  0  0  0
 13 21  1  0  0  0  0
 13 25  2  0  0  0  0
 14 22  1  0  0  0  0
 14 23  2  0  0  0  0
 15 27  2  0  0  0  0
 15 28  1  0  0  0  0
 16 29  1  0  0  0  0
 17 29  1  0  0  0  0
 17 32  2  0  0  0  0
 17 33  1  0  0  0  0
 18 20  2  0  0  0  0
 18 38  1  0  0  0  0
 19 21  2  0  0  0  0
 19 39  1  0  0  0  0
 20 47  1  0  0  0  0
 21 40  1  0  0  0  0
 22 30  2  0  0  0  0
 22 50  1  0  0  0  0
 23 31  1  0  0  0  0
 23 57  1  0  0  0  0
 24 81  1  0  0  0  0
 25 82  1  0  0  0  0
 26 28  2  0  0  0  0
 26 81  1  0  0  0  0
 27 83  1  0  0  0  0
 28 84  1  0  0  0  0
 29 65  2  0  0  0  0
 30 58  1  0  0  0  0
 30 66  1  0  0  0  0
 31 51  1  0  0  0  0
 31 66  2  0  0  0  0
 32 67  1  0  0  0  0
 32 70  1  0  0  0  0
 33 71  1  0  0  0  0
 33 76  2  0  0  0  0
 34 48  1  0  0  0  0
 34 72  1  0  0  0  0
 34 77  2  0  0  0  0
 35 62  1  0  0  0  0
 35 68  1  0  0  0  0
 35 78  2  0  0  0  0
 36 63  1  0  0  0  0
 36 73  1  0  0  0  0
 36 79  2  0  0  0  0
 37 69  1  0  0  0  0
 37 74  1  0  0  0  0
 37 80  2  0  0  0  0
 38 41  1  0  0  0  0
 39 48  1  0  0  0  0
 40 68  1  0  0  0  0
 41 43  1  0  0  0  0
 42 44  1  0  0  0  0
 42 45  1  0  0  0  0
 43 47  1  0  0  0  0
 44 49  1  0  0  0  0
 45 69  1  0  0  0  0
 46 49  1  0  0  0  0
 46 69  1  0  0  0  0
 47 72  1  0  0  0  0
 48 68  1  0  0  0  0
 49 67  1  0  0  0  0
 52 63  1  0  0  0  0
 53 64  1  0  0  0  0
 54 64  1  0  0  0  0
 55 64  1  0  0  0  0
 56 75  1  0  0  0  0
 57 59  1  0  0  0  0
 58 61  1  0  0  0  0
 59 60  1  0  0  0  0
 60 74  1  0  0  0  0
 61 82  1  0  0  0  0
 62 64  1  0  0  0  0
 62 73  1  0  0  0  0
 63 75  1  0  0  0  0
 65 67  1  0  0  0  0
M  CHG  1  75   1
M  ISO  4  37 100  61 101  74 100  82 101
M  END
> <Batch ID>
0042

> <Smiles>
CNC(C)C(=O)NC(C(=O)N1Cc2cc([101O:1][101CH2:1]Cc3nc(C)c(CCC[100NH:0][100C:0](=O)N4CCCC(n5nc(-c6ccc(Oc7ccc(F)cc7F)cc6)c(C(N)=O)c5N)C4)cc3C)ccc2CC1C(=O)NC1CCCc2ccccc21)C(C)(C)C

> <Shape>
0.325

> <Color>
0.215

> <Negative vol penalty>
0.000

$$$$

  -OEChem-04052317123D

 83 91  0     1  0  0  0  0  0999 V2000
  -26.1682  -38.2548   21.7486 C   0  0  0  0  0  0  0  0  0  0  0  0
  -26.8683  -37.1396   21.2995 C   0  0  0  0  0  0  0  0  0  0  0  0
  -25.5896  -12.4359   22.0636 C   0  0  0  0  0  0  0  0  0  0  0  0
  -25.5961  -13.3120   19.8121 C   0  0  0  0  0  0  0  0  0  0  0  0
  -25.2330  -38.1229   22.7743 C   0  0  0  0  0  0  0  0  0  0  0  0
  -26.6343  -35.8920   21.8766 C   0  0  0  0  0  0  0  0  0  0  0  0
  -26.7631  -30.4528   19.0650 C   0  0  0  0  0  0  0  0  0  0  0  0
  -25.1839  -11.1926   21.5787 C   0  0  0  0  0  0  0  0  0  0  0  0
  -25.1905  -12.0686   19.3271 C   0  0  0  0  0  0  0  0  0  0  0  0
  -27.7413  -29.4630   18.9817 C   0  0  0  0  0  0  0  0  0  0  0  0
  -22.3165   -9.7443   20.5276 C   0  0  0  0  0  0  0  0  0  0  0  0
  -21.2892   -9.0886   21.2062 C   0  0  0  0  0  0  0  0  0  0  0  0
  -26.6998  -28.2878   20.8129 C   0  0  0  0  0  0  0  0  0  0  0  0
  -22.7685   -7.2307   21.6501 C   0  0  0  0  0  0  0  0  0  0  0  0
  -27.8858  -24.2637   17.5253 C   0  0  0  0  0  0  0  0  0  0  0  0
  -25.7956  -13.4957   21.1803 C   0  0  0  0  0  0  0  0  0  0  0  0
  -27.5348  -15.2335   21.8606 C   0  0  0  0  0  0  0  0  0  0  0  0
  -24.9805  -36.8713   23.3576 C   0  0  0  0  0  0  0  0  0  0  0  0
  -25.7504  -30.3730   20.0317 C   0  0  0  0  0  0  0  0  0  0  0  0
  -25.6958  -35.7434   22.9119 C   0  0  0  0  0  0  0  0  0  0  0  0
  -25.7084  -29.2766   20.9048 C   0  0  0  0  0  0  0  0  0  0  0  0
  -24.9844  -11.0089   20.2105 C   0  0  0  0  0  0  0  0  0  0  0  0
  -27.7115  -28.3817   19.8575 C   0  0  0  0  0  0  0  0  0  0  0  0
  -23.5697   -9.1432   20.4102 C   0  0  0  0  0  0  0  0  0  0  0  0
  -21.5152   -7.8318   21.7675 C   0  0  0  0  0  0  0  0  0  0  0  0
  -23.7957   -7.8864   20.9715 C   0  0  0  0  0  0  0  0  0  0  0  0
  -26.2142  -14.7804   21.6807 C   0  0  0  0  0  0  0  0  0  0  0  0
  -28.6009  -24.7277   18.6074 C   0  0  0  0  0  0  0  0  0  0  0  0
  -27.3316  -23.4332   20.0013 C   0  0  0  0  0  0  0  0  0  0  0  0
  -26.6161  -22.9698   18.9193 C   0  0  0  0  0  0  0  0  0  0  0  0
  -27.3964  -16.5075   22.3550 C   0  0  0  0  0  0  0  0  0  0  0  0
  -28.7757  -14.5628   21.6038 C   0  0  0  0  0  0  0  0  0  0  0  0
  -24.8563  -32.1691   22.4972 C   0  0  0  0  0  0  0  0  0  0  0  0
  -22.3893  -30.0672   22.6332 C   0  0  0  0  0  0  0  0  0  0  0  0
  -21.1907  -26.9558   21.9057 C   0  0  0  0  0  0  0  0  0  0  0  0
  -23.0344  -20.5886   21.9448 C   0  0  0  0  0  0  0  0  0  0  0  0
  -23.9945  -36.7865   24.4957 C   0  0  0  0  0  0  0  0  0  0  0  0
  -24.6871  -31.4353   20.0912 C   0  0  0  0  0  0  0  0  0  0  0  0
  -24.6307  -29.1338   21.9472 C   0  0  0  0  0  0  0  0  0  0  0  0
  -23.5344  -35.3628   24.7982 C   0  0  0  0  0  0  0  0  0  0  0  0
  -24.4133  -19.2214   24.9291 C   0  0  0  0  0  0  0  0  0  0  0  0
  -24.7285  -34.4149   24.8471 C   0  0  0  0  0  0  0  0  0  0  0  0
  -25.1503  -17.9691   24.4512 C   0  0  0  0  0  0  0  0  0  0  0  0
  -23.1240  -19.4516   24.1438 C   0  0  0  0  0  0  0  0  0  0  0  0
  -24.0260  -18.2333   22.2007 C   0  0  0  0  0  0  0  0  0  0  0  0
  -25.4520  -34.3688   23.4959 C   0  0  1  0  0  0  0  0  0  0  0  0
  -23.9987  -31.5162   21.4503 C   0  0  1  0  0  0  0  0  0  0  0  0
  -25.3610  -17.9905   22.9253 C   0  0  2  0  0  0  0  0  0  0  0  0
  -27.0294  -22.9745   21.3869 C   0  0  0  0  0  0  0  0  0  0  0  0
  -19.1523  -25.5172   22.1759 C   0  0  0  0  0  0  0  0  0  0  0  0
  -23.0999  -29.6153   25.5659 C   0  0  0  0  0  0  0  0  0  0  0  0
  -21.7007  -27.5398   25.5130 C   0  0  0  0  0  0  0  0  0  0  0  0
  -20.6477  -29.7627   25.0974 C   0  0  0  0  0  0  0  0  0  0  0  0
  -20.8416  -26.6989   18.9781 C   0  0  0  0  0  0  0  0  0  0  0  0
  -29.7201  -25.7223   18.4162 C   0  0  0  0  0  0  0  0  0  0  0  0
  -25.5064  -21.9882   19.0839 C   0  0  0  0  0  0  0  0  0  0  0  0
  -24.1752  -22.6029   19.5605 C   0  0  0  0  0  0  0  0  0  0  0  0
  -23.0280  -21.6018   19.6793 C   0  0  0  0  0  0  0  0  0  0  0  0
  -29.2330  -27.1652   18.4934 C   0  0  0  0  0  0  0  0  0  1  0  0
  -22.1441  -28.7501   23.3290 C   0  0  1  0  0  0  0  0  0  0  0  0
  -19.8860  -26.5005   21.2772 C   0  0  2  0  0  0  0  0  0  0  0  0
  -21.9197  -28.9204   24.8581 C   0  0  0  0  0  0  0  0  0  0  0  0
  -26.8805  -23.3765   17.6618 N   0  0  0  0  0  0  0  0  0  0  0  0
  -25.3037  -15.6923   22.0323 N   0  0  0  0  0  0  0  0  0  0  0  0
  -28.3367  -24.3208   19.8648 N   0  0  0  0  0  0  0  0  0  0  0  0
  -26.0535  -16.7311   22.4382 N   0  0  0  0  0  0  0  0  0  0  0  0
  -23.6172  -30.2014   21.9698 N   0  0  0  0  0  0  0  0  0  0  0  0
  -23.3932  -19.4626   22.7039 N   0  0  0  0  0  0  0  0  0  0  0  0
  -28.2935  -17.4469   22.7224 N   0  0  0  0  0  0  0  0  0  0  0  0
  -28.7369  -13.2569   21.0964 N   0  0  0  0  0  0  0  0  0  0  0  0
  -24.7208  -33.5429   22.5590 N   0  0  0  0  0  0  0  0  0  0  0  0
  -21.0309  -28.1192   22.6282 N   0  0  0  0  0  0  0  0  0  0  0  0
  -23.3307  -20.5194   20.5890 N   0  0  0  0  0  0  0  0  0  0  0  0
  -20.1453  -25.8374   19.9680 N   0  3  0  0  0  0  0  0  0  0  0  0
  -29.8861  -15.0995   21.8334 O   0  0  0  0  0  0  0  0  0  0  0  0
  -25.5857  -31.4774   23.1981 O   0  0  0  0  0  0  0  0  0  0  0  0
  -21.5204  -30.9419   22.6707 O   0  0  0  0  0  0  0  0  0  0  0  0
  -22.2452  -26.3388   21.7723 O   0  0  0  0  0  0  0  0  0  0  0  0
  -22.4952  -21.5843   22.4397 O   0  0  0  0  0  0  0  0  0  0  0  0
  -24.5887   -9.7958   19.7369 O   0  0  0  0  0  0  0  0  0  0  0  0
  -28.6655  -27.4145   19.7787 O   0  0  0  0  0  0  0  0  0  1  0  0
  -20.5291   -7.2029   22.4204 F   0  0  0  0  0  0  0  0  0  0  0  0
  -24.9979   -7.3043   20.8630 F   0  0  0  0  0  0  0  0  0  0  0  0
  1  2  1  0  0  0  0
  1  5  2  0  0  0  0
  2  6  2  0  0  0  0
  3  8  2  0  0  0  0
  3 16  1  0  0  0  0
  4  9  1  0  0  0  0
  4 16  2  0  0  0  0
  5 18  1  0  0  0  0
  6 20  1  0  0  0  0
  7 10  2  0  0  0  0
  7 19  1  0  0  0  0
  8 22  1  0  0  0  0
  9 22  2  0  0  0  0
 10 23  1  0  0  0  0
 11 12  2  0  0  0  0
 11 24  1  0  0  0  0
 12 25  1  0  0  0  0
 13 21  1  0  0  0  0
 13 23  2  0  0  0  0
 14 25  2  0  0  0  0
 14 26  1  0  0  0  0
 15 28  1  0  0  0  0
 15 63  2  0  0  0  0
 16 27  1  0  0  0  0
 17 27  1  0  0  0  0
 17 31  2  0  0  0  0
 17 32  1  0  0  0  0
 18 20  2  0  0  0  0
 18 37  1  0  0  0  0
 19 21  2  0  0  0  0
 19 38  1  0  0  0  0
 20 46  1  0  0  0  0
 21 39  1  0  0  0  0
 22 80  1  0  0  0  0
 23 81  1  0  0  0  0
 24 26  2  0  0  0  0
 24 80  1  0  0  0  0
 25 82  1  0  0  0  0
 26 83  1  0  0  0  0
 27 64  2  0  0  0  0
 28 55  1  0  0  0  0
 28 65  2  0  0  0  0
 29 30  2  0  0  0  0
 29 49  1  0  0  0  0
 29 65  1  0  0  0  0
 30 56  1  0  0  0  0
 30 63  1  0  0  0  0
 31 66  1  0  0  0  0
 31 69  1  0  0  0  0
 32 70  1  0  0  0  0
 32 75  2  0  0  0  0
 33 47  1  0  0  0  0
 33 71  1  0  0  0  0
 33 76  2  0  0  0  0
 34 60  1  0  0  0  0
 34 67  1  0  0  0  0
 34 77  2  0  0  0  0
 35 61  1  0  0  0  0
 35 72  1  0  0  0  0
 35 78  2  0  0  0  0
 36 68  1  0  0  0  0
 36 73  1  0  0  0  0
 36 79  2  0  0  0  0
 37 40  1  0  0  0  0
 38 47  1  0  0  0  0
 39 67  1  0  0  0  0
 40 42  1  0  0  0  0
 41 43  1  0  0  0  0
 41 44  1  0  0  0  0
 42 46  1  0  0  0  0
 43 48  1  0  0  0  0
 44 68  1  0  0  0  0
 45 48  1  0  0  0  0
 45 68  1  0  0  0  0
 46 71  1  0  0  0  0
 47 67  1  0  0  0  0
 48 66  1  0  0  0  0
 50 61  1  0  0  0  0
 51 62  1  0  0  0  0
 52 62  1  0  0  0  0
 53 62  1  0  0  0  0
 54 74  1  0  0  0  0
 55 59  1  0  0  0  0
 56 57  1  0  0  0  0
 57 58  1  0  0  0  0
 58 73  1  0  0  0  0
 59 81  1  0  0  0  0
 60 62  1  0  0  0  0
 60 72  1  0  0  0  0
 61 74  1  0  0  0  0
 64 66  1  0  0  0  0
M  CHG  1  74   1
M  ISO  4  36 100  59 101  73 100  81 101
M  END
> <Batch ID>
0042

> <Smiles>
CNC(C)C(=O)NC(C(=O)N1Cc2cc([101O:1][101CH2:1]Cc3cnc(CCC[100NH:0][100C:0](=O)N4CCCC(n5nc(-c6ccc(Oc7ccc(F)cc7F)cc6)c(C(N)=O)c5N)C4)c(C)n3)ccc2CC1C(=O)NC1CCCc2ccccc21)C(C)(C)C

> <Shape>
0.259

> <Color>
0.061

> <Negative vol penalty>
0.000

$$$$

  -OEChem-04052317123D

 89 97  0     1  0  0  0  0  0999 V2000
  -30.4657  -25.1433   16.5448 C   0  0  0  0  0  0  0  0  0  0  0  0
  -29.5156  -24.4450   17.2830 C   0  0  0  0  0  0  0  0  0  0  0  0
  -28.7970  -17.7680   18.9588 C   0  0  0  0  0  0  0  0  0  0  0  0
  -29.0847  -17.9366   21.3517 C   0  0  0  0  0  0  0  0  0  0  0  0
  -30.7730  -26.4623   16.8763 C   0  0  0  0  0  0  0  0  0  0  0  0
  -28.8730  -25.0649   18.3541 C   0  0  0  0  0  0  0  0  0  0  0  0
  -23.8808  -24.2150   18.3797 C   0  0  0  0  0  0  0  0  0  0  0  0
  -28.9231  -19.1525   18.8460 C   0  0  0  0  0  0  0  0  0  0  0  0
  -29.2109  -19.3212   21.2389 C   0  0  0  0  0  0  0  0  0  0  0  0
  -23.4484  -22.9748   18.8475 C   0  0  0  0  0  0  0  0  0  0  0  0
  -27.1667  -21.9853   20.8455 C   0  0  0  0  0  0  0  0  0  0  0  0
  -26.4645  -22.7762   21.7548 C   0  0  0  0  0  0  0  0  0  0  0  0
  -22.9160  -23.9710   20.9790 C   0  0  0  0  0  0  0  0  0  0  0  0
  -28.5443  -23.7277   22.5334 C   0  0  0  0  0  0  0  0  0  0  0  0
  -28.8777  -17.1600   20.2116 C   0  0  0  0  0  0  0  0  0  0  0  0
  -29.7791  -14.7744   20.2723 C   0  0  0  0  0  0  0  0  0  0  0  0
  -30.1267  -27.1018   17.9459 C   0  0  0  0  0  0  0  0  0  0  0  0
  -23.8441  -25.3422   19.2131 C   0  0  0  0  0  0  0  0  0  0  0  0
  -29.1728  -26.3932   18.7011 C   0  0  0  0  0  0  0  0  0  0  0  0
  -23.3461  -25.2249   20.5186 C   0  0  0  0  0  0  0  0  0  0  0  0
  -29.1301  -19.9291   19.9861 C   0  0  0  0  0  0  0  0  0  0  0  0
  -22.9687  -22.8521   20.1482 C   0  0  0  0  0  0  0  0  0  0  0  0
  -28.5578  -22.0655   20.7802 C   0  0  0  0  0  0  0  0  0  0  0  0
  -27.1532  -23.6475   22.5987 C   0  0  0  0  0  0  0  0  0  0  0  0
  -29.2465  -22.9367   21.6241 C   0  0  0  0  0  0  0  0  0  0  0  0
  -28.7469  -15.7299   20.3288 C   0  0  0  0  0  0  0  0  0  0  0  0
  -23.0089  -17.8992   22.6539 C   0  0  0  0  0  0  0  0  0  0  0  0
  -21.8217  -17.9108   23.3474 C   0  0  0  0  0  0  0  0  0  0  0  0
  -29.1407  -13.5692   20.4348 C   0  0  0  0  0  0  0  0  0  0  0  0
  -21.6506  -18.9985   21.4385 C   0  0  0  0  0  0  0  0  0  0  0  0
  -31.1890  -14.9596   20.0892 C   0  0  0  0  0  0  0  0  0  0  0  0
  -26.0247  -27.3315   20.3928 C   0  0  0  0  0  0  0  0  0  0  0  0
  -23.4167  -28.9269   21.4768 C   0  0  0  0  0  0  0  0  0  0  0  0
  -20.1266  -28.8270   22.3779 C   0  0  0  0  0  0  0  0  0  0  0  0
  -23.9773  -12.0082   23.0337 C   0  0  0  0  0  0  0  0  0  0  0  0
  -30.5264  -28.5133   18.2962 C   0  0  0  0  0  0  0  0  0  0  0  0
  -24.2892  -26.6783   18.6847 C   0  0  0  0  0  0  0  0  0  0  0  0
  -23.2671  -26.4086   21.4465 C   0  0  0  0  0  0  0  0  0  0  0  0
  -29.5291  -29.2194   19.2111 C   0  0  0  0  0  0  0  0  0  0  0  0
  -24.9357  -11.4242   19.6548 C   0  0  0  0  0  0  0  0  0  0  0  0
  -29.1274  -28.3086   20.3669 C   0  0  0  0  0  0  0  0  0  0  0  0
  -26.1143  -12.3753   19.4393 C   0  0  0  0  0  0  0  0  0  0  0  0
  -23.8709  -12.0410   20.5590 C   0  0  0  0  0  0  0  0  0  0  0  0
  -25.5488  -13.4864   21.6402 C   0  0  0  0  0  0  0  0  0  0  0  0
  -28.4362  -27.0392   19.8544 C   0  0  1  0  0  0  0  0  0  0  0  0
  -24.6878  -27.6542   19.7875 C   0  0  1  0  0  0  0  0  0  0  0  0
  -26.6744  -12.8869   20.7801 C   0  0  2  0  0  0  0  0  0  0  0  0
  -24.2862  -17.2770   23.0369 C   0  0  0  0  0  0  0  0  0  0  0  0
  -18.2803  -30.2807   23.2586 C   0  0  0  0  0  0  0  0  0  0  0  0
  -24.6623  -28.8185   24.2601 C   0  0  0  0  0  0  0  0  0  0  0  0
  -22.4205  -29.4018   25.2100 C   0  0  0  0  0  0  0  0  0  0  0  0
  -23.5811  -30.9991   23.6854 C   0  0  0  0  0  0  0  0  0  0  0  0
  -20.3106  -13.2472   27.2820 C   0  0  0  0  0  0  0  0  0  0  0  0
  -19.4017  -13.4687   24.9744 C   0  0  0  0  0  0  0  0  0  0  0  0
  -19.5760  -18.9096   22.8485 C   0  0  0  0  0  0  0  0  0  0  0  0
  -18.4640  -28.3727   19.9720 C   0  0  0  0  0  0  0  0  0  0  0  0
  -21.4366  -17.3325   24.6474 C   0  0  0  0  0  0  0  0  0  0  0  0
  -21.0098  -19.8003   20.3318 C   0  0  0  0  0  0  0  0  0  0  0  0
  -23.1231  -12.9572   26.1044 C   0  0  0  0  0  0  0  0  0  0  0  0
  -21.8324  -12.9335   25.2722 C   0  0  0  0  0  0  0  0  0  0  0  0
  -24.2145  -12.0732   25.5033 C   0  0  0  0  0  0  0  0  0  0  0  0
  -20.9095  -15.2615   25.9404 C   0  0  0  0  0  0  0  0  0  0  0  0
  -21.9983  -20.7391   19.6487 C   0  0  0  0  0  0  0  0  0  1  0  0
  -22.5812  -28.8811   22.7333 C   0  0  1  0  0  0  0  0  0  0  0  0
  -18.9553  -29.7222   22.0156 C   0  0  2  0  0  0  0  0  0  0  0  0
  -23.3144  -29.5022   23.9556 C   0  0  0  0  0  0  0  0  0  0  0  0
  -20.6391  -13.7424   25.8578 C   0  0  0  0  0  0  0  0  0  0  0  0
  -27.5440  -15.1792   20.5128 N   0  0  0  0  0  0  0  0  0  0  0  0
  -22.8959  -18.5783   21.4666 N   0  0  0  0  0  0  0  0  0  0  0  0
  -20.9614  -18.6190   22.5566 N   0  0  0  0  0  0  0  0  0  0  0  0
  -27.8164  -13.8646   20.5731 N   0  0  0  0  0  0  0  0  0  0  0  0
  -23.7199  -27.6923   20.8856 N   0  0  0  0  0  0  0  0  0  0  0  0
  -24.4670  -12.5045   21.8143 N   0  0  0  0  0  0  0  0  0  0  0  0
  -29.5885  -12.2962   20.4714 N   0  0  0  0  0  0  0  0  0  0  0  0
  -31.6774  -16.2646   19.9378 N   0  0  0  0  0  0  0  0  0  0  0  0
  -27.0663  -27.3238   19.4847 N   0  0  0  0  0  0  0  0  0  0  0  0
  -21.3146  -29.5264   22.4051 N   0  0  0  0  0  0  0  0  0  0  0  0
  -24.6023  -12.4944   24.1755 N   0  0  0  0  0  0  0  0  0  0  0  0
  -17.9423  -28.9586   21.2336 N   0  3  0  0  0  0  0  0  0  0  0  0
  -21.2413  -15.8495   24.6197 N   0  3  0  0  0  0  0  0  0  0  0  0
  -31.9900  -13.9953   20.0444 O   0  0  0  0  0  0  0  0  0  0  0  0
  -26.1054  -27.1075   21.5948 O   0  0  0  0  0  0  0  0  0  0  0  0
  -23.7807  -30.0185   21.0322 O   0  0  0  0  0  0  0  0  0  0  0  0
  -19.9997  -27.6281   22.6168 O   0  0  0  0  0  0  0  0  0  0  0  0
  -23.0553  -11.1881   23.0998 O   0  0  0  0  0  0  0  0  0  0  0  0
  -29.2535  -21.2802   19.8764 O   0  0  0  0  0  0  0  0  0  0  0  0
  -22.5467  -21.6426   20.6075 O   0  0  0  0  0  0  0  0  0  1  0  0
  -26.4785  -24.4081   23.4708 F   0  0  0  0  0  0  0  0  0  0  0  0
  -30.5828  -23.0190   21.5652 F   0  0  0  0  0  0  0  0  0  0  0  0
  1  2  1  0  0  0  0
  1  5  2  0  0  0  0
  2  6  2  0  0  0  0
  3  8  2  0  0  0  0
  3 15  1  0  0  0  0
  4  9  1  0  0  0  0
  4 15  2  0  0  0  0
  5 17  1  0  0  0  0
  6 19  1  0  0  0  0
  7 10  2  0  0  0  0
  7 18  1  0  0  0  0
  8 21  1  0  0  0  0
  9 21  2  0  0  0  0
 10 22  1  0  0  0  0
 11 12  2  0  0  0  0
 11 23  1  0  0  0  0
 12 24  1  0  0  0  0
 13 20  1  0  0  0  0
 13 22  2  0  0  0  0
 14 24  2  0  0  0  0
 14 25  1  0  0  0  0
 15 26  1  0  0  0  0
 16 26  1  0  0  0  0
 16 29  2  0  0  0  0
 16 31  1  0  0  0  0
 17 19  2  0  0  0  0
 17 36  1  0  0  0  0
 18 20  2  0  0  0  0
 18 37  1  0  0  0  0
 19 45  1  0  0  0  0
 20 38  1  0  0  0  0
 21 86  1  0  0  0  0
 22 87  1  0  0  0  0
 23 25  2  0  0  0  0
 23 86  1  0  0  0  0
 24 88  1  0  0  0  0
 25 89  1  0  0  0  0
 26 68  2  0  0  0  0
 27 28  2  0  0  0  0
 27 48  1  0  0  0  0
 27 69  1  0  0  0  0
 28 57  1  0  0  0  0
 28 70  1  0  0  0  0
 29 71  1  0  0  0  0
 29 74  1  0  0  0  0
 30 58  1  0  0  0  0
 30 69  2  0  0  0  0
 30 70  1  0  0  0  0
 31 75  1  0  0  0  0
 31 81  2  0  0  0  0
 32 46  1  0  0  0  0
 32 76  1  0  0  0  0
 32 82  2  0  0  0  0
 33 64  1  0  0  0  0
 33 72  1  0  0  0  0
 33 83  2  0  0  0  0
 34 65  1  0  0  0  0
 34 77  1  0  0  0  0
 34 84  2  0  0  0  0
 35 73  1  0  0  0  0
 35 78  1  0  0  0  0
 35 85  2  0  0  0  0
 36 39  1  0  0  0  0
 37 46  1  0  0  0  0
 38 72  1  0  0  0  0
 39 41  1  0  0  0  0
 40 42  1  0  0  0  0
 40 43  1  0  0  0  0
 41 45  1  0  0  0  0
 42 47  1  0  0  0  0
 43 73  1  0  0  0  0
 44 47  1  0  0  0  0
 44 73  1  0  0  0  0
 45 76  1  0  0  0  0
 46 72  1  0  0  0  0
 47 71  1  0  0  0  0
 49 65  1  0  0  0  0
 50 66  1  0  0  0  0
 51 66  1  0  0  0  0
 52 66  1  0  0  0  0
 53 67  1  0  0  0  0
 54 67  1  0  0  0  0
 55 70  1  0  0  0  0
 56 79  1  0  0  0  0
 57 80  1  0  0  0  0
 58 63  1  0  0  0  0
 59 60  1  0  0  0  0
 59 61  1  0  0  0  0
 60 67  1  0  0  0  0
 61 78  1  0  0  0  0
 62 67  1  0  0  0  0
 62 80  1  0  0  0  0
 63 87  1  0  0  0  0
 64 66  1  0  0  0  0
 64 77  1  0  0  0  0
 65 79  1  0  0  0  0
 68 71  1  0  0  0  0
M  CHG  2  79   1  80   1
M  ISO  4  35 100  63 101  78 100  87 101
M  END
> <Batch ID>
0042

> <Smiles>
CNC(C)C(=O)NC(C(=O)N1Cc2cc([101O:1][101CH2:1]Cc3nc(C)c(CNCC(C)(C)CCC[100NH:0][100C:0](=O)N4CCCC(n5nc(-c6ccc(Oc7ccc(F)cc7F)cc6)c(C(N)=O)c5N)C4)n3C)ccc2CC1C(=O)NC1CCCc2ccccc21)C(C)(C)C

> <Shape>
0.241

> <Color>
0.054

> <Negative vol penalty>
0.000

$$$$

  -OEChem-04052317123D

 83 91  0     1  0  0  0  0  0999 V2000
  -18.1980  -17.2493    9.5734 C   0  0  0  0  0  0  0  0  0  0  0  0
  -18.9931  -16.6794   10.5626 C   0  0  0  0  0  0  0  0  0  0  0  0
  -27.4991  -23.5573   20.4864 C   0  0  0  0  0  0  0  0  0  0  0  0
  -29.0919  -23.6323   18.6713 C   0  0  0  0  0  0  0  0  0  0  0  0
  -18.2244  -18.6280    9.3676 C   0  0  0  0  0  0  0  0  0  0  0  0
  -19.8160  -17.4880   11.3459 C   0  0  0  0  0  0  0  0  0  0  0  0
  -21.2225  -16.6840   17.2519 C   0  0  0  0  0  0  0  0  0  0  0  0
  -27.5771  -24.9443   20.6121 C   0  0  0  0  0  0  0  0  0  0  0  0
  -29.1698  -25.0193   18.7970 C   0  0  0  0  0  0  0  0  0  0  0  0
  -22.3329  -16.1262   17.8842 C   0  0  0  0  0  0  0  0  0  0  0  0
  -26.3305  -27.6625   19.0340 C   0  0  0  0  0  0  0  0  0  0  0  0
  -25.1360  -28.3687   19.1754 C   0  0  0  0  0  0  0  0  0  0  0  0
  -23.2826  -18.3282   18.1456 C   0  0  0  0  0  0  0  0  0  0  0  0
  -25.8863  -29.2099   21.3124 C   0  0  0  0  0  0  0  0  0  0  0  0
  -28.2566  -22.9013   19.5160 C   0  0  0  0  0  0  0  0  0  0  0  0
  -27.2883  -20.7365   18.5758 C   0  0  0  0  0  0  0  0  0  0  0  0
  -19.0407  -19.4549   10.1553 C   0  0  0  0  0  0  0  0  0  0  0  0
  -21.1388  -18.0694   17.0516 C   0  0  0  0  0  0  0  0  0  0  0  0
  -19.8543  -18.8789   11.1496 C   0  0  0  0  0  0  0  0  0  0  0  0
  -22.1690  -18.9013   17.5128 C   0  0  0  0  0  0  0  0  0  0  0  0
  -25.8686  -13.0597   19.9211 C   0  0  0  0  0  0  0  0  0  0  0  0
  -28.4124  -25.6753   19.7674 C   0  0  0  0  0  0  0  0  0  0  0  0
  -23.3645  -16.9480   18.3285 C   0  0  0  0  0  0  0  0  0  0  0  0
  -27.3029  -27.7299   20.0318 C   0  0  0  0  0  0  0  0  0  0  0  0
  -24.9139  -29.1425   20.3146 C   0  0  0  0  0  0  0  0  0  0  0  0
  -27.0808  -28.5036   21.1710 C   0  0  0  0  0  0  0  0  0  0  0  0
  -28.1769  -21.4685   19.3860 C   0  0  0  0  0  0  0  0  0  0  0  0
  -25.2137  -12.3151   20.9435 C   0  0  0  0  0  0  0  0  0  0  0  0
  -26.5974  -12.2145   19.1129 C   0  0  0  0  0  0  0  0  0  0  0  0
  -27.6153  -19.4228   18.8075 C   0  0  0  0  0  0  0  0  0  0  0  0
  -26.2593  -21.2024   17.6927 C   0  0  0  0  0  0  0  0  0  0  0  0
  -20.9663  -19.9610   14.5030 C   0  0  0  0  0  0  0  0  0  0  0  0
  -20.5493  -22.2777   16.7349 C   0  0  0  0  0  0  0  0  0  0  0  0
  -21.0125  -23.3185   19.9519 C   0  0  0  0  0  0  0  0  0  0  0  0
  -31.4261  -15.3962   19.4475 C   0  0  0  0  0  0  0  0  0  0  0  0
  -19.0711  -20.9345    9.8642 C   0  0  0  0  0  0  0  0  0  0  0  0
  -19.9220  -18.6580   16.3918 C   0  0  0  0  0  0  0  0  0  0  0  0
  -22.1179  -20.3967   17.3403 C   0  0  0  0  0  0  0  0  0  0  0  0
  -19.6893  -21.7635   10.9870 C   0  0  0  0  0  0  0  0  0  0  0  0
  -30.6110  -17.3447   22.3138 C   0  0  0  0  0  0  0  0  0  0  0  0
  -20.9902  -21.1273   11.4663 C   0  0  0  0  0  0  0  0  0  0  0  0
  -29.8376  -18.5333   21.7402 C   0  0  0  0  0  0  0  0  0  0  0  0
  -31.7417  -16.9062   21.3857 C   0  0  0  0  0  0  0  0  0  0  0  0
  -30.5563  -17.8126   19.4244 C   0  0  0  0  0  0  0  0  0  0  0  0
  -20.7415  -19.7256   12.0362 C   0  0  1  0  0  0  0  0  0  0  0  0
  -20.1794  -20.0321   15.7810 C   0  0  1  0  0  0  0  0  0  0  0  0
  -29.3706  -18.2554   20.2987 C   0  0  2  0  0  0  0  0  0  0  0  0
  -24.3446  -12.8880   21.9946 C   0  0  0  0  0  0  0  0  0  0  0  0
  -20.5974  -25.2740   21.4687 C   0  0  0  0  0  0  0  0  0  0  0  0
  -22.8589  -23.7809   15.4250 C   0  0  0  0  0  0  0  0  0  0  0  0
  -23.0165  -25.1937   17.4859 C   0  0  0  0  0  0  0  0  0  0  0  0
  -20.9337  -25.2212   16.1134 C   0  0  0  0  0  0  0  0  0  0  0  0
  -19.3137  -21.7041   21.7594 C   0  0  0  0  0  0  0  0  0  0  0  0
  -25.7794  -14.5564   19.7469 C   0  0  0  0  0  0  0  0  0  0  0  0
  -27.4376  -12.4980   17.9336 C   0  0  0  0  0  0  0  0  0  0  0  0
  -28.8155  -13.0822   18.3082 C   0  0  0  0  0  0  0  0  0  0  0  0
  -29.6616  -13.4104   17.0744 C   0  0  0  0  0  0  0  0  0  0  0  0
  -31.0207  -14.0009   17.4356 C   0  0  0  0  0  0  0  0  0  0  0  0
  -24.4657  -14.9881   19.1043 C   0  0  0  0  0  0  0  0  0  1  0  0
  -21.4667  -23.1867   17.5166 C   0  0  1  0  0  0  0  0  0  0  0  0
  -20.0612  -23.9472   20.9540 C   0  0  2  0  0  0  0  0  0  0  0  0
  -22.0711  -24.3173   16.6369 C   0  0  0  0  0  0  0  0  0  0  0  0
  -29.0060  -20.6849   20.0806 N   0  0  0  0  0  0  0  0  0  0  0  0
  -25.4005  -10.9974   20.9520 N   0  0  0  0  0  0  0  0  0  0  0  0
  -28.6398  -19.4468   19.7075 N   0  0  0  0  0  0  0  0  0  0  0  0
  -20.9104  -20.9239   16.6835 N   0  0  0  0  0  0  0  0  0  0  0  0
  -31.2319  -16.6571   20.0352 N   0  0  0  0  0  0  0  0  0  0  0  0
  -27.1236  -18.2610   18.3271 N   0  0  0  0  0  0  0  0  0  0  0  0
  -26.0568  -22.5841   17.5730 N   0  0  0  0  0  0  0  0  0  0  0  0
  -20.1882  -19.8133   13.3706 N   0  0  0  0  0  0  0  0  0  0  0  0
  -20.6924  -23.6658   18.6565 N   0  0  0  0  0  0  0  0  0  0  0  0
  -30.9061  -15.2422   18.1682 N   0  0  0  0  0  0  0  0  0  0  0  0
  -19.8600  -23.0384   22.1178 N   0  3  0  0  0  0  0  0  0  0  0  0
  -25.5299  -20.4163   17.0420 O   0  0  0  0  0  0  0  0  0  0  0  0
  -22.1889  -20.0362   14.5413 O   0  0  0  0  0  0  0  0  0  0  0  0
  -19.5453  -22.7501   16.1959 O   0  0  0  0  0  0  0  0  0  0  0  0
  -21.9483  -22.5948   20.2852 O   0  0  0  0  0  0  0  0  0  0  0  0
  -32.0144  -14.4741   20.0226 O   0  0  0  0  0  0  0  0  0  0  0  0
  -28.4886  -27.0287   19.8896 O   0  0  0  0  0  0  0  0  0  0  0  0
  -24.4497  -16.4061   18.9454 O   0  0  0  0  0  0  0  0  0  1  0  0
  -23.7675  -29.8219   20.4495 F   0  0  0  0  0  0  0  0  0  0  0  0
  -28.0118  -28.5732   22.1324 F   0  0  0  0  0  0  0  0  0  0  0  0
  -26.4046  -10.6116   19.6851 S   0  0  0  0  0  0  0  0  0  0  0  0
  1  2  1  0  0  0  0
  1  5  2  0  0  0  0
  2  6  2  0  0  0  0
  3  8  2  0  0  0  0
  3 15  1  0  0  0  0
  4  9  1  0  0  0  0
  4 15  2  0  0  0  0
  5 17  1  0  0  0  0
  6 19  1  0  0  0  0
  7 10  2  0  0  0  0
  7 18  1  0  0  0  0
  8 22  1  0  0  0  0
  9 22  2  0  0  0  0
 10 23  1  0  0  0  0
 11 12  2  0  0  0  0
 11 24  1  0  0  0  0
 12 25  1  0  0  0  0
 13 20  1  0  0  0  0
 13 23  2  0  0  0  0
 14 25  2  0  0  0  0
 14 26  1  0  0  0  0
 15 27  1  0  0  0  0
 16 27  1  0  0  0  0
 16 30  2  0  0  0  0
 16 31  1  0  0  0  0
 17 19  2  0  0  0  0
 17 36  1  0  0  0  0
 18 20  2  0  0  0  0
 18 37  1  0  0  0  0
 19 45  1  0  0  0  0
 20 38  1  0  0  0  0
 21 28  1  0  0  0  0
 21 29  2  0  0  0  0
 21 54  1  0  0  0  0
 22 79  1  0  0  0  0
 23 80  1  0  0  0  0
 24 26  2  0  0  0  0
 24 79  1  0  0  0  0
 25 81  1  0  0  0  0
 26 82  1  0  0  0  0
 27 63  2  0  0  0  0
 28 48  1  0  0  0  0
 28 64  2  0  0  0  0
 29 55  1  0  0  0  0
 29 83  1  0  0  0  0
 30 65  1  0  0  0  0
 30 68  1  0  0  0  0
 31 69  1  0  0  0  0
 31 74  2  0  0  0  0
 32 46  1  0  0  0  0
 32 70  1  0  0  0  0
 32 75  2  0  0  0  0
 33 60  1  0  0  0  0
 33 66  1  0  0  0  0
 33 76  2  0  0  0  0
 34 61  1  0  0  0  0
 34 71  1  0  0  0  0
 34 77  2  0  0  0  0
 35 67  1  0  0  0  0
 35 72  1  0  0  0  0
 35 78  2  0  0  0  0
 36 39  1  0  0  0  0
 37 46  1  0  0  0  0
 38 66  1  0  0  0  0
 39 41  1  0  0  0  0
 40 42  1  0  0  0  0
 40 43  1  0  0  0  0
 41 45  1  0  0  0  0
 42 47  1  0  0  0  0
 43 67  1  0  0  0  0
 44 47  1  0  0  0  0
 44 67  1  0  0  0  0
 45 70  1  0  0  0  0
 46 66  1  0  0  0  0
 47 65  1  0  0  0  0
 49 61  1  0  0  0  0
 50 62  1  0  0  0  0
 51 62  1  0  0  0  0
 52 62  1  0  0  0  0
 53 73  1  0  0  0  0
 54 59  1  0  0  0  0
 55 56  1  0  0  0  0
 56 57  1  0  0  0  0
 57 58  1  0  0  0  0
 58 72  1  0  0  0  0
 59 80  1  0  0  0  0
 60 62  1  0  0  0  0
 60 71  1  0  0  0  0
 61 73  1  0  0  0  0
 63 65  1  0  0  0  0
 64 83  1  0  0  0  0
M  CHG  1  73   1
M  ISO  4  35 100  59 101  72 100  80 101
M  END
> <Batch ID>
0042

> <Smiles>
CNC(C)C(=O)NC(C(=O)N1Cc2cc([101O:1][101CH2:1]Cc3c(C)nsc3CCCC[100NH:0][100C:0](=O)N3CCCC(n4nc(-c5ccc(Oc6ccc(F)cc6F)cc5)c(C(N)=O)c4N)C3)ccc2CC1C(=O)NC1CCCc2ccccc21)C(C)(C)C

> <Shape>
0.181

> <Color>
0.084

> <Negative vol penalty>
0.000

$$$$

  -OEChem-04052317123D

 84 92  0     1  0  0  0  0  0999 V2000
  -17.2131  -31.7047   22.8393 C   0  0  0  0  0  0  0  0  0  0  0  0
  -18.4155  -32.0698   22.2423 C   0  0  0  0  0  0  0  0  0  0  0  0
  -27.4373  -18.2550   21.3579 C   0  0  0  0  0  0  0  0  0  0  0  0
  -28.8561  -17.9176   19.4317 C   0  0  0  0  0  0  0  0  0  0  0  0
  -17.1753  -30.6321   23.7293 C   0  0  0  0  0  0  0  0  0  0  0  0
  -19.5812  -31.3631   22.5359 C   0  0  0  0  0  0  0  0  0  0  0  0
  -25.7335  -29.2492   19.5364 C   0  0  0  0  0  0  0  0  0  0  0  0
  -26.9934  -16.9361   21.2619 C   0  0  0  0  0  0  0  0  0  0  0  0
  -28.4123  -16.5987   19.3358 C   0  0  0  0  0  0  0  0  0  0  0  0
  -27.1091  -29.2849   19.7605 C   0  0  0  0  0  0  0  0  0  0  0  0
  -29.0269  -13.6481   20.8644 C   0  0  0  0  0  0  0  0  0  0  0  0
  -29.9849  -12.6576   20.6482 C   0  0  0  0  0  0  0  0  0  0  0  0
  -26.9089  -27.3997   21.2522 C   0  0  0  0  0  0  0  0  0  0  0  0
  -32.5049  -27.8012   19.0123 C   0  0  0  0  0  0  0  0  0  0  0  0
  -28.8854  -12.0442   18.5862 C   0  0  0  0  0  0  0  0  0  0  0  0
  -32.9988  -25.5760   19.6914 C   0  0  0  0  0  0  0  0  0  0  0  0
  -31.8566  -26.9494   21.1361 C   0  0  0  0  0  0  0  0  0  0  0  0
  -28.3686  -18.7457   20.4427 C   0  0  0  0  0  0  0  0  0  0  0  0
  -29.4913  -20.7052   21.6291 C   0  0  0  0  0  0  0  0  0  0  0  0
  -18.3393  -29.9059   24.0265 C   0  0  0  0  0  0  0  0  0  0  0  0
  -24.9324  -28.2938   20.1781 C   0  0  0  0  0  0  0  0  0  0  0  0
  -19.5592  -30.2806   23.4318 C   0  0  0  0  0  0  0  0  0  0  0  0
  -25.5238  -27.3524   21.0326 C   0  0  0  0  0  0  0  0  0  0  0  0
  -33.0768  -26.5667   18.7258 C   0  0  0  0  0  0  0  0  0  0  0  0
  -31.8813  -28.0045   20.2383 C   0  0  0  0  0  0  0  0  0  0  0  0
  -27.4809  -16.1080   20.2509 C   0  0  0  0  0  0  0  0  0  0  0  0
  -27.6966  -28.3619   20.6207 C   0  0  0  0  0  0  0  0  0  0  0  0
  -27.9981  -13.8366   19.9415 C   0  0  0  0  0  0  0  0  0  0  0  0
  -29.9142  -11.8557   19.5091 C   0  0  0  0  0  0  0  0  0  0  0  0
  -27.9273  -13.0347   18.8024 C   0  0  0  0  0  0  0  0  0  0  0  0
  -28.8271  -20.1082   20.5409 C   0  0  0  0  0  0  0  0  0  0  0  0
  -29.7090  -22.0011   21.2294 C   0  0  0  0  0  0  0  0  0  0  0  0
  -29.8772  -20.1390   22.8886 C   0  0  0  0  0  0  0  0  0  0  0  0
  -22.5158  -28.4124   22.2397 C   0  0  0  0  0  0  0  0  0  0  0  0
  -22.4323  -25.2104   21.7273 C   0  0  0  0  0  0  0  0  0  0  0  0
  -24.0914  -22.3846   20.7739 C   0  0  0  0  0  0  0  0  0  0  0  0
  -29.9249  -24.2428   15.5315 C   0  0  0  0  0  0  0  0  0  0  0  0
  -18.2582  -28.7838   25.0310 C   0  0  0  0  0  0  0  0  0  0  0  0
  -23.4538  -28.2516   19.9051 C   0  0  0  0  0  0  0  0  0  0  0  0
  -24.7108  -26.2937   21.7302 C   0  0  0  0  0  0  0  0  0  0  0  0
  -19.4661  -27.8510   25.0012 C   0  0  0  0  0  0  0  0  0  0  0  0
  -27.9119  -25.4141   18.4086 C   0  0  0  0  0  0  0  0  0  0  0  0
  -20.7615  -28.6559   24.9682 C   0  0  0  0  0  0  0  0  0  0  0  0
  -27.9217  -24.2014   19.3377 C   0  0  0  0  0  0  0  0  0  0  0  0
  -28.0517  -25.0081   16.9446 C   0  0  0  0  0  0  0  0  0  0  0  0
  -29.2514  -22.9462   17.5950 C   0  0  0  0  0  0  0  0  0  0  0  0
  -20.8402  -29.5230   23.7059 C   0  0  1  0  0  0  0  0  0  0  0  0
  -22.6615  -27.5605   21.0105 C   0  0  1  0  0  0  0  0  0  0  0  0
  -29.1591  -23.3237   19.0811 C   0  0  2  0  0  0  0  0  0  0  0  0
  -31.9133  -21.9037   14.3704 C   0  0  0  0  0  0  0  0  0  0  0  0
  -23.7704  -19.9116   20.4938 C   0  0  0  0  0  0  0  0  0  0  0  0
  -22.6016  -24.8482   24.7522 C   0  0  0  0  0  0  0  0  0  0  0  0
  -23.2291  -22.4563   24.3607 C   0  0  0  0  0  0  0  0  0  0  0  0
  -21.0073  -23.3009   23.6040 C   0  0  0  0  0  0  0  0  0  0  0  0
  -24.6741  -22.5199   17.8755 C   0  0  0  0  0  0  0  0  0  0  0  0
  -33.7502  -26.3172   17.4231 C   0  0  0  0  0  0  0  0  0  0  0  0
  -31.2492  -29.3321   20.5791 C   0  0  0  0  0  0  0  0  0  0  0  0
  -32.8236  -25.7736   16.3153 C   0  0  0  0  0  0  0  0  0  0  0  0
  -31.9488  -23.4185   14.3896 C   0  0  0  0  0  0  0  0  0  0  0  0
  -32.1969  -24.4173   16.6315 C   0  0  0  0  0  0  0  0  0  0  0  0
  -29.7850  -29.4020   20.1592 C   0  0  0  0  0  0  0  0  0  1  0  0
  -23.0915  -24.0088   22.3603 C   0  0  1  0  0  0  0  0  0  0  0  0
  -23.7145  -21.2707   19.8139 C   0  0  2  0  0  0  0  0  0  0  0  0
  -22.4977  -23.6746   23.7578 C   0  0  0  0  0  0  0  0  0  0  0  0
  -32.4013  -25.7361   20.8934 N   0  0  0  0  0  0  0  0  0  0  0  0
  -28.6352  -20.9553   19.5262 N   0  0  0  0  0  0  0  0  0  0  0  0
  -29.1821  -22.0978   19.9751 N   0  0  0  0  0  0  0  0  0  0  0  0
  -23.2683  -26.2975   21.4358 N   0  0  0  0  0  0  0  0  0  0  0  0
  -29.2106  -24.1395   16.7365 N   0  0  0  0  0  0  0  0  0  0  0  0
  -30.2977  -23.0560   21.8321 N   0  0  0  0  0  0  0  0  0  0  0  0
  -31.1420  -19.5447   22.9945 N   0  0  0  0  0  0  0  0  0  0  0  0
  -21.2069  -28.7170   22.5612 N   0  0  0  0  0  0  0  0  0  0  0  0
  -22.9824  -22.9249   21.3899 N   0  0  0  0  0  0  0  0  0  0  0  0
  -31.2979  -23.9573   15.5753 N   0  0  0  0  0  0  0  0  0  0  0  0
  -24.6455  -21.2527   18.6503 N   0  3  0  0  0  0  0  0  0  0  0  0
  -29.1162  -20.1449   23.8858 O   0  0  0  0  0  0  0  0  0  0  0  0
  -23.5168  -28.7659   22.8519 O   0  0  0  0  0  0  0  0  0  0  0  0
  -21.2214  -25.1825   21.4934 O   0  0  0  0  0  0  0  0  0  0  0  0
  -25.2537  -22.7374   20.9616 O   0  0  0  0  0  0  0  0  0  0  0  0
  -29.3690  -24.5809   14.4786 O   0  0  0  0  0  0  0  0  0  0  0  0
  -27.0482  -14.8209   20.1572 O   0  0  0  0  0  0  0  0  0  0  0  0
  -29.0390  -28.3950   20.8417 O   0  0  0  0  0  0  0  0  0  1  0  0
  -30.8351  -10.9056   19.3008 F   0  0  0  0  0  0  0  0  0  0  0  0
  -26.9420  -13.2119   17.9116 F   0  0  0  0  0  0  0  0  0  0  0  0
  1  2  1  0  0  0  0
  1  5  2  0  0  0  0
  2  6  2  0  0  0  0
  3  8  2  0  0  0  0
  3 18  1  0  0  0  0
  4  9  1  0  0  0  0
  4 18  2  0  0  0  0
  5 20  1  0  0  0  0
  6 22  1  0  0  0  0
  7 10  2  0  0  0  0
  7 21  1  0  0  0  0
  8 26  1  0  0  0  0
  9 26  2  0  0  0  0
 10 27  1  0  0  0  0
 11 12  2  0  0  0  0
 11 28  1  0  0  0  0
 12 29  1  0  0  0  0
 13 23  1  0  0  0  0
 13 27  2  0  0  0  0
 14 24  2  0  0  0  0
 14 25  1  0  0  0  0
 15 29  2  0  0  0  0
 15 30  1  0  0  0  0
 16 24  1  0  0  0  0
 16 65  2  0  0  0  0
 17 25  2  0  0  0  0
 17 65  1  0  0  0  0
 18 31  1  0  0  0  0
 19 31  1  0  0  0  0
 19 32  2  0  0  0  0
 19 33  1  0  0  0  0
 20 22  2  0  0  0  0
 20 38  1  0  0  0  0
 21 23  2  0  0  0  0
 21 39  1  0  0  0  0
 22 47  1  0  0  0  0
 23 40  1  0  0  0  0
 24 56  1  0  0  0  0
 25 57  1  0  0  0  0
 26 81  1  0  0  0  0
 27 82  1  0  0  0  0
 28 30  2  0  0  0  0
 28 81  1  0  0  0  0
 29 83  1  0  0  0  0
 30 84  1  0  0  0  0
 31 66  2  0  0  0  0
 32 67  1  0  0  0  0
 32 70  1  0  0  0  0
 33 71  1  0  0  0  0
 33 76  2  0  0  0  0
 34 48  1  0  0  0  0
 34 72  1  0  0  0  0
 34 77  2  0  0  0  0
 35 62  1  0  0  0  0
 35 68  1  0  0  0  0
 35 78  2  0  0  0  0
 36 63  1  0  0  0  0
 36 73  1  0  0  0  0
 36 79  2  0  0  0  0
 37 69  1  0  0  0  0
 37 74  1  0  0  0  0
 37 80  2  0  0  0  0
 38 41  1  0  0  0  0
 39 48  1  0  0  0  0
 40 68  1  0  0  0  0
 41 43  1  0  0  0  0
 42 44  1  0  0  0  0
 42 45  1  0  0  0  0
 43 47  1  0  0  0  0
 44 49  1  0  0  0  0
 45 69  1  0  0  0  0
 46 49  1  0  0  0  0
 46 69  1  0  0  0  0
 47 72  1  0  0  0  0
 48 68  1  0  0  0  0
 49 67  1  0  0  0  0
 50 59  1  0  0  0  0
 51 63  1  0  0  0  0
 52 64  1  0  0  0  0
 53 64  1  0  0  0  0
 54 64  1  0  0  0  0
 55 75  1  0  0  0  0
 56 58  1  0  0  0  0
 57 61  1  0  0  0  0
 58 60  1  0  0  0  0
 59 74  1  0  0  0  0
 60 74  1  0  0  0  0
 61 82  1  0  0  0  0
 62 64  1  0  0  0  0
 62 73  1  0  0  0  0
 63 75  1  0  0  0  0
 66 67  1  0  0  0  0
M  CHG  1  75   1
M  ISO  4  37 100  61 101  74 100  82 101
M  END
> <Batch ID>
0042

> <Smiles>
CC[100N:0](CCCc1cncc(C[101CH2:1][101O:1]c2ccc3c(c2)CN(C(=O)C(NC(=O)C(C)NC)C(C)(C)C)C(C(=O)NC2CCCc4ccccc42)C3)c1)[100C:0](=O)N1CCCC(n2nc(-c3ccc(Oc4ccc(F)cc4F)cc3)c(C(N)=O)c2N)C1

> <Shape>
0.226

> <Color>
0.076

> <Negative vol penalty>
0.000

$$$$

  -OEChem-04052317123D

 84 92  0     1  0  0  0  0  0999 V2000
  -18.9377  -28.4295   25.5841 C   0  0  0  0  0  0  0  0  0  0  0  0
  -20.2584  -28.0517   25.8040 C   0  0  0  0  0  0  0  0  0  0  0  0
  -23.3033  -10.4253   22.3306 C   0  0  0  0  0  0  0  0  0  0  0  0
  -22.4155  -10.4544   20.0838 C   0  0  0  0  0  0  0  0  0  0  0  0
  -18.3608  -28.2446   24.3283 C   0  0  0  0  0  0  0  0  0  0  0  0
  -21.0027  -27.4877   24.7685 C   0  0  0  0  0  0  0  0  0  0  0  0
  -27.6995  -27.1526   22.2470 C   0  0  0  0  0  0  0  0  0  0  0  0
  -22.8664   -9.1098   22.4862 C   0  0  0  0  0  0  0  0  0  0  0  0
  -21.9786   -9.1389   20.2394 C   0  0  0  0  0  0  0  0  0  0  0  0
  -28.6581  -26.2183   21.8572 C   0  0  0  0  0  0  0  0  0  0  0  0
  -19.9596   -7.5112   23.1338 C   0  0  0  0  0  0  0  0  0  0  0  0
  -19.3119   -7.1806   24.3241 C   0  0  0  0  0  0  0  0  0  0  0  0
  -27.5817  -26.0197   19.7075 C   0  0  0  0  0  0  0  0  0  0  0  0
  -27.1775  -20.5968   20.4935 C   0  0  0  0  0  0  0  0  0  0  0  0
  -27.8724  -21.1381   18.2438 C   0  0  0  0  0  0  0  0  0  0  0  0
  -21.0162   -5.5340   24.7942 C   0  0  0  0  0  0  0  0  0  0  0  0
  -23.0778  -11.0976   21.1294 C   0  0  0  0  0  0  0  0  0  0  0  0
  -24.7770  -12.8862   20.4803 C   0  0  0  0  0  0  0  0  0  0  0  0
  -19.1015  -27.6870   23.2742 C   0  0  0  0  0  0  0  0  0  0  0  0
  -26.6667  -27.5199   21.3724 C   0  0  0  0  0  0  0  0  0  0  0  0
  -20.4349  -27.2940   23.4978 C   0  0  0  0  0  0  0  0  0  0  0  0
  -26.6127  -26.9608   20.0876 C   0  0  0  0  0  0  0  0  0  0  0  0
  -26.9617  -20.5424   19.1165 C   0  0  0  0  0  0  0  0  0  0  0  0
  -28.3039  -21.2469   20.9979 C   0  0  0  0  0  0  0  0  0  0  0  0
  -28.9988  -21.7882   18.7482 C   0  0  0  0  0  0  0  0  0  0  0  0
  -29.2145  -21.8425   20.1252 C   0  0  0  0  0  0  0  0  0  0  0  0
  -22.2041   -8.4666   21.4406 C   0  0  0  0  0  0  0  0  0  0  0  0
  -28.5977  -25.6495   20.5883 C   0  0  0  0  0  0  0  0  0  0  0  0
  -21.1356   -6.8530   22.7736 C   0  0  0  0  0  0  0  0  0  0  0  0
  -19.8402   -6.1921   25.1543 C   0  0  0  0  0  0  0  0  0  0  0  0
  -21.6639   -5.8645   23.6039 C   0  0  0  0  0  0  0  0  0  0  0  0
  -23.5283  -12.4567   20.9683 C   0  0  0  0  0  0  0  0  0  0  0  0
  -24.7096  -14.2573   20.5238 C   0  0  0  0  0  0  0  0  0  0  0  0
  -25.8976  -12.1146   20.0280 C   0  0  0  0  0  0  0  0  0  0  0  0
  -23.4960  -27.3023   21.4285 C   0  0  0  0  0  0  0  0  0  0  0  0
  -23.7178  -29.0377   18.6969 C   0  0  0  0  0  0  0  0  0  0  0  0
  -25.5956  -29.9802   16.0076 C   0  0  0  0  0  0  0  0  0  0  0  0
  -21.9520  -19.0253   19.6253 C   0  0  0  0  0  0  0  0  0  0  0  0
  -18.4203  -27.4631   21.9473 C   0  0  0  0  0  0  0  0  0  0  0  0
  -25.6558  -28.5491   21.7983 C   0  0  0  0  0  0  0  0  0  0  0  0
  -25.5360  -27.3365   19.1038 C   0  0  0  0  0  0  0  0  0  0  0  0
  -19.3928  -27.2040   20.7995 C   0  0  0  0  0  0  0  0  0  0  0  0
  -21.3122  -17.3195   22.6843 C   0  0  0  0  0  0  0  0  0  0  0  0
  -20.4487  -26.1843   21.2143 C   0  0  0  0  0  0  0  0  0  0  0  0
  -21.9290  -15.9365   22.4678 C   0  0  0  0  0  0  0  0  0  0  0  0
  -20.6800  -17.8621   21.4045 C   0  0  0  0  0  0  0  0  0  0  0  0
  -22.1910  -16.4980   20.0153 C   0  0  0  0  0  0  0  0  0  0  0  0
  -21.2824  -26.7017   22.3928 C   0  0  1  0  0  0  0  0  0  0  0  0
  -24.3509  -28.4658   21.0124 C   0  0  1  0  0  0  0  0  0  0  0  0
  -22.8901  -15.9334   21.2639 C   0  0  2  0  0  0  0  0  0  0  0  0
  -28.5123  -21.2899   22.4765 C   0  0  0  0  0  0  0  0  0  0  0  0
  -29.9589  -22.4180   17.7925 C   0  0  0  0  0  0  0  0  0  0  0  0
  -25.4929  -31.3776   13.9258 C   0  0  0  0  0  0  0  0  0  0  0  0
  -22.0168  -26.8951   17.3456 C   0  0  0  0  0  0  0  0  0  0  0  0
  -22.7366  -27.8183   15.1325 C   0  0  0  0  0  0  0  0  0  0  0  0
  -21.4338  -29.2432   16.7121 C   0  0  0  0  0  0  0  0  0  0  0  0
  -27.8167  -31.7104   16.9200 C   0  0  0  0  0  0  0  0  0  0  0  0
  -25.7572  -19.8480   18.5773 C   0  0  0  0  0  0  0  0  0  0  0  0
  -30.4335  -22.5455   20.6712 C   0  0  0  0  0  0  0  0  0  0  0  0
  -24.5195  -20.7521   18.4129 C   0  0  0  0  0  0  0  0  0  0  0  0
  -23.3033  -20.0496   17.8131 C   0  0  0  0  0  0  0  0  0  0  0  0
  -30.1052  -23.9257   21.2301 C   0  0  0  0  0  0  0  0  0  1  0  0
  -23.8503  -28.7092   17.2294 C   0  0  1  0  0  0  0  0  0  0  0  0
  -25.8700  -31.3434   15.3986 C   0  0  2  0  0  0  0  0  0  0  0  0
  -22.5287  -28.1577   16.6239 C   0  0  0  0  0  0  0  0  0  0  0  0
  -22.7264  -13.4728   21.2979 N   0  0  0  0  0  0  0  0  0  0  0  0
  -23.4729  -14.5542   21.0165 N   0  0  0  0  0  0  0  0  0  0  0  0
  -24.5670  -28.3424   19.5694 N   0  0  0  0  0  0  0  0  0  0  0  0
  -21.6441  -17.8335   20.3019 N   0  0  0  0  0  0  0  0  0  0  0  0
  -25.5881  -15.2259   20.1885 N   0  0  0  0  0  0  0  0  0  0  0  0
  -25.7988  -10.7167   20.0497 N   0  0  0  0  0  0  0  0  0  0  0  0
  -22.2622  -27.6634   21.9350 N   0  0  0  0  0  0  0  0  0  0  0  0
  -24.3440  -29.9203   16.5830 N   0  0  0  0  0  0  0  0  0  0  0  0
  -22.8799  -18.9109   18.5974 N   0  0  0  0  0  0  0  0  0  0  0  0
  -27.3155  -31.6843   15.5217 N   0  3  0  0  0  0  0  0  0  0  0  0
  -26.9614  -12.6488   19.6321 O   0  0  0  0  0  0  0  0  0  0  0  0
  -23.9236  -26.1613   21.2981 O   0  0  0  0  0  0  0  0  0  0  0  0
  -22.8963  -29.8853   19.0551 O   0  0  0  0  0  0  0  0  0  0  0  0
  -26.4088  -29.0592   15.9728 O   0  0  0  0  0  0  0  0  0  0  0  0
  -21.4420  -20.1118   19.9192 O   0  0  0  0  0  0  0  0  0  0  0  0
  -21.7778   -7.1829   21.5919 O   0  0  0  0  0  0  0  0  0  0  0  0
  -29.5317  -24.7369   20.2056 O   0  0  0  0  0  0  0  0  0  1  0  0
  -19.2190   -5.8759   26.2981 F   0  0  0  0  0  0  0  0  0  0  0  0
  -22.7940   -5.2296   23.2638 F   0  0  0  0  0  0  0  0  0  0  0  0
  1  2  1  0  0  0  0
  1  5  2  0  0  0  0
  2  6  2  0  0  0  0
  3  8  2  0  0  0  0
  3 17  1  0  0  0  0
  4  9  1  0  0  0  0
  4 17  2  0  0  0  0
  5 19  1  0  0  0  0
  6 21  1  0  0  0  0
  7 10  2  0  0  0  0
  7 20  1  0  0  0  0
  8 27  1  0  0  0  0
  9 27  2  0  0  0  0
 10 28  1  0  0  0  0
 11 12  2  0  0  0  0
 11 29  1  0  0  0  0
 12 30  1  0  0  0  0
 13 22  1  0  0  0  0
 13 28  2  0  0  0  0
 14 23  1  0  0  0  0
 14 24  2  0  0  0  0
 15 23  2  0  0  0  0
 15 25  1  0  0  0  0
 16 30  2  0  0  0  0
 16 31  1  0  0  0  0
 17 32  1  0  0  0  0
 18 32  1  0  0  0  0
 18 33  2  0  0  0  0
 18 34  1  0  0  0  0
 19 21  2  0  0  0  0
 19 39  1  0  0  0  0
 20 22  2  0  0  0  0
 20 40  1  0  0  0  0
 21 48  1  0  0  0  0
 22 41  1  0  0  0  0
 23 58  1  0  0  0  0
 24 26  1  0  0  0  0
 24 51  1  0  0  0  0
 25 26  2  0  0  0  0
 25 52  1  0  0  0  0
 26 59  1  0  0  0  0
 27 81  1  0  0  0  0
 28 82  1  0  0  0  0
 29 31  2  0  0  0  0
 29 81  1  0  0  0  0
 30 83  1  0  0  0  0
 31 84  1  0  0  0  0
 32 66  2  0  0  0  0
 33 67  1  0  0  0  0
 33 70  1  0  0  0  0
 34 71  1  0  0  0  0
 34 76  2  0  0  0  0
 35 49  1  0  0  0  0
 35 72  1  0  0  0  0
 35 77  2  0  0  0  0
 36 63  1  0  0  0  0
 36 68  1  0  0  0  0
 36 78  2  0  0  0  0
 37 64  1  0  0  0  0
 37 73  1  0  0  0  0
 37 79  2  0  0  0  0
 38 69  1  0  0  0  0
 38 74  1  0  0  0  0
 38 80  2  0  0  0  0
 39 42  1  0  0  0  0
 40 49  1  0  0  0  0
 41 68  1  0  0  0  0
 42 44  1  0  0  0  0
 43 45  1  0  0  0  0
 43 46  1  0  0  0  0
 44 48  1  0  0  0  0
 45 50  1  0  0  0  0
 46 69  1  0  0  0  0
 47 50  1  0  0  0  0
 47 69  1  0  0  0  0
 48 72  1  0  0  0  0
 49 68  1  0  0  0  0
 50 67  1  0  0  0  0
 53 64  1  0  0  0  0
 54 65  1  0  0  0  0
 55 65  1  0  0  0  0
 56 65  1  0  0  0  0
 57 75  1  0  0  0  0
 58 60  1  0  0  0  0
 59 62  1  0  0  0  0
 60 61  1  0  0  0  0
 61 74  1  0  0  0  0
 62 82  1  0  0  0  0
 63 65  1  0  0  0  0
 63 73  1  0  0  0  0
 64 75  1  0  0  0  0
 66 67  1  0  0  0  0
M  CHG  1  75   1
M  ISO  4  38 100  62 101  74 100  82 101
M  END
> <Batch ID>
0042

> <Smiles>
CNC(C)C(=O)NC(C(=O)N1Cc2cc([101O:1][101CH2:1]Cc3c(C)cc(CCC[100NH:0][100C:0](=O)N4CCCC(n5nc(-c6ccc(Oc7ccc(F)cc7F)cc6)c(C(N)=O)c5N)C4)cc3C)ccc2CC1C(=O)NC1CCCc2ccccc21)C(C)(C)C

> <Shape>
0.246

> <Color>
0.099

> <Negative vol penalty>
0.000

$$$$

  -OEChem-04052317123D

 82 90  0     1  0  0  0  0  0999 V2000
  -27.6442  -35.8407   22.5256 C   0  0  0  0  0  0  0  0  0  0  0  0
  -28.4462  -34.7776   22.1232 C   0  0  0  0  0  0  0  0  0  0  0  0
  -23.7551  -10.0230   22.3080 C   0  0  0  0  0  0  0  0  0  0  0  0
  -24.3275  -11.5453   24.0946 C   0  0  0  0  0  0  0  0  0  0  0  0
  -26.4292  -35.5934   23.1633 C   0  0  0  0  0  0  0  0  0  0  0  0
  -28.0341  -33.4665   22.3592 C   0  0  0  0  0  0  0  0  0  0  0  0
  -28.3993  -26.9020   19.5147 C   0  0  0  0  0  0  0  0  0  0  0  0
  -23.2268   -9.1289   23.2391 C   0  0  0  0  0  0  0  0  0  0  0  0
  -23.7991  -10.6513   25.0257 C   0  0  0  0  0  0  0  0  0  0  0  0
  -28.7545  -25.5981   19.8571 C   0  0  0  0  0  0  0  0  0  0  0  0
  -24.3943   -6.8317   25.4264 C   0  0  0  0  0  0  0  0  0  0  0  0
  -24.7245   -5.4835   25.2890 C   0  0  0  0  0  0  0  0  0  0  0  0
  -26.5993  -25.2902   20.8960 C   0  0  0  0  0  0  0  0  0  0  0  0
  -22.3846   -4.9357   25.0404 C   0  0  0  0  0  0  0  0  0  0  0  0
  -30.0489  -20.1472   22.5948 C   0  0  0  0  0  0  0  0  0  0  0  0
  -24.3056  -11.2312   22.7357 C   0  0  0  0  0  0  0  0  0  0  0  0
  -24.1707  -13.1919   21.1094 C   0  0  0  0  0  0  0  0  0  0  0  0
  -25.9976  -34.2785   23.3986 C   0  0  0  0  0  0  0  0  0  0  0  0
  -27.1434  -27.4144   19.8705 C   0  0  0  0  0  0  0  0  0  0  0  0
  -26.8129  -33.2014   23.0018 C   0  0  0  0  0  0  0  0  0  0  0  0
  -26.2296  -26.6001   20.5547 C   0  0  0  0  0  0  0  0  0  0  0  0
  -29.9960  -19.0966   21.7015 C   0  0  0  0  0  0  0  0  0  0  0  0
  -23.2487   -9.4430   24.5980 C   0  0  0  0  0  0  0  0  0  0  0  0
  -27.8556  -24.7929   20.5504 C   0  0  0  0  0  0  0  0  0  0  0  0
  -23.0592   -7.2320   25.3710 C   0  0  0  0  0  0  0  0  0  0  0  0
  -23.7197   -4.5355   25.0959 C   0  0  0  0  0  0  0  0  0  0  0  0
  -22.0544   -6.2840   25.1780 C   0  0  0  0  0  0  0  0  0  0  0  0
  -24.8520  -12.1550   21.7744 C   0  0  0  0  0  0  0  0  0  0  0  0
  -29.7681  -19.4431   20.3854 C   0  0  0  0  0  0  0  0  0  0  0  0
  -25.1249  -13.7724   20.3101 C   0  0  0  0  0  0  0  0  0  0  0  0
  -29.6764  -21.6483   20.9290 C   0  0  0  0  0  0  0  0  0  0  0  0
  -22.7979  -13.5944   21.2056 C   0  0  0  0  0  0  0  0  0  0  0  0
  -26.1344  -29.8112   21.6982 C   0  0  0  0  0  0  0  0  0  0  0  0
  -23.2312  -28.9743   20.5179 C   0  0  0  0  0  0  0  0  0  0  0  0
  -21.2515  -26.5628   19.1351 C   0  0  0  0  0  0  0  0  0  0  0  0
  -31.0957  -14.0684   20.6467 C   0  0  0  0  0  0  0  0  0  0  0  0
  -24.6987  -34.0615   24.1338 C   0  0  0  0  0  0  0  0  0  0  0  0
  -26.7653  -28.8141   19.4703 C   0  0  0  0  0  0  0  0  0  0  0  0
  -24.8611  -27.0958   20.9422 C   0  0  0  0  0  0  0  0  0  0  0  0
  -24.1596  -32.6386   24.0108 C   0  0  0  0  0  0  0  0  0  0  0  0
  -29.1655  -12.7533   17.9594 C   0  0  0  0  0  0  0  0  0  0  0  0
  -25.2709  -31.6234   24.2580 C   0  0  0  0  0  0  0  0  0  0  0  0
  -27.7797  -12.5443   18.5724 C   0  0  0  0  0  0  0  0  0  0  0  0
  -30.2774  -12.4483   18.9609 C   0  0  0  0  0  0  0  0  0  0  0  0
  -28.7868  -12.9629   20.8548 C   0  0  0  0  0  0  0  0  0  0  0  0
  -26.3888  -31.7649   23.2179 C   0  0  1  0  0  0  0  0  0  0  0  0
  -25.6544  -29.4031   20.3342 C   0  0  1  0  0  0  0  0  0  0  0  0
  -27.6323  -13.3118   19.9000 C   0  0  2  0  0  0  0  0  0  0  0  0
  -29.6911  -18.3894   19.3302 C   0  0  0  0  0  0  0  0  0  0  0  0
  -18.9137  -26.1649   18.3143 C   0  0  0  0  0  0  0  0  0  0  0  0
  -22.2548  -28.7771   23.4020 C   0  0  0  0  0  0  0  0  0  0  0  0
  -20.2748  -27.4901   22.5702 C   0  0  0  0  0  0  0  0  0  0  0  0
  -20.6347  -29.8426   21.8226 C   0  0  0  0  0  0  0  0  0  0  0  0
  -22.1907  -25.9775   16.3903 C   0  0  0  0  0  0  0  0  0  0  0  0
  -30.1756  -17.6934   22.1533 C   0  0  0  0  0  0  0  0  0  0  0  0
  -29.4985  -23.0742   20.4971 C   0  0  0  0  0  0  0  0  0  1  0  0
  -31.5817  -17.1088   21.8971 C   0  0  0  0  0  0  0  0  0  0  0  0
  -31.7692  -15.6819   22.4080 C   0  0  0  0  0  0  0  0  0  0  0  0
  -22.1423  -28.0164   20.9373 C   0  0  1  0  0  0  0  0  0  0  0  0
  -20.3240  -26.5876   17.9336 C   0  0  2  0  0  0  0  0  0  0  0  0
  -21.3531  -28.5226   22.1776 C   0  0  0  0  0  0  0  0  0  0  0  0
  -29.8928  -21.4399   22.2417 N   0  0  0  0  0  0  0  0  0  0  0  0
  -26.1396  -12.0786   21.4276 N   0  0  0  0  0  0  0  0  0  0  0  0
  -29.6029  -20.7135   19.9624 N   0  0  0  0  0  0  0  0  0  0  0  0
  -26.2749  -13.0749   20.5359 N   0  0  0  0  0  0  0  0  0  0  0  0
  -24.5407  -28.4736   20.5339 N   0  0  0  0  0  0  0  0  0  0  0  0
  -30.0797  -13.2090   20.1970 N   0  0  0  0  0  0  0  0  0  0  0  0
  -25.0840  -14.8064   19.4431 N   0  0  0  0  0  0  0  0  0  0  0  0
  -21.9544  -12.8898   22.0753 N   0  0  0  0  0  0  0  0  0  0  0  0
  -25.9924  -31.1597   21.9645 N   0  0  0  0  0  0  0  0  0  0  0  0
  -21.3177  -27.7928   19.7547 N   0  0  0  0  0  0  0  0  0  0  0  0
  -30.8246  -14.7565   21.8231 N   0  0  0  0  0  0  0  0  0  0  0  0
  -20.8221  -25.6638   16.8756 N   0  3  0  0  0  0  0  0  0  0  0  0
  -22.3292  -14.5402   20.5278 O   0  0  0  0  0  0  0  0  0  0  0  0
  -26.5979  -28.9651   22.4539 O   0  0  0  0  0  0  0  0  0  0  0  0
  -22.9302  -30.1223   20.1815 O   0  0  0  0  0  0  0  0  0  0  0  0
  -21.8539  -25.5523   19.4908 O   0  0  0  0  0  0  0  0  0  0  0  0
  -32.1630  -14.2158   20.0417 O   0  0  0  0  0  0  0  0  0  0  0  0
  -22.7330   -8.5709   25.5069 O   0  0  0  0  0  0  0  0  0  0  0  0
  -28.2000  -23.5200   20.8864 O   0  0  0  0  0  0  0  0  0  1  0  0
  -24.0371   -3.2411   24.9624 F   0  0  0  0  0  0  0  0  0  0  0  0
  -20.7701   -6.6626   25.1226 F   0  0  0  0  0  0  0  0  0  0  0  0
  1  2  1  0  0  0  0
  1  5  2  0  0  0  0
  2  6  2  0  0  0  0
  3  8  2  0  0  0  0
  3 16  1  0  0  0  0
  4  9  1  0  0  0  0
  4 16  2  0  0  0  0
  5 18  1  0  0  0  0
  6 20  1  0  0  0  0
  7 10  2  0  0  0  0
  7 19  1  0  0  0  0
  8 23  1  0  0  0  0
  9 23  2  0  0  0  0
 10 24  1  0  0  0  0
 11 12  2  0  0  0  0
 11 25  1  0  0  0  0
 12 26  1  0  0  0  0
 13 21  1  0  0  0  0
 13 24  2  0  0  0  0
 14 26  2  0  0  0  0
 14 27  1  0  0  0  0
 15 22  1  0  0  0  0
 15 62  2  0  0  0  0
 16 28  1  0  0  0  0
 17 28  1  0  0  0  0
 17 30  2  0  0  0  0
 17 32  1  0  0  0  0
 18 20  2  0  0  0  0
 18 37  1  0  0  0  0
 19 21  2  0  0  0  0
 19 38  1  0  0  0  0
 20 46  1  0  0  0  0
 21 39  1  0  0  0  0
 22 29  2  0  0  0  0
 22 55  1  0  0  0  0
 23 79  1  0  0  0  0
 24 80  1  0  0  0  0
 25 27  2  0  0  0  0
 25 79  1  0  0  0  0
 26 81  1  0  0  0  0
 27 82  1  0  0  0  0
 28 63  2  0  0  0  0
 29 49  1  0  0  0  0
 29 64  1  0  0  0  0
 30 65  1  0  0  0  0
 30 68  1  0  0  0  0
 31 56  1  0  0  0  0
 31 62  1  0  0  0  0
 31 64  2  0  0  0  0
 32 69  1  0  0  0  0
 32 74  2  0  0  0  0
 33 47  1  0  0  0  0
 33 70  1  0  0  0  0
 33 75  2  0  0  0  0
 34 59  1  0  0  0  0
 34 66  1  0  0  0  0
 34 76  2  0  0  0  0
 35 60  1  0  0  0  0
 35 71  1  0  0  0  0
 35 77  2  0  0  0  0
 36 67  1  0  0  0  0
 36 72  1  0  0  0  0
 36 78  2  0  0  0  0
 37 40  1  0  0  0  0
 38 47  1  0  0  0  0
 39 66  1  0  0  0  0
 40 42  1  0  0  0  0
 41 43  1  0  0  0  0
 41 44  1  0  0  0  0
 42 46  1  0  0  0  0
 43 48  1  0  0  0  0
 44 67  1  0  0  0  0
 45 48  1  0  0  0  0
 45 67  1  0  0  0  0
 46 70  1  0  0  0  0
 47 66  1  0  0  0  0
 48 65  1  0  0  0  0
 50 60  1  0  0  0  0
 51 61  1  0  0  0  0
 52 61  1  0  0  0  0
 53 61  1  0  0  0  0
 54 73  1  0  0  0  0
 55 57  1  0  0  0  0
 56 80  1  0  0  0  0
 57 58  1  0  0  0  0
 58 72  1  0  0  0  0
 59 61  1  0  0  0  0
 59 71  1  0  0  0  0
 60 73  1  0  0  0  0
 63 65  1  0  0  0  0
M  CHG  1  73   1
M  ISO  4  36 100  56 101  72 100  80 101
M  END
> <Batch ID>
0042

> <Smiles>
CNC(C)C(=O)NC(C(=O)N1Cc2cc([101O:1][101CH2:1]c3ncc(CCC[100NH:0][100C:0](=O)N4CCCC(n5nc(-c6ccc(Oc7ccc(F)cc7F)cc6)c(C(N)=O)c5N)C4)c(C)n3)ccc2CC1C(=O)NC1CCCc2ccccc21)C(C)(C)C

> <Shape>
0.338

> <Color>
0.147

> <Negative vol penalty>
0.000

$$$$

  -OEChem-04052317123D

 86 94  0     1  0  0  0  0  0999 V2000
  -27.9856   -8.2301   40.2876 C   0  0  0  0  0  0  0  0  0  0  0  0
  -28.5910   -8.3090   39.0376 C   0  0  0  0  0  0  0  0  0  0  0  0
  -23.0371   -9.8994   19.9879 C   0  0  0  0  0  0  0  0  0  0  0  0
  -23.8751   -9.9271   22.2538 C   0  0  0  0  0  0  0  0  0  0  0  0
  -26.6338   -7.9034   40.3868 C   0  0  0  0  0  0  0  0  0  0  0  0
  -27.8452   -8.0602   37.8860 C   0  0  0  0  0  0  0  0  0  0  0  0
  -28.4816  -10.7696   32.4307 C   0  0  0  0  0  0  0  0  0  0  0  0
  -22.3140   -8.7404   20.2695 C   0  0  0  0  0  0  0  0  0  0  0  0
  -23.1519   -8.7681   22.5354 C   0  0  0  0  0  0  0  0  0  0  0  0
  -29.1330  -10.3813   31.2608 C   0  0  0  0  0  0  0  0  0  0  0  0
  -23.4571   -5.4460   21.9862 C   0  0  0  0  0  0  0  0  0  0  0  0
  -24.1072   -4.4310   22.6881 C   0  0  0  0  0  0  0  0  0  0  0  0
  -27.0505   -9.5290   30.3912 C   0  0  0  0  0  0  0  0  0  0  0  0
  -29.0628  -11.9402   26.0810 C   0  0  0  0  0  0  0  0  0  0  0  0
  -22.4636   -4.5974   24.4511 C   0  0  0  0  0  0  0  0  0  0  0  0
  -28.0872   -9.7824   26.0985 C   0  0  0  0  0  0  0  0  0  0  0  0
  -23.8177  -10.4928   20.9801 C   0  0  0  0  0  0  0  0  0  0  0  0
  -24.1297  -13.0205   20.8348 C   0  0  0  0  0  0  0  0  0  0  0  0
  -25.8687   -7.6599   39.2353 C   0  0  0  0  0  0  0  0  0  0  0  0
  -27.1096  -10.5303   32.5944 C   0  0  0  0  0  0  0  0  0  0  0  0
  -26.4822   -7.7286   37.9699 C   0  0  0  0  0  0  0  0  0  0  0  0
  -26.3835   -9.9175   31.5631 C   0  0  0  0  0  0  0  0  0  0  0  0
  -29.1415  -10.6058   26.4389 C   0  0  0  0  0  0  0  0  0  0  0  0
  -22.3713   -8.1747   21.5432 C   0  0  0  0  0  0  0  0  0  0  0  0
  -28.4181   -9.7583   30.2421 C   0  0  0  0  0  0  0  0  0  0  0  0
  -22.3103   -6.0368   22.5168 C   0  0  0  0  0  0  0  0  0  0  0  0
  -23.6105   -4.0067   23.9206 C   0  0  0  0  0  0  0  0  0  0  0  0
  -21.8136   -5.6125   23.7492 C   0  0  0  0  0  0  0  0  0  0  0  0
  -24.5655  -11.6897   20.6897 C   0  0  0  0  0  0  0  0  0  0  0  0
  -27.9351  -12.3628   25.4062 C   0  0  0  0  0  0  0  0  0  0  0  0
  -25.2011  -13.7786   20.4302 C   0  0  0  0  0  0  0  0  0  0  0  0
  -22.8692  -13.5260   21.2943 C   0  0  0  0  0  0  0  0  0  0  0  0
  -25.3564   -8.8272   34.6265 C   0  0  0  0  0  0  0  0  0  0  0  0
  -22.8852  -10.2436   33.0743 C   0  0  0  0  0  0  0  0  0  0  0  0
  -21.7297  -11.7620   30.2448 C   0  0  0  0  0  0  0  0  0  0  0  0
  -30.8175  -14.5506   20.8515 C   0  0  0  0  0  0  0  0  0  0  0  0
  -24.4222   -7.2639   39.3952 C   0  0  0  0  0  0  0  0  0  0  0  0
  -26.4162  -10.9794   33.8513 C   0  0  0  0  0  0  0  0  0  0  0  0
  -24.9049   -9.6562   31.6811 C   0  0  0  0  0  0  0  0  0  0  0  0
  -23.6123   -7.3821   38.1067 C   0  0  0  0  0  0  0  0  0  0  0  0
  -29.4824  -12.4769   18.0913 C   0  0  0  0  0  0  0  0  0  0  0  0
  -24.3731   -6.7616   36.9392 C   0  0  0  0  0  0  0  0  0  0  0  0
  -28.0729  -12.1433   18.5770 C   0  0  0  0  0  0  0  0  0  0  0  0
  -30.4433  -12.7070   19.2538 C   0  0  0  0  0  0  0  0  0  0  0  0
  -28.5696  -13.4017   20.7101 C   0  0  0  0  0  0  0  0  0  0  0  0
  -25.7005   -7.4899   36.6963 C   0  0  1  0  0  0  0  0  0  0  0  0
  -25.1195  -10.2224   34.1215 C   0  0  1  0  0  0  0  0  0  0  0  0
  -27.5658  -13.2097   19.5633 C   0  0  2  0  0  0  0  0  0  0  0  0
  -32.3431  -18.6551   22.3583 C   0  0  0  0  0  0  0  0  0  0  0  0
  -19.6567  -12.7769   29.2600 C   0  0  0  0  0  0  0  0  0  0  0  0
  -21.7472   -7.4526   32.5996 C   0  0  0  0  0  0  0  0  0  0  0  0
  -20.2508   -8.4363   30.8499 C   0  0  0  0  0  0  0  0  0  0  0  0
  -20.0490   -9.1796   33.2225 C   0  0  0  0  0  0  0  0  0  0  0  0
  -23.0237  -14.4076   29.9529 C   0  0  0  0  0  0  0  0  0  0  0  0
  -30.3422  -10.0675   27.1783 C   0  0  0  0  0  0  0  0  0  0  0  0
  -27.8011  -13.7896   24.9976 C   0  0  0  0  0  0  0  0  0  0  0  0
  -31.3908  -17.6989   21.6537 C   0  0  0  0  0  0  0  0  0  0  0  0
  -28.3804  -14.0519   23.5981 C   0  0  0  0  0  0  0  0  0  0  0  0
  -28.2706  -15.5283   23.2056 C   0  0  0  0  0  0  0  0  0  0  0  0
  -31.1670  -16.4090   22.4339 C   0  0  0  0  0  0  0  0  0  0  0  0
  -28.8521  -15.8127   21.8246 C   0  0  0  0  0  0  0  0  0  0  0  0
  -30.1777  -10.1536   28.6918 C   0  0  0  0  0  0  0  0  0  1  0  0
  -22.0512   -9.9080   31.8615 C   0  0  1  0  0  0  0  0  0  0  0  0
  -20.9358  -13.0395   30.0396 C   0  0  2  0  0  0  0  0  0  0  0  0
  -21.0528   -8.7472   32.1316 C   0  0  0  0  0  0  0  0  0  0  0  0
  -26.9956  -10.2232   25.4378 N   0  0  0  0  0  0  0  0  0  0  0  0
  -25.8161  -11.6041   20.2287 N   0  0  0  0  0  0  0  0  0  0  0  0
  -26.9185  -11.5346   25.0858 N   0  0  0  0  0  0  0  0  0  0  0  0
  -26.1754  -12.8905   20.0806 N   0  0  0  0  0  0  0  0  0  0  0  0
  -24.2734  -10.1081   32.9319 N   0  0  0  0  0  0  0  0  0  0  0  0
  -29.9171  -13.6930   20.1983 N   0  0  0  0  0  0  0  0  0  0  0  0
  -25.3954  -15.1117   20.3429 N   0  0  0  0  0  0  0  0  0  0  0  0
  -21.8787  -12.6088   21.6710 N   0  0  0  0  0  0  0  0  0  0  0  0
  -25.4722   -8.7382   36.0006 N   0  0  0  0  0  0  0  0  0  0  0  0
  -21.4192  -11.1546   31.4430 N   0  0  0  0  0  0  0  0  0  0  0  0
  -30.2749  -15.4901   21.7412 N   0  0  0  0  0  0  0  0  0  0  0  0
  -21.7472  -14.0387   29.2885 N   0  3  0  0  0  0  0  0  0  0  0  0
  -22.6226  -14.7545   21.3531 O   0  0  0  0  0  0  0  0  0  0  0  0
  -25.4273   -7.8998   33.8286 O   0  0  0  0  0  0  0  0  0  0  0  0
  -22.3260  -10.6193   34.1076 O   0  0  0  0  0  0  0  0  0  0  0  0
  -22.5412  -11.3427   29.4224 O   0  0  0  0  0  0  0  0  0  0  0  0
  -32.0360  -14.4867   20.6438 O   0  0  0  0  0  0  0  0  0  0  0  0
  -21.6656   -7.0439   21.8184 O   0  0  0  0  0  0  0  0  0  0  0  0
  -29.0516   -9.3776   29.0994 O   0  0  0  0  0  0  0  0  0  1  0  0
  -24.2340   -3.0308   24.5938 F   0  0  0  0  0  0  0  0  0  0  0  0
  -20.7115   -6.1755   24.2634 F   0  0  0  0  0  0  0  0  0  0  0  0
  1  2  1  0  0  0  0
  1  5  2  0  0  0  0
  2  6  2  0  0  0  0
  3  8  2  0  0  0  0
  3 17  1  0  0  0  0
  4  9  1  0  0  0  0
  4 17  2  0  0  0  0
  5 19  1  0  0  0  0
  6 21  1  0  0  0  0
  7 10  2  0  0  0  0
  7 20  1  0  0  0  0
  8 24  1  0  0  0  0
  9 24  2  0  0  0  0
 10 25  1  0  0  0  0
 11 12  2  0  0  0  0
 11 26  1  0  0  0  0
 12 27  1  0  0  0  0
 13 22  1  0  0  0  0
 13 25  2  0  0  0  0
 14 23  2  0  0  0  0
 14 30  1  0  0  0  0
 15 27  2  0  0  0  0
 15 28  1  0  0  0  0
 16 23  1  0  0  0  0
 16 66  2  0  0  0  0
 17 29  1  0  0  0  0
 18 29  1  0  0  0  0
 18 31  2  0  0  0  0
 18 32  1  0  0  0  0
 19 21  2  0  0  0  0
 19 37  1  0  0  0  0
 20 22  2  0  0  0  0
 20 38  1  0  0  0  0
 21 46  1  0  0  0  0
 22 39  1  0  0  0  0
 23 55  1  0  0  0  0
 24 83  1  0  0  0  0
 25 84  1  0  0  0  0
 26 28  2  0  0  0  0
 26 83  1  0  0  0  0
 27 85  1  0  0  0  0
 28 86  1  0  0  0  0
 29 67  2  0  0  0  0
 30 56  1  0  0  0  0
 30 68  2  0  0  0  0
 31 69  1  0  0  0  0
 31 72  1  0  0  0  0
 32 73  1  0  0  0  0
 32 78  2  0  0  0  0
 33 47  1  0  0  0  0
 33 74  1  0  0  0  0
 33 79  2  0  0  0  0
 34 63  1  0  0  0  0
 34 70  1  0  0  0  0
 34 80  2  0  0  0  0
 35 64  1  0  0  0  0
 35 75  1  0  0  0  0
 35 81  2  0  0  0  0
 36 71  1  0  0  0  0
 36 76  1  0  0  0  0
 36 82  2  0  0  0  0
 37 40  1  0  0  0  0
 38 47  1  0  0  0  0
 39 70  1  0  0  0  0
 40 42  1  0  0  0  0
 41 43  1  0  0  0  0
 41 44  1  0  0  0  0
 42 46  1  0  0  0  0
 43 48  1  0  0  0  0
 44 71  1  0  0  0  0
 45 48  1  0  0  0  0
 45 71  1  0  0  0  0
 46 74  1  0  0  0  0
 47 70  1  0  0  0  0
 48 69  1  0  0  0  0
 49 57  1  0  0  0  0
 50 64  1  0  0  0  0
 51 65  1  0  0  0  0
 52 65  1  0  0  0  0
 53 65  1  0  0  0  0
 54 77  1  0  0  0  0
 55 62  1  0  0  0  0
 56 58  1  0  0  0  0
 57 60  1  0  0  0  0
 58 59  1  0  0  0  0
 59 61  1  0  0  0  0
 60 76  1  0  0  0  0
 61 76  1  0  0  0  0
 62 84  1  0  0  0  0
 63 65  1  0  0  0  0
 63 75  1  0  0  0  0
 64 77  1  0  0  0  0
 66 68  1  0  0  0  0
 67 69  1  0  0  0  0
M  CHG  1  77   1
M  ISO  4  36 100  62 101  76 100  84 101
M  END
> <Batch ID>
0042

> <Smiles>
CCC[100N:0](CCCCc1cc(C[101CH2:1][101O:1]c2ccc3c(c2)CN(C(=O)C(NC(=O)C(C)NC)C(C)(C)C)C(C(=O)NC2CCCc4ccccc42)C3)cnn1)[100C:0](=O)N1CCCC(n2nc(-c3ccc(Oc4ccc(F)cc4F)cc3)c(C(N)=O)c2N)C1

> <Shape>
0.168

> <Color>
0.184

> <Negative vol penalty>
0.000

$$$$

  -OEChem-04052317123D

 85 93  0     1  0  0  0  0  0999 V2000
  -33.5525  -24.9515   10.7352 C   0  0  0  0  0  0  0  0  0  0  0  0
  -32.7019  -24.7851   11.8234 C   0  0  0  0  0  0  0  0  0  0  0  0
  -23.0590   -9.8901   19.9455 C   0  0  0  0  0  0  0  0  0  0  0  0
  -23.8241   -9.8898   22.2372 C   0  0  0  0  0  0  0  0  0  0  0  0
  -34.6488  -24.1055   10.5731 C   0  0  0  0  0  0  0  0  0  0  0  0
  -32.9465  -23.7718   12.7496 C   0  0  0  0  0  0  0  0  0  0  0  0
  -32.4626  -25.3558   17.5351 C   0  0  0  0  0  0  0  0  0  0  0  0
  -22.3054   -8.7436   20.1970 C   0  0  0  0  0  0  0  0  0  0  0  0
  -23.0706   -8.7433   22.4887 C   0  0  0  0  0  0  0  0  0  0  0  0
  -31.1675  -25.4891   18.0339 C   0  0  0  0  0  0  0  0  0  0  0  0
  -19.3535   -7.9730   21.6549 C   0  0  0  0  0  0  0  0  0  0  0  0
  -18.0452   -7.9385   21.1726 C   0  0  0  0  0  0  0  0  0  0  0  0
  -31.3848  -23.3615   19.1499 C   0  0  0  0  0  0  0  0  0  0  0  0
  -26.8183  -20.7138   17.5303 C   0  0  0  0  0  0  0  0  0  0  0  0
  -27.2036  -22.3451   19.2550 C   0  0  0  0  0  0  0  0  0  0  0  0
  -18.5845   -5.9908   19.8487 C   0  0  0  0  0  0  0  0  0  0  0  0
  -23.8184  -10.4632   20.9656 C   0  0  0  0  0  0  0  0  0  0  0  0
  -24.1824  -12.9853   20.8453 C   0  0  0  0  0  0  0  0  0  0  0  0
  -34.9125  -23.0874   11.5030 C   0  0  0  0  0  0  0  0  0  0  0  0
  -33.2258  -24.2173   17.8316 C   0  0  0  0  0  0  0  0  0  0  0  0
  -34.0466  -22.9105   12.5990 C   0  0  0  0  0  0  0  0  0  0  0  0
  -32.6902  -23.2174   18.6558 C   0  0  0  0  0  0  0  0  0  0  0  0
  -27.1294  -21.0167   18.8512 C   0  0  0  0  0  0  0  0  0  0  0  0
  -22.3112   -8.1702   21.4685 C   0  0  0  0  0  0  0  0  0  0  0  0
  -30.6273  -24.4906   18.8390 C   0  0  0  0  0  0  0  0  0  0  0  0
  -20.2774   -7.0164   21.2340 C   0  0  0  0  0  0  0  0  0  0  0  0
  -17.6606   -6.9474   20.2696 C   0  0  0  0  0  0  0  0  0  0  0  0
  -19.8929   -6.0253   20.3310 C   0  0  0  0  0  0  0  0  0  0  0  0
  -24.5974  -11.6473   20.7064 C   0  0  0  0  0  0  0  0  0  0  0  0
  -26.5919  -21.7673   16.6593 C   0  0  0  0  0  0  0  0  0  0  0  0
  -26.9602  -23.3257   18.3068 C   0  0  0  0  0  0  0  0  0  0  0  0
  -25.2804  -13.7251   20.4797 C   0  0  0  0  0  0  0  0  0  0  0  0
  -22.9175  -13.5123   21.2672 C   0  0  0  0  0  0  0  0  0  0  0  0
  -34.5312  -21.8823   16.1148 C   0  0  0  0  0  0  0  0  0  0  0  0
  -35.8084  -21.0250   18.9708 C   0  0  0  0  0  0  0  0  0  0  0  0
  -35.6094  -21.1121   22.3766 C   0  0  0  0  0  0  0  0  0  0  0  0
  -30.7734  -14.6952   20.6556 C   0  0  0  0  0  0  0  0  0  0  0  0
  -36.0828  -22.1676   11.2601 C   0  0  0  0  0  0  0  0  0  0  0  0
  -34.6310  -24.1010   17.3078 C   0  0  0  0  0  0  0  0  0  0  0  0
  -33.4757  -21.9850   19.0203 C   0  0  0  0  0  0  0  0  0  0  0  0
  -36.4854  -21.3566   12.4890 C   0  0  0  0  0  0  0  0  0  0  0  0
  -29.6091  -12.3214   18.2710 C   0  0  0  0  0  0  0  0  0  0  0  0
  -35.2548  -20.7475   13.1533 C   0  0  0  0  0  0  0  0  0  0  0  0
  -28.1701  -12.0404   18.7072 C   0  0  0  0  0  0  0  0  0  0  0  0
  -30.5309  -12.5338   19.4698 C   0  0  0  0  0  0  0  0  0  0  0  0
  -28.6389  -13.2815   20.8609 C   0  0  0  0  0  0  0  0  0  0  0  0
  -34.2928  -21.8386   13.6385 C   0  0  1  0  0  0  0  0  0  0  0  0
  -35.1305  -22.6607   17.2518 C   0  0  1  0  0  0  0  0  0  0  0  0
  -27.6606  -13.1158   19.6855 C   0  0  2  0  0  0  0  0  0  0  0  0
  -26.2540  -21.4799   15.2346 C   0  0  0  0  0  0  0  0  0  0  0  0
  -36.7766  -20.2884   24.4397 C   0  0  0  0  0  0  0  0  0  0  0  0
  -34.6512  -18.2395   18.5105 C   0  0  0  0  0  0  0  0  0  0  0  0
  -35.0063  -17.7661   20.9432 C   0  0  0  0  0  0  0  0  0  0  0  0
  -36.9592  -18.2644   19.4733 C   0  0  0  0  0  0  0  0  0  0  0  0
  -36.1350  -23.8676   23.3198 C   0  0  0  0  0  0  0  0  0  0  0  0
  -27.3814  -19.9212   19.8310 C   0  0  0  0  0  0  0  0  0  0  0  0
  -27.0339  -24.7785   18.7095 C   0  0  0  0  0  0  0  0  0  0  0  0
  -28.8626  -19.5169   19.8834 C   0  0  0  0  0  0  0  0  0  0  0  0
  -29.1032  -18.3659   20.8624 C   0  0  0  0  0  0  0  0  0  0  0  0
  -30.5884  -17.9992   20.9342 C   0  0  0  0  0  0  0  0  0  0  0  0
  -30.8612  -16.8448   21.8928 C   0  0  0  0  0  0  0  0  0  0  0  0
  -28.4337  -25.3578   18.5361 C   0  0  0  0  0  0  0  0  0  1  0  0
  -35.3782  -20.1320   20.1093 C   0  0  1  0  0  0  0  0  0  0  0  0
  -36.6477  -21.4259   23.4386 C   0  0  2  0  0  0  0  0  0  0  0  0
  -35.4830  -18.6227   19.7508 C   0  0  0  0  0  0  0  0  0  0  0  0
  -25.8604  -11.5403   20.2852 N   0  0  0  0  0  0  0  0  0  0  0  0
  -26.6551  -23.0701   17.0148 N   0  0  0  0  0  0  0  0  0  0  0  0
  -26.2485  -12.8204   20.1562 N   0  0  0  0  0  0  0  0  0  0  0  0
  -34.8428  -21.9145   18.4785 N   0  0  0  0  0  0  0  0  0  0  0  0
  -29.9916  -13.5670   20.3573 N   0  0  0  0  0  0  0  0  0  0  0  0
  -25.5024  -15.0546   20.4064 N   0  0  0  0  0  0  0  0  0  0  0  0
  -21.8983  -12.6121   21.6067 N   0  0  0  0  0  0  0  0  0  0  0  0
  -34.7759  -22.4277   14.8690 N   0  0  0  0  0  0  0  0  0  0  0  0
  -36.1772  -20.5288   21.2637 N   0  0  0  0  0  0  0  0  0  0  0  0
  -30.1845  -15.6291   21.4992 N   0  0  0  0  0  0  0  0  0  0  0  0
  -36.2733  -22.6637   24.1792 N   0  3  0  0  0  0  0  0  0  0  0  0
  -22.6924  -14.7449   21.3254 O   0  0  0  0  0  0  0  0  0  0  0  0
  -33.8952  -20.8617   16.3503 O   0  0  0  0  0  0  0  0  0  0  0  0
  -36.9608  -20.9417   18.5389 O   0  0  0  0  0  0  0  0  0  0  0  0
  -34.4136  -21.3562   22.5214 O   0  0  0  0  0  0  0  0  0  0  0  0
  -31.9098  -14.8606   20.1994 O   0  0  0  0  0  0  0  0  0  0  0  0
  -21.5758   -7.0515   21.7143 O   0  0  0  0  0  0  0  0  0  0  0  0
  -29.3632  -24.6179   19.3265 O   0  0  0  0  0  0  0  0  0  1  0  0
  -16.4038   -6.9135   19.8077 F   0  0  0  0  0  0  0  0  0  0  0  0
  -20.7757   -5.1030   19.9239 F   0  0  0  0  0  0  0  0  0  0  0  0
  1  2  1  0  0  0  0
  1  5  2  0  0  0  0
  2  6  2  0  0  0  0
  3  8  2  0  0  0  0
  3 17  1  0  0  0  0
  4  9  1  0  0  0  0
  4 17  2  0  0  0  0
  5 19  1  0  0  0  0
  6 21  1  0  0  0  0
  7 10  2  0  0  0  0
  7 20  1  0  0  0  0
  8 24  1  0  0  0  0
  9 24  2  0  0  0  0
 10 25  1  0  0  0  0
 11 12  2  0  0  0  0
 11 26  1  0  0  0  0
 12 27  1  0  0  0  0
 13 22  1  0  0  0  0
 13 25  2  0  0  0  0
 14 23  1  0  0  0  0
 14 30  2  0  0  0  0
 15 23  2  0  0  0  0
 15 31  1  0  0  0  0
 16 27  2  0  0  0  0
 16 28  1  0  0  0  0
 17 29  1  0  0  0  0
 18 29  1  0  0  0  0
 18 32  2  0  0  0  0
 18 33  1  0  0  0  0
 19 21  2  0  0  0  0
 19 38  1  0  0  0  0
 20 22  2  0  0  0  0
 20 39  1  0  0  0  0
 21 47  1  0  0  0  0
 22 40  1  0  0  0  0
 23 56  1  0  0  0  0
 24 82  1  0  0  0  0
 25 83  1  0  0  0  0
 26 28  2  0  0  0  0
 26 82  1  0  0  0  0
 27 84  1  0  0  0  0
 28 85  1  0  0  0  0
 29 66  2  0  0  0  0
 30 50  1  0  0  0  0
 30 67  1  0  0  0  0
 31 57  1  0  0  0  0
 31 67  2  0  0  0  0
 32 68  1  0  0  0  0
 32 71  1  0  0  0  0
 33 72  1  0  0  0  0
 33 77  2  0  0  0  0
 34 48  1  0  0  0  0
 34 73  1  0  0  0  0
 34 78  2  0  0  0  0
 35 63  1  0  0  0  0
 35 69  1  0  0  0  0
 35 79  2  0  0  0  0
 36 64  1  0  0  0  0
 36 74  1  0  0  0  0
 36 80  2  0  0  0  0
 37 70  1  0  0  0  0
 37 75  1  0  0  0  0
 37 81  2  0  0  0  0
 38 41  1  0  0  0  0
 39 48  1  0  0  0  0
 40 69  1  0  0  0  0
 41 43  1  0  0  0  0
 42 44  1  0  0  0  0
 42 45  1  0  0  0  0
 43 47  1  0  0  0  0
 44 49  1  0  0  0  0
 45 70  1  0  0  0  0
 46 49  1  0  0  0  0
 46 70  1  0  0  0  0
 47 73  1  0  0  0  0
 48 69  1  0  0  0  0
 49 68  1  0  0  0  0
 51 64  1  0  0  0  0
 52 65  1  0  0  0  0
 53 65  1  0  0  0  0
 54 65  1  0  0  0  0
 55 76  1  0  0  0  0
 56 58  1  0  0  0  0
 57 62  1  0  0  0  0
 58 59  1  0  0  0  0
 59 60  1  0  0  0  0
 60 61  1  0  0  0  0
 61 75  1  0  0  0  0
 62 83  1  0  0  0  0
 63 65  1  0  0  0  0
 63 74  1  0  0  0  0
 64 76  1  0  0  0  0
 66 68  1  0  0  0  0
M  CHG  1  76   1
M  ISO  4  37 100  62 101  75 100  83 101
M  END
> <Batch ID>
0042

> <Smiles>
CNC(C)C(=O)NC(C(=O)N1Cc2cc([101O:1][101CH2:1]Cc3cc(CCCCC[100NH:0][100C:0](=O)N4CCCC(n5nc(-c6ccc(Oc7ccc(F)cc7F)cc6)c(C(N)=O)c5N)C4)cc(C)n3)ccc2CC1C(=O)NC1CCCc2ccccc21)C(C)(C)C

> <Shape>
0.198

> <Color>
0.194

> <Negative vol penalty>
0.000

$$$$

  -OEChem-04052317123D

 83 91  0     1  0  0  0  0  0999 V2000
  -20.7038  -16.1766   31.5074 C   0  0  0  0  0  0  0  0  0  0  0  0
  -21.7459  -16.6728   30.7307 C   0  0  0  0  0  0  0  0  0  0  0  0
  -23.1616   -9.8525   19.9151 C   0  0  0  0  0  0  0  0  0  0  0  0
  -23.8310   -9.9044   22.2359 C   0  0  0  0  0  0  0  0  0  0  0  0
  -20.9190  -15.0817   32.3433 C   0  0  0  0  0  0  0  0  0  0  0  0
  -23.0042  -16.0749   30.7903 C   0  0  0  0  0  0  0  0  0  0  0  0
  -25.0515  -15.3963   26.2084 C   0  0  0  0  0  0  0  0  0  0  0  0
  -22.4338   -8.6862   20.1510 C   0  0  0  0  0  0  0  0  0  0  0  0
  -23.1031   -8.7381   22.4719 C   0  0  0  0  0  0  0  0  0  0  0  0
  -25.6185  -16.5114   25.5929 C   0  0  0  0  0  0  0  0  0  0  0  0
  -20.1057   -5.8951   20.2227 C   0  0  0  0  0  0  0  0  0  0  0  0
  -18.8215   -5.8120   19.6848 C   0  0  0  0  0  0  0  0  0  0  0  0
  -27.8092  -15.7665   26.2749 C   0  0  0  0  0  0  0  0  0  0  0  0
  -18.1630   -7.7578   20.9566 C   0  0  0  0  0  0  0  0  0  0  0  0
  -30.0031  -17.4665   18.8888 C   0  0  0  0  0  0  0  0  0  0  0  0
  -23.8602  -10.4616   20.9575 C   0  0  0  0  0  0  0  0  0  0  0  0
  -24.1513  -12.9921   20.8178 C   0  0  0  0  0  0  0  0  0  0  0  0
  -22.1781  -14.4640   32.4059 C   0  0  0  0  0  0  0  0  0  0  0  0
  -25.8595  -14.4621   26.8723 C   0  0  0  0  0  0  0  0  0  0  0  0
  -23.2369  -14.9715   31.6288 C   0  0  0  0  0  0  0  0  0  0  0  0
  -27.2503  -14.6391   26.8958 C   0  0  0  0  0  0  0  0  0  0  0  0
  -22.4046   -8.1290   21.4295 C   0  0  0  0  0  0  0  0  0  0  0  0
  -26.9972  -16.6982   25.6285 C   0  0  0  0  0  0  0  0  0  0  0  0
  -20.4186   -6.9095   21.1276 C   0  0  0  0  0  0  0  0  0  0  0  0
  -17.8501   -6.7434   20.0517 C   0  0  0  0  0  0  0  0  0  0  0  0
  -19.4473   -7.8409   21.4945 C   0  0  0  0  0  0  0  0  0  0  0  0
  -24.6126  -11.6661   20.7142 C   0  0  0  0  0  0  0  0  0  0  0  0
  -31.0063  -17.9054   19.7060 C   0  0  0  0  0  0  0  0  0  0  0  0
  -25.2403  -13.7612   20.4873 C   0  0  0  0  0  0  0  0  0  0  0  0
  -29.2003  -19.1122   20.1329 C   0  0  0  0  0  0  0  0  0  0  0  0
  -22.8545  -13.4845   21.1803 C   0  0  0  0  0  0  0  0  0  0  0  0
  -26.0987  -13.4321   29.8699 C   0  0  0  0  0  0  0  0  0  0  0  0
  -28.2045  -11.3351   28.5697 C   0  0  0  0  0  0  0  0  0  0  0  0
  -30.3732  -10.6003   26.0392 C   0  0  0  0  0  0  0  0  0  0  0  0
  -30.5619  -14.9353   20.9856 C   0  0  0  0  0  0  0  0  0  0  0  0
  -22.3752  -13.3125   33.3598 C   0  0  0  0  0  0  0  0  0  0  0  0
  -25.2350  -13.2505   27.5084 C   0  0  0  0  0  0  0  0  0  0  0  0
  -28.1635  -13.6547   27.5780 C   0  0  0  0  0  0  0  0  0  0  0  0
  -23.6393  -12.5025   33.0838 C   0  0  0  0  0  0  0  0  0  0  0  0
  -29.7009  -12.4678   18.4821 C   0  0  0  0  0  0  0  0  0  0  0  0
  -24.8305  -13.4300   32.8656 C   0  0  0  0  0  0  0  0  0  0  0  0
  -28.2517  -12.1496   18.8544 C   0  0  0  0  0  0  0  0  0  0  0  0
  -30.5537  -12.6977   19.7263 C   0  0  0  0  0  0  0  0  0  0  0  0
  -28.5876  -13.4374   21.0152 C   0  0  0  0  0  0  0  0  0  0  0  0
  -24.6095  -14.3346   31.6473 C   0  0  1  0  0  0  0  0  0  0  0  0
  -26.1053  -12.6321   28.5981 C   0  0  1  0  0  0  0  0  0  0  0  0
  -27.6688  -13.2168   19.7997 C   0  0  2  0  0  0  0  0  0  0  0  0
  -31.9768   -8.8295   25.2711 C   0  0  0  0  0  0  0  0  0  0  0  0
  -30.2267  -12.2644   30.6571 C   0  0  0  0  0  0  0  0  0  0  0  0
  -32.0299  -11.2062   29.2799 C   0  0  0  0  0  0  0  0  0  0  0  0
  -30.2113   -9.7977   30.2452 C   0  0  0  0  0  0  0  0  0  0  0  0
  -31.1992  -19.6835   21.4713 C   0  0  0  0  0  0  0  0  0  0  0  0
  -28.8494  -10.1388   23.5444 C   0  0  0  0  0  0  0  0  0  0  0  0
  -32.3975  -17.4540   19.8318 C   0  0  0  0  0  0  0  0  0  0  0  0
  -28.2521  -20.1273   20.7198 C   0  0  0  0  0  0  0  0  0  0  0  0
  -27.2438  -19.5331   21.7094 C   0  0  0  0  0  0  0  0  0  0  0  0
  -27.9059  -18.9306   22.9494 C   0  0  0  0  0  0  0  0  0  0  0  0
  -32.6117  -16.3285   20.8652 C   0  0  0  0  0  0  0  0  0  0  0  0
  -26.8776  -18.3156   23.8891 C   0  0  0  0  0  0  0  0  0  1  0  0
  -29.6912  -11.3367   28.3079 C   0  0  1  0  0  0  0  0  0  0  0  0
  -30.5503   -9.3510   25.1953 C   0  0  2  0  0  0  0  0  0  0  0  0
  -30.5227  -11.1710   29.6113 C   0  0  0  0  0  0  0  0  0  0  0  0
  -25.8946  -11.5933   20.3466 N   0  0  0  0  0  0  0  0  0  0  0  0
  -30.4818  -18.9241   20.4644 N   0  0  0  0  0  0  0  0  0  0  0  0
  -26.2482  -12.8833   20.2162 N   0  0  0  0  0  0  0  0  0  0  0  0
  -28.8973  -18.2306   19.1745 N   0  3  0  0  0  0  0  0  0  0  0  0
  -27.5046  -12.4894   28.1907 N   0  0  0  0  0  0  0  0  0  0  0  0
  -29.9538  -13.7377   20.5740 N   0  0  0  0  0  0  0  0  0  0  0  0
  -25.4243  -15.0960   20.4051 N   0  0  0  0  0  0  0  0  0  0  0  0
  -21.8503  -12.5572   21.4899 N   0  0  0  0  0  0  0  0  0  0  0  0
  -24.8433  -13.5993   30.4228 N   0  0  0  0  0  0  0  0  0  0  0  0
  -29.9311  -10.2997   27.3102 N   0  0  0  0  0  0  0  0  0  0  0  0
  -31.8586  -15.1404   20.5302 N   0  0  0  0  0  0  0  0  0  0  0  0
  -30.2307   -9.6400   23.7686 N   0  3  0  0  0  0  0  0  0  0  0  0
  -22.5894  -14.7102   21.2123 O   0  0  0  0  0  0  0  0  0  0  0  0
  -27.1544  -13.8643   30.3174 O   0  0  0  0  0  0  0  0  0  0  0  0
  -27.6822  -10.3434   29.0848 O   0  0  0  0  0  0  0  0  0  0  0  0
  -30.6075  -11.7297   25.6147 O   0  0  0  0  0  0  0  0  0  0  0  0
  -29.9895  -15.7637   21.7020 O   0  0  0  0  0  0  0  0  0  0  0  0
  -21.6943   -6.9911   21.6602 O   0  0  0  0  0  0  0  0  0  0  0  0
  -27.5532  -17.7861   25.0291 O   0  0  0  0  0  0  0  0  0  1  0  0
  -16.6173   -6.6644   19.5339 F   0  0  0  0  0  0  0  0  0  0  0  0
  -19.7423   -8.8183   22.3625 F   0  0  0  0  0  0  0  0  0  0  0  0
  1  2  1  0  0  0  0
  1  5  2  0  0  0  0
  2  6  2  0  0  0  0
  3  8  2  0  0  0  0
  3 16  1  0  0  0  0
  4  9  1  0  0  0  0
  4 16  2  0  0  0  0
  5 18  1  0  0  0  0
  6 20  1  0  0  0  0
  7 10  2  0  0  0  0
  7 19  1  0  0  0  0
  8 22  1  0  0  0  0
  9 22  2  0  0  0  0
 10 23  1  0  0  0  0
 11 12  2  0  0  0  0
 11 24  1  0  0  0  0
 12 25  1  0  0  0  0
 13 21  1  0  0  0  0
 13 23  2  0  0  0  0
 14 25  2  0  0  0  0
 14 26  1  0  0  0  0
 15 28  2  0  0  0  0
 15 66  1  0  0  0  0
 16 27  1  0  0  0  0
 17 27  1  0  0  0  0
 17 29  2  0  0  0  0
 17 31  1  0  0  0  0
 18 20  2  0  0  0  0
 18 36  1  0  0  0  0
 19 21  2  0  0  0  0
 19 37  1  0  0  0  0
 20 45  1  0  0  0  0
 21 38  1  0  0  0  0
 22 80  1  0  0  0  0
 23 81  1  0  0  0  0
 24 26  2  0  0  0  0
 24 80  1  0  0  0  0
 25 82  1  0  0  0  0
 26 83  1  0  0  0  0
 27 63  2  0  0  0  0
 28 54  1  0  0  0  0
 28 64  1  0  0  0  0
 29 65  1  0  0  0  0
 29 69  1  0  0  0  0
 30 55  1  0  0  0  0
 30 64  1  0  0  0  0
 30 66  2  0  0  0  0
 31 70  1  0  0  0  0
 31 75  2  0  0  0  0
 32 46  1  0  0  0  0
 32 71  1  0  0  0  0
 32 76  2  0  0  0  0
 33 60  1  0  0  0  0
 33 67  1  0  0  0  0
 33 77  2  0  0  0  0
 34 61  1  0  0  0  0
 34 72  1  0  0  0  0
 34 78  2  0  0  0  0
 35 68  1  0  0  0  0
 35 73  1  0  0  0  0
 35 79  2  0  0  0  0
 36 39  1  0  0  0  0
 37 46  1  0  0  0  0
 38 67  1  0  0  0  0
 39 41  1  0  0  0  0
 40 42  1  0  0  0  0
 40 43  1  0  0  0  0
 41 45  1  0  0  0  0
 42 47  1  0  0  0  0
 43 68  1  0  0  0  0
 44 47  1  0  0  0  0
 44 68  1  0  0  0  0
 45 71  1  0  0  0  0
 46 67  1  0  0  0  0
 47 65  1  0  0  0  0
 48 61  1  0  0  0  0
 49 62  1  0  0  0  0
 50 62  1  0  0  0  0
 51 62  1  0  0  0  0
 52 64  1  0  0  0  0
 53 74  1  0  0  0  0
 54 58  1  0  0  0  0
 55 56  1  0  0  0  0
 56 57  1  0  0  0  0
 57 59  1  0  0  0  0
 58 73  1  0  0  0  0
 59 81  1  0  0  0  0
 60 62  1  0  0  0  0
 60 72  1  0  0  0  0
 61 74  1  0  0  0  0
 63 65  1  0  0  0  0
M  CHG  2  66   1  74   1
M  ISO  4  35 100  59 101  73 100  81 101
M  END
> <Batch ID>
0042

> <Smiles>
CNC(C)C(=O)NC(C(=O)N1Cc2cc([101O:1][101CH2:1]CCCc3ncc(CC[100NH:0][100C:0](=O)N4CCCC(n5nc(-c6ccc(Oc7ccc(F)cc7F)cc6)c(C(N)=O)c5N)C4)n3C)ccc2CC1C(=O)NC1CCCc2ccccc21)C(C)(C)C

> <Shape>
0.172

> <Color>
0.171

> <Negative vol penalty>
0.000

$$$$

  -OEChem-04052317123D

 83 91  0     1  0  0  0  0  0999 V2000
  -25.7462   -6.6327   35.3897 C   0  0  0  0  0  0  0  0  0  0  0  0
  -26.4697   -6.8788   34.2272 C   0  0  0  0  0  0  0  0  0  0  0  0
  -23.2870   -9.8003   19.9127 C   0  0  0  0  0  0  0  0  0  0  0  0
  -23.7348   -9.9416   22.2826 C   0  0  0  0  0  0  0  0  0  0  0  0
  -24.4086   -7.0176   35.4716 C   0  0  0  0  0  0  0  0  0  0  0  0
  -25.8556   -7.5090   33.1454 C   0  0  0  0  0  0  0  0  0  0  0  0
  -28.7510  -11.1292   31.1068 C   0  0  0  0  0  0  0  0  0  0  0  0
  -22.5597   -8.6283   20.1200 C   0  0  0  0  0  0  0  0  0  0  0  0
  -23.0074   -8.7697   22.4899 C   0  0  0  0  0  0  0  0  0  0  0  0
  -29.7880  -10.7192   30.2700 C   0  0  0  0  0  0  0  0  0  0  0  0
  -19.4762   -7.7703   21.2105 C   0  0  0  0  0  0  0  0  0  0  0  0
  -18.2480   -7.6462   20.5612 C   0  0  0  0  0  0  0  0  0  0  0  0
  -28.4303  -11.2359   28.3442 C   0  0  0  0  0  0  0  0  0  0  0  0
  -19.0498   -5.6724   19.4216 C   0  0  0  0  0  0  0  0  0  0  0  0
  -33.5564   -8.3417   26.7937 C   0  0  0  0  0  0  0  0  0  0  0  0
  -32.9175   -7.2967   24.8500 C   0  0  0  0  0  0  0  0  0  0  0  0
  -23.8747  -10.4569   20.9940 C   0  0  0  0  0  0  0  0  0  0  0  0
  -24.1359  -12.9867   20.7946 C   0  0  0  0  0  0  0  0  0  0  0  0
  -23.7806   -7.6615   34.3938 C   0  0  0  0  0  0  0  0  0  0  0  0
  -27.5398  -11.5861   30.5677 C   0  0  0  0  0  0  0  0  0  0  0  0
  -24.5080   -7.9016   33.2125 C   0  0  0  0  0  0  0  0  0  0  0  0
  -27.3804  -11.6535   29.1762 C   0  0  0  0  0  0  0  0  0  0  0  0
  -32.8974   -9.5098   26.4458 C   0  0  0  0  0  0  0  0  0  0  0  0
  -32.2232   -9.5393   25.2301 C   0  0  0  0  0  0  0  0  0  0  0  0
  -22.4198   -8.1130   21.4086 C   0  0  0  0  0  0  0  0  0  0  0  0
  -29.6268  -10.7698   28.8886 C   0  0  0  0  0  0  0  0  0  0  0  0
  -20.4913   -6.8455   20.9653 C   0  0  0  0  0  0  0  0  0  0  0  0
  -18.0347   -6.5973   19.6668 C   0  0  0  0  0  0  0  0  0  0  0  0
  -20.2781   -5.7965   20.0709 C   0  0  0  0  0  0  0  0  0  0  0  0
  -32.2284   -8.4157   24.4111 C   0  0  0  0  0  0  0  0  0  0  0  0
  -24.6267  -11.6673   20.7804 C   0  0  0  0  0  0  0  0  0  0  0  0
  -25.2382  -13.7658   20.5408 C   0  0  0  0  0  0  0  0  0  0  0  0
  -22.8029  -13.4652   21.0175 C   0  0  0  0  0  0  0  0  0  0  0  0
  -24.5151  -10.6188   30.7086 C   0  0  0  0  0  0  0  0  0  0  0  0
  -23.9662  -13.3753   29.0890 C   0  0  0  0  0  0  0  0  0  0  0  0
  -25.1751  -15.8201   27.0376 C   0  0  0  0  0  0  0  0  0  0  0  0
  -31.1076  -12.9194   21.3685 C   0  0  0  0  0  0  0  0  0  0  0  0
  -22.3195   -8.0165   34.5118 C   0  0  0  0  0  0  0  0  0  0  0  0
  -26.4405  -12.0499   31.4837 C   0  0  0  0  0  0  0  0  0  0  0  0
  -26.1072  -12.1553   28.5473 C   0  0  0  0  0  0  0  0  0  0  0  0
  -21.8485   -9.0158   33.4583 C   0  0  0  0  0  0  0  0  0  0  0  0
  -29.4632  -13.6586   18.2982 C   0  0  0  0  0  0  0  0  0  0  0  0
  -22.3514   -8.6113   32.0762 C   0  0  0  0  0  0  0  0  0  0  0  0
  -27.9929  -13.3511   18.5875 C   0  0  0  0  0  0  0  0  0  0  0  0
  -30.3949  -12.6789   19.0082 C   0  0  0  0  0  0  0  0  0  0  0  0
  -28.7057  -12.2513   20.7511 C   0  0  0  0  0  0  0  0  0  0  0  0
  -23.8841   -8.6052   32.0268 C   0  0  1  0  0  0  0  0  0  0  0  0
  -25.0626  -12.0128   30.8300 C   0  0  1  0  0  0  0  0  0  0  0  0
  -27.7292  -13.2469   20.1017 C   0  0  2  0  0  0  0  0  0  0  0  0
  -24.4796  -17.9211   25.8545 C   0  0  0  0  0  0  0  0  0  0  0  0
  -22.4898  -11.7087   27.0026 C   0  0  0  0  0  0  0  0  0  0  0  0
  -22.6572  -13.6522   25.4332 C   0  0  0  0  0  0  0  0  0  0  0  0
  -21.3906  -13.8823   27.5699 C   0  0  0  0  0  0  0  0  0  0  0  0
  -27.1596  -17.4461   28.5130 C   0  0  0  0  0  0  0  0  0  0  0  0
  -32.9272  -10.6977   27.3765 C   0  0  0  0  0  0  0  0  0  0  0  0
  -31.4999  -10.7828   24.8198 C   0  0  0  0  0  0  0  0  0  0  0  0
  -32.4094  -11.8845   24.2456 C   0  0  0  0  0  0  0  0  0  0  0  0
  -31.6664  -13.1338   23.7770 C   0  0  0  0  0  0  0  0  0  0  0  0
  -31.9696  -10.5374   28.5522 C   0  0  0  0  0  0  0  0  0  1  0  0
  -23.9155  -13.7672   27.6320 C   0  0  1  0  0  0  0  0  0  0  0  0
  -25.0917  -17.3338   27.1167 C   0  0  2  0  0  0  0  0  0  0  0  0
  -22.6367  -13.2413   26.9210 C   0  0  0  0  0  0  0  0  0  0  0  0
  -33.5839   -7.2304   26.0244 N   0  0  0  0  0  0  0  0  0  0  0  0
  -25.9385  -11.6077   20.5366 N   0  0  0  0  0  0  0  0  0  0  0  0
  -26.2815  -12.8994   20.3952 N   0  0  0  0  0  0  0  0  0  0  0  0
  -25.0593  -12.5915   29.4849 N   0  0  0  0  0  0  0  0  0  0  0  0
  -30.0937  -12.6283   20.4409 N   0  0  0  0  0  0  0  0  0  0  0  0
  -25.4071  -15.1005   20.4300 N   0  0  0  0  0  0  0  0  0  0  0  0
  -21.7894  -12.5291   21.2641 N   0  0  0  0  0  0  0  0  0  0  0  0
  -24.3916   -9.9558   31.9146 N   0  0  0  0  0  0  0  0  0  0  0  0
  -24.0666  -15.2178   27.5940 N   0  0  0  0  0  0  0  0  0  0  0  0
  -30.7361  -12.8547   22.7058 N   0  0  0  0  0  0  0  0  0  0  0  0
  -26.4505  -17.9188   27.2962 N   0  3  0  0  0  0  0  0  0  0  0  0
  -22.5158  -14.6858   20.9823 O   0  0  0  0  0  0  0  0  0  0  0  0
  -24.2249  -10.1779   29.6026 O   0  0  0  0  0  0  0  0  0  0  0  0
  -23.0728  -13.7566   29.8493 O   0  0  0  0  0  0  0  0  0  0  0  0
  -26.1266  -15.2311   26.5295 O   0  0  0  0  0  0  0  0  0  0  0  0
  -32.2572  -13.2203   21.0297 O   0  0  0  0  0  0  0  0  0  0  0  0
  -21.7099   -6.9695   21.6113 O   0  0  0  0  0  0  0  0  0  0  0  0
  -30.6372  -10.3696   28.0695 O   0  0  0  0  0  0  0  0  0  1  0  0
  -16.8547   -6.4774   19.0445 F   0  0  0  0  0  0  0  0  0  0  0  0
  -21.2490   -4.9043   19.8322 F   0  0  0  0  0  0  0  0  0  0  0  0
  -31.4169   -8.3758   22.8949 Cl  0  0  0  0  0  0  0  0  0  0  0  0
  1  2  1  0  0  0  0
  1  5  2  0  0  0  0
  2  6  2  0  0  0  0
  3  8  2  0  0  0  0
  3 17  1  0  0  0  0
  4  9  1  0  0  0  0
  4 17  2  0  0  0  0
  5 19  1  0  0  0  0
  6 21  1  0  0  0  0
  7 10  2  0  0  0  0
  7 20  1  0  0  0  0
  8 25  1  0  0  0  0
  9 25  2  0  0  0  0
 10 26  1  0  0  0  0
 11 12  2  0  0  0  0
 11 27  1  0  0  0  0
 12 28  1  0  0  0  0
 13 22  1  0  0  0  0
 13 26  2  0  0  0  0
 14 28  2  0  0  0  0
 14 29  1  0  0  0  0
 15 23  1  0  0  0  0
 15 63  2  0  0  0  0
 16 30  2  0  0  0  0
 16 63  1  0  0  0  0
 17 31  1  0  0  0  0
 18 31  1  0  0  0  0
 18 32  2  0  0  0  0
 18 33  1  0  0  0  0
 19 21  2  0  0  0  0
 19 38  1  0  0  0  0
 20 22  2  0  0  0  0
 20 39  1  0  0  0  0
 21 47  1  0  0  0  0
 22 40  1  0  0  0  0
 23 24  2  0  0  0  0
 23 55  1  0  0  0  0
 24 30  1  0  0  0  0
 24 56  1  0  0  0  0
 25 79  1  0  0  0  0
 26 80  1  0  0  0  0
 27 29  2  0  0  0  0
 27 79  1  0  0  0  0
 28 81  1  0  0  0  0
 29 82  1  0  0  0  0
 30 83  1  0  0  0  0
 31 64  2  0  0  0  0
 32 65  1  0  0  0  0
 32 68  1  0  0  0  0
 33 69  1  0  0  0  0
 33 74  2  0  0  0  0
 34 48  1  0  0  0  0
 34 70  1  0  0  0  0
 34 75  2  0  0  0  0
 35 60  1  0  0  0  0
 35 66  1  0  0  0  0
 35 76  2  0  0  0  0
 36 61  1  0  0  0  0
 36 71  1  0  0  0  0
 36 77  2  0  0  0  0
 37 67  1  0  0  0  0
 37 72  1  0  0  0  0
 37 78  2  0  0  0  0
 38 41  1  0  0  0  0
 39 48  1  0  0  0  0
 40 66  1  0  0  0  0
 41 43  1  0  0  0  0
 42 44  1  0  0  0  0
 42 45  1  0  0  0  0
 43 47  1  0  0  0  0
 44 49  1  0  0  0  0
 45 67  1  0  0  0  0
 46 49  1  0  0  0  0
 46 67  1  0  0  0  0
 47 70  1  0  0  0  0
 48 66  1  0  0  0  0
 49 65  1  0  0  0  0
 50 61  1  0  0  0  0
 51 62  1  0  0  0  0
 52 62  1  0  0  0  0
 53 62  1  0  0  0  0
 54 73  1  0  0  0  0
 55 59  1  0  0  0  0
 56 57  1  0  0  0  0
 57 58  1  0  0  0  0
 58 72  1  0  0  0  0
 59 80  1  0  0  0  0
 60 62  1  0  0  0  0
 60 71  1  0  0  0  0
 61 73  1  0  0  0  0
 64 65  1  0  0  0  0
M  CHG  1  73   1
M  ISO  4  37 100  59 101  72 100  80 101
M  END
> <Batch ID>
0042

> <Smiles>
CNC(C)C(=O)NC(C(=O)N1Cc2cc([101O:1][101CH2:1]Cc3cncc(Cl)c3CCC[100NH:0][100C:0](=O)N3CCCC(n4nc(-c5ccc(Oc6ccc(F)cc6F)cc5)c(C(N)=O)c4N)C3)ccc2CC1C(=O)NC1CCCc2ccccc21)C(C)(C)C

> <Shape>
0.118

> <Color>
0.178

> <Negative vol penalty>
0.000

$$$$

  -OEChem-04052317123D

 80 88  0     1  0  0  0  0  0999 V2000
  -20.5147  -31.2573   22.5878 C   0  0  0  0  0  0  0  0  0  0  0  0
  -21.7422  -30.6124   22.4745 C   0  0  0  0  0  0  0  0  0  0  0  0
  -26.8418  -18.2560   19.6547 C   0  0  0  0  0  0  0  0  0  0  0  0
  -26.6377  -17.4699   21.9301 C   0  0  0  0  0  0  0  0  0  0  0  0
  -19.3432  -30.5094   22.6981 C   0  0  0  0  0  0  0  0  0  0  0  0
  -21.7990  -29.2192   22.4726 C   0  0  0  0  0  0  0  0  0  0  0  0
  -24.8779  -27.4053   18.8844 C   0  0  0  0  0  0  0  0  0  0  0  0
  -26.0525  -17.1928   19.2165 C   0  0  0  0  0  0  0  0  0  0  0  0
  -25.8483  -16.4066   21.4919 C   0  0  0  0  0  0  0  0  0  0  0  0
  -26.2482  -27.4536   19.1372 C   0  0  0  0  0  0  0  0  0  0  0  0
  -26.3146  -13.3989   20.0197 C   0  0  0  0  0  0  0  0  0  0  0  0
  -26.5914  -12.1318   20.5328 C   0  0  0  0  0  0  0  0  0  0  0  0
  -26.2091  -25.1238   19.7614 C   0  0  0  0  0  0  0  0  0  0  0  0
  -31.2752  -27.3772   18.8566 C   0  0  0  0  0  0  0  0  0  0  0  0
  -24.3567  -12.0122   21.4433 C   0  0  0  0  0  0  0  0  0  0  0  0
  -32.1948  -27.2140   21.4205 C   0  0  0  0  0  0  0  0  0  0  0  0
  -27.1345  -18.3946   21.0115 C   0  0  0  0  0  0  0  0  0  0  0  0
  -29.2760  -19.7787   21.0875 C   0  0  0  0  0  0  0  0  0  0  0  0
  -19.3848  -29.1062   22.6879 C   0  0  0  0  0  0  0  0  0  0  0  0
  -24.1597  -26.2167   19.0791 C   0  0  0  0  0  0  0  0  0  0  0  0
  -20.6271  -28.4518   22.5843 C   0  0  0  0  0  0  0  0  0  0  0  0
  -24.8303  -25.0623   19.5080 C   0  0  0  0  0  0  0  0  0  0  0  0
  -30.3714  -27.4446   19.9110 C   0  0  0  0  0  0  0  0  0  0  0  0
  -30.8318  -27.3622   21.2204 C   0  0  0  0  0  0  0  0  0  0  0  0
  -25.5557  -16.2681   20.1351 C   0  0  0  0  0  0  0  0  0  0  0  0
  -26.9134  -26.3135   19.5785 C   0  0  0  0  0  0  0  0  0  0  0  0
  -25.0588  -13.9728   20.2185 C   0  0  0  0  0  0  0  0  0  0  0  0
  -25.6125  -11.4384   21.2446 C   0  0  0  0  0  0  0  0  0  0  0  0
  -24.0799  -13.2794   20.9303 C   0  0  0  0  0  0  0  0  0  0  0  0
  -27.9503  -19.4924   21.4648 C   0  0  0  0  0  0  0  0  0  0  0  0
  -32.6184  -27.2286   19.1625 C   0  0  0  0  0  0  0  0  0  0  0  0
  -29.5951  -20.9149   21.7902 C   0  0  0  0  0  0  0  0  0  0  0  0
  -30.1415  -19.0802   20.1828 C   0  0  0  0  0  0  0  0  0  0  0  0
  -21.7578  -25.3301   20.9627 C   0  0  0  0  0  0  0  0  0  0  0  0
  -21.9228  -22.5930   19.2297 C   0  0  0  0  0  0  0  0  0  0  0  0
  -23.7200  -19.9616   17.5375 C   0  0  0  0  0  0  0  0  0  0  0  0
  -28.2980  -26.0171   23.6423 C   0  0  0  0  0  0  0  0  0  0  0  0
  -18.0965  -28.3406   22.8573 C   0  0  0  0  0  0  0  0  0  0  0  0
  -22.6870  -26.1740   18.7763 C   0  0  0  0  0  0  0  0  0  0  0  0
  -24.1089  -23.7562   19.7130 C   0  0  0  0  0  0  0  0  0  0  0  0
  -18.2077  -26.8681   22.4703 C   0  0  0  0  0  0  0  0  0  0  0  0
  -27.1628  -23.2437   25.5648 C   0  0  0  0  0  0  0  0  0  0  0  0
  -19.4632  -26.2499   23.0771 C   0  0  0  0  0  0  0  0  0  0  0  0
  -27.3700  -22.0457   24.6363 C   0  0  0  0  0  0  0  0  0  0  0  0
  -26.7261  -24.4869   24.7930 C   0  0  0  0  0  0  0  0  0  0  0  0
  -27.8133  -23.6614   22.7411 C   0  0  0  0  0  0  0  0  0  0  0  0
  -20.7274  -26.9421   22.5535 C   0  0  1  0  0  0  0  0  0  0  0  0
  -21.9604  -25.0454   19.5014 C   0  0  1  0  0  0  0  0  0  0  0  0
  -28.3084  -22.3985   23.4666 C   0  0  2  0  0  0  0  0  0  0  0  0
  -33.6169  -27.1523   18.0561 C   0  0  0  0  0  0  0  0  0  0  0  0
  -22.8801  -18.0028   16.2129 C   0  0  0  0  0  0  0  0  0  0  0  0
  -22.1442  -21.0816   21.8711 C   0  0  0  0  0  0  0  0  0  0  0  0
  -22.9552  -19.0926   20.5849 C   0  0  0  0  0  0  0  0  0  0  0  0
  -20.6677  -19.9966   20.1689 C   0  0  0  0  0  0  0  0  0  0  0  0
  -25.3326  -20.7199   15.1746 C   0  0  0  0  0  0  0  0  0  0  0  0
  -29.9075  -27.4282   22.3863 C   0  0  0  0  0  0  0  0  0  0  0  0
  -28.9096  -27.6059   19.6134 C   0  0  0  0  0  0  0  0  0  1  0  0
  -22.6798  -21.2928   19.3542 C   0  0  1  0  0  0  0  0  0  0  0  0
  -23.4383  -19.4159   16.1493 C   0  0  2  0  0  0  0  0  0  0  0  0
  -22.1252  -20.3909   20.4929 C   0  0  0  0  0  0  0  0  0  0  0  0
  -33.1032  -27.1448   20.4217 N   0  0  0  0  0  0  0  0  0  0  0  0
  -27.4608  -20.3754   22.3393 N   0  0  0  0  0  0  0  0  0  0  0  0
  -28.4845  -21.2276   22.5175 N   0  0  0  0  0  0  0  0  0  0  0  0
  -22.6683  -23.7668   19.4096 N   0  0  0  0  0  0  0  0  0  0  0  0
  -27.6588  -24.7676   23.6988 N   0  0  0  0  0  0  0  0  0  0  0  0
  -30.7146  -21.6669   21.8508 N   0  0  0  0  0  0  0  0  0  0  0  0
  -30.1304  -19.4470   18.8302 N   0  0  0  0  0  0  0  0  0  0  0  0
  -21.0386  -26.4823   21.2170 N   0  0  0  0  0  0  0  0  0  0  0  0
  -22.6488  -20.6743   18.0333 N   0  0  0  0  0  0  0  0  0  0  0  0
  -29.1709  -26.1985   22.5765 N   0  0  0  0  0  0  0  0  0  0  0  0
  -24.6888  -19.3912   15.3388 N   0  3  0  0  0  0  0  0  0  0  0  0
  -30.8902  -18.1470   20.5597 O   0  0  0  0  0  0  0  0  0  0  0  0
  -22.2185  -24.5605   21.7978 O   0  0  0  0  0  0  0  0  0  0  0  0
  -20.7161  -22.5682   18.9749 O   0  0  0  0  0  0  0  0  0  0  0  0
  -24.7826  -19.7713   18.1251 O   0  0  0  0  0  0  0  0  0  0  0  0
  -28.1090  -26.9033   24.4825 O   0  0  0  0  0  0  0  0  0  0  0  0
  -24.7853  -15.2306   19.7078 O   0  0  0  0  0  0  0  0  0  0  0  0
  -28.2507  -26.3581   19.8265 O   0  0  0  0  0  0  0  0  0  1  0  0
  -25.8780  -10.2209   21.7359 F   0  0  0  0  0  0  0  0  0  0  0  0
  -22.8713  -13.8251   21.1234 F   0  0  0  0  0  0  0  0  0  0  0  0
  1  2  1  0  0  0  0
  1  5  2  0  0  0  0
  2  6  2  0  0  0  0
  3  8  2  0  0  0  0
  3 17  1  0  0  0  0
  4  9  1  0  0  0  0
  4 17  2  0  0  0  0
  5 19  1  0  0  0  0
  6 21  1  0  0  0  0
  7 10  2  0  0  0  0
  7 20  1  0  0  0  0
  8 25  1  0  0  0  0
  9 25  2  0  0  0  0
 10 26  1  0  0  0  0
 11 12  2  0  0  0  0
 11 27  1  0  0  0  0
 12 28  1  0  0  0  0
 13 22  1  0  0  0  0
 13 26  2  0  0  0  0
 14 23  1  0  0  0  0
 14 31  2  0  0  0  0
 15 28  2  0  0  0  0
 15 29  1  0  0  0  0
 16 24  1  0  0  0  0
 16 61  2  0  0  0  0
 17 30  1  0  0  0  0
 18 30  1  0  0  0  0
 18 32  2  0  0  0  0
 18 33  1  0  0  0  0
 19 21  2  0  0  0  0
 19 38  1  0  0  0  0
 20 22  2  0  0  0  0
 20 39  1  0  0  0  0
 21 47  1  0  0  0  0
 22 40  1  0  0  0  0
 23 24  2  0  0  0  0
 23 57  1  0  0  0  0
 24 56  1  0  0  0  0
 25 77  1  0  0  0  0
 26 78  1  0  0  0  0
 27 29  2  0  0  0  0
 27 77  1  0  0  0  0
 28 79  1  0  0  0  0
 29 80  1  0  0  0  0
 30 62  2  0  0  0  0
 31 50  1  0  0  0  0
 31 61  1  0  0  0  0
 32 63  1  0  0  0  0
 32 66  1  0  0  0  0
 33 67  1  0  0  0  0
 33 72  2  0  0  0  0
 34 48  1  0  0  0  0
 34 68  1  0  0  0  0
 34 73  2  0  0  0  0
 35 58  1  0  0  0  0
 35 64  1  0  0  0  0
 35 74  2  0  0  0  0
 36 59  1  0  0  0  0
 36 69  1  0  0  0  0
 36 75  2  0  0  0  0
 37 65  1  0  0  0  0
 37 70  1  0  0  0  0
 37 76  2  0  0  0  0
 38 41  1  0  0  0  0
 39 48  1  0  0  0  0
 40 64  1  0  0  0  0
 41 43  1  0  0  0  0
 42 44  1  0  0  0  0
 42 45  1  0  0  0  0
 43 47  1  0  0  0  0
 44 49  1  0  0  0  0
 45 65  1  0  0  0  0
 46 49  1  0  0  0  0
 46 65  1  0  0  0  0
 47 68  1  0  0  0  0
 48 64  1  0  0  0  0
 49 63  1  0  0  0  0
 51 59  1  0  0  0  0
 52 60  1  0  0  0  0
 53 60  1  0  0  0  0
 54 60  1  0  0  0  0
 55 71  1  0  0  0  0
 56 70  1  0  0  0  0
 57 78  1  0  0  0  0
 58 60  1  0  0  0  0
 58 69  1  0  0  0  0
 59 71  1  0  0  0  0
 62 63  1  0  0  0  0
M  CHG  1  71   1
M  ISO  4  37 100  57 101  70 100  78 101
M  END
> <Batch ID>
0042

> <Smiles>
CNC(C)C(=O)NC(C(=O)N1Cc2cc([101O:1][101CH2:1]c3cc(C)ncc3C[100NH:0][100C:0](=O)N3CCCC(n4nc(-c5ccc(Oc6ccc(F)cc6F)cc5)c(C(N)=O)c4N)C3)ccc2CC1C(=O)NC1CCCc2ccccc21)C(C)(C)C

> <Shape>
0.195

> <Color>
0.071

> <Negative vol penalty>
0.000

$$$$

  -OEChem-04052317123D

 87 95  0     1  0  0  0  0  0999 V2000
  -17.2400  -30.5504   19.8667 C   0  0  0  0  0  0  0  0  0  0  0  0
  -18.5469  -30.5478   19.3899 C   0  0  0  0  0  0  0  0  0  0  0  0
  -26.7582  -11.9921   20.8945 C   0  0  0  0  0  0  0  0  0  0  0  0
  -25.6292  -13.7641   19.7019 C   0  0  0  0  0  0  0  0  0  0  0  0
  -16.9992  -30.4667   21.2375 C   0  0  0  0  0  0  0  0  0  0  0  0
  -19.6139  -30.4628   20.2836 C   0  0  0  0  0  0  0  0  0  0  0  0
  -24.9549  -27.6058   19.3794 C   0  0  0  0  0  0  0  0  0  0  0  0
  -25.5317  -11.5349   21.3764 C   0  0  0  0  0  0  0  0  0  0  0  0
  -24.4026  -13.3069   20.1838 C   0  0  0  0  0  0  0  0  0  0  0  0
  -26.2124  -28.0682   18.9940 C   0  0  0  0  0  0  0  0  0  0  0  0
  -22.6647   -9.6842   22.6295 C   0  0  0  0  0  0  0  0  0  0  0  0
  -22.4232   -8.3110   22.5891 C   0  0  0  0  0  0  0  0  0  0  0  0
  -26.8737  -28.1829   21.3111 C   0  0  0  0  0  0  0  0  0  0  0  0
  -22.6853   -8.3356   20.1874 C   0  0  0  0  0  0  0  0  0  0  0  0
  -31.4666  -24.0879   19.9222 C   0  0  0  0  0  0  0  0  0  0  0  0
  -26.8070  -13.1067   20.0573 C   0  0  0  0  0  0  0  0  0  0  0  0
  -28.7188  -13.1908   18.3705 C   0  0  0  0  0  0  0  0  0  0  0  0
  -18.0635  -30.3708   22.1479 C   0  0  0  0  0  0  0  0  0  0  0  0
  -24.6431  -27.4387   20.7364 C   0  0  0  0  0  0  0  0  0  0  0  0
  -19.3871  -30.3791   21.6679 C   0  0  0  0  0  0  0  0  0  0  0  0
  -25.6124  -27.7158   21.7110 C   0  0  0  0  0  0  0  0  0  0  0  0
  -30.2594  -23.4198   19.8925 C   0  0  0  0  0  0  0  0  0  0  0  0
  -24.3539  -12.1923   21.0210 C   0  0  0  0  0  0  0  0  0  0  0  0
  -27.1711  -28.3595   19.9600 C   0  0  0  0  0  0  0  0  0  0  0  0
  -22.9165  -10.3831   21.4489 C   0  0  0  0  0  0  0  0  0  0  0  0
  -22.4335   -7.6367   21.3681 C   0  0  0  0  0  0  0  0  0  0  0  0
  -22.9268   -9.7088   20.2279 C   0  0  0  0  0  0  0  0  0  0  0  0
  -28.0737  -13.5799   19.5597 C   0  0  0  0  0  0  0  0  0  0  0  0
  -29.1979  -24.1281   19.3675 C   0  0  0  0  0  0  0  0  0  0  0  0
  -29.8812  -13.9223   18.3553 C   0  0  0  0  0  0  0  0  0  0  0  0
  -30.5253  -25.9338   18.9873 C   0  0  0  0  0  0  0  0  0  0  0  0
  -28.3044  -12.2521   17.3691 C   0  0  0  0  0  0  0  0  0  0  0  0
  -22.5112  -28.7108   22.7214 C   0  0  0  0  0  0  0  0  0  0  0  0
  -23.6832  -26.4939   24.7791 C   0  0  0  0  0  0  0  0  0  0  0  0
  -26.2719  -24.4620   25.6828 C   0  0  0  0  0  0  0  0  0  0  0  0
  -31.5403  -19.0565   20.7139 C   0  0  0  0  0  0  0  0  0  0  0  0
  -17.7550  -30.3301   23.6236 C   0  0  0  0  0  0  0  0  0  0  0  0
  -23.2910  -26.9136   21.1345 C   0  0  0  0  0  0  0  0  0  0  0  0
  -25.3345  -27.5339   23.1800 C   0  0  0  0  0  0  0  0  0  0  0  0
  -18.9307  -29.8653   24.4791 C   0  0  0  0  0  0  0  0  0  0  0  0
  -33.0562  -15.9866   21.2649 C   0  0  0  0  0  0  0  0  0  0  0  0
  -20.2112  -30.5811   24.0608 C   0  0  0  0  0  0  0  0  0  0  0  0
  -32.0202  -14.9730   20.7809 C   0  0  0  0  0  0  0  0  0  0  0  0
  -32.3879  -17.1309   22.0177 C   0  0  0  0  0  0  0  0  0  0  0  0
  -30.2956  -16.8438   20.7289 C   0  0  0  0  0  0  0  0  0  0  0  0
  -20.5703  -30.2632   22.6043 C   0  0  1  0  0  0  0  0  0  0  0  0
  -22.9099  -27.2702   22.5680 C   0  0  1  0  0  0  0  0  0  0  0  0
  -30.9180  -15.6620   19.9574 C   0  0  2  0  0  0  0  0  0  0  0  0
  -26.8913  -24.3070   18.4010 C   0  0  0  0  0  0  0  0  0  0  0  0
  -27.5938  -17.4952   18.6309 C   0  0  0  0  0  0  0  0  0  0  0  0
  -26.9496  -22.7945   27.4313 C   0  0  0  0  0  0  0  0  0  0  0  0
  -24.1673  -28.7672   26.7559 C   0  0  0  0  0  0  0  0  0  0  0  0
  -25.6733  -27.2352   28.0417 C   0  0  0  0  0  0  0  0  0  0  0  0
  -23.2574  -26.6732   27.7766 C   0  0  0  0  0  0  0  0  0  0  0  0
  -26.5740  -22.3072   23.6767 C   0  0  0  0  0  0  0  0  0  0  0  0
  -30.1375  -22.0293   20.3996 C   0  0  0  0  0  0  0  0  0  0  0  0
  -27.8430  -23.5060   19.2846 C   0  0  0  0  0  0  0  0  0  0  0  0
  -30.6746  -27.3452   18.4783 C   0  0  0  0  0  0  0  0  0  0  0  0
  -29.0048  -18.0568   18.7374 C   0  0  0  0  0  0  0  0  0  0  0  0
  -30.7619  -28.3944   19.5887 C   0  0  0  0  0  0  0  0  0  0  0  0
  -30.6616  -20.9649   19.4241 C   0  0  0  0  0  0  0  0  0  0  0  0
  -29.1539  -19.0639   19.8714 C   0  0  0  0  0  0  0  0  0  0  0  0
  -29.4979  -28.4835   20.4360 C   0  0  0  0  0  0  0  0  0  1  0  0
  -24.8050  -26.4598   25.7888 C   0  0  1  0  0  0  0  0  0  0  0  0
  -26.3138  -22.9932   26.0642 C   0  0  2  0  0  0  0  0  0  0  0  0
  -24.4806  -27.2892   27.0632 C   0  0  0  0  0  0  0  0  0  0  0  0
  -31.6359  -25.3500   19.4763 N   0  0  0  0  0  0  0  0  0  0  0  0
  -28.7687  -14.4879   20.2500 N   0  0  0  0  0  0  0  0  0  0  0  0
  -29.2954  -25.3915   18.9042 N   0  0  0  0  0  0  0  0  0  0  0  0
  -29.8626  -14.6754   19.4922 N   0  0  0  0  0  0  0  0  0  0  0  0
  -23.9956  -27.0241   23.5193 N   0  0  0  0  0  0  0  0  0  0  0  0
  -31.3432  -17.7586   21.2082 N   0  0  0  0  0  0  0  0  0  0  0  0
  -30.9073  -13.9882   17.4805 N   0  0  0  0  0  0  0  0  0  0  0  0
  -27.0822  -11.5880   17.5408 N   0  0  0  0  0  0  0  0  0  0  0  0
  -21.1670  -28.9484   22.5062 N   0  0  0  0  0  0  0  0  0  0  0  0
  -25.0792  -25.0504   26.0468 N   0  0  0  0  0  0  0  0  0  0  0  0
  -30.5049  -19.6165   19.9505 N   0  0  0  0  0  0  0  0  0  0  0  0
  -27.1016  -22.2203   25.0627 N   0  3  0  0  0  0  0  0  0  0  0  0
  -29.0050  -11.9973   16.3603 O   0  0  0  0  0  0  0  0  0  0  0  0
  -23.3598  -29.5447   23.0147 O   0  0  0  0  0  0  0  0  0  0  0  0
  -22.5726  -26.0593   25.0942 O   0  0  0  0  0  0  0  0  0  0  0  0
  -27.2054  -25.0314   25.1216 O   0  0  0  0  0  0  0  0  0  0  0  0
  -32.5809  -19.6848   20.9476 O   0  0  0  0  0  0  0  0  0  0  0  0
  -23.1569  -11.7463   21.4908 O   0  0  0  0  0  0  0  0  0  0  0  0
  -28.3992  -28.8115   19.5865 O   0  0  0  0  0  0  0  0  0  1  0  0
  -22.2031   -6.3178   21.3295 F   0  0  0  0  0  0  0  0  0  0  0  0
  -23.1693  -10.3747   19.0905 F   0  0  0  0  0  0  0  0  0  0  0  0
  1  2  1  0  0  0  0
  1  5  2  0  0  0  0
  2  6  2  0  0  0  0
  3  8  2  0  0  0  0
  3 16  1  0  0  0  0
  4  9  1  0  0  0  0
  4 16  2  0  0  0  0
  5 18  1  0  0  0  0
  6 20  1  0  0  0  0
  7 10  2  0  0  0  0
  7 19  1  0  0  0  0
  8 23  1  0  0  0  0
  9 23  2  0  0  0  0
 10 24  1  0  0  0  0
 11 12  2  0  0  0  0
 11 25  1  0  0  0  0
 12 26  1  0  0  0  0
 13 21  1  0  0  0  0
 13 24  2  0  0  0  0
 14 26  2  0  0  0  0
 14 27  1  0  0  0  0
 15 22  1  0  0  0  0
 15 67  2  0  0  0  0
 16 28  1  0  0  0  0
 17 28  1  0  0  0  0
 17 30  2  0  0  0  0
 17 32  1  0  0  0  0
 18 20  2  0  0  0  0
 18 37  1  0  0  0  0
 19 21  2  0  0  0  0
 19 38  1  0  0  0  0
 20 46  1  0  0  0  0
 21 39  1  0  0  0  0
 22 29  2  0  0  0  0
 22 56  1  0  0  0  0
 23 84  1  0  0  0  0
 24 85  1  0  0  0  0
 25 27  2  0  0  0  0
 25 84  1  0  0  0  0
 26 86  1  0  0  0  0
 27 87  1  0  0  0  0
 28 68  2  0  0  0  0
 29 57  1  0  0  0  0
 29 69  1  0  0  0  0
 30 70  1  0  0  0  0
 30 73  1  0  0  0  0
 31 58  1  0  0  0  0
 31 67  1  0  0  0  0
 31 69  2  0  0  0  0
 32 74  1  0  0  0  0
 32 79  2  0  0  0  0
 33 47  1  0  0  0  0
 33 75  1  0  0  0  0
 33 80  2  0  0  0  0
 34 64  1  0  0  0  0
 34 71  1  0  0  0  0
 34 81  2  0  0  0  0
 35 65  1  0  0  0  0
 35 76  1  0  0  0  0
 35 82  2  0  0  0  0
 36 72  1  0  0  0  0
 36 77  1  0  0  0  0
 36 83  2  0  0  0  0
 37 40  1  0  0  0  0
 38 47  1  0  0  0  0
 39 71  1  0  0  0  0
 40 42  1  0  0  0  0
 41 43  1  0  0  0  0
 41 44  1  0  0  0  0
 42 46  1  0  0  0  0
 43 48  1  0  0  0  0
 44 72  1  0  0  0  0
 45 48  1  0  0  0  0
 45 72  1  0  0  0  0
 46 75  1  0  0  0  0
 47 71  1  0  0  0  0
 48 70  1  0  0  0  0
 49 57  1  0  0  0  0
 50 59  1  0  0  0  0
 51 65  1  0  0  0  0
 52 66  1  0  0  0  0
 53 66  1  0  0  0  0
 54 66  1  0  0  0  0
 55 78  1  0  0  0  0
 56 61  1  0  0  0  0
 58 60  1  0  0  0  0
 59 62  1  0  0  0  0
 60 63  1  0  0  0  0
 61 77  1  0  0  0  0
 62 77  1  0  0  0  0
 63 85  1  0  0  0  0
 64 66  1  0  0  0  0
 64 76  1  0  0  0  0
 65 78  1  0  0  0  0
 68 70  1  0  0  0  0
M  CHG  1  78   1
M  ISO  4  36 100  63 101  77 100  85 101
M  END
> <Batch ID>
0042

> <Smiles>
CCC[100N:0](CCc1cnc(CC[101CH2:1][101O:1]c2ccc3c(c2)CN(C(=O)C(NC(=O)C(C)NC)C(C)(C)C)C(C(=O)NC2CCCc4ccccc42)C3)nc1CC)[100C:0](=O)N1CCCC(n2nc(-c3ccc(Oc4ccc(F)cc4F)cc3)c(C(N)=O)c2N)C1

> <Shape>
0.279

> <Color>
0.088

> <Negative vol penalty>
0.000

$$$$

  -OEChem-04052317123D

 84 92  0     1  0  0  0  0  0999 V2000
  -26.2886  -20.2770   26.2860 C   0  0  0  0  0  0  0  0  0  0  0  0
  -25.9832  -21.4043   25.5300 C   0  0  0  0  0  0  0  0  0  0  0  0
  -29.9090  -18.2000   18.2548 C   0  0  0  0  0  0  0  0  0  0  0  0
  -28.9916  -17.5857   20.4037 C   0  0  0  0  0  0  0  0  0  0  0  0
  -26.0942  -19.0052   25.7488 C   0  0  0  0  0  0  0  0  0  0  0  0
  -25.4841  -21.2603   24.2360 C   0  0  0  0  0  0  0  0  0  0  0  0
  -21.5638  -24.3300   23.3129 C   0  0  0  0  0  0  0  0  0  0  0  0
  -30.4304  -16.9144   18.1099 C   0  0  0  0  0  0  0  0  0  0  0  0
  -29.5129  -16.3001   20.2588 C   0  0  0  0  0  0  0  0  0  0  0  0
  -21.8517  -25.6677   23.0452 C   0  0  0  0  0  0  0  0  0  0  0  0
  -30.2938  -12.7494   20.2930 C   0  0  0  0  0  0  0  0  0  0  0  0
  -29.4666  -11.6734   20.6146 C   0  0  0  0  0  0  0  0  0  0  0  0
  -21.5995  -25.2433   20.6840 C   0  0  0  0  0  0  0  0  0  0  0  0
  -27.8880  -12.3829   18.9290 C   0  0  0  0  0  0  0  0  0  0  0  0
  -24.0075  -30.3082   21.7753 C   0  0  0  0  0  0  0  0  0  0  0  0
  -29.1897  -18.5357   19.4017 C   0  0  0  0  0  0  0  0  0  0  0  0
  -27.3841  -20.3189   19.1416 C   0  0  0  0  0  0  0  0  0  0  0  0
  -25.5834  -18.8454   24.4510 C   0  0  0  0  0  0  0  0  0  0  0  0
  -21.3018  -23.4350   22.2656 C   0  0  0  0  0  0  0  0  0  0  0  0
  -25.2840  -19.9851   23.6804 C   0  0  0  0  0  0  0  0  0  0  0  0
  -21.3060  -23.8954   20.9411 C   0  0  0  0  0  0  0  0  0  0  0  0
  -30.2323  -15.9644   19.1119 C   0  0  0  0  0  0  0  0  0  0  0  0
  -21.8724  -26.1238   21.7305 C   0  0  0  0  0  0  0  0  0  0  0  0
  -29.9180  -13.6423   19.2894 C   0  0  0  0  0  0  0  0  0  0  0  0
  -28.2638  -11.4901   19.9326 C   0  0  0  0  0  0  0  0  0  0  0  0
  -28.7151  -13.4591   18.6074 C   0  0  0  0  0  0  0  0  0  0  0  0
  -28.6513  -19.8637   19.5523 C   0  0  0  0  0  0  0  0  0  0  0  0
  -25.3742  -30.4294   21.7985 C   0  0  0  0  0  0  0  0  0  0  0  0
  -27.3586  -21.6419   19.5098 C   0  0  0  0  0  0  0  0  0  0  0  0
  -26.3247  -19.6093   18.4859 C   0  0  0  0  0  0  0  0  0  0  0  0
  -22.6817  -20.7845   21.1820 C   0  0  0  0  0  0  0  0  0  0  0  0
  -20.0886  -20.6960   19.2351 C   0  0  0  0  0  0  0  0  0  0  0  0
  -17.5701  -22.3992   17.6850 C   0  0  0  0  0  0  0  0  0  0  0  0
  -28.2302  -25.5626   23.2267 C   0  0  0  0  0  0  0  0  0  0  0  0
  -25.4349  -17.4510   23.8959 C   0  0  0  0  0  0  0  0  0  0  0  0
  -20.9666  -22.0012   22.5726 C   0  0  0  0  0  0  0  0  0  0  0  0
  -21.0115  -22.9795   19.7823 C   0  0  0  0  0  0  0  0  0  0  0  0
  -24.5494  -17.3808   22.6545 C   0  0  0  0  0  0  0  0  0  0  0  0
  -31.0584  -24.6773   21.1495 C   0  0  0  0  0  0  0  0  0  0  0  0
  -24.9264  -18.4805   21.6669 C   0  0  0  0  0  0  0  0  0  0  0  0
  -30.5719  -23.3744   20.5124 C   0  0  0  0  0  0  0  0  0  0  0  0
  -30.5970  -24.7897   22.5995 C   0  0  0  0  0  0  0  0  0  0  0  0
  -28.6355  -23.3661   22.1526 C   0  0  0  0  0  0  0  0  0  0  0  0
  -24.7174  -19.8696   22.2819 C   0  0  1  0  0  0  0  0  0  0  0  0
  -21.2210  -21.0632   21.3967 C   0  0  1  0  0  0  0  0  0  0  0  0
  -29.0503  -23.2032   20.6790 C   0  0  2  0  0  0  0  0  0  0  0  0
  -15.6310  -22.0620   16.1281 C   0  0  0  0  0  0  0  0  0  0  0  0
  -22.0187  -20.4809   16.8818 C   0  0  0  0  0  0  0  0  0  0  0  0
  -20.1268  -21.1003   15.3635 C   0  0  0  0  0  0  0  0  0  0  0  0
  -20.0042  -19.0083   16.7167 C   0  0  0  0  0  0  0  0  0  0  0  0
  -15.6295  -23.3398   19.7119 C   0  0  0  0  0  0  0  0  0  0  0  0
  -27.5173  -28.8056   23.2610 C   0  0  0  0  0  0  0  0  0  0  0  0
  -26.6836  -29.9356   23.8784 C   0  0  0  0  0  0  0  0  0  0  0  0
  -22.4210  -29.3267   19.9973 C   0  0  0  0  0  0  0  0  0  0  0  0
  -27.9802  -27.7868   24.2978 C   0  0  0  0  0  0  0  0  0  0  0  0
  -22.1580  -27.8280   20.0964 C   0  0  0  0  0  0  0  0  0  1  0  0
  -19.7587  -21.2455   17.8683 C   0  0  1  0  0  0  0  0  0  0  0  0
  -16.0816  -22.1204   17.5794 C   0  0  2  0  0  0  0  0  0  0  0  0
  -26.2345  -30.9970   22.8447 C   0  0  0  0  0  0  0  0  0  0  0  0
  -20.4846  -20.4758   16.7290 C   0  0  0  0  0  0  0  0  0  0  0  0
  -29.3783  -20.8199   20.1365 N   0  0  0  0  0  0  0  0  0  0  0  0
  -25.9005  -29.9180   20.6448 N   0  0  0  0  0  0  0  0  0  0  0  0
  -24.8942  -29.4790   19.8966 N   0  0  0  0  0  0  0  0  0  0  0  0
  -23.7601  -29.7140   20.5762 N   0  0  0  0  0  0  0  0  0  0  0  0
  -28.5652  -21.8892   20.0955 N   0  0  0  0  0  0  0  0  0  0  0  0
  -20.6956  -21.5851   20.1335 N   0  0  0  0  0  0  0  0  0  0  0  0
  -29.1379  -24.6364   22.6866 N   0  0  0  0  0  0  0  0  0  0  0  0
  -26.4220  -22.6062   19.3863 N   0  0  0  0  0  0  0  0  0  0  0  0
  -26.5168  -18.2551   18.1801 N   0  0  0  0  0  0  0  0  0  0  0  0
  -23.3132  -20.2199   22.2737 N   0  0  0  0  0  0  0  0  0  0  0  0
  -18.3035  -21.2343   17.7642 N   0  0  0  0  0  0  0  0  0  0  0  0
  -28.7876  -26.7370   23.7174 N   0  0  0  0  0  0  0  0  0  0  0  0
  -15.3044  -23.1879   18.2703 N   0  3  0  0  0  0  0  0  0  0  0  0
  -25.2462  -20.1640   18.1657 O   0  0  0  0  0  0  0  0  0  0  0  0
  -23.1974  -21.0600   20.1050 O   0  0  0  0  0  0  0  0  0  0  0  0
  -19.8113  -19.5232   19.4985 O   0  0  0  0  0  0  0  0  0  0  0  0
  -18.0358  -23.5365   17.6924 O   0  0  0  0  0  0  0  0  0  0  0  0
  -27.0116  -25.3603   23.2640 O   0  0  0  0  0  0  0  0  0  0  0  0
  -30.7407  -14.7097   18.9707 O   0  0  0  0  0  0  0  0  0  0  0  0
  -22.1538  -27.4288   21.4664 O   0  0  0  0  0  0  0  0  0  1  0  0
  -27.4703  -10.4558   20.2406 F   0  0  0  0  0  0  0  0  0  0  0  0
  -28.3494  -14.3129   17.6414 F   0  0  0  0  0  0  0  0  0  0  0  0
  -27.3859  -31.5825   22.3557 F   0  0  0  0  0  0  0  0  0  0  0  0
  -25.6350  -32.0155   23.5593 F   0  0  0  0  0  0  0  0  0  0  0  0
  1  2  1  0  0  0  0
  1  5  2  0  0  0  0
  2  6  2  0  0  0  0
  3  8  2  0  0  0  0
  3 16  1  0  0  0  0
  4  9  1  0  0  0  0
  4 16  2  0  0  0  0
  5 18  1  0  0  0  0
  6 20  1  0  0  0  0
  7 10  2  0  0  0  0
  7 19  1  0  0  0  0
  8 22  1  0  0  0  0
  9 22  2  0  0  0  0
 10 23  1  0  0  0  0
 11 12  2  0  0  0  0
 11 24  1  0  0  0  0
 12 25  1  0  0  0  0
 13 21  1  0  0  0  0
 13 23  2  0  0  0  0
 14 25  2  0  0  0  0
 14 26  1  0  0  0  0
 15 28  2  0  0  0  0
 15 64  1  0  0  0  0
 16 27  1  0  0  0  0
 17 27  1  0  0  0  0
 17 29  2  0  0  0  0
 17 30  1  0  0  0  0
 18 20  2  0  0  0  0
 18 35  1  0  0  0  0
 19 21  2  0  0  0  0
 19 36  1  0  0  0  0
 20 44  1  0  0  0  0
 21 37  1  0  0  0  0
 22 79  1  0  0  0  0
 23 80  1  0  0  0  0
 24 26  2  0  0  0  0
 24 79  1  0  0  0  0
 25 81  1  0  0  0  0
 26 82  1  0  0  0  0
 27 61  2  0  0  0  0
 28 59  1  0  0  0  0
 28 62  1  0  0  0  0
 29 65  1  0  0  0  0
 29 68  1  0  0  0  0
 30 69  1  0  0  0  0
 30 74  2  0  0  0  0
 31 45  1  0  0  0  0
 31 70  1  0  0  0  0
 31 75  2  0  0  0  0
 32 57  1  0  0  0  0
 32 66  1  0  0  0  0
 32 76  2  0  0  0  0
 33 58  1  0  0  0  0
 33 71  1  0  0  0  0
 33 77  2  0  0  0  0
 34 67  1  0  0  0  0
 34 72  1  0  0  0  0
 34 78  2  0  0  0  0
 35 38  1  0  0  0  0
 36 45  1  0  0  0  0
 37 66  1  0  0  0  0
 38 40  1  0  0  0  0
 39 41  1  0  0  0  0
 39 42  1  0  0  0  0
 40 44  1  0  0  0  0
 41 46  1  0  0  0  0
 42 67  1  0  0  0  0
 43 46  1  0  0  0  0
 43 67  1  0  0  0  0
 44 70  1  0  0  0  0
 45 66  1  0  0  0  0
 46 65  1  0  0  0  0
 47 58  1  0  0  0  0
 48 60  1  0  0  0  0
 49 60  1  0  0  0  0
 50 60  1  0  0  0  0
 51 73  1  0  0  0  0
 52 53  1  0  0  0  0
 52 55  1  0  0  0  0
 53 59  1  0  0  0  0
 54 56  1  0  0  0  0
 54 64  1  0  0  0  0
 55 72  1  0  0  0  0
 56 80  1  0  0  0  0
 57 60  1  0  0  0  0
 57 71  1  0  0  0  0
 58 73  1  0  0  0  0
 59 83  1  0  0  0  0
 59 84  1  0  0  0  0
 61 65  1  0  0  0  0
 62 63  2  0  0  0  0
 63 64  1  0  0  0  0
M  CHG  1  73   1
M  ISO  4  34 100  56 101  72 100  80 101
M  END
> <Batch ID>
0042

> <Smiles>
CNC(C)C(=O)NC(C(=O)N1Cc2cc([101O:1][101CH2:1]Cn3cc(C(F)(F)CCC[100NH:0][100C:0](=O)N4CCCC(n5nc(-c6ccc(Oc7ccc(F)cc7F)cc6)c(C(N)=O)c5N)C4)nn3)ccc2CC1C(=O)NC1CCCc2ccccc21)C(C)(C)C

> <Shape>
0.175

> <Color>
0.054

> <Negative vol penalty>
0.000

$$$$

  -OEChem-04052317123D

 84 92  0     1  0  0  0  0  0999 V2000
  -25.1026  -21.6807   14.6178 C   0  0  0  0  0  0  0  0  0  0  0  0
  -25.9775  -20.7550   15.1774 C   0  0  0  0  0  0  0  0  0  0  0  0
  -25.9856  -27.5742   18.8965 C   0  0  0  0  0  0  0  0  0  0  0  0
  -26.3765  -27.7503   21.2742 C   0  0  0  0  0  0  0  0  0  0  0  0
  -23.9312  -22.0261   15.2904 C   0  0  0  0  0  0  0  0  0  0  0  0
  -25.6820  -20.1750   16.4105 C   0  0  0  0  0  0  0  0  0  0  0  0
  -26.4894  -15.1759   16.4493 C   0  0  0  0  0  0  0  0  0  0  0  0
  -24.9113  -28.4569   19.0077 C   0  0  0  0  0  0  0  0  0  0  0  0
  -25.3022  -28.6330   21.3854 C   0  0  0  0  0  0  0  0  0  0  0  0
  -27.8097  -14.7450   16.5712 C   0  0  0  0  0  0  0  0  0  0  0  0
  -21.9282  -28.4491   21.4993 C   0  0  0  0  0  0  0  0  0  0  0  0
  -21.0306  -28.2485   22.5480 C   0  0  0  0  0  0  0  0  0  0  0  0
  -27.4518  -14.3323   18.9208 C   0  0  0  0  0  0  0  0  0  0  0  0
  -21.5390  -30.4498   23.4041 C   0  0  0  0  0  0  0  0  0  0  0  0
  -32.0183  -17.9755   21.4558 C   0  0  0  0  0  0  0  0  0  0  0  0
  -26.7182  -27.2209   20.0297 C   0  0  0  0  0  0  0  0  0  0  0  0
  -29.1749  -26.6352   19.6701 C   0  0  0  0  0  0  0  0  0  0  0  0
  -23.6165  -21.4428   16.5279 C   0  0  0  0  0  0  0  0  0  0  0  0
  -25.6420  -15.1984   17.5665 C   0  0  0  0  0  0  0  0  0  0  0  0
  -24.5060  -20.5139   17.1010 C   0  0  0  0  0  0  0  0  0  0  0  0
  -26.1204  -14.7614   18.8100 C   0  0  0  0  0  0  0  0  0  0  0  0
  -31.2853  -17.3246   22.4235 C   0  0  0  0  0  0  0  0  0  0  0  0
  -31.3418  -15.9385   22.1362 C   0  0  0  0  0  0  0  0  0  0  0  0
  -24.5696  -28.9863   20.2521 C   0  0  0  0  0  0  0  0  0  0  0  0
  -28.2920  -14.3259   17.8077 C   0  0  0  0  0  0  0  0  0  0  0  0
  -22.6313  -29.6500   21.4031 C   0  0  0  0  0  0  0  0  0  0  0  0
  -20.8360  -29.2489   23.5003 C   0  0  0  0  0  0  0  0  0  0  0  0
  -22.4367  -30.6503   22.3555 C   0  0  0  0  0  0  0  0  0  0  0  0
  -27.8277  -26.3087   19.9156 C   0  0  0  0  0  0  0  0  0  0  0  0
  -32.1078  -15.7844   21.0018 C   0  0  0  0  0  0  0  0  0  0  0  0
  -29.8241  -25.4249   19.6539 C   0  0  0  0  0  0  0  0  0  0  0  0
  -29.7850  -27.9179   19.4744 C   0  0  0  0  0  0  0  0  0  0  0  0
  -24.0718  -17.4668   19.1453 C   0  0  0  0  0  0  0  0  0  0  0  0
  -22.8377  -14.9414   20.7645 C   0  0  0  0  0  0  0  0  0  0  0  0
  -23.1769  -11.6968   21.7667 C   0  0  0  0  0  0  0  0  0  0  0  0
  -28.5710  -20.2547   22.2139 C   0  0  0  0  0  0  0  0  0  0  0  0
  -22.3618  -21.8829   17.2398 C   0  0  0  0  0  0  0  0  0  0  0  0
  -24.2126  -15.6407   17.4128 C   0  0  0  0  0  0  0  0  0  0  0  0
  -25.2453  -14.7472   20.0358 C   0  0  0  0  0  0  0  0  0  0  0  0
  -21.9385  -20.9428   18.3655 C   0  0  0  0  0  0  0  0  0  0  0  0
  -29.0949  -20.7972   18.6743 C   0  0  0  0  0  0  0  0  0  0  0  0
  -23.1365  -20.5810   19.2377 C   0  0  0  0  0  0  0  0  0  0  0  0
  -28.9549  -22.3173   18.5756 C   0  0  0  0  0  0  0  0  0  0  0  0
  -28.1132  -20.2163   19.6877 C   0  0  0  0  0  0  0  0  0  0  0  0
  -28.0713  -22.3299   20.9544 C   0  0  0  0  0  0  0  0  0  0  0  0
  -24.2082  -19.8445   18.4251 C   0  0  1  0  0  0  0  0  0  0  0  0
  -23.5876  -16.1083   18.7236 C   0  0  1  0  0  0  0  0  0  0  0  0
  -29.0526  -22.9802   19.9624 C   0  0  2  0  0  0  0  0  0  0  0  0
  -30.6986  -14.8558   22.9090 C   0  0  0  0  0  0  0  0  0  0  0  0
  -32.5256  -17.8533   18.2769 C   0  0  0  0  0  0  0  0  0  0  0  0
  -22.0241   -9.9200   23.1126 C   0  0  0  0  0  0  0  0  0  0  0  0
  -23.7287  -16.3164   23.3385 C   0  0  0  0  0  0  0  0  0  0  0  0
  -23.4293  -14.1329   24.5263 C   0  0  0  0  0  0  0  0  0  0  0  0
  -21.4712  -15.2467   23.4548 C   0  0  0  0  0  0  0  0  0  0  0  0
  -22.9309   -9.9136   19.4175 C   0  0  0  0  0  0  0  0  0  0  0  0
  -30.5750  -17.9649   23.5485 C   0  0  0  0  0  0  0  0  0  0  0  0
  -32.4968  -14.5350   20.2528 C   0  0  0  0  0  0  0  0  0  0  0  0
  -31.7072  -14.3210   18.9597 C   0  0  0  0  0  0  0  0  0  0  0  0
  -33.3378  -17.3193   19.4443 C   0  0  0  0  0  0  0  0  0  0  0  0
  -29.0555  -18.0971   23.3396 C   0  0  0  0  0  0  0  0  0  0  0  0
  -30.2149  -14.1133   19.1908 C   0  0  0  0  0  0  0  0  0  1  0  0
  -23.2327  -14.1661   21.9982 C   0  0  1  0  0  0  0  0  0  0  0  0
  -22.2124  -10.5252   21.7302 C   0  0  2  0  0  0  0  0  0  0  0  0
  -22.9828  -14.9675   23.3069 C   0  0  0  0  0  0  0  0  0  0  0  0
  -27.6313  -24.9940   20.0457 N   0  0  0  0  0  0  0  0  0  0  0  0
  -32.5139  -17.0292   20.5971 N   0  0  0  0  0  0  0  0  0  0  0  0
  -28.8636  -24.4837   19.8814 N   0  0  0  0  0  0  0  0  0  0  0  0
  -23.8571  -15.1947   19.8358 N   0  0  0  0  0  0  0  0  0  0  0  0
  -28.2705  -20.8773   20.9910 N   0  0  0  0  0  0  0  0  0  0  0  0
  -31.1171  -25.0847   19.4672 N   0  0  0  0  0  0  0  0  0  0  0  0
  -28.9722  -29.0587   19.5228 N   0  0  0  0  0  0  0  0  0  0  0  0
  -23.8269  -18.4635   18.2201 N   0  0  0  0  0  0  0  0  0  0  0  0
  -22.5172  -12.8966   21.9290 N   0  0  0  0  0  0  0  0  0  0  0  0
  -28.7376  -18.8761   22.1636 N   0  0  0  0  0  0  0  0  0  0  0  0
  -22.7220   -9.4629   20.8176 N   0  3  0  0  0  0  0  0  0  0  0  0
  -31.0117  -28.0473   19.2465 O   0  0  0  0  0  0  0  0  0  0  0  0
  -24.6252  -17.6010   20.2304 O   0  0  0  0  0  0  0  0  0  0  0  0
  -21.6663  -15.3024   20.6264 O   0  0  0  0  0  0  0  0  0  0  0  0
  -24.3942  -11.5608   21.6654 O   0  0  0  0  0  0  0  0  0  0  0  0
  -28.6877  -20.8819   23.2723 O   0  0  0  0  0  0  0  0  0  0  0  0
  -23.5216  -29.8478   20.3610 O   0  0  0  0  0  0  0  0  0  0  0  0
  -29.5805  -13.9055   17.9296 O   0  0  0  0  0  0  0  0  0  1  0  0
  -19.9728  -29.0568   24.5064 F   0  0  0  0  0  0  0  0  0  0  0  0
  -23.1084  -31.8066   22.2677 F   0  0  0  0  0  0  0  0  0  0  0  0
  1  2  1  0  0  0  0
  1  5  2  0  0  0  0
  2  6  2  0  0  0  0
  3  8  2  0  0  0  0
  3 16  1  0  0  0  0
  4  9  1  0  0  0  0
  4 16  2  0  0  0  0
  5 18  1  0  0  0  0
  6 20  1  0  0  0  0
  7 10  2  0  0  0  0
  7 19  1  0  0  0  0
  8 24  1  0  0  0  0
  9 24  2  0  0  0  0
 10 25  1  0  0  0  0
 11 12  2  0  0  0  0
 11 26  1  0  0  0  0
 12 27  1  0  0  0  0
 13 21  1  0  0  0  0
 13 25  2  0  0  0  0
 14 27  2  0  0  0  0
 14 28  1  0  0  0  0
 15 22  2  0  0  0  0
 15 66  1  0  0  0  0
 16 29  1  0  0  0  0
 17 29  1  0  0  0  0
 17 31  2  0  0  0  0
 17 32  1  0  0  0  0
 18 20  2  0  0  0  0
 18 37  1  0  0  0  0
 19 21  2  0  0  0  0
 19 38  1  0  0  0  0
 20 46  1  0  0  0  0
 21 39  1  0  0  0  0
 22 23  1  0  0  0  0
 22 56  1  0  0  0  0
 23 30  2  0  0  0  0
 23 49  1  0  0  0  0
 24 81  1  0  0  0  0
 25 82  1  0  0  0  0
 26 28  2  0  0  0  0
 26 81  1  0  0  0  0
 27 83  1  0  0  0  0
 28 84  1  0  0  0  0
 29 65  2  0  0  0  0
 30 57  1  0  0  0  0
 30 66  1  0  0  0  0
 31 67  1  0  0  0  0
 31 70  1  0  0  0  0
 32 71  1  0  0  0  0
 32 76  2  0  0  0  0
 33 47  1  0  0  0  0
 33 72  1  0  0  0  0
 33 77  2  0  0  0  0
 34 62  1  0  0  0  0
 34 68  1  0  0  0  0
 34 78  2  0  0  0  0
 35 63  1  0  0  0  0
 35 73  1  0  0  0  0
 35 79  2  0  0  0  0
 36 69  1  0  0  0  0
 36 74  1  0  0  0  0
 36 80  2  0  0  0  0
 37 40  1  0  0  0  0
 38 47  1  0  0  0  0
 39 68  1  0  0  0  0
 40 42  1  0  0  0  0
 41 43  1  0  0  0  0
 41 44  1  0  0  0  0
 42 46  1  0  0  0  0
 43 48  1  0  0  0  0
 44 69  1  0  0  0  0
 45 48  1  0  0  0  0
 45 69  1  0  0  0  0
 46 72  1  0  0  0  0
 47 68  1  0  0  0  0
 48 67  1  0  0  0  0
 50 59  1  0  0  0  0
 51 63  1  0  0  0  0
 52 64  1  0  0  0  0
 53 64  1  0  0  0  0
 54 64  1  0  0  0  0
 55 75  1  0  0  0  0
 56 60  1  0  0  0  0
 57 58  1  0  0  0  0
 58 61  1  0  0  0  0
 59 66  1  0  0  0  0
 60 74  1  0  0  0  0
 61 82  1  0  0  0  0
 62 64  1  0  0  0  0
 62 73  1  0  0  0  0
 63 75  1  0  0  0  0
 65 67  1  0  0  0  0
M  CHG  1  75   1
M  ISO  4  36 100  61 101  74 100  82 101
M  END
> <Batch ID>
0042

> <Smiles>
CCn1cc(CC[100NH:0][100C:0](=O)N2CCCC(n3nc(-c4ccc(Oc5ccc(F)cc5F)cc4)c(C(N)=O)c3N)C2)c(C)c1CC[101CH2:1][101O:1]c1ccc2c(c1)CN(C(=O)C(NC(=O)C(C)NC)C(C)(C)C)C(C(=O)NC1CCCc3ccccc31)C2

> <Shape>
0.245

> <Color>
0.056

> <Negative vol penalty>
0.000

$$$$

  -OEChem-04052317123D

 86 94  0     1  0  0  0  0  0999 V2000
  -17.3298  -30.2375   23.2007 C   0  0  0  0  0  0  0  0  0  0  0  0
  -18.6958  -30.4539   23.0500 C   0  0  0  0  0  0  0  0  0  0  0  0
  -26.1918  -13.2849   19.7808 C   0  0  0  0  0  0  0  0  0  0  0  0
  -24.5656  -15.0480   20.0703 C   0  0  0  0  0  0  0  0  0  0  0  0
  -16.8450  -28.9413   23.3705 C   0  0  0  0  0  0  0  0  0  0  0  0
  -19.5779  -29.3742   23.0703 C   0  0  0  0  0  0  0  0  0  0  0  0
  -24.7463  -28.7819   19.8387 C   0  0  0  0  0  0  0  0  0  0  0  0
  -25.4557  -12.4654   20.6364 C   0  0  0  0  0  0  0  0  0  0  0  0
  -23.8294  -14.2284   20.9260 C   0  0  0  0  0  0  0  0  0  0  0  0
  -26.0853  -28.9948   20.1636 C   0  0  0  0  0  0  0  0  0  0  0  0
  -22.6780  -10.5448   20.4680 C   0  0  0  0  0  0  0  0  0  0  0  0
  -22.4695   -9.2218   20.0783 C   0  0  0  0  0  0  0  0  0  0  0  0
  -26.3346  -26.6451   20.6497 C   0  0  0  0  0  0  0  0  0  0  0  0
  -23.6056   -8.4565   22.0684 C   0  0  0  0  0  0  0  0  0  0  0  0
  -30.7043  -26.4101   20.0335 C   0  0  0  0  0  0  0  0  0  0  0  0
  -25.7468  -14.5762   19.4978 C   0  0  0  0  0  0  0  0  0  0  0  0
  -26.3746  -15.5311   17.2170 C   0  0  0  0  0  0  0  0  0  0  0  0
  -17.7208  -27.8443   23.3832 C   0  0  0  0  0  0  0  0  0  0  0  0
  -24.1876  -27.4988   19.9275 C   0  0  0  0  0  0  0  0  0  0  0  0
  -19.1046  -28.0622   23.2418 C   0  0  0  0  0  0  0  0  0  0  0  0
  -24.9890  -26.4182   20.3229 C   0  0  0  0  0  0  0  0  0  0  0  0
  -24.2745  -12.9371   21.2090 C   0  0  0  0  0  0  0  0  0  0  0  0
  -26.8789  -27.9268   20.5719 C   0  0  0  0  0  0  0  0  0  0  0  0
  -23.3504  -10.8237   21.6579 C   0  0  0  0  0  0  0  0  0  0  0  0
  -22.9333   -8.1777   20.8785 C   0  0  0  0  0  0  0  0  0  0  0  0
  -23.8141   -9.7795   22.4581 C   0  0  0  0  0  0  0  0  0  0  0  0
  -26.5070  -15.4235   18.6144 C   0  0  0  0  0  0  0  0  0  0  0  0
  -30.6459  -27.6209   19.3793 C   0  0  0  0  0  0  0  0  0  0  0  0
  -31.1632  -25.3622   18.0534 C   0  0  0  0  0  0  0  0  0  0  0  0
  -31.1040  -26.5729   17.3989 C   0  0  0  0  0  0  0  0  0  0  0  0
  -27.3173  -16.4615   16.8534 C   0  0  0  0  0  0  0  0  0  0  0  0
  -25.4794  -14.8509   16.3272 C   0  0  0  0  0  0  0  0  0  0  0  0
  -21.8488  -26.1836   21.6315 C   0  0  0  0  0  0  0  0  0  0  0  0
  -22.4566  -23.6089   19.7543 C   0  0  0  0  0  0  0  0  0  0  0  0
  -24.3781  -22.4009   17.5728 C   0  0  0  0  0  0  0  0  0  0  0  0
  -29.9287  -20.7893   20.3158 C   0  0  0  0  0  0  0  0  0  0  0  0
  -17.1546  -26.4661   23.6170 C   0  0  0  0  0  0  0  0  0  0  0  0
  -22.7486  -27.2811   19.5478 C   0  0  0  0  0  0  0  0  0  0  0  0
  -24.4425  -25.0177   20.4151 C   0  0  0  0  0  0  0  0  0  0  0  0
  -18.1196  -25.3411   23.2517 C   0  0  0  0  0  0  0  0  0  0  0  0
  -31.5505  -18.2366   18.1815 C   0  0  0  0  0  0  0  0  0  0  0  0
  -19.5072  -25.6228   23.8189 C   0  0  0  0  0  0  0  0  0  0  0  0
  -30.4408  -17.2028   17.9971 C   0  0  0  0  0  0  0  0  0  0  0  0
  -31.4094  -18.9910   19.5001 C   0  0  0  0  0  0  0  0  0  0  0  0
  -28.9686  -18.5953   19.5051 C   0  0  0  0  0  0  0  0  0  0  0  0
  -20.0908  -26.9144   23.2334 C   0  0  1  0  0  0  0  0  0  0  0  0
  -22.1507  -26.0222   20.1685 C   0  0  1  0  0  0  0  0  0  0  0  0
  -29.0549  -17.8498   18.1649 C   0  0  2  0  0  0  0  0  0  0  0  0
  -31.5288  -28.1143   15.4676 C   0  0  0  0  0  0  0  0  0  0  0  0
  -25.3132  -20.5401   16.1727 C   0  0  0  0  0  0  0  0  0  0  0  0
  -22.7664  -21.9742   22.3121 C   0  0  0  0  0  0  0  0  0  0  0  0
  -23.8933  -20.1964   20.9566 C   0  0  0  0  0  0  0  0  0  0  0  0
  -21.5247  -20.8146   20.4769 C   0  0  0  0  0  0  0  0  0  0  0  0
  -28.2631  -22.5156   20.8860 C   0  0  0  0  0  0  0  0  0  0  0  0
  -23.6435  -23.7707   15.0543 C   0  0  0  0  0  0  0  0  0  0  0  0
  -30.3533  -28.8902   20.1420 C   0  0  0  0  0  0  0  0  0  0  0  0
  -31.4512  -24.0961   17.3213 C   0  0  0  0  0  0  0  0  0  0  0  0
  -31.3252  -26.6729   15.9283 C   0  0  0  0  0  0  0  0  0  0  0  0
  -30.7402  -22.8862   17.9482 C   0  0  0  0  0  0  0  0  0  0  0  0
  -29.2171  -23.0438   17.9165 C   0  0  0  0  0  0  0  0  0  0  0  0
  -28.4910  -21.8472   18.5224 C   0  0  0  0  0  0  0  0  0  0  0  0
  -28.8605  -29.1923   20.2141 C   0  0  0  0  0  0  0  0  0  1  0  0
  -23.3763  -22.4149   19.8423 C   0  0  1  0  0  0  0  0  0  0  0  0
  -24.3029  -21.6747   16.2419 C   0  0  2  0  0  0  0  0  0  0  0  0
  -22.9003  -21.3766   20.8972 C   0  0  0  0  0  0  0  0  0  0  0  0
  -30.9641  -25.2590   19.3823 N   0  0  0  0  0  0  0  0  0  0  0  0
  -27.4589  -16.2216   19.1051 N   0  0  0  0  0  0  0  0  0  0  0  0
  -30.8446  -27.7240   18.0502 N   0  0  0  0  0  0  0  0  0  0  0  0
  -27.9333  -16.8396   18.0100 N   0  0  0  0  0  0  0  0  0  0  0  0
  -23.0281  -24.8570   20.0395 N   0  0  0  0  0  0  0  0  0  0  0  0
  -30.0695  -19.5589   19.6531 N   0  0  0  0  0  0  0  0  0  0  0  0
  -27.6711  -16.9847   15.6604 N   0  0  0  0  0  0  0  0  0  0  0  0
  -24.5747  -13.9267   16.8673 N   0  0  0  0  0  0  0  0  0  0  0  0
  -20.5873  -26.6829   21.8939 N   0  0  0  0  0  0  0  0  0  0  0  0
  -23.4860  -21.8835   18.4880 N   0  0  0  0  0  0  0  0  0  0  0  0
  -28.8664  -21.6137   19.9152 N   0  0  0  0  0  0  0  0  0  0  0  0
  -24.5777  -22.6176   15.1210 N   0  3  0  0  0  0  0  0  0  0  0  0
  -25.4929  -15.0445   15.0879 O   0  0  0  0  0  0  0  0  0  0  0  0
  -22.6969  -25.8763   22.4609 O   0  0  0  0  0  0  0  0  0  0  0  0
  -21.2764  -23.4411   19.4371 O   0  0  0  0  0  0  0  0  0  0  0  0
  -25.1534  -23.3315   17.7810 O   0  0  0  0  0  0  0  0  0  0  0  0
  -30.7138  -21.1356   21.2078 O   0  0  0  0  0  0  0  0  0  0  0  0
  -23.5559  -12.1376   22.0438 O   0  0  0  0  0  0  0  0  0  0  0  0
  -28.1860  -28.1320   20.8902 O   0  0  0  0  0  0  0  0  0  1  0  0
  -22.7316   -6.9073   20.5049 F   0  0  0  0  0  0  0  0  0  0  0  0
  -24.4597  -10.0412   23.6029 F   0  0  0  0  0  0  0  0  0  0  0  0
  1  2  1  0  0  0  0
  1  5  2  0  0  0  0
  2  6  2  0  0  0  0
  3  8  2  0  0  0  0
  3 16  1  0  0  0  0
  4  9  1  0  0  0  0
  4 16  2  0  0  0  0
  5 18  1  0  0  0  0
  6 20  1  0  0  0  0
  7 10  2  0  0  0  0
  7 19  1  0  0  0  0
  8 22  1  0  0  0  0
  9 22  2  0  0  0  0
 10 23  1  0  0  0  0
 11 12  2  0  0  0  0
 11 24  1  0  0  0  0
 12 25  1  0  0  0  0
 13 21  1  0  0  0  0
 13 23  2  0  0  0  0
 14 25  2  0  0  0  0
 14 26  1  0  0  0  0
 15 28  1  0  0  0  0
 15 66  2  0  0  0  0
 16 27  1  0  0  0  0
 17 27  1  0  0  0  0
 17 31  2  0  0  0  0
 17 32  1  0  0  0  0
 18 20  2  0  0  0  0
 18 37  1  0  0  0  0
 19 21  2  0  0  0  0
 19 38  1  0  0  0  0
 20 46  1  0  0  0  0
 21 39  1  0  0  0  0
 22 83  1  0  0  0  0
 23 84  1  0  0  0  0
 24 26  2  0  0  0  0
 24 83  1  0  0  0  0
 25 85  1  0  0  0  0
 26 86  1  0  0  0  0
 27 67  2  0  0  0  0
 28 56  1  0  0  0  0
 28 68  2  0  0  0  0
 29 30  2  0  0  0  0
 29 57  1  0  0  0  0
 29 66  1  0  0  0  0
 30 58  1  0  0  0  0
 30 68  1  0  0  0  0
 31 69  1  0  0  0  0
 31 72  1  0  0  0  0
 32 73  1  0  0  0  0
 32 78  2  0  0  0  0
 33 47  1  0  0  0  0
 33 74  1  0  0  0  0
 33 79  2  0  0  0  0
 34 63  1  0  0  0  0
 34 70  1  0  0  0  0
 34 80  2  0  0  0  0
 35 64  1  0  0  0  0
 35 75  1  0  0  0  0
 35 81  2  0  0  0  0
 36 71  1  0  0  0  0
 36 76  1  0  0  0  0
 36 82  2  0  0  0  0
 37 40  1  0  0  0  0
 38 47  1  0  0  0  0
 39 70  1  0  0  0  0
 40 42  1  0  0  0  0
 41 43  1  0  0  0  0
 41 44  1  0  0  0  0
 42 46  1  0  0  0  0
 43 48  1  0  0  0  0
 44 71  1  0  0  0  0
 45 48  1  0  0  0  0
 45 71  1  0  0  0  0
 46 74  1  0  0  0  0
 47 70  1  0  0  0  0
 48 69  1  0  0  0  0
 49 58  1  0  0  0  0
 50 64  1  0  0  0  0
 51 65  1  0  0  0  0
 52 65  1  0  0  0  0
 53 65  1  0  0  0  0
 54 76  1  0  0  0  0
 55 77  1  0  0  0  0
 56 62  1  0  0  0  0
 57 59  1  0  0  0  0
 59 60  1  0  0  0  0
 60 61  1  0  0  0  0
 61 76  1  0  0  0  0
 62 84  1  0  0  0  0
 63 65  1  0  0  0  0
 63 75  1  0  0  0  0
 64 77  1  0  0  0  0
 67 69  1  0  0  0  0
M  CHG  1  77   1
M  ISO  4  36 100  62 101  76 100  84 101
M  END
> <Batch ID>
0042

> <Smiles>
CCc1nc(C[101CH2:1][101O:1]c2ccc3c(c2)CN(C(=O)C(NC(=O)C(C)NC)C(C)(C)C)C(C(=O)NC2CCCc4ccccc42)C3)cnc1CCCC[100N:0](C)[100C:0](=O)N1CCCC(n2nc(-c3ccc(Oc4ccc(F)cc4F)cc3)c(C(N)=O)c2N)C1

> <Shape>
0.262

> <Color>
0.071

> <Negative vol penalty>
0.000

$$$$

  -OEChem-04052317123D

 88 97  0     1  0  0  0  0  0999 V2000
  -32.6418  -29.8896   30.1383 C   0  0  0  0  0  0  0  0  0  0  0  0
  -32.0565  -29.8067   28.8790 C   0  0  0  0  0  0  0  0  0  0  0  0
  -23.5477  -10.2044   22.3092 C   0  0  0  0  0  0  0  0  0  0  0  0
  -23.5969   -9.6147   19.9668 C   0  0  0  0  0  0  0  0  0  0  0  0
  -33.5148  -28.8907   30.5672 C   0  0  0  0  0  0  0  0  0  0  0  0
  -32.3447  -28.7252   28.0473 C   0  0  0  0  0  0  0  0  0  0  0  0
  -29.3426  -24.5836   23.0322 C   0  0  0  0  0  0  0  0  0  0  0  0
  -22.8534   -9.0279   22.5908 C   0  0  0  0  0  0  0  0  0  0  0  0
  -22.9027   -8.4381   20.2484 C   0  0  0  0  0  0  0  0  0  0  0  0
  -29.5739  -24.1206   21.7376 C   0  0  0  0  0  0  0  0  0  0  0  0
  -19.6797   -7.8905   22.3499 C   0  0  0  0  0  0  0  0  0  0  0  0
  -18.5816   -7.9759   23.2056 C   0  0  0  0  0  0  0  0  0  0  0  0
  -29.7482  -17.9146   18.6194 C   0  0  0  0  0  0  0  0  0  0  0  0
  -31.0352  -22.4138   22.6155 C   0  0  0  0  0  0  0  0  0  0  0  0
  -19.6518   -6.4394   24.7324 C   0  0  0  0  0  0  0  0  0  0  0  0
  -29.0049  -18.9677   20.6181 C   0  0  0  0  0  0  0  0  0  0  0  0
  -23.9194  -10.4979   20.9971 C   0  0  0  0  0  0  0  0  0  0  0  0
  -24.2047  -13.0323   20.9424 C   0  0  0  0  0  0  0  0  0  0  0  0
  -33.8064  -27.7915   29.7441 C   0  0  0  0  0  0  0  0  0  0  0  0
  -29.9655  -23.9710   24.1291 C   0  0  0  0  0  0  0  0  0  0  0  0
  -33.2235  -27.7113   28.4650 C   0  0  0  0  0  0  0  0  0  0  0  0
  -29.8875  -19.1728   18.0443 C   0  0  0  0  0  0  0  0  0  0  0  0
  -30.8081  -22.8693   23.9232 C   0  0  0  0  0  0  0  0  0  0  0  0
  -29.2991  -17.8014   19.9304 C   0  0  0  0  0  0  0  0  0  0  0  0
  -22.5310   -8.1447   21.5604 C   0  0  0  0  0  0  0  0  0  0  0  0
  -30.4226  -23.0374   21.5289 C   0  0  0  0  0  0  0  0  0  0  0  0
  -20.7639   -7.0795   22.6853 C   0  0  0  0  0  0  0  0  0  0  0  0
  -18.5676   -7.2504   24.3969 C   0  0  0  0  0  0  0  0  0  0  0  0
  -20.7500   -6.3540   23.8765 C   0  0  0  0  0  0  0  0  0  0  0  0
  -24.6361  -11.7134   20.7055 C   0  0  0  0  0  0  0  0  0  0  0  0
  -29.5668  -20.2777   18.8164 C   0  0  0  0  0  0  0  0  0  0  0  0
  -25.2381  -13.8175   20.4930 C   0  0  0  0  0  0  0  0  0  0  0  0
  -22.9794  -13.5053   21.5174 C   0  0  0  0  0  0  0  0  0  0  0  0
  -32.0169  -24.9222   26.3631 C   0  0  0  0  0  0  0  0  0  0  0  0
  -31.4543  -21.9701   27.5842 C   0  0  0  0  0  0  0  0  0  0  0  0
  -30.4651  -18.7497   27.0391 C   0  0  0  0  0  0  0  0  0  0  0  0
  -30.8656  -14.6218   20.5261 C   0  0  0  0  0  0  0  0  0  0  0  0
  -34.7929  -26.7605   30.2324 C   0  0  0  0  0  0  0  0  0  0  0  0
  -29.6846  -24.4656   25.5215 C   0  0  0  0  0  0  0  0  0  0  0  0
  -31.4852  -22.1639   25.0688 C   0  0  0  0  0  0  0  0  0  0  0  0
  -34.7544  -25.4569   29.4391 C   0  0  0  0  0  0  0  0  0  0  0  0
  -29.3386  -12.6602   17.7835 C   0  0  0  0  0  0  0  0  0  0  0  0
  -29.4144  -18.6416   15.6144 C   0  0  0  0  0  0  0  0  0  0  0  0
  -31.8083  -18.7575   16.4479 C   0  0  0  0  0  0  0  0  0  0  0  0
  -34.7403  -25.7440   27.9410 C   0  0  0  0  0  0  0  0  0  0  0  0
  -27.9716  -12.2924   18.3581 C   0  0  0  0  0  0  0  0  0  0  0  0
  -29.9140  -18.7862   14.1792 C   0  0  0  0  0  0  0  0  0  0  0  0
  -32.2953  -18.9019   15.0084 C   0  0  0  0  0  0  0  0  0  0  0  0
  -30.3829  -12.8474   18.8799 C   0  0  0  0  0  0  0  0  0  0  0  0
  -28.6203  -13.4596   20.5023 C   0  0  0  0  0  0  0  0  0  0  0  0
  -30.3790  -19.3037   16.6142 C   0  0  0  0  0  0  0  0  0  0  0  0
  -33.4920  -26.5411   27.5437 C   0  0  1  0  0  0  0  0  0  0  0  0
  -30.7753  -24.0906   26.5201 C   0  0  1  0  0  0  0  0  0  0  0  0
  -27.5341  -13.3094   19.4266 C   0  0  2  0  0  0  0  0  0  0  0  0
  -31.3344  -18.2473   14.0188 C   0  0  0  0  0  0  0  0  0  0  0  0
  -30.1450  -16.5602   28.2227 C   0  0  0  0  0  0  0  0  0  0  0  0
  -34.4740  -21.5327   27.5866 C   0  0  0  0  0  0  0  0  0  0  0  0
  -34.0484  -19.0801   27.8546 C   0  0  0  0  0  0  0  0  0  0  0  0
  -33.2940  -20.6751   29.6180 C   0  0  0  0  0  0  0  0  0  0  0  0
  -31.3595  -16.7853   21.6008 C   0  0  0  0  0  0  0  0  0  0  0  0
  -27.5720  -18.7041   26.4173 C   0  0  0  0  0  0  0  0  0  0  0  0
  -29.1385  -16.4704   20.5742 C   0  0  0  0  0  0  0  0  0  0  0  0
  -29.6977  -21.6686   18.2448 C   0  0  0  0  0  0  0  0  0  0  0  0
  -29.5976  -22.7479   19.3172 C   0  0  0  0  0  0  0  0  0  1  0  0
  -32.0717  -20.6041   27.4060 C   0  0  1  0  0  0  0  0  0  0  0  0
  -29.4860  -17.8575   27.7806 C   0  0  2  0  0  0  0  0  0  0  0  0
  -33.4609  -20.4873   28.0943 C   0  0  0  0  0  0  0  0  0  0  0  0
  -29.1277  -20.2074   20.0930 N   0  0  0  0  0  0  0  0  0  0  0  0
  -25.8489  -11.6597   20.1486 N   0  0  0  0  0  0  0  0  0  0  0  0
  -26.1885  -12.9548   20.0319 N   0  0  0  0  0  0  0  0  0  0  0  0
  -31.1839  -22.6887   26.4109 N   0  0  0  0  0  0  0  0  0  0  0  0
  -29.9236  -13.7858   19.9044 N   0  0  0  0  0  0  0  0  0  0  0  0
  -25.4175  -15.1548   20.4513 N   0  0  0  0  0  0  0  0  0  0  0  0
  -21.8959  -13.7593   20.6655 N   0  0  0  0  0  0  0  0  0  0  0  0
  -32.3367  -25.6719   27.4789 N   0  0  0  0  0  0  0  0  0  0  0  0
  -31.0840  -19.6439   27.8868 N   0  0  0  0  0  0  0  0  0  0  0  0
  -30.4173  -15.8783   20.9607 N   0  0  0  0  0  0  0  0  0  0  0  0
  -28.3268  -17.5216   26.9063 N   0  3  0  0  0  0  0  0  0  0  0  0
  -22.8545  -13.7128   22.7482 O   0  0  0  0  0  0  0  0  0  0  0  0
  -32.6394  -24.8853   25.3082 O   0  0  0  0  0  0  0  0  0  0  0  0
  -31.2141  -22.3815   28.7220 O   0  0  0  0  0  0  0  0  0  0  0  0
  -30.6640  -18.6596   25.8296 O   0  0  0  0  0  0  0  0  0  0  0  0
  -32.0427  -14.2692   20.6751 O   0  0  0  0  0  0  0  0  0  0  0  0
  -31.7974  -18.5058   12.6978 O   0  0  0  0  0  0  0  0  0  0  0  0
  -21.8537   -6.9964   21.8349 O   0  0  0  0  0  0  0  0  0  0  0  0
  -30.6506  -22.5839   20.2662 O   0  0  0  0  0  0  0  0  0  1  0  0
  -17.5137   -7.3337   25.2194 F   0  0  0  0  0  0  0  0  0  0  0  0
  -21.7892   -5.5741   24.2047 F   0  0  0  0  0  0  0  0  0  0  0  0
  1  2  1  0  0  0  0
  1  5  2  0  0  0  0
  2  6  2  0  0  0  0
  3  8  2  0  0  0  0
  3 17  1  0  0  0  0
  4  9  1  0  0  0  0
  4 17  2  0  0  0  0
  5 19  1  0  0  0  0
  6 21  1  0  0  0  0
  7 10  2  0  0  0  0
  7 20  1  0  0  0  0
  8 25  1  0  0  0  0
  9 25  2  0  0  0  0
 10 26  1  0  0  0  0
 11 12  2  0  0  0  0
 11 27  1  0  0  0  0
 12 28  1  0  0  0  0
 13 22  1  0  0  0  0
 13 24  2  0  0  0  0
 14 23  1  0  0  0  0
 14 26  2  0  0  0  0
 15 28  2  0  0  0  0
 15 29  1  0  0  0  0
 16 24  1  0  0  0  0
 16 68  2  0  0  0  0
 17 30  1  0  0  0  0
 18 30  1  0  0  0  0
 18 32  2  0  0  0  0
 18 33  1  0  0  0  0
 19 21  2  0  0  0  0
 19 38  1  0  0  0  0
 20 23  2  0  0  0  0
 20 39  1  0  0  0  0
 21 52  1  0  0  0  0
 22 31  2  0  0  0  0
 22 51  1  0  0  0  0
 23 40  1  0  0  0  0
 24 62  1  0  0  0  0
 25 85  1  0  0  0  0
 26 86  1  0  0  0  0
 27 29  2  0  0  0  0
 27 85  1  0  0  0  0
 28 87  1  0  0  0  0
 29 88  1  0  0  0  0
 30 69  2  0  0  0  0
 31 63  1  0  0  0  0
 31 68  1  0  0  0  0
 32 70  1  0  0  0  0
 32 73  1  0  0  0  0
 33 74  1  0  0  0  0
 33 79  2  0  0  0  0
 34 53  1  0  0  0  0
 34 75  1  0  0  0  0
 34 80  2  0  0  0  0
 35 65  1  0  0  0  0
 35 71  1  0  0  0  0
 35 81  2  0  0  0  0
 36 66  1  0  0  0  0
 36 76  1  0  0  0  0
 36 82  2  0  0  0  0
 37 72  1  0  0  0  0
 37 77  1  0  0  0  0
 37 83  2  0  0  0  0
 38 41  1  0  0  0  0
 39 53  1  0  0  0  0
 40 71  1  0  0  0  0
 41 45  1  0  0  0  0
 42 46  1  0  0  0  0
 42 49  1  0  0  0  0
 43 47  1  0  0  0  0
 43 51  1  0  0  0  0
 44 48  1  0  0  0  0
 44 51  1  0  0  0  0
 45 52  1  0  0  0  0
 46 54  1  0  0  0  0
 47 55  1  0  0  0  0
 48 55  1  0  0  0  0
 49 72  1  0  0  0  0
 50 54  1  0  0  0  0
 50 72  1  0  0  0  0
 52 75  1  0  0  0  0
 53 71  1  0  0  0  0
 54 70  1  0  0  0  0
 55 84  1  0  0  0  0
 56 66  1  0  0  0  0
 57 67  1  0  0  0  0
 58 67  1  0  0  0  0
 59 67  1  0  0  0  0
 60 77  1  0  0  0  0
 61 78  1  0  0  0  0
 62 77  1  0  0  0  0
 63 64  1  0  0  0  0
 64 86  1  0  0  0  0
 65 67  1  0  0  0  0
 65 76  1  0  0  0  0
 66 78  1  0  0  0  0
 69 70  1  0  0  0  0
M  CHG  1  78   1
M  ISO  4  37 100  64 101  77 100  86 101
M  END
> <Batch ID>
0042

> <Smiles>
CNC(C)C(=O)NC(C(=O)N1Cc2cc([101O:1][101CH2:1]Cc3ncc(C[100N:0](C)[100C:0](=O)N4CCCC(n5nc(-c6ccc(Oc7ccc(F)cc7F)cc6)c(C(N)=O)c5N)C4)cc3C3CCC(O)CC3)ccc2CC1C(=O)NC1CCCc2ccccc21)C(C)(C)C

> <Shape>
0.201

> <Color>
0.159

> <Negative vol penalty>
0.000

$$$$

  -OEChem-04052317123D

 83 91  0     1  0  0  0  0  0999 V2000
  -16.9714  -28.1643   22.6152 C   0  0  0  0  0  0  0  0  0  0  0  0
  -17.9343  -28.0924   21.6137 C   0  0  0  0  0  0  0  0  0  0  0  0
  -26.0483  -14.7101   22.4666 C   0  0  0  0  0  0  0  0  0  0  0  0
  -24.9153  -15.4488   20.4646 C   0  0  0  0  0  0  0  0  0  0  0  0
  -17.2047  -28.9391   23.7507 C   0  0  0  0  0  0  0  0  0  0  0  0
  -19.1307  -28.7962   21.7466 C   0  0  0  0  0  0  0  0  0  0  0  0
  -24.6642  -27.0537   19.7845 C   0  0  0  0  0  0  0  0  0  0  0  0
  -25.0208  -13.7993   22.7119 C   0  0  0  0  0  0  0  0  0  0  0  0
  -23.8879  -14.5379   20.7099 C   0  0  0  0  0  0  0  0  0  0  0  0
  -25.4007  -27.3778   18.6460 C   0  0  0  0  0  0  0  0  0  0  0  0
  -23.3559  -11.2228   20.3256 C   0  0  0  0  0  0  0  0  0  0  0  0
  -22.8964  -10.4616   19.2509 C   0  0  0  0  0  0  0  0  0  0  0  0
  -26.5780  -29.0713   19.8970 C   0  0  0  0  0  0  0  0  0  0  0  0
  -29.2301  -25.8379   18.3918 C   0  0  0  0  0  0  0  0  0  0  0  0
  -20.6852  -11.3920   19.5374 C   0  0  0  0  0  0  0  0  0  0  0  0
  -31.2298  -25.2116   19.5167 C   0  0  0  0  0  0  0  0  0  0  0  0
  -25.9955  -15.5350   21.3429 C   0  0  0  0  0  0  0  0  0  0  0  0
  -28.2294  -16.2548   20.3433 C   0  0  0  0  0  0  0  0  0  0  0  0
  -18.4086  -29.6450   23.9020 C   0  0  0  0  0  0  0  0  0  0  0  0
  -24.8719  -27.7445   20.9870 C   0  0  0  0  0  0  0  0  0  0  0  0
  -19.3798  -29.5822   22.8845 C   0  0  0  0  0  0  0  0  0  0  0  0
  -25.8447  -28.7523   21.0500 C   0  0  0  0  0  0  0  0  0  0  0  0
  -29.8487  -25.1460   19.4272 C   0  0  0  0  0  0  0  0  0  0  0  0
  -30.0006  -26.5639   17.4904 C   0  0  0  0  0  0  0  0  0  0  0  0
  -23.9406  -13.7131   21.8336 C   0  0  0  0  0  0  0  0  0  0  0  0
  -26.3557  -28.3887   18.7013 C   0  0  0  0  0  0  0  0  0  0  0  0
  -22.4801  -12.0685   21.0063 C   0  0  0  0  0  0  0  0  0  0  0  0
  -21.5611  -10.5462   18.8568 C   0  0  0  0  0  0  0  0  0  0  0  0
  -21.1447  -12.1531   20.6122 C   0  0  0  0  0  0  0  0  0  0  0  0
  -27.0563  -16.4766   21.0892 C   0  0  0  0  0  0  0  0  0  0  0  0
  -31.3749  -26.5662   17.6668 C   0  0  0  0  0  0  0  0  0  0  0  0
  -28.9042  -17.4497   20.4013 C   0  0  0  0  0  0  0  0  0  0  0  0
  -28.6697  -15.0743   19.6590 C   0  0  0  0  0  0  0  0  0  0  0  0
  -23.0747  -29.5815   22.8577 C   0  0  0  0  0  0  0  0  0  0  0  0
  -28.8601  -22.9343   19.9596 C   0  0  0  0  0  0  0  0  0  0  0  0
  -25.6674  -29.4645   24.8037 C   0  0  0  0  0  0  0  0  0  0  0  0
  -29.0335  -29.0000   25.1204 C   0  0  0  0  0  0  0  0  0  0  0  0
  -18.5960  -30.5069   25.1253 C   0  0  0  0  0  0  0  0  0  0  0  0
  -24.0880  -27.3647   22.2133 C   0  0  0  0  0  0  0  0  0  0  0  0
  -26.1201  -29.5103   22.3221 C   0  0  0  0  0  0  0  0  0  0  0  0
  -20.0457  -30.9229   25.3611 C   0  0  0  0  0  0  0  0  0  0  0  0
  -28.1182  -21.5518   23.2406 C   0  0  0  0  0  0  0  0  0  0  0  0
  -20.6765  -31.4189   24.0639 C   0  0  0  0  0  0  0  0  0  0  0  0
  -27.8422  -20.0879   22.9001 C   0  0  0  0  0  0  0  0  0  0  0  0
  -27.6284  -22.4865   22.1377 C   0  0  0  0  0  0  0  0  0  0  0  0
  -27.9069  -20.7033   20.4445 C   0  0  0  0  0  0  0  0  0  0  0  0
  -20.7005  -30.3114   23.0035 C   0  0  1  0  0  0  0  0  0  0  0  0
  -24.0212  -28.4823   23.2496 C   0  0  1  0  0  0  0  0  0  0  0  0
  -28.4134  -19.7255   21.5180 C   0  0  2  0  0  0  0  0  0  0  0  0
  -34.6201  -27.7056   15.9131 C   0  0  0  0  0  0  0  0  0  0  0  0
  -30.8704  -29.0041   26.8302 C   0  0  0  0  0  0  0  0  0  0  0  0
  -25.6148  -32.5149   24.8494 C   0  0  0  0  0  0  0  0  0  0  0  0
  -27.9529  -32.4724   25.7436 C   0  0  0  0  0  0  0  0  0  0  0  0
  -26.0978  -31.4466   27.0585 C   0  0  0  0  0  0  0  0  0  0  0  0
  -29.6857  -26.1612   24.5962 C   0  0  0  0  0  0  0  0  0  0  0  0
  -29.0531  -24.3610   20.4083 C   0  0  0  0  0  0  0  0  0  0  0  0
  -29.3363  -27.3150   16.3643 C   0  0  0  0  0  0  0  0  0  0  0  0
  -32.2526  -27.3295   16.7295 C   0  0  0  0  0  0  0  0  0  0  0  0
  -33.7322  -26.9525   16.8910 C   0  0  0  0  0  0  0  0  0  0  0  0
  -29.2549  -28.8255   16.5950 C   0  0  0  0  0  0  0  0  0  0  0  0
  -28.3964  -29.2076   17.7951 C   0  0  0  0  0  0  0  0  0  1  0  0
  -26.9205  -30.2906   24.9659 C   0  0  1  0  0  0  0  0  0  0  0  0
  -29.8478  -28.1589   26.0868 C   0  0  2  0  0  0  0  0  0  0  0  0
  -26.6402  -31.6684   25.6297 C   0  0  0  0  0  0  0  0  0  0  0  0
  -32.0116  -25.9063   18.6602 N   0  0  0  0  0  0  0  0  0  0  0  0
  -26.9867  -17.7149   21.5849 N   0  0  0  0  0  0  0  0  0  0  0  0
  -28.1247  -18.2820   21.1496 N   0  0  0  0  0  0  0  0  0  0  0  0
  -25.3234  -29.1065   23.4924 N   0  0  0  0  0  0  0  0  0  0  0  0
  -28.1728  -22.0913   20.8331 N   0  0  0  0  0  0  0  0  0  0  0  0
  -30.0823  -17.8591   19.8848 N   0  0  0  0  0  0  0  0  0  0  0  0
  -27.8549  -13.9348   19.7006 N   0  0  0  0  0  0  0  0  0  0  0  0
  -21.7726  -29.3772   23.2726 N   0  0  0  0  0  0  0  0  0  0  0  0
  -27.8675  -29.4563   25.6978 N   0  0  0  0  0  0  0  0  0  0  0  0
  -30.5718  -27.0823   25.3534 N   0  3  0  0  0  0  0  0  0  0  0  0
  -29.7615  -15.0262   19.0432 O   0  0  0  0  0  0  0  0  0  0  0  0
  -23.4950  -30.5444   22.2270 O   0  0  0  0  0  0  0  0  0  0  0  0
  -29.3099  -22.5810   18.8664 O   0  0  0  0  0  0  0  0  0  0  0  0
  -25.0216  -29.1424   25.8041 O   0  0  0  0  0  0  0  0  0  0  0  0
  -29.3974  -29.2324   23.9697 O   0  0  0  0  0  0  0  0  0  0  0  0
  -22.9380  -12.8242   22.0726 O   0  0  0  0  0  0  0  0  0  0  0  0
  -27.0755  -28.7075   17.5912 O   0  0  0  0  0  0  0  0  0  1  0  0
  -21.1203   -9.8163   17.8238 F   0  0  0  0  0  0  0  0  0  0  0  0
  -20.2989  -12.9647   21.2615 F   0  0  0  0  0  0  0  0  0  0  0  0
  1  2  1  0  0  0  0
  1  5  2  0  0  0  0
  2  6  2  0  0  0  0
  3  8  2  0  0  0  0
  3 17  1  0  0  0  0
  4  9  1  0  0  0  0
  4 17  2  0  0  0  0
  5 19  1  0  0  0  0
  6 21  1  0  0  0  0
  7 10  2  0  0  0  0
  7 20  1  0  0  0  0
  8 25  1  0  0  0  0
  9 25  2  0  0  0  0
 10 26  1  0  0  0  0
 11 12  2  0  0  0  0
 11 27  1  0  0  0  0
 12 28  1  0  0  0  0
 13 22  1  0  0  0  0
 13 26  2  0  0  0  0
 14 23  2  0  0  0  0
 14 24  1  0  0  0  0
 15 28  2  0  0  0  0
 15 29  1  0  0  0  0
 16 23  1  0  0  0  0
 16 65  2  0  0  0  0
 17 30  1  0  0  0  0
 18 30  1  0  0  0  0
 18 32  2  0  0  0  0
 18 33  1  0  0  0  0
 19 21  2  0  0  0  0
 19 38  1  0  0  0  0
 20 22  2  0  0  0  0
 20 39  1  0  0  0  0
 21 47  1  0  0  0  0
 22 40  1  0  0  0  0
 23 56  1  0  0  0  0
 24 31  2  0  0  0  0
 24 57  1  0  0  0  0
 25 80  1  0  0  0  0
 26 81  1  0  0  0  0
 27 29  2  0  0  0  0
 27 80  1  0  0  0  0
 28 82  1  0  0  0  0
 29 83  1  0  0  0  0
 30 66  2  0  0  0  0
 31 58  1  0  0  0  0
 31 65  1  0  0  0  0
 32 67  1  0  0  0  0
 32 70  1  0  0  0  0
 33 71  1  0  0  0  0
 33 75  2  0  0  0  0
 34 48  1  0  0  0  0
 34 72  1  0  0  0  0
 34 76  2  0  0  0  0
 35 56  1  0  0  0  0
 35 69  1  0  0  0  0
 35 77  2  0  0  0  0
 36 62  1  0  0  0  0
 36 68  1  0  0  0  0
 36 78  2  0  0  0  0
 37 63  1  0  0  0  0
 37 73  1  0  0  0  0
 37 79  2  0  0  0  0
 38 41  1  0  0  0  0
 39 48  1  0  0  0  0
 40 68  1  0  0  0  0
 41 43  1  0  0  0  0
 42 44  1  0  0  0  0
 42 45  1  0  0  0  0
 43 47  1  0  0  0  0
 44 49  1  0  0  0  0
 45 69  1  0  0  0  0
 46 49  1  0  0  0  0
 46 69  1  0  0  0  0
 47 72  1  0  0  0  0
 48 68  1  0  0  0  0
 49 67  1  0  0  0  0
 50 59  1  0  0  0  0
 51 63  1  0  0  0  0
 52 64  1  0  0  0  0
 53 64  1  0  0  0  0
 54 64  1  0  0  0  0
 55 74  1  0  0  0  0
 57 60  1  0  0  0  0
 58 59  1  0  0  0  0
 60 61  1  0  0  0  0
 61 81  1  0  0  0  0
 62 64  1  0  0  0  0
 62 73  1  0  0  0  0
 63 74  1  0  0  0  0
 66 67  1  0  0  0  0
M  CHG  1  74   1
M  ISO  4  35 100  56 100  61 101  81 101
M  END
> <Batch ID>
0042

> <Smiles>
CCCc1ncc([100CH2:0][100C:0](=O)N2CCCC(n3nc(-c4ccc(Oc5ccc(F)cc5F)cc4)c(C(N)=O)c3N)C2)cc1CC[101CH2:1][101O:1]c1ccc2c(c1)CN(C(=O)C(NC(=O)C(C)NC)C(C)(C)C)C(C(=O)NC1CCCc3ccccc31)C2

> <Shape>
0.285

> <Color>
0.078

> <Negative vol penalty>
0.000

$$$$

  -OEChem-04052317123D

 87 95  0     1  0  0  0  0  0999 V2000
  -19.1906  -33.6359   21.1171 C   0  0  0  0  0  0  0  0  0  0  0  0
  -20.4859  -33.3036   20.7334 C   0  0  0  0  0  0  0  0  0  0  0  0
  -25.0601  -16.4473   21.4789 C   0  0  0  0  0  0  0  0  0  0  0  0
  -25.1444  -15.8786   19.1323 C   0  0  0  0  0  0  0  0  0  0  0  0
  -18.5973  -32.9873   22.1994 C   0  0  0  0  0  0  0  0  0  0  0  0
  -21.1891  -32.3231   21.4324 C   0  0  0  0  0  0  0  0  0  0  0  0
  -25.2039  -28.3181   19.1202 C   0  0  0  0  0  0  0  0  0  0  0  0
  -23.8731  -15.7268   21.6109 C   0  0  0  0  0  0  0  0  0  0  0  0
  -23.9574  -15.1580   19.2643 C   0  0  0  0  0  0  0  0  0  0  0  0
  -26.5973  -28.3073   19.0738 C   0  0  0  0  0  0  0  0  0  0  0  0
  -21.0119  -13.7372   22.6453 C   0  0  0  0  0  0  0  0  0  0  0  0
  -20.8865  -12.8900   23.7463 C   0  0  0  0  0  0  0  0  0  0  0  0
  -26.6466  -26.9348   21.0570 C   0  0  0  0  0  0  0  0  0  0  0  0
  -22.8174  -11.6412   23.0053 C   0  0  0  0  0  0  0  0  0  0  0  0
  -31.5241  -27.1757   19.6082 C   0  0  0  0  0  0  0  0  0  0  0  0
  -25.6957  -16.5233   20.2396 C   0  0  0  0  0  0  0  0  0  0  0  0
  -28.2333  -16.7838   20.2668 C   0  0  0  0  0  0  0  0  0  0  0  0
  -19.2901  -31.9916   22.9060 C   0  0  0  0  0  0  0  0  0  0  0  0
  -24.5205  -27.6452   20.1432 C   0  0  0  0  0  0  0  0  0  0  0  0
  -20.6050  -31.6615   22.5260 C   0  0  0  0  0  0  0  0  0  0  0  0
  -25.2444  -26.9364   21.1126 C   0  0  0  0  0  0  0  0  0  0  0  0
  -23.3218  -15.0821   20.5036 C   0  0  0  0  0  0  0  0  0  0  0  0
  -27.3189  -27.6180   20.0440 C   0  0  0  0  0  0  0  0  0  0  0  0
  -22.0400  -13.5363   21.7242 C   0  0  0  0  0  0  0  0  0  0  0  0
  -21.7893  -11.8421   23.9263 C   0  0  0  0  0  0  0  0  0  0  0  0
  -22.9428  -12.4884   21.9042 C   0  0  0  0  0  0  0  0  0  0  0  0
  -26.9216  -17.2680   20.1025 C   0  0  0  0  0  0  0  0  0  0  0  0
  -30.8358  -27.0107   20.8251 C   0  0  0  0  0  0  0  0  0  0  0  0
  -32.8475  -27.2449   19.9690 C   0  0  0  0  0  0  0  0  0  0  0  0
  -29.0340  -17.8744   20.0303 C   0  0  0  0  0  0  0  0  0  0  0  0
  -28.6873  -15.4660   20.6029 C   0  0  0  0  0  0  0  0  0  0  0  0
  -22.5539  -28.5226   22.4812 C   0  0  0  0  0  0  0  0  0  0  0  0
  -22.2974  -25.3215   22.9390 C   0  0  0  0  0  0  0  0  0  0  0  0
  -23.6732  -22.2213   22.5607 C   0  0  0  0  0  0  0  0  0  0  0  0
  -28.1846  -22.7556   16.8197 C   0  0  0  0  0  0  0  0  0  0  0  0
  -18.6246  -31.3516   24.0986 C   0  0  0  0  0  0  0  0  0  0  0  0
  -23.0165  -27.6442   20.1638 C   0  0  0  0  0  0  0  0  0  0  0  0
  -24.5579  -26.1812   22.2202 C   0  0  0  0  0  0  0  0  0  0  0  0
  -19.3000  -30.0601   24.5526 C   0  0  0  0  0  0  0  0  0  0  0  0
  -29.0413  -22.6509   20.3343 C   0  0  0  0  0  0  0  0  0  0  0  0
  -20.8126  -30.2446   24.6224 C   0  0  0  0  0  0  0  0  0  0  0  0
  -28.7144  -21.1980   20.6839 C   0  0  0  0  0  0  0  0  0  0  0  0
  -28.0335  -23.2206   19.3403 C   0  0  0  0  0  0  0  0  0  0  0  0
  -27.5655  -20.9779   18.4319 C   0  0  0  0  0  0  0  0  0  0  0  0
  -21.3910  -30.5858   23.2438 C   0  0  1  0  0  0  0  0  0  0  0  0
  -22.4381  -27.3530   21.5451 C   0  0  1  0  0  0  0  0  0  0  0  0
  -28.5613  -20.3373   19.4158 C   0  0  2  0  0  0  0  0  0  0  0  0
  -23.2460  -19.8013   23.0690 C   0  0  0  0  0  0  0  0  0  0  0  0
  -32.9110  -25.7980   14.1561 C   0  0  0  0  0  0  0  0  0  0  0  0
  -23.0426  -25.8055   25.8580 C   0  0  0  0  0  0  0  0  0  0  0  0
  -23.5259  -23.3580   26.0679 C   0  0  0  0  0  0  0  0  0  0  0  0
  -21.2198  -24.1288   25.5108 C   0  0  0  0  0  0  0  0  0  0  0  0
  -34.0364  -27.1327   22.1800 C   0  0  0  0  0  0  0  0  0  0  0  0
  -23.6848  -21.4968   19.6913 C   0  0  0  0  0  0  0  0  0  0  0  0
  -29.3547  -26.8802   21.0274 C   0  0  0  0  0  0  0  0  0  1  0  0
  -34.0655  -27.4141   19.1555 C   0  0  0  0  0  0  0  0  0  0  0  0
  -34.7141  -26.0962   18.6661 C   0  0  0  0  0  0  0  0  0  0  0  0
  -30.2885  -24.5173   14.9467 C   0  0  0  0  0  0  0  0  0  0  0  0
  -31.2114  -25.2349   15.9407 C   0  0  0  0  0  0  0  0  0  0  0  0
  -28.8152  -24.6351   15.3274 C   0  0  0  0  0  0  0  0  0  0  0  0
  -33.8317  -25.2445   17.7585 C   0  0  0  0  0  0  0  0  0  0  0  0
  -23.0388  -24.2966   23.7629 C   0  0  1  0  0  0  0  0  0  0  0  0
  -23.0910  -20.9168   22.0471 C   0  0  2  0  0  0  0  0  0  0  0  0
  -32.6902  -25.1953   15.5375 C   0  0  2  0  0  0  0  0  0  0  0  0
  -22.7200  -24.4130   25.2803 C   0  0  0  0  0  0  0  0  0  0  0  0
  -26.8867  -18.5652   19.7863 N   0  0  0  0  0  0  0  0  0  0  0  0
  -31.6543  -26.9769   21.8800 N   0  0  0  0  0  0  0  0  0  0  0  0
  -32.8706  -27.1216   21.3271 N   0  0  0  0  0  0  0  0  0  0  0  0
  -28.1863  -18.9055   19.7501 N   0  0  0  0  0  0  0  0  0  0  0  0
  -23.0862  -26.2154   22.2010 N   0  0  0  0  0  0  0  0  0  0  0  0
  -27.9492  -22.3649   18.1483 N   0  0  0  0  0  0  0  0  0  0  0  0
  -30.3734  -18.0425   20.0370 N   0  0  0  0  0  0  0  0  0  0  0  0
  -27.7310  -14.4630   20.8124 N   0  0  0  0  0  0  0  0  0  0  0  0
  -21.4840  -29.3955   22.4260 N   0  0  0  0  0  0  0  0  0  0  0  0
  -22.7179  -22.9970   23.1829 N   0  0  0  0  0  0  0  0  0  0  0  0
  -28.5364  -24.0872   16.6363 N   0  0  0  0  0  0  0  0  0  0  0  0
  -23.7776  -20.5023   20.7910 N   0  3  0  0  0  0  0  0  0  0  0  0
  -33.5039  -25.9742   16.5116 N   0  3  0  0  0  0  0  0  0  0  0  0
  -29.9043  -15.1901   20.7303 O   0  0  0  0  0  0  0  0  0  0  0  0
  -23.5401  -28.6248   23.2014 O   0  0  0  0  0  0  0  0  0  0  0  0
  -21.0639  -25.3242   22.9442 O   0  0  0  0  0  0  0  0  0  0  0  0
  -24.8577  -22.5206   22.4270 O   0  0  0  0  0  0  0  0  0  0  0  0
  -28.0933  -21.9738   15.8670 O   0  0  0  0  0  0  0  0  0  0  0  0
  -22.1636  -14.3787   20.6321 O   0  0  0  0  0  0  0  0  0  0  0  0
  -28.6790  -27.6064   20.0015 O   0  0  0  0  0  0  0  0  0  1  0  0
  -21.6697  -11.0296   24.9845 F   0  0  0  0  0  0  0  0  0  0  0  0
  -23.9333  -12.2912   21.0234 F   0  0  0  0  0  0  0  0  0  0  0  0
  1  2  1  0  0  0  0
  1  5  2  0  0  0  0
  2  6  2  0  0  0  0
  3  8  2  0  0  0  0
  3 16  1  0  0  0  0
  4  9  1  0  0  0  0
  4 16  2  0  0  0  0
  5 18  1  0  0  0  0
  6 20  1  0  0  0  0
  7 10  2  0  0  0  0
  7 19  1  0  0  0  0
  8 22  1  0  0  0  0
  9 22  2  0  0  0  0
 10 23  1  0  0  0  0
 11 12  2  0  0  0  0
 11 24  1  0  0  0  0
 12 25  1  0  0  0  0
 13 21  1  0  0  0  0
 13 23  2  0  0  0  0
 14 25  2  0  0  0  0
 14 26  1  0  0  0  0
 15 28  1  0  0  0  0
 15 29  2  0  0  0  0
 16 27  1  0  0  0  0
 17 27  1  0  0  0  0
 17 30  2  0  0  0  0
 17 31  1  0  0  0  0
 18 20  2  0  0  0  0
 18 36  1  0  0  0  0
 19 21  2  0  0  0  0
 19 37  1  0  0  0  0
 20 45  1  0  0  0  0
 21 38  1  0  0  0  0
 22 84  1  0  0  0  0
 23 85  1  0  0  0  0
 24 26  2  0  0  0  0
 24 84  1  0  0  0  0
 25 86  1  0  0  0  0
 26 87  1  0  0  0  0
 27 66  2  0  0  0  0
 28 55  1  0  0  0  0
 28 67  2  0  0  0  0
 29 56  1  0  0  0  0
 29 68  1  0  0  0  0
 30 69  1  0  0  0  0
 30 72  1  0  0  0  0
 31 73  1  0  0  0  0
 31 79  2  0  0  0  0
 32 46  1  0  0  0  0
 32 74  1  0  0  0  0
 32 80  2  0  0  0  0
 33 62  1  0  0  0  0
 33 70  1  0  0  0  0
 33 81  2  0  0  0  0
 34 63  1  0  0  0  0
 34 75  1  0  0  0  0
 34 82  2  0  0  0  0
 35 71  1  0  0  0  0
 35 76  1  0  0  0  0
 35 83  2  0  0  0  0
 36 39  1  0  0  0  0
 37 46  1  0  0  0  0
 38 70  1  0  0  0  0
 39 41  1  0  0  0  0
 40 42  1  0  0  0  0
 40 43  1  0  0  0  0
 41 45  1  0  0  0  0
 42 47  1  0  0  0  0
 43 71  1  0  0  0  0
 44 47  1  0  0  0  0
 44 71  1  0  0  0  0
 45 74  1  0  0  0  0
 46 70  1  0  0  0  0
 47 69  1  0  0  0  0
 48 63  1  0  0  0  0
 49 64  1  0  0  0  0
 50 65  1  0  0  0  0
 51 65  1  0  0  0  0
 52 65  1  0  0  0  0
 53 68  1  0  0  0  0
 54 77  1  0  0  0  0
 55 85  1  0  0  0  0
 56 57  1  0  0  0  0
 57 61  1  0  0  0  0
 58 59  1  0  0  0  0
 58 60  1  0  0  0  0
 59 64  1  0  0  0  0
 60 76  1  0  0  0  0
 61 78  1  0  0  0  0
 62 65  1  0  0  0  0
 62 75  1  0  0  0  0
 63 77  1  0  0  0  0
 64 78  1  0  0  0  0
 66 69  1  0  0  0  0
 67 68  1  0  0  0  0
M  CHG  2  77   1  78   1
M  ISO  4  35 100  55 101  76 100  85 101
M  END
> <Batch ID>
0042

> <Smiles>
CNC(C)C(=O)NC(C(=O)N1Cc2cc([101O:1][101CH2:1]c3cc(CCCNC(C)CCC[100NH:0][100C:0](=O)N4CCCC(n5nc(-c6ccc(Oc7ccc(F)cc7F)cc6)c(C(N)=O)c5N)C4)n(C)n3)ccc2CC1C(=O)NC1CCCc2ccccc21)C(C)(C)C

> <Shape>
0.199

> <Color>
0.093

> <Negative vol penalty>
0.000

$$$$

  -OEChem-04052317123D

 85 93  0     1  0  0  0  0  0999 V2000
  -18.6413  -26.6715   17.9658 C   0  0  0  0  0  0  0  0  0  0  0  0
  -18.9177  -25.3933   17.4910 C   0  0  0  0  0  0  0  0  0  0  0  0
  -27.8846  -23.5768   20.8227 C   0  0  0  0  0  0  0  0  0  0  0  0
  -28.0178  -23.0435   18.4701 C   0  0  0  0  0  0  0  0  0  0  0  0
  -19.0805  -27.0534   19.2327 C   0  0  0  0  0  0  0  0  0  0  0  0
  -19.6346  -24.4967   18.2826 C   0  0  0  0  0  0  0  0  0  0  0  0
  -20.1639  -17.4965   19.7086 C   0  0  0  0  0  0  0  0  0  0  0  0
  -27.8669  -24.9368   20.5135 C   0  0  0  0  0  0  0  0  0  0  0  0
  -28.0000  -24.4036   18.1608 C   0  0  0  0  0  0  0  0  0  0  0  0
  -21.1150  -16.4791   19.7718 C   0  0  0  0  0  0  0  0  0  0  0  0
  -25.6214  -27.2115   19.4107 C   0  0  0  0  0  0  0  0  0  0  0  0
  -24.6917  -28.0145   20.0714 C   0  0  0  0  0  0  0  0  0  0  0  0
  -21.7548  -17.2223   21.9757 C   0  0  0  0  0  0  0  0  0  0  0  0
  -25.3442  -13.7904   20.0565 C   0  0  0  0  0  0  0  0  0  0  0  0
  -23.6279  -12.1459   20.4226 C   0  0  0  0  0  0  0  0  0  0  0  0
  -26.4898  -29.3442   20.9857 C   0  0  0  0  0  0  0  0  0  0  0  0
  -27.9601  -22.6301   19.8010 C   0  0  0  0  0  0  0  0  0  0  0  0
  -26.8699  -20.3682   20.2511 C   0  0  0  0  0  0  0  0  0  0  0  0
  -19.7948  -26.1578   20.0441 C   0  0  0  0  0  0  0  0  0  0  0  0
  -20.0083  -18.3927   20.7759 C   0  0  0  0  0  0  0  0  0  0  0  0
  -20.0850  -24.8675   19.5610 C   0  0  0  0  0  0  0  0  0  0  0  0
  -20.7993  -18.2486   21.9247 C   0  0  0  0  0  0  0  0  0  0  0  0
  -23.9973  -13.4499   20.1120 C   0  0  0  0  0  0  0  0  0  0  0  0
  -27.9246  -25.3502   19.1825 C   0  0  0  0  0  0  0  0  0  0  0  0
  -21.9126  -16.3436   20.9042 C   0  0  0  0  0  0  0  0  0  0  0  0
  -26.9853  -27.4748   19.5376 C   0  0  0  0  0  0  0  0  0  0  0  0
  -25.1258  -29.0808   20.8588 C   0  0  0  0  0  0  0  0  0  0  0  0
  -27.4195  -28.5412   20.3250 C   0  0  0  0  0  0  0  0  0  0  0  0
  -27.9790  -21.2251   20.1199 C   0  0  0  0  0  0  0  0  0  0  0  0
  -26.2754  -12.7982   20.3176 C   0  0  0  0  0  0  0  0  0  0  0  0
  -24.6358  -11.2272   20.6671 C   0  0  0  0  0  0  0  0  0  0  0  0
  -27.4151  -19.1455   20.5582 C   0  0  0  0  0  0  0  0  0  0  0  0
  -25.4718  -20.6520   20.1081 C   0  0  0  0  0  0  0  0  0  0  0  0
  -20.3395  -21.5337   21.1339 C   0  0  0  0  0  0  0  0  0  0  0  0
  -19.1372  -20.9311   24.0858 C   0  0  0  0  0  0  0  0  0  0  0  0
  -18.6384  -18.6872   26.6083 C   0  0  0  0  0  0  0  0  0  0  0  0
  -31.2460  -15.1754   19.7171 C   0  0  0  0  0  0  0  0  0  0  0  0
  -20.2898  -26.6318   21.3875 C   0  0  0  0  0  0  0  0  0  0  0  0
  -18.9594  -19.4683   20.7032 C   0  0  0  0  0  0  0  0  0  0  0  0
  -20.6576  -19.1723   23.1059 C   0  0  0  0  0  0  0  0  0  0  0  0
  -20.7192  -25.4968   22.3136 C   0  0  0  0  0  0  0  0  0  0  0  0
  -32.1371  -17.8787   21.8559 C   0  0  0  0  0  0  0  0  0  0  0  0
  -21.6001  -24.5014   21.5651 C   0  0  0  0  0  0  0  0  0  0  0  0
  -31.0473  -18.9214   21.6010 C   0  0  0  0  0  0  0  0  0  0  0  0
  -32.5068  -17.1252   20.5801 C   0  0  0  0  0  0  0  0  0  0  0  0
  -30.2786  -17.5525   19.6176 C   0  0  0  0  0  0  0  0  0  0  0  0
  -20.8384  -23.8582   20.3999 C   0  0  1  0  0  0  0  0  0  0  0  0
  -19.2406  -20.6412   21.6374 C   0  0  1  0  0  0  0  0  0  0  0  0
  -29.8325  -18.2996   20.8861 C   0  0  2  0  0  0  0  0  0  0  0  0
  -17.6596  -18.4977   28.9112 C   0  0  0  0  0  0  0  0  0  0  0  0
  -24.8526   -8.8143   19.9864 C   0  0  0  0  0  0  0  0  0  0  0  0
  -24.7197   -9.4268   22.4233 C   0  0  0  0  0  0  0  0  0  0  0  0
  -21.5613  -22.3861   25.2332 C   0  0  0  0  0  0  0  0  0  0  0  0
  -21.0393  -21.3577   27.4554 C   0  0  0  0  0  0  0  0  0  0  0  0
  -19.3984  -22.8980   26.3795 C   0  0  0  0  0  0  0  0  0  0  0  0
  -16.6800  -16.6478   25.7341 C   0  0  0  0  0  0  0  0  0  0  0  0
  -22.9467  -14.4857   19.8389 C   0  0  0  0  0  0  0  0  0  1  0  0
  -27.7299  -13.1277   20.2686 C   0  0  0  0  0  0  0  0  0  0  0  0
  -28.3806  -12.9356   18.8848 C   0  0  0  0  0  0  0  0  0  0  0  0
  -29.8568  -13.3223   18.8251 C   0  0  0  0  0  0  0  0  0  0  0  0
  -19.7283  -20.5784   25.4294 C   0  0  1  0  0  0  0  0  0  0  0  0
  -17.4029  -18.3427   27.4203 C   0  0  2  0  0  0  0  0  0  0  0  0
  -24.2755   -9.8183   21.0016 C   0  0  0  0  0  0  0  0  0  0  0  0
  -20.4361  -21.7887   26.1015 C   0  0  0  0  0  0  0  0  0  0  0  0
  -29.1410  -20.5999   20.3268 N   0  0  0  0  0  0  0  0  0  0  0  0
  -25.9547  -11.5208   20.6226 N   0  0  0  0  0  0  0  0  0  0  0  0
  -28.7650  -19.3371   20.5913 N   0  0  0  0  0  0  0  0  0  0  0  0
  -19.6224  -20.2120   22.9843 N   0  0  0  0  0  0  0  0  0  0  0  0
  -31.3108  -16.5587   19.9520 N   0  0  0  0  0  0  0  0  0  0  0  0
  -26.8666  -17.9360   20.8006 N   0  0  0  0  0  0  0  0  0  0  0  0
  -25.0848  -21.9610   19.7903 N   0  0  0  0  0  0  0  0  0  0  0  0
  -19.9403  -22.8334   20.8875 N   0  0  0  0  0  0  0  0  0  0  0  0
  -18.6403  -20.0095   26.2174 N   0  0  0  0  0  0  0  0  0  0  0  0
  -30.0748  -14.7202   19.1239 N   0  0  0  0  0  0  0  0  0  0  0  0
  -16.9869  -16.9358   27.1588 N   0  3  0  0  0  0  0  0  0  0  0  0
  -24.5908  -19.7745   20.2739 O   0  0  0  0  0  0  0  0  0  0  0  0
  -21.4666  -21.0773   20.9818 O   0  0  0  0  0  0  0  0  0  0  0  0
  -18.2715  -21.8072   24.0171 O   0  0  0  0  0  0  0  0  0  0  0  0
  -19.5160  -17.8665   26.3501 O   0  0  0  0  0  0  0  0  0  0  0  0
  -32.1616  -14.4025   20.0189 O   0  0  0  0  0  0  0  0  0  0  0  0
  -27.9071  -26.6772   18.8804 O   0  0  0  0  0  0  0  0  0  0  0  0
  -22.8422  -15.3518   20.9682 O   0  0  0  0  0  0  0  0  0  1  0  0
  -24.2328  -29.8527   21.4920 F   0  0  0  0  0  0  0  0  0  0  0  0
  -28.7284  -28.7998   20.4497 F   0  0  0  0  0  0  0  0  0  0  0  0
  -22.9100   -9.5949   20.9833 F   0  0  0  0  0  0  0  0  0  0  0  0
  1  2  1  0  0  0  0
  1  5  2  0  0  0  0
  2  6  2  0  0  0  0
  3  8  2  0  0  0  0
  3 17  1  0  0  0  0
  4  9  1  0  0  0  0
  4 17  2  0  0  0  0
  5 19  1  0  0  0  0
  6 21  1  0  0  0  0
  7 10  2  0  0  0  0
  7 20  1  0  0  0  0
  8 24  1  0  0  0  0
  9 24  2  0  0  0  0
 10 25  1  0  0  0  0
 11 12  2  0  0  0  0
 11 26  1  0  0  0  0
 12 27  1  0  0  0  0
 13 22  1  0  0  0  0
 13 25  2  0  0  0  0
 14 23  1  0  0  0  0
 14 30  2  0  0  0  0
 15 23  2  0  0  0  0
 15 31  1  0  0  0  0
 16 27  2  0  0  0  0
 16 28  1  0  0  0  0
 17 29  1  0  0  0  0
 18 29  1  0  0  0  0
 18 32  2  0  0  0  0
 18 33  1  0  0  0  0
 19 21  2  0  0  0  0
 19 38  1  0  0  0  0
 20 22  2  0  0  0  0
 20 39  1  0  0  0  0
 21 47  1  0  0  0  0
 22 40  1  0  0  0  0
 23 57  1  0  0  0  0
 24 81  1  0  0  0  0
 25 82  1  0  0  0  0
 26 28  2  0  0  0  0
 26 81  1  0  0  0  0
 27 83  1  0  0  0  0
 28 84  1  0  0  0  0
 29 65  2  0  0  0  0
 30 58  1  0  0  0  0
 30 66  1  0  0  0  0
 31 63  1  0  0  0  0
 31 66  2  0  0  0  0
 32 67  1  0  0  0  0
 32 70  1  0  0  0  0
 33 71  1  0  0  0  0
 33 76  2  0  0  0  0
 34 48  1  0  0  0  0
 34 72  1  0  0  0  0
 34 77  2  0  0  0  0
 35 61  1  0  0  0  0
 35 68  1  0  0  0  0
 35 78  2  0  0  0  0
 36 62  1  0  0  0  0
 36 73  1  0  0  0  0
 36 79  2  0  0  0  0
 37 69  1  0  0  0  0
 37 74  1  0  0  0  0
 37 80  2  0  0  0  0
 38 41  1  0  0  0  0
 39 48  1  0  0  0  0
 40 68  1  0  0  0  0
 41 43  1  0  0  0  0
 42 44  1  0  0  0  0
 42 45  1  0  0  0  0
 43 47  1  0  0  0  0
 44 49  1  0  0  0  0
 45 69  1  0  0  0  0
 46 49  1  0  0  0  0
 46 69  1  0  0  0  0
 47 72  1  0  0  0  0
 48 68  1  0  0  0  0
 49 67  1  0  0  0  0
 50 62  1  0  0  0  0
 51 63  1  0  0  0  0
 52 63  1  0  0  0  0
 53 64  1  0  0  0  0
 54 64  1  0  0  0  0
 55 64  1  0  0  0  0
 56 75  1  0  0  0  0
 57 82  1  0  0  0  0
 58 59  1  0  0  0  0
 59 60  1  0  0  0  0
 60 74  1  0  0  0  0
 61 64  1  0  0  0  0
 61 73  1  0  0  0  0
 62 75  1  0  0  0  0
 63 85  1  0  0  0  0
 65 67  1  0  0  0  0
M  CHG  1  75   1
M  ISO  4  37 100  57 101  74 100  82 101
M  END
> <Batch ID>
0042

> <Smiles>
CNC(C)C(=O)NC(C(=O)N1Cc2cc([101O:1][101CH2:1]c3cc(CCC[100NH:0][100C:0](=O)N4CCCC(n5nc(-c6ccc(Oc7ccc(F)cc7F)cc6)c(C(N)=O)c5N)C4)nc(C(C)(C)F)c3)ccc2CC1C(=O)NC1CCCc2ccccc21)C(C)(C)C

> <Shape>
0.204

> <Color>
0.099

> <Negative vol penalty>
0.000

$$$$

  -OEChem-04052317123D

 78 86  0     1  0  0  0  0  0999 V2000
  -34.9174  -26.8992   20.8432 C   0  0  0  0  0  0  0  0  0  0  0  0
  -33.6457  -26.3779   20.6278 C   0  0  0  0  0  0  0  0  0  0  0  0
  -23.4252   -9.9314   19.8999 C   0  0  0  0  0  0  0  0  0  0  0  0
  -23.4906  -10.1858   22.3016 C   0  0  0  0  0  0  0  0  0  0  0  0
  -35.1198  -27.8494   21.8432 C   0  0  0  0  0  0  0  0  0  0  0  0
  -32.5758  -26.8058   21.4131 C   0  0  0  0  0  0  0  0  0  0  0  0
  -26.7558  -27.5055   19.6399 C   0  0  0  0  0  0  0  0  0  0  0  0
  -22.6183   -8.8026   20.0414 C   0  0  0  0  0  0  0  0  0  0  0  0
  -22.6836   -9.0569   22.4431 C   0  0  0  0  0  0  0  0  0  0  0  0
  -25.6311  -26.6921   19.7708 C   0  0  0  0  0  0  0  0  0  0  0  0
  -23.0575   -5.6983   22.3389 C   0  0  0  0  0  0  0  0  0  0  0  0
  -23.4192   -4.7603   23.3057 C   0  0  0  0  0  0  0  0  0  0  0  0
  -24.9850  -27.9137   21.7480 C   0  0  0  0  0  0  0  0  0  0  0  0
  -21.3013   -5.0922   24.4200 C   0  0  0  0  0  0  0  0  0  0  0  0
  -23.8615  -10.6231   21.0300 C   0  0  0  0  0  0  0  0  0  0  0  0
  -25.9646  -11.8561   20.2790 C   0  0  0  0  0  0  0  0  0  0  0  0
  -34.0501  -28.2962   22.6348 C   0  0  0  0  0  0  0  0  0  0  0  0
  -27.0098  -28.5239   20.5700 C   0  0  0  0  0  0  0  0  0  0  0  0
  -32.7644  -27.7618   22.4255 C   0  0  0  0  0  0  0  0  0  0  0  0
  -26.1122  -28.7403   21.6253 C   0  0  0  0  0  0  0  0  0  0  0  0
  -22.2475   -8.3653   21.3130 C   0  0  0  0  0  0  0  0  0  0  0  0
  -24.7471  -26.8942   20.8266 C   0  0  0  0  0  0  0  0  0  0  0  0
  -21.8178   -6.3334   22.4126 C   0  0  0  0  0  0  0  0  0  0  0  0
  -22.5411   -4.4572   24.3463 C   0  0  0  0  0  0  0  0  0  0  0  0
  -20.9397   -6.0303   23.4531 C   0  0  0  0  0  0  0  0  0  0  0  0
  -24.6955  -11.7889   20.8845 C   0  0  0  0  0  0  0  0  0  0  0  0
  -26.3316  -13.1744   20.3960 C   0  0  0  0  0  0  0  0  0  0  0  0
  -26.7422  -10.8194   19.6655 C   0  0  0  0  0  0  0  0  0  0  0  0
  -23.0501  -18.0967   20.9237 C   0  0  0  0  0  0  0  0  0  0  0  0
  -29.3437  -29.1429   22.6371 C   0  0  0  0  0  0  0  0  0  0  0  0
  -27.7008  -31.9065   23.0676 C   0  0  0  0  0  0  0  0  0  0  0  0
  -26.1855  -34.8042   24.0445 C   0  0  0  0  0  0  0  0  0  0  0  0
  -34.3267  -29.2899   23.7351 C   0  0  0  0  0  0  0  0  0  0  0  0
  -28.2132  -29.4100   20.3996 C   0  0  0  0  0  0  0  0  0  0  0  0
  -26.3288  -29.8331   22.6390 C   0  0  0  0  0  0  0  0  0  0  0  0
  -33.0694  -29.9669   24.2747 C   0  0  0  0  0  0  0  0  0  0  0  0
  -25.6991  -17.0137   23.1680 C   0  0  0  0  0  0  0  0  0  0  0  0
  -31.9772  -28.9344   24.5353 C   0  0  0  0  0  0  0  0  0  0  0  0
  -24.2305  -20.2632   20.9915 C   0  0  0  0  0  0  0  0  0  0  0  0
  -21.7084  -20.1790   20.8706 C   0  0  0  0  0  0  0  0  0  0  0  0
  -24.1627  -21.7366   21.3876 C   0  0  0  0  0  0  0  0  0  0  0  0
  -21.6396  -21.6520   21.2681 C   0  0  0  0  0  0  0  0  0  0  0  0
  -25.8337  -15.5385   22.7926 C   0  0  0  0  0  0  0  0  0  0  0  0
  -24.2501  -17.4854   23.0797 C   0  0  0  0  0  0  0  0  0  0  0  0
  -23.7503  -15.7663   21.3711 C   0  0  0  0  0  0  0  0  0  0  0  0
  -31.5739  -28.2191   23.2403 C   0  0  1  0  0  0  0  0  0  0  0  0
  -22.9699  -19.5092   21.4154 C   0  0  0  0  0  0  0  0  0  0  0  0
  -28.6465  -30.0852   21.6972 C   0  0  1  0  0  0  0  0  0  0  0  0
  -22.9002  -22.4141   20.8379 C   0  0  0  0  0  0  0  0  0  0  0  0
  -25.2013  -15.2590   21.4180 C   0  0  2  0  0  0  0  0  0  0  0  0
  -26.0909  -36.4315   25.9525 C   0  0  0  0  0  0  0  0  0  0  0  0
  -26.0017  -29.9357   24.6610 C   0  0  0  0  0  0  0  0  0  0  0  0
  -25.1742  -31.8625   26.0288 C   0  0  0  0  0  0  0  0  0  0  0  0
  -27.6004  -31.2826   26.0339 C   0  0  0  0  0  0  0  0  0  0  0  0
  -27.1389  -37.0312   22.3444 C   0  0  0  0  0  0  0  0  0  0  0  0
  -22.8298  -23.8715   21.2902 C   0  0  0  0  0  0  0  0  0  0  0  0
  -23.7532  -24.7626   20.4736 C   0  0  0  0  0  0  0  0  0  1  0  0
  -26.5871  -32.3569   23.9818 C   0  0  1  0  0  0  0  0  0  0  0  0
  -26.7483  -36.0892   24.6245 C   0  0  2  0  0  0  0  0  0  0  0  0
  -26.3378  -31.3594   25.1481 C   0  0  0  0  0  0  0  0  0  0  0  0
  -24.2839  -12.9706   21.3516 N   0  0  0  0  0  0  0  0  0  0  0  0
  -25.3003  -13.7927   21.0397 N   0  0  0  0  0  0  0  0  0  0  0  0
  -23.6756  -17.1761   21.7649 N   0  0  0  0  0  0  0  0  0  0  0  0
  -27.5231  -30.6689   22.4331 N   0  0  0  0  0  0  0  0  0  0  0  0
  -27.4327  -13.8535   20.0101 N   0  0  0  0  0  0  0  0  0  0  0  0
  -27.6351  -10.0922   20.4645 N   0  0  0  0  0  0  0  0  0  0  0  0
  -30.7098  -29.0641   22.4442 N   0  0  0  0  0  0  0  0  0  0  0  0
  -26.9340  -33.7065   24.4136 N   0  0  0  0  0  0  0  0  0  0  0  0
  -26.5254  -37.2233   23.6837 N   0  3  0  0  0  0  0  0  0  0  0  0
  -26.6601  -10.5569   18.4416 O   0  0  0  0  0  0  0  0  0  0  0  0
  -22.5735  -17.8150   19.8212 O   0  0  0  0  0  0  0  0  0  0  0  0
  -28.6909  -28.5335   23.4763 O   0  0  0  0  0  0  0  0  0  0  0  0
  -28.6887  -32.6296   22.9162 O   0  0  0  0  0  0  0  0  0  0  0  0
  -25.1803  -34.7764   23.3380 O   0  0  0  0  0  0  0  0  0  0  0  0
  -21.4599   -7.2639   21.4515 O   0  0  0  0  0  0  0  0  0  0  0  0
  -23.6489  -26.1012   20.9570 O   0  0  0  0  0  0  0  0  0  1  0  0
  -22.8879   -3.5552   25.2738 F   0  0  0  0  0  0  0  0  0  0  0  0
  -19.7468   -6.6363   23.5285 F   0  0  0  0  0  0  0  0  0  0  0  0
  1  2  1  0  0  0  0
  1  5  2  0  0  0  0
  2  6  2  0  0  0  0
  3  8  2  0  0  0  0
  3 15  1  0  0  0  0
  4  9  1  0  0  0  0
  4 15  2  0  0  0  0
  5 17  1  0  0  0  0
  6 19  1  0  0  0  0
  7 10  2  0  0  0  0
  7 18  1  0  0  0  0
  8 21  1  0  0  0  0
  9 21  2  0  0  0  0
 10 22  1  0  0  0  0
 11 12  2  0  0  0  0
 11 23  1  0  0  0  0
 12 24  1  0  0  0  0
 13 20  1  0  0  0  0
 13 22  2  0  0  0  0
 14 24  2  0  0  0  0
 14 25  1  0  0  0  0
 15 26  1  0  0  0  0
 16 26  1  0  0  0  0
 16 27  2  0  0  0  0
 16 28  1  0  0  0  0
 17 19  2  0  0  0  0
 17 33  1  0  0  0  0
 18 20  2  0  0  0  0
 18 34  1  0  0  0  0
 19 46  1  0  0  0  0
 20 35  1  0  0  0  0
 21 75  1  0  0  0  0
 22 76  1  0  0  0  0
 23 25  2  0  0  0  0
 23 75  1  0  0  0  0
 24 77  1  0  0  0  0
 25 78  1  0  0  0  0
 26 61  2  0  0  0  0
 27 62  1  0  0  0  0
 27 65  1  0  0  0  0
 28 66  1  0  0  0  0
 28 70  2  0  0  0  0
 29 47  1  0  0  0  0
 29 63  1  0  0  0  0
 29 71  2  0  0  0  0
 30 48  1  0  0  0  0
 30 67  1  0  0  0  0
 30 72  2  0  0  0  0
 31 58  1  0  0  0  0
 31 64  1  0  0  0  0
 31 73  2  0  0  0  0
 32 59  1  0  0  0  0
 32 68  1  0  0  0  0
 32 74  2  0  0  0  0
 33 36  1  0  0  0  0
 34 48  1  0  0  0  0
 35 64  1  0  0  0  0
 36 38  1  0  0  0  0
 37 43  1  0  0  0  0
 37 44  1  0  0  0  0
 38 46  1  0  0  0  0
 39 41  1  0  0  0  0
 39 47  1  0  0  0  0
 40 42  1  0  0  0  0
 40 47  1  0  0  0  0
 41 49  1  0  0  0  0
 42 49  1  0  0  0  0
 43 50  1  0  0  0  0
 44 63  1  0  0  0  0
 45 50  1  0  0  0  0
 45 63  1  0  0  0  0
 46 67  1  0  0  0  0
 48 64  1  0  0  0  0
 49 56  1  0  0  0  0
 50 62  1  0  0  0  0
 51 59  1  0  0  0  0
 52 60  1  0  0  0  0
 53 60  1  0  0  0  0
 54 60  1  0  0  0  0
 55 69  1  0  0  0  0
 56 57  1  0  0  0  0
 57 76  1  0  0  0  0
 58 60  1  0  0  0  0
 58 68  1  0  0  0  0
 59 69  1  0  0  0  0
 61 62  1  0  0  0  0
M  CHG  1  69   1
M  ISO  4  29 100  47 100  57 101  76 101
M  END
> <Batch ID>
0042

> <Smiles>
CNC(C)C(=O)NC(C(=O)N1Cc2cc([101O:1][101CH2:1]CC3CC[100CH:0]([100C:0](=O)N4CCCC(n5nc(-c6ccc(Oc7ccc(F)cc7F)cc6)c(C(N)=O)c5N)C4)CC3)ccc2CC1C(=O)NC1CCCc2ccccc21)C(C)(C)C

> <Shape>
0.228

> <Color>
0.148

> <Negative vol penalty>
0.000

$$$$

  -OEChem-04052317123D

 80 88  0     1  0  0  0  0  0999 V2000
  -23.4981  -23.0290   34.2835 C   0  0  0  0  0  0  0  0  0  0  0  0
  -24.5189  -22.4631   33.5264 C   0  0  0  0  0  0  0  0  0  0  0  0
  -23.1637   -9.8462   19.9192 C   0  0  0  0  0  0  0  0  0  0  0  0
  -23.8304   -9.9071   22.2406 C   0  0  0  0  0  0  0  0  0  0  0  0
  -22.3778  -23.5658   33.6505 C   0  0  0  0  0  0  0  0  0  0  0  0
  -24.4195  -22.4329   32.1358 C   0  0  0  0  0  0  0  0  0  0  0  0
  -28.9982  -22.9756   28.1051 C   0  0  0  0  0  0  0  0  0  0  0  0
  -22.4379   -8.6793   20.1582 C   0  0  0  0  0  0  0  0  0  0  0  0
  -23.1045   -8.7402   22.4797 C   0  0  0  0  0  0  0  0  0  0  0  0
  -29.7301  -22.0329   27.3844 C   0  0  0  0  0  0  0  0  0  0  0  0
  -19.4534   -7.8337   21.5038 C   0  0  0  0  0  0  0  0  0  0  0  0
  -18.1686   -7.7481   20.9676 C   0  0  0  0  0  0  0  0  0  0  0  0
  -28.2686  -22.3538   25.4922 C   0  0  0  0  0  0  0  0  0  0  0  0
  -18.8269   -5.7991   19.7008 C   0  0  0  0  0  0  0  0  0  0  0  0
  -33.4309  -16.5167   22.1920 C   0  0  0  0  0  0  0  0  0  0  0  0
  -23.8600  -10.4601   20.9604 C   0  0  0  0  0  0  0  0  0  0  0  0
  -24.1464  -12.9907   20.8127 C   0  0  0  0  0  0  0  0  0  0  0  0
  -22.2691  -23.5508   32.2510 C   0  0  0  0  0  0  0  0  0  0  0  0
  -27.8876  -23.6076   27.5275 C   0  0  0  0  0  0  0  0  0  0  0  0
  -23.2962  -22.9689   31.4836 C   0  0  0  0  0  0  0  0  0  0  0  0
  -27.5259  -23.3060   26.2068 C   0  0  0  0  0  0  0  0  0  0  0  0
  -22.4083   -8.1263   21.4384 C   0  0  0  0  0  0  0  0  0  0  0  0
  -29.3636  -21.7197   26.0787 C   0  0  0  0  0  0  0  0  0  0  0  0
  -20.4251   -6.9020   21.1383 C   0  0  0  0  0  0  0  0  0  0  0  0
  -17.8553   -6.7308   20.0662 C   0  0  0  0  0  0  0  0  0  0  0  0
  -20.1118   -5.8847   20.2369 C   0  0  0  0  0  0  0  0  0  0  0  0
  -24.6104  -11.6652   20.7140 C   0  0  0  0  0  0  0  0  0  0  0  0
  -25.2342  -13.7608   20.4810 C   0  0  0  0  0  0  0  0  0  0  0  0
  -32.9603  -18.4475   21.5532 C   0  0  0  0  0  0  0  0  0  0  0  0
  -22.8482  -13.4818   21.1722 C   0  0  0  0  0  0  0  0  0  0  0  0
  -24.7799  -23.7240   28.1849 C   0  0  0  0  0  0  0  0  0  0  0  0
  -30.5895  -14.8843   21.0614 C   0  0  0  0  0  0  0  0  0  0  0  0
  -24.7504  -25.9031   25.7822 C   0  0  0  0  0  0  0  0  0  0  0  0
  -26.2292  -27.1225   22.9585 C   0  0  0  0  0  0  0  0  0  0  0  0
  -21.0174  -24.1008   31.6142 C   0  0  0  0  0  0  0  0  0  0  0  0
  -27.1247  -24.6418   28.3091 C   0  0  0  0  0  0  0  0  0  0  0  0
  -26.3540  -23.9712   25.5340 C   0  0  0  0  0  0  0  0  0  0  0  0
  -21.1613  -24.3658   30.1177 C   0  0  0  0  0  0  0  0  0  0  0  0
  -29.6914  -12.4907   18.4746 C   0  0  0  0  0  0  0  0  0  0  0  0
  -21.8231  -23.1780   29.4264 C   0  0  0  0  0  0  0  0  0  0  0  0
  -28.2522  -12.1505   18.8594 C   0  0  0  0  0  0  0  0  0  0  0  0
  -30.5593  -12.7335   19.7067 C   0  0  0  0  0  0  0  0  0  0  0  0
  -28.5803  -13.4412   21.0132 C   0  0  0  0  0  0  0  0  0  0  0  0
  -23.2363  -22.9395   29.9718 C   0  0  1  0  0  0  0  0  0  0  0  0
  -25.7015  -24.8463   27.7991 C   0  0  1  0  0  0  0  0  0  0  0  0
  -27.6646  -13.2189   19.7979 C   0  0  2  0  0  0  0  0  0  0  0  0
  -25.9527  -28.8853   21.1941 C   0  0  0  0  0  0  0  0  0  0  0  0
  -22.5501  -24.2437   24.4726 C   0  0  0  0  0  0  0  0  0  0  0  0
  -22.9840  -25.4797   22.3390 C   0  0  0  0  0  0  0  0  0  0  0  0
  -22.1995  -26.7172   24.3579 C   0  0  0  0  0  0  0  0  0  0  0  0
  -28.7990  -28.4050   23.6727 C   0  0  0  0  0  0  0  0  0  0  0  0
  -32.8567  -19.9400   21.3647 C   0  0  0  0  0  0  0  0  0  0  0  0
  -32.0155  -15.0959   20.6191 C   0  0  0  0  0  0  0  0  0  0  0  0
  -31.5659  -20.5468   21.9260 C   0  0  0  0  0  0  0  0  0  0  0  0
  -31.4388  -20.3867   23.4416 C   0  0  0  0  0  0  0  0  0  0  0  0
  -30.1279  -20.9652   23.9569 C   0  0  0  0  0  0  0  0  0  1  0  0
  -24.5699  -25.8409   24.2847 C   0  0  1  0  0  0  0  0  0  0  0  0
  -26.5791  -28.5378   22.5356 C   0  0  2  0  0  0  0  0  0  0  0  0
  -23.0969  -25.5562   23.8766 C   0  0  0  0  0  0  0  0  0  0  0  0
  -33.7017  -17.8311   22.4443 N   0  0  0  0  0  0  0  0  0  0  0  0
  -25.8929  -11.5938   20.3481 N   0  0  0  0  0  0  0  0  0  0  0  0
  -32.2830  -17.5322   20.8094 N   0  0  0  0  0  0  0  0  0  0  0  0
  -32.5686  -16.2810   21.2008 N   0  0  0  0  0  0  0  0  0  0  0  0
  -26.2442  -12.8840   20.2139 N   0  0  0  0  0  0  0  0  0  0  0  0
  -25.6357  -24.9709   26.3416 N   0  0  0  0  0  0  0  0  0  0  0  0
  -29.9515  -13.7373   20.5884 N   0  0  0  0  0  0  0  0  0  0  0  0
  -25.4157  -15.0957   20.3946 N   0  0  0  0  0  0  0  0  0  0  0  0
  -21.8454  -12.5536   21.4837 N   0  0  0  0  0  0  0  0  0  0  0  0
  -24.1634  -23.8979   29.4094 N   0  0  0  0  0  0  0  0  0  0  0  0
  -25.1053  -27.0911   23.7567 N   0  0  0  0  0  0  0  0  0  0  0  0
  -28.0567  -28.6931   22.4186 N   0  3  0  0  0  0  0  0  0  0  0  0
  -22.5807  -14.7071   21.1999 O   0  0  0  0  0  0  0  0  0  0  0  0
  -24.6374  -22.7716   27.4271 O   0  0  0  0  0  0  0  0  0  0  0  0
  -30.0594  -15.7159   21.8026 O   0  0  0  0  0  0  0  0  0  0  0  0
  -24.1341  -26.7523   26.4308 O   0  0  0  0  0  0  0  0  0  0  0  0
  -26.8850  -26.1424   22.6122 O   0  0  0  0  0  0  0  0  0  0  0  0
  -21.7000   -6.9877   21.6721 O   0  0  0  0  0  0  0  0  0  0  0  0
  -30.0759  -20.7995   25.3733 O   0  0  0  0  0  0  0  0  0  1  0  0
  -16.6210   -6.6479   19.5526 F   0  0  0  0  0  0  0  0  0  0  0  0
  -21.0407   -4.9860   19.8830 F   0  0  0  0  0  0  0  0  0  0  0  0
  1  2  1  0  0  0  0
  1  5  2  0  0  0  0
  2  6  2  0  0  0  0
  3  8  2  0  0  0  0
  3 16  1  0  0  0  0
  4  9  1  0  0  0  0
  4 16  2  0  0  0  0
  5 18  1  0  0  0  0
  6 20  1  0  0  0  0
  7 10  2  0  0  0  0
  7 19  1  0  0  0  0
  8 22  1  0  0  0  0
  9 22  2  0  0  0  0
 10 23  1  0  0  0  0
 11 12  2  0  0  0  0
 11 24  1  0  0  0  0
 12 25  1  0  0  0  0
 13 21  1  0  0  0  0
 13 23  2  0  0  0  0
 14 25  2  0  0  0  0
 14 26  1  0  0  0  0
 15 60  2  0  0  0  0
 15 63  1  0  0  0  0
 16 27  1  0  0  0  0
 17 27  1  0  0  0  0
 17 28  2  0  0  0  0
 17 30  1  0  0  0  0
 18 20  2  0  0  0  0
 18 35  1  0  0  0  0
 19 21  2  0  0  0  0
 19 36  1  0  0  0  0
 20 44  1  0  0  0  0
 21 37  1  0  0  0  0
 22 77  1  0  0  0  0
 23 78  1  0  0  0  0
 24 26  2  0  0  0  0
 24 77  1  0  0  0  0
 25 79  1  0  0  0  0
 26 80  1  0  0  0  0
 27 61  2  0  0  0  0
 28 64  1  0  0  0  0
 28 67  1  0  0  0  0
 29 52  1  0  0  0  0
 29 60  1  0  0  0  0
 29 62  2  0  0  0  0
 30 68  1  0  0  0  0
 30 72  2  0  0  0  0
 31 45  1  0  0  0  0
 31 69  1  0  0  0  0
 31 73  2  0  0  0  0
 32 53  1  0  0  0  0
 32 66  1  0  0  0  0
 32 74  2  0  0  0  0
 33 57  1  0  0  0  0
 33 65  1  0  0  0  0
 33 75  2  0  0  0  0
 34 58  1  0  0  0  0
 34 70  1  0  0  0  0
 34 76  2  0  0  0  0
 35 38  1  0  0  0  0
 36 45  1  0  0  0  0
 37 65  1  0  0  0  0
 38 40  1  0  0  0  0
 39 41  1  0  0  0  0
 39 42  1  0  0  0  0
 40 44  1  0  0  0  0
 41 46  1  0  0  0  0
 42 66  1  0  0  0  0
 43 46  1  0  0  0  0
 43 66  1  0  0  0  0
 44 69  1  0  0  0  0
 45 65  1  0  0  0  0
 46 64  1  0  0  0  0
 47 58  1  0  0  0  0
 48 59  1  0  0  0  0
 49 59  1  0  0  0  0
 50 59  1  0  0  0  0
 51 71  1  0  0  0  0
 52 54  1  0  0  0  0
 53 63  1  0  0  0  0
 54 55  1  0  0  0  0
 55 56  1  0  0  0  0
 56 78  1  0  0  0  0
 57 59  1  0  0  0  0
 57 70  1  0  0  0  0
 58 71  1  0  0  0  0
 61 64  1  0  0  0  0
 62 63  1  0  0  0  0
M  CHG  1  71   1
M  ISO  4  32 100  53 100  56 101  78 101
M  END
> <Batch ID>
0042

> <Smiles>
CNC(C)C(=O)NC(C(=O)N1Cc2cc([101O:1][101CH2:1]CCCc3ncn([100CH2:0][100C:0](=O)N4CCCC(n5nc(-c6ccc(Oc7ccc(F)cc7F)cc6)c(C(N)=O)c5N)C4)n3)ccc2CC1C(=O)NC1CCCc2ccccc21)C(C)(C)C

> <Shape>
0.155

> <Color>
0.174

> <Negative vol penalty>
0.000

$$$$

  -OEChem-04052317123D

 81 89  0     1  0  0  0  0  0999 V2000
  -21.9945  -25.0944   31.3882 C   0  0  0  0  0  0  0  0  0  0  0  0
  -22.4610  -24.4329   30.2567 C   0  0  0  0  0  0  0  0  0  0  0  0
  -23.0061   -9.8666   19.9735 C   0  0  0  0  0  0  0  0  0  0  0  0
  -23.7346   -9.9175   22.2765 C   0  0  0  0  0  0  0  0  0  0  0  0
  -21.2396  -26.2586   31.2521 C   0  0  0  0  0  0  0  0  0  0  0  0
  -22.1717  -24.9348   28.9883 C   0  0  0  0  0  0  0  0  0  0  0  0
  -26.2056  -24.9197   25.9268 C   0  0  0  0  0  0  0  0  0  0  0  0
  -22.2418   -8.7308   20.2403 C   0  0  0  0  0  0  0  0  0  0  0  0
  -22.9702   -8.7816   22.5434 C   0  0  0  0  0  0  0  0  0  0  0  0
  -26.5660  -23.7006   25.3544 C   0  0  0  0  0  0  0  0  0  0  0  0
  -23.2192   -5.4433   22.0692 C   0  0  0  0  0  0  0  0  0  0  0  0
  -23.8094   -4.4266   22.8199 C   0  0  0  0  0  0  0  0  0  0  0  0
  -25.4741  -24.3479   23.3031 C   0  0  0  0  0  0  0  0  0  0  0  0
  -22.0876   -4.6659   24.4978 C   0  0  0  0  0  0  0  0  0  0  0  0
  -27.6871  -17.9706   22.8482 C   0  0  0  0  0  0  0  0  0  0  0  0
  -23.7526  -10.4600   20.9916 C   0  0  0  0  0  0  0  0  0  0  0  0
  -24.1336  -12.9763   20.8165 C   0  0  0  0  0  0  0  0  0  0  0  0
  -20.9491  -26.7803   29.9816 C   0  0  0  0  0  0  0  0  0  0  0  0
  -25.4662  -25.8592   25.1940 C   0  0  0  0  0  0  0  0  0  0  0  0
  -21.4110  -26.1063   28.8350 C   0  0  0  0  0  0  0  0  0  0  0  0
  -25.1078  -25.5792   23.8676 C   0  0  0  0  0  0  0  0  0  0  0  0
  -22.2238   -8.1883   21.5253 C   0  0  0  0  0  0  0  0  0  0  0  0
  -26.1977  -23.4133   24.0433 C   0  0  0  0  0  0  0  0  0  0  0  0
  -22.0632   -6.0714   22.5328 C   0  0  0  0  0  0  0  0  0  0  0  0
  -23.2437   -4.0379   24.0341 C   0  0  0  0  0  0  0  0  0  0  0  0
  -21.4974   -5.6826   23.7471 C   0  0  0  0  0  0  0  0  0  0  0  0
  -24.5428  -11.6330   20.7165 C   0  0  0  0  0  0  0  0  0  0  0  0
  -28.3691  -18.7190   21.9308 C   0  0  0  0  0  0  0  0  0  0  0  0
  -25.2417  -13.7008   20.4509 C   0  0  0  0  0  0  0  0  0  0  0  0
  -27.6037  -20.0863   23.4944 C   0  0  0  0  0  0  0  0  0  0  0  0
  -22.8654  -13.5204   21.2052 C   0  0  0  0  0  0  0  0  0  0  0  0
  -22.6054  -27.2068   25.5160 C   0  0  0  0  0  0  0  0  0  0  0  0
  -23.5817  -28.9707   22.9748 C   0  0  0  0  0  0  0  0  0  0  0  0
  -25.6059  -29.2388   20.2403 C   0  0  0  0  0  0  0  0  0  0  0  0
  -30.7369  -14.6440   20.6918 C   0  0  0  0  0  0  0  0  0  0  0  0
  -20.0894  -28.0156   29.8833 C   0  0  0  0  0  0  0  0  0  0  0  0
  -25.1083  -27.1806   25.8170 C   0  0  0  0  0  0  0  0  0  0  0  0
  -24.3313  -26.5624   23.0316 C   0  0  0  0  0  0  0  0  0  0  0  0
  -20.1440  -28.6883   28.5141 C   0  0  0  0  0  0  0  0  0  0  0  0
  -29.5966  -12.2199   18.3467 C   0  0  0  0  0  0  0  0  0  0  0  0
  -19.9942  -27.6527   27.4041 C   0  0  0  0  0  0  0  0  0  0  0  0
  -28.1492  -11.9576   18.7662 C   0  0  0  0  0  0  0  0  0  0  0  0
  -30.5005  -12.4560   19.5547 C   0  0  0  0  0  0  0  0  0  0  0  0
  -28.5911  -13.2477   20.8967 C   0  0  0  0  0  0  0  0  0  0  0  0
  -21.1391  -26.6332   27.4426 C   0  0  1  0  0  0  0  0  0  0  0  0
  -23.9120  -27.8516   25.1492 C   0  0  1  0  0  0  0  0  0  0  0  0
  -27.6306  -13.0592   19.7100 C   0  0  2  0  0  0  0  0  0  0  0  0
  -26.1509  -30.7800   18.3363 C   0  0  0  0  0  0  0  0  0  0  0  0
  -21.0078  -28.1354   21.5652 C   0  0  0  0  0  0  0  0  0  0  0  0
  -22.0293  -28.8851   19.4059 C   0  0  0  0  0  0  0  0  0  0  0  0
  -21.6449  -30.5318   21.2398 C   0  0  0  0  0  0  0  0  0  0  0  0
  -28.8911  -21.1643   21.6795 C   0  0  0  0  0  0  0  0  0  0  0  0
  -28.4158  -29.5256   21.1243 C   0  0  0  0  0  0  0  0  0  0  0  0
  -29.0695  -18.3159   20.7052 C   0  0  0  0  0  0  0  0  0  0  0  0
  -27.2919  -21.3167   24.2945 C   0  0  0  0  0  0  0  0  0  1  0  0
  -30.5678  -17.9572   20.8872 C   0  0  0  0  0  0  0  0  0  0  0  0
  -30.8179  -16.8224   21.8781 C   0  0  0  0  0  0  0  0  0  0  0  0
  -23.4944  -28.8242   21.4749 C   0  0  1  0  0  0  0  0  0  0  0  0
  -26.5017  -30.3650   19.7567 C   0  0  2  0  0  0  0  0  0  0  0  0
  -22.0571  -29.0746   20.9376 C   0  0  0  0  0  0  0  0  0  0  0  0
  -25.8117  -11.5087   20.3184 N   0  0  0  0  0  0  0  0  0  0  0  0
  -28.3010  -20.0240   22.3553 N   0  0  0  0  0  0  0  0  0  0  0  0
  -26.2094  -12.7832   20.1649 N   0  0  0  0  0  0  0  0  0  0  0  0
  -27.2247  -18.8423   23.8045 N   0  3  0  0  0  0  0  0  0  0  0  0
  -23.9995  -27.8379   23.6876 N   0  0  0  0  0  0  0  0  0  0  0  0
  -29.9532  -13.5134   20.4082 N   0  0  0  0  0  0  0  0  0  0  0  0
  -25.4729  -15.0270   20.3492 N   0  0  0  0  0  0  0  0  0  0  0  0
  -21.8355  -12.6345   21.5497 N   0  0  0  0  0  0  0  0  0  0  0  0
  -22.3416  -27.2019   26.8724 N   0  0  0  0  0  0  0  0  0  0  0  0
  -24.5046  -29.7174   20.9180 N   0  0  0  0  0  0  0  0  0  0  0  0
  -30.1403  -15.6014   21.5031 N   0  0  0  0  0  0  0  0  0  0  0  0
  -27.9295  -29.9387   19.7827 N   0  3  0  0  0  0  0  0  0  0  0  0
  -22.6467  -14.7554   21.2300 O   0  0  0  0  0  0  0  0  0  0  0  0
  -21.8889  -26.7489   24.6336 O   0  0  0  0  0  0  0  0  0  0  0  0
  -23.2967  -30.0527   23.4943 O   0  0  0  0  0  0  0  0  0  0  0  0
  -25.8562  -28.0533   20.0341 O   0  0  0  0  0  0  0  0  0  0  0  0
  -31.8815  -14.7920   20.2502 O   0  0  0  0  0  0  0  0  0  0  0  0
  -21.4779   -7.0800   21.7860 O   0  0  0  0  0  0  0  0  0  0  0  0
  -26.5476  -22.2238   23.4824 O   0  0  0  0  0  0  0  0  0  1  0  0
  -23.8097   -3.0605   24.7541 F   0  0  0  0  0  0  0  0  0  0  0  0
  -20.3862   -6.2814   24.1971 F   0  0  0  0  0  0  0  0  0  0  0  0
  1  2  1  0  0  0  0
  1  5  2  0  0  0  0
  2  6  2  0  0  0  0
  3  8  2  0  0  0  0
  3 16  1  0  0  0  0
  4  9  1  0  0  0  0
  4 16  2  0  0  0  0
  5 18  1  0  0  0  0
  6 20  1  0  0  0  0
  7 10  2  0  0  0  0
  7 19  1  0  0  0  0
  8 22  1  0  0  0  0
  9 22  2  0  0  0  0
 10 23  1  0  0  0  0
 11 12  2  0  0  0  0
 11 24  1  0  0  0  0
 12 25  1  0  0  0  0
 13 21  1  0  0  0  0
 13 23  2  0  0  0  0
 14 25  2  0  0  0  0
 14 26  1  0  0  0  0
 15 28  2  0  0  0  0
 15 64  1  0  0  0  0
 16 27  1  0  0  0  0
 17 27  1  0  0  0  0
 17 29  2  0  0  0  0
 17 31  1  0  0  0  0
 18 20  2  0  0  0  0
 18 36  1  0  0  0  0
 19 21  2  0  0  0  0
 19 37  1  0  0  0  0
 20 45  1  0  0  0  0
 21 38  1  0  0  0  0
 22 78  1  0  0  0  0
 23 79  1  0  0  0  0
 24 26  2  0  0  0  0
 24 78  1  0  0  0  0
 25 80  1  0  0  0  0
 26 81  1  0  0  0  0
 27 61  2  0  0  0  0
 28 54  1  0  0  0  0
 28 62  1  0  0  0  0
 29 63  1  0  0  0  0
 29 67  1  0  0  0  0
 30 55  1  0  0  0  0
 30 62  1  0  0  0  0
 30 64  2  0  0  0  0
 31 68  1  0  0  0  0
 31 73  2  0  0  0  0
 32 46  1  0  0  0  0
 32 69  1  0  0  0  0
 32 74  2  0  0  0  0
 33 58  1  0  0  0  0
 33 65  1  0  0  0  0
 33 75  2  0  0  0  0
 34 59  1  0  0  0  0
 34 70  1  0  0  0  0
 34 76  2  0  0  0  0
 35 66  1  0  0  0  0
 35 71  1  0  0  0  0
 35 77  2  0  0  0  0
 36 39  1  0  0  0  0
 37 46  1  0  0  0  0
 38 65  1  0  0  0  0
 39 41  1  0  0  0  0
 40 42  1  0  0  0  0
 40 43  1  0  0  0  0
 41 45  1  0  0  0  0
 42 47  1  0  0  0  0
 43 66  1  0  0  0  0
 44 47  1  0  0  0  0
 44 66  1  0  0  0  0
 45 69  1  0  0  0  0
 46 65  1  0  0  0  0
 47 63  1  0  0  0  0
 48 59  1  0  0  0  0
 49 60  1  0  0  0  0
 50 60  1  0  0  0  0
 51 60  1  0  0  0  0
 52 62  1  0  0  0  0
 53 72  1  0  0  0  0
 54 56  1  0  0  0  0
 55 79  1  0  0  0  0
 56 57  1  0  0  0  0
 57 71  1  0  0  0  0
 58 60  1  0  0  0  0
 58 70  1  0  0  0  0
 59 72  1  0  0  0  0
 61 63  1  0  0  0  0
M  CHG  2  64   1  72   1
M  ISO  4  35 100  55 101  71 100  79 101
M  END
> <Batch ID>
0042

> <Smiles>
CNC(C)C(=O)NC(C(=O)N1Cc2cc([101O:1][101CH2:1]c3ncc(CCC[100NH:0][100C:0](=O)N4CCCC(n5nc(-c6ccc(Oc7ccc(F)cc7F)cc6)c(C(N)=O)c5N)C4)n3C)ccc2CC1C(=O)NC1CCCc2ccccc21)C(C)(C)C

> <Shape>
0.263

> <Color>
0.203

> <Negative vol penalty>
0.000

$$$$

  -OEChem-04052317123D

 81 89  0     1  0  0  0  0  0999 V2000
  -16.9431  -30.0402   24.0282 C   0  0  0  0  0  0  0  0  0  0  0  0
  -18.1357  -30.6070   24.4664 C   0  0  0  0  0  0  0  0  0  0  0  0
  -26.4127  -22.2200   28.6186 C   0  0  0  0  0  0  0  0  0  0  0  0
  -28.4655  -23.3940   29.1133 C   0  0  0  0  0  0  0  0  0  0  0  0
  -16.9662  -28.8752   23.2626 C   0  0  0  0  0  0  0  0  0  0  0  0
  -19.3521  -30.0084   24.1401 C   0  0  0  0  0  0  0  0  0  0  0  0
  -24.6543  -32.8425   22.9739 C   0  0  0  0  0  0  0  0  0  0  0  0
  -26.5340  -21.5055   29.8104 C   0  0  0  0  0  0  0  0  0  0  0  0
  -28.5868  -22.6795   30.3052 C   0  0  0  0  0  0  0  0  0  0  0  0
  -25.7768  -33.0936   23.7618 C   0  0  0  0  0  0  0  0  0  0  0  0
  -29.6274  -20.9087   33.3037 C   0  0  0  0  0  0  0  0  0  0  0  0
  -30.8804  -20.3841   33.6205 C   0  0  0  0  0  0  0  0  0  0  0  0
  -26.8409  -31.1243   22.8627 C   0  0  0  0  0  0  0  0  0  0  0  0
  -30.8455  -19.0748   31.5903 C   0  0  0  0  0  0  0  0  0  0  0  0
  -30.5153  -31.8770   23.0655 C   0  0  0  0  0  0  0  0  0  0  0  0
  -30.2899  -29.7537   23.5904 C   0  0  0  0  0  0  0  0  0  0  0  0
  -27.3784  -23.1642   28.2700 C   0  0  0  0  0  0  0  0  0  0  0  0
  -26.5967  -25.1324   26.8478 C   0  0  0  0  0  0  0  0  0  0  0  0
  -18.1839  -28.2674   22.9186 C   0  0  0  0  0  0  0  0  0  0  0  0
  -24.6123  -31.7225   22.1312 C   0  0  0  0  0  0  0  0  0  0  0  0
  -19.3914  -28.8334   23.3703 C   0  0  0  0  0  0  0  0  0  0  0  0
  -25.7178  -30.8626   22.0633 C   0  0  0  0  0  0  0  0  0  0  0  0
  -29.7958  -30.9980   23.8971 C   0  0  0  0  0  0  0  0  0  0  0  0
  -27.6211  -21.7353   30.6537 C   0  0  0  0  0  0  0  0  0  0  0  0
  -26.8691  -32.2329   23.7085 C   0  0  0  0  0  0  0  0  0  0  0  0
  -28.9833  -20.5162   32.1303 C   0  0  0  0  0  0  0  0  0  0  0  0
  -31.4895  -19.4673   32.7638 C   0  0  0  0  0  0  0  0  0  0  0  0
  -29.5924  -19.5993   31.2736 C   0  0  0  0  0  0  0  0  0  0  0  0
  -27.2540  -23.9022   27.0388 C   0  0  0  0  0  0  0  0  0  0  0  0
  -26.7627  -25.4066   25.5122 C   0  0  0  0  0  0  0  0  0  0  0  0
  -25.8986  -25.9538   27.7931 C   0  0  0  0  0  0  0  0  0  0  0  0
  -22.7835  -29.1300   21.9354 C   0  0  0  0  0  0  0  0  0  0  0  0
  -24.4938  -28.6039   19.2298 C   0  0  0  0  0  0  0  0  0  0  0  0
  -27.3641  -29.1464   17.4652 C   0  0  0  0  0  0  0  0  0  0  0  0
  -29.9739  -25.6363   20.9536 C   0  0  0  0  0  0  0  0  0  0  0  0
  -18.1565  -26.9827   22.1290 C   0  0  0  0  0  0  0  0  0  0  0  0
  -23.4047  -31.4804   21.2677 C   0  0  0  0  0  0  0  0  0  0  0  0
  -25.7308  -29.6576   21.1598 C   0  0  0  0  0  0  0  0  0  0  0  0
  -19.5039  -26.6189   21.5107 C   0  0  0  0  0  0  0  0  0  0  0  0
  -28.4801  -22.5024   21.7436 C   0  0  0  0  0  0  0  0  0  0  0  0
  -20.6217  -26.7748   22.5369 C   0  0  0  0  0  0  0  0  0  0  0  0
  -27.9797  -22.6868   23.1773 C   0  0  0  0  0  0  0  0  0  0  0  0
  -29.8031  -23.2284   21.5099 C   0  0  0  0  0  0  0  0  0  0  0  0
  -29.2953  -24.8438   23.3005 C   0  0  0  0  0  0  0  0  0  0  0  0
  -20.7321  -28.2273   23.0160 C   0  0  1  0  0  0  0  0  0  0  0  0
  -23.2655  -30.0258   20.8295 C   0  0  1  0  0  0  0  0  0  0  0  0
  -27.9356  -24.1761   23.5686 C   0  0  2  0  0  0  0  0  0  0  0  0
  -29.3013  -31.6400   26.2817 C   0  0  0  0  0  0  0  0  0  0  0  0
  -28.4878  -28.5539   15.3010 C   0  0  0  0  0  0  0  0  0  0  0  0
  -25.1426  -25.8322   20.3283 C   0  0  0  0  0  0  0  0  0  0  0  0
  -26.9812  -25.6687   18.6368 C   0  0  0  0  0  0  0  0  0  0  0  0
  -24.6129  -25.8882   17.8848 C   0  0  0  0  0  0  0  0  0  0  0  0
  -27.4702  -31.9780   16.6110 C   0  0  0  0  0  0  0  0  0  0  0  0
  -31.5419  -28.5442   20.5945 C   0  0  0  0  0  0  0  0  0  0  0  0
  -32.0389  -28.9387   21.9918 C   0  0  0  0  0  0  0  0  0  0  0  0
  -30.0873  -28.0816   20.5456 C   0  0  0  0  0  0  0  0  0  0  0  0
  -28.7227  -31.3434   24.9040 C   0  0  1  0  0  0  0  0  0  1  0  0
  -25.7810  -27.8869   18.9011 C   0  0  1  0  0  0  0  0  0  0  0  0
  -27.5973  -29.5541   16.0217 C   0  0  2  0  0  0  0  0  0  0  0  0
  -25.6287  -26.3406   18.9563 C   0  0  0  0  0  0  0  0  0  0  0  0
  -31.3992  -31.2448   22.2890 N   0  0  0  0  0  0  0  0  0  0  0  0
  -27.7969  -23.4277   25.9145 N   0  0  0  0  0  0  0  0  0  0  0  0
  -31.2385  -29.9552   22.6314 N   0  0  0  0  0  0  0  0  0  0  0  0
  -27.4811  -24.3645   25.0042 N   0  0  0  0  0  0  0  0  0  0  0  0
  -24.5241  -29.4600   20.3397 N   0  0  0  0  0  0  0  0  0  0  0  0
  -29.6935  -24.6363   21.8994 N   0  0  0  0  0  0  0  0  0  0  0  0
  -26.3628  -26.4351   24.7346 N   0  0  0  0  0  0  0  0  0  0  0  0
  -25.8229  -25.5233   29.1247 N   0  0  0  0  0  0  0  0  0  0  0  0
  -21.4077  -29.0366   22.0245 N   0  0  0  0  0  0  0  0  0  0  0  0
  -26.2140  -28.3988   17.6054 N   0  0  0  0  0  0  0  0  0  0  0  0
  -29.8397  -26.9442   21.4032 N   0  0  0  0  0  0  0  0  0  0  0  0
  -28.2489  -30.8930   15.9603 N   0  3  0  0  0  0  0  0  0  0  0  0
  -25.3437  -27.0294   27.4631 O   0  0  0  0  0  0  0  0  0  0  0  0
  -23.5994  -28.5643   22.6537 O   0  0  0  0  0  0  0  0  0  0  0  0
  -23.5000  -28.4170   18.5233 O   0  0  0  0  0  0  0  0  0  0  0  0
  -28.1280  -29.4566   18.3767 O   0  0  0  0  0  0  0  0  0  0  0  0
  -30.3132  -25.3823   19.7929 O   0  0  0  0  0  0  0  0  0  0  0  0
  -27.7397  -21.0384   31.8168 O   0  0  0  0  0  0  0  0  0  0  0  0
  -27.9658  -32.4753   24.4769 O   0  0  0  0  0  0  0  0  0  1  0  0
  -32.6935  -18.9648   33.0673 F   0  0  0  0  0  0  0  0  0  0  0  0
  -28.9792  -19.2194   30.1442 F   0  0  0  0  0  0  0  0  0  0  0  0
  1  2  1  0  0  0  0
  1  5  2  0  0  0  0
  2  6  2  0  0  0  0
  3  8  2  0  0  0  0
  3 17  1  0  0  0  0
  4  9  1  0  0  0  0
  4 17  2  0  0  0  0
  5 19  1  0  0  0  0
  6 21  1  0  0  0  0
  7 10  2  0  0  0  0
  7 20  1  0  0  0  0
  8 24  1  0  0  0  0
  9 24  2  0  0  0  0
 10 25  1  0  0  0  0
 11 12  2  0  0  0  0
 11 26  1  0  0  0  0
 12 27  1  0  0  0  0
 13 22  1  0  0  0  0
 13 25  2  0  0  0  0
 14 27  2  0  0  0  0
 14 28  1  0  0  0  0
 15 23  1  0  0  0  0
 15 61  2  0  0  0  0
 16 23  2  0  0  0  0
 16 63  1  0  0  0  0
 17 29  1  0  0  0  0
 18 29  1  0  0  0  0
 18 30  2  0  0  0  0
 18 31  1  0  0  0  0
 19 21  2  0  0  0  0
 19 36  1  0  0  0  0
 20 22  2  0  0  0  0
 20 37  1  0  0  0  0
 21 45  1  0  0  0  0
 22 38  1  0  0  0  0
 23 57  1  0  0  0  0
 24 78  1  0  0  0  0
 25 79  1  0  0  0  0
 26 28  2  0  0  0  0
 26 78  1  0  0  0  0
 27 80  1  0  0  0  0
 28 81  1  0  0  0  0
 29 62  2  0  0  0  0
 30 64  1  0  0  0  0
 30 67  1  0  0  0  0
 31 68  1  0  0  0  0
 31 73  2  0  0  0  0
 32 46  1  0  0  0  0
 32 69  1  0  0  0  0
 32 74  2  0  0  0  0
 33 58  1  0  0  0  0
 33 65  1  0  0  0  0
 33 75  2  0  0  0  0
 34 59  1  0  0  0  0
 34 70  1  0  0  0  0
 34 76  2  0  0  0  0
 35 66  1  0  0  0  0
 35 71  1  0  0  0  0
 35 77  2  0  0  0  0
 36 39  1  0  0  0  0
 37 46  1  0  0  0  0
 38 65  1  0  0  0  0
 39 41  1  0  0  0  0
 40 42  1  0  0  0  0
 40 43  1  0  0  0  0
 41 45  1  0  0  0  0
 42 47  1  0  0  0  0
 43 66  1  0  0  0  0
 44 47  1  0  0  0  0
 44 66  1  0  0  0  0
 45 69  1  0  0  0  0
 46 65  1  0  0  0  0
 47 64  1  0  0  0  0
 48 57  1  0  0  0  0
 49 59  1  0  0  0  0
 50 60  1  0  0  0  0
 51 60  1  0  0  0  0
 52 60  1  0  0  0  0
 53 72  1  0  0  0  0
 54 55  1  0  0  0  0
 54 56  1  0  0  0  0
 55 63  1  0  0  0  0
 56 71  1  0  0  0  0
 57 79  1  0  0  0  0
 58 60  1  0  0  0  0
 58 70  1  0  0  0  0
 59 72  1  0  0  0  0
 61 63  1  0  0  0  0
 62 64  1  0  0  0  0
M  CHG  1  72   1
M  ISO  4  35 100  57 101  71 100  79 101
M  END
> <Batch ID>
0042

> <Smiles>
CNC(C)C(=O)NC(C(=O)N1Cc2cc([101O:1][101CH:1](C)c3cnn(CCC[100NH:0][100C:0](=O)N4CCCC(n5nc(-c6ccc(Oc7ccc(F)cc7F)cc6)c(C(N)=O)c5N)C4)c3)ccc2CC1C(=O)NC1CCCc2ccccc21)C(C)(C)C

> <Shape>
0.198

> <Color>
0.094

> <Negative vol penalty>
0.000

$$$$

  -OEChem-04052317123D

 83 91  0     1  0  0  0  0  0999 V2000
  -27.2379  -24.7069   19.3114 C   0  0  0  0  0  0  0  0  0  0  0  0
  -26.4899  -24.4664   20.4595 C   0  0  0  0  0  0  0  0  0  0  0  0
  -24.7610  -13.7282   19.2659 C   0  0  0  0  0  0  0  0  0  0  0  0
  -24.9274  -13.4001   21.6537 C   0  0  0  0  0  0  0  0  0  0  0  0
  -27.3865  -26.0098   18.8379 C   0  0  0  0  0  0  0  0  0  0  0  0
  -25.8910  -25.5289   21.1354 C   0  0  0  0  0  0  0  0  0  0  0  0
  -21.1109  -24.5307   22.4768 C   0  0  0  0  0  0  0  0  0  0  0  0
  -24.8632  -12.3510   19.0695 C   0  0  0  0  0  0  0  0  0  0  0  0
  -25.0296  -12.0229   21.4573 C   0  0  0  0  0  0  0  0  0  0  0  0
  -20.9194  -23.7207   23.5953 C   0  0  0  0  0  0  0  0  0  0  0  0
  -24.9719   -8.3907   21.6063 C   0  0  0  0  0  0  0  0  0  0  0  0
  -24.2120   -7.5594   22.4291 C   0  0  0  0  0  0  0  0  0  0  0  0
  -20.4956  -25.6814   24.9351 C   0  0  0  0  0  0  0  0  0  0  0  0
  -22.1906   -8.6073   21.6209 C   0  0  0  0  0  0  0  0  0  0  0  0
  -23.6490  -22.5620   27.7398 C   0  0  0  0  0  0  0  0  0  0  0  0
  -24.7931  -14.2527   20.5580 C   0  0  0  0  0  0  0  0  0  0  0  0
  -23.5097  -16.4229   20.9465 C   0  0  0  0  0  0  0  0  0  0  0  0
  -26.7811  -27.0877   19.5028 C   0  0  0  0  0  0  0  0  0  0  0  0
  -21.0068  -25.9252   22.5816 C   0  0  0  0  0  0  0  0  0  0  0  0
  -26.0328  -26.8476   20.6711 C   0  0  0  0  0  0  0  0  0  0  0  0
  -20.6837  -26.5067   23.8159 C   0  0  0  0  0  0  0  0  0  0  0  0
  -24.3798  -21.5316   27.2007 C   0  0  0  0  0  0  0  0  0  0  0  0
  -24.9975  -11.4984   20.1652 C   0  0  0  0  0  0  0  0  0  0  0  0
  -20.6145  -24.2961   24.8253 C   0  0  0  0  0  0  0  0  0  0  0  0
  -24.3412   -9.3304   20.7909 C   0  0  0  0  0  0  0  0  0  0  0  0
  -22.8214   -7.6676   22.4364 C   0  0  0  0  0  0  0  0  0  0  0  0
  -22.9506   -9.4386   20.7982 C   0  0  0  0  0  0  0  0  0  0  0  0
  -24.6881  -15.6753   20.7615 C   0  0  0  0  0  0  0  0  0  0  0  0
  -23.4190  -20.5641   26.8507 C   0  0  0  0  0  0  0  0  0  0  0  0
  -23.9441  -17.7174   21.0950 C   0  0  0  0  0  0  0  0  0  0  0  0
  -22.1445  -15.9862   20.9812 C   0  0  0  0  0  0  0  0  0  0  0  0
  -22.9963  -28.3631   22.1326 C   0  0  0  0  0  0  0  0  0  0  0  0
  -20.3259  -30.1311   22.6480 C   0  0  0  0  0  0  0  0  0  0  0  0
  -17.2100  -30.3391   24.0245 C   0  0  0  0  0  0  0  0  0  0  0  0
  -27.4675  -21.4469   23.2909 C   0  0  0  0  0  0  0  0  0  0  0  0
  -27.0093  -28.4839   18.9799 C   0  0  0  0  0  0  0  0  0  0  0  0
  -21.1899  -26.7833   21.3599 C   0  0  0  0  0  0  0  0  0  0  0  0
  -20.5406  -27.9973   23.9771 C   0  0  0  0  0  0  0  0  0  0  0  0
  -26.0315  -29.5123   19.5424 C   0  0  0  0  0  0  0  0  0  0  0  0
  -28.5036  -19.7686   20.3268 C   0  0  0  0  0  0  0  0  0  0  0  0
  -25.9010  -29.3539   21.0539 C   0  0  0  0  0  0  0  0  0  0  0  0
  -27.5104  -18.6128   20.1946 C   0  0  0  0  0  0  0  0  0  0  0  0
  -28.8527  -20.0487   21.7868 C   0  0  0  0  0  0  0  0  0  0  0  0
  -26.6989  -19.1150   22.5373 C   0  0  0  0  0  0  0  0  0  0  0  0
  -25.3472  -27.9711   21.4179 C   0  0  1  0  0  0  0  0  0  0  0  0
  -21.5664  -28.2238   21.6926 C   0  0  1  0  0  0  0  0  0  0  0  0
  -26.2734  -18.8317   21.0864 C   0  0  2  0  0  0  0  0  0  0  0  0
  -22.9015  -19.0759   24.9004 C   0  0  0  0  0  0  0  0  0  0  0  0
  -15.2855  -31.9236   24.3126 C   0  0  0  0  0  0  0  0  0  0  0  0
  -21.8843  -31.6284   24.8019 C   0  0  0  0  0  0  0  0  0  0  0  0
  -19.7052  -32.4981   25.6756 C   0  0  0  0  0  0  0  0  0  0  0  0
  -20.4397  -33.0763   23.3628 C   0  0  0  0  0  0  0  0  0  0  0  0
  -15.3666  -28.5507   22.5540 C   0  0  0  0  0  0  0  0  0  0  0  0
  -25.8413  -21.4660   27.0323 C   0  0  0  0  0  0  0  0  0  0  0  0
  -23.6475  -19.2480   26.2290 C   0  0  0  0  0  0  0  0  0  0  0  0
  -26.4630  -22.6349   26.2275 C   0  0  0  0  0  0  0  0  0  0  0  0
  -21.1476  -22.9513   28.1556 C   0  0  0  0  0  0  0  0  0  0  0  0
  -25.9631  -22.7336   24.7878 C   0  0  0  0  0  0  0  0  0  0  0  0
  -20.7671  -24.0661   27.1874 C   0  0  0  0  0  0  0  0  0  1  0  0
  -19.6552  -30.7254   23.8629 C   0  0  1  0  0  0  0  0  0  0  0  0
  -15.8876  -30.8210   23.4557 C   0  0  2  0  0  0  0  0  0  0  0  0
  -20.4257  -31.9541   24.4235 C   0  0  0  0  0  0  0  0  0  0  0  0
  -25.7885  -16.4319   20.7893 N   0  0  0  0  0  0  0  0  0  0  0  0
  -22.1728  -20.9456   27.1431 N   0  0  0  0  0  0  0  0  0  0  0  0
  -22.3456  -22.1643   27.6826 N   0  0  0  0  0  0  0  0  0  0  0  0
  -25.3034  -17.6684   20.9934 N   0  0  0  0  0  0  0  0  0  0  0  0
  -20.7353  -28.7943   22.7546 N   0  0  0  0  0  0  0  0  0  0  0  0
  -27.6360  -20.2486   22.5778 N   0  0  0  0  0  0  0  0  0  0  0  0
  -23.2922  -18.8814   21.3011 N   0  0  0  0  0  0  0  0  0  0  0  0
  -21.8751  -14.6213   20.8117 N   0  0  0  0  0  0  0  0  0  0  0  0
  -23.9172  -27.9259   21.1997 N   0  0  0  0  0  0  0  0  0  0  0  0
  -18.2793  -31.0109   23.4708 N   0  0  0  0  0  0  0  0  0  0  0  0
  -26.2833  -21.5578   24.0095 N   0  0  0  0  0  0  0  0  0  0  0  0
  -14.9133  -29.6956   23.3851 N   0  3  0  0  0  0  0  0  0  0  0  0
  -21.1907  -16.7851   21.1409 O   0  0  0  0  0  0  0  0  0  0  0  0
  -23.2457  -28.8340   23.2361 O   0  0  0  0  0  0  0  0  0  0  0  0
  -20.4744  -30.8250   21.6390 O   0  0  0  0  0  0  0  0  0  0  0  0
  -17.2865  -29.4577   24.8776 O   0  0  0  0  0  0  0  0  0  0  0  0
  -28.3074  -22.3532   23.2833 O   0  0  0  0  0  0  0  0  0  0  0  0
  -25.0970  -10.1545   19.9740 O   0  0  0  0  0  0  0  0  0  0  0  0
  -20.4277  -23.5079   25.9187 O   0  0  0  0  0  0  0  0  0  1  0  0
  -22.0916   -6.8682   23.2255 F   0  0  0  0  0  0  0  0  0  0  0  0
  -22.3389  -10.3387   20.0161 F   0  0  0  0  0  0  0  0  0  0  0  0
  1  2  1  0  0  0  0
  1  5  2  0  0  0  0
  2  6  2  0  0  0  0
  3  8  2  0  0  0  0
  3 16  1  0  0  0  0
  4  9  1  0  0  0  0
  4 16  2  0  0  0  0
  5 18  1  0  0  0  0
  6 20  1  0  0  0  0
  7 10  2  0  0  0  0
  7 19  1  0  0  0  0
  8 23  1  0  0  0  0
  9 23  2  0  0  0  0
 10 24  1  0  0  0  0
 11 12  2  0  0  0  0
 11 25  1  0  0  0  0
 12 26  1  0  0  0  0
 13 21  1  0  0  0  0
 13 24  2  0  0  0  0
 14 26  2  0  0  0  0
 14 27  1  0  0  0  0
 15 22  2  0  0  0  0
 15 65  1  0  0  0  0
 16 28  1  0  0  0  0
 17 28  1  0  0  0  0
 17 30  2  0  0  0  0
 17 31  1  0  0  0  0
 18 20  2  0  0  0  0
 18 36  1  0  0  0  0
 19 21  2  0  0  0  0
 19 37  1  0  0  0  0
 20 45  1  0  0  0  0
 21 38  1  0  0  0  0
 22 29  1  0  0  0  0
 22 54  1  0  0  0  0
 23 80  1  0  0  0  0
 24 81  1  0  0  0  0
 25 27  2  0  0  0  0
 25 80  1  0  0  0  0
 26 82  1  0  0  0  0
 27 83  1  0  0  0  0
 28 63  2  0  0  0  0
 29 55  1  0  0  0  0
 29 64  2  0  0  0  0
 30 66  1  0  0  0  0
 30 69  1  0  0  0  0
 31 70  1  0  0  0  0
 31 75  2  0  0  0  0
 32 46  1  0  0  0  0
 32 71  1  0  0  0  0
 32 76  2  0  0  0  0
 33 60  1  0  0  0  0
 33 67  1  0  0  0  0
 33 77  2  0  0  0  0
 34 61  1  0  0  0  0
 34 72  1  0  0  0  0
 34 78  2  0  0  0  0
 35 68  1  0  0  0  0
 35 73  1  0  0  0  0
 35 79  2  0  0  0  0
 36 39  1  0  0  0  0
 37 46  1  0  0  0  0
 38 67  1  0  0  0  0
 39 41  1  0  0  0  0
 40 42  1  0  0  0  0
 40 43  1  0  0  0  0
 41 45  1  0  0  0  0
 42 47  1  0  0  0  0
 43 68  1  0  0  0  0
 44 47  1  0  0  0  0
 44 68  1  0  0  0  0
 45 71  1  0  0  0  0
 46 67  1  0  0  0  0
 47 66  1  0  0  0  0
 48 55  1  0  0  0  0
 49 61  1  0  0  0  0
 50 62  1  0  0  0  0
 51 62  1  0  0  0  0
 52 62  1  0  0  0  0
 53 74  1  0  0  0  0
 54 56  1  0  0  0  0
 56 58  1  0  0  0  0
 57 59  1  0  0  0  0
 57 65  1  0  0  0  0
 58 73  1  0  0  0  0
 59 81  1  0  0  0  0
 60 62  1  0  0  0  0
 60 72  1  0  0  0  0
 61 74  1  0  0  0  0
 63 66  1  0  0  0  0
 64 65  1  0  0  0  0
M  CHG  1  74   1
M  ISO  4  35 100  59 101  73 100  81 101
M  END
> <Batch ID>
0042

> <Smiles>
CCc1nn(C[101CH2:1][101O:1]c2ccc3c(c2)CN(C(=O)C(NC(=O)C(C)NC)C(C)(C)C)C(C(=O)NC2CCCc4ccccc42)C3)cc1CCC[100NH:0][100C:0](=O)N1CCCC(n2nc(-c3ccc(Oc4ccc(F)cc4F)cc3)c(C(N)=O)c2N)C1

> <Shape>
0.203

> <Color>
0.065

> <Negative vol penalty>
0.000

$$$$

  -OEChem-04052317123D

 84 92  0     1  0  0  0  0  0999 V2000
  -26.9138  -23.3795   14.0150 C   0  0  0  0  0  0  0  0  0  0  0  0
  -26.5717  -23.1181   15.3379 C   0  0  0  0  0  0  0  0  0  0  0  0
  -23.6966   -9.6724   20.8740 C   0  0  0  0  0  0  0  0  0  0  0  0
  -24.3106  -10.4209   23.0875 C   0  0  0  0  0  0  0  0  0  0  0  0
  -27.8914  -24.3300   13.7238 C   0  0  0  0  0  0  0  0  0  0  0  0
  -27.2079  -23.8063   16.3705 C   0  0  0  0  0  0  0  0  0  0  0  0
  -23.9671  -25.4377   19.9033 C   0  0  0  0  0  0  0  0  0  0  0  0
  -23.1590   -8.5058   21.4175 C   0  0  0  0  0  0  0  0  0  0  0  0
  -23.7730   -9.2542   23.6311 C   0  0  0  0  0  0  0  0  0  0  0  0
  -23.5035  -24.4991   20.8241 C   0  0  0  0  0  0  0  0  0  0  0  0
  -20.3239   -7.5750   23.0077 C   0  0  0  0  0  0  0  0  0  0  0  0
  -19.0764   -7.1583   22.5431 C   0  0  0  0  0  0  0  0  0  0  0  0
  -25.0991  -25.3078   22.4425 C   0  0  0  0  0  0  0  0  0  0  0  0
  -26.2764  -21.4471   21.8372 C   0  0  0  0  0  0  0  0  0  0  0  0
  -20.0508   -5.0790   21.7920 C   0  0  0  0  0  0  0  0  0  0  0  0
  -25.8292  -19.1810   22.4040 C   0  0  0  0  0  0  0  0  0  0  0  0
  -24.2725  -10.6300   21.7089 C   0  0  0  0  0  0  0  0  0  0  0  0
  -24.1613  -13.0538   20.9212 C   0  0  0  0  0  0  0  0  0  0  0  0
  -28.5330  -25.0372   14.7529 C   0  0  0  0  0  0  0  0  0  0  0  0
  -25.0093  -26.3126   20.2420 C   0  0  0  0  0  0  0  0  0  0  0  0
  -28.1959  -24.7662   16.0928 C   0  0  0  0  0  0  0  0  0  0  0  0
  -25.5723  -26.2583   21.5250 C   0  0  0  0  0  0  0  0  0  0  0  0
  -25.6536  -20.5284   22.6747 C   0  0  0  0  0  0  0  0  0  0  0  0
  -27.0450  -20.9965   20.7696 C   0  0  0  0  0  0  0  0  0  0  0  0
  -23.1971   -8.2967   22.7961 C   0  0  0  0  0  0  0  0  0  0  0  0
  -24.0715  -24.4322   22.0930 C   0  0  0  0  0  0  0  0  0  0  0  0
  -21.4348   -6.7437   22.8644 C   0  0  0  0  0  0  0  0  0  0  0  0
  -18.9399   -5.9103   21.9352 C   0  0  0  0  0  0  0  0  0  0  0  0
  -21.2982   -5.4957   22.2566 C   0  0  0  0  0  0  0  0  0  0  0  0
  -24.8285  -11.8351   21.1480 C   0  0  0  0  0  0  0  0  0  0  0  0
  -27.1584  -19.6281   20.5843 C   0  0  0  0  0  0  0  0  0  0  0  0
  -25.1199  -13.8743   20.3787 C   0  0  0  0  0  0  0  0  0  0  0  0
  -22.7970  -13.4121   21.1780 C   0  0  0  0  0  0  0  0  0  0  0  0
  -27.9477  -26.8316   19.1466 C   0  0  0  0  0  0  0  0  0  0  0  0
  -27.8768  -29.2986   21.2516 C   0  0  0  0  0  0  0  0  0  0  0  0
  -26.5510  -30.6450   24.0934 C   0  0  0  0  0  0  0  0  0  0  0  0
  -30.3114  -15.9215   20.3273 C   0  0  0  0  0  0  0  0  0  0  0  0
  -29.6170  -26.0214   14.3911 C   0  0  0  0  0  0  0  0  0  0  0  0
  -25.4799  -27.3371   19.2464 C   0  0  0  0  0  0  0  0  0  0  0  0
  -26.6799  -27.1886   21.9450 C   0  0  0  0  0  0  0  0  0  0  0  0
  -29.9772  -26.9756   15.5268 C   0  0  0  0  0  0  0  0  0  0  0  0
  -29.7590  -12.8265   18.6562 C   0  0  0  0  0  0  0  0  0  0  0  0
  -30.1492  -26.2086   16.8341 C   0  0  0  0  0  0  0  0  0  0  0  0
  -28.3754  -12.3906   19.1415 C   0  0  0  0  0  0  0  0  0  0  0  0
  -30.5514  -13.5219   19.7610 C   0  0  0  0  0  0  0  0  0  0  0  0
  -28.4732  -14.2177   20.8882 C   0  0  0  0  0  0  0  0  0  0  0  0
  -28.8458  -25.5098   17.2394 C   0  0  1  0  0  0  0  0  0  0  0  0
  -26.8949  -27.8347   19.5246 C   0  0  1  0  0  0  0  0  0  0  0  0
  -27.6152  -13.5614   19.7931 C   0  0  2  0  0  0  0  0  0  0  0  0
  -27.7135  -21.9754   19.8673 C   0  0  0  0  0  0  0  0  0  0  0  0
  -26.7192  -32.6564   25.5846 C   0  0  0  0  0  0  0  0  0  0  0  0
  -30.4746  -28.2091   22.4239 C   0  0  0  0  0  0  0  0  0  0  0  0
  -30.0852  -29.6431   24.4389 C   0  0  0  0  0  0  0  0  0  0  0  0
  -30.3945  -30.6986   22.1999 C   0  0  0  0  0  0  0  0  0  0  0  0
  -23.7290  -31.3896   23.6022 C   0  0  0  0  0  0  0  0  0  0  0  0
  -24.8142  -20.9841   23.8415 C   0  0  0  0  0  0  0  0  0  0  0  0
  -27.9718  -19.0866   19.4544 C   0  0  0  0  0  0  0  0  0  0  0  0
  -23.3376  -21.1877   23.4956 C   0  0  0  0  0  0  0  0  0  0  0  0
  -29.4910  -19.0820   19.7098 C   0  0  0  0  0  0  0  0  0  0  0  0
  -29.9190  -18.2928   20.9453 C   0  0  0  0  0  0  0  0  0  0  0  0
  -23.1040  -22.2930   22.4724 C   0  0  0  0  0  0  0  0  0  1  0  0
  -28.2414  -29.4738   22.7060 C   0  0  1  0  0  0  0  0  0  0  0  0
  -26.0095  -32.0311   24.3938 C   0  0  2  0  0  0  0  0  0  0  0  0
  -29.7794  -29.4872   22.9339 C   0  0  0  0  0  0  0  0  0  0  0  0
  -26.5682  -18.7054   21.3767 N   0  0  0  0  0  0  0  0  0  0  0  0
  -26.1118  -11.8735   20.7796 N   0  0  0  0  0  0  0  0  0  0  0  0
  -26.2586  -13.1262   20.3157 N   0  0  0  0  0  0  0  0  0  0  0  0
  -27.1098  -28.1687   20.9340 N   0  0  0  0  0  0  0  0  0  0  0  0
  -29.7753  -14.6232   20.3361 N   0  0  0  0  0  0  0  0  0  0  0  0
  -25.0915  -15.1555   19.9542 N   0  0  0  0  0  0  0  0  0  0  0  0
  -21.9473  -12.4487   21.7386 N   0  0  0  0  0  0  0  0  0  0  0  0
  -27.9201  -26.4615   17.8155 N   0  0  0  0  0  0  0  0  0  0  0  0
  -27.5603  -30.6833   23.1548 N   0  0  0  0  0  0  0  0  0  0  0  0
  -29.5080  -16.9078   20.8864 N   0  0  0  0  0  0  0  0  0  0  0  0
  -24.5521  -31.9632   24.6978 N   0  3  0  0  0  0  0  0  0  0  0  0
  -22.3405  -14.5477   20.9028 O   0  0  0  0  0  0  0  0  0  0  0  0
  -28.7283  -26.4246   19.9991 O   0  0  0  0  0  0  0  0  0  0  0  0
  -28.2524  -30.1373   20.4287 O   0  0  0  0  0  0  0  0  0  0  0  0
  -26.1240  -29.6303   24.6398 O   0  0  0  0  0  0  0  0  0  0  0  0
  -31.4214  -16.1832   19.8515 O   0  0  0  0  0  0  0  0  0  0  0  0
  -22.6724   -7.1585   23.3269 O   0  0  0  0  0  0  0  0  0  0  0  0
  -23.6213  -23.5166   22.9935 O   0  0  0  0  0  0  0  0  0  1  0  0
  -17.7416   -5.5097   21.4905 F   0  0  0  0  0  0  0  0  0  0  0  0
  -22.3616   -4.6922   22.1172 F   0  0  0  0  0  0  0  0  0  0  0  0
  1  2  1  0  0  0  0
  1  5  2  0  0  0  0
  2  6  2  0  0  0  0
  3  8  2  0  0  0  0
  3 17  1  0  0  0  0
  4  9  1  0  0  0  0
  4 17  2  0  0  0  0
  5 19  1  0  0  0  0
  6 21  1  0  0  0  0
  7 10  2  0  0  0  0
  7 20  1  0  0  0  0
  8 25  1  0  0  0  0
  9 25  2  0  0  0  0
 10 26  1  0  0  0  0
 11 12  2  0  0  0  0
 11 27  1  0  0  0  0
 12 28  1  0  0  0  0
 13 22  1  0  0  0  0
 13 26  2  0  0  0  0
 14 23  2  0  0  0  0
 14 24  1  0  0  0  0
 15 28  2  0  0  0  0
 15 29  1  0  0  0  0
 16 23  1  0  0  0  0
 16 65  2  0  0  0  0
 17 30  1  0  0  0  0
 18 30  1  0  0  0  0
 18 32  2  0  0  0  0
 18 33  1  0  0  0  0
 19 21  2  0  0  0  0
 19 38  1  0  0  0  0
 20 22  2  0  0  0  0
 20 39  1  0  0  0  0
 21 47  1  0  0  0  0
 22 40  1  0  0  0  0
 23 56  1  0  0  0  0
 24 31  2  0  0  0  0
 24 50  1  0  0  0  0
 25 81  1  0  0  0  0
 26 82  1  0  0  0  0
 27 29  2  0  0  0  0
 27 81  1  0  0  0  0
 28 83  1  0  0  0  0
 29 84  1  0  0  0  0
 30 66  2  0  0  0  0
 31 57  1  0  0  0  0
 31 65  1  0  0  0  0
 32 67  1  0  0  0  0
 32 70  1  0  0  0  0
 33 71  1  0  0  0  0
 33 76  2  0  0  0  0
 34 48  1  0  0  0  0
 34 72  1  0  0  0  0
 34 77  2  0  0  0  0
 35 62  1  0  0  0  0
 35 68  1  0  0  0  0
 35 78  2  0  0  0  0
 36 63  1  0  0  0  0
 36 73  1  0  0  0  0
 36 79  2  0  0  0  0
 37 69  1  0  0  0  0
 37 74  1  0  0  0  0
 37 80  2  0  0  0  0
 38 41  1  0  0  0  0
 39 48  1  0  0  0  0
 40 68  1  0  0  0  0
 41 43  1  0  0  0  0
 42 44  1  0  0  0  0
 42 45  1  0  0  0  0
 43 47  1  0  0  0  0
 44 49  1  0  0  0  0
 45 69  1  0  0  0  0
 46 49  1  0  0  0  0
 46 69  1  0  0  0  0
 47 72  1  0  0  0  0
 48 68  1  0  0  0  0
 49 67  1  0  0  0  0
 51 63  1  0  0  0  0
 52 64  1  0  0  0  0
 53 64  1  0  0  0  0
 54 64  1  0  0  0  0
 55 75  1  0  0  0  0
 56 58  1  0  0  0  0
 57 59  1  0  0  0  0
 58 61  1  0  0  0  0
 59 60  1  0  0  0  0
 60 74  1  0  0  0  0
 61 82  1  0  0  0  0
 62 64  1  0  0  0  0
 62 73  1  0  0  0  0
 63 75  1  0  0  0  0
 66 67  1  0  0  0  0
M  CHG  1  75   1
M  ISO  4  37 100  61 101  74 100  82 101
M  END
> <Batch ID>
0042

> <Smiles>
CNC(C)C(=O)NC(C(=O)N1Cc2cc([101O:1][101CH2:1]CCc3cnc(CCC[100NH:0][100C:0](=O)N4CCCC(n5nc(-c6ccc(Oc7ccc(F)cc7F)cc6)c(C(N)=O)c5N)C4)c(C)c3)ccc2CC1C(=O)NC1CCCc2ccccc21)C(C)(C)C

> <Shape>
0.278

> <Color>
0.148

> <Negative vol penalty>
0.000

$$$$

  -OEChem-04052317123D

 84 92  0     1  0  0  0  0  0999 V2000
  -25.9095  -31.8281   23.7363 C   0  0  0  0  0  0  0  0  0  0  0  0
  -26.5382  -30.6492   24.1239 C   0  0  0  0  0  0  0  0  0  0  0  0
  -21.2574  -20.7998   20.7671 C   0  0  0  0  0  0  0  0  0  0  0  0
  -23.3548  -21.1708   19.6268 C   0  0  0  0  0  0  0  0  0  0  0  0
  -25.1857  -31.8718   22.5455 C   0  0  0  0  0  0  0  0  0  0  0  0
  -26.4426  -29.5129   23.3214 C   0  0  0  0  0  0  0  0  0  0  0  0
  -30.1879  -23.7281   21.3656 C   0  0  0  0  0  0  0  0  0  0  0  0
  -21.3420  -22.0704   21.3363 C   0  0  0  0  0  0  0  0  0  0  0  0
  -23.4394  -22.4415   20.1960 C   0  0  0  0  0  0  0  0  0  0  0  0
  -30.0686  -22.3408   21.2956 C   0  0  0  0  0  0  0  0  0  0  0  0
  -20.7777  -25.2669   20.3890 C   0  0  0  0  0  0  0  0  0  0  0  0
  -19.6293  -26.0584   20.3813 C   0  0  0  0  0  0  0  0  0  0  0  0
  -28.8576  -22.5558   19.2204 C   0  0  0  0  0  0  0  0  0  0  0  0
  -19.6760  -26.1497   22.7951 C   0  0  0  0  0  0  0  0  0  0  0  0
  -29.9759  -16.3842   19.5847 C   0  0  0  0  0  0  0  0  0  0  0  0
  -22.2638  -20.3500   19.9124 C   0  0  0  0  0  0  0  0  0  0  0  0
  -21.5731  -18.6921   18.1008 C   0  0  0  0  0  0  0  0  0  0  0  0
  -25.0892  -30.7382   21.7231 C   0  0  0  0  0  0  0  0  0  0  0  0
  -29.6325  -24.5416   20.3675 C   0  0  0  0  0  0  0  0  0  0  0  0
  -25.7157  -29.5411   22.1191 C   0  0  0  0  0  0  0  0  0  0  0  0
  -28.9734  -23.9530   19.2788 C   0  0  0  0  0  0  0  0  0  0  0  0
  -29.2802  -15.5675   20.4526 C   0  0  0  0  0  0  0  0  0  0  0  0
  -22.4330  -22.8913   21.0507 C   0  0  0  0  0  0  0  0  0  0  0  0
  -29.4009  -21.7546   20.2243 C   0  0  0  0  0  0  0  0  0  0  0  0
  -21.3753  -24.9166   21.5998 C   0  0  0  0  0  0  0  0  0  0  0  0
  -19.0784  -26.4999   21.5843 C   0  0  0  0  0  0  0  0  0  0  0  0
  -20.8244  -25.3581   22.8028 C   0  0  0  0  0  0  0  0  0  0  0  0
  -22.1772  -19.0373   19.3246 C   0  0  0  0  0  0  0  0  0  0  0  0
  -28.7907  -16.1816   21.5873 C   0  0  0  0  0  0  0  0  0  0  0  0
  -21.7580  -17.3350   17.9975 C   0  0  0  0  0  0  0  0  0  0  0  0
  -29.6566  -18.1811   20.9398 C   0  0  0  0  0  0  0  0  0  0  0  0
  -20.9048  -19.5237   17.1430 C   0  0  0  0  0  0  0  0  0  0  0  0
  -27.3943  -26.7976   20.3002 C   0  0  0  0  0  0  0  0  0  0  0  0
  -28.3613  -27.1180   17.2205 C   0  0  0  0  0  0  0  0  0  0  0  0
  -29.8437  -25.7101   14.4879 C   0  0  0  0  0  0  0  0  0  0  0  0
  -25.8108  -13.5840   20.3117 C   0  0  0  0  0  0  0  0  0  0  0  0
  -24.2563  -30.8203   20.4685 C   0  0  0  0  0  0  0  0  0  0  0  0
  -29.7930  -26.0352   20.4440 C   0  0  0  0  0  0  0  0  0  0  0  0
  -28.3771  -24.7810   18.1709 C   0  0  0  0  0  0  0  0  0  0  0  0
  -24.5160  -29.6784   19.4892 C   0  0  0  0  0  0  0  0  0  0  0  0
  -22.2742  -13.4109   20.6855 C   0  0  0  0  0  0  0  0  0  0  0  0
  -24.5315  -28.3403   20.2213 C   0  0  0  0  0  0  0  0  0  0  0  0
  -21.7938  -14.8021   20.2687 C   0  0  0  0  0  0  0  0  0  0  0  0
  -23.6045  -13.4736   21.4328 C   0  0  0  0  0  0  0  0  0  0  0  0
  -24.1993  -15.5839   20.3072 C   0  0  0  0  0  0  0  0  0  0  0  0
  -25.6557  -28.2945   21.2632 C   0  0  1  0  0  0  0  0  0  0  0  0
  -28.7423  -26.7912   19.6366 C   0  0  1  0  0  0  0  0  0  0  0  0
  -22.8891  -15.5669   19.5014 C   0  0  2  0  0  0  0  0  0  0  0  0
  -25.8644  -16.3991   25.6754 C   0  0  0  0  0  0  0  0  0  0  0  0
  -30.4566  -26.2050   12.1053 C   0  0  0  0  0  0  0  0  0  0  0  0
  -25.4443  -26.7632   16.3989 C   0  0  0  0  0  0  0  0  0  0  0  0
  -26.2289  -26.3162   14.0638 C   0  0  0  0  0  0  0  0  0  0  0  0
  -26.6790  -28.5274   15.1272 C   0  0  0  0  0  0  0  0  0  0  0  0
  -32.7276  -25.3217   15.0273 C   0  0  0  0  0  0  0  0  0  0  0  0
  -29.0855  -14.1244   20.1611 C   0  0  0  0  0  0  0  0  0  0  0  0
  -28.0216  -15.3965   22.5980 C   0  0  0  0  0  0  0  0  0  0  0  0
  -29.8662  -19.6417   21.2119 C   0  0  0  0  0  0  0  0  0  1  0  0
  -26.5446  -15.4950   24.6598 C   0  0  0  0  0  0  0  0  0  0  0  0
  -27.2979  -16.3047   23.6046 C   0  0  0  0  0  0  0  0  0  0  0  0
  -27.9795  -13.8426   19.1332 C   0  0  0  0  0  0  0  0  0  0  0  0
  -27.9640  -26.4936   15.9047 C   0  0  1  0  0  0  0  0  0  0  0  0
  -30.9241  -26.2219   13.5523 C   0  0  2  0  0  0  0  0  0  0  0  0
  -26.5885  -27.0093   15.3954 C   0  0  0  0  0  0  0  0  0  0  0  0
  -30.1837  -17.7002   19.7977 N   0  0  0  0  0  0  0  0  0  0  0  0
  -22.7060  -17.9845   19.9538 N   0  0  0  0  0  0  0  0  0  0  0  0
  -28.9611  -17.4911   21.8638 N   0  0  0  0  0  0  0  0  0  0  0  0
  -22.4348  -16.9643   19.1220 N   0  0  0  0  0  0  0  0  0  0  0  0
  -28.5548  -26.2373   18.2941 N   0  0  0  0  0  0  0  0  0  0  0  0
  -24.6001  -14.2105   20.6506 N   0  0  0  0  0  0  0  0  0  0  0  0
  -21.4058  -16.4346   17.0553 N   0  0  0  0  0  0  0  0  0  0  0  0
  -20.8038  -20.8967   17.4055 N   0  0  0  0  0  0  0  0  0  0  0  0
  -26.9310  -28.0594   20.6206 N   0  0  0  0  0  0  0  0  0  0  0  0
  -29.0710  -26.7376   14.9863 N   0  0  0  0  0  0  0  0  0  0  0  0
  -26.6960  -14.3506   19.5638 N   0  0  0  0  0  0  0  0  0  0  0  0
  -32.1466  -25.3766   13.6612 N   0  3  0  0  0  0  0  0  0  0  0  0
  -20.3974  -19.0604   16.0935 O   0  0  0  0  0  0  0  0  0  0  0  0
  -26.8166  -25.7364   20.5049 O   0  0  0  0  0  0  0  0  0  0  0  0
  -28.5020  -28.3415   17.2912 O   0  0  0  0  0  0  0  0  0  0  0  0
  -29.6973  -24.5178   14.7474 O   0  0  0  0  0  0  0  0  0  0  0  0
  -26.0804  -12.4253   20.6460 O   0  0  0  0  0  0  0  0  0  0  0  0
  -22.5158  -24.1313   21.6057 O   0  0  0  0  0  0  0  0  0  0  0  0
  -29.2824  -20.4007   20.1538 O   0  0  0  0  0  0  0  0  0  1  0  0
  -17.9764  -27.2613   21.5767 F   0  0  0  0  0  0  0  0  0  0  0  0
  -21.3947  -25.0258   23.9691 F   0  0  0  0  0  0  0  0  0  0  0  0
  1  2  1  0  0  0  0
  1  5  2  0  0  0  0
  2  6  2  0  0  0  0
  3  8  2  0  0  0  0
  3 16  1  0  0  0  0
  4  9  1  0  0  0  0
  4 16  2  0  0  0  0
  5 18  1  0  0  0  0
  6 20  1  0  0  0  0
  7 10  2  0  0  0  0
  7 19  1  0  0  0  0
  8 23  1  0  0  0  0
  9 23  2  0  0  0  0
 10 24  1  0  0  0  0
 11 12  2  0  0  0  0
 11 25  1  0  0  0  0
 12 26  1  0  0  0  0
 13 21  1  0  0  0  0
 13 24  2  0  0  0  0
 14 26  2  0  0  0  0
 14 27  1  0  0  0  0
 15 22  1  0  0  0  0
 15 64  2  0  0  0  0
 16 28  1  0  0  0  0
 17 28  1  0  0  0  0
 17 30  2  0  0  0  0
 17 32  1  0  0  0  0
 18 20  2  0  0  0  0
 18 37  1  0  0  0  0
 19 21  2  0  0  0  0
 19 38  1  0  0  0  0
 20 46  1  0  0  0  0
 21 39  1  0  0  0  0
 22 29  2  0  0  0  0
 22 55  1  0  0  0  0
 23 81  1  0  0  0  0
 24 82  1  0  0  0  0
 25 27  2  0  0  0  0
 25 81  1  0  0  0  0
 26 83  1  0  0  0  0
 27 84  1  0  0  0  0
 28 65  2  0  0  0  0
 29 56  1  0  0  0  0
 29 66  1  0  0  0  0
 30 67  1  0  0  0  0
 30 70  1  0  0  0  0
 31 57  1  0  0  0  0
 31 64  1  0  0  0  0
 31 66  2  0  0  0  0
 32 71  1  0  0  0  0
 32 76  2  0  0  0  0
 33 47  1  0  0  0  0
 33 72  1  0  0  0  0
 33 77  2  0  0  0  0
 34 61  1  0  0  0  0
 34 68  1  0  0  0  0
 34 78  2  0  0  0  0
 35 62  1  0  0  0  0
 35 73  1  0  0  0  0
 35 79  2  0  0  0  0
 36 69  1  0  0  0  0
 36 74  1  0  0  0  0
 36 80  2  0  0  0  0
 37 40  1  0  0  0  0
 38 47  1  0  0  0  0
 39 68  1  0  0  0  0
 40 42  1  0  0  0  0
 41 43  1  0  0  0  0
 41 44  1  0  0  0  0
 42 46  1  0  0  0  0
 43 48  1  0  0  0  0
 44 69  1  0  0  0  0
 45 48  1  0  0  0  0
 45 69  1  0  0  0  0
 46 72  1  0  0  0  0
 47 68  1  0  0  0  0
 48 67  1  0  0  0  0
 49 58  1  0  0  0  0
 50 62  1  0  0  0  0
 51 63  1  0  0  0  0
 52 63  1  0  0  0  0
 53 63  1  0  0  0  0
 54 75  1  0  0  0  0
 55 60  1  0  0  0  0
 56 59  1  0  0  0  0
 57 82  1  0  0  0  0
 58 59  1  0  0  0  0
 60 74  1  0  0  0  0
 61 63  1  0  0  0  0
 61 73  1  0  0  0  0
 62 75  1  0  0  0  0
 65 67  1  0  0  0  0
M  CHG  1  75   1
M  ISO  4  36 100  57 101  74 100  82 101
M  END
> <Batch ID>
0042

> <Smiles>
CCCCc1nc([101CH2:1][101O:1]c2ccc3c(c2)CN(C(=O)C(NC(=O)C(C)NC)C(C)(C)C)C(C(=O)NC2CCCc4ccccc42)C3)ncc1CC[100NH:0][100C:0](=O)N1CCCC(n2nc(-c3ccc(Oc4ccc(F)cc4F)cc3)c(C(N)=O)c2N)C1

> <Shape>
0.230

> <Color>
0.061

> <Negative vol penalty>
0.000

$$$$

  -OEChem-04052317123D

 86 94  0     1  0  0  0  0  0999 V2000
  -24.9846  -17.6772   21.7020 C   0  0  0  0  0  0  0  0  0  0  0  0
  -25.5828  -18.8105   21.1605 C   0  0  0  0  0  0  0  0  0  0  0  0
  -26.4796  -12.9024   21.6958 C   0  0  0  0  0  0  0  0  0  0  0  0
  -25.9398  -14.0424   19.6352 C   0  0  0  0  0  0  0  0  0  0  0  0
  -23.6067  -17.6509   21.9129 C   0  0  0  0  0  0  0  0  0  0  0  0
  -24.8030  -19.9179   20.8286 C   0  0  0  0  0  0  0  0  0  0  0  0
  -26.8738  -24.2798   22.3553 C   0  0  0  0  0  0  0  0  0  0  0  0
  -25.2257  -12.2914   21.6863 C   0  0  0  0  0  0  0  0  0  0  0  0
  -24.6859  -13.4314   19.6257 C   0  0  0  0  0  0  0  0  0  0  0  0
  -27.9172  -24.7929   21.5860 C   0  0  0  0  0  0  0  0  0  0  0  0
  -23.7313   -9.6961   20.1166 C   0  0  0  0  0  0  0  0  0  0  0  0
  -23.6730   -8.3314   20.3989 C   0  0  0  0  0  0  0  0  0  0  0  0
  -26.3785  -26.3210   20.5293 C   0  0  0  0  0  0  0  0  0  0  0  0
  -22.2464   -8.7848   22.2953 C   0  0  0  0  0  0  0  0  0  0  0  0
  -31.6462  -24.1908   16.6347 C   0  0  0  0  0  0  0  0  0  0  0  0
  -26.8366  -13.7780   20.6703 C   0  0  0  0  0  0  0  0  0  0  0  0
  -29.3188  -13.9241   20.0999 C   0  0  0  0  0  0  0  0  0  0  0  0
  -22.8110  -18.7621   21.5923 C   0  0  0  0  0  0  0  0  0  0  0  0
  -25.5707  -24.7768   22.2093 C   0  0  0  0  0  0  0  0  0  0  0  0
  -23.4130  -19.9059   21.0342 C   0  0  0  0  0  0  0  0  0  0  0  0
  -25.3208  -25.8142   21.2997 C   0  0  0  0  0  0  0  0  0  0  0  0
  -24.3289  -12.5559   20.6512 C   0  0  0  0  0  0  0  0  0  0  0  0
  -27.6691  -25.8117   20.6707 C   0  0  0  0  0  0  0  0  0  0  0  0
  -23.0472  -10.6052   20.9236 C   0  0  0  0  0  0  0  0  0  0  0  0
  -22.9305   -7.8757   21.4883 C   0  0  0  0  0  0  0  0  0  0  0  0
  -22.3047  -10.1495   22.0130 C   0  0  0  0  0  0  0  0  0  0  0  0
  -28.1315  -14.4098   20.6799 C   0  0  0  0  0  0  0  0  0  0  0  0
  -30.6399  -24.9257   17.1952 C   0  0  0  0  0  0  0  0  0  0  0  0
  -30.2580  -14.8850   20.3845 C   0  0  0  0  0  0  0  0  0  0  0  0
  -29.8328  -22.9232   16.7064 C   0  0  0  0  0  0  0  0  0  0  0  0
  -29.5517  -12.7128   19.3691 C   0  0  0  0  0  0  0  0  0  0  0  0
  -22.7837  -23.5359   21.3168 C   0  0  0  0  0  0  0  0  0  0  0  0
  -21.6529  -26.4524   22.1758 C   0  0  0  0  0  0  0  0  0  0  0  0
  -22.2791  -29.7692   22.6794 C   0  0  0  0  0  0  0  0  0  0  0  0
  -31.7997  -20.2389   20.7074 C   0  0  0  0  0  0  0  0  0  0  0  0
  -21.3192  -18.6692   21.7943 C   0  0  0  0  0  0  0  0  0  0  0  0
  -24.4612  -24.2309   23.0657 C   0  0  0  0  0  0  0  0  0  0  0  0
  -23.9435  -26.3964   21.1196 C   0  0  0  0  0  0  0  0  0  0  0  0
  -20.6151  -20.0233   21.7640 C   0  0  0  0  0  0  0  0  0  0  0  0
  -30.0531  -18.8709   23.4921 C   0  0  0  0  0  0  0  0  0  0  0  0
  -21.1012  -20.8514   20.5788 C   0  0  0  0  0  0  0  0  0  0  0  0
  -29.4906  -17.5520   22.9591 C   0  0  0  0  0  0  0  0  0  0  0  0
  -30.0365  -19.9636   22.4255 C   0  0  0  0  0  0  0  0  0  0  0  0
  -30.1366  -18.2835   20.6253 C   0  0  0  0  0  0  0  0  0  0  0  0
  -22.6042  -21.1362   20.6843 C   0  0  1  0  0  0  0  0  0  0  0  0
  -23.0768  -24.4580   22.4664 C   0  0  1  0  0  0  0  0  0  0  0  0
  -30.1844  -17.1356   21.6482 C   0  0  2  0  0  0  0  0  0  0  0  0
  -28.4754  -21.5843   19.0651 C   0  0  0  0  0  0  0  0  0  0  0  0
  -21.1481  -31.9088   23.3430 C   0  0  0  0  0  0  0  0  0  0  0  0
  -20.3822  -26.6364   19.4079 C   0  0  0  0  0  0  0  0  0  0  0  0
  -20.1044  -29.0973   19.7755 C   0  0  0  0  0  0  0  0  0  0  0  0
  -18.9439  -27.4753   21.2739 C   0  0  0  0  0  0  0  0  0  0  0  0
  -24.0204  -30.0897   25.0509 C   0  0  0  0  0  0  0  0  0  0  0  0
  -30.6106  -26.3405   17.7160 C   0  0  0  0  0  0  0  0  0  0  0  0
  -28.8955  -21.7809   16.5674 C   0  0  0  0  0  0  0  0  0  0  0  0
  -27.8445  -21.7463   17.6912 C   0  0  0  0  0  0  0  0  0  0  0  0
  -30.9699  -26.4586   19.1987 C   0  0  0  0  0  0  0  0  0  0  0  0
  -32.2407  -20.8003   16.7659 C   0  0  0  0  0  0  0  0  0  0  0  0
  -33.0980  -21.4047   17.8819 C   0  0  0  0  0  0  0  0  0  0  0  0
  -31.8483  -21.8610   15.7343 C   0  0  0  0  0  0  0  0  0  0  0  0
  -33.5188  -20.3719   18.9224 C   0  0  0  0  0  0  0  0  0  0  0  0
  -29.9814  -25.7503   20.1178 C   0  0  0  0  0  0  0  0  0  1  0  0
  -21.4474  -27.7702   21.4684 C   0  0  1  0  0  0  0  0  0  0  0  0
  -21.9287  -30.6973   23.8284 C   0  0  2  0  0  0  0  0  0  0  0  0
  -20.2452  -27.7327   20.4832 C   0  0  0  0  0  0  0  0  0  0  0  0
  -28.2986  -15.5877   21.2872 N   0  0  0  0  0  0  0  0  0  0  0  0
  -31.1189  -22.9560   16.3426 N   0  0  0  0  0  0  0  0  0  0  0  0
  -29.6019  -15.8501   21.0904 N   0  0  0  0  0  0  0  0  0  0  0  0
  -29.5297  -24.1168   17.2269 N   0  3  0  0  0  0  0  0  0  0  0  0
  -22.8907  -25.8250   21.9755 N   0  0  0  0  0  0  0  0  0  0  0  0
  -30.7116  -19.5057   21.2088 N   0  0  0  0  0  0  0  0  0  0  0  0
  -31.5729  -14.9901   20.0973 N   0  0  0  0  0  0  0  0  0  0  0  0
  -28.4763  -11.8370   19.1672 N   0  0  0  0  0  0  0  0  0  0  0  0
  -22.8523  -22.1942   21.6401 N   0  0  0  0  0  0  0  0  0  0  0  0
  -21.3318  -28.7810   22.5140 N   0  0  0  0  0  0  0  0  0  0  0  0
  -32.3862  -19.7323   19.5541 N   0  0  0  0  0  0  0  0  0  0  0  0
  -23.1679  -31.1764   24.5037 N   0  3  0  0  0  0  0  0  0  0  0  0
  -30.6838  -12.4080   18.9230 O   0  0  0  0  0  0  0  0  0  0  0  0
  -22.5137  -24.0069   20.2181 O   0  0  0  0  0  0  0  0  0  0  0  0
  -20.7513  -26.0001   22.8858 O   0  0  0  0  0  0  0  0  0  0  0  0
  -23.2899  -29.9093   21.9945 O   0  0  0  0  0  0  0  0  0  0  0  0
  -32.2209  -21.2658   21.2506 O   0  0  0  0  0  0  0  0  0  0  0  0
  -23.1054  -11.9597   20.6415 O   0  0  0  0  0  0  0  0  0  0  0  0
  -28.6856  -26.3139   19.9181 O   0  0  0  0  0  0  0  0  0  1  0  0
  -22.8734   -6.5650   21.7584 F   0  0  0  0  0  0  0  0  0  0  0  0
  -21.6444  -11.0179   22.7912 F   0  0  0  0  0  0  0  0  0  0  0  0
  1  2  1  0  0  0  0
  1  5  2  0  0  0  0
  2  6  2  0  0  0  0
  3  8  2  0  0  0  0
  3 16  1  0  0  0  0
  4  9  1  0  0  0  0
  4 16  2  0  0  0  0
  5 18  1  0  0  0  0
  6 20  1  0  0  0  0
  7 10  2  0  0  0  0
  7 19  1  0  0  0  0
  8 22  1  0  0  0  0
  9 22  2  0  0  0  0
 10 23  1  0  0  0  0
 11 12  2  0  0  0  0
 11 24  1  0  0  0  0
 12 25  1  0  0  0  0
 13 21  1  0  0  0  0
 13 23  2  0  0  0  0
 14 25  2  0  0  0  0
 14 26  1  0  0  0  0
 15 28  2  0  0  0  0
 15 67  1  0  0  0  0
 16 27  1  0  0  0  0
 17 27  1  0  0  0  0
 17 29  2  0  0  0  0
 17 31  1  0  0  0  0
 18 20  2  0  0  0  0
 18 36  1  0  0  0  0
 19 21  2  0  0  0  0
 19 37  1  0  0  0  0
 20 45  1  0  0  0  0
 21 38  1  0  0  0  0
 22 83  1  0  0  0  0
 23 84  1  0  0  0  0
 24 26  2  0  0  0  0
 24 83  1  0  0  0  0
 25 85  1  0  0  0  0
 26 86  1  0  0  0  0
 27 66  2  0  0  0  0
 28 54  1  0  0  0  0
 28 69  1  0  0  0  0
 29 68  1  0  0  0  0
 29 72  1  0  0  0  0
 30 55  1  0  0  0  0
 30 67  1  0  0  0  0
 30 69  2  0  0  0  0
 31 73  1  0  0  0  0
 31 78  2  0  0  0  0
 32 46  1  0  0  0  0
 32 74  1  0  0  0  0
 32 79  2  0  0  0  0
 33 63  1  0  0  0  0
 33 70  1  0  0  0  0
 33 80  2  0  0  0  0
 34 64  1  0  0  0  0
 34 75  1  0  0  0  0
 34 81  2  0  0  0  0
 35 71  1  0  0  0  0
 35 76  1  0  0  0  0
 35 82  2  0  0  0  0
 36 39  1  0  0  0  0
 37 46  1  0  0  0  0
 38 70  1  0  0  0  0
 39 41  1  0  0  0  0
 40 42  1  0  0  0  0
 40 43  1  0  0  0  0
 41 45  1  0  0  0  0
 42 47  1  0  0  0  0
 43 71  1  0  0  0  0
 44 47  1  0  0  0  0
 44 71  1  0  0  0  0
 45 74  1  0  0  0  0
 46 70  1  0  0  0  0
 47 68  1  0  0  0  0
 48 56  1  0  0  0  0
 49 64  1  0  0  0  0
 50 65  1  0  0  0  0
 51 65  1  0  0  0  0
 52 65  1  0  0  0  0
 53 77  1  0  0  0  0
 54 57  1  0  0  0  0
 55 56  1  0  0  0  0
 57 62  1  0  0  0  0
 58 59  1  0  0  0  0
 58 60  1  0  0  0  0
 59 61  1  0  0  0  0
 60 67  1  0  0  0  0
 61 76  1  0  0  0  0
 62 84  1  0  0  0  0
 63 65  1  0  0  0  0
 63 75  1  0  0  0  0
 64 77  1  0  0  0  0
 66 68  1  0  0  0  0
M  CHG  2  69   1  77   1
M  ISO  4  35 100  62 101  76 100  84 101
M  END
> <Batch ID>
0042

> <Smiles>
CCCc1nc(CC[101CH2:1][101O:1]c2ccc3c(c2)CN(C(=O)C(NC(=O)C(C)NC)C(C)(C)C)C(C(=O)NC2CCCc4ccccc42)C3)cn1CCCC[100NH:0][100C:0](=O)N1CCCC(n2nc(-c3ccc(Oc4ccc(F)cc4F)cc3)c(C(N)=O)c2N)C1

> <Shape>
0.237

> <Color>
0.076

> <Negative vol penalty>
0.000

$$$$

  -OEChem-04052317123D

 82 90  0     1  0  0  0  0  0999 V2000
  -25.4122  -32.0914   20.5369 C   0  0  0  0  0  0  0  0  0  0  0  0
  -25.7350  -30.8423   20.0163 C   0  0  0  0  0  0  0  0  0  0  0  0
  -29.2198  -23.2119   20.6135 C   0  0  0  0  0  0  0  0  0  0  0  0
  -27.3645  -22.9826   19.0829 C   0  0  0  0  0  0  0  0  0  0  0  0
  -24.5148  -32.1919   21.5992 C   0  0  0  0  0  0  0  0  0  0  0  0
  -25.1614  -29.6928   20.5586 C   0  0  0  0  0  0  0  0  0  0  0  0
  -22.9115  -23.1566   18.6792 C   0  0  0  0  0  0  0  0  0  0  0  0
  -29.5375  -24.4448   20.0437 C   0  0  0  0  0  0  0  0  0  0  0  0
  -27.6822  -24.2155   18.5132 C   0  0  0  0  0  0  0  0  0  0  0  0
  -23.0671  -21.8189   19.0399 C   0  0  0  0  0  0  0  0  0  0  0  0
  -30.6187  -27.8192   19.2318 C   0  0  0  0  0  0  0  0  0  0  0  0
  -30.9156  -28.8748   20.0939 C   0  0  0  0  0  0  0  0  0  0  0  0
  -21.4691  -22.1198   20.8218 C   0  0  0  0  0  0  0  0  0  0  0  0
  -28.7177  -28.6881   21.0796 C   0  0  0  0  0  0  0  0  0  0  0  0
  -23.0880  -13.9858   22.7202 C   0  0  0  0  0  0  0  0  0  0  0  0
  -28.1333  -22.4807   20.1330 C   0  0  0  0  0  0  0  0  0  0  0  0
  -26.9395  -20.9687   21.8052 C   0  0  0  0  0  0  0  0  0  0  0  0
  -23.9225  -31.0438   22.1485 C   0  0  0  0  0  0  0  0  0  0  0  0
  -22.0403  -23.9901   19.3951 C   0  0  0  0  0  0  0  0  0  0  0  0
  -24.2563  -29.7779   21.6302 C   0  0  0  0  0  0  0  0  0  0  0  0
  -21.3024  -23.4671   20.4666 C   0  0  0  0  0  0  0  0  0  0  0  0
  -28.7687  -24.9466   18.9936 C   0  0  0  0  0  0  0  0  0  0  0  0
  -22.3480  -21.3010   20.1132 C   0  0  0  0  0  0  0  0  0  0  0  0
  -29.3712  -27.1981   19.2936 C   0  0  0  0  0  0  0  0  0  0  0  0
  -29.9652  -29.3092   21.0178 C   0  0  0  0  0  0  0  0  0  0  0  0
  -28.4208  -27.6325   20.2174 C   0  0  0  0  0  0  0  0  0  0  0  0
  -27.8050  -21.2068   20.7208 C   0  0  0  0  0  0  0  0  0  0  0  0
  -23.4435  -14.0627   21.3602 C   0  0  0  0  0  0  0  0  0  0  0  0
  -21.8414  -14.5590   22.7821 C   0  0  0  0  0  0  0  0  0  0  0  0
  -26.9675  -19.6060   21.9741 C   0  0  0  0  0  0  0  0  0  0  0  0
  -26.1782  -21.8965   22.5897 C   0  0  0  0  0  0  0  0  0  0  0  0
  -22.3822  -26.6335   21.1270 C   0  0  0  0  0  0  0  0  0  0  0  0
  -19.1408  -26.5348   21.2049 C   0  0  0  0  0  0  0  0  0  0  0  0
  -16.2926  -24.6694   20.9708 C   0  0  0  0  0  0  0  0  0  0  0  0
  -26.8591  -14.4381   19.8702 C   0  0  0  0  0  0  0  0  0  0  0  0
  -22.9944  -31.1988   23.3271 C   0  0  0  0  0  0  0  0  0  0  0  0
  -21.8637  -25.4240   18.9766 C   0  0  0  0  0  0  0  0  0  0  0  0
  -20.3389  -24.3150   21.2548 C   0  0  0  0  0  0  0  0  0  0  0  0
  -22.1436  -29.9610   23.5994 C   0  0  0  0  0  0  0  0  0  0  0  0
  -30.0064  -16.1005   19.9583 C   0  0  0  0  0  0  0  0  0  0  0  0
  -23.0042  -28.7022   23.5592 C   0  0  0  0  0  0  0  0  0  0  0  0
  -29.6423  -17.5578   20.2476 C   0  0  0  0  0  0  0  0  0  0  0  0
  -28.9761  -15.4307   19.0518 C   0  0  0  0  0  0  0  0  0  0  0  0
  -27.2180  -16.9806   19.8138 C   0  0  0  0  0  0  0  0  0  0  0  0
  -23.6359  -28.5098   22.1752 C   0  0  1  0  0  0  0  0  0  0  0  0
  -21.3352  -26.3130   20.0981 C   0  0  1  0  0  0  0  0  0  0  0  0
  -28.1982  -17.6820   20.7696 C   0  0  2  0  0  0  0  0  0  0  0  0
  -20.9331  -14.7809   23.9220 C   0  0  0  0  0  0  0  0  0  0  0  0
  -13.7947  -24.8612   21.1162 C   0  0  0  0  0  0  0  0  0  0  0  0
  -19.3334  -26.7059   24.2453 C   0  0  0  0  0  0  0  0  0  0  0  0
  -16.9509  -25.9464   24.3693 C   0  0  0  0  0  0  0  0  0  0  0  0
  -17.5157  -28.0953   23.2352 C   0  0  0  0  0  0  0  0  0  0  0  0
  -15.9438  -23.7580   18.1768 C   0  0  0  0  0  0  0  0  0  0  0  0
  -24.6896  -13.5943   20.7306 C   0  0  0  0  0  0  0  0  0  0  0  0
  -20.2343  -17.1111   21.3176 C   0  0  0  0  0  0  0  0  0  0  0  0
  -21.4272  -17.8638   20.7260 C   0  0  0  0  0  0  0  0  0  0  0  0
  -20.2745  -15.6052   21.0339 C   0  0  0  0  0  0  0  0  0  0  0  0
  -21.3715  -19.3490   21.0576 C   0  0  0  0  0  0  0  0  0  1  0  0
  -18.1118  -25.9086   22.1150 C   0  0  1  0  0  0  0  0  0  0  0  0
  -15.0055  -24.8890   20.1965 C   0  0  2  0  0  0  0  0  0  0  0  0
  -17.9975  -26.6483   23.4777 C   0  0  0  0  0  0  0  0  0  0  0  0
  -28.3437  -20.0853   20.2351 N   0  0  0  0  0  0  0  0  0  0  0  0
  -22.4990  -14.6392   20.6121 N   0  0  0  0  0  0  0  0  0  0  0  0
  -21.5376  -14.9296   21.5052 N   0  0  0  0  0  0  0  0  0  0  0  0
  -27.8153  -19.1292   21.0180 N   0  0  0  0  0  0  0  0  0  0  0  0
  -20.2058  -25.7124   20.8108 N   0  0  0  0  0  0  0  0  0  0  0  0
  -27.6279  -15.5832   19.6042 N   0  0  0  0  0  0  0  0  0  0  0  0
  -26.3495  -18.7809   22.8457 N   0  0  0  0  0  0  0  0  0  0  0  0
  -26.2649  -23.2609   22.2814 N   0  0  0  0  0  0  0  0  0  0  0  0
  -22.6619  -27.9816   21.2441 N   0  0  0  0  0  0  0  0  0  0  0  0
  -16.8680  -25.8624   21.3539 N   0  0  0  0  0  0  0  0  0  0  0  0
  -25.5954  -14.6714   20.3986 N   0  0  0  0  0  0  0  0  0  0  0  0
  -14.8352  -23.8286   19.1632 N   0  3  0  0  0  0  0  0  0  0  0  0
  -25.4556  -21.5280   23.5466 O   0  0  0  0  0  0  0  0  0  0  0  0
  -22.8970  -25.7250   21.7684 O   0  0  0  0  0  0  0  0  0  0  0  0
  -19.0009  -27.7081   20.8509 O   0  0  0  0  0  0  0  0  0  0  0  0
  -16.7406  -23.5513   21.2149 O   0  0  0  0  0  0  0  0  0  0  0  0
  -27.2707  -13.2924   19.6579 O   0  0  0  0  0  0  0  0  0  0  0  0
  -29.0782  -26.1498   18.4375 O   0  0  0  0  0  0  0  0  0  0  0  0
  -22.4985  -19.9959   20.4678 O   0  0  0  0  0  0  0  0  0  1  0  0
  -30.2510  -30.3219   21.8466 F   0  0  0  0  0  0  0  0  0  0  0  0
  -27.2211  -27.0390   20.2822 F   0  0  0  0  0  0  0  0  0  0  0  0
  1  2  1  0  0  0  0
  1  5  2  0  0  0  0
  2  6  2  0  0  0  0
  3  8  2  0  0  0  0
  3 16  1  0  0  0  0
  4  9  1  0  0  0  0
  4 16  2  0  0  0  0
  5 18  1  0  0  0  0
  6 20  1  0  0  0  0
  7 10  2  0  0  0  0
  7 19  1  0  0  0  0
  8 22  1  0  0  0  0
  9 22  2  0  0  0  0
 10 23  1  0  0  0  0
 11 12  2  0  0  0  0
 11 24  1  0  0  0  0
 12 25  1  0  0  0  0
 13 21  1  0  0  0  0
 13 23  2  0  0  0  0
 14 25  2  0  0  0  0
 14 26  1  0  0  0  0
 15 28  1  0  0  0  0
 15 29  2  0  0  0  0
 16 27  1  0  0  0  0
 17 27  1  0  0  0  0
 17 30  2  0  0  0  0
 17 31  1  0  0  0  0
 18 20  2  0  0  0  0
 18 36  1  0  0  0  0
 19 21  2  0  0  0  0
 19 37  1  0  0  0  0
 20 45  1  0  0  0  0
 21 38  1  0  0  0  0
 22 79  1  0  0  0  0
 23 80  1  0  0  0  0
 24 26  2  0  0  0  0
 24 79  1  0  0  0  0
 25 81  1  0  0  0  0
 26 82  1  0  0  0  0
 27 62  2  0  0  0  0
 28 54  1  0  0  0  0
 28 63  2  0  0  0  0
 29 48  1  0  0  0  0
 29 64  1  0  0  0  0
 30 65  1  0  0  0  0
 30 68  1  0  0  0  0
 31 69  1  0  0  0  0
 31 74  2  0  0  0  0
 32 46  1  0  0  0  0
 32 70  1  0  0  0  0
 32 75  2  0  0  0  0
 33 59  1  0  0  0  0
 33 66  1  0  0  0  0
 33 76  2  0  0  0  0
 34 60  1  0  0  0  0
 34 71  1  0  0  0  0
 34 77  2  0  0  0  0
 35 67  1  0  0  0  0
 35 72  1  0  0  0  0
 35 78  2  0  0  0  0
 36 39  1  0  0  0  0
 37 46  1  0  0  0  0
 38 66  1  0  0  0  0
 39 41  1  0  0  0  0
 40 42  1  0  0  0  0
 40 43  1  0  0  0  0
 41 45  1  0  0  0  0
 42 47  1  0  0  0  0
 43 67  1  0  0  0  0
 44 47  1  0  0  0  0
 44 67  1  0  0  0  0
 45 70  1  0  0  0  0
 46 66  1  0  0  0  0
 47 65  1  0  0  0  0
 49 60  1  0  0  0  0
 50 61  1  0  0  0  0
 51 61  1  0  0  0  0
 52 61  1  0  0  0  0
 53 73  1  0  0  0  0
 54 72  1  0  0  0  0
 55 56  1  0  0  0  0
 55 57  1  0  0  0  0
 56 58  1  0  0  0  0
 57 64  1  0  0  0  0
 58 80  1  0  0  0  0
 59 61  1  0  0  0  0
 59 71  1  0  0  0  0
 60 73  1  0  0  0  0
 62 65  1  0  0  0  0
 63 64  1  0  0  0  0
M  CHG  1  73   1
M  ISO  4  35 100  58 101  72 100  80 101
M  END
> <Batch ID>
0042

> <Smiles>
CNC(C)C(=O)NC(C(=O)N1Cc2cc([101O:1][101CH2:1]CCCn3nc(C[100NH:0][100C:0](=O)N4CCCC(n5nc(-c6ccc(Oc7ccc(F)cc7F)cc6)c(C(N)=O)c5N)C4)cc3C)ccc2CC1C(=O)NC1CCCc2ccccc21)C(C)(C)C

> <Shape>
0.220

> <Color>
0.049

> <Negative vol penalty>
0.000

$$$$

  -OEChem-04052317123D

 84 92  0     1  0  0  0  0  0999 V2000
  -19.4016  -34.3067   22.6674 C   0  0  0  0  0  0  0  0  0  0  0  0
  -19.6679  -33.3264   21.7169 C   0  0  0  0  0  0  0  0  0  0  0  0
  -26.1888  -13.0898   21.5156 C   0  0  0  0  0  0  0  0  0  0  0  0
  -25.8625  -13.7398   19.2117 C   0  0  0  0  0  0  0  0  0  0  0  0
  -20.4401  -35.0900   23.1692 C   0  0  0  0  0  0  0  0  0  0  0  0
  -20.9729  -33.1296   21.2667 C   0  0  0  0  0  0  0  0  0  0  0  0
  -22.2309  -28.2296   21.0382 C   0  0  0  0  0  0  0  0  0  0  0  0
  -24.9971  -12.3658   21.4801 C   0  0  0  0  0  0  0  0  0  0  0  0
  -24.6708  -13.0158   19.1762 C   0  0  0  0  0  0  0  0  0  0  0  0
  -21.7533  -27.4997   19.9506 C   0  0  0  0  0  0  0  0  0  0  0  0
  -22.2239  -10.0508   21.8869 C   0  0  0  0  0  0  0  0  0  0  0  0
  -22.2256   -8.7714   22.4426 C   0  0  0  0  0  0  0  0  0  0  0  0
  -23.8981  -27.7200   18.8686 C   0  0  0  0  0  0  0  0  0  0  0  0
  -24.5143  -23.0179   15.9439 C   0  0  0  0  0  0  0  0  0  0  0  0
  -23.9348   -8.0931   20.8755 C   0  0  0  0  0  0  0  0  0  0  0  0
  -24.0651  -22.5294   18.2278 C   0  0  0  0  0  0  0  0  0  0  0  0
  -26.6215  -13.7769   20.3814 C   0  0  0  0  0  0  0  0  0  0  0  0
  -29.1417  -14.0569   20.1025 C   0  0  0  0  0  0  0  0  0  0  0  0
  -21.7600  -34.8962   22.7320 C   0  0  0  0  0  0  0  0  0  0  0  0
  -23.5445  -28.7204   21.0444 C   0  0  0  0  0  0  0  0  0  0  0  0
  -22.0299  -33.9120   21.7620 C   0  0  0  0  0  0  0  0  0  0  0  0
  -24.3907  -28.4537   19.9586 C   0  0  0  0  0  0  0  0  0  0  0  0
  -24.9126  -22.4247   17.1367 C   0  0  0  0  0  0  0  0  0  0  0  0
  -23.2979  -23.6884   15.8796 C   0  0  0  0  0  0  0  0  0  0  0  0
  -24.2381  -12.3288   20.3104 C   0  0  0  0  0  0  0  0  0  0  0  0
  -22.5860  -27.2472   18.8643 C   0  0  0  0  0  0  0  0  0  0  0  0
  -23.0776  -10.3513   20.8254 C   0  0  0  0  0  0  0  0  0  0  0  0
  -23.0810   -7.7926   21.9369 C   0  0  0  0  0  0  0  0  0  0  0  0
  -23.9330   -9.3724   20.3198 C   0  0  0  0  0  0  0  0  0  0  0  0
  -27.8521  -14.5255   20.4176 C   0  0  0  0  0  0  0  0  0  0  0  0
  -22.5226  -23.7364   17.0270 C   0  0  0  0  0  0  0  0  0  0  0  0
  -29.9583  -15.1448   20.2929 C   0  0  0  0  0  0  0  0  0  0  0  0
  -29.5637  -12.7548   19.6759 C   0  0  0  0  0  0  0  0  0  0  0  0
  -24.8579  -31.6129   21.1542 C   0  0  0  0  0  0  0  0  0  0  0  0
  -27.6173  -29.9243   21.3921 C   0  0  0  0  0  0  0  0  0  0  0  0
  -29.2879  -27.0064   20.8075 C   0  0  0  0  0  0  0  0  0  0  0  0
  -28.9805  -21.0504   20.1574 C   0  0  0  0  0  0  0  0  0  0  0  0
  -22.8423  -35.7992   23.2684 C   0  0  0  0  0  0  0  0  0  0  0  0
  -24.0529  -29.4832   22.2369 C   0  0  0  0  0  0  0  0  0  0  0  0
  -25.8155  -28.9410   19.9252 C   0  0  0  0  0  0  0  0  0  0  0  0
  -24.2536  -35.2750   23.0158 C   0  0  0  0  0  0  0  0  0  0  0  0
  -30.3047  -19.1614   22.8693 C   0  0  0  0  0  0  0  0  0  0  0  0
  -24.3984  -34.8062   21.5715 C   0  0  0  0  0  0  0  0  0  0  0  0
  -29.9427  -17.7168   22.5201 C   0  0  0  0  0  0  0  0  0  0  0  0
  -29.2069  -20.1359   22.4484 C   0  0  0  0  0  0  0  0  0  0  0  0
  -28.4408  -18.5952   20.6840 C   0  0  0  0  0  0  0  0  0  0  0  0
  -23.4361  -33.6517   21.2671 C   0  0  1  0  0  0  0  0  0  0  0  0
  -25.2472  -30.3747   21.9111 C   0  0  1  0  0  0  0  0  0  0  0  0
  -29.5421  -17.5816   21.0387 C   0  0  2  0  0  0  0  0  0  0  0  0
  -21.8054  -23.5085   13.8729 C   0  0  0  0  0  0  0  0  0  0  0  0
  -31.5430  -25.9393   21.0783 C   0  0  0  0  0  0  0  0  0  0  0  0
  -28.6631  -31.5389   19.0237 C   0  0  0  0  0  0  0  0  0  0  0  0
  -30.4694  -29.8279   18.7443 C   0  0  0  0  0  0  0  0  0  0  0  0
  -30.3321  -31.1620   20.8477 C   0  0  0  0  0  0  0  0  0  0  0  0
  -28.2022  -24.8857   22.5633 C   0  0  0  0  0  0  0  0  0  0  0  0
  -26.2071  -21.6996   17.2381 C   0  0  0  0  0  0  0  0  0  0  0  0
  -22.8659  -24.3278   14.6053 C   0  0  0  0  0  0  0  0  0  0  0  0
  -21.1923  -24.4495   17.0164 C   0  0  0  0  0  0  0  0  0  0  0  0
  -27.4034  -22.5774   17.6624 C   0  0  0  0  0  0  0  0  0  0  0  0
  -28.7185  -21.8154   17.8111 C   0  0  0  0  0  0  0  0  0  0  0  0
  -21.1189  -25.5553   18.0637 C   0  0  0  0  0  0  0  0  0  1  0  0
  -28.6137  -29.3602   20.4083 C   0  0  1  0  0  0  0  0  0  0  0  0
  -30.1725  -26.1558   21.7010 C   0  0  2  0  0  0  0  0  0  0  0  0
  -29.4922  -30.4646   19.7555 C   0  0  0  0  0  0  0  0  0  0  0  0
  -22.8761  -23.1723   18.2036 N   0  0  0  0  0  0  0  0  0  0  0  0
  -27.8449  -15.8108   20.7807 N   0  0  0  0  0  0  0  0  0  0  0  0
  -29.1401  -16.1592   20.6951 N   0  0  0  0  0  0  0  0  0  0  0  0
  -26.2640  -29.6878   21.1120 N   0  0  0  0  0  0  0  0  0  0  0  0
  -28.8748  -19.9571   21.0329 N   0  0  0  0  0  0  0  0  0  0  0  0
  -31.2892  -15.3230   20.1540 N   0  0  0  0  0  0  0  0  0  0  0  0
  -28.5948  -11.7525   19.5311 N   0  0  0  0  0  0  0  0  0  0  0  0
  -23.9445  -32.4122   21.8146 N   0  0  0  0  0  0  0  0  0  0  0  0
  -29.3708  -28.3442   21.1313 N   0  0  0  0  0  0  0  0  0  0  0  0
  -28.6531  -20.7933   18.8317 N   0  0  0  0  0  0  0  0  0  0  0  0
  -29.5460  -24.8236   21.9330 N   0  3  0  0  0  0  0  0  0  0  0  0
  -30.7667  -12.4835   19.4461 O   0  0  0  0  0  0  0  0  0  0  0  0
  -25.3509  -31.8280   20.0531 O   0  0  0  0  0  0  0  0  0  0  0  0
  -28.0250  -30.5455   22.3768 O   0  0  0  0  0  0  0  0  0  0  0  0
  -28.5957  -26.5321   19.9095 O   0  0  0  0  0  0  0  0  0  0  0  0
  -29.3451  -22.1713   20.5286 O   0  0  0  0  0  0  0  0  0  0  0  0
  -23.0753  -11.6222   20.2754 O   0  0  0  0  0  0  0  0  0  0  0  0
  -22.1222  -26.5356   17.8012 O   0  0  0  0  0  0  0  0  0  1  0  0
  -23.0837   -6.5645   22.4716 F   0  0  0  0  0  0  0  0  0  0  0  0
  -24.7563   -9.6555   19.3010 F   0  0  0  0  0  0  0  0  0  0  0  0
  1  2  1  0  0  0  0
  1  5  2  0  0  0  0
  2  6  2  0  0  0  0
  3  8  2  0  0  0  0
  3 17  1  0  0  0  0
  4  9  1  0  0  0  0
  4 17  2  0  0  0  0
  5 19  1  0  0  0  0
  6 21  1  0  0  0  0
  7 10  2  0  0  0  0
  7 20  1  0  0  0  0
  8 25  1  0  0  0  0
  9 25  2  0  0  0  0
 10 26  1  0  0  0  0
 11 12  2  0  0  0  0
 11 27  1  0  0  0  0
 12 28  1  0  0  0  0
 13 22  1  0  0  0  0
 13 26  2  0  0  0  0
 14 23  2  0  0  0  0
 14 24  1  0  0  0  0
 15 28  2  0  0  0  0
 15 29  1  0  0  0  0
 16 23  1  0  0  0  0
 16 65  2  0  0  0  0
 17 30  1  0  0  0  0
 18 30  1  0  0  0  0
 18 32  2  0  0  0  0
 18 33  1  0  0  0  0
 19 21  2  0  0  0  0
 19 38  1  0  0  0  0
 20 22  2  0  0  0  0
 20 39  1  0  0  0  0
 21 47  1  0  0  0  0
 22 40  1  0  0  0  0
 23 56  1  0  0  0  0
 24 31  2  0  0  0  0
 24 57  1  0  0  0  0
 25 81  1  0  0  0  0
 26 82  1  0  0  0  0
 27 29  2  0  0  0  0
 27 81  1  0  0  0  0
 28 83  1  0  0  0  0
 29 84  1  0  0  0  0
 30 66  2  0  0  0  0
 31 58  1  0  0  0  0
 31 65  1  0  0  0  0
 32 67  1  0  0  0  0
 32 70  1  0  0  0  0
 33 71  1  0  0  0  0
 33 76  2  0  0  0  0
 34 48  1  0  0  0  0
 34 72  1  0  0  0  0
 34 77  2  0  0  0  0
 35 62  1  0  0  0  0
 35 68  1  0  0  0  0
 35 78  2  0  0  0  0
 36 63  1  0  0  0  0
 36 73  1  0  0  0  0
 36 79  2  0  0  0  0
 37 69  1  0  0  0  0
 37 74  1  0  0  0  0
 37 80  2  0  0  0  0
 38 41  1  0  0  0  0
 39 48  1  0  0  0  0
 40 68  1  0  0  0  0
 41 43  1  0  0  0  0
 42 44  1  0  0  0  0
 42 45  1  0  0  0  0
 43 47  1  0  0  0  0
 44 49  1  0  0  0  0
 45 69  1  0  0  0  0
 46 49  1  0  0  0  0
 46 69  1  0  0  0  0
 47 72  1  0  0  0  0
 48 68  1  0  0  0  0
 49 67  1  0  0  0  0
 50 57  1  0  0  0  0
 51 63  1  0  0  0  0
 52 64  1  0  0  0  0
 53 64  1  0  0  0  0
 54 64  1  0  0  0  0
 55 75  1  0  0  0  0
 56 59  1  0  0  0  0
 58 61  1  0  0  0  0
 59 60  1  0  0  0  0
 60 74  1  0  0  0  0
 61 82  1  0  0  0  0
 62 64  1  0  0  0  0
 62 73  1  0  0  0  0
 63 75  1  0  0  0  0
 66 67  1  0  0  0  0
M  CHG  1  75   1
M  ISO  4  37 100  61 101  74 100  82 101
M  END
> <Batch ID>
0042

> <Smiles>
CCc1cc(CCC[100NH:0][100C:0](=O)N2CCCC(n3nc(-c4ccc(Oc5ccc(F)cc5F)cc4)c(C(N)=O)c3N)C2)cnc1C[101CH2:1][101O:1]c1ccc2c(c1)CN(C(=O)C(NC(=O)C(C)NC)C(C)(C)C)C(C(=O)NC1CCCc3ccccc31)C2

> <Shape>
0.254

> <Color>
0.070

> <Negative vol penalty>
0.000

$$$$

  -OEChem-04052317123D

 88 96  0     1  0  0  0  0  0999 V2000
  -31.8056  -26.7669   19.8540 C   0  0  0  0  0  0  0  0  0  0  0  0
  -31.2249  -25.5796   20.2880 C   0  0  0  0  0  0  0  0  0  0  0  0
  -23.3801   -9.7821   19.9144 C   0  0  0  0  0  0  0  0  0  0  0  0
  -23.7680   -9.9784   22.2909 C   0  0  0  0  0  0  0  0  0  0  0  0
  -31.4764  -27.9706   20.4756 C   0  0  0  0  0  0  0  0  0  0  0  0
  -30.3153  -25.5952   21.3448 C   0  0  0  0  0  0  0  0  0  0  0  0
  -25.4058  -21.9990   22.0300 C   0  0  0  0  0  0  0  0  0  0  0  0
  -22.6972   -8.5842   20.1247 C   0  0  0  0  0  0  0  0  0  0  0  0
  -23.0850   -8.7805   22.5013 C   0  0  0  0  0  0  0  0  0  0  0  0
  -25.1905  -20.8362   22.7684 C   0  0  0  0  0  0  0  0  0  0  0  0
  -21.1316   -5.9583   23.7004 C   0  0  0  0  0  0  0  0  0  0  0  0
  -20.2066   -5.9128   24.7434 C   0  0  0  0  0  0  0  0  0  0  0  0
  -24.2493  -22.1533   24.5569 C   0  0  0  0  0  0  0  0  0  0  0  0
  -18.9469   -7.6931   23.7038 C   0  0  0  0  0  0  0  0  0  0  0  0
  -23.9155  -10.4792   20.9975 C   0  0  0  0  0  0  0  0  0  0  0  0
  -24.0766  -13.0143   20.7627 C   0  0  0  0  0  0  0  0  0  0  0  0
  -30.5550  -28.0023   21.5343 C   0  0  0  0  0  0  0  0  0  0  0  0
  -25.0538  -23.2508   22.5548 C   0  0  0  0  0  0  0  0  0  0  0  0
  -29.9744  -26.8004   21.9821 C   0  0  0  0  0  0  0  0  0  0  0  0
  -24.4588  -23.3303   23.8220 C   0  0  0  0  0  0  0  0  0  0  0  0
  -22.5496   -8.0834   21.4182 C   0  0  0  0  0  0  0  0  0  0  0  0
  -24.6149  -20.9135   24.0333 C   0  0  0  0  0  0  0  0  0  0  0  0
  -20.9643   -6.8712   22.6591 C   0  0  0  0  0  0  0  0  0  0  0  0
  -19.1142   -6.7802   24.7451 C   0  0  0  0  0  0  0  0  0  0  0  0
  -19.8719   -7.7386   22.6608 C   0  0  0  0  0  0  0  0  0  0  0  0
  -24.6215  -11.7164   20.7808 C   0  0  0  0  0  0  0  0  0  0  0  0
  -28.4755  -18.5738   26.1620 C   0  0  0  0  0  0  0  0  0  0  0  0
  -28.6695  -17.3635   25.5336 C   0  0  0  0  0  0  0  0  0  0  0  0
  -26.2397  -18.1261   26.3347 C   0  0  0  0  0  0  0  0  0  0  0  0
  -26.4333  -16.9160   25.7055 C   0  0  0  0  0  0  0  0  0  0  0  0
  -25.1512  -13.8346   20.5204 C   0  0  0  0  0  0  0  0  0  0  0  0
  -22.7202  -13.4403   20.9485 C   0  0  0  0  0  0  0  0  0  0  0  0
  -26.6482  -25.8944   23.3119 C   0  0  0  0  0  0  0  0  0  0  0  0
  -23.6716  -27.0731   23.8345 C   0  0  0  0  0  0  0  0  0  0  0  0
  -20.3967  -26.4517   24.5664 C   0  0  0  0  0  0  0  0  0  0  0  0
  -31.0303  -13.2461   21.4903 C   0  0  0  0  0  0  0  0  0  0  0  0
  -30.2662  -29.3214   22.2061 C   0  0  0  0  0  0  0  0  0  0  0  0
  -25.2680  -24.4933   21.7346 C   0  0  0  0  0  0  0  0  0  0  0  0
  -24.0443  -24.6480   24.4223 C   0  0  0  0  0  0  0  0  0  0  0  0
  -29.0099  -29.3013   23.0730 C   0  0  0  0  0  0  0  0  0  0  0  0
  -29.4266  -13.8689   18.3731 C   0  0  0  0  0  0  0  0  0  0  0  0
  -28.9906  -28.0577   23.9562 C   0  0  0  0  0  0  0  0  0  0  0  0
  -27.9641  -13.5050   18.6351 C   0  0  0  0  0  0  0  0  0  0  0  0
  -30.3817  -12.9399   19.1192 C   0  0  0  0  0  0  0  0  0  0  0  0
  -28.6727  -12.4692   20.8314 C   0  0  0  0  0  0  0  0  0  0  0  0
  -28.9646  -26.7797   23.1091 C   0  0  1  0  0  0  0  0  0  0  0  0
  -25.3431  -25.7614   22.5794 C   0  0  1  0  0  0  0  0  0  0  0  0
  -27.6708  -13.4131   20.1446 C   0  0  2  0  0  0  0  0  0  0  0  0
  -29.6094  -19.5057   26.4215 C   0  0  0  0  0  0  0  0  0  0  0  0
  -18.2116  -27.6193   24.9656 C   0  0  0  0  0  0  0  0  0  0  0  0
  -24.2146  -16.6502   24.5427 C   0  0  0  0  0  0  0  0  0  0  0  0
  -24.6037  -15.5538   26.7749 C   0  0  0  0  0  0  0  0  0  0  0  0
  -25.6782  -14.6485   24.7238 C   0  0  0  0  0  0  0  0  0  0  0  0
  -24.6202  -27.8921   26.6165 C   0  0  0  0  0  0  0  0  0  0  0  0
  -22.2210  -28.1632   27.2787 C   0  0  0  0  0  0  0  0  0  0  0  0
  -23.1807  -29.5825   25.4656 C   0  0  0  0  0  0  0  0  0  0  0  0
  -19.1186  -25.0938   22.2683 C   0  0  0  0  0  0  0  0  0  0  0  0
  -30.0226  -16.9293   25.0841 C   0  0  0  0  0  0  0  0  0  0  0  0
  -24.8696  -18.5653   26.7911 C   0  0  0  0  0  0  0  0  0  0  0  0
  -30.0597  -15.4409   24.7018 C   0  0  0  0  0  0  0  0  0  0  0  0
  -31.4634  -14.9986   24.2779 C   0  0  0  0  0  0  0  0  0  0  0  0
  -31.5253  -13.5206   23.9066 C   0  0  0  0  0  0  0  0  0  0  0  0
  -24.4537  -19.8979   26.1777 C   0  0  0  0  0  0  0  0  0  1  0  0
  -22.7385  -27.1334   25.0197 C   0  0  1  0  0  0  0  0  0  0  0  0
  -19.1107  -26.9539   23.9352 C   0  0  2  0  0  0  0  0  0  0  0  0
  -25.2992  -15.9845   25.4459 C   0  0  0  0  0  0  0  0  0  0  0  0
  -23.1996  -28.1680   26.0849 C   0  0  0  0  0  0  0  0  0  0  0  0
  -25.9399  -11.7078   20.5668 N   0  0  0  0  0  0  0  0  0  0  0  0
  -27.2572  -18.9768   26.5739 N   0  0  0  0  0  0  0  0  0  0  0  0
  -27.6518  -16.5129   25.2940 N   0  0  0  0  0  0  0  0  0  0  0  0
  -26.2324  -13.0103   20.4119 N   0  0  0  0  0  0  0  0  0  0  0  0
  -24.2802  -25.8351   23.5840 N   0  0  0  0  0  0  0  0  0  0  0  0
  -30.0505  -12.8988   20.5456 N   0  0  0  0  0  0  0  0  0  0  0  0
  -25.2674  -15.1734   20.3916 N   0  0  0  0  0  0  0  0  0  0  0  0
  -21.7409  -12.4667   21.1880 N   0  0  0  0  0  0  0  0  0  0  0  0
  -27.6337  -26.5429   22.5924 N   0  0  0  0  0  0  0  0  0  0  0  0
  -21.4073  -27.3857   24.4788 N   0  0  0  0  0  0  0  0  0  0  0  0
  -30.6317  -13.1865   22.8201 N   0  0  0  0  0  0  0  0  0  0  0  0
  -18.3612  -25.8237   23.3173 N   0  3  0  0  0  0  0  0  0  0  0  0
  -22.3839  -14.6472   20.8871 O   0  0  0  0  0  0  0  0  0  0  0  0
  -26.7529  -25.4434   24.4466 O   0  0  0  0  0  0  0  0  0  0  0  0
  -23.8484  -28.0852   23.1519 O   0  0  0  0  0  0  0  0  0  0  0  0
  -20.4939  -25.3433   25.0885 O   0  0  0  0  0  0  0  0  0  0  0  0
  -32.1739  -13.5894   21.1719 O   0  0  0  0  0  0  0  0  0  0  0  0
  -21.8831   -6.9146   21.6239 O   0  0  0  0  0  0  0  0  0  0  0  0
  -24.4043  -19.7801   24.7564 O   0  0  0  0  0  0  0  0  0  1  0  0
  -18.2252   -6.7353   25.7459 F   0  0  0  0  0  0  0  0  0  0  0  0
  -19.7052   -8.6170   21.6625 F   0  0  0  0  0  0  0  0  0  0  0  0
  1  2  1  0  0  0  0
  1  5  2  0  0  0  0
  2  6  2  0  0  0  0
  3  8  2  0  0  0  0
  3 15  1  0  0  0  0
  4  9  1  0  0  0  0
  4 15  2  0  0  0  0
  5 17  1  0  0  0  0
  6 19  1  0  0  0  0
  7 10  2  0  0  0  0
  7 18  1  0  0  0  0
  8 21  1  0  0  0  0
  9 21  2  0  0  0  0
 10 22  1  0  0  0  0
 11 12  2  0  0  0  0
 11 23  1  0  0  0  0
 12 24  1  0  0  0  0
 13 20  1  0  0  0  0
 13 22  2  0  0  0  0
 14 24  2  0  0  0  0
 14 25  1  0  0  0  0
 15 26  1  0  0  0  0
 16 26  1  0  0  0  0
 16 31  2  0  0  0  0
 16 32  1  0  0  0  0
 17 19  2  0  0  0  0
 17 37  1  0  0  0  0
 18 20  2  0  0  0  0
 18 38  1  0  0  0  0
 19 46  1  0  0  0  0
 20 39  1  0  0  0  0
 21 85  1  0  0  0  0
 22 86  1  0  0  0  0
 23 25  2  0  0  0  0
 23 85  1  0  0  0  0
 24 87  1  0  0  0  0
 25 88  1  0  0  0  0
 26 68  2  0  0  0  0
 27 28  1  0  0  0  0
 27 49  1  0  0  0  0
 27 69  2  0  0  0  0
 28 58  1  0  0  0  0
 28 70  2  0  0  0  0
 29 30  2  0  0  0  0
 29 59  1  0  0  0  0
 29 69  1  0  0  0  0
 30 66  1  0  0  0  0
 30 70  1  0  0  0  0
 31 71  1  0  0  0  0
 31 74  1  0  0  0  0
 32 75  1  0  0  0  0
 32 80  2  0  0  0  0
 33 47  1  0  0  0  0
 33 76  1  0  0  0  0
 33 81  2  0  0  0  0
 34 64  1  0  0  0  0
 34 72  1  0  0  0  0
 34 82  2  0  0  0  0
 35 65  1  0  0  0  0
 35 77  1  0  0  0  0
 35 83  2  0  0  0  0
 36 73  1  0  0  0  0
 36 78  1  0  0  0  0
 36 84  2  0  0  0  0
 37 40  1  0  0  0  0
 38 47  1  0  0  0  0
 39 72  1  0  0  0  0
 40 42  1  0  0  0  0
 41 43  1  0  0  0  0
 41 44  1  0  0  0  0
 42 46  1  0  0  0  0
 43 48  1  0  0  0  0
 44 73  1  0  0  0  0
 45 48  1  0  0  0  0
 45 73  1  0  0  0  0
 46 76  1  0  0  0  0
 47 72  1  0  0  0  0
 48 71  1  0  0  0  0
 50 65  1  0  0  0  0
 51 66  1  0  0  0  0
 52 66  1  0  0  0  0
 53 66  1  0  0  0  0
 54 67  1  0  0  0  0
 55 67  1  0  0  0  0
 56 67  1  0  0  0  0
 57 79  1  0  0  0  0
 58 60  1  0  0  0  0
 59 63  1  0  0  0  0
 60 61  1  0  0  0  0
 61 62  1  0  0  0  0
 62 78  1  0  0  0  0
 63 86  1  0  0  0  0
 64 67  1  0  0  0  0
 64 77  1  0  0  0  0
 65 79  1  0  0  0  0
 68 71  1  0  0  0  0
M  CHG  1  79   1
M  ISO  4  36 100  63 101  78 100  86 101
M  END
> <Batch ID>
0042

> <Smiles>
CNC(C)C(=O)NC(C(=O)N1Cc2cc([101O:1][101CH2:1]Cc3nc(C)c(CCCC[100NH:0][100C:0](=O)N4CCCC(n5nc(-c6ccc(Oc7ccc(F)cc7F)cc6)c(C(N)=O)c5N)C4)nc3C(C)(C)C)ccc2CC1C(=O)NC1CCCc2ccccc21)C(C)(C)C

> <Shape>
0.180

> <Color>
0.178

> <Negative vol penalty>
0.000

$$$$

  -OEChem-04052317123D

 84 92  0     1  0  0  0  0  0999 V2000
  -22.1362  -18.0740   24.0237 C   0  0  0  0  0  0  0  0  0  0  0  0
  -23.2907  -18.7397   23.6244 C   0  0  0  0  0  0  0  0  0  0  0  0
  -26.8358  -13.8402   22.3262 C   0  0  0  0  0  0  0  0  0  0  0  0
  -26.7460  -12.8954   20.1044 C   0  0  0  0  0  0  0  0  0  0  0  0
  -20.8860  -18.5574   23.6399 C   0  0  0  0  0  0  0  0  0  0  0  0
  -23.1957  -19.8886   22.8400 C   0  0  0  0  0  0  0  0  0  0  0  0
  -26.8615  -24.7908   23.0319 C   0  0  0  0  0  0  0  0  0  0  0  0
  -26.3167  -12.6565   22.8506 C   0  0  0  0  0  0  0  0  0  0  0  0
  -26.2269  -11.7117   20.6288 C   0  0  0  0  0  0  0  0  0  0  0  0
  -27.9480  -25.1807   22.2502 C   0  0  0  0  0  0  0  0  0  0  0  0
  -24.5413   -8.5709   21.3390 C   0  0  0  0  0  0  0  0  0  0  0  0
  -23.4589   -7.9893   20.6790 C   0  0  0  0  0  0  0  0  0  0  0  0
  -26.4845  -26.5538   20.9115 C   0  0  0  0  0  0  0  0  0  0  0  0
  -22.1541   -9.9869   21.0584 C   0  0  0  0  0  0  0  0  0  0  0  0
  -27.0504  -13.9597   20.9531 C   0  0  0  0  0  0  0  0  0  0  0  0
  -28.9430  -15.5045   20.2188 C   0  0  0  0  0  0  0  0  0  0  0  0
  -20.7753  -19.7184   22.8584 C   0  0  0  0  0  0  0  0  0  0  0  0
  -25.5743  -25.2717   22.7521 C   0  0  0  0  0  0  0  0  0  0  0  0
  -21.9429  -20.3873   22.4442 C   0  0  0  0  0  0  0  0  0  0  0  0
  -25.3837  -26.1704   21.6928 C   0  0  0  0  0  0  0  0  0  0  0  0
  -26.0122  -11.5922   22.0019 C   0  0  0  0  0  0  0  0  0  0  0  0
  -27.7592  -26.0600   21.1880 C   0  0  0  0  0  0  0  0  0  0  0  0
  -24.4301   -9.8606   21.8589 C   0  0  0  0  0  0  0  0  0  0  0  0
  -22.2653   -8.6972   20.5387 C   0  0  0  0  0  0  0  0  0  0  0  0
  -23.2365  -10.5685   21.7185 C   0  0  0  0  0  0  0  0  0  0  0  0
  -27.5861  -15.1824   20.4108 C   0  0  0  0  0  0  0  0  0  0  0  0
  -30.6487  -23.0579   18.8569 C   0  0  0  0  0  0  0  0  0  0  0  0
  -31.1132  -23.1607   17.5669 C   0  0  0  0  0  0  0  0  0  0  0  0
  -28.9232  -16.7683   19.6812 C   0  0  0  0  0  0  0  0  0  0  0  0
  -30.2383  -25.0600   18.2623 C   0  0  0  0  0  0  0  0  0  0  0  0
  -30.1165  -14.7305   20.5010 C   0  0  0  0  0  0  0  0  0  0  0  0
  -22.8155  -23.9375   21.9080 C   0  0  0  0  0  0  0  0  0  0  0  0
  -21.6877  -26.9554   22.2858 C   0  0  0  0  0  0  0  0  0  0  0  0
  -22.3375  -30.3052   22.3425 C   0  0  0  0  0  0  0  0  0  0  0  0
  -26.8249  -20.5033   16.1046 C   0  0  0  0  0  0  0  0  0  0  0  0
  -19.4040  -20.1760   22.4286 C   0  0  0  0  0  0  0  0  0  0  0  0
  -24.4170  -24.8625   23.6213 C   0  0  0  0  0  0  0  0  0  0  0  0
  -24.0253  -26.7314   21.3634 C   0  0  0  0  0  0  0  0  0  0  0  0
  -19.3757  -21.6117   21.9105 C   0  0  0  0  0  0  0  0  0  0  0  0
  -25.1346  -20.0866   19.2103 C   0  0  0  0  0  0  0  0  0  0  0  0
  -20.5211  -21.8485   20.9313 C   0  0  0  0  0  0  0  0  0  0  0  0
  -25.7289  -18.7974   19.7802 C   0  0  0  0  0  0  0  0  0  0  0  0
  -24.9865  -20.0168   17.6920 C   0  0  0  0  0  0  0  0  0  0  0  0
  -26.8136  -18.3703   17.5352 C   0  0  0  0  0  0  0  0  0  0  0  0
  -21.8800  -21.6508   21.6137 C   0  0  1  0  0  0  0  0  0  0  0  0
  -23.0665  -25.0121   22.9277 C   0  0  1  0  0  0  0  0  0  0  0  0
  -27.0341  -18.4141   19.0570 C   0  0  2  0  0  0  0  0  0  0  0  0
  -30.6776  -21.8882   19.7493 C   0  0  0  0  0  0  0  0  0  0  0  0
  -21.2075  -32.5263   22.6376 C   0  0  0  0  0  0  0  0  0  0  0  0
  -20.5543  -26.7516   19.4602 C   0  0  0  0  0  0  0  0  0  0  0  0
  -20.2953  -29.2418   19.4594 C   0  0  0  0  0  0  0  0  0  0  0  0
  -19.0405  -27.8596   21.1140 C   0  0  0  0  0  0  0  0  0  0  0  0
  -31.1449  -25.0533   15.9217 C   0  0  0  0  0  0  0  0  0  0  0  0
  -23.9674  -30.9480   24.7277 C   0  0  0  0  0  0  0  0  0  0  0  0
  -31.7686  -22.1853   16.6771 C   0  0  0  0  0  0  0  0  0  0  0  0
  -29.7996  -26.5035   18.2174 C   0  0  0  0  0  0  0  0  0  0  0  0
  -30.7775  -21.1735   16.0638 C   0  0  0  0  0  0  0  0  0  0  0  0
  -29.7185  -21.8529   15.1905 C   0  0  0  0  0  0  0  0  0  0  0  0
  -28.7432  -20.8576   14.5704 C   0  0  0  0  0  0  0  0  0  0  0  0
  -28.5521  -26.7567   19.0569 C   0  0  0  0  0  0  0  0  0  1  0  0
  -21.5357  -28.1600   21.3887 C   0  0  1  0  0  0  0  0  0  0  0  0
  -21.9460  -31.3907   23.3288 C   0  0  2  0  0  0  0  0  0  0  0  0
  -20.3819  -27.9913   20.3603 C   0  0  0  0  0  0  0  0  0  0  0  0
  -26.7641  -16.1626   20.0266 N   0  0  0  0  0  0  0  0  0  0  0  0
  -30.1050  -24.2435   19.2839 N   0  0  0  0  0  0  0  0  0  0  0  0
  -30.8429  -24.4487   17.1993 N   0  0  0  0  0  0  0  0  0  0  0  0
  -27.6069  -17.1130   19.5879 N   0  0  0  0  0  0  0  0  0  0  0  0
  -22.9243  -26.2963   22.2386 N   0  0  0  0  0  0  0  0  0  0  0  0
  -26.2597  -19.6504   17.0670 N   0  0  0  0  0  0  0  0  0  0  0  0
  -29.9035  -17.6072   19.2841 N   0  0  0  0  0  0  0  0  0  0  0  0
  -29.9568  -13.4517   21.0520 N   0  0  0  0  0  0  0  0  0  0  0  0
  -22.2128  -22.8048   22.4211 N   0  0  0  0  0  0  0  0  0  0  0  0
  -21.3849  -29.3108   22.2726 N   0  0  0  0  0  0  0  0  0  0  0  0
  -28.0357  -20.0845   15.5666 N   0  0  0  0  0  0  0  0  0  0  0  0
  -23.1582  -31.9518   23.9897 N   0  3  0  0  0  0  0  0  0  0  0  0
  -31.2729  -15.1666   20.2866 O   0  0  0  0  0  0  0  0  0  0  0  0
  -23.1429  -24.1229   20.7418 O   0  0  0  0  0  0  0  0  0  0  0  0
  -20.7464  -26.6161   23.0073 O   0  0  0  0  0  0  0  0  0  0  0  0
  -23.3821  -30.3382   21.6957 O   0  0  0  0  0  0  0  0  0  0  0  0
  -26.2929  -21.5623   15.7549 O   0  0  0  0  0  0  0  0  0  0  0  0
  -25.5059  -10.4370   22.5132 O   0  0  0  0  0  0  0  0  0  0  0  0
  -28.8180  -26.4417   20.4230 O   0  0  0  0  0  0  0  0  0  1  0  0
  -21.2265   -8.1391   19.9034 F   0  0  0  0  0  0  0  0  0  0  0  0
  -23.1240  -11.8083   22.2148 F   0  0  0  0  0  0  0  0  0  0  0  0
  1  2  1  0  0  0  0
  1  5  2  0  0  0  0
  2  6  2  0  0  0  0
  3  8  2  0  0  0  0
  3 15  1  0  0  0  0
  4  9  1  0  0  0  0
  4 15  2  0  0  0  0
  5 17  1  0  0  0  0
  6 19  1  0  0  0  0
  7 10  2  0  0  0  0
  7 18  1  0  0  0  0
  8 21  1  0  0  0  0
  9 21  2  0  0  0  0
 10 22  1  0  0  0  0
 11 12  2  0  0  0  0
 11 23  1  0  0  0  0
 12 24  1  0  0  0  0
 13 20  1  0  0  0  0
 13 22  2  0  0  0  0
 14 24  2  0  0  0  0
 14 25  1  0  0  0  0
 15 26  1  0  0  0  0
 16 26  1  0  0  0  0
 16 29  2  0  0  0  0
 16 31  1  0  0  0  0
 17 19  2  0  0  0  0
 17 36  1  0  0  0  0
 18 20  2  0  0  0  0
 18 37  1  0  0  0  0
 19 45  1  0  0  0  0
 20 38  1  0  0  0  0
 21 81  1  0  0  0  0
 22 82  1  0  0  0  0
 23 25  2  0  0  0  0
 23 81  1  0  0  0  0
 24 83  1  0  0  0  0
 25 84  1  0  0  0  0
 26 64  2  0  0  0  0
 27 28  2  0  0  0  0
 27 48  1  0  0  0  0
 27 65  1  0  0  0  0
 28 55  1  0  0  0  0
 28 66  1  0  0  0  0
 29 67  1  0  0  0  0
 29 70  1  0  0  0  0
 30 56  1  0  0  0  0
 30 65  2  0  0  0  0
 30 66  1  0  0  0  0
 31 71  1  0  0  0  0
 31 76  2  0  0  0  0
 32 46  1  0  0  0  0
 32 72  1  0  0  0  0
 32 77  2  0  0  0  0
 33 61  1  0  0  0  0
 33 68  1  0  0  0  0
 33 78  2  0  0  0  0
 34 62  1  0  0  0  0
 34 73  1  0  0  0  0
 34 79  2  0  0  0  0
 35 69  1  0  0  0  0
 35 74  1  0  0  0  0
 35 80  2  0  0  0  0
 36 39  1  0  0  0  0
 37 46  1  0  0  0  0
 38 68  1  0  0  0  0
 39 41  1  0  0  0  0
 40 42  1  0  0  0  0
 40 43  1  0  0  0  0
 41 45  1  0  0  0  0
 42 47  1  0  0  0  0
 43 69  1  0  0  0  0
 44 47  1  0  0  0  0
 44 69  1  0  0  0  0
 45 72  1  0  0  0  0
 46 68  1  0  0  0  0
 47 67  1  0  0  0  0
 49 62  1  0  0  0  0
 50 63  1  0  0  0  0
 51 63  1  0  0  0  0
 52 63  1  0  0  0  0
 53 66  1  0  0  0  0
 54 75  1  0  0  0  0
 55 57  1  0  0  0  0
 56 60  1  0  0  0  0
 57 58  1  0  0  0  0
 58 59  1  0  0  0  0
 59 74  1  0  0  0  0
 60 82  1  0  0  0  0
 61 63  1  0  0  0  0
 61 73  1  0  0  0  0
 62 75  1  0  0  0  0
 64 67  1  0  0  0  0
M  CHG  1  75   1
M  ISO  4  35 100  60 101  74 100  82 101
M  END
> <Batch ID>
0042

> <Smiles>
CNC(C)C(=O)NC(C(=O)N1Cc2cc([101O:1][101CH2:1]Cc3nc(C)c(CCCC[100NH:0][100C:0](=O)N4CCCC(n5nc(-c6ccc(Oc7ccc(F)cc7F)cc6)c(C(N)=O)c5N)C4)n3C)ccc2CC1C(=O)NC1CCCc2ccccc21)C(C)(C)C

> <Shape>
0.203

> <Color>
0.079

> <Negative vol penalty>
0.000

$$$$

  -OEChem-04052317123D

 83 91  0     1  0  0  0  0  0999 V2000
  -29.7198  -25.7729   23.6874 C   0  0  0  0  0  0  0  0  0  0  0  0
  -28.6442  -24.9697   24.0526 C   0  0  0  0  0  0  0  0  0  0  0  0
  -25.7993  -30.5097   23.7228 C   0  0  0  0  0  0  0  0  0  0  0  0
  -25.9626  -28.4103   24.9072 C   0  0  0  0  0  0  0  0  0  0  0  0
  -30.3327  -25.5940   22.4480 C   0  0  0  0  0  0  0  0  0  0  0  0
  -28.1802  -23.9878   23.1780 C   0  0  0  0  0  0  0  0  0  0  0  0
  -25.8796  -18.5132   24.6753 C   0  0  0  0  0  0  0  0  0  0  0  0
  -26.6943  -31.0873   24.6233 C   0  0  0  0  0  0  0  0  0  0  0  0
  -26.8576  -28.9879   25.8077 C   0  0  0  0  0  0  0  0  0  0  0  0
  -24.5713  -18.0471   24.7974 C   0  0  0  0  0  0  0  0  0  0  0  0
  -26.6101  -32.3378   27.7623 C   0  0  0  0  0  0  0  0  0  0  0  0
  -26.2984  -33.6013   28.2643 C   0  0  0  0  0  0  0  0  0  0  0  0
  -24.6747  -17.1854   22.5466 C   0  0  0  0  0  0  0  0  0  0  0  0
  -21.5069  -21.7457   21.3403 C   0  0  0  0  0  0  0  0  0  0  0  0
  -19.7580  -20.2037   21.9301 C   0  0  0  0  0  0  0  0  0  0  0  0
  -28.3452  -34.4785   27.3271 C   0  0  0  0  0  0  0  0  0  0  0  0
  -25.4334  -29.1711   23.8648 C   0  0  0  0  0  0  0  0  0  0  0  0
  -24.8198  -27.9177   21.7293 C   0  0  0  0  0  0  0  0  0  0  0  0
  -29.8822  -24.6030   21.5617 C   0  0  0  0  0  0  0  0  0  0  0  0
  -26.5927  -18.3282   23.4821 C   0  0  0  0  0  0  0  0  0  0  0  0
  -28.7868  -23.7964   21.9250 C   0  0  0  0  0  0  0  0  0  0  0  0
  -25.9928  -17.6479   22.4128 C   0  0  0  0  0  0  0  0  0  0  0  0
  -20.2075  -21.2798   21.1731 C   0  0  0  0  0  0  0  0  0  0  0  0
  -27.2235  -30.3265   25.6657 C   0  0  0  0  0  0  0  0  0  0  0  0
  -23.9677  -17.3856   23.7319 C   0  0  0  0  0  0  0  0  0  0  0  0
  -27.7894  -32.1446   27.0428 C   0  0  0  0  0  0  0  0  0  0  0  0
  -27.1660  -34.6717   28.0466 C   0  0  0  0  0  0  0  0  0  0  0  0
  -28.6569  -33.2149   26.8252 C   0  0  0  0  0  0  0  0  0  0  0  0
  -24.5085  -28.5740   22.9352 C   0  0  0  0  0  0  0  0  0  0  0  0
  -22.3106  -21.1060   22.2701 C   0  0  0  0  0  0  0  0  0  0  0  0
  -20.6400  -19.6328   22.8334 C   0  0  0  0  0  0  0  0  0  0  0  0
  -23.6020  -27.5358   21.2219 C   0  0  0  0  0  0  0  0  0  0  0  0
  -26.0958  -27.6749   21.1222 C   0  0  0  0  0  0  0  0  0  0  0  0
  -27.8854  -20.2648   21.3182 C   0  0  0  0  0  0  0  0  0  0  0  0
  -18.5445  -25.2789   22.0083 C   0  0  0  0  0  0  0  0  0  0  0  0
  -29.0222  -17.4889   20.0834 C   0  0  0  0  0  0  0  0  0  0  0  0
  -28.6947  -14.1058   19.7762 C   0  0  0  0  0  0  0  0  0  0  0  0
  -30.5464  -24.4786   20.2134 C   0  0  0  0  0  0  0  0  0  0  0  0
  -28.0124  -18.8134   23.3758 C   0  0  0  0  0  0  0  0  0  0  0  0
  -26.7224  -17.4058   21.1176 C   0  0  0  0  0  0  0  0  0  0  0  0
  -30.2333  -23.1663   19.4990 C   0  0  0  0  0  0  0  0  0  0  0  0
  -18.9094  -28.7937   22.6025 C   0  0  0  0  0  0  0  0  0  0  0  0
  -28.7390  -22.8671   19.5628 C   0  0  0  0  0  0  0  0  0  0  0  0
  -20.4232  -28.9906   22.6731 C   0  0  0  0  0  0  0  0  0  0  0  0
  -18.4931  -27.4495   23.1915 C   0  0  0  0  0  0  0  0  0  0  0  0
  -20.6993  -26.4710   22.6465 C   0  0  0  0  0  0  0  0  0  0  0  0
  -28.2705  -22.7040   21.0138 C   0  0  1  0  0  0  0  0  0  0  0  0
  -28.4658  -19.0233   21.9343 C   0  0  1  0  0  0  0  0  0  0  0  0
  -21.1654  -27.8036   22.0338 C   0  0  2  0  0  0  0  0  0  0  0  0
  -23.7103  -21.5799   22.4774 C   0  0  0  0  0  0  0  0  0  0  0  0
  -29.7535  -12.1164   18.6723 C   0  0  0  0  0  0  0  0  0  0  0  0
  -27.7920  -18.3170   17.4168 C   0  0  0  0  0  0  0  0  0  0  0  0
  -28.0371  -15.9472   16.6472 C   0  0  0  0  0  0  0  0  0  0  0  0
  -30.0607  -17.2793   17.2416 C   0  0  0  0  0  0  0  0  0  0  0  0
  -29.2744  -12.8237   22.3799 C   0  0  0  0  0  0  0  0  0  0  0  0
  -19.2995  -21.9323   20.1865 C   0  0  0  0  0  0  0  0  0  0  0  0
  -20.1869  -18.4629   23.6698 C   0  0  0  0  0  0  0  0  0  0  0  0
  -19.3786  -24.1865   21.3880 C   0  0  0  0  0  0  0  0  0  0  0  0
  -18.4945  -23.0852   20.8112 C   0  0  0  0  0  0  0  0  0  0  0  0
  -20.4462  -17.1029   23.0181 C   0  0  0  0  0  0  0  0  0  0  0  0
  -21.9092  -16.8762   22.6554 C   0  0  0  0  0  0  0  0  0  1  0  0
  -28.5190  -16.4802   19.0792 C   0  0  1  0  0  0  0  0  0  0  0  0
  -29.7010  -12.9789   19.9237 C   0  0  2  0  0  0  0  0  0  0  0  0
  -28.5875  -17.0120   17.6198 C   0  0  0  0  0  0  0  0  0  0  0  0
  -23.1958  -28.6090   23.1792 N   0  0  0  0  0  0  0  0  0  0  0  0
  -21.9092  -20.0578   23.0237 N   0  0  0  0  0  0  0  0  0  0  0  0
  -22.6714  -27.9700   22.1196 N   0  0  0  0  0  0  0  0  0  0  0  0
  -28.1063  -17.9048   21.0602 N   0  0  0  0  0  0  0  0  0  0  0  0
  -19.2366  -26.3499   22.5740 N   0  0  0  0  0  0  0  0  0  0  0  0
  -23.2470  -26.8743   20.0999 N   0  0  0  0  0  0  0  0  0  0  0  0
  -27.2460  -28.1350   21.7777 N   0  0  0  0  0  0  0  0  0  0  0  0
  -28.6441  -21.4015   21.5222 N   0  0  0  0  0  0  0  0  0  0  0  0
  -29.2855  -15.2600   19.3072 N   0  0  0  0  0  0  0  0  0  0  0  0
  -29.3395  -12.1095   21.0789 N   0  3  0  0  0  0  0  0  0  0  0  0
  -26.2114  -27.0823   20.0226 O   0  0  0  0  0  0  0  0  0  0  0  0
  -26.8283  -20.1961   20.7021 O   0  0  0  0  0  0  0  0  0  0  0  0
  -17.3147  -25.1829   21.9871 O   0  0  0  0  0  0  0  0  0  0  0  0
  -30.1871  -17.8876   20.0084 O   0  0  0  0  0  0  0  0  0  0  0  0
  -27.5029  -13.9742   20.0463 O   0  0  0  0  0  0  0  0  0  0  0  0
  -28.0970  -30.8897   26.5445 O   0  0  0  0  0  0  0  0  0  0  0  0
  -22.6906  -16.9302   23.8482 O   0  0  0  0  0  0  0  0  0  1  0  0
  -26.8658  -35.8853   28.5274 F   0  0  0  0  0  0  0  0  0  0  0  0
  -29.7907  -33.0357   26.1337 F   0  0  0  0  0  0  0  0  0  0  0  0
  1  2  1  0  0  0  0
  1  5  2  0  0  0  0
  2  6  2  0  0  0  0
  3  8  2  0  0  0  0
  3 17  1  0  0  0  0
  4  9  1  0  0  0  0
  4 17  2  0  0  0  0
  5 19  1  0  0  0  0
  6 21  1  0  0  0  0
  7 10  2  0  0  0  0
  7 20  1  0  0  0  0
  8 24  1  0  0  0  0
  9 24  2  0  0  0  0
 10 25  1  0  0  0  0
 11 12  2  0  0  0  0
 11 26  1  0  0  0  0
 12 27  1  0  0  0  0
 13 22  1  0  0  0  0
 13 25  2  0  0  0  0
 14 23  1  0  0  0  0
 14 30  2  0  0  0  0
 15 23  2  0  0  0  0
 15 31  1  0  0  0  0
 16 27  2  0  0  0  0
 16 28  1  0  0  0  0
 17 29  1  0  0  0  0
 18 29  1  0  0  0  0
 18 32  2  0  0  0  0
 18 33  1  0  0  0  0
 19 21  2  0  0  0  0
 19 38  1  0  0  0  0
 20 22  2  0  0  0  0
 20 39  1  0  0  0  0
 21 47  1  0  0  0  0
 22 40  1  0  0  0  0
 23 56  1  0  0  0  0
 24 80  1  0  0  0  0
 25 81  1  0  0  0  0
 26 28  2  0  0  0  0
 26 80  1  0  0  0  0
 27 82  1  0  0  0  0
 28 83  1  0  0  0  0
 29 65  2  0  0  0  0
 30 50  1  0  0  0  0
 30 66  1  0  0  0  0
 31 57  1  0  0  0  0
 31 66  2  0  0  0  0
 32 67  1  0  0  0  0
 32 70  1  0  0  0  0
 33 71  1  0  0  0  0
 33 75  2  0  0  0  0
 34 48  1  0  0  0  0
 34 72  1  0  0  0  0
 34 76  2  0  0  0  0
 35 58  1  0  0  0  0
 35 69  1  0  0  0  0
 35 77  2  0  0  0  0
 36 62  1  0  0  0  0
 36 68  1  0  0  0  0
 36 78  2  0  0  0  0
 37 63  1  0  0  0  0
 37 73  1  0  0  0  0
 37 79  2  0  0  0  0
 38 41  1  0  0  0  0
 39 48  1  0  0  0  0
 40 68  1  0  0  0  0
 41 43  1  0  0  0  0
 42 44  1  0  0  0  0
 42 45  1  0  0  0  0
 43 47  1  0  0  0  0
 44 49  1  0  0  0  0
 45 69  1  0  0  0  0
 46 49  1  0  0  0  0
 46 69  1  0  0  0  0
 47 72  1  0  0  0  0
 48 68  1  0  0  0  0
 49 67  1  0  0  0  0
 51 63  1  0  0  0  0
 52 64  1  0  0  0  0
 53 64  1  0  0  0  0
 54 64  1  0  0  0  0
 55 74  1  0  0  0  0
 56 59  1  0  0  0  0
 57 60  1  0  0  0  0
 58 59  1  0  0  0  0
 60 61  1  0  0  0  0
 61 81  1  0  0  0  0
 62 64  1  0  0  0  0
 62 73  1  0  0  0  0
 63 74  1  0  0  0  0
 65 67  1  0  0  0  0
M  CHG  1  74   1
M  ISO  4  35 100  58 100  61 101  81 101
M  END
> <Batch ID>
0042

> <Smiles>
CNC(C)C(=O)NC(C(=O)N1Cc2cc([101O:1][101CH2:1]CCc3cc(CC[100CH2:0][100C:0](=O)N4CCCC(n5nc(-c6ccc(Oc7ccc(F)cc7F)cc6)c(C(N)=O)c5N)C4)cc(C)n3)ccc2CC1C(=O)NC1CCCc2ccccc21)C(C)(C)C

> <Shape>
0.210

> <Color>
0.051

> <Negative vol penalty>
0.000

$$$$

  -OEChem-04052317123D

 88 96  0     1  0  0  0  0  0999 V2000
  -28.1538  -12.2060   40.2896 C   0  0  0  0  0  0  0  0  0  0  0  0
  -28.5901  -12.5389   39.0113 C   0  0  0  0  0  0  0  0  0  0  0  0
  -23.0653   -9.8741   19.9495 C   0  0  0  0  0  0  0  0  0  0  0  0
  -23.8589   -9.8736   22.2314 C   0  0  0  0  0  0  0  0  0  0  0  0
  -26.8000  -12.2998   40.6094 C   0  0  0  0  0  0  0  0  0  0  0  0
  -27.6726  -12.9649   38.0515 C   0  0  0  0  0  0  0  0  0  0  0  0
  -29.2975  -17.0068   35.4694 C   0  0  0  0  0  0  0  0  0  0  0  0
  -22.3275   -8.7185   20.2058 C   0  0  0  0  0  0  0  0  0  0  0  0
  -23.1211   -8.7180   22.4878 C   0  0  0  0  0  0  0  0  0  0  0  0
  -30.2361  -16.7841   34.4628 C   0  0  0  0  0  0  0  0  0  0  0  0
  -19.9037   -7.9114   23.1347 C   0  0  0  0  0  0  0  0  0  0  0  0
  -19.1642   -7.8653   24.3165 C   0  0  0  0  0  0  0  0  0  0  0  0
  -28.4818  -16.8956   32.8107 C   0  0  0  0  0  0  0  0  0  0  0  0
  -20.4202   -5.9275   25.0269 C   0  0  0  0  0  0  0  0  0  0  0  0
  -23.8311  -10.4517   20.9622 C   0  0  0  0  0  0  0  0  0  0  0  0
  -24.1662  -12.9780   20.8471 C   0  0  0  0  0  0  0  0  0  0  0  0
  -25.8667  -12.7364   39.6560 C   0  0  0  0  0  0  0  0  0  0  0  0
  -27.9402  -17.1649   35.1546 C   0  0  0  0  0  0  0  0  0  0  0  0
  -26.3048  -13.0634   38.3584 C   0  0  0  0  0  0  0  0  0  0  0  0
  -27.5284  -17.1227   33.8149 C   0  0  0  0  0  0  0  0  0  0  0  0
  -33.8156  -17.0073   30.6851 C   0  0  0  0  0  0  0  0  0  0  0  0
  -22.3553   -8.1405   21.4750 C   0  0  0  0  0  0  0  0  0  0  0  0
  -29.8279  -16.7256   33.1335 C   0  0  0  0  0  0  0  0  0  0  0  0
  -20.9014   -6.9654   22.8990 C   0  0  0  0  0  0  0  0  0  0  0  0
  -19.4224   -6.8734   25.2626 C   0  0  0  0  0  0  0  0  0  0  0  0
  -21.1596   -5.9735   23.8451 C   0  0  0  0  0  0  0  0  0  0  0  0
  -24.5940  -11.6451   20.6979 C   0  0  0  0  0  0  0  0  0  0  0  0
  -34.3996  -16.3605   29.5586 C   0  0  0  0  0  0  0  0  0  0  0  0
  -32.9516  -16.1483   31.3289 C   0  0  0  0  0  0  0  0  0  0  0  0
  -25.2514  -13.7311   20.4708 C   0  0  0  0  0  0  0  0  0  0  0  0
  -22.9010  -13.4896   21.2868 C   0  0  0  0  0  0  0  0  0  0  0  0
  -25.2750  -15.5823   35.8589 C   0  0  0  0  0  0  0  0  0  0  0  0
  -30.7577  -14.6936   20.6786 C   0  0  0  0  0  0  0  0  0  0  0  0
  -23.8582  -18.0676   34.3299 C   0  0  0  0  0  0  0  0  0  0  0  0
  -24.1209  -20.6019   32.0593 C   0  0  0  0  0  0  0  0  0  0  0  0
  -24.4072  -12.7766   40.0341 C   0  0  0  0  0  0  0  0  0  0  0  0
  -26.9440  -17.4310   36.2497 C   0  0  0  0  0  0  0  0  0  0  0  0
  -26.0859  -17.3065   33.4225 C   0  0  0  0  0  0  0  0  0  0  0  0
  -23.5508  -13.5947   39.0711 C   0  0  0  0  0  0  0  0  0  0  0  0
  -29.5607  -12.4045   18.1953 C   0  0  0  0  0  0  0  0  0  0  0  0
  -23.8799  -13.2343   37.6260 C   0  0  0  0  0  0  0  0  0  0  0  0
  -28.1376  -12.0891   18.6540 C   0  0  0  0  0  0  0  0  0  0  0  0
  -30.4984  -12.6043   19.3818 C   0  0  0  0  0  0  0  0  0  0  0  0
  -28.6145  -13.3297   20.8123 C   0  0  0  0  0  0  0  0  0  0  0  0
  -25.3434  -13.5533   37.2974 C   0  0  1  0  0  0  0  0  0  0  0  0
  -25.5152  -17.0655   35.8595 C   0  0  1  0  0  0  0  0  0  0  0  0
  -27.6281  -13.1508   19.6447 C   0  0  2  0  0  0  0  0  0  0  0  0
  -32.9706  -19.3676   30.7250 C   0  0  0  0  0  0  0  0  0  0  0  0
  -22.7840  -22.4396   30.9950 C   0  0  0  0  0  0  0  0  0  0  0  0
  -22.4419  -16.0155   32.5712 C   0  0  0  0  0  0  0  0  0  0  0  0
  -21.8999  -17.8637   30.9716 C   0  0  0  0  0  0  0  0  0  0  0  0
  -21.0086  -17.9309   33.3005 C   0  0  0  0  0  0  0  0  0  0  0  0
  -25.9266  -22.6905   33.1251 C   0  0  0  0  0  0  0  0  0  0  0  0
  -29.5137  -18.6964   22.2856 C   0  0  0  0  0  0  0  0  0  0  0  0
  -34.0939  -18.3998   31.1047 C   0  0  0  0  0  0  0  0  0  0  0  0
  -35.3744  -16.9748   28.6308 C   0  0  0  0  0  0  0  0  0  0  0  0
  -32.1022  -16.3478   32.5495 C   0  0  0  0  0  0  0  0  0  1  0  0
  -30.1417  -15.6827   21.6358 C   0  0  0  0  0  0  0  0  0  0  0  0
  -34.7579  -17.9218   27.5775 C   0  0  0  0  0  0  0  0  0  0  0  0
  -33.7596  -17.2116   26.6580 C   0  0  0  0  0  0  0  0  0  0  0  0
  -33.1503  -18.1839   25.6459 C   0  0  0  0  0  0  0  0  0  0  0  0
  -32.1285  -17.4848   24.7480 C   0  0  0  0  0  0  0  0  0  0  0  0
  -31.1065  -16.8122   21.9486 C   0  0  0  0  0  0  0  0  0  0  0  0
  -31.5012  -18.4654   23.7684 C   0  0  0  0  0  0  0  0  0  0  0  0
  -23.4678  -18.3617   32.9016 C   0  0  1  0  0  0  0  0  0  0  0  0
  -23.7219  -22.0647   32.1319 C   0  0  2  0  0  0  0  0  0  0  0  0
  -22.2315  -17.5375   32.4434 C   0  0  0  0  0  0  0  0  0  0  0  0
  -25.8527  -11.5535   20.2606 N   0  0  0  0  0  0  0  0  0  0  0  0
  -34.0375  -15.1016   29.3235 N   0  0  0  0  0  0  0  0  0  0  0  0
  -26.2251  -12.8383   20.1318 N   0  0  0  0  0  0  0  0  0  0  0  0
  -25.1489  -17.5579   34.5299 N   0  0  0  0  0  0  0  0  0  0  0  0
  -29.9683  -13.6039   20.3107 N   0  0  0  0  0  0  0  0  0  0  0  0
  -25.4581  -15.0632   20.3999 N   0  0  0  0  0  0  0  0  0  0  0  0
  -21.8960  -12.5770   21.6354 N   0  0  0  0  0  0  0  0  0  0  0  0
  -25.5138  -14.9733   37.0761 N   0  0  0  0  0  0  0  0  0  0  0  0
  -23.2871  -19.8069   32.8170 N   0  0  0  0  0  0  0  0  0  0  0  0
  -24.9288  -22.9354   32.0521 N   0  3  0  0  0  0  0  0  0  0  0  0
  -30.4877  -17.7551   22.9518 N   0  3  1  0  0  0  0  0  0  0  0  0
  -22.6632  -14.7195   21.3525 O   0  0  0  0  0  0  0  0  0  0  0  0
  -24.8995  -15.0314   34.8307 O   0  0  0  0  0  0  0  0  0  0  0  0
  -31.9053  -14.8870   20.2688 O   0  0  0  0  0  0  0  0  0  0  0  0
  -23.0503  -18.2890   35.2354 O   0  0  0  0  0  0  0  0  0  0  0  0
  -25.0744  -20.2037   31.3938 O   0  0  0  0  0  0  0  0  0  0  0  0
  -21.6353   -7.0129   21.7255 O   0  0  0  0  0  0  0  0  0  0  0  0
  -30.7419  -16.5077   32.1491 O   0  0  0  0  0  0  0  0  0  1  0  0
  -18.7133   -6.8303   26.3981 F   0  0  0  0  0  0  0  0  0  0  0  0
  -22.1177   -5.0628   23.6247 F   0  0  0  0  0  0  0  0  0  0  0  0
  -32.9466  -14.6526   30.4942 S   0  0  0  0  0  0  0  0  0  0  0  0
  1  2  1  0  0  0  0
  1  5  2  0  0  0  0
  2  6  2  0  0  0  0
  3  8  2  0  0  0  0
  3 15  1  0  0  0  0
  4  9  1  0  0  0  0
  4 15  2  0  0  0  0
  5 17  1  0  0  0  0
  6 19  1  0  0  0  0
  7 10  2  0  0  0  0
  7 18  1  0  0  0  0
  8 22  1  0  0  0  0
  9 22  2  0  0  0  0
 10 23  1  0  0  0  0
 11 12  2  0  0  0  0
 11 24  1  0  0  0  0
 12 25  1  0  0  0  0
 13 20  1  0  0  0  0
 13 23  2  0  0  0  0
 14 25  2  0  0  0  0
 14 26  1  0  0  0  0
 15 27  1  0  0  0  0
 16 27  1  0  0  0  0
 16 30  2  0  0  0  0
 16 31  1  0  0  0  0
 17 19  2  0  0  0  0
 17 36  1  0  0  0  0
 18 20  2  0  0  0  0
 18 37  1  0  0  0  0
 19 45  1  0  0  0  0
 20 38  1  0  0  0  0
 21 28  1  0  0  0  0
 21 29  2  0  0  0  0
 21 55  1  0  0  0  0
 22 84  1  0  0  0  0
 23 85  1  0  0  0  0
 24 26  2  0  0  0  0
 24 84  1  0  0  0  0
 25 86  1  0  0  0  0
 26 87  1  0  0  0  0
 27 68  2  0  0  0  0
 28 56  1  0  0  0  0
 28 69  2  0  0  0  0
 29 57  1  0  0  0  0
 29 88  1  0  0  0  0
 30 70  1  0  0  0  0
 30 73  1  0  0  0  0
 31 74  1  0  0  0  0
 31 79  2  0  0  0  0
 32 46  1  0  0  0  0
 32 75  1  0  0  0  0
 32 80  2  0  0  0  0
 33 58  1  0  0  0  0
 33 72  1  0  0  0  0
 33 81  2  0  0  0  0
 34 65  1  0  0  0  0
 34 71  1  0  0  0  0
 34 82  2  0  0  0  0
 35 66  1  0  0  0  0
 35 76  1  0  0  0  0
 35 83  2  0  0  0  0
 36 39  1  0  0  0  0
 37 46  1  0  0  0  0
 38 71  1  0  0  0  0
 39 41  1  0  0  0  0
 40 42  1  0  0  0  0
 40 43  1  0  0  0  0
 41 45  1  0  0  0  0
 42 47  1  0  0  0  0
 43 72  1  0  0  0  0
 44 47  1  0  0  0  0
 44 72  1  0  0  0  0
 45 75  1  0  0  0  0
 46 71  1  0  0  0  0
 47 70  1  0  0  0  0
 48 55  1  0  0  0  0
 49 66  1  0  0  0  0
 50 67  1  0  0  0  0
 51 67  1  0  0  0  0
 52 67  1  0  0  0  0
 53 77  1  0  0  0  0
 54 78  1  0  0  0  0
 56 59  1  0  0  0  0
 57 85  1  0  0  0  0
 58 63  1  0  0  0  0
 59 60  1  0  0  0  0
 60 61  1  0  0  0  0
 61 62  1  0  0  0  0
 62 64  1  0  0  0  0
 63 78  1  0  0  0  0
 64 78  1  0  0  0  0
 65 67  1  0  0  0  0
 65 76  1  0  0  0  0
 66 77  1  0  0  0  0
 68 70  1  0  0  0  0
 69 88  1  0  0  0  0
M  CHG  2  77   1  78   1
M  ISO  4  33 100  57 101  58 100  85 101
M  END
> <Batch ID>
0042

> <Smiles>
CCc1c(CCCCCCN(C)C[100CH2:0][100C:0](=O)N2CCCC(n3nc(-c4ccc(Oc5ccc(F)cc5F)cc4)c(C(N)=O)c3N)C2)nsc1[101CH2:1][101O:1]c1ccc2c(c1)CN(C(=O)C(NC(=O)C(C)NC)C(C)(C)C)C(C(=O)NC1CCCc3ccccc31)C2

> <Shape>
0.164

> <Color>
0.183

> <Negative vol penalty>
0.000

$$$$

  -OEChem-04052317123D

 87 95  0     1  0  0  0  0  0999 V2000
  -18.6661  -32.8000   25.5874 C   0  0  0  0  0  0  0  0  0  0  0  0
  -19.8261  -32.0633   25.8042 C   0  0  0  0  0  0  0  0  0  0  0  0
  -23.8587   -9.7501   22.1442 C   0  0  0  0  0  0  0  0  0  0  0  0
  -22.4666  -10.0953   20.1999 C   0  0  0  0  0  0  0  0  0  0  0  0
  -17.6647  -32.2941   24.7597 C   0  0  0  0  0  0  0  0  0  0  0  0
  -19.9849  -30.8195   25.1941 C   0  0  0  0  0  0  0  0  0  0  0  0
  -25.2067  -28.3672   23.1385 C   0  0  0  0  0  0  0  0  0  0  0  0
  -23.4825   -8.4073   22.1751 C   0  0  0  0  0  0  0  0  0  0  0  0
  -22.0905   -8.7524   20.2308 C   0  0  0  0  0  0  0  0  0  0  0  0
  -26.0881  -27.4387   23.6907 C   0  0  0  0  0  0  0  0  0  0  0  0
  -22.6075   -4.9709   22.9808 C   0  0  0  0  0  0  0  0  0  0  0  0
  -22.2627   -4.4207   24.2153 C   0  0  0  0  0  0  0  0  0  0  0  0
  -24.9897  -25.6757   22.4641 C   0  0  0  0  0  0  0  0  0  0  0  0
  -28.5620  -21.6062   19.2829 C   0  0  0  0  0  0  0  0  0  0  0  0
  -20.4795   -6.0357   24.4370 C   0  0  0  0  0  0  0  0  0  0  0  0
  -23.3507  -10.5941   21.1566 C   0  0  0  0  0  0  0  0  0  0  0  0
  -24.8332  -12.5425   20.4399 C   0  0  0  0  0  0  0  0  0  0  0  0
  -17.8155  -31.0478   24.1314 C   0  0  0  0  0  0  0  0  0  0  0  0
  -24.2016  -27.9547   22.2520 C   0  0  0  0  0  0  0  0  0  0  0  0
  -18.9840  -30.2958   24.3582 C   0  0  0  0  0  0  0  0  0  0  0  0
  -24.0985  -26.6013   21.9001 C   0  0  0  0  0  0  0  0  0  0  0  0
  -27.3638  -20.9985   18.9245 C   0  0  0  0  0  0  0  0  0  0  0  0
  -26.5669  -20.4147   19.9030 C   0  0  0  0  0  0  0  0  0  0  0  0
  -22.5984   -7.9084   21.2185 C   0  0  0  0  0  0  0  0  0  0  0  0
  -25.9779  -26.0923   23.3557 C   0  0  0  0  0  0  0  0  0  0  0  0
  -21.8883   -6.0535   22.4744 C   0  0  0  0  0  0  0  0  0  0  0  0
  -21.1987   -4.9531   24.9434 C   0  0  0  0  0  0  0  0  0  0  0  0
  -20.8243   -6.5859   23.2025 C   0  0  0  0  0  0  0  0  0  0  0  0
  -23.7385  -11.9814   21.1244 C   0  0  0  0  0  0  0  0  0  0  0  0
  -28.9153  -21.6033   20.6227 C   0  0  0  0  0  0  0  0  0  0  0  0
  -27.0097  -20.4649   21.2149 C   0  0  0  0  0  0  0  0  0  0  0  0
  -24.7657  -13.8842   20.7254 C   0  0  0  0  0  0  0  0  0  0  0  0
  -25.8227  -11.9075   19.6193 C   0  0  0  0  0  0  0  0  0  0  0  0
  -21.0239  -28.0284   22.2723 C   0  0  0  0  0  0  0  0  0  0  0  0
  -21.3673  -26.9230   19.2420 C   0  0  0  0  0  0  0  0  0  0  0  0
  -23.3003  -25.2808   16.9587 C   0  0  0  0  0  0  0  0  0  0  0  0
  -21.8315  -18.5973   21.2939 C   0  0  0  0  0  0  0  0  0  0  0  0
  -16.6854  -30.5211   23.2829 C   0  0  0  0  0  0  0  0  0  0  0  0
  -23.2757  -28.9724   21.6443 C   0  0  0  0  0  0  0  0  0  0  0  0
  -23.0496  -26.1099   20.9373 C   0  0  0  0  0  0  0  0  0  0  0  0
  -17.0933  -29.3630   22.3759 C   0  0  0  0  0  0  0  0  0  0  0  0
  -21.9453  -16.3963   24.0902 C   0  0  0  0  0  0  0  0  0  0  0  0
  -17.9082  -28.3358   23.1554 C   0  0  0  0  0  0  0  0  0  0  0  0
  -22.5061  -15.0967   23.5101 C   0  0  0  0  0  0  0  0  0  0  0  0
  -21.0247  -17.1055   23.0994 C   0  0  0  0  0  0  0  0  0  0  0  0
  -22.1783  -16.0545   21.1920 C   0  0  0  0  0  0  0  0  0  0  0  0
  -19.2040  -28.9537   23.6945 C   0  0  1  0  0  0  0  0  0  0  0  0
  -21.9646  -28.3681   21.1510 C   0  0  1  0  0  0  0  0  0  0  0  0
  -23.1567  -15.3317   22.1336 C   0  0  2  0  0  0  0  0  0  0  0  0
  -26.9588  -20.9841   17.4876 C   0  0  0  0  0  0  0  0  0  0  0  0
  -26.1962  -19.8565   22.3103 C   0  0  0  0  0  0  0  0  0  0  0  0
  -23.2969  -24.4980   14.5745 C   0  0  0  0  0  0  0  0  0  0  0  0
  -19.4988  -24.6327   19.9992 C   0  0  0  0  0  0  0  0  0  0  0  0
  -20.2780  -23.4139   17.9557 C   0  0  0  0  0  0  0  0  0  0  0  0
  -19.0970  -25.5993   17.7280 C   0  0  0  0  0  0  0  0  0  0  0  0
  -25.6531  -26.9458   16.2870 C   0  0  0  0  0  0  0  0  0  0  0  0
  -25.2754  -19.7578   19.5483 C   0  0  0  0  0  0  0  0  0  0  0  0
  -30.2072  -22.2543   21.0486 C   0  0  0  0  0  0  0  0  0  0  0  0
  -24.0258  -20.6162   19.8267 C   0  0  0  0  0  0  0  0  0  0  0  0
  -30.1709  -22.8331   22.4676 C   0  0  0  0  0  0  0  0  0  0  0  0
  -29.1510  -23.9650   22.6272 C   0  0  0  0  0  0  0  0  0  0  0  0
  -29.1272  -24.4901   24.0616 C   0  0  0  0  0  0  0  0  0  0  0  0
  -22.7090  -19.9612   19.4153 C   0  0  0  0  0  0  0  0  0  0  0  0
  -28.1471  -25.6436   24.2213 C   0  0  0  0  0  0  0  0  0  1  0  0
  -21.4671  -25.5570   18.6072 C   0  0  1  0  0  0  0  0  0  0  0  0
  -23.6769  -25.6203   15.5278 C   0  0  2  0  0  0  0  0  0  0  0  0
  -20.1039  -24.8094   18.5922 C   0  0  0  0  0  0  0  0  0  0  0  0
  -23.0276  -12.8923   21.7944 N   0  0  0  0  0  0  0  0  0  0  0  0
  -28.1674  -21.0463   21.6014 N   0  0  0  0  0  0  0  0  0  0  0  0
  -23.6772  -14.0393   21.5324 N   0  0  0  0  0  0  0  0  0  0  0  0
  -22.1639  -27.1426   20.3747 N   0  0  0  0  0  0  0  0  0  0  0  0
  -21.7022  -17.2994   21.8152 N   0  0  0  0  0  0  0  0  0  0  0  0
  -25.5319  -14.9348   20.3625 N   0  0  0  0  0  0  0  0  0  0  0  0
  -25.7443  -10.5210   19.4302 N   0  0  0  0  0  0  0  0  0  0  0  0
  -20.1878  -29.0657   22.6390 N   0  0  0  0  0  0  0  0  0  0  0  0
  -22.0504  -25.7625   17.2859 N   0  0  0  0  0  0  0  0  0  0  0  0
  -22.4923  -18.6930   20.0753 N   0  0  0  0  0  0  0  0  0  0  0  0
  -25.1451  -25.8519   15.4197 N   0  3  0  0  0  0  0  0  0  0  0  0
  -26.7585  -12.5482   19.0833 O   0  0  0  0  0  0  0  0  0  0  0  0
  -21.0534  -26.9077   22.7671 O   0  0  0  0  0  0  0  0  0  0  0  0
  -20.6157  -27.7665   18.7468 O   0  0  0  0  0  0  0  0  0  0  0  0
  -24.0393  -24.6482   17.7098 O   0  0  0  0  0  0  0  0  0  0  0  0
  -21.3953  -19.5973   21.8742 O   0  0  0  0  0  0  0  0  0  0  0  0
  -22.2313   -6.5981   21.2483 O   0  0  0  0  0  0  0  0  0  0  0  0
  -26.8365  -25.1839   23.8937 O   0  0  0  0  0  0  0  0  0  1  0  0
  -20.8668   -4.4236   26.1282 F   0  0  0  0  0  0  0  0  0  0  0  0
  -20.1289   -7.6252   22.7206 F   0  0  0  0  0  0  0  0  0  0  0  0
  1  2  1  0  0  0  0
  1  5  2  0  0  0  0
  2  6  2  0  0  0  0
  3  8  2  0  0  0  0
  3 16  1  0  0  0  0
  4  9  1  0  0  0  0
  4 16  2  0  0  0  0
  5 18  1  0  0  0  0
  6 20  1  0  0  0  0
  7 10  2  0  0  0  0
  7 19  1  0  0  0  0
  8 24  1  0  0  0  0
  9 24  2  0  0  0  0
 10 25  1  0  0  0  0
 11 12  2  0  0  0  0
 11 26  1  0  0  0  0
 12 27  1  0  0  0  0
 13 21  1  0  0  0  0
 13 25  2  0  0  0  0
 14 22  2  0  0  0  0
 14 30  1  0  0  0  0
 15 27  2  0  0  0  0
 15 28  1  0  0  0  0
 16 29  1  0  0  0  0
 17 29  1  0  0  0  0
 17 32  2  0  0  0  0
 17 33  1  0  0  0  0
 18 20  2  0  0  0  0
 18 38  1  0  0  0  0
 19 21  2  0  0  0  0
 19 39  1  0  0  0  0
 20 47  1  0  0  0  0
 21 40  1  0  0  0  0
 22 23  1  0  0  0  0
 22 50  1  0  0  0  0
 23 31  2  0  0  0  0
 23 57  1  0  0  0  0
 24 84  1  0  0  0  0
 25 85  1  0  0  0  0
 26 28  2  0  0  0  0
 26 84  1  0  0  0  0
 27 86  1  0  0  0  0
 28 87  1  0  0  0  0
 29 68  2  0  0  0  0
 30 58  1  0  0  0  0
 30 69  2  0  0  0  0
 31 51  1  0  0  0  0
 31 69  1  0  0  0  0
 32 70  1  0  0  0  0
 32 73  1  0  0  0  0
 33 74  1  0  0  0  0
 33 79  2  0  0  0  0
 34 48  1  0  0  0  0
 34 75  1  0  0  0  0
 34 80  2  0  0  0  0
 35 65  1  0  0  0  0
 35 71  1  0  0  0  0
 35 81  2  0  0  0  0
 36 66  1  0  0  0  0
 36 76  1  0  0  0  0
 36 82  2  0  0  0  0
 37 72  1  0  0  0  0
 37 77  1  0  0  0  0
 37 83  2  0  0  0  0
 38 41  1  0  0  0  0
 39 48  1  0  0  0  0
 40 71  1  0  0  0  0
 41 43  1  0  0  0  0
 42 44  1  0  0  0  0
 42 45  1  0  0  0  0
 43 47  1  0  0  0  0
 44 49  1  0  0  0  0
 45 72  1  0  0  0  0
 46 49  1  0  0  0  0
 46 72  1  0  0  0  0
 47 75  1  0  0  0  0
 48 71  1  0  0  0  0
 49 70  1  0  0  0  0
 52 66  1  0  0  0  0
 53 67  1  0  0  0  0
 54 67  1  0  0  0  0
 55 67  1  0  0  0  0
 56 78  1  0  0  0  0
 57 59  1  0  0  0  0
 58 60  1  0  0  0  0
 59 63  1  0  0  0  0
 60 61  1  0  0  0  0
 61 62  1  0  0  0  0
 62 64  1  0  0  0  0
 63 77  1  0  0  0  0
 64 85  1  0  0  0  0
 65 67  1  0  0  0  0
 65 76  1  0  0  0  0
 66 78  1  0  0  0  0
 68 70  1  0  0  0  0
M  CHG  1  78   1
M  ISO  4  37 100  64 101  77 100  85 101
M  END
> <Batch ID>
0042

> <Smiles>
CNC(C)C(=O)NC(C(=O)N1Cc2cc([101O:1][101CH2:1]CCCCc3cc(C)c(CCC[100NH:0][100C:0](=O)N4CCCC(n5nc(-c6ccc(Oc7ccc(F)cc7F)cc6)c(C(N)=O)c5N)C4)c(C)n3)ccc2CC1C(=O)NC1CCCc2ccccc21)C(C)(C)C

> <Shape>
0.215

> <Color>
0.111

> <Negative vol penalty>
0.000

$$$$

  -OEChem-04052317123D

 87 95  0     1  0  0  0  0  0999 V2000
  -30.5274  -24.6290   17.2336 C   0  0  0  0  0  0  0  0  0  0  0  0
  -29.2725  -24.5881   17.8329 C   0  0  0  0  0  0  0  0  0  0  0  0
  -28.9373  -16.9085   20.9748 C   0  0  0  0  0  0  0  0  0  0  0  0
  -29.2943  -17.0798   18.5914 C   0  0  0  0  0  0  0  0  0  0  0  0
  -31.5409  -25.4058   17.7933 C   0  0  0  0  0  0  0  0  0  0  0  0
  -29.0309  -25.3232   18.9930 C   0  0  0  0  0  0  0  0  0  0  0  0
  -24.6113  -27.7910   18.8440 C   0  0  0  0  0  0  0  0  0  0  0  0
  -30.0069  -16.0184   21.0710 C   0  0  0  0  0  0  0  0  0  0  0  0
  -30.3640  -16.1897   18.6877 C   0  0  0  0  0  0  0  0  0  0  0  0
  -23.4577  -27.0460   19.0844 C   0  0  0  0  0  0  0  0  0  0  0  0
  -30.8083  -12.8498   18.9674 C   0  0  0  0  0  0  0  0  0  0  0  0
  -30.8879  -11.8276   18.0217 C   0  0  0  0  0  0  0  0  0  0  0  0
  -23.4130  -27.8591   21.3551 C   0  0  0  0  0  0  0  0  0  0  0  0
  -33.0396  -12.6594   17.3037 C   0  0  0  0  0  0  0  0  0  0  0  0
  -20.6140  -22.7749   20.3614 C   0  0  0  0  0  0  0  0  0  0  0  0
  -28.5810  -17.4392   19.7349 C   0  0  0  0  0  0  0  0  0  0  0  0
  -27.5243  -19.7610   19.7427 C   0  0  0  0  0  0  0  0  0  0  0  0
  -31.3088  -26.1583   18.9553 C   0  0  0  0  0  0  0  0  0  0  0  0
  -25.1816  -28.5684   19.8622 C   0  0  0  0  0  0  0  0  0  0  0  0
  -30.0428  -26.1096   19.5695 C   0  0  0  0  0  0  0  0  0  0  0  0
  -24.5725  -28.6151   21.1243 C   0  0  0  0  0  0  0  0  0  0  0  0
  -30.7203  -15.6590   19.9275 C   0  0  0  0  0  0  0  0  0  0  0  0
  -22.8600  -27.0777   20.3409 C   0  0  0  0  0  0  0  0  0  0  0  0
  -31.8443  -13.7769   19.0812 C   0  0  0  0  0  0  0  0  0  0  0  0
  -32.0035  -11.7323   17.1899 C   0  0  0  0  0  0  0  0  0  0  0  0
  -32.9600  -13.6816   18.2494 C   0  0  0  0  0  0  0  0  0  0  0  0
  -27.4758  -18.3582   19.6348 C   0  0  0  0  0  0  0  0  0  0  0  0
  -19.4707  -23.5196   20.4328 C   0  0  0  0  0  0  0  0  0  0  0  0
  -26.2217  -20.1634   19.5756 C   0  0  0  0  0  0  0  0  0  0  0  0
  -18.9766  -21.6031   19.4413 C   0  0  0  0  0  0  0  0  0  0  0  0
  -28.6464  -20.6232   19.9732 C   0  0  0  0  0  0  0  0  0  0  0  0
  -27.9723  -28.5742   21.3839 C   0  0  0  0  0  0  0  0  0  0  0  0
  -26.7968  -31.2870   22.7184 C   0  0  0  0  0  0  0  0  0  0  0  0
  -24.0667  -33.1486   23.5715 C   0  0  0  0  0  0  0  0  0  0  0  0
  -21.4699  -20.0290   17.0531 C   0  0  0  0  0  0  0  0  0  0  0  0
  -32.4493  -26.9458   19.5501 C   0  0  0  0  0  0  0  0  0  0  0  0
  -26.4111  -29.3873   19.5791 C   0  0  0  0  0  0  0  0  0  0  0  0
  -25.1337  -29.4497   22.2454 C   0  0  0  0  0  0  0  0  0  0  0  0
  -32.0020  -27.9899   20.5699 C   0  0  0  0  0  0  0  0  0  0  0  0
  -21.9288  -17.5077   19.4830 C   0  0  0  0  0  0  0  0  0  0  0  0
  -30.9965  -27.3867   21.5456 C   0  0  0  0  0  0  0  0  0  0  0  0
  -23.4304  -17.6107   19.7461 C   0  0  0  0  0  0  0  0  0  0  0  0
  -21.5922  -17.6776   18.0003 C   0  0  0  0  0  0  0  0  0  0  0  0
  -23.6458  -19.0160   17.6627 C   0  0  0  0  0  0  0  0  0  0  0  0
  -29.7346  -26.9125   20.8147 C   0  0  1  0  0  0  0  0  0  0  0  0
  -27.1972  -29.7399   20.8381 C   0  0  1  0  0  0  0  0  0  0  0  0
  -24.0052  -18.9086   19.1527 C   0  0  2  0  0  0  0  0  0  0  0  0
  -23.4211  -35.3030   24.6847 C   0  0  0  0  0  0  0  0  0  0  0  0
  -14.6970  -23.0033   20.5720 C   0  0  0  0  0  0  0  0  0  0  0  0
  -16.6245  -22.9128   22.1665 C   0  0  0  0  0  0  0  0  0  0  0  0
  -27.3849  -30.0513   25.4456 C   0  0  0  0  0  0  0  0  0  0  0  0
  -25.8873  -31.7753   26.4720 C   0  0  0  0  0  0  0  0  0  0  0  0
  -27.9489  -32.4805   25.2575 C   0  0  0  0  0  0  0  0  0  0  0  0
  -19.7721  -18.5925   15.8454 C   0  0  0  0  0  0  0  0  0  0  0  0
  -22.7641  -34.1623   21.1150 C   0  0  0  0  0  0  0  0  0  0  0  0
  -19.2338  -24.8944   21.0051 C   0  0  0  0  0  0  0  0  0  0  0  0
  -18.2412  -20.5046   18.7669 C   0  0  0  0  0  0  0  0  0  0  0  0
  -19.4304  -26.0251   19.9930 C   0  0  0  0  0  0  0  0  0  0  0  0
  -17.9900  -20.7265   17.2591 C   0  0  0  0  0  0  0  0  0  0  0  0
  -17.0875  -23.1749   19.7139 C   0  0  0  0  0  0  0  0  0  0  0  0
  -19.2603  -20.9323   16.4367 C   0  0  0  0  0  0  0  0  0  0  0  0
  -20.8596  -26.1283   19.4731 C   0  0  0  0  0  0  0  0  0  1  0  0
  -25.9739  -31.6064   23.9432 C   0  0  1  0  0  0  0  0  0  0  0  0
  -23.7453  -34.6180   23.3662 C   0  0  2  0  0  0  0  0  0  0  0  0
  -16.1465  -22.5499   20.7592 C   0  0  0  0  0  0  0  0  0  0  0  0
  -26.7890  -31.4610   25.2592 C   0  0  0  0  0  0  0  0  0  0  0  0
  -26.2403  -17.9003   19.4162 N   0  0  0  0  0  0  0  0  0  0  0  0
  -18.4738  -22.7705   19.8558 N   0  0  0  0  0  0  0  0  0  0  0  0
  -25.5003  -19.0217   19.3856 N   0  0  0  0  0  0  0  0  0  0  0  0
  -20.2789  -21.5941   19.7436 N   0  3  0  0  0  0  0  0  0  0  0  0
  -26.3407  -30.2278   21.9211 N   0  0  0  0  0  0  0  0  0  0  0  0
  -22.1990  -18.9029   17.4627 N   0  0  0  0  0  0  0  0  0  0  0  0
  -25.6346  -21.3790   19.5743 N   0  0  0  0  0  0  0  0  0  0  0  0
  -29.9141  -20.0445   20.1223 N   0  0  0  0  0  0  0  0  0  0  0  0
  -28.8834  -28.0381   20.4939 N   0  0  0  0  0  0  0  0  0  0  0  0
  -25.4206  -32.9388   23.7271 N   0  0  0  0  0  0  0  0  0  0  0  0
  -20.1811  -19.8094   16.5441 N   0  0  0  0  0  0  0  0  0  0  0  0
  -22.5742  -34.7700   22.4572 N   0  3  0  0  0  0  0  0  0  0  0  0
  -28.5259  -21.8687   20.0613 O   0  0  0  0  0  0  0  0  0  0  0  0
  -27.7607  -28.1905   22.5284 O   0  0  0  0  0  0  0  0  0  0  0  0
  -27.8030  -31.9575   22.4743 O   0  0  0  0  0  0  0  0  0  0  0  0
  -23.2027  -32.2748   23.5954 O   0  0  0  0  0  0  0  0  0  0  0  0
  -21.9464  -21.1689   17.1300 O   0  0  0  0  0  0  0  0  0  0  0  0
  -31.7642  -14.7907   20.0211 O   0  0  0  0  0  0  0  0  0  0  0  0
  -21.7342  -26.3509   20.5784 O   0  0  0  0  0  0  0  0  0  1  0  0
  -32.0805  -10.7497   16.2829 F   0  0  0  0  0  0  0  0  0  0  0  0
  -33.9590  -14.5686   18.3549 F   0  0  0  0  0  0  0  0  0  0  0  0
  1  2  1  0  0  0  0
  1  5  2  0  0  0  0
  2  6  2  0  0  0  0
  3  8  2  0  0  0  0
  3 16  1  0  0  0  0
  4  9  1  0  0  0  0
  4 16  2  0  0  0  0
  5 18  1  0  0  0  0
  6 20  1  0  0  0  0
  7 10  2  0  0  0  0
  7 19  1  0  0  0  0
  8 22  1  0  0  0  0
  9 22  2  0  0  0  0
 10 23  1  0  0  0  0
 11 12  2  0  0  0  0
 11 24  1  0  0  0  0
 12 25  1  0  0  0  0
 13 21  1  0  0  0  0
 13 23  2  0  0  0  0
 14 25  2  0  0  0  0
 14 26  1  0  0  0  0
 15 28  2  0  0  0  0
 15 70  1  0  0  0  0
 16 27  1  0  0  0  0
 17 27  1  0  0  0  0
 17 29  2  0  0  0  0
 17 31  1  0  0  0  0
 18 20  2  0  0  0  0
 18 36  1  0  0  0  0
 19 21  2  0  0  0  0
 19 37  1  0  0  0  0
 20 45  1  0  0  0  0
 21 38  1  0  0  0  0
 22 84  1  0  0  0  0
 23 85  1  0  0  0  0
 24 26  2  0  0  0  0
 24 84  1  0  0  0  0
 25 86  1  0  0  0  0
 26 87  1  0  0  0  0
 27 67  2  0  0  0  0
 28 56  1  0  0  0  0
 28 68  1  0  0  0  0
 29 69  1  0  0  0  0
 29 73  1  0  0  0  0
 30 57  1  0  0  0  0
 30 68  1  0  0  0  0
 30 70  2  0  0  0  0
 31 74  1  0  0  0  0
 31 79  2  0  0  0  0
 32 46  1  0  0  0  0
 32 75  1  0  0  0  0
 32 80  2  0  0  0  0
 33 63  1  0  0  0  0
 33 71  1  0  0  0  0
 33 81  2  0  0  0  0
 34 64  1  0  0  0  0
 34 76  1  0  0  0  0
 34 82  2  0  0  0  0
 35 72  1  0  0  0  0
 35 77  1  0  0  0  0
 35 83  2  0  0  0  0
 36 39  1  0  0  0  0
 37 46  1  0  0  0  0
 38 71  1  0  0  0  0
 39 41  1  0  0  0  0
 40 42  1  0  0  0  0
 40 43  1  0  0  0  0
 41 45  1  0  0  0  0
 42 47  1  0  0  0  0
 43 72  1  0  0  0  0
 44 47  1  0  0  0  0
 44 72  1  0  0  0  0
 45 75  1  0  0  0  0
 46 71  1  0  0  0  0
 47 69  1  0  0  0  0
 48 64  1  0  0  0  0
 49 65  1  0  0  0  0
 50 65  1  0  0  0  0
 51 66  1  0  0  0  0
 52 66  1  0  0  0  0
 53 66  1  0  0  0  0
 54 77  1  0  0  0  0
 55 78  1  0  0  0  0
 56 58  1  0  0  0  0
 57 59  1  0  0  0  0
 58 62  1  0  0  0  0
 59 61  1  0  0  0  0
 60 65  1  0  0  0  0
 60 68  1  0  0  0  0
 61 77  1  0  0  0  0
 62 85  1  0  0  0  0
 63 66  1  0  0  0  0
 63 76  1  0  0  0  0
 64 78  1  0  0  0  0
 67 69  1  0  0  0  0
M  CHG  2  70   1  78   1
M  ISO  4  35 100  62 101  77 100  85 101
M  END
> <Batch ID>
0042

> <Smiles>
CNC(C)C(=O)NC(C(=O)N1Cc2cc([101O:1][101CH2:1]CCc3cnc(CCC[100N:0](C)[100C:0](=O)N4CCCC(n5nc(-c6ccc(Oc7ccc(F)cc7F)cc6)c(C(N)=O)c5N)C4)n3CC(C)C)ccc2CC1C(=O)NC1CCCc2ccccc21)C(C)(C)C

> <Shape>
0.237

> <Color>
0.065

> <Negative vol penalty>
0.000

$$$$

  -OEChem-04052317123D

 83 91  0     1  0  0  0  0  0999 V2000
  -20.5179  -27.9120   14.6154 C   0  0  0  0  0  0  0  0  0  0  0  0
  -20.6384  -28.1589   15.9792 C   0  0  0  0  0  0  0  0  0  0  0  0
  -23.7747  -13.9664   19.1178 C   0  0  0  0  0  0  0  0  0  0  0  0
  -24.9139  -14.7123   21.1136 C   0  0  0  0  0  0  0  0  0  0  0  0
  -21.2747  -26.9028   14.0214 C   0  0  0  0  0  0  0  0  0  0  0  0
  -21.5148  -27.3960   16.7500 C   0  0  0  0  0  0  0  0  0  0  0  0
  -24.2735  -30.2195   19.9221 C   0  0  0  0  0  0  0  0  0  0  0  0
  -24.7215  -12.9551   18.9553 C   0  0  0  0  0  0  0  0  0  0  0  0
  -25.8607  -13.7009   20.9511 C   0  0  0  0  0  0  0  0  0  0  0  0
  -23.6484  -30.6644   21.0862 C   0  0  0  0  0  0  0  0  0  0  0  0
  -28.7822  -11.5407   20.8628 C   0  0  0  0  0  0  0  0  0  0  0  0
  -30.1256  -11.8775   21.0290 C   0  0  0  0  0  0  0  0  0  0  0  0
  -24.7121  -28.8908   22.3280 C   0  0  0  0  0  0  0  0  0  0  0  0
  -29.9488  -13.4736   19.2240 C   0  0  0  0  0  0  0  0  0  0  0  0
  -18.7042  -27.3663   21.9095 C   0  0  0  0  0  0  0  0  0  0  0  0
  -23.8709  -14.8450   20.1969 C   0  0  0  0  0  0  0  0  0  0  0  0
  -21.6847  -15.8163   21.0829 C   0  0  0  0  0  0  0  0  0  0  0  0
  -22.1680  -26.1335   14.7835 C   0  0  0  0  0  0  0  0  0  0  0  0
  -25.1154  -29.0985   19.9502 C   0  0  0  0  0  0  0  0  0  0  0  0
  -22.2832  -26.3747   16.1659 C   0  0  0  0  0  0  0  0  0  0  0  0
  -25.3487  -28.4352   21.1634 C   0  0  0  0  0  0  0  0  0  0  0  0
  -25.7645  -12.8223   19.8720 C   0  0  0  0  0  0  0  0  0  0  0  0
  -23.8654  -29.9983   22.2889 C   0  0  0  0  0  0  0  0  0  0  0  0
  -28.0222  -12.1704   19.8771 C   0  0  0  0  0  0  0  0  0  0  0  0
  -30.7088  -12.8439   20.2097 C   0  0  0  0  0  0  0  0  0  0  0  0
  -28.6054  -13.1368   19.0577 C   0  0  0  0  0  0  0  0  0  0  0  0
  -22.8935  -15.8902   20.3650 C   0  0  0  0  0  0  0  0  0  0  0  0
  -20.0701  -27.2076   21.9915 C   0  0  0  0  0  0  0  0  0  0  0  0
  -18.7617  -28.7874   23.7002 C   0  0  0  0  0  0  0  0  0  0  0  0
  -20.1275  -28.6282   23.7828 C   0  0  0  0  0  0  0  0  0  0  0  0
  -21.1232  -17.0615   20.9390 C   0  0  0  0  0  0  0  0  0  0  0  0
  -21.1200  -14.7201   21.8144 C   0  0  0  0  0  0  0  0  0  0  0  0
  -25.0834  -26.2341   18.5725 C   0  0  0  0  0  0  0  0  0  0  0  0
  -21.6534  -22.5364   21.0883 C   0  0  0  0  0  0  0  0  0  0  0  0
  -28.0090  -25.9704   19.9487 C   0  0  0  0  0  0  0  0  0  0  0  0
  -30.1532  -26.9654   22.4102 C   0  0  0  0  0  0  0  0  0  0  0  0
  -22.9298  -25.0222   14.1059 C   0  0  0  0  0  0  0  0  0  0  0  0
  -25.8033  -28.6473   18.6909 C   0  0  0  0  0  0  0  0  0  0  0  0
  -26.2596  -27.2389   21.2508 C   0  0  0  0  0  0  0  0  0  0  0  0
  -24.1122  -24.5079   14.9230 C   0  0  0  0  0  0  0  0  0  0  0  0
  -22.3577  -20.9111   17.9120 C   0  0  0  0  0  0  0  0  0  0  0  0
  -23.6990  -24.2775   16.3732 C   0  0  0  0  0  0  0  0  0  0  0  0
  -22.4899  -19.4499   18.3390 C   0  0  0  0  0  0  0  0  0  0  0  0
  -22.8995  -21.8589   18.9789 C   0  0  0  0  0  0  0  0  0  0  0  0
  -22.4130  -20.2055   20.7548 C   0  0  0  0  0  0  0  0  0  0  0  0
  -23.2415  -25.5850   17.0309 C   0  0  1  0  0  0  0  0  0  0  0  0
  -26.2352  -27.1849   18.7371 C   0  0  1  0  0  0  0  0  0  0  0  0
  -21.8498  -19.2181   19.7190 C   0  0  2  0  0  0  0  0  0  0  0  0
  -18.0229  -29.6672   24.6500 C   0  0  0  0  0  0  0  0  0  0  0  0
  -32.4610  -26.5443   23.3013 C   0  0  0  0  0  0  0  0  0  0  0  0
  -27.0465  -23.3597   21.2008 C   0  0  0  0  0  0  0  0  0  0  0  0
  -28.9817  -23.4867   22.7842 C   0  0  0  0  0  0  0  0  0  0  0  0
  -29.3903  -23.2974   20.3306 C   0  0  0  0  0  0  0  0  0  0  0  0
  -30.9794  -29.7645   21.9190 C   0  0  0  0  0  0  0  0  0  0  0  0
  -20.7868  -26.3243   21.0314 C   0  0  0  0  0  0  0  0  0  0  0  0
  -20.9391  -29.3364   24.8379 C   0  0  0  0  0  0  0  0  0  0  0  0
  -21.6035  -23.9471   20.5580 C   0  0  0  0  0  0  0  0  0  0  0  0
  -20.8873  -24.8732   21.5360 C   0  0  0  0  0  0  0  0  0  0  0  0
  -21.1695  -30.8205   24.5447 C   0  0  0  0  0  0  0  0  0  0  0  0
  -21.9871  -31.0667   23.2820 C   0  0  0  0  0  0  0  0  0  1  0  0
  -28.5242  -25.4754   21.2785 C   0  0  1  0  0  0  0  0  0  0  0  0
  -31.6101  -27.3895   22.3662 C   0  0  2  0  0  0  0  0  0  0  0  0
  -28.4669  -23.9261   21.3969 C   0  0  0  0  0  0  0  0  0  0  0  0
  -18.0255  -28.1591   22.7623 N   0  0  0  0  0  0  0  0  0  0  0  0
  -23.0891  -17.0876   19.8065 N   0  0  0  0  0  0  0  0  0  0  0  0
  -20.8062  -27.8357   22.9297 N   0  0  0  0  0  0  0  0  0  0  0  0
  -21.9957  -17.7776   20.1733 N   0  0  0  0  0  0  0  0  0  0  0  0
  -26.9041  -26.8324   19.9911 N   0  0  0  0  0  0  0  0  0  0  0  0
  -22.2853  -21.5877   20.2841 N   0  0  0  0  0  0  0  0  0  0  0  0
  -19.9733  -17.6028   21.3939 N   0  0  0  0  0  0  0  0  0  0  0  0
  -21.8287  -13.5119   21.8605 N   0  0  0  0  0  0  0  0  0  0  0  0
  -24.3844  -26.3962   17.3916 N   0  0  0  0  0  0  0  0  0  0  0  0
  -29.8616  -26.0374   21.4330 N   0  0  0  0  0  0  0  0  0  0  0  0
  -31.7463  -28.8178   22.7691 N   0  3  0  0  0  0  0  0  0  0  0  0
  -20.0116  -14.8043   22.3958 O   0  0  0  0  0  0  0  0  0  0  0  0
  -24.8474  -25.4131   19.4512 O   0  0  0  0  0  0  0  0  0  0  0  0
  -21.1431  -22.2866   22.1835 O   0  0  0  0  0  0  0  0  0  0  0  0
  -28.5708  -25.6112   18.9109 O   0  0  0  0  0  0  0  0  0  0  0  0
  -29.3546  -27.4100   23.2319 O   0  0  0  0  0  0  0  0  0  0  0  0
  -26.6884  -11.8355   19.7138 O   0  0  0  0  0  0  0  0  0  0  0  0
  -23.2560  -30.4300   23.4265 O   0  0  0  0  0  0  0  0  0  1  0  0
  -31.9985  -13.1683   20.3704 F   0  0  0  0  0  0  0  0  0  0  0  0
  -27.8800  -13.7460   18.1099 F   0  0  0  0  0  0  0  0  0  0  0  0
  1  2  1  0  0  0  0
  1  5  2  0  0  0  0
  2  6  2  0  0  0  0
  3  8  2  0  0  0  0
  3 16  1  0  0  0  0
  4  9  1  0  0  0  0
  4 16  2  0  0  0  0
  5 18  1  0  0  0  0
  6 20  1  0  0  0  0
  7 10  2  0  0  0  0
  7 19  1  0  0  0  0
  8 22  1  0  0  0  0
  9 22  2  0  0  0  0
 10 23  1  0  0  0  0
 11 12  2  0  0  0  0
 11 24  1  0  0  0  0
 12 25  1  0  0  0  0
 13 21  1  0  0  0  0
 13 23  2  0  0  0  0
 14 25  2  0  0  0  0
 14 26  1  0  0  0  0
 15 28  1  0  0  0  0
 15 64  2  0  0  0  0
 16 27  1  0  0  0  0
 17 27  1  0  0  0  0
 17 31  2  0  0  0  0
 17 32  1  0  0  0  0
 18 20  2  0  0  0  0
 18 37  1  0  0  0  0
 19 21  2  0  0  0  0
 19 38  1  0  0  0  0
 20 46  1  0  0  0  0
 21 39  1  0  0  0  0
 22 80  1  0  0  0  0
 23 81  1  0  0  0  0
 24 26  2  0  0  0  0
 24 80  1  0  0  0  0
 25 82  1  0  0  0  0
 26 83  1  0  0  0  0
 27 65  2  0  0  0  0
 28 55  1  0  0  0  0
 28 66  2  0  0  0  0
 29 30  2  0  0  0  0
 29 49  1  0  0  0  0
 29 64  1  0  0  0  0
 30 56  1  0  0  0  0
 30 66  1  0  0  0  0
 31 67  1  0  0  0  0
 31 70  1  0  0  0  0
 32 71  1  0  0  0  0
 32 75  2  0  0  0  0
 33 47  1  0  0  0  0
 33 72  1  0  0  0  0
 33 76  2  0  0  0  0
 34 57  1  0  0  0  0
 34 69  1  0  0  0  0
 34 77  2  0  0  0  0
 35 61  1  0  0  0  0
 35 68  1  0  0  0  0
 35 78  2  0  0  0  0
 36 62  1  0  0  0  0
 36 73  1  0  0  0  0
 36 79  2  0  0  0  0
 37 40  1  0  0  0  0
 38 47  1  0  0  0  0
 39 68  1  0  0  0  0
 40 42  1  0  0  0  0
 41 43  1  0  0  0  0
 41 44  1  0  0  0  0
 42 46  1  0  0  0  0
 43 48  1  0  0  0  0
 44 69  1  0  0  0  0
 45 48  1  0  0  0  0
 45 69  1  0  0  0  0
 46 72  1  0  0  0  0
 47 68  1  0  0  0  0
 48 67  1  0  0  0  0
 50 62  1  0  0  0  0
 51 63  1  0  0  0  0
 52 63  1  0  0  0  0
 53 63  1  0  0  0  0
 54 74  1  0  0  0  0
 55 58  1  0  0  0  0
 56 59  1  0  0  0  0
 57 58  1  0  0  0  0
 59 60  1  0  0  0  0
 60 81  1  0  0  0  0
 61 63  1  0  0  0  0
 61 73  1  0  0  0  0
 62 74  1  0  0  0  0
 65 67  1  0  0  0  0
M  CHG  1  74   1
M  ISO  4  34 100  57 100  60 101  81 101
M  END
> <Batch ID>
0042

> <Smiles>
CNC(C)C(=O)NC(C(=O)N1Cc2cc([101O:1][101CH2:1]CCc3nc(CC[100CH2:0][100C:0](=O)N4CCCC(n5nc(-c6ccc(Oc7ccc(F)cc7F)cc6)c(C(N)=O)c5N)C4)cnc3C)ccc2CC1C(=O)NC1CCCc2ccccc21)C(C)(C)C

> <Shape>
0.216

> <Color>
0.083

> <Negative vol penalty>
0.000

$$$$

  -OEChem-04052317123D

 83 91  0     1  0  0  0  0  0999 V2000
  -27.0979  -34.6995   22.3303 C   0  0  0  0  0  0  0  0  0  0  0  0
  -27.5381  -33.3870   22.1920 C   0  0  0  0  0  0  0  0  0  0  0  0
  -22.9437  -10.1322   20.0531 C   0  0  0  0  0  0  0  0  0  0  0  0
  -24.1274   -9.4315   22.0393 C   0  0  0  0  0  0  0  0  0  0  0  0
  -25.8012  -34.9555   22.7738 C   0  0  0  0  0  0  0  0  0  0  0  0
  -26.6820  -32.3298   22.4983 C   0  0  0  0  0  0  0  0  0  0  0  0
  -26.4171  -26.8818   19.7135 C   0  0  0  0  0  0  0  0  0  0  0  0
  -22.1910   -8.9584   20.0875 C   0  0  0  0  0  0  0  0  0  0  0  0
  -23.3747   -8.2577   22.0738 C   0  0  0  0  0  0  0  0  0  0  0  0
  -26.9525  -25.6359   20.0372 C   0  0  0  0  0  0  0  0  0  0  0  0
  -20.2781   -7.3140   23.0441 C   0  0  0  0  0  0  0  0  0  0  0  0
  -19.7583   -6.9152   24.2754 C   0  0  0  0  0  0  0  0  0  0  0  0
  -24.8606  -25.0099   21.0624 C   0  0  0  0  0  0  0  0  0  0  0  0
  -20.9944   -4.8447   24.1268 C   0  0  0  0  0  0  0  0  0  0  0  0
  -28.9998  -20.3800   22.6956 C   0  0  0  0  0  0  0  0  0  0  0  0
  -23.9120  -10.3688   21.0289 C   0  0  0  0  0  0  0  0  0  0  0  0
  -24.3813  -12.8078   21.6108 C   0  0  0  0  0  0  0  0  0  0  0  0
  -24.9256  -33.9008   23.0764 C   0  0  0  0  0  0  0  0  0  0  0  0
  -25.1007  -27.2057   20.0721 C   0  0  0  0  0  0  0  0  0  0  0  0
  -25.3728  -32.5720   22.9476 C   0  0  0  0  0  0  0  0  0  0  0  0
  -24.3100  -26.2597   20.7398 C   0  0  0  0  0  0  0  0  0  0  0  0
  -29.0977  -19.3469   21.7860 C   0  0  0  0  0  0  0  0  0  0  0  0
  -22.4065   -8.0212   21.0979 C   0  0  0  0  0  0  0  0  0  0  0  0
  -26.1752  -24.7008   20.7143 C   0  0  0  0  0  0  0  0  0  0  0  0
  -21.1561   -6.4781   22.3540 C   0  0  0  0  0  0  0  0  0  0  0  0
  -20.1164   -5.6806   24.8168 C   0  0  0  0  0  0  0  0  0  0  0  0
  -21.5142   -5.2435   22.8953 C   0  0  0  0  0  0  0  0  0  0  0  0
  -24.6902  -11.5809   20.9936 C   0  0  0  0  0  0  0  0  0  0  0  0
  -28.8255  -19.6784   20.4745 C   0  0  0  0  0  0  0  0  0  0  0  0
  -25.4283  -13.6324   21.2788 C   0  0  0  0  0  0  0  0  0  0  0  0
  -28.4218  -21.8397   21.0517 C   0  0  0  0  0  0  0  0  0  0  0  0
  -23.2491  -13.1697   22.4126 C   0  0  0  0  0  0  0  0  0  0  0  0
  -23.7595  -29.4066   21.9325 C   0  0  0  0  0  0  0  0  0  0  0  0
  -21.0060  -28.1864   20.7276 C   0  0  0  0  0  0  0  0  0  0  0  0
  -19.3898  -25.5414   19.2997 C   0  0  0  0  0  0  0  0  0  0  0  0
  -30.8994  -14.5420   20.6582 C   0  0  0  0  0  0  0  0  0  0  0  0
  -23.5485  -34.2274   23.5976 C   0  0  0  0  0  0  0  0  0  0  0  0
  -24.5292  -28.5441   19.6920 C   0  0  0  0  0  0  0  0  0  0  0  0
  -22.8845  -26.5507   21.1294 C   0  0  0  0  0  0  0  0  0  0  0  0
  -22.5810  -33.0478   23.5431 C   0  0  0  0  0  0  0  0  0  0  0  0
  -29.1796  -13.0100   17.9431 C   0  0  0  0  0  0  0  0  0  0  0  0
  -23.2448  -31.7874   24.0886 C   0  0  0  0  0  0  0  0  0  0  0  0
  -27.8361  -12.5975   18.5472 C   0  0  0  0  0  0  0  0  0  0  0  0
  -30.3216  -12.8495   18.9442 C   0  0  0  0  0  0  0  0  0  0  0  0
  -28.7697  -13.1180   20.8398 C   0  0  0  0  0  0  0  0  0  0  0  0
  -24.4656  -31.3981   23.2463 C   0  0  1  0  0  0  0  0  0  0  0  0
  -23.3445  -28.9564   20.5603 C   0  0  1  0  0  0  0  0  0  0  0  0
  -27.5792  -13.3153   19.8858 C   0  0  2  0  0  0  0  0  0  0  0  0
  -27.5201  -18.1554   18.9701 C   0  0  0  0  0  0  0  0  0  0  0  0
  -17.1333  -24.8300   18.4633 C   0  0  0  0  0  0  0  0  0  0  0  0
  -20.0620  -27.8074   23.6042 C   0  0  0  0  0  0  0  0  0  0  0  0
  -18.2855  -26.2668   22.7447 C   0  0  0  0  0  0  0  0  0  0  0  0
  -18.3104  -28.6581   22.0350 C   0  0  0  0  0  0  0  0  0  0  0  0
  -20.4075  -25.1384   16.5499 C   0  0  0  0  0  0  0  0  0  0  0  0
  -29.4731  -17.9762   22.2168 C   0  0  0  0  0  0  0  0  0  0  0  0
  -28.9003  -18.6413   19.4029 C   0  0  0  0  0  0  0  0  0  0  0  0
  -28.0448  -23.2327   20.6411 C   0  0  0  0  0  0  0  0  0  1  0  0
  -30.9482  -17.6004   21.9573 C   0  0  0  0  0  0  0  0  0  0  0  0
  -31.3347  -16.2064   22.4469 C   0  0  0  0  0  0  0  0  0  0  0  0
  -20.0628  -27.0776   21.1276 C   0  0  1  0  0  0  0  0  0  0  0  0
  -18.4704  -25.4539   18.0949 C   0  0  2  0  0  0  0  0  0  0  0  0
  -19.2076  -27.4474   22.3724 C   0  0  0  0  0  0  0  0  0  0  0  0
  -28.6631  -21.6432   22.3619 N   0  0  0  0  0  0  0  0  0  0  0  0
  -25.8432  -11.6183   20.3203 N   0  0  0  0  0  0  0  0  0  0  0  0
  -28.4830  -20.9194   20.0705 N   0  0  0  0  0  0  0  0  0  0  0  0
  -26.2679  -12.8788   20.5124 N   0  0  0  0  0  0  0  0  0  0  0  0
  -22.3732  -27.8756   20.7411 N   0  0  0  0  0  0  0  0  0  0  0  0
  -30.0160  -13.5549   20.1912 N   0  0  0  0  0  0  0  0  0  0  0  0
  -25.7034  -14.9215   21.5704 N   0  0  0  0  0  0  0  0  0  0  0  0
  -22.2658  -12.2012   22.6560 N   0  0  0  0  0  0  0  0  0  0  0  0
  -24.0484  -30.7551   22.0187 N   0  0  0  0  0  0  0  0  0  0  0  0
  -19.2803  -26.7585   19.9384 N   0  0  0  0  0  0  0  0  0  0  0  0
  -30.5316  -15.1662   21.8439 N   0  0  0  0  0  0  0  0  0  0  0  0
  -19.0961  -24.6267   17.0248 N   0  3  0  0  0  0  0  0  0  0  0  0
  -23.1054  -14.3228   22.8852 O   0  0  0  0  0  0  0  0  0  0  0  0
  -23.8121  -28.5912   22.8457 O   0  0  0  0  0  0  0  0  0  0  0  0
  -20.5463  -29.2855   20.4077 O   0  0  0  0  0  0  0  0  0  0  0  0
  -20.1284  -24.6207   19.6421 O   0  0  0  0  0  0  0  0  0  0  0  0
  -31.9362  -14.8485   20.0599 O   0  0  0  0  0  0  0  0  0  0  0  0
  -21.6720   -6.8758   21.1319 O   0  0  0  0  0  0  0  0  0  0  0  0
  -26.6956  -23.4842   21.0320 O   0  0  0  0  0  0  0  0  0  1  0  0
  -19.6183   -5.2985   26.0000 F   0  0  0  0  0  0  0  0  0  0  0  0
  -22.3582   -4.4367   22.2376 F   0  0  0  0  0  0  0  0  0  0  0  0
  1  2  1  0  0  0  0
  1  5  2  0  0  0  0
  2  6  2  0  0  0  0
  3  8  2  0  0  0  0
  3 16  1  0  0  0  0
  4  9  1  0  0  0  0
  4 16  2  0  0  0  0
  5 18  1  0  0  0  0
  6 20  1  0  0  0  0
  7 10  2  0  0  0  0
  7 19  1  0  0  0  0
  8 23  1  0  0  0  0
  9 23  2  0  0  0  0
 10 24  1  0  0  0  0
 11 12  2  0  0  0  0
 11 25  1  0  0  0  0
 12 26  1  0  0  0  0
 13 21  1  0  0  0  0
 13 24  2  0  0  0  0
 14 26  2  0  0  0  0
 14 27  1  0  0  0  0
 15 22  1  0  0  0  0
 15 63  2  0  0  0  0
 16 28  1  0  0  0  0
 17 28  1  0  0  0  0
 17 30  2  0  0  0  0
 17 32  1  0  0  0  0
 18 20  2  0  0  0  0
 18 37  1  0  0  0  0
 19 21  2  0  0  0  0
 19 38  1  0  0  0  0
 20 46  1  0  0  0  0
 21 39  1  0  0  0  0
 22 29  2  0  0  0  0
 22 55  1  0  0  0  0
 23 80  1  0  0  0  0
 24 81  1  0  0  0  0
 25 27  2  0  0  0  0
 25 80  1  0  0  0  0
 26 82  1  0  0  0  0
 27 83  1  0  0  0  0
 28 64  2  0  0  0  0
 29 56  1  0  0  0  0
 29 65  1  0  0  0  0
 30 66  1  0  0  0  0
 30 69  1  0  0  0  0
 31 57  1  0  0  0  0
 31 63  1  0  0  0  0
 31 65  2  0  0  0  0
 32 70  1  0  0  0  0
 32 75  2  0  0  0  0
 33 47  1  0  0  0  0
 33 71  1  0  0  0  0
 33 76  2  0  0  0  0
 34 60  1  0  0  0  0
 34 67  1  0  0  0  0
 34 77  2  0  0  0  0
 35 61  1  0  0  0  0
 35 72  1  0  0  0  0
 35 78  2  0  0  0  0
 36 68  1  0  0  0  0
 36 73  1  0  0  0  0
 36 79  2  0  0  0  0
 37 40  1  0  0  0  0
 38 47  1  0  0  0  0
 39 67  1  0  0  0  0
 40 42  1  0  0  0  0
 41 43  1  0  0  0  0
 41 44  1  0  0  0  0
 42 46  1  0  0  0  0
 43 48  1  0  0  0  0
 44 68  1  0  0  0  0
 45 48  1  0  0  0  0
 45 68  1  0  0  0  0
 46 71  1  0  0  0  0
 47 67  1  0  0  0  0
 48 66  1  0  0  0  0
 49 56  1  0  0  0  0
 50 61  1  0  0  0  0
 51 62  1  0  0  0  0
 52 62  1  0  0  0  0
 53 62  1  0  0  0  0
 54 74  1  0  0  0  0
 55 58  1  0  0  0  0
 57 81  1  0  0  0  0
 58 59  1  0  0  0  0
 59 73  1  0  0  0  0
 60 62  1  0  0  0  0
 60 72  1  0  0  0  0
 61 74  1  0  0  0  0
 64 66  1  0  0  0  0
M  CHG  1  74   1
M  ISO  4  36 100  57 101  73 100  81 101
M  END
> <Batch ID>
0042

> <Smiles>
CCc1nc([101CH2:1][101O:1]c2ccc3c(c2)CN(C(=O)C(NC(=O)C(C)NC)C(C)(C)C)C(C(=O)NC2CCCc4ccccc42)C3)ncc1CCC[100NH:0][100C:0](=O)N1CCCC(n2nc(-c3ccc(Oc4ccc(F)cc4F)cc3)c(C(N)=O)c2N)C1

> <Shape>
0.375

> <Color>
0.154

> <Negative vol penalty>
0.000

$$$$

  -OEChem-04052317122D

  0  0  0     0  0  0  0  0  0999 V2000
M  END
$$$$

  -OEChem-04052317123D

 81 89  0     1  0  0  0  0  0999 V2000
  -17.8991  -26.4069   19.9944 C   0  0  0  0  0  0  0  0  0  0  0  0
  -19.0408  -26.9565   19.4202 C   0  0  0  0  0  0  0  0  0  0  0  0
  -25.3986  -15.8328   21.7962 C   0  0  0  0  0  0  0  0  0  0  0  0
  -25.0845  -16.3663   19.4609 C   0  0  0  0  0  0  0  0  0  0  0  0
  -17.6402  -26.6001   21.3507 C   0  0  0  0  0  0  0  0  0  0  0  0
  -19.9239  -27.7007   20.2018 C   0  0  0  0  0  0  0  0  0  0  0  0
  -24.7668  -26.4919   19.3474 C   0  0  0  0  0  0  0  0  0  0  0  0
  -24.2009  -15.1181   21.7941 C   0  0  0  0  0  0  0  0  0  0  0  0
  -23.8867  -15.6515   19.4587 C   0  0  0  0  0  0  0  0  0  0  0  0
  -25.3591  -27.0108   18.1969 C   0  0  0  0  0  0  0  0  0  0  0  0
  -23.1150  -12.0798   20.7826 C   0  0  0  0  0  0  0  0  0  0  0  0
  -23.1053  -10.8292   21.4002 C   0  0  0  0  0  0  0  0  0  0  0  0
  -26.4079  -28.7330   19.5210 C   0  0  0  0  0  0  0  0  0  0  0  0
  -31.4801  -25.5466   18.4951 C   0  0  0  0  0  0  0  0  0  0  0  0
  -31.3028  -26.9167   16.5132 C   0  0  0  0  0  0  0  0  0  0  0  0
  -29.3091  -26.2551   17.7067 C   0  0  0  0  0  0  0  0  0  0  0  0
  -21.3976  -11.5964   22.9273 C   0  0  0  0  0  0  0  0  0  0  0  0
  -25.8404  -16.4570   20.6296 C   0  0  0  0  0  0  0  0  0  0  0  0
  -28.3637  -16.7010   20.3450 C   0  0  0  0  0  0  0  0  0  0  0  0
  -18.5254  -27.3389   22.1514 C   0  0  0  0  0  0  0  0  0  0  0  0
  -24.9821  -27.0972   20.5938 C   0  0  0  0  0  0  0  0  0  0  0  0
  -19.6759  -27.9052   21.5698 C   0  0  0  0  0  0  0  0  0  0  0  0
  -25.8191  -28.2183   20.6861 C   0  0  0  0  0  0  0  0  0  0  0  0
  -32.0856  -26.2238   17.4366 C   0  0  0  0  0  0  0  0  0  0  0  0
  -30.0918  -25.5622   18.6301 C   0  0  0  0  0  0  0  0  0  0  0  0
  -29.9145  -26.9324   16.6482 C   0  0  0  0  0  0  0  0  0  0  0  0
  -23.4449  -15.0273   20.6254 C   0  0  0  0  0  0  0  0  0  0  0  0
  -26.1775  -28.1332   18.2831 C   0  0  0  0  0  0  0  0  0  0  0  0
  -22.2660  -13.0888   21.2375 C   0  0  0  0  0  0  0  0  0  0  0  0
  -22.2466  -10.5874   22.4725 C   0  0  0  0  0  0  0  0  0  0  0  0
  -21.4073  -12.8471   22.3098 C   0  0  0  0  0  0  0  0  0  0  0  0
  -27.0773  -17.1960   20.6313 C   0  0  0  0  0  0  0  0  0  0  0  0
  -29.1891  -17.7903   20.4819 C   0  0  0  0  0  0  0  0  0  0  0  0
  -28.7757  -15.3752   19.9872 C   0  0  0  0  0  0  0  0  0  0  0  0
  -23.1239  -28.5034   22.7556 C   0  0  0  0  0  0  0  0  0  0  0  0
  -29.1119  -23.4142   19.3948 C   0  0  0  0  0  0  0  0  0  0  0  0
  -25.8615  -28.5704   24.4944 C   0  0  0  0  0  0  0  0  0  0  0  0
  -29.2739  -28.5412   24.5278 C   0  0  0  0  0  0  0  0  0  0  0  0
  -18.1790  -27.5608   23.6024 C   0  0  0  0  0  0  0  0  0  0  0  0
  -24.3573  -26.5093   21.8293 C   0  0  0  0  0  0  0  0  0  0  0  0
  -26.0986  -28.8931   22.0034 C   0  0  0  0  0  0  0  0  0  0  0  0
  -19.3574  -28.0464   24.4426 C   0  0  0  0  0  0  0  0  0  0  0  0
  -28.8797  -22.1404   22.7933 C   0  0  0  0  0  0  0  0  0  0  0  0
  -20.0932  -29.1754   23.7280 C   0  0  0  0  0  0  0  0  0  0  0  0
  -28.4827  -20.6853   22.5479 C   0  0  0  0  0  0  0  0  0  0  0  0
  -28.2518  -23.0750   21.7626 C   0  0  0  0  0  0  0  0  0  0  0  0
  -28.1545  -21.2446   20.1000 C   0  0  0  0  0  0  0  0  0  0  0  0
  -20.6704  -28.6977   22.3901 C   0  0  1  0  0  0  0  0  0  0  0  0
  -24.2330  -27.5130   22.9715 C   0  0  1  0  0  0  0  0  0  0  0  0
  -28.7918  -20.2656   21.1002 C   0  0  2  0  0  0  0  0  0  0  0  0
  -33.5700  -26.2070   17.2930 C   0  0  0  0  0  0  0  0  0  0  0  0
  -31.2295  -28.6457   26.0969 C   0  0  0  0  0  0  0  0  0  0  0  0
  -25.4209  -31.5698   24.8400 C   0  0  0  0  0  0  0  0  0  0  0  0
  -27.8107  -31.7673   25.5597 C   0  0  0  0  0  0  0  0  0  0  0  0
  -26.2176  -30.3888   26.8954 C   0  0  0  0  0  0  0  0  0  0  0  0
  -30.2404  -25.8737   23.6857 C   0  0  0  0  0  0  0  0  0  0  0  0
  -29.4439  -24.8386   19.7620 C   0  0  0  0  0  0  0  0  0  0  0  0
  -29.0687  -27.6815   15.6497 C   0  0  0  0  0  0  0  0  0  0  0  0
  -28.8130  -29.1412   16.0313 C   0  0  0  0  0  0  0  0  0  0  0  0
  -28.0142  -29.2973   17.3201 C   0  0  0  0  0  0  0  0  0  1  0  0
  -27.0070  -29.5416   24.6479 C   0  0  1  0  0  0  0  0  0  0  0  0
  -30.2664  -27.7375   25.3484 C   0  0  2  0  0  0  0  0  0  0  0  0
  -26.6074  -30.8056   25.4605 C   0  0  0  0  0  0  0  0  0  0  0  0
  -27.0802  -18.4983   20.9279 N   0  0  0  0  0  0  0  0  0  0  0  0
  -28.3785  -18.8309   20.8288 N   0  0  0  0  0  0  0  0  0  0  0  0
  -25.4596  -28.2846   23.1819 N   0  0  0  0  0  0  0  0  0  0  0  0
  -28.5462  -22.6254   20.3968 N   0  0  0  0  0  0  0  0  0  0  0  0
  -30.5219  -17.9499   20.3384 N   0  0  0  0  0  0  0  0  0  0  0  0
  -27.7986  -14.3750   19.8909 N   0  0  0  0  0  0  0  0  0  0  0  0
  -21.8766  -27.9277   22.6061 N   0  0  0  0  0  0  0  0  0  0  0  0
  -28.1104  -28.7831   25.2270 N   0  0  0  0  0  0  0  0  0  0  0  0
  -31.0600  -26.8371   24.4649 N   0  3  0  0  0  0  0  0  0  0  0  0
  -29.9770  -15.0823   19.7756 O   0  0  0  0  0  0  0  0  0  0  0  0
  -23.3805  -29.7014   22.7282 O   0  0  0  0  0  0  0  0  0  0  0  0
  -29.3513  -23.0158   18.2519 O   0  0  0  0  0  0  0  0  0  0  0  0
  -25.3471  -28.0779   25.5016 O   0  0  0  0  0  0  0  0  0  0  0  0
  -29.5089  -28.9201   23.3824 O   0  0  0  0  0  0  0  0  0  0  0  0
  -22.2762  -14.3297   20.6229 O   0  0  0  0  0  0  0  0  0  0  0  0
  -26.7564  -28.6422   17.1617 O   0  0  0  0  0  0  0  0  0  1  0  0
  -22.2364   -9.3859   23.0644 F   0  0  0  0  0  0  0  0  0  0  0  0
  -20.5886  -13.8121   22.7505 F   0  0  0  0  0  0  0  0  0  0  0  0
  1  2  1  0  0  0  0
  1  5  2  0  0  0  0
  2  6  2  0  0  0  0
  3  8  2  0  0  0  0
  3 18  1  0  0  0  0
  4  9  1  0  0  0  0
  4 18  2  0  0  0  0
  5 20  1  0  0  0  0
  6 22  1  0  0  0  0
  7 10  2  0  0  0  0
  7 21  1  0  0  0  0
  8 27  1  0  0  0  0
  9 27  2  0  0  0  0
 10 28  1  0  0  0  0
 11 12  2  0  0  0  0
 11 29  1  0  0  0  0
 12 30  1  0  0  0  0
 13 23  1  0  0  0  0
 13 28  2  0  0  0  0
 14 24  1  0  0  0  0
 14 25  2  0  0  0  0
 15 24  2  0  0  0  0
 15 26  1  0  0  0  0
 16 25  1  0  0  0  0
 16 26  2  0  0  0  0
 17 30  2  0  0  0  0
 17 31  1  0  0  0  0
 18 32  1  0  0  0  0
 19 32  1  0  0  0  0
 19 33  2  0  0  0  0
 19 34  1  0  0  0  0
 20 22  2  0  0  0  0
 20 39  1  0  0  0  0
 21 23  2  0  0  0  0
 21 40  1  0  0  0  0
 22 48  1  0  0  0  0
 23 41  1  0  0  0  0
 24 51  1  0  0  0  0
 25 57  1  0  0  0  0
 26 58  1  0  0  0  0
 27 78  1  0  0  0  0
 28 79  1  0  0  0  0
 29 31  2  0  0  0  0
 29 78  1  0  0  0  0
 30 80  1  0  0  0  0
 31 81  1  0  0  0  0
 32 64  2  0  0  0  0
 33 65  1  0  0  0  0
 33 68  1  0  0  0  0
 34 69  1  0  0  0  0
 34 73  2  0  0  0  0
 35 49  1  0  0  0  0
 35 70  1  0  0  0  0
 35 74  2  0  0  0  0
 36 57  1  0  0  0  0
 36 67  1  0  0  0  0
 36 75  2  0  0  0  0
 37 61  1  0  0  0  0
 37 66  1  0  0  0  0
 37 76  2  0  0  0  0
 38 62  1  0  0  0  0
 38 71  1  0  0  0  0
 38 77  2  0  0  0  0
 39 42  1  0  0  0  0
 40 49  1  0  0  0  0
 41 66  1  0  0  0  0
 42 44  1  0  0  0  0
 43 45  1  0  0  0  0
 43 46  1  0  0  0  0
 44 48  1  0  0  0  0
 45 50  1  0  0  0  0
 46 67  1  0  0  0  0
 47 50  1  0  0  0  0
 47 67  1  0  0  0  0
 48 70  1  0  0  0  0
 49 66  1  0  0  0  0
 50 65  1  0  0  0  0
 52 62  1  0  0  0  0
 53 63  1  0  0  0  0
 54 63  1  0  0  0  0
 55 63  1  0  0  0  0
 56 72  1  0  0  0  0
 58 59  1  0  0  0  0
 59 60  1  0  0  0  0
 60 79  1  0  0  0  0
 61 63  1  0  0  0  0
 61 71  1  0  0  0  0
 62 72  1  0  0  0  0
 64 65  1  0  0  0  0
M  CHG  1  72   1
M  ISO  4  36 100  57 100  60 101  79 101
M  END
> <Batch ID>
0042

> <Smiles>
CNC(C)C(=O)NC(C(=O)N1Cc2cc([101O:1][101CH2:1]CCc3cc(C)cc([100CH2:0][100C:0](=O)N4CCCC(n5nc(-c6ccc(Oc7ccc(F)cc7F)cc6)c(C(N)=O)c5N)C4)c3)ccc2CC1C(=O)NC1CCCc2ccccc21)C(C)(C)C

> <Shape>
0.275

> <Color>
0.097

> <Negative vol penalty>
0.000

$$$$

  -OEChem-04052317123D

 88 96  0     1  0  0  0  0  0999 V2000
  -20.6319  -34.9237   22.4088 C   0  0  0  0  0  0  0  0  0  0  0  0
  -21.8313  -34.3662   21.9776 C   0  0  0  0  0  0  0  0  0  0  0  0
  -22.3760  -14.0054   21.4973 C   0  0  0  0  0  0  0  0  0  0  0  0
  -22.2064  -16.2818   20.7059 C   0  0  0  0  0  0  0  0  0  0  0  0
  -19.8064  -34.2120   23.2782 C   0  0  0  0  0  0  0  0  0  0  0  0
  -22.2065  -33.0969   22.4165 C   0  0  0  0  0  0  0  0  0  0  0  0
  -25.2784  -28.8603   19.2352 C   0  0  0  0  0  0  0  0  0  0  0  0
  -21.2671  -14.2084   22.3188 C   0  0  0  0  0  0  0  0  0  0  0  0
  -21.0975  -16.4848   21.5274 C   0  0  0  0  0  0  0  0  0  0  0  0
  -26.6240  -28.4959   19.2140 C   0  0  0  0  0  0  0  0  0  0  0  0
  -18.4418  -17.7132   23.6834 C   0  0  0  0  0  0  0  0  0  0  0  0
  -18.3904  -18.8948   24.4229 C   0  0  0  0  0  0  0  0  0  0  0  0
  -26.1619  -26.7218   20.7819 C   0  0  0  0  0  0  0  0  0  0  0  0
  -20.4464  -18.2872   25.5367 C   0  0  0  0  0  0  0  0  0  0  0  0
  -22.8457  -15.0422   20.6909 C   0  0  0  0  0  0  0  0  0  0  0  0
  -23.9916  -14.3713   18.5128 C   0  0  0  0  0  0  0  0  0  0  0  0
  -20.1670  -32.9294   23.7203 C   0  0  0  0  0  0  0  0  0  0  0  0
  -24.3649  -28.1639   20.0395 C   0  0  0  0  0  0  0  0  0  0  0  0
  -21.3856  -32.3679   23.2937 C   0  0  0  0  0  0  0  0  0  0  0  0
  -24.8048  -27.0777   20.8094 C   0  0  0  0  0  0  0  0  0  0  0  0
  -20.6279  -15.4480   22.3338 C   0  0  0  0  0  0  0  0  0  0  0  0
  -27.0665  -27.4284   19.9897 C   0  0  0  0  0  0  0  0  0  0  0  0
  -19.4956  -16.8186   23.8706 C   0  0  0  0  0  0  0  0  0  0  0  0
  -19.3927  -19.1818   25.3495 C   0  0  0  0  0  0  0  0  0  0  0  0
  -20.4979  -17.1056   24.7972 C   0  0  0  0  0  0  0  0  0  0  0  0
  -23.9914  -14.8333   19.8425 C   0  0  0  0  0  0  0  0  0  0  0  0
  -32.3446  -25.6865   20.9823 C   0  0  0  0  0  0  0  0  0  0  0  0
  -32.1484  -25.1311   19.7399 C   0  0  0  0  0  0  0  0  0  0  0  0
  -25.3182  -14.3475   18.1577 C   0  0  0  0  0  0  0  0  0  0  0  0
  -30.2421  -25.7498   20.6564 C   0  0  0  0  0  0  0  0  0  0  0  0
  -22.8911  -13.9970   17.6735 C   0  0  0  0  0  0  0  0  0  0  0  0
  -22.4881  -28.9349   22.4863 C   0  0  0  0  0  0  0  0  0  0  0  0
  -30.0793  -17.3777   20.2222 C   0  0  0  0  0  0  0  0  0  0  0  0
  -21.4048  -25.9009   22.1070 C   0  0  0  0  0  0  0  0  0  0  0  0
  -21.9922  -22.7349   20.9762 C   0  0  0  0  0  0  0  0  0  0  0  0
  -19.2647  -32.2180   24.6972 C   0  0  0  0  0  0  0  0  0  0  0  0
  -22.9119  -28.5525   20.0307 C   0  0  0  0  0  0  0  0  0  0  0  0
  -23.8606  -26.2847   21.6744 C   0  0  0  0  0  0  0  0  0  0  0  0
  -19.5563  -30.7245   24.8194 C   0  0  0  0  0  0  0  0  0  0  0  0
  -29.6896  -13.8220   20.0106 C   0  0  0  0  0  0  0  0  0  0  0  0
  -21.0556  -30.4834   24.9626 C   0  0  0  0  0  0  0  0  0  0  0  0
  -28.1814  -13.6350   19.8513 C   0  0  0  0  0  0  0  0  0  0  0  0
  -30.0129  -15.0056   20.9170 C   0  0  0  0  0  0  0  0  0  0  0  0
  -27.8780  -16.1067   20.3241 C   0  0  0  0  0  0  0  0  0  0  0  0
  -21.8153  -30.9834   23.7280 C   0  0  1  0  0  0  0  0  0  0  0  0
  -22.1644  -28.0986   21.2807 C   0  0  1  0  0  0  0  0  0  0  0  0
  -27.5081  -14.9401   19.3910 C   0  0  2  0  0  0  0  0  0  0  0  0
  -35.3798  -27.5739   22.4417 C   0  0  0  0  0  0  0  0  0  0  0  0
  -34.8427  -25.1007   16.9750 C   0  0  0  0  0  0  0  0  0  0  0  0
  -20.9345  -20.4633   20.8418 C   0  0  0  0  0  0  0  0  0  0  0  0
  -21.9972  -25.4527   25.0664 C   0  0  0  0  0  0  0  0  0  0  0  0
  -21.8362  -22.9885   24.6539 C   0  0  0  0  0  0  0  0  0  0  0  0
  -19.8504  -24.4482   24.2684 C   0  0  0  0  0  0  0  0  0  0  0  0
  -22.0660  -22.7479   18.0176 C   0  0  0  0  0  0  0  0  0  0  0  0
  -33.6109  -25.8907   21.7035 C   0  0  0  0  0  0  0  0  0  0  0  0
  -33.0902  -24.5776   18.7503 C   0  0  0  0  0  0  0  0  0  0  0  0
  -28.7636  -25.9675   20.7906 C   0  0  0  0  0  0  0  0  0  1  0  0
  -29.3138  -18.5877   19.7491 C   0  0  0  0  0  0  0  0  0  0  0  0
  -34.0919  -27.3572   21.6631 C   0  0  0  0  0  0  0  0  0  0  0  0
  -33.8439  -25.6734   17.9681 C   0  0  0  0  0  0  0  0  0  0  0  0
  -29.3620  -23.3769   18.5824 C   0  0  0  0  0  0  0  0  0  0  0  0
  -30.0856  -24.7119   18.3764 C   0  0  0  0  0  0  0  0  0  0  0  0
  -30.2416  -19.7693   19.5318 C   0  0  0  0  0  0  0  0  0  0  0  0
  -30.2577  -22.1967   18.9431 C   0  0  0  0  0  0  0  0  0  0  0  0
  -21.7951  -24.5499   22.6560 C   0  0  1  0  0  0  0  0  0  0  0  0
  -21.1492  -21.7929   20.1357 C   0  0  2  0  0  0  0  0  0  0  0  0
  -21.3881  -24.3758   24.1465 C   0  0  0  0  0  0  0  0  0  0  0  0
  -25.2204  -15.0849   20.3012 N   0  0  0  0  0  0  0  0  0  0  0  0
  -31.1540  -26.0693   21.5476 N   0  0  0  0  0  0  0  0  0  0  0  0
  -30.7967  -25.1781   19.5451 N   0  0  0  0  0  0  0  0  0  0  0  0
  -26.0052  -14.7797   19.2538 N   0  0  0  0  0  0  0  0  0  0  0  0
  -22.4509  -26.7074   21.6366 N   0  0  0  0  0  0  0  0  0  0  0  0
  -29.3368  -16.2208   20.4593 N   0  0  0  0  0  0  0  0  0  0  0  0
  -25.9524  -13.9993   17.0180 N   0  0  0  0  0  0  0  0  0  0  0  0
  -21.5934  -14.0813   18.1962 N   0  0  0  0  0  0  0  0  0  0  0  0
  -21.6779  -30.0443   22.6354 N   0  0  0  0  0  0  0  0  0  0  0  0
  -21.2110  -23.5599   21.7575 N   0  0  0  0  0  0  0  0  0  0  0  0
  -21.8147  -21.5289   18.8287 N   0  3  0  0  0  0  0  0  0  0  0  0
  -29.4543  -20.9647   19.1208 N   0  3  0  0  0  0  0  0  0  0  0  0
  -23.0548  -13.5841   16.5004 O   0  0  0  0  0  0  0  0  0  0  0  0
  -23.4041  -28.5977   23.2272 O   0  0  0  0  0  0  0  0  0  0  0  0
  -31.3011  -17.4595   20.3732 O   0  0  0  0  0  0  0  0  0  0  0  0
  -20.2149  -26.2257   22.0893 O   0  0  0  0  0  0  0  0  0  0  0  0
  -23.2209  -22.7361   20.9457 O   0  0  0  0  0  0  0  0  0  0  0  0
  -19.5457  -15.6463   23.1351 O   0  0  0  0  0  0  0  0  0  0  0  0
  -28.3794  -27.0710   19.9714 O   0  0  0  0  0  0  0  0  0  1  0  0
  -19.3439  -20.3172   26.0585 F   0  0  0  0  0  0  0  0  0  0  0  0
  -21.5133  -16.2506   24.9806 F   0  0  0  0  0  0  0  0  0  0  0  0
  1  2  1  0  0  0  0
  1  5  2  0  0  0  0
  2  6  2  0  0  0  0
  3  8  2  0  0  0  0
  3 15  1  0  0  0  0
  4  9  1  0  0  0  0
  4 15  2  0  0  0  0
  5 17  1  0  0  0  0
  6 19  1  0  0  0  0
  7 10  2  0  0  0  0
  7 18  1  0  0  0  0
  8 21  1  0  0  0  0
  9 21  2  0  0  0  0
 10 22  1  0  0  0  0
 11 12  2  0  0  0  0
 11 23  1  0  0  0  0
 12 24  1  0  0  0  0
 13 20  1  0  0  0  0
 13 22  2  0  0  0  0
 14 24  2  0  0  0  0
 14 25  1  0  0  0  0
 15 26  1  0  0  0  0
 16 26  1  0  0  0  0
 16 29  2  0  0  0  0
 16 31  1  0  0  0  0
 17 19  2  0  0  0  0
 17 36  1  0  0  0  0
 18 20  2  0  0  0  0
 18 37  1  0  0  0  0
 19 45  1  0  0  0  0
 20 38  1  0  0  0  0
 21 85  1  0  0  0  0
 22 86  1  0  0  0  0
 23 25  2  0  0  0  0
 23 85  1  0  0  0  0
 24 87  1  0  0  0  0
 25 88  1  0  0  0  0
 26 68  2  0  0  0  0
 27 28  2  0  0  0  0
 27 55  1  0  0  0  0
 27 69  1  0  0  0  0
 28 56  1  0  0  0  0
 28 70  1  0  0  0  0
 29 71  1  0  0  0  0
 29 74  1  0  0  0  0
 30 57  1  0  0  0  0
 30 69  2  0  0  0  0
 30 70  1  0  0  0  0
 31 75  1  0  0  0  0
 31 80  2  0  0  0  0
 32 46  1  0  0  0  0
 32 76  1  0  0  0  0
 32 81  2  0  0  0  0
 33 58  1  0  0  0  0
 33 73  1  0  0  0  0
 33 82  2  0  0  0  0
 34 65  1  0  0  0  0
 34 72  1  0  0  0  0
 34 83  2  0  0  0  0
 35 66  1  0  0  0  0
 35 77  1  0  0  0  0
 35 84  2  0  0  0  0
 36 39  1  0  0  0  0
 37 46  1  0  0  0  0
 38 72  1  0  0  0  0
 39 41  1  0  0  0  0
 40 42  1  0  0  0  0
 40 43  1  0  0  0  0
 41 45  1  0  0  0  0
 42 47  1  0  0  0  0
 43 73  1  0  0  0  0
 44 47  1  0  0  0  0
 44 73  1  0  0  0  0
 45 76  1  0  0  0  0
 46 72  1  0  0  0  0
 47 71  1  0  0  0  0
 48 59  1  0  0  0  0
 49 60  1  0  0  0  0
 50 66  1  0  0  0  0
 51 67  1  0  0  0  0
 52 67  1  0  0  0  0
 53 67  1  0  0  0  0
 54 78  1  0  0  0  0
 55 59  1  0  0  0  0
 56 60  1  0  0  0  0
 57 86  1  0  0  0  0
 58 63  1  0  0  0  0
 61 62  1  0  0  0  0
 61 64  1  0  0  0  0
 62 70  1  0  0  0  0
 63 79  1  0  0  0  0
 64 79  1  0  0  0  0
 65 67  1  0  0  0  0
 65 77  1  0  0  0  0
 66 78  1  0  0  0  0
 68 71  1  0  0  0  0
M  CHG  2  78   1  79   1
M  ISO  4  33 100  57 101  58 100  86 101
M  END
> <Batch ID>
0042

> <Smiles>
CCCc1nc([101CH2:1][101O:1]c2ccc3c(c2)CN(C(=O)C(NC(=O)C(C)NC)C(C)(C)C)C(C(=O)NC2CCCc4ccccc42)C3)n(CCCNC[100CH2:0][100C:0](=O)N2CCCC(n3nc(-c4ccc(Oc5ccc(F)cc5F)cc4)c(C(N)=O)c3N)C2)c1CCC

> <Shape>
0.185

> <Color>
0.080

> <Negative vol penalty>
0.000

$$$$

  -OEChem-04052317123D

 89 97  0     1  0  0  0  0  0999 V2000
  -17.8079  -25.7897   20.6218 C   0  0  0  0  0  0  0  0  0  0  0  0
  -19.1456  -25.4347   20.7623 C   0  0  0  0  0  0  0  0  0  0  0  0
  -23.7772   -9.8701   22.2540 C   0  0  0  0  0  0  0  0  0  0  0  0
  -22.7173  -10.0068   20.0873 C   0  0  0  0  0  0  0  0  0  0  0  0
  -17.4576  -27.1279   20.4469 C   0  0  0  0  0  0  0  0  0  0  0  0
  -20.1341  -26.4176   20.7269 C   0  0  0  0  0  0  0  0  0  0  0  0
  -23.5966  -25.8230   24.3741 C   0  0  0  0  0  0  0  0  0  0  0  0
  -23.6081   -8.4855   22.2494 C   0  0  0  0  0  0  0  0  0  0  0  0
  -22.5481   -8.6223   20.0826 C   0  0  0  0  0  0  0  0  0  0  0  0
  -24.5710  -24.8462   24.1738 C   0  0  0  0  0  0  0  0  0  0  0  0
  -21.1146   -6.2793   22.8320 C   0  0  0  0  0  0  0  0  0  0  0  0
  -20.6405   -5.6812   23.9995 C   0  0  0  0  0  0  0  0  0  0  0  0
  -26.1305  -26.5519   23.4829 C   0  0  0  0  0  0  0  0  0  0  0  0
  -26.0550  -21.5206   19.4243 C   0  0  0  0  0  0  0  0  0  0  0  0
  -22.6553   -4.3550   24.1382 C   0  0  0  0  0  0  0  0  0  0  0  0
  -23.3318  -10.6307   21.1730 C   0  0  0  0  0  0  0  0  0  0  0  0
  -24.6076  -12.7850   20.6839 C   0  0  0  0  0  0  0  0  0  0  0  0
  -18.4415  -28.1288   20.4190 C   0  0  0  0  0  0  0  0  0  0  0  0
  -23.8790  -27.1728   24.1194 C   0  0  0  0  0  0  0  0  0  0  0  0
  -19.7968  -27.7703   20.5501 C   0  0  0  0  0  0  0  0  0  0  0  0
  -25.1588  -27.5443   23.6832 C   0  0  0  0  0  0  0  0  0  0  0  0
  -25.2041  -20.8269   20.2775 C   0  0  0  0  0  0  0  0  0  0  0  0
  -27.0745  -22.3038   19.9540 C   0  0  0  0  0  0  0  0  0  0  0  0
  -22.9936   -7.8616   21.1637 C   0  0  0  0  0  0  0  0  0  0  0  0
  -25.8373  -25.2102   23.7254 C   0  0  0  0  0  0  0  0  0  0  0  0
  -22.3590   -5.9153   22.3175 C   0  0  0  0  0  0  0  0  0  0  0  0
  -21.4109   -4.7190   24.6526 C   0  0  0  0  0  0  0  0  0  0  0  0
  -23.1293   -4.9531   22.9706 C   0  0  0  0  0  0  0  0  0  0  0  0
  -23.5057  -12.0611   21.1774 C   0  0  0  0  0  0  0  0  0  0  0  0
  -25.4130  -20.9487   21.6418 C   0  0  0  0  0  0  0  0  0  0  0  0
  -27.1995  -22.3597   21.3328 C   0  0  0  0  0  0  0  0  0  0  0  0
  -24.2891  -14.0997   20.9217 C   0  0  0  0  0  0  0  0  0  0  0  0
  -25.8114  -12.3114   20.0656 C   0  0  0  0  0  0  0  0  0  0  0  0
  -22.7346  -29.3661   22.1235 C   0  0  0  0  0  0  0  0  0  0  0  0
  -24.7018  -31.3402   23.7834 C   0  0  0  0  0  0  0  0  0  0  0  0
  -27.4756  -31.6914   25.7403 C   0  0  0  0  0  0  0  0  0  0  0  0
  -20.6249  -18.3085   20.8541 C   0  0  0  0  0  0  0  0  0  0  0  0
  -18.0181  -29.5565   20.1803 C   0  0  0  0  0  0  0  0  0  0  0  0
  -22.8252  -28.2173   24.3659 C   0  0  0  0  0  0  0  0  0  0  0  0
  -25.5188  -28.9819   23.4146 C   0  0  0  0  0  0  0  0  0  0  0  0
  -19.0971  -30.5783   20.5294 C   0  0  0  0  0  0  0  0  0  0  0  0
  -20.5697  -16.1395   23.6771 C   0  0  0  0  0  0  0  0  0  0  0  0
  -20.4431  -30.1516   19.9523 C   0  0  0  0  0  0  0  0  0  0  0  0
  -21.4139  -14.9428   23.2354 C   0  0  0  0  0  0  0  0  0  0  0  0
  -19.7438  -16.7042   22.5233 C   0  0  0  0  0  0  0  0  0  0  0  0
  -21.3631  -15.8487   20.8741 C   0  0  0  0  0  0  0  0  0  0  0  0
  -20.8960  -28.8104   20.5419 C   0  0  1  0  0  0  0  0  0  0  0  0
  -23.0650  -29.5044   23.5828 C   0  0  1  0  0  0  0  0  0  0  0  0
  -22.2559  -15.2797   21.9901 C   0  0  2  0  0  0  0  0  0  0  0  0
  -25.2006  -18.9876   23.1896 C   0  0  0  0  0  0  0  0  0  0  0  0
  -31.6521  -22.5283   17.7152 C   0  0  0  0  0  0  0  0  0  0  0  0
  -28.8530  -33.4320   26.9110 C   0  0  0  0  0  0  0  0  0  0  0  0
  -28.8939  -21.2480   17.5283 C   0  0  0  0  0  0  0  0  0  0  0  0
  -25.9123  -32.1766   21.1103 C   0  0  0  0  0  0  0  0  0  0  0  0
  -27.8486  -33.1435   22.3690 C   0  0  0  0  0  0  0  0  0  0  0  0
  -25.5529  -34.0521   22.7252 C   0  0  0  0  0  0  0  0  0  0  0  0
  -26.9656  -30.4786   28.3914 C   0  0  0  0  0  0  0  0  0  0  0  0
  -24.1101  -19.9859   19.7163 C   0  0  0  0  0  0  0  0  0  0  0  0
  -27.9894  -23.0498   19.0453 C   0  0  0  0  0  0  0  0  0  0  0  0
  -24.5297  -20.2276   22.6065 C   0  0  0  0  0  0  0  0  0  0  0  0
  -28.2888  -23.1929   21.9633 C   0  0  0  0  0  0  0  0  0  0  0  0
  -30.3681  -23.2306   18.1362 C   0  0  0  0  0  0  0  0  0  0  0  0
  -22.7157  -20.6439   19.7503 C   0  0  0  0  0  0  0  0  0  0  0  0
  -21.6068  -19.7976   19.1285 C   0  0  0  0  0  0  0  0  0  0  0  0
  -27.7626  -24.5131   22.5158 C   0  0  0  0  0  0  0  0  0  1  0  0
  -26.1416  -31.7740   23.6503 C   0  0  1  0  0  0  0  0  0  0  0  0
  -27.7036  -32.4443   27.0386 C   0  0  2  0  0  0  0  0  0  0  0  0
  -29.2609  -22.2673   18.6132 C   0  0  2  0  0  0  0  0  0  0  0  0
  -26.3568  -32.7591   22.4668 C   0  0  0  0  0  0  0  0  0  0  0  0
  -22.5581  -12.8504   21.6903 N   0  0  0  0  0  0  0  0  0  0  0  0
  -26.3923  -21.6999   22.1934 N   0  0  0  0  0  0  0  0  0  0  0  0
  -23.0636  -14.0839   21.5203 N   0  0  0  0  0  0  0  0  0  0  0  0
  -24.4524  -29.9657   23.6645 N   0  0  0  0  0  0  0  0  0  0  0  0
  -20.6019  -17.0041   21.3745 N   0  0  0  0  0  0  0  0  0  0  0  0
  -24.9405  -15.2561   20.6753 N   0  0  0  0  0  0  0  0  0  0  0  0
  -25.9775  -10.9298   19.8979 N   0  0  0  0  0  0  0  0  0  0  0  0
  -21.4260  -28.9978   21.8755 N   0  0  0  0  0  0  0  0  0  0  0  0
  -26.5286  -32.3092   24.9512 N   0  0  0  0  0  0  0  0  0  0  0  0
  -21.4698  -18.5086   19.7693 N   0  0  0  0  0  0  0  0  0  0  0  0
  -28.0219  -31.4926   28.1403 N   0  3  0  0  0  0  0  0  0  0  0  0
  -26.7202  -13.0893   19.6883 O   0  0  0  0  0  0  0  0  0  0  0  0
  -23.6022  -29.5792   21.2847 O   0  0  0  0  0  0  0  0  0  0  0  0
  -23.8314  -32.1890   23.9924 O   0  0  0  0  0  0  0  0  0  0  0  0
  -28.0799  -30.6604   25.4532 O   0  0  0  0  0  0  0  0  0  0  0  0
  -19.9469  -19.2281   21.3250 O   0  0  0  0  0  0  0  0  0  0  0  0
  -22.8286   -6.5106   21.1587 O   0  0  0  0  0  0  0  0  0  0  0  0
  -26.7900  -24.2586   23.5285 O   0  0  0  0  0  0  0  0  0  1  0  0
  -20.9562   -4.1459   25.7746 F   0  0  0  0  0  0  0  0  0  0  0  0
  -24.3261   -4.6002   22.4818 F   0  0  0  0  0  0  0  0  0  0  0  0
  1  2  1  0  0  0  0
  1  5  2  0  0  0  0
  2  6  2  0  0  0  0
  3  8  2  0  0  0  0
  3 16  1  0  0  0  0
  4  9  1  0  0  0  0
  4 16  2  0  0  0  0
  5 18  1  0  0  0  0
  6 20  1  0  0  0  0
  7 10  2  0  0  0  0
  7 19  1  0  0  0  0
  8 24  1  0  0  0  0
  9 24  2  0  0  0  0
 10 25  1  0  0  0  0
 11 12  2  0  0  0  0
 11 26  1  0  0  0  0
 12 27  1  0  0  0  0
 13 21  1  0  0  0  0
 13 25  2  0  0  0  0
 14 22  1  0  0  0  0
 14 23  2  0  0  0  0
 15 27  2  0  0  0  0
 15 28  1  0  0  0  0
 16 29  1  0  0  0  0
 17 29  1  0  0  0  0
 17 32  2  0  0  0  0
 17 33  1  0  0  0  0
 18 20  2  0  0  0  0
 18 38  1  0  0  0  0
 19 21  2  0  0  0  0
 19 39  1  0  0  0  0
 20 47  1  0  0  0  0
 21 40  1  0  0  0  0
 22 30  2  0  0  0  0
 22 58  1  0  0  0  0
 23 31  1  0  0  0  0
 23 59  1  0  0  0  0
 24 86  1  0  0  0  0
 25 87  1  0  0  0  0
 26 28  2  0  0  0  0
 26 86  1  0  0  0  0
 27 88  1  0  0  0  0
 28 89  1  0  0  0  0
 29 70  2  0  0  0  0
 30 60  1  0  0  0  0
 30 71  1  0  0  0  0
 31 61  1  0  0  0  0
 31 71  2  0  0  0  0
 32 72  1  0  0  0  0
 32 75  1  0  0  0  0
 33 76  1  0  0  0  0
 33 81  2  0  0  0  0
 34 48  1  0  0  0  0
 34 77  1  0  0  0  0
 34 82  2  0  0  0  0
 35 66  1  0  0  0  0
 35 73  1  0  0  0  0
 35 83  2  0  0  0  0
 36 67  1  0  0  0  0
 36 78  1  0  0  0  0
 36 84  2  0  0  0  0
 37 74  1  0  0  0  0
 37 79  1  0  0  0  0
 37 85  2  0  0  0  0
 38 41  1  0  0  0  0
 39 48  1  0  0  0  0
 40 73  1  0  0  0  0
 41 43  1  0  0  0  0
 42 44  1  0  0  0  0
 42 45  1  0  0  0  0
 43 47  1  0  0  0  0
 44 49  1  0  0  0  0
 45 74  1  0  0  0  0
 46 49  1  0  0  0  0
 46 74  1  0  0  0  0
 47 77  1  0  0  0  0
 48 73  1  0  0  0  0
 49 72  1  0  0  0  0
 50 60  1  0  0  0  0
 51 62  1  0  0  0  0
 52 67  1  0  0  0  0
 53 68  1  0  0  0  0
 54 69  1  0  0  0  0
 55 69  1  0  0  0  0
 56 69  1  0  0  0  0
 57 80  1  0  0  0  0
 58 63  1  0  0  0  0
 59 68  1  0  0  0  0
 61 65  1  0  0  0  0
 62 68  1  0  0  0  0
 63 64  1  0  0  0  0
 64 79  1  0  0  0  0
 65 87  1  0  0  0  0
 66 69  1  0  0  0  0
 66 78  1  0  0  0  0
 67 80  1  0  0  0  0
 70 72  1  0  0  0  0
M  CHG  1  80   1
M  ISO  4  37 100  65 101  79 100  87 101
M  END
> <Batch ID>
0042

> <Smiles>
CCc1nc(C[101CH2:1][101O:1]c2ccc3c(c2)CN(C(=O)C(NC(=O)C(C)NC)C(C)(C)C)C(C(=O)NC2CCCc4ccccc42)C3)c(CC(C)CC)cc1CCC[100NH:0][100C:0](=O)N1CCCC(n2nc(-c3ccc(Oc4ccc(F)cc4F)cc3)c(C(N)=O)c2N)C1

> <Shape>
0.253

> <Color>
0.100

> <Negative vol penalty>
0.000

$$$$

  -OEChem-04052317123D

 82 90  0     1  0  0  0  0  0999 V2000
  -24.4367  -22.0869   18.2792 C   0  0  0  0  0  0  0  0  0  0  0  0
  -25.2656  -21.0769   17.8016 C   0  0  0  0  0  0  0  0  0  0  0  0
  -26.4932  -28.5807   18.9314 C   0  0  0  0  0  0  0  0  0  0  0  0
  -26.4429  -27.9804   21.2711 C   0  0  0  0  0  0  0  0  0  0  0  0
  -23.7529  -21.9155   19.4821 C   0  0  0  0  0  0  0  0  0  0  0  0
  -25.4122  -19.8952   18.5273 C   0  0  0  0  0  0  0  0  0  0  0  0
  -26.1888  -14.2575   16.2647 C   0  0  0  0  0  0  0  0  0  0  0  0
  -25.3268  -29.3272   19.0978 C   0  0  0  0  0  0  0  0  0  0  0  0
  -25.2764  -28.7270   21.4375 C   0  0  0  0  0  0  0  0  0  0  0  0
  -27.3243  -13.4712   16.0750 C   0  0  0  0  0  0  0  0  0  0  0  0
  -21.9742  -28.3618   20.8111 C   0  0  0  0  0  0  0  0  0  0  0  0
  -20.9348  -27.7858   21.5416 C   0  0  0  0  0  0  0  0  0  0  0  0
  -26.9073  -12.3716   18.1813 C   0  0  0  0  0  0  0  0  0  0  0  0
  -21.0450  -29.6024   23.1306 C   0  0  0  0  0  0  0  0  0  0  0  0
  -31.1485  -14.8162   18.0703 C   0  0  0  0  0  0  0  0  0  0  0  0
  -27.0513  -27.9072   20.0180 C   0  0  0  0  0  0  0  0  0  0  0  0
  -29.5818  -27.5858   19.9909 C   0  0  0  0  0  0  0  0  0  0  0  0
  -23.8836  -20.7273   20.2181 C   0  0  0  0  0  0  0  0  0  0  0  0
  -25.4088  -14.1142   17.4212 C   0  0  0  0  0  0  0  0  0  0  0  0
  -24.7306  -19.7083   19.7419 C   0  0  0  0  0  0  0  0  0  0  0  0
  -25.7610  -13.1556   18.3821 C   0  0  0  0  0  0  0  0  0  0  0  0
  -24.7184  -29.4004   20.3508 C   0  0  0  0  0  0  0  0  0  0  0  0
  -27.6853  -12.5300   17.0347 C   0  0  0  0  0  0  0  0  0  0  0  0
  -22.5490  -29.5580   21.2404 C   0  0  0  0  0  0  0  0  0  0  0  0
  -20.4702  -28.4062   22.7013 C   0  0  0  0  0  0  0  0  0  0  0  0
  -22.0844  -30.1783   22.4001 C   0  0  0  0  0  0  0  0  0  0  0  0
  -28.2558  -27.1354   19.8466 C   0  0  0  0  0  0  0  0  0  0  0  0
  -31.4468  -15.4021   19.2747 C   0  0  0  0  0  0  0  0  0  0  0  0
  -30.3511  -26.4796   19.7245 C   0  0  0  0  0  0  0  0  0  0  0  0
  -30.0741  -28.8877   20.3350 C   0  0  0  0  0  0  0  0  0  0  0  0
  -24.6134  -16.0165   19.8404 C   0  0  0  0  0  0  0  0  0  0  0  0
  -29.1348  -20.6857   20.2002 C   0  0  0  0  0  0  0  0  0  0  0  0
  -22.7191  -13.5181   20.6720 C   0  0  0  0  0  0  0  0  0  0  0  0
  -22.1015  -10.1663   20.4963 C   0  0  0  0  0  0  0  0  0  0  0  0
  -23.1615  -20.6069   21.5367 C   0  0  0  0  0  0  0  0  0  0  0  0
  -24.1719  -14.9515   17.5983 C   0  0  0  0  0  0  0  0  0  0  0  0
  -24.9458  -12.9486   19.6315 C   0  0  0  0  0  0  0  0  0  0  0  0
  -23.0788  -19.1743   22.0574 C   0  0  0  0  0  0  0  0  0  0  0  0
  -30.3294  -22.4068   17.2274 C   0  0  0  0  0  0  0  0  0  0  0  0
  -24.4366  -18.4876   21.9485 C   0  0  0  0  0  0  0  0  0  0  0  0
  -30.0225  -23.8633   17.5734 C   0  0  0  0  0  0  0  0  0  0  0  0
  -29.2671  -21.4621   17.7833 C   0  0  0  0  0  0  0  0  0  0  0  0
  -28.7429  -23.0546   19.6036 C   0  0  0  0  0  0  0  0  0  0  0  0
  -24.8961  -18.4022   20.4880 C   0  0  1  0  0  0  0  0  0  0  0  0
  -23.7400  -15.0786   19.0560 C   0  0  1  0  0  0  0  0  0  0  0  0
  -29.8071  -24.0373   19.0870 C   0  0  2  0  0  0  0  0  0  0  0  0
  -20.5011   -8.4128   21.3096 C   0  0  0  0  0  0  0  0  0  0  0  0
  -24.0291  -13.6035   23.4264 C   0  0  0  0  0  0  0  0  0  0  0  0
  -23.1199  -11.3101   23.8531 C   0  0  0  0  0  0  0  0  0  0  0  0
  -21.5588  -13.2152   23.4577 C   0  0  0  0  0  0  0  0  0  0  0  0
  -21.2909   -9.4615   17.7385 C   0  0  0  0  0  0  0  0  0  0  0  0
  -31.1510  -16.7636   19.7392 C   0  0  0  0  0  0  0  0  0  0  0  0
  -29.4307  -19.2856   19.7249 C   0  0  0  0  0  0  0  0  0  0  0  0
  -29.7846  -16.8753   20.4528 C   0  0  0  0  0  0  0  0  0  0  0  0
  -29.4695  -18.3077   20.8950 C   0  0  0  0  0  0  0  0  0  0  0  0
  -30.9626  -11.1629   17.6848 C   0  0  0  0  0  0  0  0  0  0  0  0
  -31.6190  -12.4476   17.1744 C   0  0  0  0  0  0  0  0  0  0  0  0
  -29.4862  -11.3324   18.0238 C   0  0  0  0  0  0  0  0  0  1  0  0
  -22.8912  -12.2825   21.5221 C   0  0  1  0  0  0  0  0  0  0  0  0
  -20.8325   -9.3904   20.1928 C   0  0  2  0  0  0  0  0  0  0  0  0
  -22.9164  -12.6078   23.0423 C   0  0  0  0  0  0  0  0  0  0  0  0
  -28.1833  -25.8438   19.5143 N   0  0  0  0  0  0  0  0  0  0  0  0
  -32.1042  -14.5061   20.0713 N   0  0  0  0  0  0  0  0  0  0  0  0
  -32.2264  -13.3701   19.3933 N   0  0  0  0  0  0  0  0  0  0  0  0
  -31.6528  -13.5582   18.1937 N   0  0  0  0  0  0  0  0  0  0  0  0
  -29.4734  -25.4732   19.4474 N   0  0  0  0  0  0  0  0  0  0  0  0
  -23.7489  -13.7958   19.7620 N   0  0  0  0  0  0  0  0  0  0  0  0
  -29.0720  -21.6783   19.2219 N   0  0  0  0  0  0  0  0  0  0  0  0
  -31.6859  -26.2794   19.7026 N   0  0  0  0  0  0  0  0  0  0  0  0
  -29.1466  -29.9104   20.5766 N   0  0  0  0  0  0  0  0  0  0  0  0
  -24.2010  -17.3348   19.8011 N   0  0  0  0  0  0  0  0  0  0  0  0
  -21.8304  -11.3629   21.1254 N   0  0  0  0  0  0  0  0  0  0  0  0
  -20.9860   -8.6216   18.9254 N   0  3  0  0  0  0  0  0  0  0  0  0
  -31.3004  -29.1410   20.4095 O   0  0  0  0  0  0  0  0  0  0  0  0
  -25.5884  -15.5765   20.4382 O   0  0  0  0  0  0  0  0  0  0  0  0
  -28.9674  -20.8895   21.4054 O   0  0  0  0  0  0  0  0  0  0  0  0
  -21.7048  -14.2073   20.8054 O   0  0  0  0  0  0  0  0  0  0  0  0
  -23.2215   -9.7505   20.2077 O   0  0  0  0  0  0  0  0  0  0  0  0
  -23.5803  -30.1290   20.5136 O   0  0  0  0  0  0  0  0  0  0  0  0
  -28.7936  -11.7616   16.8523 O   0  0  0  0  0  0  0  0  0  1  0  0
  -19.4711  -27.8538   23.4019 F   0  0  0  0  0  0  0  0  0  0  0  0
  -22.6320  -31.3283   22.8169 F   0  0  0  0  0  0  0  0  0  0  0  0
  1  2  1  0  0  0  0
  1  5  2  0  0  0  0
  2  6  2  0  0  0  0
  3  8  2  0  0  0  0
  3 16  1  0  0  0  0
  4  9  1  0  0  0  0
  4 16  2  0  0  0  0
  5 18  1  0  0  0  0
  6 20  1  0  0  0  0
  7 10  2  0  0  0  0
  7 19  1  0  0  0  0
  8 22  1  0  0  0  0
  9 22  2  0  0  0  0
 10 23  1  0  0  0  0
 11 12  2  0  0  0  0
 11 24  1  0  0  0  0
 12 25  1  0  0  0  0
 13 21  1  0  0  0  0
 13 23  2  0  0  0  0
 14 25  2  0  0  0  0
 14 26  1  0  0  0  0
 15 28  2  0  0  0  0
 15 65  1  0  0  0  0
 16 27  1  0  0  0  0
 17 27  1  0  0  0  0
 17 29  2  0  0  0  0
 17 30  1  0  0  0  0
 18 20  2  0  0  0  0
 18 35  1  0  0  0  0
 19 21  2  0  0  0  0
 19 36  1  0  0  0  0
 20 44  1  0  0  0  0
 21 37  1  0  0  0  0
 22 79  1  0  0  0  0
 23 80  1  0  0  0  0
 24 26  2  0  0  0  0
 24 79  1  0  0  0  0
 25 81  1  0  0  0  0
 26 82  1  0  0  0  0
 27 62  2  0  0  0  0
 28 52  1  0  0  0  0
 28 63  1  0  0  0  0
 29 66  1  0  0  0  0
 29 69  1  0  0  0  0
 30 70  1  0  0  0  0
 30 74  2  0  0  0  0
 31 45  1  0  0  0  0
 31 71  1  0  0  0  0
 31 75  2  0  0  0  0
 32 53  1  0  0  0  0
 32 68  1  0  0  0  0
 32 76  2  0  0  0  0
 33 59  1  0  0  0  0
 33 67  1  0  0  0  0
 33 77  2  0  0  0  0
 34 60  1  0  0  0  0
 34 72  1  0  0  0  0
 34 78  2  0  0  0  0
 35 38  1  0  0  0  0
 36 45  1  0  0  0  0
 37 67  1  0  0  0  0
 38 40  1  0  0  0  0
 39 41  1  0  0  0  0
 39 42  1  0  0  0  0
 40 44  1  0  0  0  0
 41 46  1  0  0  0  0
 42 68  1  0  0  0  0
 43 46  1  0  0  0  0
 43 68  1  0  0  0  0
 44 71  1  0  0  0  0
 45 67  1  0  0  0  0
 46 66  1  0  0  0  0
 47 60  1  0  0  0  0
 48 61  1  0  0  0  0
 49 61  1  0  0  0  0
 50 61  1  0  0  0  0
 51 73  1  0  0  0  0
 52 54  1  0  0  0  0
 53 55  1  0  0  0  0
 54 55  1  0  0  0  0
 56 57  1  0  0  0  0
 56 58  1  0  0  0  0
 57 65  1  0  0  0  0
 58 80  1  0  0  0  0
 59 61  1  0  0  0  0
 59 72  1  0  0  0  0
 60 73  1  0  0  0  0
 62 66  1  0  0  0  0
 63 64  2  0  0  0  0
 64 65  1  0  0  0  0
M  CHG  1  73   1
M  ISO  4  32 100  53 100  58 101  80 101
M  END
> <Batch ID>
0042

> <Smiles>
CNC(C)C(=O)NC(C(=O)N1Cc2cc([101O:1][101CH2:1]CCn3cc(CCC[100CH2:0][100C:0](=O)N4CCCC(n5nc(-c6ccc(Oc7ccc(F)cc7F)cc6)c(C(N)=O)c5N)C4)nn3)ccc2CC1C(=O)NC1CCCc2ccccc21)C(C)(C)C

> <Shape>
0.279

> <Color>
0.073

> <Negative vol penalty>
0.000

$$$$

  -OEChem-04052317123D

 83 91  0     1  0  0  0  0  0999 V2000
  -27.7419  -23.6099   18.2575 C   0  0  0  0  0  0  0  0  0  0  0  0
  -26.5580  -23.9984   18.8763 C   0  0  0  0  0  0  0  0  0  0  0  0
  -27.1495  -16.6735   21.8959 C   0  0  0  0  0  0  0  0  0  0  0  0
  -25.4178  -18.0670   20.9491 C   0  0  0  0  0  0  0  0  0  0  0  0
  -28.9601  -24.1227   18.7012 C   0  0  0  0  0  0  0  0  0  0  0  0
  -26.5918  -24.8993   19.9401 C   0  0  0  0  0  0  0  0  0  0  0  0
  -23.0464  -28.4946   19.5545 C   0  0  0  0  0  0  0  0  0  0  0  0
  -26.5235  -15.5413   21.3746 C   0  0  0  0  0  0  0  0  0  0  0  0
  -24.7918  -16.9348   20.4278 C   0  0  0  0  0  0  0  0  0  0  0  0
  -21.7429  -28.1434   19.9027 C   0  0  0  0  0  0  0  0  0  0  0  0
  -25.5759  -12.3177   19.9870 C   0  0  0  0  0  0  0  0  0  0  0  0
  -26.3770  -11.3673   19.3541 C   0  0  0  0  0  0  0  0  0  0  0  0
  -22.0429  -29.1891   22.0558 C   0  0  0  0  0  0  0  0  0  0  0  0
  -27.0838  -13.0306   17.7507 C   0  0  0  0  0  0  0  0  0  0  0  0
  -21.9288  -23.7658   23.2856 C   0  0  0  0  0  0  0  0  0  0  0  0
  -26.5967  -17.9364   21.6831 C   0  0  0  0  0  0  0  0  0  0  0  0
  -28.2228  -19.9000   21.5965 C   0  0  0  0  0  0  0  0  0  0  0  0
  -29.0080  -25.0378   19.7647 C   0  0  0  0  0  0  0  0  0  0  0  0
  -23.8630  -29.1873   20.4599 C   0  0  0  0  0  0  0  0  0  0  0  0
  -27.8119  -25.4239   20.3994 C   0  0  0  0  0  0  0  0  0  0  0  0
  -23.3555  -29.5502   21.7156 C   0  0  0  0  0  0  0  0  0  0  0  0
  -25.3446  -15.6719   20.6406 C   0  0  0  0  0  0  0  0  0  0  0  0
  -21.2419  -28.4881   21.1546 C   0  0  0  0  0  0  0  0  0  0  0  0
  -25.5288  -13.6246   19.5017 C   0  0  0  0  0  0  0  0  0  0  0  0
  -27.1309  -11.7237   18.2360 C   0  0  0  0  0  0  0  0  0  0  0  0
  -26.2827  -13.9811   18.3836 C   0  0  0  0  0  0  0  0  0  0  0  0
  -27.2426  -19.1063   22.2218 C   0  0  0  0  0  0  0  0  0  0  0  0
  -21.1592  -23.8810   24.4588 C   0  0  0  0  0  0  0  0  0  0  0  0
  -21.1745  -24.3834   22.3182 C   0  0  0  0  0  0  0  0  0  0  0  0
  -28.5082  -20.8803   22.5152 C   0  0  0  0  0  0  0  0  0  0  0  0
  -28.8218  -19.7634   20.3010 C   0  0  0  0  0  0  0  0  0  0  0  0
  -26.6142  -28.5682   21.9264 C   0  0  0  0  0  0  0  0  0  0  0  0
  -26.3200  -31.6378   22.9329 C   0  0  0  0  0  0  0  0  0  0  0  0
  -24.2722  -34.2875   23.5907 C   0  0  0  0  0  0  0  0  0  0  0  0
  -25.3845  -23.2728   27.0285 C   0  0  0  0  0  0  0  0  0  0  0  0
  -30.3525  -25.5286   20.2401 C   0  0  0  0  0  0  0  0  0  0  0  0
  -25.2578  -29.5823   20.0589 C   0  0  0  0  0  0  0  0  0  0  0  0
  -24.1846  -30.3117   22.7162 C   0  0  0  0  0  0  0  0  0  0  0  0
  -30.2694  -26.7664   21.1296 C   0  0  0  0  0  0  0  0  0  0  0  0
  -28.5677  -21.6907   27.2302 C   0  0  0  0  0  0  0  0  0  0  0  0
  -29.1846  -26.5916   22.1876 C   0  0  0  0  0  0  0  0  0  0  0  0
  -28.6775  -20.9205   25.9130 C   0  0  0  0  0  0  0  0  0  0  0  0
  -27.1386  -21.6877   27.7682 C   0  0  0  0  0  0  0  0  0  0  0  0
  -26.2268  -21.3901   25.4980 C   0  0  0  0  0  0  0  0  0  0  0  0
  -27.8054  -26.4181   21.5403 C   0  0  1  0  0  0  0  0  0  0  0  0
  -26.1732  -29.8367   21.2525 C   0  0  1  0  0  0  0  0  0  0  0  0
  -27.6386  -21.4126   24.8875 C   0  0  2  0  0  0  0  0  0  0  0  0
  -21.4278  -24.5956   20.8813 C   0  0  0  0  0  0  0  0  0  0  0  0
  -24.3170  -36.6489   24.4386 C   0  0  0  0  0  0  0  0  0  0  0  0
  -26.6708  -30.6054   25.7826 C   0  0  0  0  0  0  0  0  0  0  0  0
  -25.7737  -32.7912   26.6107 C   0  0  0  0  0  0  0  0  0  0  0  0
  -27.8872  -32.7336   25.2869 C   0  0  0  0  0  0  0  0  0  0  0  0
  -23.1876  -35.3440   21.0478 C   0  0  0  0  0  0  0  0  0  0  0  0
  -21.4946  -23.3852   25.8043 C   0  0  0  0  0  0  0  0  0  0  0  0
  -22.2704  -24.3850   26.6982 C   0  0  0  0  0  0  0  0  0  0  0  0
  -18.5790  -26.8945   22.9991 C   0  0  0  0  0  0  0  0  0  0  0  0
  -18.8879  -25.5567   22.3233 C   0  0  0  0  0  0  0  0  0  0  0  0
  -23.6330  -24.7902   26.1402 C   0  0  0  0  0  0  0  0  0  0  0  0
  -19.7122  -27.9070   22.8804 C   0  0  0  0  0  0  0  0  0  1  0  0
  -25.6828  -32.3169   24.1211 C   0  0  1  0  0  0  0  0  0  0  0  0
  -24.3686  -35.7539   23.2102 C   0  0  2  0  0  0  0  0  0  0  0  0
  -26.4884  -32.0957   25.4324 C   0  0  0  0  0  0  0  0  0  0  0  0
  -26.9266  -19.5445   23.4434 N   0  0  0  0  0  0  0  0  0  0  0  0
  -20.0047  -24.5216   24.2573 N   0  0  0  0  0  0  0  0  0  0  0  0
  -20.0432  -24.8146   22.9462 N   0  0  0  0  0  0  0  0  0  0  0  0
  -27.7128  -20.6240   23.5931 N   0  0  0  0  0  0  0  0  0  0  0  0
  -25.5444  -30.6695   22.2797 N   0  0  0  0  0  0  0  0  0  0  0  0
  -26.2032  -22.1666   26.7475 N   0  0  0  0  0  0  0  0  0  0  0  0
  -29.3595  -21.9279   22.4981 N   0  0  0  0  0  0  0  0  0  0  0  0
  -28.4133  -18.6998   19.4849 N   0  0  0  0  0  0  0  0  0  0  0  0
  -27.2914  -27.6959   21.0958 N   0  0  0  0  0  0  0  0  0  0  0  0
  -25.5178  -33.7183   23.7504 N   0  0  0  0  0  0  0  0  0  0  0  0
  -24.5315  -23.6654   26.0043 N   0  0  0  0  0  0  0  0  0  0  0  0
  -23.2441  -36.1297   22.3073 N   0  3  0  0  0  0  0  0  0  0  0  0
  -29.7054  -20.5513   19.8862 O   0  0  0  0  0  0  0  0  0  0  0  0
  -26.3603  -28.3944   23.1126 O   0  0  0  0  0  0  0  0  0  0  0  0
  -27.4610  -31.9599   22.5924 O   0  0  0  0  0  0  0  0  0  0  0  0
  -23.1991  -33.7061   23.7357 O   0  0  0  0  0  0  0  0  0  0  0  0
  -25.4155  -23.8699   28.1099 O   0  0  0  0  0  0  0  0  0  0  0  0
  -24.7336  -14.5673   20.1316 O   0  0  0  0  0  0  0  0  0  0  0  0
  -19.9702  -28.1459   21.4974 O   0  0  0  0  0  0  0  0  0  1  0  0
  -27.9013  -10.8112   17.6293 F   0  0  0  0  0  0  0  0  0  0  0  0
  -26.2424  -15.2353   17.9135 F   0  0  0  0  0  0  0  0  0  0  0  0
  1  2  1  0  0  0  0
  1  5  2  0  0  0  0
  2  6  2  0  0  0  0
  3  8  2  0  0  0  0
  3 16  1  0  0  0  0
  4  9  1  0  0  0  0
  4 16  2  0  0  0  0
  5 18  1  0  0  0  0
  6 20  1  0  0  0  0
  7 10  2  0  0  0  0
  7 19  1  0  0  0  0
  8 22  1  0  0  0  0
  9 22  2  0  0  0  0
 10 23  1  0  0  0  0
 11 12  2  0  0  0  0
 11 24  1  0  0  0  0
 12 25  1  0  0  0  0
 13 21  1  0  0  0  0
 13 23  2  0  0  0  0
 14 25  2  0  0  0  0
 14 26  1  0  0  0  0
 15 28  1  0  0  0  0
 15 29  2  0  0  0  0
 16 27  1  0  0  0  0
 17 27  1  0  0  0  0
 17 30  2  0  0  0  0
 17 31  1  0  0  0  0
 18 20  2  0  0  0  0
 18 36  1  0  0  0  0
 19 21  2  0  0  0  0
 19 37  1  0  0  0  0
 20 45  1  0  0  0  0
 21 38  1  0  0  0  0
 22 80  1  0  0  0  0
 23 81  1  0  0  0  0
 24 26  2  0  0  0  0
 24 80  1  0  0  0  0
 25 82  1  0  0  0  0
 26 83  1  0  0  0  0
 27 63  2  0  0  0  0
 28 54  1  0  0  0  0
 28 64  2  0  0  0  0
 29 48  1  0  0  0  0
 29 65  1  0  0  0  0
 30 66  1  0  0  0  0
 30 69  1  0  0  0  0
 31 70  1  0  0  0  0
 31 75  2  0  0  0  0
 32 46  1  0  0  0  0
 32 71  1  0  0  0  0
 32 76  2  0  0  0  0
 33 60  1  0  0  0  0
 33 67  1  0  0  0  0
 33 77  2  0  0  0  0
 34 61  1  0  0  0  0
 34 72  1  0  0  0  0
 34 78  2  0  0  0  0
 35 68  1  0  0  0  0
 35 73  1  0  0  0  0
 35 79  2  0  0  0  0
 36 39  1  0  0  0  0
 37 46  1  0  0  0  0
 38 67  1  0  0  0  0
 39 41  1  0  0  0  0
 40 42  1  0  0  0  0
 40 43  1  0  0  0  0
 41 45  1  0  0  0  0
 42 47  1  0  0  0  0
 43 68  1  0  0  0  0
 44 47  1  0  0  0  0
 44 68  1  0  0  0  0
 45 71  1  0  0  0  0
 46 67  1  0  0  0  0
 47 66  1  0  0  0  0
 49 61  1  0  0  0  0
 50 62  1  0  0  0  0
 51 62  1  0  0  0  0
 52 62  1  0  0  0  0
 53 74  1  0  0  0  0
 54 55  1  0  0  0  0
 55 58  1  0  0  0  0
 56 57  1  0  0  0  0
 56 59  1  0  0  0  0
 57 65  1  0  0  0  0
 58 73  1  0  0  0  0
 59 81  1  0  0  0  0
 60 62  1  0  0  0  0
 60 72  1  0  0  0  0
 61 74  1  0  0  0  0
 63 66  1  0  0  0  0
 64 65  1  0  0  0  0
M  CHG  1  74   1
M  ISO  4  35 100  59 101  73 100  81 101
M  END
> <Batch ID>
0042

> <Smiles>
CNC(C)C(=O)NC(C(=O)N1Cc2cc([101O:1][101CH2:1]CCn3nc(CCC[100NH:0][100C:0](=O)N4CCCC(n5nc(-c6ccc(Oc7ccc(F)cc7F)cc6)c(C(N)=O)c5N)C4)cc3C)ccc2CC1C(=O)NC1CCCc2ccccc21)C(C)(C)C

> <Shape>
0.262

> <Color>
0.068

> <Negative vol penalty>
0.000

$$$$

  -OEChem-04052317123D

 87 95  0     1  0  0  0  0  0999 V2000
  -16.8342  -30.3604   24.5258 C   0  0  0  0  0  0  0  0  0  0  0  0
  -17.2544  -29.0355   24.4671 C   0  0  0  0  0  0  0  0  0  0  0  0
  -24.8995  -13.7238   18.3843 C   0  0  0  0  0  0  0  0  0  0  0  0
  -26.1406  -14.7639   20.1773 C   0  0  0  0  0  0  0  0  0  0  0  0
  -17.3819  -31.3034   23.6569 C   0  0  0  0  0  0  0  0  0  0  0  0
  -18.2218  -28.6525   23.5387 C   0  0  0  0  0  0  0  0  0  0  0  0
  -22.5614  -24.3964   24.2868 C   0  0  0  0  0  0  0  0  0  0  0  0
  -24.9963  -12.4921   19.0318 C   0  0  0  0  0  0  0  0  0  0  0  0
  -26.2374  -13.5322   20.8248 C   0  0  0  0  0  0  0  0  0  0  0  0
  -22.6443  -23.0619   23.8919 C   0  0  0  0  0  0  0  0  0  0  0  0
  -24.6048   -9.1423   20.3886 C   0  0  0  0  0  0  0  0  0  0  0  0
  -23.4549   -8.3564   20.4625 C   0  0  0  0  0  0  0  0  0  0  0  0
  -23.8876  -23.7248   21.9339 C   0  0  0  0  0  0  0  0  0  0  0  0
  -22.3300  -10.1162   21.6770 C   0  0  0  0  0  0  0  0  0  0  0  0
  -26.0868  -19.8816   21.2583 C   0  0  0  0  0  0  0  0  0  0  0  0
  -25.4717  -14.8597   18.9571 C   0  0  0  0  0  0  0  0  0  0  0  0
  -24.3544  -17.0930   18.4361 C   0  0  0  0  0  0  0  0  0  0  0  0
  -18.3634  -30.9336   22.7239 C   0  0  0  0  0  0  0  0  0  0  0  0
  -23.1325  -25.4079   23.5012 C   0  0  0  0  0  0  0  0  0  0  0  0
  -18.7821  -29.5911   22.6556 C   0  0  0  0  0  0  0  0  0  0  0  0
  -23.8128  -25.0712   22.3223 C   0  0  0  0  0  0  0  0  0  0  0  0
  -25.6652  -12.3963   20.2520 C   0  0  0  0  0  0  0  0  0  0  0  0
  -23.3050  -22.7262   22.7139 C   0  0  0  0  0  0  0  0  0  0  0  0
  -24.6174  -10.4152   20.9590 C   0  0  0  0  0  0  0  0  0  0  0  0
  -22.3175   -8.8433   21.1066 C   0  0  0  0  0  0  0  0  0  0  0  0
  -23.4800  -10.9021   21.6032 C   0  0  0  0  0  0  0  0  0  0  0  0
  -25.3726  -16.1321   18.2884 C   0  0  0  0  0  0  0  0  0  0  0  0
  -25.5796  -19.4872   22.5109 C   0  0  0  0  0  0  0  0  0  0  0  0
  -27.4383  -20.0171   21.4623 C   0  0  0  0  0  0  0  0  0  0  0  0
  -24.7200  -18.1132   17.5924 C   0  0  0  0  0  0  0  0  0  0  0  0
  -23.1829  -17.0658   19.2623 C   0  0  0  0  0  0  0  0  0  0  0  0
  -22.0104  -27.9409   21.9428 C   0  0  0  0  0  0  0  0  0  0  0  0
  -25.1589  -28.5419   21.4445 C   0  0  0  0  0  0  0  0  0  0  0  0
  -28.5450  -27.5428   20.7009 C   0  0  0  0  0  0  0  0  0  0  0  0
  -29.9979  -19.8959   15.3977 C   0  0  0  0  0  0  0  0  0  0  0  0
  -18.8919  -31.9787   21.7735 C   0  0  0  0  0  0  0  0  0  0  0  0
  -23.0574  -26.8401   23.9548 C   0  0  0  0  0  0  0  0  0  0  0  0
  -24.4604  -26.1175   21.4539 C   0  0  0  0  0  0  0  0  0  0  0  0
  -20.1836  -31.5667   21.0720 C   0  0  0  0  0  0  0  0  0  0  0  0
  -27.1179  -18.9396   13.5355 C   0  0  0  0  0  0  0  0  0  0  0  0
  -20.0703  -30.1422   20.5384 C   0  0  0  0  0  0  0  0  0  0  0  0
  -26.2522  -18.1983   14.5558 C   0  0  0  0  0  0  0  0  0  0  0  0
  -28.6049  -18.6708   13.7559 C   0  0  0  0  0  0  0  0  0  0  0  0
  -28.2210  -18.1983   16.1440 C   0  0  0  0  0  0  0  0  0  0  0  0
  -19.8473  -29.1419   21.6790 C   0  0  1  0  0  0  0  0  0  0  0  0
  -23.2304  -27.8380   22.8139 C   0  0  1  0  0  0  0  0  0  0  0  0
  -26.7164  -18.4826   15.9970 C   0  0  2  0  0  0  0  0  0  0  0  0
  -30.9465  -28.2320   20.4651 C   0  0  0  0  0  0  0  0  0  0  0  0
  -30.9748  -23.2587   20.4902 C   0  0  0  0  0  0  0  0  0  0  0  0
  -24.5264  -28.7116   18.4644 C   0  0  0  0  0  0  0  0  0  0  0  0
  -26.9765  -28.4834   18.0025 C   0  0  0  0  0  0  0  0  0  0  0  0
  -26.1292  -30.4442   19.2910 C   0  0  0  0  0  0  0  0  0  0  0  0
  -28.9152  -19.7027   23.4709 C   0  0  0  0  0  0  0  0  0  0  0  0
  -29.2072  -26.5877   23.4227 C   0  0  0  0  0  0  0  0  0  0  0  0
  -27.9321  -22.8231   20.6457 C   0  0  0  0  0  0  0  0  0  0  0  0
  -24.1429  -19.1967   22.8713 C   0  0  0  0  0  0  0  0  0  0  0  0
  -28.5225  -20.4062   20.5421 C   0  0  0  0  0  0  0  0  0  0  0  0
  -30.7521  -22.4615   17.3700 C   0  0  0  0  0  0  0  0  0  0  0  0
  -29.6704  -22.5124   18.4574 C   0  0  0  0  0  0  0  0  0  0  0  0
  -31.3048  -21.0542   17.1611 C   0  0  0  0  0  0  0  0  0  0  0  0
  -23.4046  -20.4389   23.3577 C   0  0  0  0  0  0  0  0  0  1  0  0
  -26.1644  -28.1646   20.3837 C   0  0  1  0  0  0  0  0  0  0  0  0
  -29.8021  -27.9761   21.4334 C   0  0  2  0  0  0  0  0  0  0  0  0
  -30.1857  -22.1247   19.8485 C   0  0  2  0  0  0  0  0  0  0  0  0
  -25.9354  -28.9312   19.0505 C   0  0  0  0  0  0  0  0  0  0  0  0
  -26.3143  -16.5082   17.4191 N   0  0  0  0  0  0  0  0  0  0  0  0
  -26.5313  -19.3791   23.4417 N   0  0  0  0  0  0  0  0  0  0  0  0
  -27.6502  -19.7074   22.7736 N   0  0  0  0  0  0  0  0  0  0  0  0
  -25.8892  -17.7167   17.0128 N   0  0  0  0  0  0  0  0  0  0  0  0
  -24.3544  -27.5043   21.9366 N   0  0  0  0  0  0  0  0  0  0  0  0
  -28.9807  -18.9616   15.1416 N   0  0  0  0  0  0  0  0  0  0  0  0
  -24.1522  -19.3018   17.2969 N   0  0  0  0  0  0  0  0  0  0  0  0
  -22.9596  -15.9411   20.0682 N   0  0  0  0  0  0  0  0  0  0  0  0
  -21.0908  -28.8792   22.3712 N   0  0  0  0  0  0  0  0  0  0  0  0
  -27.4810  -28.3756   20.9757 N   0  0  0  0  0  0  0  0  0  0  0  0
  -30.2876  -20.1174   16.7385 N   0  0  0  0  0  0  0  0  0  0  0  0
  -30.2288  -26.9229   22.3975 N   0  3  0  0  0  0  0  0  0  0  0  0
  -29.0283  -21.7982   20.7524 N   0  3  1  0  0  0  0  0  0  0  0  0
  -22.3500  -18.0037   19.2728 O   0  0  0  0  0  0  0  0  0  0  0  0
  -21.9114  -27.2233   20.9544 O   0  0  0  0  0  0  0  0  0  0  0  0
  -25.0946  -29.7126   21.8277 O   0  0  0  0  0  0  0  0  0  0  0  0
  -28.5114  -26.5657   19.9562 O   0  0  0  0  0  0  0  0  0  0  0  0
  -30.5994  -20.4926   14.4982 O   0  0  0  0  0  0  0  0  0  0  0  0
  -25.7596  -11.1946   20.8842 O   0  0  0  0  0  0  0  0  0  0  0  0
  -23.3869  -21.4244   22.3258 O   0  0  0  0  0  0  0  0  0  1  0  0
  -21.2127   -8.0890   21.1761 F   0  0  0  0  0  0  0  0  0  0  0  0
  -23.4858  -12.1247   22.1520 F   0  0  0  0  0  0  0  0  0  0  0  0
  1  2  1  0  0  0  0
  1  5  2  0  0  0  0
  2  6  2  0  0  0  0
  3  8  2  0  0  0  0
  3 16  1  0  0  0  0
  4  9  1  0  0  0  0
  4 16  2  0  0  0  0
  5 18  1  0  0  0  0
  6 20  1  0  0  0  0
  7 10  2  0  0  0  0
  7 19  1  0  0  0  0
  8 22  1  0  0  0  0
  9 22  2  0  0  0  0
 10 23  1  0  0  0  0
 11 12  2  0  0  0  0
 11 24  1  0  0  0  0
 12 25  1  0  0  0  0
 13 21  1  0  0  0  0
 13 23  2  0  0  0  0
 14 25  2  0  0  0  0
 14 26  1  0  0  0  0
 15 28  1  0  0  0  0
 15 29  2  0  0  0  0
 16 27  1  0  0  0  0
 17 27  1  0  0  0  0
 17 30  2  0  0  0  0
 17 31  1  0  0  0  0
 18 20  2  0  0  0  0
 18 36  1  0  0  0  0
 19 21  2  0  0  0  0
 19 37  1  0  0  0  0
 20 45  1  0  0  0  0
 21 38  1  0  0  0  0
 22 84  1  0  0  0  0
 23 85  1  0  0  0  0
 24 26  2  0  0  0  0
 24 84  1  0  0  0  0
 25 86  1  0  0  0  0
 26 87  1  0  0  0  0
 27 66  2  0  0  0  0
 28 56  1  0  0  0  0
 28 67  2  0  0  0  0
 29 57  1  0  0  0  0
 29 68  1  0  0  0  0
 30 69  1  0  0  0  0
 30 72  1  0  0  0  0
 31 73  1  0  0  0  0
 31 79  2  0  0  0  0
 32 46  1  0  0  0  0
 32 74  1  0  0  0  0
 32 80  2  0  0  0  0
 33 62  1  0  0  0  0
 33 70  1  0  0  0  0
 33 81  2  0  0  0  0
 34 63  1  0  0  0  0
 34 75  1  0  0  0  0
 34 82  2  0  0  0  0
 35 71  1  0  0  0  0
 35 76  1  0  0  0  0
 35 83  2  0  0  0  0
 36 39  1  0  0  0  0
 37 46  1  0  0  0  0
 38 70  1  0  0  0  0
 39 41  1  0  0  0  0
 40 42  1  0  0  0  0
 40 43  1  0  0  0  0
 41 45  1  0  0  0  0
 42 47  1  0  0  0  0
 43 71  1  0  0  0  0
 44 47  1  0  0  0  0
 44 71  1  0  0  0  0
 45 74  1  0  0  0  0
 46 70  1  0  0  0  0
 47 69  1  0  0  0  0
 48 63  1  0  0  0  0
 49 64  1  0  0  0  0
 50 65  1  0  0  0  0
 51 65  1  0  0  0  0
 52 65  1  0  0  0  0
 53 68  1  0  0  0  0
 54 77  1  0  0  0  0
 55 78  1  0  0  0  0
 56 61  1  0  0  0  0
 57 78  1  0  0  0  0
 58 59  1  0  0  0  0
 58 60  1  0  0  0  0
 59 64  1  0  0  0  0
 60 76  1  0  0  0  0
 61 85  1  0  0  0  0
 62 65  1  0  0  0  0
 62 75  1  0  0  0  0
 63 77  1  0  0  0  0
 64 78  1  0  0  0  0
 66 69  1  0  0  0  0
 67 68  1  0  0  0  0
M  CHG  2  77   1  78   1
M  ISO  4  35 100  61 101  76 100  85 101
M  END
> <Batch ID>
0042

> <Smiles>
CNC(C)C(=O)NC(C(=O)N1Cc2cc([101O:1][101CH2:1]Cc3cc(CN(C)C(C)CCC[100NH:0][100C:0](=O)N4CCCC(n5nc(-c6ccc(Oc7ccc(F)cc7F)cc6)c(C(N)=O)c5N)C4)n(C)n3)ccc2CC1C(=O)NC1CCCc2ccccc21)C(C)(C)C

> <Shape>
0.198

> <Color>
0.075

> <Negative vol penalty>
0.000

$$$$

  -OEChem-04052317123D

 83 91  0     1  0  0  0  0  0999 V2000
  -30.3563  -24.4141   15.0207 C   0  0  0  0  0  0  0  0  0  0  0  0
  -29.0256  -24.4819   15.4208 C   0  0  0  0  0  0  0  0  0  0  0  0
  -26.3286  -12.4743   21.0080 C   0  0  0  0  0  0  0  0  0  0  0  0
  -24.8245  -13.6213   19.5050 C   0  0  0  0  0  0  0  0  0  0  0  0
  -31.3741  -24.6205   15.9510 C   0  0  0  0  0  0  0  0  0  0  0  0
  -28.7120  -24.7551   16.7517 C   0  0  0  0  0  0  0  0  0  0  0  0
  -23.9228  -27.9619   18.8219 C   0  0  0  0  0  0  0  0  0  0  0  0
  -25.2950  -11.6188   21.3894 C   0  0  0  0  0  0  0  0  0  0  0  0
  -23.7910  -12.7658   19.8863 C   0  0  0  0  0  0  0  0  0  0  0  0
  -22.6832  -27.5746   19.3291 C   0  0  0  0  0  0  0  0  0  0  0  0
  -23.7349   -8.8884   20.1468 C   0  0  0  0  0  0  0  0  0  0  0  0
  -24.0175   -7.5248   20.2246 C   0  0  0  0  0  0  0  0  0  0  0  0
  -23.5486  -27.7645   21.5728 C   0  0  0  0  0  0  0  0  0  0  0  0
  -23.4273   -7.5361   22.5674 C   0  0  0  0  0  0  0  0  0  0  0  0
  -21.5291  -22.6537   22.4424 C   0  0  0  0  0  0  0  0  0  0  0  0
  -22.1218  -23.2609   20.3700 C   0  0  0  0  0  0  0  0  0  0  0  0
  -26.0933  -13.4756   20.0659 C   0  0  0  0  0  0  0  0  0  0  0  0
  -28.0730  -14.1737   18.6163 C   0  0  0  0  0  0  0  0  0  0  0  0
  -31.0727  -24.9059   17.2920 C   0  0  0  0  0  0  0  0  0  0  0  0
  -24.9895  -28.2433   19.6875 C   0  0  0  0  0  0  0  0  0  0  0  0
  -29.7267  -24.9642   17.7011 C   0  0  0  0  0  0  0  0  0  0  0  0
  -24.8000  -28.1576   21.0742 C   0  0  0  0  0  0  0  0  0  0  0  0
  -22.6433  -21.9191   22.1013 C   0  0  0  0  0  0  0  0  0  0  0  0
  -23.0182  -22.3031   20.7902 C   0  0  0  0  0  0  0  0  0  0  0  0
  -24.0262  -11.7645   20.8286 C   0  0  0  0  0  0  0  0  0  0  0  0
  -22.4968  -27.4730   20.7046 C   0  0  0  0  0  0  0  0  0  0  0  0
  -23.2985   -9.5760   21.2793 C   0  0  0  0  0  0  0  0  0  0  0  0
  -23.8637   -6.8486   21.4349 C   0  0  0  0  0  0  0  0  0  0  0  0
  -23.1447   -8.8998   22.4896 C   0  0  0  0  0  0  0  0  0  0  0  0
  -27.1604  -14.3600   19.6719 C   0  0  0  0  0  0  0  0  0  0  0  0
  -28.8780  -15.2858   18.6580 C   0  0  0  0  0  0  0  0  0  0  0  0
  -28.1830  -13.0922   17.6815 C   0  0  0  0  0  0  0  0  0  0  0  0
  -27.8776  -27.0045   20.1650 C   0  0  0  0  0  0  0  0  0  0  0  0
  -28.1958  -29.5214   22.1864 C   0  0  0  0  0  0  0  0  0  0  0  0
  -26.6867  -31.8586   24.1630 C   0  0  0  0  0  0  0  0  0  0  0  0
  -28.0565  -20.8381   20.7433 C   0  0  0  0  0  0  0  0  0  0  0  0
  -32.2074  -25.0749   18.2710 C   0  0  0  0  0  0  0  0  0  0  0  0
  -26.3127  -28.6857   19.1255 C   0  0  0  0  0  0  0  0  0  0  0  0
  -25.9073  -28.4685   22.0467 C   0  0  0  0  0  0  0  0  0  0  0  0
  -31.7865  -25.7299   19.5841 C   0  0  0  0  0  0  0  0  0  0  0  0
  -30.6055  -18.5455   21.7045 C   0  0  0  0  0  0  0  0  0  0  0  0
  -30.5071  -25.0900   20.1137 C   0  0  0  0  0  0  0  0  0  0  0  0
  -30.0939  -17.1961   21.1973 C   0  0  0  0  0  0  0  0  0  0  0  0
  -29.4660  -19.4265   22.2120 C   0  0  0  0  0  0  0  0  0  0  0  0
  -27.8524  -18.2779   20.7455 C   0  0  0  0  0  0  0  0  0  0  0  0
  -29.3461  -25.2826   19.1307 C   0  0  1  0  0  0  0  0  0  0  0  0
  -27.4772  -28.4503   20.0826 C   0  0  1  0  0  0  0  0  0  0  0  0
  -28.9588  -17.3763   20.1715 C   0  0  2  0  0  0  0  0  0  0  0  0
  -23.3155  -20.9191   22.9546 C   0  0  0  0  0  0  0  0  0  0  0  0
  -27.2096  -33.7551   25.7210 C   0  0  0  0  0  0  0  0  0  0  0  0
  -28.9825  -27.5217   24.3525 C   0  0  0  0  0  0  0  0  0  0  0  0
  -28.5645  -29.3083   26.0559 C   0  0  0  0  0  0  0  0  0  0  0  0
  -30.3383  -29.6230   24.3306 C   0  0  0  0  0  0  0  0  0  0  0  0
  -25.2535  -33.8075   22.4581 C   0  0  0  0  0  0  0  0  0  0  0  0
  -24.1563  -21.7809   20.0084 C   0  0  0  0  0  0  0  0  0  0  0  0
  -25.4061  -22.6937   19.9846 C   0  0  0  0  0  0  0  0  0  0  0  0
  -20.0814  -25.4596   22.4778 C   0  0  0  0  0  0  0  0  0  0  0  0
  -20.0697  -24.4385   21.3380 C   0  0  0  0  0  0  0  0  0  0  0  0
  -26.5855  -22.1151   19.2057 C   0  0  0  0  0  0  0  0  0  0  0  0
  -21.2883  -26.3899   22.4431 C   0  0  0  0  0  0  0  0  0  1  0  0
  -27.9077  -29.7612   23.6488 C   0  0  1  0  0  0  0  0  0  0  0  0
  -26.8932  -33.3574   24.2877 C   0  0  2  0  0  0  0  0  0  0  0  0
  -28.9277  -29.0457   24.5788 C   0  0  0  0  0  0  0  0  0  0  0  0
  -27.3659  -15.5006   20.3359 N   0  0  0  0  0  0  0  0  0  0  0  0
  -21.2213  -23.4662   21.3825 N   0  0  0  0  0  0  0  0  0  0  0  0
  -28.4169  -16.0410   19.6959 N   0  0  0  0  0  0  0  0  0  0  0  0
  -27.1843  -28.8908   21.4481 N   0  0  0  0  0  0  0  0  0  0  0  0
  -28.4235  -19.5584   21.1914 N   0  0  0  0  0  0  0  0  0  0  0  0
  -29.9283  -15.6815   17.9079 N   0  0  0  0  0  0  0  0  0  0  0  0
  -27.2751  -12.0290   17.7798 N   0  0  0  0  0  0  0  0  0  0  0  0
  -28.8199  -26.6274   19.2273 N   0  0  0  0  0  0  0  0  0  0  0  0
  -27.8541  -31.2088   23.8222 N   0  0  0  0  0  0  0  0  0  0  0  0
  -27.0652  -20.8734   19.7703 N   0  0  0  0  0  0  0  0  0  0  0  0
  -25.6670  -34.0868   23.8574 N   0  3  0  0  0  0  0  0  0  0  0  0
  -29.0708  -13.0614   16.7958 O   0  0  0  0  0  0  0  0  0  0  0  0
  -27.3704  -26.2847   21.0172 O   0  0  0  0  0  0  0  0  0  0  0  0
  -29.2755  -29.8869   21.7149 O   0  0  0  0  0  0  0  0  0  0  0  0
  -25.5994  -31.3180   24.3529 O   0  0  0  0  0  0  0  0  0  0  0  0
  -28.5778  -21.8723   21.1743 O   0  0  0  0  0  0  0  0  0  0  0  0
  -23.0175  -10.9297   21.2003 O   0  0  0  0  0  0  0  0  0  0  0  0
  -21.2881  -27.0946   21.2022 O   0  0  0  0  0  0  0  0  0  1  0  0
  -24.1337   -5.5387   21.5091 F   0  0  0  0  0  0  0  0  0  0  0  0
  -22.7247   -9.5547   23.5807 F   0  0  0  0  0  0  0  0  0  0  0  0
  1  2  1  0  0  0  0
  1  5  2  0  0  0  0
  2  6  2  0  0  0  0
  3  8  2  0  0  0  0
  3 17  1  0  0  0  0
  4  9  1  0  0  0  0
  4 17  2  0  0  0  0
  5 19  1  0  0  0  0
  6 21  1  0  0  0  0
  7 10  2  0  0  0  0
  7 20  1  0  0  0  0
  8 25  1  0  0  0  0
  9 25  2  0  0  0  0
 10 26  1  0  0  0  0
 11 12  2  0  0  0  0
 11 27  1  0  0  0  0
 12 28  1  0  0  0  0
 13 22  1  0  0  0  0
 13 26  2  0  0  0  0
 14 28  2  0  0  0  0
 14 29  1  0  0  0  0
 15 23  2  0  0  0  0
 15 65  1  0  0  0  0
 16 24  2  0  0  0  0
 16 65  1  0  0  0  0
 17 30  1  0  0  0  0
 18 30  1  0  0  0  0
 18 31  2  0  0  0  0
 18 32  1  0  0  0  0
 19 21  2  0  0  0  0
 19 37  1  0  0  0  0
 20 22  2  0  0  0  0
 20 38  1  0  0  0  0
 21 46  1  0  0  0  0
 22 39  1  0  0  0  0
 23 24  1  0  0  0  0
 23 49  1  0  0  0  0
 24 55  1  0  0  0  0
 25 80  1  0  0  0  0
 26 81  1  0  0  0  0
 27 29  2  0  0  0  0
 27 80  1  0  0  0  0
 28 82  1  0  0  0  0
 29 83  1  0  0  0  0
 30 64  2  0  0  0  0
 31 66  1  0  0  0  0
 31 69  1  0  0  0  0
 32 70  1  0  0  0  0
 32 75  2  0  0  0  0
 33 47  1  0  0  0  0
 33 71  1  0  0  0  0
 33 76  2  0  0  0  0
 34 61  1  0  0  0  0
 34 67  1  0  0  0  0
 34 77  2  0  0  0  0
 35 62  1  0  0  0  0
 35 72  1  0  0  0  0
 35 78  2  0  0  0  0
 36 68  1  0  0  0  0
 36 73  1  0  0  0  0
 36 79  2  0  0  0  0
 37 40  1  0  0  0  0
 38 47  1  0  0  0  0
 39 67  1  0  0  0  0
 40 42  1  0  0  0  0
 41 43  1  0  0  0  0
 41 44  1  0  0  0  0
 42 46  1  0  0  0  0
 43 48  1  0  0  0  0
 44 68  1  0  0  0  0
 45 48  1  0  0  0  0
 45 68  1  0  0  0  0
 46 71  1  0  0  0  0
 47 67  1  0  0  0  0
 48 66  1  0  0  0  0
 50 62  1  0  0  0  0
 51 63  1  0  0  0  0
 52 63  1  0  0  0  0
 53 63  1  0  0  0  0
 54 74  1  0  0  0  0
 55 56  1  0  0  0  0
 56 59  1  0  0  0  0
 57 58  1  0  0  0  0
 57 60  1  0  0  0  0
 58 65  1  0  0  0  0
 59 73  1  0  0  0  0
 60 81  1  0  0  0  0
 61 63  1  0  0  0  0
 61 72  1  0  0  0  0
 62 74  1  0  0  0  0
 64 66  1  0  0  0  0
M  CHG  1  74   1
M  ISO  4  36 100  60 101  73 100  81 101
M  END
> <Batch ID>
0042

> <Smiles>
CNC(C)C(=O)NC(C(=O)N1Cc2cc([101O:1][101CH2:1]CCn3cc(C)c(CCC[100NH:0][100C:0](=O)N4CCCC(n5nc(-c6ccc(Oc7ccc(F)cc7F)cc6)c(C(N)=O)c5N)C4)c3)ccc2CC1C(=O)NC1CCCc2ccccc21)C(C)(C)C

> <Shape>
0.286

> <Color>
0.058

> <Negative vol penalty>
0.000

$$$$

  -OEChem-04052317123D

 90 98  0     1  0  0  0  0  0999 V2000
  -33.1388  -35.7793   14.9926 C   0  0  0  0  0  0  0  0  0  0  0  0
  -32.4953  -34.5764   15.2651 C   0  0  0  0  0  0  0  0  0  0  0  0
  -23.0691   -9.8762   19.9344 C   0  0  0  0  0  0  0  0  0  0  0  0
  -23.8408   -9.8641   22.2238 C   0  0  0  0  0  0  0  0  0  0  0  0
  -34.3234  -36.1003   15.6541 C   0  0  0  0  0  0  0  0  0  0  0  0
  -33.0366  -33.6933   16.1986 C   0  0  0  0  0  0  0  0  0  0  0  0
  -29.5464  -31.8236   19.3558 C   0  0  0  0  0  0  0  0  0  0  0  0
  -22.3253   -8.7218   20.1790 C   0  0  0  0  0  0  0  0  0  0  0  0
  -23.0971   -8.7097   22.4684 C   0  0  0  0  0  0  0  0  0  0  0  0
  -28.7321  -30.8009   18.8713 C   0  0  0  0  0  0  0  0  0  0  0  0
  -19.8713   -7.9102   23.0813 C   0  0  0  0  0  0  0  0  0  0  0  0
  -19.1204   -7.8617   24.2557 C   0  0  0  0  0  0  0  0  0  0  0  0
  -30.1015  -29.1771   20.0145 C   0  0  0  0  0  0  0  0  0  0  0  0
  -26.1125  -25.6395   16.2214 C   0  0  0  0  0  0  0  0  0  0  0  0
  -20.3636   -5.9172   24.9702 C   0  0  0  0  0  0  0  0  0  0  0  0
  -23.8269  -10.4474   20.9568 C   0  0  0  0  0  0  0  0  0  0  0  0
  -24.1706  -12.9731   20.8552 C   0  0  0  0  0  0  0  0  0  0  0  0
  -34.8744  -35.2250   16.6032 C   0  0  0  0  0  0  0  0  0  0  0  0
  -30.6527  -31.5293   20.1658 C   0  0  0  0  0  0  0  0  0  0  0  0
  -34.2304  -34.0023   16.8724 C   0  0  0  0  0  0  0  0  0  0  0  0
  -30.9268  -30.1980   20.5101 C   0  0  0  0  0  0  0  0  0  0  0  0
  -26.8604  -26.7657   16.5465 C   0  0  0  0  0  0  0  0  0  0  0  0
  -24.8984  -25.4102   16.8591 C   0  0  0  0  0  0  0  0  0  0  0  0
  -22.3393   -8.1386   21.4460 C   0  0  0  0  0  0  0  0  0  0  0  0
  -29.0113  -29.4772   19.1982 C   0  0  0  0  0  0  0  0  0  0  0  0
  -20.8683   -6.9622   22.8512 C   0  0  0  0  0  0  0  0  0  0  0  0
  -19.3666   -6.8652   25.2002 C   0  0  0  0  0  0  0  0  0  0  0  0
  -21.1145   -5.9658   23.7957 C   0  0  0  0  0  0  0  0  0  0  0  0
  -24.5958  -11.6395   20.7046 C   0  0  0  0  0  0  0  0  0  0  0  0
  -26.3541  -27.6249   17.5084 C   0  0  0  0  0  0  0  0  0  0  0  0
  -24.4801  -26.3300   17.8071 C   0  0  0  0  0  0  0  0  0  0  0  0
  -25.2616  -13.7244   20.4923 C   0  0  0  0  0  0  0  0  0  0  0  0
  -22.9028  -13.4867   21.2848 C   0  0  0  0  0  0  0  0  0  0  0  0
  -33.7937  -31.9441   19.9099 C   0  0  0  0  0  0  0  0  0  0  0  0
  -33.7956  -30.8348   22.9582 C   0  0  0  0  0  0  0  0  0  0  0  0
  -32.2244  -29.0144   25.3797 C   0  0  0  0  0  0  0  0  0  0  0  0
  -30.7473  -14.7366   20.6603 C   0  0  0  0  0  0  0  0  0  0  0  0
  -36.1819  -35.5940   17.2581 C   0  0  0  0  0  0  0  0  0  0  0  0
  -31.5057  -32.6460   20.7023 C   0  0  0  0  0  0  0  0  0  0  0  0
  -32.0906  -29.8308   21.3929 C   0  0  0  0  0  0  0  0  0  0  0  0
  -36.4907  -34.7727   18.5072 C   0  0  0  0  0  0  0  0  0  0  0  0
  -29.5949  -12.3723   18.2605 C   0  0  0  0  0  0  0  0  0  0  0  0
  -36.2435  -33.2903   18.2460 C   0  0  0  0  0  0  0  0  0  0  0  0
  -28.1595  -12.0765   18.6985 C   0  0  0  0  0  0  0  0  0  0  0  0
  -30.5185  -12.5827   19.4583 C   0  0  0  0  0  0  0  0  0  0  0  0
  -28.6247  -13.3045   20.8605 C   0  0  0  0  0  0  0  0  0  0  0  0
  -34.7733  -33.0294   17.8966 C   0  0  1  0  0  0  0  0  0  0  0  0
  -32.9070  -32.1906   21.0976 C   0  0  1  0  0  0  0  0  0  0  0  0
  -27.6443  -13.1402   19.6866 C   0  0  2  0  0  0  0  0  0  0  0  0
  -28.1618  -27.0172   15.8668 C   0  0  0  0  0  0  0  0  0  0  0  0
  -23.1834  -26.1348   18.5226 C   0  0  0  0  0  0  0  0  0  0  0  0
  -32.4877  -28.2575   27.7578 C   0  0  0  0  0  0  0  0  0  0  0  0
  -35.8394  -28.7521   22.0663 C   0  0  0  0  0  0  0  0  0  0  0  0
  -35.3488  -27.4746   24.1629 C   0  0  0  0  0  0  0  0  0  0  0  0
  -36.3006  -29.7763   24.3008 C   0  0  0  0  0  0  0  0  0  0  0  0
  -29.7616  -30.4226   26.2227 C   0  0  0  0  0  0  0  0  0  0  0  0
  -24.0925  -24.2053   16.5156 C   0  0  0  0  0  0  0  0  0  0  0  0
  -27.1174  -28.8556   17.9010 C   0  0  0  0  0  0  0  0  0  1  0  0
  -24.2056  -23.0519   17.5302 C   0  0  0  0  0  0  0  0  0  0  0  0
  -29.0503  -18.3911   20.8981 C   0  0  0  0  0  0  0  0  0  0  0  0
  -30.5393  -18.0395   20.9673 C   0  0  0  0  0  0  0  0  0  0  0  0
  -25.6488  -22.5826   17.7376 C   0  0  0  0  0  0  0  0  0  0  0  0
  -28.7981  -19.5500   19.9318 C   0  0  0  0  0  0  0  0  0  0  0  0
  -30.8217  -16.8771   21.9140 C   0  0  0  0  0  0  0  0  0  0  0  0
  -25.7071  -21.4225   18.7212 C   0  0  0  0  0  0  0  0  0  0  0  0
  -27.3138  -19.8715   19.8400 C   0  0  0  0  0  0  0  0  0  0  0  0
  -33.8907  -29.4716   23.5997 C   0  0  1  0  0  0  0  0  0  0  0  0
  -31.9197  -29.3240   26.8343 C   0  0  2  0  0  0  0  0  0  0  0  0
  -35.3240  -28.8751   23.5142 C   0  0  0  0  0  0  0  0  0  0  0  0
  -25.8584  -11.5458   20.2790 N   0  0  0  0  0  0  0  0  0  0  0  0
  -25.1790  -27.4354   18.1494 N   0  0  0  0  0  0  0  0  0  0  0  0
  -26.2359  -12.8300   20.1590 N   0  0  0  0  0  0  0  0  0  0  0  0
  -32.8987  -30.9576   21.8875 N   0  0  0  0  0  0  0  0  0  0  0  0
  -29.9736  -13.6046   20.3553 N   0  0  0  0  0  0  0  0  0  0  0  0
  -25.4730  -15.0562   20.4288 N   0  0  0  0  0  0  0  0  0  0  0  0
  -21.8918  -12.5759   21.6200 N   0  0  0  0  0  0  0  0  0  0  0  0
  -33.9589  -33.0461   19.0928 N   0  0  0  0  0  0  0  0  0  0  0  0
  -33.3875  -29.6248   24.9604 N   0  0  0  0  0  0  0  0  0  0  0  0
  -30.1534  -15.6592   21.5128 N   0  0  0  0  0  0  0  0  0  0  0  0
  -30.4471  -29.3974   27.0509 N   0  3  0  0  0  0  0  0  0  0  0  0
  -27.1129  -20.9714   18.8570 N   0  3  0  0  0  0  0  0  0  0  0  0
  -22.6681  -14.7171   21.3532 O   0  0  0  0  0  0  0  0  0  0  0  0
  -34.2925  -30.8366   19.7477 O   0  0  0  0  0  0  0  0  0  0  0  0
  -34.4862  -31.7586   23.3956 O   0  0  0  0  0  0  0  0  0  0  0  0
  -31.5046  -28.2994   24.6860 O   0  0  0  0  0  0  0  0  0  0  0  0
  -31.8811  -14.9146   20.2022 O   0  0  0  0  0  0  0  0  0  0  0  0
  -21.6135   -7.0123   21.6851 O   0  0  0  0  0  0  0  0  0  0  0  0
  -28.2184  -28.4770   18.7261 O   0  0  0  0  0  0  0  0  0  1  0  0
  -18.6464   -6.8196   26.3287 F   0  0  0  0  0  0  0  0  0  0  0  0
  -22.0719   -5.0530   23.5808 F   0  0  0  0  0  0  0  0  0  0  0  0
  1  2  1  0  0  0  0
  1  5  2  0  0  0  0
  2  6  2  0  0  0  0
  3  8  2  0  0  0  0
  3 16  1  0  0  0  0
  4  9  1  0  0  0  0
  4 16  2  0  0  0  0
  5 18  1  0  0  0  0
  6 20  1  0  0  0  0
  7 10  2  0  0  0  0
  7 19  1  0  0  0  0
  8 24  1  0  0  0  0
  9 24  2  0  0  0  0
 10 25  1  0  0  0  0
 11 12  2  0  0  0  0
 11 26  1  0  0  0  0
 12 27  1  0  0  0  0
 13 21  1  0  0  0  0
 13 25  2  0  0  0  0
 14 22  1  0  0  0  0
 14 23  2  0  0  0  0
 15 27  2  0  0  0  0
 15 28  1  0  0  0  0
 16 29  1  0  0  0  0
 17 29  1  0  0  0  0
 17 32  2  0  0  0  0
 17 33  1  0  0  0  0
 18 20  2  0  0  0  0
 18 38  1  0  0  0  0
 19 21  2  0  0  0  0
 19 39  1  0  0  0  0
 20 47  1  0  0  0  0
 21 40  1  0  0  0  0
 22 30  2  0  0  0  0
 22 50  1  0  0  0  0
 23 31  1  0  0  0  0
 23 57  1  0  0  0  0
 24 87  1  0  0  0  0
 25 88  1  0  0  0  0
 26 28  2  0  0  0  0
 26 87  1  0  0  0  0
 27 89  1  0  0  0  0
 28 90  1  0  0  0  0
 29 70  2  0  0  0  0
 30 58  1  0  0  0  0
 30 71  1  0  0  0  0
 31 51  1  0  0  0  0
 31 71  2  0  0  0  0
 32 72  1  0  0  0  0
 32 75  1  0  0  0  0
 33 76  1  0  0  0  0
 33 82  2  0  0  0  0
 34 48  1  0  0  0  0
 34 77  1  0  0  0  0
 34 83  2  0  0  0  0
 35 67  1  0  0  0  0
 35 73  1  0  0  0  0
 35 84  2  0  0  0  0
 36 68  1  0  0  0  0
 36 78  1  0  0  0  0
 36 85  2  0  0  0  0
 37 74  1  0  0  0  0
 37 79  1  0  0  0  0
 37 86  2  0  0  0  0
 38 41  1  0  0  0  0
 39 48  1  0  0  0  0
 40 73  1  0  0  0  0
 41 43  1  0  0  0  0
 42 44  1  0  0  0  0
 42 45  1  0  0  0  0
 43 47  1  0  0  0  0
 44 49  1  0  0  0  0
 45 74  1  0  0  0  0
 46 49  1  0  0  0  0
 46 74  1  0  0  0  0
 47 77  1  0  0  0  0
 48 73  1  0  0  0  0
 49 72  1  0  0  0  0
 52 68  1  0  0  0  0
 53 69  1  0  0  0  0
 54 69  1  0  0  0  0
 55 69  1  0  0  0  0
 56 80  1  0  0  0  0
 57 59  1  0  0  0  0
 58 88  1  0  0  0  0
 59 62  1  0  0  0  0
 60 61  1  0  0  0  0
 60 63  1  0  0  0  0
 61 64  1  0  0  0  0
 62 65  1  0  0  0  0
 63 66  1  0  0  0  0
 64 79  1  0  0  0  0
 65 81  1  0  0  0  0
 66 81  1  0  0  0  0
 67 69  1  0  0  0  0
 67 78  1  0  0  0  0
 68 80  1  0  0  0  0
 70 72  1  0  0  0  0
M  CHG  2  80   1  81   1
M  ISO  4  37 100  58 101  79 100  88 101
M  END
> <Batch ID>
0042

> <Smiles>
CNC(C)C(=O)NC(C(=O)N1Cc2cc([101O:1][101CH2:1]c3nc(C)c(CCCCNCCCCC[100NH:0][100C:0](=O)N4CCCC(n5nc(-c6ccc(Oc7ccc(F)cc7F)cc6)c(C(N)=O)c5N)C4)cc3C)ccc2CC1C(=O)NC1CCCc2ccccc21)C(C)(C)C

> <Shape>
0.196

> <Color>
0.188

> <Negative vol penalty>
0.000

$$$$

  -OEChem-04052317123D

 87 95  0     1  0  0  0  0  0999 V2000
  -24.9993  -19.7147   16.4447 C   0  0  0  0  0  0  0  0  0  0  0  0
  -25.4988  -20.8113   17.1401 C   0  0  0  0  0  0  0  0  0  0  0  0
  -24.6030  -13.9783   21.7530 C   0  0  0  0  0  0  0  0  0  0  0  0
  -26.8797  -13.6377   21.0196 C   0  0  0  0  0  0  0  0  0  0  0  0
  -23.7401  -19.7825   15.8500 C   0  0  0  0  0  0  0  0  0  0  0  0
  -24.7398  -21.9767   17.2403 C   0  0  0  0  0  0  0  0  0  0  0  0
  -24.5163  -25.8272   21.9974 C   0  0  0  0  0  0  0  0  0  0  0  0
  -24.2149  -12.8149   21.0887 C   0  0  0  0  0  0  0  0  0  0  0  0
  -26.4915  -12.4742   20.3552 C   0  0  0  0  0  0  0  0  0  0  0  0
  -25.1523  -27.0415   22.2519 C   0  0  0  0  0  0  0  0  0  0  0  0
  -22.6925   -9.7404   19.8866 C   0  0  0  0  0  0  0  0  0  0  0  0
  -21.8504   -8.8577   20.5628 C   0  0  0  0  0  0  0  0  0  0  0  0
  -23.2115  -28.2213   21.4390 C   0  0  0  0  0  0  0  0  0  0  0  0
  -30.3031  -27.2257   20.4688 C   0  0  0  0  0  0  0  0  0  0  0  0
  -23.5158   -8.5946   22.2932 C   0  0  0  0  0  0  0  0  0  0  0  0
  -27.7702  -27.2827   19.4555 C   0  0  0  0  0  0  0  0  0  0  0  0
  -25.9354  -14.3897   21.7185 C   0  0  0  0  0  0  0  0  0  0  0  0
  -26.7825  -15.7029   23.7349 C   0  0  0  0  0  0  0  0  0  0  0  0
  -22.9611  -20.9460   15.9512 C   0  0  0  0  0  0  0  0  0  0  0  0
  -23.2253  -25.8006   21.4506 C   0  0  0  0  0  0  0  0  0  0  0  0
  -23.4695  -22.0606   16.6453 C   0  0  0  0  0  0  0  0  0  0  0  0
  -22.5604  -27.0053   21.1808 C   0  0  0  0  0  0  0  0  0  0  0  0
  -29.8556  -28.3683   19.8150 C   0  0  0  0  0  0  0  0  0  0  0  0
  -28.5663  -28.4055   19.2958 C   0  0  0  0  0  0  0  0  0  0  0  0
  -25.1591  -12.0628   20.3897 C   0  0  0  0  0  0  0  0  0  0  0  0
  -24.5010  -28.2388   21.9700 C   0  0  0  0  0  0  0  0  0  0  0  0
  -23.9463  -10.0502   20.4137 C   0  0  0  0  0  0  0  0  0  0  0  0
  -22.2620   -8.2848   21.7661 C   0  0  0  0  0  0  0  0  0  0  0  0
  -24.3579   -9.4773   21.6170 C   0  0  0  0  0  0  0  0  0  0  0  0
  -26.3369  -15.5918   22.4041 C   0  0  0  0  0  0  0  0  0  0  0  0
  -29.4293  -26.1558   20.5761 C   0  0  0  0  0  0  0  0  0  0  0  0
  -27.0372  -17.0423   23.9009 C   0  0  0  0  0  0  0  0  0  0  0  0
  -26.9510  -14.6863   24.7317 C   0  0  0  0  0  0  0  0  0  0  0  0
  -21.9495  -24.6782   18.7644 C   0  0  0  0  0  0  0  0  0  0  0  0
  -19.1656  -25.5562   20.1791 C   0  0  0  0  0  0  0  0  0  0  0  0
  -17.5719  -27.5335   22.4587 C   0  0  0  0  0  0  0  0  0  0  0  0
  -28.4893  -21.2768   20.0518 C   0  0  0  0  0  0  0  0  0  0  0  0
  -21.6257  -20.9886   15.2516 C   0  0  0  0  0  0  0  0  0  0  0  0
  -22.5427  -24.4827   21.2069 C   0  0  0  0  0  0  0  0  0  0  0  0
  -21.1660  -27.0314   20.6123 C   0  0  0  0  0  0  0  0  0  0  0  0
  -20.7274  -22.1294   15.7226 C   0  0  0  0  0  0  0  0  0  0  0  0
  -25.6616  -21.3414   22.3095 C   0  0  0  0  0  0  0  0  0  0  0  0
  -21.5135  -23.4349   15.7901 C   0  0  0  0  0  0  0  0  0  0  0  0
  -25.5625  -19.8697   22.7151 C   0  0  0  0  0  0  0  0  0  0  0  0
  -26.0553  -21.4852   20.8424 C   0  0  0  0  0  0  0  0  0  0  0  0
  -27.2205  -19.3138   20.8761 C   0  0  0  0  0  0  0  0  0  0  0  0
  -22.6656  -23.3337   16.7970 C   0  0  1  0  0  0  0  0  0  0  0  0
  -21.4277  -24.5702   20.1693 C   0  0  1  0  0  0  0  0  0  0  0  0
  -26.8478  -19.1014   22.3546 C   0  0  2  0  0  0  0  0  0  0  0  0
  -30.7727  -29.5387   19.6828 C   0  0  0  0  0  0  0  0  0  0  0  0
  -27.5934  -29.3123   17.1454 C   0  0  0  0  0  0  0  0  0  0  0  0
  -15.2887  -28.0519   23.3619 C   0  0  0  0  0  0  0  0  0  0  0  0
  -18.5339  -27.1547   17.6580 C   0  0  0  0  0  0  0  0  0  0  0  0
  -16.7733  -28.3731   18.9557 C   0  0  0  0  0  0  0  0  0  0  0  0
  -16.5896  -25.9084   18.6175 C   0  0  0  0  0  0  0  0  0  0  0  0
  -18.3344  -26.6908   25.1913 C   0  0  0  0  0  0  0  0  0  0  0  0
  -29.8758  -24.9130   21.2711 C   0  0  0  0  0  0  0  0  0  0  0  0
  -30.5422  -23.8724   20.3502 C   0  0  0  0  0  0  0  0  0  0  0  0
  -25.9845  -31.4434   21.2509 C   0  0  0  0  0  0  0  0  0  0  0  0
  -29.6306  -23.3297   19.2517 C   0  0  0  0  0  0  0  0  0  0  0  0
  -27.2014  -30.7725   20.6318 C   0  0  0  0  0  0  0  0  0  0  0  0
  -24.7749  -30.5251   21.3752 C   0  0  0  0  0  0  0  0  0  1  0  0
  -28.0288  -29.6207   18.5758 C   0  0  1  0  0  0  0  0  0  0  0  0
  -18.3322  -26.8146   20.2094 C   0  0  1  0  0  0  0  0  0  0  0  0
  -16.5445  -27.2105   23.5286 C   0  0  2  0  0  0  0  0  0  0  0  0
  -17.5843  -27.0625   18.8691 C   0  0  0  0  0  0  0  0  0  0  0  0
  -28.1699  -26.1548   20.0845 N   0  0  0  0  0  0  0  0  0  0  0  0
  -26.3089  -16.7669   21.7699 N   0  0  0  0  0  0  0  0  0  0  0  0
  -26.7400  -17.6292   22.7062 N   0  0  0  0  0  0  0  0  0  0  0  0
  -20.5431  -25.7168   20.3855 N   0  0  0  0  0  0  0  0  0  0  0  0
  -27.2961  -20.7462   20.5697 N   0  0  0  0  0  0  0  0  0  0  0  0
  -27.4842  -17.7635   24.9509 N   0  0  0  0  0  0  0  0  0  0  0  0
  -26.6431  -13.3614   24.3937 N   0  0  0  0  0  0  0  0  0  0  0  0
  -22.1671  -23.4598   18.1498 N   0  0  0  0  0  0  0  0  0  0  0  0
  -17.4558  -26.6958   21.3697 N   0  0  0  0  0  0  0  0  0  0  0  0
  -28.4757  -22.6398   19.7821 N   0  0  0  0  0  0  0  0  0  0  0  0
  -17.1081  -27.4708   24.8834 N   0  3  0  0  0  0  0  0  0  0  0  0
  -26.8785  -30.2466   19.2847 N   0  3  0  0  0  0  0  0  0  0  0  0
  -27.3469  -14.9474   25.8930 O   0  0  0  0  0  0  0  0  0  0  0  0
  -22.1391  -25.7850   18.2737 O   0  0  0  0  0  0  0  0  0  0  0  0
  -18.6138  -24.4699   19.9866 O   0  0  0  0  0  0  0  0  0  0  0  0
  -18.3926  -28.4408   22.5757 O   0  0  0  0  0  0  0  0  0  0  0  0
  -29.4948  -20.5875   19.8494 O   0  0  0  0  0  0  0  0  0  0  0  0
  -24.7808  -10.9274   19.7415 O   0  0  0  0  0  0  0  0  0  0  0  0
  -25.1197  -29.4254   22.2168 O   0  0  0  0  0  0  0  0  0  1  0  0
  -21.4527   -7.4383   22.4162 F   0  0  0  0  0  0  0  0  0  0  0  0
  -25.5608   -9.7721   22.1289 F   0  0  0  0  0  0  0  0  0  0  0  0
  1  2  1  0  0  0  0
  1  5  2  0  0  0  0
  2  6  2  0  0  0  0
  3  8  2  0  0  0  0
  3 17  1  0  0  0  0
  4  9  1  0  0  0  0
  4 17  2  0  0  0  0
  5 19  1  0  0  0  0
  6 21  1  0  0  0  0
  7 10  2  0  0  0  0
  7 20  1  0  0  0  0
  8 25  1  0  0  0  0
  9 25  2  0  0  0  0
 10 26  1  0  0  0  0
 11 12  2  0  0  0  0
 11 27  1  0  0  0  0
 12 28  1  0  0  0  0
 13 22  1  0  0  0  0
 13 26  2  0  0  0  0
 14 23  1  0  0  0  0
 14 31  2  0  0  0  0
 15 28  2  0  0  0  0
 15 29  1  0  0  0  0
 16 24  1  0  0  0  0
 16 67  2  0  0  0  0
 17 30  1  0  0  0  0
 18 30  1  0  0  0  0
 18 32  2  0  0  0  0
 18 33  1  0  0  0  0
 19 21  2  0  0  0  0
 19 38  1  0  0  0  0
 20 22  2  0  0  0  0
 20 39  1  0  0  0  0
 21 47  1  0  0  0  0
 22 40  1  0  0  0  0
 23 24  2  0  0  0  0
 23 50  1  0  0  0  0
 24 63  1  0  0  0  0
 25 84  1  0  0  0  0
 26 85  1  0  0  0  0
 27 29  2  0  0  0  0
 27 84  1  0  0  0  0
 28 86  1  0  0  0  0
 29 87  1  0  0  0  0
 30 68  2  0  0  0  0
 31 57  1  0  0  0  0
 31 67  1  0  0  0  0
 32 69  1  0  0  0  0
 32 72  1  0  0  0  0
 33 73  1  0  0  0  0
 33 79  2  0  0  0  0
 34 48  1  0  0  0  0
 34 74  1  0  0  0  0
 34 80  2  0  0  0  0
 35 64  1  0  0  0  0
 35 70  1  0  0  0  0
 35 81  2  0  0  0  0
 36 65  1  0  0  0  0
 36 75  1  0  0  0  0
 36 82  2  0  0  0  0
 37 71  1  0  0  0  0
 37 76  1  0  0  0  0
 37 83  2  0  0  0  0
 38 41  1  0  0  0  0
 39 48  1  0  0  0  0
 40 70  1  0  0  0  0
 41 43  1  0  0  0  0
 42 44  1  0  0  0  0
 42 45  1  0  0  0  0
 43 47  1  0  0  0  0
 44 49  1  0  0  0  0
 45 71  1  0  0  0  0
 46 49  1  0  0  0  0
 46 71  1  0  0  0  0
 47 74  1  0  0  0  0
 48 70  1  0  0  0  0
 49 69  1  0  0  0  0
 51 63  1  0  0  0  0
 52 65  1  0  0  0  0
 53 66  1  0  0  0  0
 54 66  1  0  0  0  0
 55 66  1  0  0  0  0
 56 77  1  0  0  0  0
 57 58  1  0  0  0  0
 58 60  1  0  0  0  0
 59 61  1  0  0  0  0
 59 62  1  0  0  0  0
 60 76  1  0  0  0  0
 61 78  1  0  0  0  0
 62 85  1  0  0  0  0
 63 78  1  0  0  0  0
 64 66  1  0  0  0  0
 64 75  1  0  0  0  0
 65 77  1  0  0  0  0
 68 69  1  0  0  0  0
M  CHG  2  77   1  78   1
M  ISO  4  37 100  62 101  76 100  85 101
M  END
> <Batch ID>
0042

> <Smiles>
CNC(C)C(=O)NC(C(=O)N1Cc2cc([101O:1][101CH2:1]CCNC(C)c3cnc(CCC[100NH:0][100C:0](=O)N4CCCC(n5nc(-c6ccc(Oc7ccc(F)cc7F)cc6)c(C(N)=O)c5N)C4)cc3C)ccc2CC1C(=O)NC1CCCc2ccccc21)C(C)(C)C

> <Shape>
0.202

> <Color>
0.061

> <Negative vol penalty>
0.000

$$$$

  -OEChem-04052317123D

 82 90  0     1  0  0  0  0  0999 V2000
  -22.3583  -32.8851   25.2179 C   0  0  0  0  0  0  0  0  0  0  0  0
  -23.3634  -32.0115   24.8153 C   0  0  0  0  0  0  0  0  0  0  0  0
  -25.6241  -14.9156   22.4401 C   0  0  0  0  0  0  0  0  0  0  0  0
  -25.4947  -14.2447   20.1227 C   0  0  0  0  0  0  0  0  0  0  0  0
  -21.0234  -32.4881   25.1518 C   0  0  0  0  0  0  0  0  0  0  0  0
  -23.0341  -30.7398   24.3474 C   0  0  0  0  0  0  0  0  0  0  0  0
  -25.5967  -29.4855   20.1635 C   0  0  0  0  0  0  0  0  0  0  0  0
  -24.6453  -13.9770   22.7665 C   0  0  0  0  0  0  0  0  0  0  0  0
  -24.5159  -13.3060   20.4491 C   0  0  0  0  0  0  0  0  0  0  0  0
  -26.9193  -29.0755   20.3259 C   0  0  0  0  0  0  0  0  0  0  0  0
  -24.3858  -10.2177   21.8152 C   0  0  0  0  0  0  0  0  0  0  0  0
  -24.5067   -8.9405   21.2678 C   0  0  0  0  0  0  0  0  0  0  0  0
  -26.2217  -26.7735   20.1428 C   0  0  0  0  0  0  0  0  0  0  0  0
  -22.3649   -9.2036   20.1811 C   0  0  0  0  0  0  0  0  0  0  0  0
  -30.5280  -24.2450   17.8036 C   0  0  0  0  0  0  0  0  0  0  0  0
  -26.0488  -15.0495   21.1182 C   0  0  0  0  0  0  0  0  0  0  0  0
  -28.4532  -15.8224   20.7593 C   0  0  0  0  0  0  0  0  0  0  0  0
  -20.6770  -31.2145   24.6738 C   0  0  0  0  0  0  0  0  0  0  0  0
  -24.5735  -28.5406   20.0002 C   0  0  0  0  0  0  0  0  0  0  0  0
  -21.6934  -30.3249   24.2761 C   0  0  0  0  0  0  0  0  0  0  0  0
  -24.8873  -27.1742   19.9760 C   0  0  0  0  0  0  0  0  0  0  0  0
  -30.0347  -24.6254   16.5722 C   0  0  0  0  0  0  0  0  0  0  0  0
  -24.0912  -13.1722   21.7710 C   0  0  0  0  0  0  0  0  0  0  0  0
  -27.2316  -27.7192   20.3184 C   0  0  0  0  0  0  0  0  0  0  0  0
  -23.2544  -10.9879   21.5456 C   0  0  0  0  0  0  0  0  0  0  0  0
  -23.4963   -8.4334   20.4507 C   0  0  0  0  0  0  0  0  0  0  0  0
  -22.2440  -10.4808   20.7286 C   0  0  0  0  0  0  0  0  0  0  0  0
  -27.0595  -16.0193   20.7803 C   0  0  0  0  0  0  0  0  0  0  0  0
  -29.8031  -25.9764   16.4133 C   0  0  0  0  0  0  0  0  0  0  0  0
  -28.9660  -17.0382   20.3778 C   0  0  0  0  0  0  0  0  0  0  0  0
  -30.5129  -26.3985   18.5311 C   0  0  0  0  0  0  0  0  0  0  0  0
  -29.2162  -14.6458   21.0578 C   0  0  0  0  0  0  0  0  0  0  0  0
  -21.9667  -27.7513   21.6389 C   0  0  0  0  0  0  0  0  0  0  0  0
  -21.4213  -25.8220   19.0889 C   0  0  0  0  0  0  0  0  0  0  0  0
  -22.6987  -24.0937   16.4379 C   0  0  0  0  0  0  0  0  0  0  0  0
  -27.7744  -21.3377   16.8414 C   0  0  0  0  0  0  0  0  0  0  0  0
  -19.2233  -30.8129   24.6652 C   0  0  0  0  0  0  0  0  0  0  0  0
  -23.1554  -29.0002   19.7996 C   0  0  0  0  0  0  0  0  0  0  0  0
  -23.8283  -26.1207   19.7837 C   0  0  0  0  0  0  0  0  0  0  0  0
  -18.9356  -29.5851   23.8050 C   0  0  0  0  0  0  0  0  0  0  0  0
  -27.2933  -21.6916   20.4108 C   0  0  0  0  0  0  0  0  0  0  0  0
  -19.9541  -28.4851   24.0870 C   0  0  0  0  0  0  0  0  0  0  0  0
  -27.3210  -20.2320   20.8676 C   0  0  0  0  0  0  0  0  0  0  0  0
  -26.5901  -21.8362   19.0643 C   0  0  0  0  0  0  0  0  0  0  0  0
  -27.1878  -19.5303   18.4325 C   0  0  0  0  0  0  0  0  0  0  0  0
  -21.3747  -28.9463   23.7395 C   0  0  1  0  0  0  0  0  0  0  0  0
  -22.1253  -27.9328   20.1558 C   0  0  1  0  0  0  0  0  0  0  0  0
  -27.9056  -19.3146   19.7773 C   0  0  2  0  0  0  0  0  0  0  0  0
  -29.2697  -26.5037   15.1222 C   0  0  0  0  0  0  0  0  0  0  0  0
  -22.0119  -22.5797   14.5581 C   0  0  0  0  0  0  0  0  0  0  0  0
  -21.1411  -23.5081   21.0581 C   0  0  0  0  0  0  0  0  0  0  0  0
  -21.4095  -21.9293   19.1337 C   0  0  0  0  0  0  0  0  0  0  0  0
  -19.4728  -23.5003   19.1950 C   0  0  0  0  0  0  0  0  0  0  0  0
  -23.6609  -26.0046   14.3930 C   0  0  0  0  0  0  0  0  0  0  0  0
  -29.7780  -23.6255   15.5046 C   0  0  0  0  0  0  0  0  0  0  0  0
  -30.7824  -27.3955   19.6318 C   0  0  0  0  0  0  0  0  0  0  0  0
  -28.2968  -23.2501   15.3491 C   0  0  0  0  0  0  0  0  0  0  0  0
  -29.5401  -28.1971   20.0050 C   0  0  0  0  0  0  0  0  0  1  0  0
  -21.7868  -24.4034   18.7241 C   0  0  1  0  0  0  0  0  0  0  0  0
  -22.2687  -24.0169   14.9840 C   0  0  2  0  0  0  0  0  0  0  0  0
  -20.9725  -23.3548   19.5333 C   0  0  0  0  0  0  0  0  0  0  0  0
  -30.7797  -25.1083   18.8095 N   0  0  0  0  0  0  0  0  0  0  0  0
  -26.7090  -17.2623   20.4395 N   0  0  0  0  0  0  0  0  0  0  0  0
  -30.0316  -26.8944   17.3752 N   0  0  0  0  0  0  0  0  0  0  0  0
  -27.8901  -17.8575   20.2007 N   0  0  0  0  0  0  0  0  0  0  0  0
  -22.4557  -26.6199   19.5979 N   0  0  0  0  0  0  0  0  0  0  0  0
  -27.2063  -20.9505   18.0664 N   0  0  0  0  0  0  0  0  0  0  0  0
  -30.2277  -17.4757   20.1800 N   0  0  0  0  0  0  0  0  0  0  0  0
  -28.5308  -13.4825   21.4336 N   0  0  0  0  0  0  0  0  0  0  0  0
  -21.5857  -28.8985   22.3085 N   0  0  0  0  0  0  0  0  0  0  0  0
  -21.6248  -24.2992   17.2780 N   0  0  0  0  0  0  0  0  0  0  0  0
  -27.7455  -22.6996   16.5673 N   0  0  0  0  0  0  0  0  0  0  0  0
  -23.3246  -24.5874   14.1007 N   0  3  0  0  0  0  0  0  0  0  0  0
  -30.4696  -14.6312   21.0091 O   0  0  0  0  0  0  0  0  0  0  0  0
  -22.1731  -26.6516   22.1386 O   0  0  0  0  0  0  0  0  0  0  0  0
  -20.2624  -26.2100   18.9216 O   0  0  0  0  0  0  0  0  0  0  0  0
  -23.8697  -23.9789   16.7931 O   0  0  0  0  0  0  0  0  0  0  0  0
  -28.2756  -20.5297   16.0520 O   0  0  0  0  0  0  0  0  0  0  0  0
  -23.1363  -12.2560   22.0892 O   0  0  0  0  0  0  0  0  0  0  0  0
  -28.5216  -27.3162   20.4773 O   0  0  0  0  0  0  0  0  0  1  0  0
  -23.6132   -7.2075   19.9238 F   0  0  0  0  0  0  0  0  0  0  0  0
  -21.1554  -11.2164   20.4651 F   0  0  0  0  0  0  0  0  0  0  0  0
  1  2  1  0  0  0  0
  1  5  2  0  0  0  0
  2  6  2  0  0  0  0
  3  8  2  0  0  0  0
  3 16  1  0  0  0  0
  4  9  1  0  0  0  0
  4 16  2  0  0  0  0
  5 18  1  0  0  0  0
  6 20  1  0  0  0  0
  7 10  2  0  0  0  0
  7 19  1  0  0  0  0
  8 23  1  0  0  0  0
  9 23  2  0  0  0  0
 10 24  1  0  0  0  0
 11 12  2  0  0  0  0
 11 25  1  0  0  0  0
 12 26  1  0  0  0  0
 13 21  1  0  0  0  0
 13 24  2  0  0  0  0
 14 26  2  0  0  0  0
 14 27  1  0  0  0  0
 15 22  1  0  0  0  0
 15 62  2  0  0  0  0
 16 28  1  0  0  0  0
 17 28  1  0  0  0  0
 17 30  2  0  0  0  0
 17 32  1  0  0  0  0
 18 20  2  0  0  0  0
 18 37  1  0  0  0  0
 19 21  2  0  0  0  0
 19 38  1  0  0  0  0
 20 46  1  0  0  0  0
 21 39  1  0  0  0  0
 22 29  2  0  0  0  0
 22 55  1  0  0  0  0
 23 79  1  0  0  0  0
 24 80  1  0  0  0  0
 25 27  2  0  0  0  0
 25 79  1  0  0  0  0
 26 81  1  0  0  0  0
 27 82  1  0  0  0  0
 28 63  2  0  0  0  0
 29 49  1  0  0  0  0
 29 64  1  0  0  0  0
 30 65  1  0  0  0  0
 30 68  1  0  0  0  0
 31 56  1  0  0  0  0
 31 62  1  0  0  0  0
 31 64  2  0  0  0  0
 32 69  1  0  0  0  0
 32 74  2  0  0  0  0
 33 47  1  0  0  0  0
 33 70  1  0  0  0  0
 33 75  2  0  0  0  0
 34 59  1  0  0  0  0
 34 66  1  0  0  0  0
 34 76  2  0  0  0  0
 35 60  1  0  0  0  0
 35 71  1  0  0  0  0
 35 77  2  0  0  0  0
 36 67  1  0  0  0  0
 36 72  1  0  0  0  0
 36 78  2  0  0  0  0
 37 40  1  0  0  0  0
 38 47  1  0  0  0  0
 39 66  1  0  0  0  0
 40 42  1  0  0  0  0
 41 43  1  0  0  0  0
 41 44  1  0  0  0  0
 42 46  1  0  0  0  0
 43 48  1  0  0  0  0
 44 67  1  0  0  0  0
 45 48  1  0  0  0  0
 45 67  1  0  0  0  0
 46 70  1  0  0  0  0
 47 66  1  0  0  0  0
 48 65  1  0  0  0  0
 50 60  1  0  0  0  0
 51 61  1  0  0  0  0
 52 61  1  0  0  0  0
 53 61  1  0  0  0  0
 54 73  1  0  0  0  0
 55 57  1  0  0  0  0
 56 58  1  0  0  0  0
 57 72  1  0  0  0  0
 58 80  1  0  0  0  0
 59 61  1  0  0  0  0
 59 71  1  0  0  0  0
 60 73  1  0  0  0  0
 63 65  1  0  0  0  0
M  CHG  1  73   1
M  ISO  4  36 100  58 101  72 100  80 101
M  END
> <Batch ID>
0042

> <Smiles>
CNC(C)C(=O)NC(C(=O)N1Cc2cc([101O:1][101CH2:1]Cc3ncc(CC[100NH:0][100C:0](=O)N4CCCC(n5nc(-c6ccc(Oc7ccc(F)cc7F)cc6)c(C(N)=O)c5N)C4)c(C)n3)ccc2CC1C(=O)NC1CCCc2ccccc21)C(C)(C)C

> <Shape>
0.251

> <Color>
0.092

> <Negative vol penalty>
0.000

$$$$

  -OEChem-04052317123D

 85 93  0     1  0  0  0  0  0999 V2000
  -26.5160  -35.2092   24.0583 C   0  0  0  0  0  0  0  0  0  0  0  0
  -26.9966  -33.9588   23.6831 C   0  0  0  0  0  0  0  0  0  0  0  0
  -23.5823  -16.1936   22.5694 C   0  0  0  0  0  0  0  0  0  0  0  0
  -25.0215  -15.0083   24.1060 C   0  0  0  0  0  0  0  0  0  0  0  0
  -25.2195  -35.3360   24.5553 C   0  0  0  0  0  0  0  0  0  0  0  0
  -26.1813  -32.8342   23.8056 C   0  0  0  0  0  0  0  0  0  0  0  0
  -26.3644  -29.8476   19.7201 C   0  0  0  0  0  0  0  0  0  0  0  0
  -23.1828  -17.0445   23.5999 C   0  0  0  0  0  0  0  0  0  0  0  0
  -24.6220  -15.8593   25.1365 C   0  0  0  0  0  0  0  0  0  0  0  0
  -27.4768  -29.0177   19.5873 C   0  0  0  0  0  0  0  0  0  0  0  0
  -24.4189  -19.7394   25.2254 C   0  0  0  0  0  0  0  0  0  0  0  0
  -24.3704  -21.1069   24.9549 C   0  0  0  0  0  0  0  0  0  0  0  0
  -26.1855  -27.1622   20.4292 C   0  0  0  0  0  0  0  0  0  0  0  0
  -22.0109  -21.1260   25.4740 C   0  0  0  0  0  0  0  0  0  0  0  0
  -24.5016  -15.1754   22.8225 C   0  0  0  0  0  0  0  0  0  0  0  0
  -24.0942  -13.4472   20.9908 C   0  0  0  0  0  0  0  0  0  0  0  0
  -24.3846  -34.2139   24.6749 C   0  0  0  0  0  0  0  0  0  0  0  0
  -25.1552  -29.3426   20.2195 C   0  0  0  0  0  0  0  0  0  0  0  0
  -24.8729  -32.9459   24.3059 C   0  0  0  0  0  0  0  0  0  0  0  0
  -25.0585  -27.9871   20.5649 C   0  0  0  0  0  0  0  0  0  0  0  0
  -23.7027  -16.8774   24.8835 C   0  0  0  0  0  0  0  0  0  0  0  0
  -27.3883  -27.6755   19.9446 C   0  0  0  0  0  0  0  0  0  0  0  0
  -23.2633  -19.0652   25.6202 C   0  0  0  0  0  0  0  0  0  0  0  0
  -23.1665  -21.8002   25.0792 C   0  0  0  0  0  0  0  0  0  0  0  0
  -22.0594  -19.7585   25.7445 C   0  0  0  0  0  0  0  0  0  0  0  0
  -24.9142  -14.2957   21.7585 C   0  0  0  0  0  0  0  0  0  0  0  0
  -24.9588  -12.8290   20.1209 C   0  0  0  0  0  0  0  0  0  0  0  0
  -22.6776  -13.2368   21.0579 C   0  0  0  0  0  0  0  0  0  0  0  0
  -23.3471  -29.9564   22.7607 C   0  0  0  0  0  0  0  0  0  0  0  0
  -30.3406  -14.4419   17.9884 C   0  0  0  0  0  0  0  0  0  0  0  0
  -21.3130  -27.8730   21.3309 C   0  0  0  0  0  0  0  0  0  0  0  0
  -21.5649  -24.7277   19.5814 C   0  0  0  0  0  0  0  0  0  0  0  0
  -23.0069  -34.3934   25.2617 C   0  0  0  0  0  0  0  0  0  0  0  0
  -23.9568  -30.2446   20.3315 C   0  0  0  0  0  0  0  0  0  0  0  0
  -23.7775  -27.3913   21.0870 C   0  0  0  0  0  0  0  0  0  0  0  0
  -22.0780  -33.2087   25.0086 C   0  0  0  0  0  0  0  0  0  0  0  0
  -30.8287  -24.8915   18.9342 C   0  0  0  0  0  0  0  0  0  0  0  0
  -29.5044  -11.4171   19.7180 C   0  0  0  0  0  0  0  0  0  0  0  0
  -22.7923  -31.8957   25.3128 C   0  0  0  0  0  0  0  0  0  0  0  0
  -30.7601  -23.6194   18.0883 C   0  0  0  0  0  0  0  0  0  0  0  0
  -28.2345  -23.8294   17.5915 C   0  0  0  0  0  0  0  0  0  0  0  0
  -28.1721  -11.7448   20.3908 C   0  0  0  0  0  0  0  0  0  0  0  0
  -30.1276  -26.0770   18.2731 C   0  0  0  0  0  0  0  0  0  0  0  0
  -27.8545  -24.8699   18.6407 C   0  0  0  0  0  0  0  0  0  0  0  0
  -30.4223  -12.6348   19.6742 C   0  0  0  0  0  0  0  0  0  0  0  0
  -28.4773  -14.1639   19.6979 C   0  0  0  0  0  0  0  0  0  0  0  0
  -24.0103  -31.7061   24.4006 C   0  0  1  0  0  0  0  0  0  0  0  0
  -22.9231  -29.7430   21.3351 C   0  0  1  0  0  0  0  0  0  0  0  0
  -29.3921  -22.9233   18.0435 C   0  0  1  0  0  0  0  0  0  0  0  0
  -27.5083  -12.9689   19.7355 C   0  0  2  0  0  0  0  0  0  0  0  0
  -28.6328  -26.1827   18.5688 C   0  0  1  0  0  0  0  0  0  1  0  0
  -20.0813  -23.7107   17.8316 C   0  0  0  0  0  0  0  0  0  0  0  0
  -19.9701  -26.4825   23.6917 C   0  0  0  0  0  0  0  0  0  0  0  0
  -19.7382  -24.4377   22.2657 C   0  0  0  0  0  0  0  0  0  0  0  0
  -18.5956  -26.5541   21.6036 C   0  0  0  0  0  0  0  0  0  0  0  0
  -23.8204  -24.4002   17.6935 C   0  0  0  0  0  0  0  0  0  0  0  0
  -30.0131  -17.7710   14.3213 C   0  0  0  0  0  0  0  0  0  0  0  0
  -29.5840  -15.6122   17.4121 C   0  0  0  0  0  0  0  0  0  0  0  0
  -29.4803  -21.7024   17.1195 C   0  0  0  0  0  0  0  0  0  0  0  0
  -28.3772  -20.6990   17.4358 C   0  0  0  0  0  0  0  0  0  0  0  0
  -28.4190  -19.4594   16.5352 C   0  0  0  0  0  0  0  0  0  0  0  0
  -30.3411  -16.2329   16.2519 C   0  0  0  0  0  0  0  0  0  0  0  0
  -29.6721  -18.5990   16.6452 C   0  0  0  0  0  0  0  0  0  0  0  0
  -21.1074  -26.3781   21.3761 C   0  0  1  0  0  0  0  0  0  0  0  0
  -21.3571  -24.4950   18.0957 C   0  0  2  0  0  0  0  0  0  0  0  0
  -19.8784  -25.9747   22.2388 C   0  0  0  0  0  0  0  0  0  0  0  0
  -26.2010  -14.2254   21.4074 N   0  0  0  0  0  0  0  0  0  0  0  0
  -26.1961  -13.3252   20.4095 N   0  0  0  0  0  0  0  0  0  0  0  0
  -22.6354  -28.3152   21.1843 N   0  0  0  0  0  0  0  0  0  0  0  0
  -29.7476  -13.7824   19.0651 N   0  0  0  0  0  0  0  0  0  0  0  0
  -24.7739  -11.9148   19.1450 N   0  0  0  0  0  0  0  0  0  0  0  0
  -22.1907  -12.2324   21.9056 N   0  0  0  0  0  0  0  0  0  0  0  0
  -23.5930  -31.2774   23.0829 N   0  0  0  0  0  0  0  0  0  0  0  0
  -21.0351  -25.9338   19.9884 N   0  0  0  0  0  0  0  0  0  0  0  0
  -22.5038  -23.7329   17.5254 N   0  3  0  0  0  0  0  0  0  0  0  0
  -29.5908  -17.4358   15.7318 N   0  3  1  0  0  0  0  0  0  0  0  0
  -21.8685  -13.9081   20.3737 O   0  0  0  0  0  0  0  0  0  0  0  0
  -23.4426  -28.9939   23.5131 O   0  0  0  0  0  0  0  0  0  0  0  0
  -31.4247  -14.1231   17.4931 O   0  0  0  0  0  0  0  0  0  0  0  0
  -20.3355  -28.6207   21.4152 O   0  0  0  0  0  0  0  0  0  0  0  0
  -22.1365  -23.9186   20.3088 O   0  0  0  0  0  0  0  0  0  0  0  0
  -23.3133  -17.7077   25.8892 O   0  0  0  0  0  0  0  0  0  0  0  0
  -28.4728  -26.8634   19.8167 O   0  0  0  0  0  0  0  0  0  1  0  0
  -23.1204  -23.1137   24.8209 F   0  0  0  0  0  0  0  0  0  0  0  0
  -20.9462  -19.1164   26.1245 F   0  0  0  0  0  0  0  0  0  0  0  0
  1  2  1  0  0  0  0
  1  5  2  0  0  0  0
  2  6  2  0  0  0  0
  3  8  2  0  0  0  0
  3 15  1  0  0  0  0
  4  9  1  0  0  0  0
  4 15  2  0  0  0  0
  5 17  1  0  0  0  0
  6 19  1  0  0  0  0
  7 10  2  0  0  0  0
  7 18  1  0  0  0  0
  8 21  1  0  0  0  0
  9 21  2  0  0  0  0
 10 22  1  0  0  0  0
 11 12  2  0  0  0  0
 11 23  1  0  0  0  0
 12 24  1  0  0  0  0
 13 20  1  0  0  0  0
 13 22  2  0  0  0  0
 14 24  2  0  0  0  0
 14 25  1  0  0  0  0
 15 26  1  0  0  0  0
 16 26  1  0  0  0  0
 16 27  2  0  0  0  0
 16 28  1  0  0  0  0
 17 19  2  0  0  0  0
 17 33  1  0  0  0  0
 18 20  2  0  0  0  0
 18 34  1  0  0  0  0
 19 47  1  0  0  0  0
 20 35  1  0  0  0  0
 21 82  1  0  0  0  0
 22 83  1  0  0  0  0
 23 25  2  0  0  0  0
 23 82  1  0  0  0  0
 24 84  1  0  0  0  0
 25 85  1  0  0  0  0
 26 67  2  0  0  0  0
 27 68  1  0  0  0  0
 27 71  1  0  0  0  0
 28 72  1  0  0  0  0
 28 77  2  0  0  0  0
 29 48  1  0  0  0  0
 29 73  1  0  0  0  0
 29 78  2  0  0  0  0
 30 58  1  0  0  0  0
 30 70  1  0  0  0  0
 30 79  2  0  0  0  0
 31 64  1  0  0  0  0
 31 69  1  0  0  0  0
 31 80  2  0  0  0  0
 32 65  1  0  0  0  0
 32 74  1  0  0  0  0
 32 81  2  0  0  0  0
 33 36  1  0  0  0  0
 34 48  1  0  0  0  0
 35 69  1  0  0  0  0
 36 39  1  0  0  0  0
 37 40  1  0  0  0  0
 37 43  1  0  0  0  0
 38 42  1  0  0  0  0
 38 45  1  0  0  0  0
 39 47  1  0  0  0  0
 40 49  1  0  0  0  0
 41 44  1  0  0  0  0
 41 49  1  0  0  0  0
 42 50  1  0  0  0  0
 43 51  1  0  0  0  0
 44 51  1  0  0  0  0
 45 70  1  0  0  0  0
 46 50  1  0  0  0  0
 46 70  1  0  0  0  0
 47 73  1  0  0  0  0
 48 69  1  0  0  0  0
 49 59  1  0  0  0  0
 50 68  1  0  0  0  0
 51 83  1  0  0  0  0
 52 65  1  0  0  0  0
 53 66  1  0  0  0  0
 54 66  1  0  0  0  0
 55 66  1  0  0  0  0
 56 75  1  0  0  0  0
 57 76  1  0  0  0  0
 58 62  1  0  0  0  0
 59 60  1  0  0  0  0
 60 61  1  0  0  0  0
 61 63  1  0  0  0  0
 62 76  1  0  0  0  0
 63 76  1  0  0  0  0
 64 66  1  0  0  0  0
 64 74  1  0  0  0  0
 65 75  1  0  0  0  0
 67 68  1  0  0  0  0
M  CHG  2  75   1  76   1
M  ISO  4  30 100  51 101  58 100  83 101
M  END
> <Batch ID>
0042

> <Smiles>
CNC(C)C(=O)NC(C(=O)N1Cc2cc([101O:1][101CH:1]3CCCC(CCCCN(C)C[100CH2:0][100C:0](=O)N4CCCC(n5nc(-c6ccc(Oc7ccc(F)cc7F)cc6)c(C(N)=O)c5N)C4)CC3)ccc2CC1C(=O)NC1CCCc2ccccc21)C(C)(C)C

> <Shape>
0.258

> <Color>
0.110

> <Negative vol penalty>
0.000

$$$$

  -OEChem-04052317123D

 86 94  0     1  0  0  0  0  0999 V2000
  -27.4632  -18.6685   18.4050 C   0  0  0  0  0  0  0  0  0  0  0  0
  -28.1800  -18.0615   19.4313 C   0  0  0  0  0  0  0  0  0  0  0  0
  -23.0847   -9.8707   19.9431 C   0  0  0  0  0  0  0  0  0  0  0  0
  -23.7011   -9.9601   22.2774 C   0  0  0  0  0  0  0  0  0  0  0  0
  -26.9148  -19.9363   18.5944 C   0  0  0  0  0  0  0  0  0  0  0  0
  -28.3497  -18.7225   20.6473 C   0  0  0  0  0  0  0  0  0  0  0  0
  -27.5569  -15.6973   24.6303 C   0  0  0  0  0  0  0  0  0  0  0  0
  -22.3259   -8.7261   20.1872 C   0  0  0  0  0  0  0  0  0  0  0  0
  -22.9423   -8.8155   22.5216 C   0  0  0  0  0  0  0  0  0  0  0  0
  -28.5811  -14.8162   24.9745 C   0  0  0  0  0  0  0  0  0  0  0  0
  -23.2646   -5.4762   22.1015 C   0  0  0  0  0  0  0  0  0  0  0  0
  -23.8337   -4.4779   22.8921 C   0  0  0  0  0  0  0  0  0  0  0  0
  -29.2794  -16.3216   26.7253 C   0  0  0  0  0  0  0  0  0  0  0  0
  -34.3951  -16.4161   25.2647 C   0  0  0  0  0  0  0  0  0  0  0  0
  -22.0300   -4.7095   24.4828 C   0  0  0  0  0  0  0  0  0  0  0  0
  -23.7724  -10.4877   20.9881 C   0  0  0  0  0  0  0  0  0  0  0  0
  -24.1229  -13.0075   20.8000 C   0  0  0  0  0  0  0  0  0  0  0  0
  -27.0697  -20.6091   19.8167 C   0  0  0  0  0  0  0  0  0  0  0  0
  -27.3927  -16.9042   25.3251 C   0  0  0  0  0  0  0  0  0  0  0  0
  -27.8041  -20.0011   20.8528 C   0  0  0  0  0  0  0  0  0  0  0  0
  -28.2508  -17.2151   26.3897 C   0  0  0  0  0  0  0  0  0  0  0  0
  -33.7030  -15.3442   24.6491 C   0  0  0  0  0  0  0  0  0  0  0  0
  -22.2547   -8.1985   21.4765 C   0  0  0  0  0  0  0  0  0  0  0  0
  -29.4443  -15.1296   26.0203 C   0  0  0  0  0  0  0  0  0  0  0  0
  -22.0783   -6.0913   22.5016 C   0  0  0  0  0  0  0  0  0  0  0  0
  -23.2164   -4.0945   24.0827 C   0  0  0  0  0  0  0  0  0  0  0  0
  -21.4610   -5.7079   23.6922 C   0  0  0  0  0  0  0  0  0  0  0  0
  -24.5568  -11.6698   20.7364 C   0  0  0  0  0  0  0  0  0  0  0  0
  -34.3554  -16.2041   26.6251 C   0  0  0  0  0  0  0  0  0  0  0  0
  -33.2612  -14.5098   25.6521 C   0  0  0  0  0  0  0  0  0  0  0  0
  -25.2360  -13.7452   20.4787 C   0  0  0  0  0  0  0  0  0  0  0  0
  -22.8293  -13.5361   21.1209 C   0  0  0  0  0  0  0  0  0  0  0  0
  -27.5141  -19.9811   24.5363 C   0  0  0  0  0  0  0  0  0  0  0  0
  -26.5139  -20.4031   27.5931 C   0  0  0  0  0  0  0  0  0  0  0  0
  -26.3108  -19.1749   30.7707 C   0  0  0  0  0  0  0  0  0  0  0  0
  -30.5695  -14.8143   21.0768 C   0  0  0  0  0  0  0  0  0  0  0  0
  -26.4991  -21.9980   19.9582 C   0  0  0  0  0  0  0  0  0  0  0  0
  -26.2664  -17.8315   24.9589 C   0  0  0  0  0  0  0  0  0  0  0  0
  -28.1045  -18.4886   27.1803 C   0  0  0  0  0  0  0  0  0  0  0  0
  -26.4053  -22.4734   21.4058 C   0  0  0  0  0  0  0  0  0  0  0  0
  -29.7120  -12.3107   18.6082 C   0  0  0  0  0  0  0  0  0  0  0  0
  -27.7053  -22.1821   22.1486 C   0  0  0  0  0  0  0  0  0  0  0  0
  -28.2478  -12.0325   18.9531 C   0  0  0  0  0  0  0  0  0  0  0  0
  -30.5406  -12.5498   19.8669 C   0  0  0  0  0  0  0  0  0  0  0  0
  -28.5622  -13.3607   21.0924 C   0  0  0  0  0  0  0  0  0  0  0  0
  -27.9887  -20.6758   22.1947 C   0  0  1  0  0  0  0  0  0  0  0  0
  -26.5103  -19.2713   25.4002 C   0  0  1  0  0  0  0  0  0  0  0  0
  -27.6671  -13.1329   19.8608 C   0  0  2  0  0  0  0  0  0  0  0  0
  -34.9197  -17.0121   27.7258 C   0  0  0  0  0  0  0  0  0  0  0  0
  -25.4696  -19.7642   33.0603 C   0  0  0  0  0  0  0  0  0  0  0  0
  -34.0128  -12.7201   29.8974 C   0  0  0  0  0  0  0  0  0  0  0  0
  -35.7854  -13.7614   28.4692 C   0  0  0  0  0  0  0  0  0  0  0  0
  -28.8829  -22.2875   27.9758 C   0  0  0  0  0  0  0  0  0  0  0  0
  -28.5531  -22.0873   30.4495 C   0  0  0  0  0  0  0  0  0  0  0  0
  -26.7513  -23.0645   29.0279 C   0  0  0  0  0  0  0  0  0  0  0  0
  -24.4621  -16.8642   30.8129 C   0  0  0  0  0  0  0  0  0  0  0  0
  -33.4980  -15.1619   23.1983 C   0  0  0  0  0  0  0  0  0  0  0  0
  -32.4743  -13.2243   25.5717 C   0  0  0  0  0  0  0  0  0  0  0  0
  -32.8159  -16.3515   22.4806 C   0  0  0  0  0  0  0  0  0  0  0  0
  -33.3982  -14.4672   28.1509 C   0  0  0  0  0  0  0  0  0  0  0  0
  -32.6520  -16.1596   20.9744 C   0  0  0  0  0  0  0  0  0  0  0  0
  -30.9913  -13.4675   25.3132 C   0  0  0  0  0  0  0  0  0  1  0  0
  -27.1981  -20.5781   28.9273 C   0  0  1  0  0  0  0  0  0  0  0  0
  -25.1474  -19.0794   31.7412 C   0  0  2  0  0  0  0  0  0  0  0  0
  -34.3284  -13.2966   28.5155 C   0  0  0  0  0  0  0  0  0  0  0  0
  -27.8506  -21.9812   29.0792 C   0  0  0  0  0  0  0  0  0  0  0  0
  -25.8451  -11.5610   20.4009 N   0  0  0  0  0  0  0  0  0  0  0  0
  -33.6633  -15.0426   26.8490 N   0  0  0  0  0  0  0  0  0  0  0  0
  -26.2302  -12.8398   20.2507 N   0  0  0  0  0  0  0  0  0  0  0  0
  -26.9919  -19.3657   26.7799 N   0  0  0  0  0  0  0  0  0  0  0  0
  -29.9446  -13.6213   20.6773 N   0  0  0  0  0  0  0  0  0  0  0  0
  -25.4515  -15.0736   20.3716 N   0  0  0  0  0  0  0  0  0  0  0  0
  -21.7977  -12.6380   21.4269 N   0  0  0  0  0  0  0  0  0  0  0  0
  -27.1665  -20.0373   23.2001 N   0  0  0  0  0  0  0  0  0  0  0  0
  -26.1966  -20.2718   29.9429 N   0  0  0  0  0  0  0  0  0  0  0  0
  -31.8806  -14.9809   20.6478 N   0  0  0  0  0  0  0  0  0  0  0  0
  -24.8212  -17.6522   32.0199 N   0  3  0  0  0  0  0  0  0  0  0  0
  -22.5909  -14.7676   21.1198 O   0  0  0  0  0  0  0  0  0  0  0  0
  -28.5282  -20.4447   25.0446 O   0  0  0  0  0  0  0  0  0  0  0  0
  -25.5847  -21.1544   27.2868 O   0  0  0  0  0  0  0  0  0  0  0  0
  -27.2308  -18.3602   30.7514 O   0  0  0  0  0  0  0  0  0  0  0  0
  -29.9992  -15.6708   21.7612 O   0  0  0  0  0  0  0  0  0  0  0  0
  -21.5141   -7.0817   21.7152 O   0  0  0  0  0  0  0  0  0  0  0  0
  -30.4453  -14.2717   26.3579 O   0  0  0  0  0  0  0  0  0  1  0  0
  -23.7622   -3.1347   24.8411 F   0  0  0  0  0  0  0  0  0  0  0  0
  -20.3205   -6.2942   24.0811 F   0  0  0  0  0  0  0  0  0  0  0  0
  1  2  1  0  0  0  0
  1  5  2  0  0  0  0
  2  6  2  0  0  0  0
  3  8  2  0  0  0  0
  3 16  1  0  0  0  0
  4  9  1  0  0  0  0
  4 16  2  0  0  0  0
  5 18  1  0  0  0  0
  6 20  1  0  0  0  0
  7 10  2  0  0  0  0
  7 19  1  0  0  0  0
  8 23  1  0  0  0  0
  9 23  2  0  0  0  0
 10 24  1  0  0  0  0
 11 12  2  0  0  0  0
 11 25  1  0  0  0  0
 12 26  1  0  0  0  0
 13 21  1  0  0  0  0
 13 24  2  0  0  0  0
 14 22  1  0  0  0  0
 14 29  2  0  0  0  0
 15 26  2  0  0  0  0
 15 27  1  0  0  0  0
 16 28  1  0  0  0  0
 17 28  1  0  0  0  0
 17 31  2  0  0  0  0
 17 32  1  0  0  0  0
 18 20  2  0  0  0  0
 18 37  1  0  0  0  0
 19 21  2  0  0  0  0
 19 38  1  0  0  0  0
 20 46  1  0  0  0  0
 21 39  1  0  0  0  0
 22 30  2  0  0  0  0
 22 57  1  0  0  0  0
 23 83  1  0  0  0  0
 24 84  1  0  0  0  0
 25 27  2  0  0  0  0
 25 83  1  0  0  0  0
 26 85  1  0  0  0  0
 27 86  1  0  0  0  0
 28 67  2  0  0  0  0
 29 49  1  0  0  0  0
 29 68  1  0  0  0  0
 30 58  1  0  0  0  0
 30 68  1  0  0  0  0
 31 69  1  0  0  0  0
 31 72  1  0  0  0  0
 32 73  1  0  0  0  0
 32 78  2  0  0  0  0
 33 47  1  0  0  0  0
 33 74  1  0  0  0  0
 33 79  2  0  0  0  0
 34 63  1  0  0  0  0
 34 70  1  0  0  0  0
 34 80  2  0  0  0  0
 35 64  1  0  0  0  0
 35 75  1  0  0  0  0
 35 81  2  0  0  0  0
 36 71  1  0  0  0  0
 36 76  1  0  0  0  0
 36 82  2  0  0  0  0
 37 40  1  0  0  0  0
 38 47  1  0  0  0  0
 39 70  1  0  0  0  0
 40 42  1  0  0  0  0
 41 43  1  0  0  0  0
 41 44  1  0  0  0  0
 42 46  1  0  0  0  0
 43 48  1  0  0  0  0
 44 71  1  0  0  0  0
 45 48  1  0  0  0  0
 45 71  1  0  0  0  0
 46 74  1  0  0  0  0
 47 70  1  0  0  0  0
 48 69  1  0  0  0  0
 50 64  1  0  0  0  0
 51 65  1  0  0  0  0
 52 65  1  0  0  0  0
 53 66  1  0  0  0  0
 54 66  1  0  0  0  0
 55 66  1  0  0  0  0
 56 77  1  0  0  0  0
 57 59  1  0  0  0  0
 58 62  1  0  0  0  0
 59 61  1  0  0  0  0
 60 65  1  0  0  0  0
 60 68  1  0  0  0  0
 61 76  1  0  0  0  0
 62 84  1  0  0  0  0
 63 66  1  0  0  0  0
 63 75  1  0  0  0  0
 64 77  1  0  0  0  0
 67 69  1  0  0  0  0
M  CHG  1  77   1
M  ISO  4  36 100  62 101  76 100  84 101
M  END
> <Batch ID>
0042

> <Smiles>
CNC(C)C(=O)NC(C(=O)N1Cc2cc([101O:1][101CH2:1]Cc3c(CCC[100NH:0][100C:0](=O)N4CCCC(n5nc(-c6ccc(Oc7ccc(F)cc7F)cc6)c(C(N)=O)c5N)C4)cc(C)n3CC(C)C)ccc2CC1C(=O)NC1CCCc2ccccc21)C(C)(C)C

> <Shape>
0.192

> <Color>
0.180

> <Negative vol penalty>
0.000

$$$$

  -OEChem-04052317123D

 82 90  0     1  0  0  0  0  0999 V2000
  -21.2905  -32.9001   14.8788 C   0  0  0  0  0  0  0  0  0  0  0  0
  -21.4543  -31.5868   15.3076 C   0  0  0  0  0  0  0  0  0  0  0  0
  -24.4490   -9.8379   21.6156 C   0  0  0  0  0  0  0  0  0  0  0  0
  -24.7608  -11.0051   23.7078 C   0  0  0  0  0  0  0  0  0  0  0  0
  -22.2628  -33.8549   15.1737 C   0  0  0  0  0  0  0  0  0  0  0  0
  -22.5911  -31.2274   16.0308 C   0  0  0  0  0  0  0  0  0  0  0  0
  -22.9339  -27.0921   20.5350 C   0  0  0  0  0  0  0  0  0  0  0  0
  -24.0872   -8.6852   22.3126 C   0  0  0  0  0  0  0  0  0  0  0  0
  -24.3990   -9.8524   24.4048 C   0  0  0  0  0  0  0  0  0  0  0  0
  -23.3420  -25.7591   20.5555 C   0  0  0  0  0  0  0  0  0  0  0  0
  -21.3530   -7.4912   23.9036 C   0  0  0  0  0  0  0  0  0  0  0  0
  -20.2350   -6.7872   23.4562 C   0  0  0  0  0  0  0  0  0  0  0  0
  -25.5407  -26.4497   21.2684 C   0  0  0  0  0  0  0  0  0  0  0  0
  -21.6113   -4.8362   23.0870 C   0  0  0  0  0  0  0  0  0  0  0  0
  -25.5938  -21.3712   19.7240 C   0  0  0  0  0  0  0  0  0  0  0  0
  -24.7858  -10.9979   22.3132 C   0  0  0  0  0  0  0  0  0  0  0  0
  -24.3071  -13.2162   21.1480 C   0  0  0  0  0  0  0  0  0  0  0  0
  -23.4074  -33.5091   15.9092 C   0  0  0  0  0  0  0  0  0  0  0  0
  -23.8307  -28.1164   20.8711 C   0  0  0  0  0  0  0  0  0  0  0  0
  -23.5802  -32.1782   16.3347 C   0  0  0  0  0  0  0  0  0  0  0  0
  -25.1407  -27.7946   21.2539 C   0  0  0  0  0  0  0  0  0  0  0  0
  -24.0622   -8.6924   23.7072 C   0  0  0  0  0  0  0  0  0  0  0  0
  -24.6464  -25.4380   20.9195 C   0  0  0  0  0  0  0  0  0  0  0  0
  -22.6002   -6.8677   23.9425 C   0  0  0  0  0  0  0  0  0  0  0  0
  -20.3641   -5.4597   23.0480 C   0  0  0  0  0  0  0  0  0  0  0  0
  -22.7293   -5.5402   23.5343 C   0  0  0  0  0  0  0  0  0  0  0  0
  -25.1602  -12.1889   21.5938 C   0  0  0  0  0  0  0  0  0  0  0  0
  -26.1172  -20.1074   19.9063 C   0  0  0  0  0  0  0  0  0  0  0  0
  -24.7008  -21.7923   20.6881 C   0  0  0  0  0  0  0  0  0  0  0  0
  -25.1431  -14.1107   20.5254 C   0  0  0  0  0  0  0  0  0  0  0  0
  -24.9189  -19.8321   21.8182 C   0  0  0  0  0  0  0  0  0  0  0  0
  -22.8862  -13.3501   21.2846 C   0  0  0  0  0  0  0  0  0  0  0  0
  -25.0609  -30.6136   19.3368 C   0  0  0  0  0  0  0  0  0  0  0  0
  -26.3059  -31.2978   22.2530 C   0  0  0  0  0  0  0  0  0  0  0  0
  -27.2905  -30.1702   25.3199 C   0  0  0  0  0  0  0  0  0  0  0  0
  -29.8837  -17.0519   20.3795 C   0  0  0  0  0  0  0  0  0  0  0  0
  -24.4537  -34.5653   16.1630 C   0  0  0  0  0  0  0  0  0  0  0  0
  -23.3672  -29.5473   20.8698 C   0  0  0  0  0  0  0  0  0  0  0  0
  -26.1364  -28.8556   21.6431 C   0  0  0  0  0  0  0  0  0  0  0  0
  -25.4490  -34.1862   17.2565 C   0  0  0  0  0  0  0  0  0  0  0  0
  -30.0059  -13.6961   19.1960 C   0  0  0  0  0  0  0  0  0  0  0  0
  -25.9446  -32.7576   17.0555 C   0  0  0  0  0  0  0  0  0  0  0  0
  -28.6892  -13.0884   19.6828 C   0  0  0  0  0  0  0  0  0  0  0  0
  -30.5821  -14.6812   20.2108 C   0  0  0  0  0  0  0  0  0  0  0  0
  -28.3382  -15.1393   21.1213 C   0  0  0  0  0  0  0  0  0  0  0  0
  -24.7876  -31.7550   17.1428 C   0  0  1  0  0  0  0  0  0  0  0  0
  -24.5123  -30.5462   20.7340 C   0  0  1  0  0  0  0  0  0  0  0  0
  -27.6901  -14.1815   20.1069 C   0  0  2  0  0  0  0  0  0  0  0  0
  -24.5464  -18.9793   22.9834 C   0  0  0  0  0  0  0  0  0  0  0  0
  -28.3034  -30.9582   27.4764 C   0  0  0  0  0  0  0  0  0  0  0  0
  -29.0429  -31.4418   20.9121 C   0  0  0  0  0  0  0  0  0  0  0  0
  -30.0862  -31.2785   23.1822 C   0  0  0  0  0  0  0  0  0  0  0  0
  -28.6234  -33.2194   22.6205 C   0  0  0  0  0  0  0  0  0  0  0  0
  -24.9096  -29.3473   26.8733 C   0  0  0  0  0  0  0  0  0  0  0  0
  -27.0922  -19.5655   18.9154 C   0  0  0  0  0  0  0  0  0  0  0  0
  -24.0801  -23.1538   20.5764 C   0  0  0  0  0  0  0  0  0  1  0  0
  -28.5669  -19.8801   19.2345 C   0  0  0  0  0  0  0  0  0  0  0  0
  -29.0369  -19.3746   20.5968 C   0  0  0  0  0  0  0  0  0  0  0  0
  -27.5804  -30.9447   22.9810 C   0  0  1  0  0  0  0  0  0  0  0  0
  -27.0123  -30.6867   26.7200 C   0  0  2  0  0  0  0  0  0  0  0  0
  -28.8152  -31.7010   22.4148 C   0  0  0  0  0  0  0  0  0  0  0  0
  -26.4399  -12.4091   21.2808 N   0  0  0  0  0  0  0  0  0  0  0  0
  -25.8006  -19.3077   20.9458 N   0  0  0  0  0  0  0  0  0  0  0  0
  -24.3392  -21.0459   21.7523 N   0  0  0  0  0  0  0  0  0  0  0  0
  -26.3971  -13.5850   20.6316 N   0  0  0  0  0  0  0  0  0  0  0  0
  -25.6372  -30.2404   21.6201 N   0  0  0  0  0  0  0  0  0  0  0  0
  -29.5851  -15.6926   20.5697 N   0  0  0  0  0  0  0  0  0  0  0  0
  -24.9204  -15.2876   19.9028 N   0  0  0  0  0  0  0  0  0  0  0  0
  -22.1811  -12.3396   21.9526 N   0  0  0  0  0  0  0  0  0  0  0  0
  -24.4188  -31.5279   18.5237 N   0  0  0  0  0  0  0  0  0  0  0  0
  -27.3246  -31.1929   24.3957 N   0  0  0  0  0  0  0  0  0  0  0  0
  -28.8813  -17.9441   20.7396 N   0  0  0  0  0  0  0  0  0  0  0  0
  -26.2165  -29.6902   27.4911 N   0  3  0  0  0  0  0  0  0  0  0  0
  -22.2582  -14.3285   20.8135 O   0  0  0  0  0  0  0  0  0  0  0  0
  -25.9985  -29.8908   19.0203 O   0  0  0  0  0  0  0  0  0  0  0  0
  -25.9141  -32.4675   22.2522 O   0  0  0  0  0  0  0  0  0  0  0  0
  -27.4642  -28.9791   25.0716 O   0  0  0  0  0  0  0  0  0  0  0  0
  -30.9617  -17.4412   19.9175 O   0  0  0  0  0  0  0  0  0  0  0  0
  -23.7090   -7.5678   24.3877 O   0  0  0  0  0  0  0  0  0  0  0  0
  -25.0476  -24.1378   20.9397 O   0  0  0  0  0  0  0  0  0  1  0  0
  -19.2902   -4.7833   22.6199 F   0  0  0  0  0  0  0  0  0  0  0  0
  -23.9246   -4.9355   23.5706 F   0  0  0  0  0  0  0  0  0  0  0  0
  1  2  1  0  0  0  0
  1  5  2  0  0  0  0
  2  6  2  0  0  0  0
  3  8  2  0  0  0  0
  3 16  1  0  0  0  0
  4  9  1  0  0  0  0
  4 16  2  0  0  0  0
  5 18  1  0  0  0  0
  6 20  1  0  0  0  0
  7 10  2  0  0  0  0
  7 19  1  0  0  0  0
  8 22  1  0  0  0  0
  9 22  2  0  0  0  0
 10 23  1  0  0  0  0
 11 12  2  0  0  0  0
 11 24  1  0  0  0  0
 12 25  1  0  0  0  0
 13 21  1  0  0  0  0
 13 23  2  0  0  0  0
 14 25  2  0  0  0  0
 14 26  1  0  0  0  0
 15 28  2  0  0  0  0
 15 29  1  0  0  0  0
 16 27  1  0  0  0  0
 17 27  1  0  0  0  0
 17 30  2  0  0  0  0
 17 32  1  0  0  0  0
 18 20  2  0  0  0  0
 18 37  1  0  0  0  0
 19 21  2  0  0  0  0
 19 38  1  0  0  0  0
 20 46  1  0  0  0  0
 21 39  1  0  0  0  0
 22 79  1  0  0  0  0
 23 80  1  0  0  0  0
 24 26  2  0  0  0  0
 24 79  1  0  0  0  0
 25 81  1  0  0  0  0
 26 82  1  0  0  0  0
 27 62  2  0  0  0  0
 28 55  1  0  0  0  0
 28 63  1  0  0  0  0
 29 56  1  0  0  0  0
 29 64  2  0  0  0  0
 30 65  1  0  0  0  0
 30 68  1  0  0  0  0
 31 49  1  0  0  0  0
 31 63  2  0  0  0  0
 31 64  1  0  0  0  0
 32 69  1  0  0  0  0
 32 74  2  0  0  0  0
 33 47  1  0  0  0  0
 33 70  1  0  0  0  0
 33 75  2  0  0  0  0
 34 59  1  0  0  0  0
 34 66  1  0  0  0  0
 34 76  2  0  0  0  0
 35 60  1  0  0  0  0
 35 71  1  0  0  0  0
 35 77  2  0  0  0  0
 36 67  1  0  0  0  0
 36 72  1  0  0  0  0
 36 78  2  0  0  0  0
 37 40  1  0  0  0  0
 38 47  1  0  0  0  0
 39 66  1  0  0  0  0
 40 42  1  0  0  0  0
 41 43  1  0  0  0  0
 41 44  1  0  0  0  0
 42 46  1  0  0  0  0
 43 48  1  0  0  0  0
 44 67  1  0  0  0  0
 45 48  1  0  0  0  0
 45 67  1  0  0  0  0
 46 70  1  0  0  0  0
 47 66  1  0  0  0  0
 48 65  1  0  0  0  0
 50 60  1  0  0  0  0
 51 61  1  0  0  0  0
 52 61  1  0  0  0  0
 53 61  1  0  0  0  0
 54 73  1  0  0  0  0
 55 57  1  0  0  0  0
 56 80  1  0  0  0  0
 57 58  1  0  0  0  0
 58 72  1  0  0  0  0
 59 61  1  0  0  0  0
 59 71  1  0  0  0  0
 60 73  1  0  0  0  0
 62 65  1  0  0  0  0
M  CHG  1  73   1
M  ISO  4  36 100  56 101  72 100  80 101
M  END
> <Batch ID>
0042

> <Smiles>
CNC(C)C(=O)NC(C(=O)N1Cc2cc([101O:1][101CH2:1]c3cc(CCC[100NH:0][100C:0](=O)N4CCCC(n5nc(-c6ccc(Oc7ccc(F)cc7F)cc6)c(C(N)=O)c5N)C4)nc(C)n3)ccc2CC1C(=O)NC1CCCc2ccccc21)C(C)(C)C

> <Shape>
0.237

> <Color>
0.106

> <Negative vol penalty>
0.000

$$$$

  -OEChem-04052317123D

 87 95  0     1  0  0  0  0  0999 V2000
  -18.1623  -28.0712   21.8784 C   0  0  0  0  0  0  0  0  0  0  0  0
  -18.9592  -27.2181   21.1217 C   0  0  0  0  0  0  0  0  0  0  0  0
  -27.3908  -12.6301   21.6273 C   0  0  0  0  0  0  0  0  0  0  0  0
  -26.6597  -14.3550   20.1019 C   0  0  0  0  0  0  0  0  0  0  0  0
  -18.4101  -28.2287   23.2414 C   0  0  0  0  0  0  0  0  0  0  0  0
  -20.0052  -26.5228   21.7274 C   0  0  0  0  0  0  0  0  0  0  0  0
  -21.9702  -20.8900   20.3435 C   0  0  0  0  0  0  0  0  0  0  0  0
  -26.4163  -11.7698   21.1217 C   0  0  0  0  0  0  0  0  0  0  0  0
  -25.6851  -13.4947   19.5961 C   0  0  0  0  0  0  0  0  0  0  0  0
  -23.0324  -20.4319   19.5651 C   0  0  0  0  0  0  0  0  0  0  0  0
  -23.0882  -11.2954   21.4731 C   0  0  0  0  0  0  0  0  0  0  0  0
  -22.3333  -10.5627   22.3890 C   0  0  0  0  0  0  0  0  0  0  0  0
  -24.3874  -20.2201   21.5496 C   0  0  0  0  0  0  0  0  0  0  0  0
  -23.1280   -8.5069   21.3994 C   0  0  0  0  0  0  0  0  0  0  0  0
  -27.5125  -13.9227   21.1175 C   0  0  0  0  0  0  0  0  0  0  0  0
  -29.8400  -14.9651   21.1791 C   0  0  0  0  0  0  0  0  0  0  0  0
  -19.4535  -27.5276   23.8661 C   0  0  0  0  0  0  0  0  0  0  0  0
  -22.1125  -21.0271   21.7318 C   0  0  0  0  0  0  0  0  0  0  0  0
  -20.2680  -26.6721   23.0998 C   0  0  0  0  0  0  0  0  0  0  0  0
  -23.3248  -20.6777   22.3436 C   0  0  0  0  0  0  0  0  0  0  0  0
  -29.4930  -24.0423   21.0374 C   0  0  0  0  0  0  0  0  0  0  0  0
  -25.5635  -12.2020   20.1061 C   0  0  0  0  0  0  0  0  0  0  0  0
  -24.2421  -20.0997   20.1678 C   0  0  0  0  0  0  0  0  0  0  0  0
  -23.8630  -10.6339   20.5203 C   0  0  0  0  0  0  0  0  0  0  0  0
  -22.3532   -9.1685   22.3521 C   0  0  0  0  0  0  0  0  0  0  0  0
  -23.8829   -9.2396   20.4834 C   0  0  0  0  0  0  0  0  0  0  0  0
  -28.5186  -14.8121   21.6398 C   0  0  0  0  0  0  0  0  0  0  0  0
  -29.2894  -23.9655   19.6747 C   0  0  0  0  0  0  0  0  0  0  0  0
  -29.5138  -22.8358   21.7068 C   0  0  0  0  0  0  0  0  0  0  0  0
  -30.3816  -15.9228   22.0012 C   0  0  0  0  0  0  0  0  0  0  0  0
  -29.1592  -21.6982   19.7711 C   0  0  0  0  0  0  0  0  0  0  0  0
  -30.5174  -14.3008   20.1041 C   0  0  0  0  0  0  0  0  0  0  0  0
  -21.9660  -23.4600   23.7722 C   0  0  0  0  0  0  0  0  0  0  0  0
  -22.2539  -21.1102   25.9898 C   0  0  0  0  0  0  0  0  0  0  0  0
  -23.2944  -17.9482   26.7422 C   0  0  0  0  0  0  0  0  0  0  0  0
  -27.9796  -20.3542   25.2330 C   0  0  0  0  0  0  0  0  0  0  0  0
  -19.7127  -27.7665   25.3325 C   0  0  0  0  0  0  0  0  0  0  0  0
  -20.9486  -21.4972   22.5605 C   0  0  0  0  0  0  0  0  0  0  0  0
  -23.5221  -20.7877   23.8327 C   0  0  0  0  0  0  0  0  0  0  0  0
  -20.6051  -26.7069   25.9738 C   0  0  0  0  0  0  0  0  0  0  0  0
  -30.0207  -17.6943   26.4309 C   0  0  0  0  0  0  0  0  0  0  0  0
  -21.8199  -26.4286   25.0943 C   0  0  0  0  0  0  0  0  0  0  0  0
  -29.9865  -16.6678   25.2973 C   0  0  0  0  0  0  0  0  0  0  0  0
  -28.6778  -18.4035   26.5909 C   0  0  0  0  0  0  0  0  0  0  0  0
  -28.1195  -17.9959   24.2253 C   0  0  0  0  0  0  0  0  0  0  0  0
  -21.3965  -25.8816   23.7257 C   0  0  1  0  0  0  0  0  0  0  0  0
  -21.3704  -22.0868   23.9029 C   0  0  1  0  0  0  0  0  0  0  0  0
  -29.4679  -17.2944   23.9890 C   0  0  2  0  0  0  0  0  0  0  0  0
  -31.0811  -25.9166   21.5390 C   0  0  0  0  0  0  0  0  0  0  0  0
  -28.7048  -24.9481   17.4432 C   0  0  0  0  0  0  0  0  0  0  0  0
  -23.4300  -16.3199   28.6468 C   0  0  0  0  0  0  0  0  0  0  0  0
  -24.6142  -22.6612   27.1445 C   0  0  0  0  0  0  0  0  0  0  0  0
  -25.2791  -20.5900   28.3840 C   0  0  0  0  0  0  0  0  0  0  0  0
  -23.0804  -21.6707   28.8535 C   0  0  0  0  0  0  0  0  0  0  0  0
  -21.5723  -15.9898   25.3429 C   0  0  0  0  0  0  0  0  0  0  0  0
  -29.6798  -25.3410   21.7383 C   0  0  0  0  0  0  0  0  0  0  0  0
  -29.2479  -25.2069   18.8454 C   0  0  0  0  0  0  0  0  0  0  0  0
  -29.7255  -22.7935   23.1845 C   0  0  0  0  0  0  0  0  0  0  0  0
  -28.9745  -20.3817   19.0595 C   0  0  0  0  0  0  0  0  0  0  0  0
  -28.4711  -23.1222   24.0165 C   0  0  0  0  0  0  0  0  0  0  0  0
  -27.5228  -20.0875   18.6753 C   0  0  0  0  0  0  0  0  0  0  0  0
  -27.2775  -22.2099   23.7422 C   0  0  0  0  0  0  0  0  0  0  0  0
  -26.5974  -19.9429   19.8778 C   0  0  0  0  0  0  0  0  0  1  0  0
  -23.4100  -20.4255   26.6780 C   0  0  1  0  0  0  0  0  0  0  0  0
  -22.6043  -16.8062   27.4659 C   0  0  2  0  0  0  0  0  0  0  0  0
  -24.0932  -21.3365   27.7367 C   0  0  0  0  0  0  0  0  0  0  0  0
  -28.2378  -15.6088   22.6745 N   0  0  0  0  0  0  0  0  0  0  0  0
  -29.1181  -22.8060   19.0065 N   0  0  0  0  0  0  0  0  0  0  0  0
  -29.3495  -21.6405   21.1030 N   0  0  0  0  0  0  0  0  0  0  0  0
  -29.3903  -16.2715   22.8707 N   0  0  0  0  0  0  0  0  0  0  0  0
  -22.3566  -21.2581   24.5993 N   0  0  0  0  0  0  0  0  0  0  0  0
  -28.2433  -18.9770   25.3148 N   0  0  0  0  0  0  0  0  0  0  0  0
  -31.6042  -16.4923   22.0580 N   0  0  0  0  0  0  0  0  0  0  0  0
  -29.8132  -13.3438   19.3606 N   0  0  0  0  0  0  0  0  0  0  0  0
  -21.0389  -24.4831   23.8290 N   0  0  0  0  0  0  0  0  0  0  0  0
  -22.8828  -19.1760   27.2159 N   0  0  0  0  0  0  0  0  0  0  0  0
  -27.5788  -20.8168   23.9856 N   0  0  0  0  0  0  0  0  0  0  0  0
  -22.3898  -15.6595   26.5385 N   0  3  0  0  0  0  0  0  0  0  0  0
  -31.7166  -14.5367   19.8219 O   0  0  0  0  0  0  0  0  0  0  0  0
  -23.1772  -23.5824   23.6317 O   0  0  0  0  0  0  0  0  0  0  0  0
  -21.2919  -21.4931   26.6603 O   0  0  0  0  0  0  0  0  0  0  0  0
  -24.1191  -17.7690   25.8487 O   0  0  0  0  0  0  0  0  0  0  0  0
  -28.0979  -21.1160   26.1987 O   0  0  0  0  0  0  0  0  0  0  0  0
  -24.6126  -11.3627   19.6122 O   0  0  0  0  0  0  0  0  0  0  0  0
  -25.2807  -19.6530   19.4103 O   0  0  0  0  0  0  0  0  0  1  0  0
  -21.6294   -8.4650   23.2327 F   0  0  0  0  0  0  0  0  0  0  0  0
  -24.6262   -8.5985   19.5711 F   0  0  0  0  0  0  0  0  0  0  0  0
  1  2  1  0  0  0  0
  1  5  2  0  0  0  0
  2  6  2  0  0  0  0
  3  8  2  0  0  0  0
  3 15  1  0  0  0  0
  4  9  1  0  0  0  0
  4 15  2  0  0  0  0
  5 17  1  0  0  0  0
  6 19  1  0  0  0  0
  7 10  2  0  0  0  0
  7 18  1  0  0  0  0
  8 22  1  0  0  0  0
  9 22  2  0  0  0  0
 10 23  1  0  0  0  0
 11 12  2  0  0  0  0
 11 24  1  0  0  0  0
 12 25  1  0  0  0  0
 13 20  1  0  0  0  0
 13 23  2  0  0  0  0
 14 25  2  0  0  0  0
 14 26  1  0  0  0  0
 15 27  1  0  0  0  0
 16 27  1  0  0  0  0
 16 30  2  0  0  0  0
 16 32  1  0  0  0  0
 17 19  2  0  0  0  0
 17 37  1  0  0  0  0
 18 20  2  0  0  0  0
 18 38  1  0  0  0  0
 19 46  1  0  0  0  0
 20 39  1  0  0  0  0
 21 28  2  0  0  0  0
 21 29  1  0  0  0  0
 21 56  1  0  0  0  0
 22 84  1  0  0  0  0
 23 85  1  0  0  0  0
 24 26  2  0  0  0  0
 24 84  1  0  0  0  0
 25 86  1  0  0  0  0
 26 87  1  0  0  0  0
 27 67  2  0  0  0  0
 28 57  1  0  0  0  0
 28 68  1  0  0  0  0
 29 58  1  0  0  0  0
 29 69  2  0  0  0  0
 30 70  1  0  0  0  0
 30 73  1  0  0  0  0
 31 59  1  0  0  0  0
 31 68  2  0  0  0  0
 31 69  1  0  0  0  0
 32 74  1  0  0  0  0
 32 79  2  0  0  0  0
 33 47  1  0  0  0  0
 33 75  1  0  0  0  0
 33 80  2  0  0  0  0
 34 64  1  0  0  0  0
 34 71  1  0  0  0  0
 34 81  2  0  0  0  0
 35 65  1  0  0  0  0
 35 76  1  0  0  0  0
 35 82  2  0  0  0  0
 36 72  1  0  0  0  0
 36 77  1  0  0  0  0
 36 83  2  0  0  0  0
 37 40  1  0  0  0  0
 38 47  1  0  0  0  0
 39 71  1  0  0  0  0
 40 42  1  0  0  0  0
 41 43  1  0  0  0  0
 41 44  1  0  0  0  0
 42 46  1  0  0  0  0
 43 48  1  0  0  0  0
 44 72  1  0  0  0  0
 45 48  1  0  0  0  0
 45 72  1  0  0  0  0
 46 75  1  0  0  0  0
 47 71  1  0  0  0  0
 48 70  1  0  0  0  0
 49 56  1  0  0  0  0
 50 57  1  0  0  0  0
 51 65  1  0  0  0  0
 52 66  1  0  0  0  0
 53 66  1  0  0  0  0
 54 66  1  0  0  0  0
 55 78  1  0  0  0  0
 58 60  1  0  0  0  0
 59 61  1  0  0  0  0
 60 62  1  0  0  0  0
 61 63  1  0  0  0  0
 62 77  1  0  0  0  0
 63 85  1  0  0  0  0
 64 66  1  0  0  0  0
 64 76  1  0  0  0  0
 65 78  1  0  0  0  0
 67 70  1  0  0  0  0
M  CHG  1  78   1
M  ISO  4  36 100  63 101  77 100  85 101
M  END
> <Batch ID>
0042

> <Smiles>
CCc1nc(CC[101CH2:1][101O:1]c2ccc3c(c2)CN(C(=O)C(NC(=O)C(C)NC)C(C)(C)C)C(C(=O)NC2CCCc4ccccc42)C3)nc(CCC[100NH:0][100C:0](=O)N2CCCC(n3nc(-c4ccc(Oc5ccc(F)cc5F)cc4)c(C(N)=O)c3N)C2)c1CC

> <Shape>
0.187

> <Color>
0.067

> <Negative vol penalty>
0.000

$$$$

  -OEChem-04052317123D

 90 98  0     1  0  0  0  0  0999 V2000
  -24.1512  -29.3851   26.4148 C   0  0  0  0  0  0  0  0  0  0  0  0
  -23.9927  -28.1951   25.7118 C   0  0  0  0  0  0  0  0  0  0  0  0
  -23.0000   -9.8947   19.9855 C   0  0  0  0  0  0  0  0  0  0  0  0
  -23.7221   -9.9559   22.2903 C   0  0  0  0  0  0  0  0  0  0  0  0
  -24.2479  -30.5931   25.7253 C   0  0  0  0  0  0  0  0  0  0  0  0
  -23.9298  -28.2125   24.3189 C   0  0  0  0  0  0  0  0  0  0  0  0
  -26.0925  -23.9568   20.4825 C   0  0  0  0  0  0  0  0  0  0  0  0
  -22.2338   -8.7609   20.2556 C   0  0  0  0  0  0  0  0  0  0  0  0
  -22.9559   -8.8221   22.5604 C   0  0  0  0  0  0  0  0  0  0  0  0
  -25.4783  -22.9017   19.8093 C   0  0  0  0  0  0  0  0  0  0  0  0
  -23.2027   -5.4813   22.1030 C   0  0  0  0  0  0  0  0  0  0  0  0
  -23.7898   -4.4677   22.8602 C   0  0  0  0  0  0  0  0  0  0  0  0
  -25.2514  -24.2914   17.8506 C   0  0  0  0  0  0  0  0  0  0  0  0
  -29.4724  -20.7058   20.0001 C   0  0  0  0  0  0  0  0  0  0  0  0
  -28.4286  -21.6427   18.0331 C   0  0  0  0  0  0  0  0  0  0  0  0
  -22.0636   -4.7167   24.5321 C   0  0  0  0  0  0  0  0  0  0  0  0
  -23.7443  -10.4922   21.0028 C   0  0  0  0  0  0  0  0  0  0  0  0
  -24.1284  -13.0072   20.8167 C   0  0  0  0  0  0  0  0  0  0  0  0
  -24.1958  -30.6243   24.3228 C   0  0  0  0  0  0  0  0  0  0  0  0
  -26.2813  -25.1927   19.8473 C   0  0  0  0  0  0  0  0  0  0  0  0
  -24.0246  -29.4222   23.6101 C   0  0  0  0  0  0  0  0  0  0  0  0
  -25.8706  -25.3598   18.5171 C   0  0  0  0  0  0  0  0  0  0  0  0
  -29.2644  -21.7846   19.1407 C   0  0  0  0  0  0  0  0  0  0  0  0
  -28.8446  -19.4852   19.7519 C   0  0  0  0  0  0  0  0  0  0  0  0
  -27.8007  -20.4221   17.7848 C   0  0  0  0  0  0  0  0  0  0  0  0
  -28.0087  -19.3434   18.6442 C   0  0  0  0  0  0  0  0  0  0  0  0
  -22.2117   -8.2246   21.5431 C   0  0  0  0  0  0  0  0  0  0  0  0
  -25.0550  -23.0698   18.4941 C   0  0  0  0  0  0  0  0  0  0  0  0
  -22.0460   -6.1127   22.5604 C   0  0  0  0  0  0  0  0  0  0  0  0
  -23.2203   -4.0853   24.0747 C   0  0  0  0  0  0  0  0  0  0  0  0
  -21.4765   -5.7304   23.7749 C   0  0  0  0  0  0  0  0  0  0  0  0
  -24.5364  -11.6631   20.7243 C   0  0  0  0  0  0  0  0  0  0  0  0
  -25.2382  -13.7289   20.4507 C   0  0  0  0  0  0  0  0  0  0  0  0
  -22.8596  -13.5545   21.1992 C   0  0  0  0  0  0  0  0  0  0  0  0
  -25.2673  -28.1600   20.3673 C   0  0  0  0  0  0  0  0  0  0  0  0
  -27.2908  -28.8625   17.9312 C   0  0  0  0  0  0  0  0  0  0  0  0
  -28.9642  -27.7942   15.1554 C   0  0  0  0  0  0  0  0  0  0  0  0
  -30.7337  -14.6677   20.7025 C   0  0  0  0  0  0  0  0  0  0  0  0
  -24.2573  -31.9592   23.6236 C   0  0  0  0  0  0  0  0  0  0  0  0
  -26.9697  -26.3125   20.5785 C   0  0  0  0  0  0  0  0  0  0  0  0
  -26.0684  -26.6603   17.7836 C   0  0  0  0  0  0  0  0  0  0  0  0
  -24.5576  -31.8517   22.1308 C   0  0  0  0  0  0  0  0  0  0  0  0
  -29.5975  -12.2335   18.3658 C   0  0  0  0  0  0  0  0  0  0  0  0
  -23.6895  -30.7748   21.4879 C   0  0  0  0  0  0  0  0  0  0  0  0
  -28.1486  -11.9747   18.7826 C   0  0  0  0  0  0  0  0  0  0  0  0
  -30.4982  -12.4745   19.5753 C   0  0  0  0  0  0  0  0  0  0  0  0
  -28.5858  -13.2746   20.9081 C   0  0  0  0  0  0  0  0  0  0  0  0
  -23.9769  -29.3975   22.0977 C   0  0  1  0  0  0  0  0  0  0  0  0
  -26.6469  -27.6885   20.0041 C   0  0  1  0  0  0  0  0  0  0  0  0
  -27.6285  -13.0813   19.7197 C   0  0  2  0  0  0  0  0  0  0  0  0
  -29.9362  -23.0894   19.4057 C   0  0  0  0  0  0  0  0  0  0  0  0
  -28.2880  -17.0082   17.7751 C   0  0  0  0  0  0  0  0  0  0  0  0
  -25.9542  -21.6968   14.5401 C   0  0  0  0  0  0  0  0  0  0  0  0
  -30.5098  -28.6062   13.3529 C   0  0  0  0  0  0  0  0  0  0  0  0
  -23.6143  -20.0019   18.7620 C   0  0  0  0  0  0  0  0  0  0  0  0
  -27.3397  -19.2076   15.5463 C   0  0  0  0  0  0  0  0  0  0  0  0
  -24.9500  -30.2531   16.5539 C   0  0  0  0  0  0  0  0  0  0  0  0
  -26.2612  -30.1961   14.4218 C   0  0  0  0  0  0  0  0  0  0  0  0
  -27.1302  -31.4665   16.3848 C   0  0  0  0  0  0  0  0  0  0  0  0
  -31.0875  -25.8960   15.9600 C   0  0  0  0  0  0  0  0  0  0  0  0
  -29.0831  -18.3459   20.6883 C   0  0  0  0  0  0  0  0  0  0  0  0
  -27.3354  -18.0346   18.3786 C   0  0  0  0  0  0  0  0  0  0  0  0
  -26.8288  -21.6628   15.7911 C   0  0  0  0  0  0  0  0  0  0  0  0
  -30.5674  -17.9819   20.8814 C   0  0  0  0  0  0  0  0  0  0  0  0
  -25.4046  -19.9640   16.9874 C   0  0  0  0  0  0  0  0  0  0  0  0
  -30.8136  -16.8517   21.8786 C   0  0  0  0  0  0  0  0  0  0  0  0
  -27.1689  -28.9389   16.4285 C   0  0  1  0  0  0  0  0  0  0  0  0
  -30.4108  -27.9592   14.7256 C   0  0  2  0  0  0  0  0  0  0  0  0
  -24.8406  -20.7189   18.2055 C   0  0  1  0  0  0  0  0  0  1  0  0
  -26.8823  -20.2922   16.5544 C   0  0  2  0  0  0  0  0  0  0  0  0
  -26.3719  -30.1896   15.9614 C   0  0  0  0  0  0  0  0  0  0  0  0
  -25.8063  -11.5356   20.3303 N   0  0  0  0  0  0  0  0  0  0  0  0
  -26.2058  -12.8090   20.1719 N   0  0  0  0  0  0  0  0  0  0  0  0
  -26.7406  -27.7273   18.5433 N   0  0  0  0  0  0  0  0  0  0  0  0
  -29.9497  -13.5365   20.4221 N   0  0  0  0  0  0  0  0  0  0  0  0
  -25.4711  -15.0543   20.3433 N   0  0  0  0  0  0  0  0  0  0  0  0
  -21.8278  -12.6713   21.5451 N   0  0  0  0  0  0  0  0  0  0  0  0
  -25.2059  -28.8535   21.5609 N   0  0  0  0  0  0  0  0  0  0  0  0
  -28.5285  -28.8668   15.9044 N   0  0  0  0  0  0  0  0  0  0  0  0
  -30.1357  -15.6296   21.5075 N   0  0  0  0  0  0  0  0  0  0  0  0
  -31.0892  -26.6335   14.6704 N   0  3  0  0  0  0  0  0  0  0  0  0
  -22.6421  -14.7898   21.2174 O   0  0  0  0  0  0  0  0  0  0  0  0
  -24.3283  -27.9142   19.6193 O   0  0  0  0  0  0  0  0  0  0  0  0
  -27.8596  -29.7728   18.5389 O   0  0  0  0  0  0  0  0  0  0  0  0
  -28.2873  -26.8138   14.8535 O   0  0  0  0  0  0  0  0  0  0  0  0
  -31.8796  -14.8124   20.2634 O   0  0  0  0  0  0  0  0  0  0  0  0
  -21.4639   -7.1184   21.8071 O   0  0  0  0  0  0  0  0  0  0  0  0
  -24.4545  -22.0418   17.8349 O   0  0  0  0  0  0  0  0  0  1  0  0
  -23.7833   -3.1108   24.8010 F   0  0  0  0  0  0  0  0  0  0  0  0
  -20.3647   -6.3325   24.2189 F   0  0  0  0  0  0  0  0  0  0  0  0
  1  2  1  0  0  0  0
  1  5  2  0  0  0  0
  2  6  2  0  0  0  0
  3  8  2  0  0  0  0
  3 17  1  0  0  0  0
  4  9  1  0  0  0  0
  4 17  2  0  0  0  0
  5 19  1  0  0  0  0
  6 21  1  0  0  0  0
  7 10  2  0  0  0  0
  7 20  1  0  0  0  0
  8 27  1  0  0  0  0
  9 27  2  0  0  0  0
 10 28  1  0  0  0  0
 11 12  2  0  0  0  0
 11 29  1  0  0  0  0
 12 30  1  0  0  0  0
 13 22  1  0  0  0  0
 13 28  2  0  0  0  0
 14 23  1  0  0  0  0
 14 24  2  0  0  0  0
 15 23  2  0  0  0  0
 15 25  1  0  0  0  0
 16 30  2  0  0  0  0
 16 31  1  0  0  0  0
 17 32  1  0  0  0  0
 18 32  1  0  0  0  0
 18 33  2  0  0  0  0
 18 34  1  0  0  0  0
 19 21  2  0  0  0  0
 19 39  1  0  0  0  0
 20 22  2  0  0  0  0
 20 40  1  0  0  0  0
 21 48  1  0  0  0  0
 22 41  1  0  0  0  0
 23 51  1  0  0  0  0
 24 26  1  0  0  0  0
 24 61  1  0  0  0  0
 25 26  2  0  0  0  0
 25 70  1  0  0  0  0
 26 62  1  0  0  0  0
 27 87  1  0  0  0  0
 28 88  1  0  0  0  0
 29 31  2  0  0  0  0
 29 87  1  0  0  0  0
 30 89  1  0  0  0  0
 31 90  1  0  0  0  0
 32 72  2  0  0  0  0
 33 73  1  0  0  0  0
 33 76  1  0  0  0  0
 34 77  1  0  0  0  0
 34 82  2  0  0  0  0
 35 49  1  0  0  0  0
 35 78  1  0  0  0  0
 35 83  2  0  0  0  0
 36 67  1  0  0  0  0
 36 74  1  0  0  0  0
 36 84  2  0  0  0  0
 37 68  1  0  0  0  0
 37 79  1  0  0  0  0
 37 85  2  0  0  0  0
 38 75  1  0  0  0  0
 38 80  1  0  0  0  0
 38 86  2  0  0  0  0
 39 42  1  0  0  0  0
 40 49  1  0  0  0  0
 41 74  1  0  0  0  0
 42 44  1  0  0  0  0
 43 45  1  0  0  0  0
 43 46  1  0  0  0  0
 44 48  1  0  0  0  0
 45 50  1  0  0  0  0
 46 75  1  0  0  0  0
 47 50  1  0  0  0  0
 47 75  1  0  0  0  0
 48 78  1  0  0  0  0
 49 74  1  0  0  0  0
 50 73  1  0  0  0  0
 52 62  1  0  0  0  0
 53 63  1  0  0  0  0
 54 68  1  0  0  0  0
 55 69  1  0  0  0  0
 56 70  1  0  0  0  0
 57 71  1  0  0  0  0
 58 71  1  0  0  0  0
 59 71  1  0  0  0  0
 60 81  1  0  0  0  0
 61 64  1  0  0  0  0
 63 70  1  0  0  0  0
 64 66  1  0  0  0  0
 65 69  1  0  0  0  0
 65 70  1  0  0  0  0
 66 80  1  0  0  0  0
 67 71  1  0  0  0  0
 67 79  1  0  0  0  0
 68 81  1  0  0  0  0
 69 88  1  0  0  0  0
 72 73  1  0  0  0  0
M  CHG  1  81   1
M  ISO  4  38 100  69 101  80 100  88 101
M  END
> <Batch ID>
0042

> <Smiles>
CCc1c(CCC[100NH:0][100C:0](=O)N2CCCC(n3nc(-c4ccc(Oc5ccc(F)cc5F)cc4)c(C(N)=O)c3N)C2)cc(C)cc1C(C)(CC)C[101CH:1](C)[101O:1]c1ccc2c(c1)CN(C(=O)C(NC(=O)C(C)NC)C(C)(C)C)C(C(=O)NC1CCCc3ccccc31)C2

> <Shape>
0.302

> <Color>
0.194

> <Negative vol penalty>
0.000

$$$$

  -OEChem-04052317123D

 83 91  0     1  0  0  0  0  0999 V2000
  -17.6347  -26.7369   24.0235 C   0  0  0  0  0  0  0  0  0  0  0  0
  -18.8246  -26.1550   23.5982 C   0  0  0  0  0  0  0  0  0  0  0  0
  -27.0447  -16.0677   20.8774 C   0  0  0  0  0  0  0  0  0  0  0  0
  -25.2705  -17.0184   19.5411 C   0  0  0  0  0  0  0  0  0  0  0  0
  -17.3165  -28.0366   23.6316 C   0  0  0  0  0  0  0  0  0  0  0  0
  -19.6966  -26.8721   22.7798 C   0  0  0  0  0  0  0  0  0  0  0  0
  -26.6837  -27.6860   21.4254 C   0  0  0  0  0  0  0  0  0  0  0  0
  -26.4140  -14.8245   20.8303 C   0  0  0  0  0  0  0  0  0  0  0  0
  -24.6399  -15.7751   19.4939 C   0  0  0  0  0  0  0  0  0  0  0  0
  -27.5835  -27.6692   20.3605 C   0  0  0  0  0  0  0  0  0  0  0  0
  -26.0940  -12.2755   18.6319 C   0  0  0  0  0  0  0  0  0  0  0  0
  -26.8841  -11.1576   18.3640 C   0  0  0  0  0  0  0  0  0  0  0  0
  -26.9667  -29.9357   19.8114 C   0  0  0  0  0  0  0  0  0  0  0  0
  -26.2473  -10.1985   20.4881 C   0  0  0  0  0  0  0  0  0  0  0  0
  -28.0871  -24.4901   16.5910 C   0  0  0  0  0  0  0  0  0  0  0  0
  -26.5062  -24.5636   15.0574 C   0  0  0  0  0  0  0  0  0  0  0  0
  -26.4729  -17.1647   20.2328 C   0  0  0  0  0  0  0  0  0  0  0  0
  -28.4118  -18.7682   19.8121 C   0  0  0  0  0  0  0  0  0  0  0  0
  -18.1896  -28.7734   22.8158 C   0  0  0  0  0  0  0  0  0  0  0  0
  -25.9094  -28.8259   21.6850 C   0  0  0  0  0  0  0  0  0  0  0  0
  -19.3892  -28.1823   22.3754 C   0  0  0  0  0  0  0  0  0  0  0  0
  -26.0597  -29.9653   20.8817 C   0  0  0  0  0  0  0  0  0  0  0  0
  -25.2117  -14.6781   20.1385 C   0  0  0  0  0  0  0  0  0  0  0  0
  -27.7230  -28.7931   19.5516 C   0  0  0  0  0  0  0  0  0  0  0  0
  -25.3807  -12.3549   19.8280 C   0  0  0  0  0  0  0  0  0  0  0  0
  -26.9607  -10.1191   19.2921 C   0  0  0  0  0  0  0  0  0  0  0  0
  -25.4573  -11.3165   20.7561 C   0  0  0  0  0  0  0  0  0  0  0  0
  -27.1235  -18.4494   20.2816 C   0  0  0  0  0  0  0  0  0  0  0  0
  -28.3162  -25.4944   15.6802 C   0  0  0  0  0  0  0  0  0  0  0  0
  -28.5574  -20.1054   20.0900 C   0  0  0  0  0  0  0  0  0  0  0  0
  -29.3894  -17.9305   19.1810 C   0  0  0  0  0  0  0  0  0  0  0  0
  -22.7950  -29.4602   21.7272 C   0  0  0  0  0  0  0  0  0  0  0  0
  -23.7923  -32.3364   22.8476 C   0  0  0  0  0  0  0  0  0  0  0  0
  -26.2923  -34.6483   23.0756 C   0  0  0  0  0  0  0  0  0  0  0  0
  -24.1880  -24.3026   21.0005 C   0  0  0  0  0  0  0  0  0  0  0  0
  -17.7804  -30.1579   22.3792 C   0  0  0  0  0  0  0  0  0  0  0  0
  -24.9627  -28.8374   22.8537 C   0  0  0  0  0  0  0  0  0  0  0  0
  -25.2666  -31.2213   21.1306 C   0  0  0  0  0  0  0  0  0  0  0  0
  -18.9339  -30.9853   21.8179 C   0  0  0  0  0  0  0  0  0  0  0  0
  -27.1018  -23.4896   23.1335 C   0  0  0  0  0  0  0  0  0  0  0  0
  -19.7489  -30.1612   20.8261 C   0  0  0  0  0  0  0  0  0  0  0  0
  -27.4954  -22.0972   22.6431 C   0  0  0  0  0  0  0  0  0  0  0  0
  -25.6124  -23.7586   22.9412 C   0  0  0  0  0  0  0  0  0  0  0  0
  -25.5323  -22.1619   21.0549 C   0  0  0  0  0  0  0  0  0  0  0  0
  -20.3725  -28.9370   21.5073 C   0  0  1  0  0  0  0  0  0  0  0  0
  -23.8516  -29.8732   22.7125 C   0  0  1  0  0  0  0  0  0  0  0  0
  -27.0355  -21.8765   21.1916 C   0  0  2  0  0  0  0  0  0  0  0  0
  -27.4781  -36.7294   23.8241 C   0  0  0  0  0  0  0  0  0  0  0  0
  -22.1683  -33.6299   20.6117 C   0  0  0  0  0  0  0  0  0  0  0  0
  -23.4423  -35.7487   21.0067 C   0  0  0  0  0  0  0  0  0  0  0  0
  -22.0176  -34.7957   22.8191 C   0  0  0  0  0  0  0  0  0  0  0  0
  -23.2285  -25.3534   18.9868 C   0  0  0  0  0  0  0  0  0  0  0  0
  -27.4034  -33.2963   25.4624 C   0  0  0  0  0  0  0  0  0  0  0  0
  -29.4616  -26.4742   15.6400 C   0  0  0  0  0  0  0  0  0  0  0  0
  -29.1972  -27.7631   16.4214 C   0  0  0  0  0  0  0  0  0  0  0  0
  -25.0690  -23.1862   17.6873 C   0  0  0  0  0  0  0  0  0  0  0  0
  -26.2614  -22.7864   16.8077 C   0  0  0  0  0  0  0  0  0  0  0  0
  -25.3991  -24.1994   18.7813 C   0  0  0  0  0  0  0  0  0  0  0  0
  -28.8440  -27.5207   17.8842 C   0  0  0  0  0  0  0  0  0  1  0  0
  -24.1895  -33.6497   22.2179 C   0  0  1  0  0  0  0  0  0  0  0  0
  -26.8501  -35.4151   24.2611 C   0  0  2  0  0  0  0  0  0  0  0  0
  -22.9681  -34.4318   21.6577 C   0  0  0  0  0  0  0  0  0  0  0  0
  -27.3283  -25.5350   14.7283 N   0  0  0  0  0  0  0  0  0  0  0  0
  -26.4955  -19.4994   20.8174 N   0  0  0  0  0  0  0  0  0  0  0  0
  -26.9239  -23.9030   16.1792 N   0  0  0  0  0  0  0  0  0  0  0  0
  -27.3930  -20.4911   20.6862 N   0  0  0  0  0  0  0  0  0  0  0  0
  -24.3495  -31.1811   22.2816 N   0  0  0  0  0  0  0  0  0  0  0  0
  -25.1935  -23.4996   21.5634 N   0  0  0  0  0  0  0  0  0  0  0  0
  -29.5666  -20.9770   19.8801 N   0  0  0  0  0  0  0  0  0  0  0  0
  -29.3735  -17.8208   17.7838 N   0  0  0  0  0  0  0  0  0  0  0  0
  -21.5348  -29.3245   22.2775 N   0  0  0  0  0  0  0  0  0  0  0  0
  -24.9498  -34.3744   23.2305 N   0  0  0  0  0  0  0  0  0  0  0  0
  -24.2423  -24.5183   19.6151 N   0  0  0  0  0  0  0  0  0  0  0  0
  -27.8897  -34.6064   24.9584 N   0  3  0  0  0  0  0  0  0  0  0  0
  -30.2413  -17.2851   19.8377 O   0  0  0  0  0  0  0  0  0  0  0  0
  -23.1002  -29.2797   20.5542 O   0  0  0  0  0  0  0  0  0  0  0  0
  -23.0217  -32.3362   23.8109 O   0  0  0  0  0  0  0  0  0  0  0  0
  -26.9780  -34.3278   22.1073 O   0  0  0  0  0  0  0  0  0  0  0  0
  -23.2982  -24.8064   21.6980 O   0  0  0  0  0  0  0  0  0  0  0  0
  -24.5961  -13.4651   20.0921 O   0  0  0  0  0  0  0  0  0  0  0  0
  -28.6001  -28.7791   18.5112 O   0  0  0  0  0  0  0  0  0  1  0  0
  -27.7182   -9.0450   19.0340 F   0  0  0  0  0  0  0  0  0  0  0  0
  -24.7733  -11.3866   21.9063 F   0  0  0  0  0  0  0  0  0  0  0  0
  1  2  1  0  0  0  0
  1  5  2  0  0  0  0
  2  6  2  0  0  0  0
  3  8  2  0  0  0  0
  3 17  1  0  0  0  0
  4  9  1  0  0  0  0
  4 17  2  0  0  0  0
  5 19  1  0  0  0  0
  6 21  1  0  0  0  0
  7 10  2  0  0  0  0
  7 20  1  0  0  0  0
  8 23  1  0  0  0  0
  9 23  2  0  0  0  0
 10 24  1  0  0  0  0
 11 12  2  0  0  0  0
 11 25  1  0  0  0  0
 12 26  1  0  0  0  0
 13 22  1  0  0  0  0
 13 24  2  0  0  0  0
 14 26  2  0  0  0  0
 14 27  1  0  0  0  0
 15 29  2  0  0  0  0
 15 65  1  0  0  0  0
 16 63  2  0  0  0  0
 16 65  1  0  0  0  0
 17 28  1  0  0  0  0
 18 28  1  0  0  0  0
 18 30  2  0  0  0  0
 18 31  1  0  0  0  0
 19 21  2  0  0  0  0
 19 36  1  0  0  0  0
 20 22  2  0  0  0  0
 20 37  1  0  0  0  0
 21 45  1  0  0  0  0
 22 38  1  0  0  0  0
 23 80  1  0  0  0  0
 24 81  1  0  0  0  0
 25 27  2  0  0  0  0
 25 80  1  0  0  0  0
 26 82  1  0  0  0  0
 27 83  1  0  0  0  0
 28 64  2  0  0  0  0
 29 54  1  0  0  0  0
 29 63  1  0  0  0  0
 30 66  1  0  0  0  0
 30 69  1  0  0  0  0
 31 70  1  0  0  0  0
 31 75  2  0  0  0  0
 32 46  1  0  0  0  0
 32 71  1  0  0  0  0
 32 76  2  0  0  0  0
 33 60  1  0  0  0  0
 33 67  1  0  0  0  0
 33 77  2  0  0  0  0
 34 61  1  0  0  0  0
 34 72  1  0  0  0  0
 34 78  2  0  0  0  0
 35 68  1  0  0  0  0
 35 73  1  0  0  0  0
 35 79  2  0  0  0  0
 36 39  1  0  0  0  0
 37 46  1  0  0  0  0
 38 67  1  0  0  0  0
 39 41  1  0  0  0  0
 40 42  1  0  0  0  0
 40 43  1  0  0  0  0
 41 45  1  0  0  0  0
 42 47  1  0  0  0  0
 43 68  1  0  0  0  0
 44 47  1  0  0  0  0
 44 68  1  0  0  0  0
 45 71  1  0  0  0  0
 46 67  1  0  0  0  0
 47 66  1  0  0  0  0
 48 61  1  0  0  0  0
 49 62  1  0  0  0  0
 50 62  1  0  0  0  0
 51 62  1  0  0  0  0
 52 73  1  0  0  0  0
 53 74  1  0  0  0  0
 54 55  1  0  0  0  0
 55 59  1  0  0  0  0
 56 57  1  0  0  0  0
 56 58  1  0  0  0  0
 57 65  1  0  0  0  0
 58 73  1  0  0  0  0
 59 81  1  0  0  0  0
 60 62  1  0  0  0  0
 60 72  1  0  0  0  0
 61 74  1  0  0  0  0
 64 66  1  0  0  0  0
M  CHG  1  74   1
M  ISO  4  35 100  59 101  73 100  81 101
M  END
> <Batch ID>
0042

> <Smiles>
CNC(C)C(=O)NC(C(=O)N1Cc2cc([101O:1][101CH2:1]CCc3cn(CCC[100N:0](C)[100C:0](=O)N4CCCC(n5nc(-c6ccc(Oc7ccc(F)cc7F)cc6)c(C(N)=O)c5N)C4)cn3)ccc2CC1C(=O)NC1CCCc2ccccc21)C(C)(C)C

> <Shape>
0.244

> <Color>
0.102

> <Negative vol penalty>
0.000

$$$$

  -OEChem-04052317123D

 89 97  0     1  0  0  0  0  0999 V2000
  -27.9362  -24.0737   17.8477 C   0  0  0  0  0  0  0  0  0  0  0  0
  -26.7126  -24.4559   18.3884 C   0  0  0  0  0  0  0  0  0  0  0  0
  -27.9376  -19.7799   19.0706 C   0  0  0  0  0  0  0  0  0  0  0  0
  -27.0823  -17.6222   18.3998 C   0  0  0  0  0  0  0  0  0  0  0  0
  -29.1232  -24.5077   18.4363 C   0  0  0  0  0  0  0  0  0  0  0  0
  -26.6755  -25.2713   19.5189 C   0  0  0  0  0  0  0  0  0  0  0  0
  -23.2837  -29.0092   19.1073 C   0  0  0  0  0  0  0  0  0  0  0  0
  -29.1372  -19.1836   19.4593 C   0  0  0  0  0  0  0  0  0  0  0  0
  -28.2819  -17.0259   18.7885 C   0  0  0  0  0  0  0  0  0  0  0  0
  -21.9445  -28.6790   19.3103 C   0  0  0  0  0  0  0  0  0  0  0  0
  -30.9839  -14.8837   19.9375 C   0  0  0  0  0  0  0  0  0  0  0  0
  -30.9113  -13.7032   20.6769 C   0  0  0  0  0  0  0  0  0  0  0  0
  -22.0776  -29.5463   21.5574 C   0  0  0  0  0  0  0  0  0  0  0  0
  -16.0107  -23.7674   20.1594 C   0  0  0  0  0  0  0  0  0  0  0  0
  -29.6862  -14.8621   22.4069 C   0  0  0  0  0  0  0  0  0  0  0  0
  -26.9102  -18.9992   18.5409 C   0  0  0  0  0  0  0  0  0  0  0  0
  -25.3514  -20.1352   16.8713 C   0  0  0  0  0  0  0  0  0  0  0  0
  -29.1005  -25.3368   19.5689 C   0  0  0  0  0  0  0  0  0  0  0  0
  -24.0342  -29.6015   20.1332 C   0  0  0  0  0  0  0  0  0  0  0  0
  -27.8633  -25.7157   20.1241 C   0  0  0  0  0  0  0  0  0  0  0  0
  -23.4255  -29.8855   21.3640 C   0  0  0  0  0  0  0  0  0  0  0  0
  -17.0283  -24.7214   20.1550 C   0  0  0  0  0  0  0  0  0  0  0  0
  -15.7420  -23.0396   21.3187 C   0  0  0  0  0  0  0  0  0  0  0  0
  -16.4909  -23.2659   22.4735 C   0  0  0  0  0  0  0  0  0  0  0  0
  -17.5085  -24.2198   22.4690 C   0  0  0  0  0  0  0  0  0  0  0  0
  -17.7772  -24.9476   21.3097 C   0  0  0  0  0  0  0  0  0  0  0  0
  -29.3093  -17.8066   19.3182 C   0  0  0  0  0  0  0  0  0  0  0  0
  -21.3420  -28.9449   20.5365 C   0  0  0  0  0  0  0  0  0  0  0  0
  -30.4077  -16.0534   20.4328 C   0  0  0  0  0  0  0  0  0  0  0  0
  -30.2625  -13.6924   21.9116 C   0  0  0  0  0  0  0  0  0  0  0  0
  -29.7588  -16.0426   21.6675 C   0  0  0  0  0  0  0  0  0  0  0  0
  -25.6706  -19.6145   18.1397 C   0  0  0  0  0  0  0  0  0  0  0  0
  -24.0666  -20.6019   17.0052 C   0  0  0  0  0  0  0  0  0  0  0  0
  -26.1452  -20.1917   15.6787 C   0  0  0  0  0  0  0  0  0  0  0  0
  -26.6223  -28.7751   21.7832 C   0  0  0  0  0  0  0  0  0  0  0  0
  -26.3257  -31.7677   22.9993 C   0  0  0  0  0  0  0  0  0  0  0  0
  -24.3031  -34.4306   23.6812 C   0  0  0  0  0  0  0  0  0  0  0  0
  -19.6735  -19.0447   20.6289 C   0  0  0  0  0  0  0  0  0  0  0  0
  -30.4098  -25.7420   20.1983 C   0  0  0  0  0  0  0  0  0  0  0  0
  -25.4704  -29.9761   19.8893 C   0  0  0  0  0  0  0  0  0  0  0  0
  -24.1818  -30.5386   22.4908 C   0  0  0  0  0  0  0  0  0  0  0  0
  -30.2817  -26.9106   21.1721 C   0  0  0  0  0  0  0  0  0  0  0  0
  -21.0469  -22.3736   20.2686 C   0  0  0  0  0  0  0  0  0  0  0  0
  -29.1009  -26.6943   22.1132 C   0  0  0  0  0  0  0  0  0  0  0  0
  -22.3680  -22.0819   19.5546 C   0  0  0  0  0  0  0  0  0  0  0  0
  -20.7224  -21.2918   21.2946 C   0  0  0  0  0  0  0  0  0  0  0  0
  -22.0094  -19.6147   20.0278 C   0  0  0  0  0  0  0  0  0  0  0  0
  -27.7817  -26.6198   21.3349 C   0  0  1  0  0  0  0  0  0  0  0  0
  -26.2806  -30.1061   21.1754 C   0  0  1  0  0  0  0  0  0  0  0  0
  -22.3825  -20.6606   18.9616 C   0  0  2  0  0  0  0  0  0  0  0  0
  -16.2011  -22.4833   23.7151 C   0  0  0  0  0  0  0  0  0  0  0  0
  -18.3116  -24.4629   23.7079 C   0  0  0  0  0  0  0  0  0  0  0  0
  -18.0664  -24.6623   17.8734 C   0  0  0  0  0  0  0  0  0  0  0  0
  -24.3382  -36.7175   24.7137 C   0  0  0  0  0  0  0  0  0  0  0  0
  -26.3869  -30.5094   25.7783 C   0  0  0  0  0  0  0  0  0  0  0  0
  -25.4811  -32.6563   26.6941 C   0  0  0  0  0  0  0  0  0  0  0  0
  -27.7035  -32.6246   25.5617 C   0  0  0  0  0  0  0  0  0  0  0  0
  -23.4843  -35.7156   21.1440 C   0  0  0  0  0  0  0  0  0  0  0  0
  -17.2960  -25.4866   18.9003 C   0  0  0  0  0  0  0  0  0  0  0  0
  -18.8765  -25.9796   21.3023 C   0  0  0  0  0  0  0  0  0  0  0  0
  -14.6463  -22.0246   21.2971 C   0  0  0  0  0  0  0  0  0  0  0  0
  -18.5008  -27.2849   22.0069 C   0  0  0  0  0  0  0  0  0  0  0  0
  -16.4001  -18.8508   20.1125 C   0  0  0  0  0  0  0  0  0  0  0  0
  -17.3243  -18.6145   21.3022 C   0  0  0  0  0  0  0  0  0  0  0  0
  -15.9269  -20.2963   20.0275 C   0  0  0  0  0  0  0  0  0  0  0  0
  -19.6461  -28.2888   22.0691 C   0  0  0  0  0  0  0  0  0  1  0  0
  -25.6030  -32.3765   24.1766 C   0  0  1  0  0  0  0  0  0  0  0  0
  -24.4755  -35.9174   23.4278 C   0  0  2  0  0  0  0  0  0  0  0  0
  -26.2796  -32.0276   25.5323 C   0  0  0  0  0  0  0  0  0  0  0  0
  -24.6693  -19.7388   19.0150 N   0  0  0  0  0  0  0  0  0  0  0  0
  -23.7084  -20.3429   18.2955 N   0  0  0  0  0  0  0  0  0  0  0  0
  -25.5852  -30.8801   22.2057 N   0  0  0  0  0  0  0  0  0  0  0  0
  -20.7341  -19.9652   20.6620 N   0  0  0  0  0  0  0  0  0  0  0  0
  -23.2196  -21.2046   16.1439 N   0  0  0  0  0  0  0  0  0  0  0  0
  -27.4441  -19.6664   15.7151 N   0  0  0  0  0  0  0  0  0  0  0  0
  -27.3468  -27.9451   20.9492 N   0  0  0  0  0  0  0  0  0  0  0  0
  -25.5124  -33.8070   23.9047 N   0  0  0  0  0  0  0  0  0  0  0  0
  -18.5032  -19.4507   21.2584 N   0  0  0  0  0  0  0  0  0  0  0  0
  -23.4488  -36.4006   22.4617 N   0  3  0  0  0  0  0  0  0  0  0  0
  -15.1434  -20.6228   21.2478 N   0  3  0  0  0  0  0  0  0  0  0  0
  -25.7214  -20.7081   14.6170 O   0  0  0  0  0  0  0  0  0  0  0  0
  -26.2569  -28.5206   22.9249 O   0  0  0  0  0  0  0  0  0  0  0  0
  -27.5016  -32.0740   22.7873 O   0  0  0  0  0  0  0  0  0  0  0  0
  -23.2051  -33.8784   23.6845 O   0  0  0  0  0  0  0  0  0  0  0  0
  -19.7611  -17.9438   20.0744 O   0  0  0  0  0  0  0  0  0  0  0  0
  -30.4798  -17.2245   19.6971 O   0  0  0  0  0  0  0  0  0  0  0  0
  -20.0352  -28.6230   20.7375 O   0  0  0  0  0  0  0  0  0  1  0  0
  -30.1916  -12.5583   22.6208 F   0  0  0  0  0  0  0  0  0  0  0  0
  -29.2023  -17.1630   22.1480 F   0  0  0  0  0  0  0  0  0  0  0  0
  1  2  1  0  0  0  0
  1  5  2  0  0  0  0
  2  6  2  0  0  0  0
  3  8  2  0  0  0  0
  3 16  1  0  0  0  0
  4  9  1  0  0  0  0
  4 16  2  0  0  0  0
  5 18  1  0  0  0  0
  6 20  1  0  0  0  0
  7 10  2  0  0  0  0
  7 19  1  0  0  0  0
  8 27  1  0  0  0  0
  9 27  2  0  0  0  0
 10 28  1  0  0  0  0
 11 12  2  0  0  0  0
 11 29  1  0  0  0  0
 12 30  1  0  0  0  0
 13 21  1  0  0  0  0
 13 28  2  0  0  0  0
 14 22  1  0  0  0  0
 14 23  2  0  0  0  0
 15 30  2  0  0  0  0
 15 31  1  0  0  0  0
 16 32  1  0  0  0  0
 17 32  1  0  0  0  0
 17 33  2  0  0  0  0
 17 34  1  0  0  0  0
 18 20  2  0  0  0  0
 18 39  1  0  0  0  0
 19 21  2  0  0  0  0
 19 40  1  0  0  0  0
 20 48  1  0  0  0  0
 21 41  1  0  0  0  0
 22 26  2  0  0  0  0
 22 59  1  0  0  0  0
 23 24  1  0  0  0  0
 23 61  1  0  0  0  0
 24 25  2  0  0  0  0
 24 51  1  0  0  0  0
 25 26  1  0  0  0  0
 25 52  1  0  0  0  0
 26 60  1  0  0  0  0
 27 86  1  0  0  0  0
 28 87  1  0  0  0  0
 29 31  2  0  0  0  0
 29 86  1  0  0  0  0
 30 88  1  0  0  0  0
 31 89  1  0  0  0  0
 32 70  2  0  0  0  0
 33 71  1  0  0  0  0
 33 74  1  0  0  0  0
 34 75  1  0  0  0  0
 34 81  2  0  0  0  0
 35 49  1  0  0  0  0
 35 76  1  0  0  0  0
 35 82  2  0  0  0  0
 36 67  1  0  0  0  0
 36 72  1  0  0  0  0
 36 83  2  0  0  0  0
 37 68  1  0  0  0  0
 37 77  1  0  0  0  0
 37 84  2  0  0  0  0
 38 73  1  0  0  0  0
 38 78  1  0  0  0  0
 38 85  2  0  0  0  0
 39 42  1  0  0  0  0
 40 49  1  0  0  0  0
 41 72  1  0  0  0  0
 42 44  1  0  0  0  0
 43 45  1  0  0  0  0
 43 46  1  0  0  0  0
 44 48  1  0  0  0  0
 45 50  1  0  0  0  0
 46 73  1  0  0  0  0
 47 50  1  0  0  0  0
 47 73  1  0  0  0  0
 48 76  1  0  0  0  0
 49 72  1  0  0  0  0
 50 71  1  0  0  0  0
 53 59  1  0  0  0  0
 54 68  1  0  0  0  0
 55 69  1  0  0  0  0
 56 69  1  0  0  0  0
 57 69  1  0  0  0  0
 58 79  1  0  0  0  0
 60 62  1  0  0  0  0
 61 80  1  0  0  0  0
 62 66  1  0  0  0  0
 63 64  1  0  0  0  0
 63 65  1  0  0  0  0
 64 78  1  0  0  0  0
 65 80  1  0  0  0  0
 66 87  1  0  0  0  0
 67 69  1  0  0  0  0
 67 77  1  0  0  0  0
 68 79  1  0  0  0  0
 70 71  1  0  0  0  0
M  CHG  2  79   1  80   1
M  ISO  4  38 100  66 101  78 100  87 101
M  END
> <Batch ID>
0042

> <Smiles>
CCc1cc(CNCCC[100NH:0][100C:0](=O)N2CCCC(n3nc(-c4ccc(Oc5ccc(F)cc5F)cc4)c(C(N)=O)c3N)C2)c(C)c(C)c1CC[101CH2:1][101O:1]c1ccc2c(c1)CN(C(=O)C(NC(=O)C(C)NC)C(C)(C)C)C(C(=O)NC1CCCc3ccccc31)C2

> <Shape>
0.254

> <Color>
0.060

> <Negative vol penalty>
0.000

$$$$

  -OEChem-04052317123D

 84 92  0     1  0  0  0  0  0999 V2000
  -29.6482  -11.4697   18.8420 C   0  0  0  0  0  0  0  0  0  0  0  0
  -28.5966  -12.3804   18.8304 C   0  0  0  0  0  0  0  0  0  0  0  0
  -23.6159  -25.3650   22.5823 C   0  0  0  0  0  0  0  0  0  0  0  0
  -24.7995  -24.1132   20.8883 C   0  0  0  0  0  0  0  0  0  0  0  0
  -30.8262  -11.7755   19.5222 C   0  0  0  0  0  0  0  0  0  0  0  0
  -28.7221  -13.5971   19.5001 C   0  0  0  0  0  0  0  0  0  0  0  0
  -27.0464  -17.5080   16.7538 C   0  0  0  0  0  0  0  0  0  0  0  0
  -24.4380  -26.4661   22.3430 C   0  0  0  0  0  0  0  0  0  0  0  0
  -25.6216  -25.2144   20.6491 C   0  0  0  0  0  0  0  0  0  0  0  0
  -25.6664  -17.6949   16.6878 C   0  0  0  0  0  0  0  0  0  0  0  0
  -25.9908  -29.7265   21.9261 C   0  0  0  0  0  0  0  0  0  0  0  0
  -25.3846  -30.9785   21.8244 C   0  0  0  0  0  0  0  0  0  0  0  0
  -25.8257  -19.4194   18.3671 C   0  0  0  0  0  0  0  0  0  0  0  0
  -23.4685  -16.7089   20.4259 C   0  0  0  0  0  0  0  0  0  0  0  0
  -24.0781  -30.1935   19.9498 C   0  0  0  0  0  0  0  0  0  0  0  0
  -23.7966  -24.1885   21.8549 C   0  0  0  0  0  0  0  0  0  0  0  0
  -21.7263  -22.7483   21.4714 C   0  0  0  0  0  0  0  0  0  0  0  0
  -30.9698  -13.0005   20.1924 C   0  0  0  0  0  0  0  0  0  0  0  0
  -27.8264  -18.2692   17.6363 C   0  0  0  0  0  0  0  0  0  0  0  0
  -29.9026  -13.9190   20.1910 C   0  0  0  0  0  0  0  0  0  0  0  0
  -27.2158  -19.2420   18.4405 C   0  0  0  0  0  0  0  0  0  0  0  0
  -22.1649  -16.7135   19.9421 C   0  0  0  0  0  0  0  0  0  0  0  0
  -23.9717  -15.5681   21.0412 C   0  0  0  0  0  0  0  0  0  0  0  0
  -25.4408  -26.3908   21.3764 C   0  0  0  0  0  0  0  0  0  0  0  0
  -25.0554  -18.6487   17.4966 C   0  0  0  0  0  0  0  0  0  0  0  0
  -25.6409  -28.7079   21.0397 C   0  0  0  0  0  0  0  0  0  0  0  0
  -24.4282  -31.2120   20.8362 C   0  0  0  0  0  0  0  0  0  0  0  0
  -24.6845  -28.9414   20.0515 C   0  0  0  0  0  0  0  0  0  0  0  0
  -22.9481  -23.0505   22.1020 C   0  0  0  0  0  0  0  0  0  0  0  0
  -21.4115  -15.5610   20.0972 C   0  0  0  0  0  0  0  0  0  0  0  0
  -23.1373  -14.4670   21.1473 C   0  0  0  0  0  0  0  0  0  0  0  0
  -21.3202  -21.5731   22.0549 C   0  0  0  0  0  0  0  0  0  0  0  0
  -21.0215  -23.4657   20.4494 C   0  0  0  0  0  0  0  0  0  0  0  0
  -29.6887  -17.6072   20.1257 C   0  0  0  0  0  0  0  0  0  0  0  0
  -30.3747  -20.7732   19.9586 C   0  0  0  0  0  0  0  0  0  0  0  0
  -29.4190  -23.8965   18.9694 C   0  0  0  0  0  0  0  0  0  0  0  0
  -24.2808  -17.1313   24.7670 C   0  0  0  0  0  0  0  0  0  0  0  0
  -32.2444  -13.2666   20.9536 C   0  0  0  0  0  0  0  0  0  0  0  0
  -29.3173  -18.0741   17.6762 C   0  0  0  0  0  0  0  0  0  0  0  0
  -28.0109  -20.0992   19.3900 C   0  0  0  0  0  0  0  0  0  0  0  0
  -32.4375  -14.7349   21.3238 C   0  0  0  0  0  0  0  0  0  0  0  0
  -21.6590  -19.1091   26.1420 C   0  0  0  0  0  0  0  0  0  0  0  0
  -31.1517  -15.3119   21.9072 C   0  0  0  0  0  0  0  0  0  0  0  0
  -21.5818  -20.3163   25.2056 C   0  0  0  0  0  0  0  0  0  0  0  0
  -23.0983  -18.6380   26.3380 C   0  0  0  0  0  0  0  0  0  0  0  0
  -23.7580  -19.5700   24.1540 C   0  0  0  0  0  0  0  0  0  0  0  0
  -30.0099  -15.2596   20.8849 C   0  0  1  0  0  0  0  0  0  0  0  0
  -29.9471  -18.5475   18.9825 C   0  0  1  0  0  0  0  0  0  0  0  0
  -22.3211  -20.0467   23.8812 C   0  0  2  0  0  0  0  0  0  0  0  0
  -20.0047  -15.5079   19.5983 C   0  0  0  0  0  0  0  0  0  0  0  0
  -23.6256  -13.2141   21.7978 C   0  0  0  0  0  0  0  0  0  0  0  0
  -30.1708  -26.2904   19.0053 C   0  0  0  0  0  0  0  0  0  0  0  0
  -29.6095  -20.9668   22.9060 C   0  0  0  0  0  0  0  0  0  0  0  0
  -29.4589  -23.4509   22.6319 C   0  0  0  0  0  0  0  0  0  0  0  0
  -31.6345  -22.2870   22.2651 C   0  0  0  0  0  0  0  0  0  0  0  0
  -29.4669  -24.0470   16.0141 C   0  0  0  0  0  0  0  0  0  0  0  0
  -21.6133  -17.9474   19.2737 C   0  0  0  0  0  0  0  0  0  0  0  0
  -25.3674  -15.5567   21.5619 C   0  0  0  0  0  0  0  0  0  0  0  0
  -21.5454  -17.8434   17.7485 C   0  0  0  0  0  0  0  0  0  0  0  0
  -25.4592  -15.7415   23.0821 C   0  0  0  0  0  0  0  0  0  0  0  0
  -22.9132  -17.6985   17.0917 C   0  0  0  0  0  0  0  0  0  1  0  0
  -29.7870  -22.0276   20.5588 C   0  0  1  0  0  0  0  0  0  0  0  0
  -30.1629  -24.9877   18.2208 C   0  0  2  0  0  0  0  0  0  0  0  0
  -30.1070  -22.1657   22.0740 C   0  0  0  0  0  0  0  0  0  0  0  0
  -23.2953  -22.1408   23.0162 N   0  0  0  0  0  0  0  0  0  0  0  0
  -21.8658  -14.4339   20.6894 N   0  0  0  0  0  0  0  0  0  0  0  0
  -22.2856  -21.2554   22.9643 N   0  0  0  0  0  0  0  0  0  0  0  0
  -29.4646  -19.8664   19.3972 N   0  0  0  0  0  0  0  0  0  0  0  0
  -23.7423  -18.3986   25.0442 N   0  0  0  0  0  0  0  0  0  0  0  0
  -20.2350  -20.7909   21.8736 N   0  0  0  0  0  0  0  0  0  0  0  0
  -21.5800  -24.6551   19.9618 N   0  0  0  0  0  0  0  0  0  0  0  0
  -30.1522  -16.3228   19.9134 N   0  0  0  0  0  0  0  0  0  0  0  0
  -30.2705  -23.1359   19.7425 N   0  0  0  0  0  0  0  0  0  0  0  0
  -24.8674  -16.9875   23.5156 N   0  0  0  0  0  0  0  0  0  0  0  0
  -29.5215  -25.2388   16.8992 N   0  3  0  0  0  0  0  0  0  0  0  0
  -19.9208  -23.0725   19.9942 O   0  0  0  0  0  0  0  0  0  0  0  0
  -29.1129  -18.0170   21.1268 O   0  0  0  0  0  0  0  0  0  0  0  0
  -31.5969  -20.6075   19.9806 O   0  0  0  0  0  0  0  0  0  0  0  0
  -28.2036  -23.7373   18.8804 O   0  0  0  0  0  0  0  0  0  0  0  0
  -24.2371  -16.1955   25.5729 O   0  0  0  0  0  0  0  0  0  0  0  0
  -26.2431  -27.4652   21.1426 O   0  0  0  0  0  0  0  0  0  0  0  0
  -23.7085  -18.8326   17.4347 O   0  0  0  0  0  0  0  0  0  1  0  0
  -23.8449  -32.4140   20.7395 F   0  0  0  0  0  0  0  0  0  0  0  0
  -24.3433  -27.9664   19.1978 F   0  0  0  0  0  0  0  0  0  0  0  0
  1  2  1  0  0  0  0
  1  5  2  0  0  0  0
  2  6  2  0  0  0  0
  3  8  2  0  0  0  0
  3 16  1  0  0  0  0
  4  9  1  0  0  0  0
  4 16  2  0  0  0  0
  5 18  1  0  0  0  0
  6 20  1  0  0  0  0
  7 10  2  0  0  0  0
  7 19  1  0  0  0  0
  8 24  1  0  0  0  0
  9 24  2  0  0  0  0
 10 25  1  0  0  0  0
 11 12  2  0  0  0  0
 11 26  1  0  0  0  0
 12 27  1  0  0  0  0
 13 21  1  0  0  0  0
 13 25  2  0  0  0  0
 14 22  1  0  0  0  0
 14 23  2  0  0  0  0
 15 27  2  0  0  0  0
 15 28  1  0  0  0  0
 16 29  1  0  0  0  0
 17 29  1  0  0  0  0
 17 32  2  0  0  0  0
 17 33  1  0  0  0  0
 18 20  2  0  0  0  0
 18 38  1  0  0  0  0
 19 21  2  0  0  0  0
 19 39  1  0  0  0  0
 20 47  1  0  0  0  0
 21 40  1  0  0  0  0
 22 30  2  0  0  0  0
 22 57  1  0  0  0  0
 23 31  1  0  0  0  0
 23 58  1  0  0  0  0
 24 81  1  0  0  0  0
 25 82  1  0  0  0  0
 26 28  2  0  0  0  0
 26 81  1  0  0  0  0
 27 83  1  0  0  0  0
 28 84  1  0  0  0  0
 29 65  2  0  0  0  0
 30 50  1  0  0  0  0
 30 66  1  0  0  0  0
 31 51  1  0  0  0  0
 31 66  2  0  0  0  0
 32 67  1  0  0  0  0
 32 70  1  0  0  0  0
 33 71  1  0  0  0  0
 33 76  2  0  0  0  0
 34 48  1  0  0  0  0
 34 72  1  0  0  0  0
 34 77  2  0  0  0  0
 35 62  1  0  0  0  0
 35 68  1  0  0  0  0
 35 78  2  0  0  0  0
 36 63  1  0  0  0  0
 36 73  1  0  0  0  0
 36 79  2  0  0  0  0
 37 69  1  0  0  0  0
 37 74  1  0  0  0  0
 37 80  2  0  0  0  0
 38 41  1  0  0  0  0
 39 48  1  0  0  0  0
 40 68  1  0  0  0  0
 41 43  1  0  0  0  0
 42 44  1  0  0  0  0
 42 45  1  0  0  0  0
 43 47  1  0  0  0  0
 44 49  1  0  0  0  0
 45 69  1  0  0  0  0
 46 49  1  0  0  0  0
 46 69  1  0  0  0  0
 47 72  1  0  0  0  0
 48 68  1  0  0  0  0
 49 67  1  0  0  0  0
 52 63  1  0  0  0  0
 53 64  1  0  0  0  0
 54 64  1  0  0  0  0
 55 64  1  0  0  0  0
 56 75  1  0  0  0  0
 57 59  1  0  0  0  0
 58 60  1  0  0  0  0
 59 61  1  0  0  0  0
 60 74  1  0  0  0  0
 61 82  1  0  0  0  0
 62 64  1  0  0  0  0
 62 73  1  0  0  0  0
 63 75  1  0  0  0  0
 65 67  1  0  0  0  0
M  CHG  1  75   1
M  ISO  4  37 100  61 101  74 100  82 101
M  END
> <Batch ID>
0042

> <Smiles>
CNC(C)C(=O)NC(C(=O)N1Cc2cc([101O:1][101CH2:1]CCc3cc(CC[100NH:0][100C:0](=O)N4CCCC(n5nc(-c6ccc(Oc7ccc(F)cc7F)cc6)c(C(N)=O)c5N)C4)c(C)nc3C)ccc2CC1C(=O)NC1CCCc2ccccc21)C(C)(C)C

> <Shape>
0.203

> <Color>
0.049

> <Negative vol penalty>
0.000

$$$$

  -OEChem-04052317123D

 83 91  0     1  0  0  0  0  0999 V2000
  -28.6583  -34.6999   22.9999 C   0  0  0  0  0  0  0  0  0  0  0  0
  -29.0203  -33.3582   22.9353 C   0  0  0  0  0  0  0  0  0  0  0  0
  -25.6881  -14.1894   20.8583 C   0  0  0  0  0  0  0  0  0  0  0  0
  -25.8530  -14.1558   18.4481 C   0  0  0  0  0  0  0  0  0  0  0  0
  -27.3152  -35.0532   23.1228 C   0  0  0  0  0  0  0  0  0  0  0  0
  -28.0394  -32.3689   22.9946 C   0  0  0  0  0  0  0  0  0  0  0  0
  -28.7368  -28.7319   19.5405 C   0  0  0  0  0  0  0  0  0  0  0  0
  -24.7303  -13.1766   20.8068 C   0  0  0  0  0  0  0  0  0  0  0  0
  -24.8953  -13.1431   18.3967 C   0  0  0  0  0  0  0  0  0  0  0  0
  -29.7107  -27.7724   19.8139 C   0  0  0  0  0  0  0  0  0  0  0  0
  -24.6734   -9.8204   20.4005 C   0  0  0  0  0  0  0  0  0  0  0  0
  -24.8020   -8.7604   21.2979 C   0  0  0  0  0  0  0  0  0  0  0  0
  -27.9917  -26.2425   20.5376 C   0  0  0  0  0  0  0  0  0  0  0  0
  -22.6358   -9.2865   22.2297 C   0  0  0  0  0  0  0  0  0  0  0  0
  -26.2494  -14.6790   19.6789 C   0  0  0  0  0  0  0  0  0  0  0  0
  -28.6343  -15.5719   19.8289 C   0  0  0  0  0  0  0  0  0  0  0  0
  -26.3165  -34.0680   23.1740 C   0  0  0  0  0  0  0  0  0  0  0  0
  -27.3816  -28.4572   19.7743 C   0  0  0  0  0  0  0  0  0  0  0  0
  -26.6817  -32.7093   23.1197 C   0  0  0  0  0  0  0  0  0  0  0  0
  -27.0024  -27.1992   20.2640 C   0  0  0  0  0  0  0  0  0  0  0  0
  -29.4078  -23.1873   15.9288 C   0  0  0  0  0  0  0  0  0  0  0  0
  -24.3339  -12.6534   19.5760 C   0  0  0  0  0  0  0  0  0  0  0  0
  -29.3385  -26.5285   20.3153 C   0  0  0  0  0  0  0  0  0  0  0  0
  -23.5261  -10.6135   20.4177 C   0  0  0  0  0  0  0  0  0  0  0  0
  -23.7832   -8.4934   22.2125 C   0  0  0  0  0  0  0  0  0  0  0  0
  -22.5073  -10.3466   21.3323 C   0  0  0  0  0  0  0  0  0  0  0  0
  -27.2384  -15.7256   19.7314 C   0  0  0  0  0  0  0  0  0  0  0  0
  -29.3622  -24.5772   16.1477 C   0  0  0  0  0  0  0  0  0  0  0  0
  -30.3028  -22.7220   16.8610 C   0  0  0  0  0  0  0  0  0  0  0  0
  -29.1210  -16.8562   19.8435 C   0  0  0  0  0  0  0  0  0  0  0  0
  -29.4209  -14.3752   19.8998 C   0  0  0  0  0  0  0  0  0  0  0  0
  -25.1347  -29.6908   21.6540 C   0  0  0  0  0  0  0  0  0  0  0  0
  -23.2090  -27.6360   20.0440 C   0  0  0  0  0  0  0  0  0  0  0  0
  -22.9157  -24.7671   18.2191 C   0  0  0  0  0  0  0  0  0  0  0  0
  -26.9827  -22.0505   17.7702 C   0  0  0  0  0  0  0  0  0  0  0  0
  -24.8820  -34.4972   23.3548 C   0  0  0  0  0  0  0  0  0  0  0  0
  -26.3410  -29.4934   19.4490 C   0  0  0  0  0  0  0  0  0  0  0  0
  -25.5592  -26.8474   20.5132 C   0  0  0  0  0  0  0  0  0  0  0  0
  -23.8723  -33.3982   23.0337 C   0  0  0  0  0  0  0  0  0  0  0  0
  -27.9116  -21.3043   21.1253 C   0  0  0  0  0  0  0  0  0  0  0  0
  -24.2875  -32.0841   23.6878 C   0  0  0  0  0  0  0  0  0  0  0  0
  -27.9704  -19.7760   21.1573 C   0  0  0  0  0  0  0  0  0  0  0  0
  -26.7834  -21.8070   20.2273 C   0  0  0  0  0  0  0  0  0  0  0  0
  -26.8571  -19.7407   18.8862 C   0  0  0  0  0  0  0  0  0  0  0  0
  -25.6446  -31.6078   23.1559 C   0  0  1  0  0  0  0  0  0  0  0  0
  -25.0348  -29.2878   20.2099 C   0  0  1  0  0  0  0  0  0  0  0  0
  -28.0144  -19.1867   19.7347 C   0  0  2  0  0  0  0  0  0  0  0  0
  -28.5595  -25.5799   15.4257 C   0  0  0  0  0  0  0  0  0  0  0  0
  -30.7889  -21.3594   17.1491 C   0  0  0  0  0  0  0  0  0  0  0  0
  -21.2094  -23.3266   17.0742 C   0  0  0  0  0  0  0  0  0  0  0  0
  -22.3073  -26.5564   22.7517 C   0  0  0  0  0  0  0  0  0  0  0  0
  -21.3782  -24.5563   21.5665 C   0  0  0  0  0  0  0  0  0  0  0  0
  -20.4731  -26.8279   21.0735 C   0  0  0  0  0  0  0  0  0  0  0  0
  -24.1950  -25.1496   15.5779 C   0  0  0  0  0  0  0  0  0  0  0  0
  -28.6648  -22.4046   14.9260 C   0  0  0  0  0  0  0  0  0  0  0  0
  -31.1235  -23.4100   20.0337 C   0  0  0  0  0  0  0  0  0  0  0  0
  -31.7130  -23.8480   18.6911 C   0  0  0  0  0  0  0  0  0  0  0  0
  -27.1949  -22.1318   15.2989 C   0  0  0  0  0  0  0  0  0  0  0  0
  -29.9034  -24.2224   20.4515 C   0  0  0  0  0  0  0  0  0  1  0  0
  -22.7757  -26.2029   20.2374 C   0  0  1  0  0  0  0  0  0  0  0  0
  -22.1970  -24.4720   16.9149 C   0  0  2  0  0  0  0  0  0  0  0  0
  -21.7610  -26.0429   21.4045 C   0  0  0  0  0  0  0  0  0  0  0  0
  -26.8625  -17.0065   19.6873 N   0  0  0  0  0  0  0  0  0  0  0  0
  -30.1643  -24.9692   17.1412 N   0  0  0  0  0  0  0  0  0  0  0  0
  -30.7222  -23.8187   17.5548 N   0  0  0  0  0  0  0  0  0  0  0  0
  -28.0294  -17.6694   19.7575 N   0  0  0  0  0  0  0  0  0  0  0  0
  -24.5795  -27.8963   20.1855 N   0  0  0  0  0  0  0  0  0  0  0  0
  -26.8837  -21.2117   18.8926 N   0  0  0  0  0  0  0  0  0  0  0  0
  -30.3718  -17.3580   19.9214 N   0  0  0  0  0  0  0  0  0  0  0  0
  -28.7607  -13.1392   19.8725 N   0  0  0  0  0  0  0  0  0  0  0  0
  -25.4931  -31.0115   21.8460 N   0  0  0  0  0  0  0  0  0  0  0  0
  -22.2752  -25.7497   18.9441 N   0  0  0  0  0  0  0  0  0  0  0  0
  -27.0803  -21.4050   16.5436 N   0  0  0  0  0  0  0  0  0  0  0  0
  -23.1776  -24.1031   15.8551 N   0  3  0  0  0  0  0  0  0  0  0  0
  -30.6709  -14.4015   20.0013 O   0  0  0  0  0  0  0  0  0  0  0  0
  -24.9023  -28.8651   22.5291 O   0  0  0  0  0  0  0  0  0  0  0  0
  -22.3637  -28.4916   19.7703 O   0  0  0  0  0  0  0  0  0  0  0  0
  -23.9404  -24.1818   18.5622 O   0  0  0  0  0  0  0  0  0  0  0  0
  -26.9892  -23.2832   17.8554 O   0  0  0  0  0  0  0  0  0  0  0  0
  -23.3996  -11.6650   19.5255 O   0  0  0  0  0  0  0  0  0  0  0  0
  -30.2872  -25.5905   20.5836 O   0  0  0  0  0  0  0  0  0  1  0  0
  -23.9061   -7.4745   23.0733 F   0  0  0  0  0  0  0  0  0  0  0  0
  -21.4022  -11.1043   21.3527 F   0  0  0  0  0  0  0  0  0  0  0  0
  1  2  1  0  0  0  0
  1  5  2  0  0  0  0
  2  6  2  0  0  0  0
  3  8  2  0  0  0  0
  3 15  1  0  0  0  0
  4  9  1  0  0  0  0
  4 15  2  0  0  0  0
  5 17  1  0  0  0  0
  6 19  1  0  0  0  0
  7 10  2  0  0  0  0
  7 18  1  0  0  0  0
  8 22  1  0  0  0  0
  9 22  2  0  0  0  0
 10 23  1  0  0  0  0
 11 12  2  0  0  0  0
 11 24  1  0  0  0  0
 12 25  1  0  0  0  0
 13 20  1  0  0  0  0
 13 23  2  0  0  0  0
 14 25  2  0  0  0  0
 14 26  1  0  0  0  0
 15 27  1  0  0  0  0
 16 27  1  0  0  0  0
 16 30  2  0  0  0  0
 16 31  1  0  0  0  0
 17 19  2  0  0  0  0
 17 36  1  0  0  0  0
 18 20  2  0  0  0  0
 18 37  1  0  0  0  0
 19 45  1  0  0  0  0
 20 38  1  0  0  0  0
 21 28  1  0  0  0  0
 21 29  2  0  0  0  0
 21 55  1  0  0  0  0
 22 80  1  0  0  0  0
 23 81  1  0  0  0  0
 24 26  2  0  0  0  0
 24 80  1  0  0  0  0
 25 82  1  0  0  0  0
 26 83  1  0  0  0  0
 27 63  2  0  0  0  0
 28 48  1  0  0  0  0
 28 64  2  0  0  0  0
 29 49  1  0  0  0  0
 29 65  1  0  0  0  0
 30 66  1  0  0  0  0
 30 69  1  0  0  0  0
 31 70  1  0  0  0  0
 31 75  2  0  0  0  0
 32 46  1  0  0  0  0
 32 71  1  0  0  0  0
 32 76  2  0  0  0  0
 33 60  1  0  0  0  0
 33 67  1  0  0  0  0
 33 77  2  0  0  0  0
 34 61  1  0  0  0  0
 34 72  1  0  0  0  0
 34 78  2  0  0  0  0
 35 68  1  0  0  0  0
 35 73  1  0  0  0  0
 35 79  2  0  0  0  0
 36 39  1  0  0  0  0
 37 46  1  0  0  0  0
 38 67  1  0  0  0  0
 39 41  1  0  0  0  0
 40 42  1  0  0  0  0
 40 43  1  0  0  0  0
 41 45  1  0  0  0  0
 42 47  1  0  0  0  0
 43 68  1  0  0  0  0
 44 47  1  0  0  0  0
 44 68  1  0  0  0  0
 45 71  1  0  0  0  0
 46 67  1  0  0  0  0
 47 66  1  0  0  0  0
 50 61  1  0  0  0  0
 51 62  1  0  0  0  0
 52 62  1  0  0  0  0
 53 62  1  0  0  0  0
 54 74  1  0  0  0  0
 55 58  1  0  0  0  0
 56 57  1  0  0  0  0
 56 59  1  0  0  0  0
 57 65  1  0  0  0  0
 58 73  1  0  0  0  0
 59 81  1  0  0  0  0
 60 62  1  0  0  0  0
 60 72  1  0  0  0  0
 61 74  1  0  0  0  0
 63 66  1  0  0  0  0
 64 65  1  0  0  0  0
M  CHG  1  74   1
M  ISO  4  35 100  59 101  73 100  81 101
M  END
> <Batch ID>
0042

> <Smiles>
CNC(C)C(=O)NC(C(=O)N1Cc2cc([101O:1][101CH2:1]CCn3nc(C)c(CC[100NH:0][100C:0](=O)N4CCCC(n5nc(-c6ccc(Oc7ccc(F)cc7F)cc6)c(C(N)=O)c5N)C4)c3C)ccc2CC1C(=O)NC1CCCc2ccccc21)C(C)(C)C

> <Shape>
0.278

> <Color>
0.063

> <Negative vol penalty>
0.000

$$$$
