
  -OEChem-04052317143D

 87 95  0     1  0  0  0  0  0999 V2000
  -28.4674  -11.0521   19.3502 C   0  0  0  0  0  0  0  0  0  0  0  0
  -28.6171  -12.4116   19.0957 C   0  0  0  0  0  0  0  0  0  0  0  0
  -19.5187  -27.5163   23.9465 C   0  0  0  0  0  0  0  0  0  0  0  0
  -20.1387  -27.9966   21.6614 C   0  0  0  0  0  0  0  0  0  0  0  0
  -27.2775  -10.5732   19.8966 C   0  0  0  0  0  0  0  0  0  0  0  0
  -27.5764  -13.2929   19.3866 C   0  0  0  0  0  0  0  0  0  0  0  0
  -29.1810  -17.4921   21.7183 C   0  0  0  0  0  0  0  0  0  0  0  0
  -18.1814  -27.4164   23.5627 C   0  0  0  0  0  0  0  0  0  0  0  0
  -18.8015  -27.8966   21.2775 C   0  0  0  0  0  0  0  0  0  0  0  0
  -29.7791  -18.4712   20.9263 C   0  0  0  0  0  0  0  0  0  0  0  0
  -14.6492  -26.6786   23.1218 C   0  0  0  0  0  0  0  0  0  0  0  0
  -13.9099  -25.6059   23.6201 C   0  0  0  0  0  0  0  0  0  0  0  0
  -27.7115  -19.7138   20.9115 C   0  0  0  0  0  0  0  0  0  0  0  0
  -15.4415  -24.0616   22.5681 C   0  0  0  0  0  0  0  0  0  0  0  0
  -28.8640  -28.2710   19.9695 C   0  0  0  0  0  0  0  0  0  0  0  0
  -20.4973  -27.8065   22.9959 C   0  0  0  0  0  0  0  0  0  0  0  0
  -22.8317  -26.8749   23.4326 C   0  0  0  0  0  0  0  0  0  0  0  0
  -26.2253  -11.4503   20.2033 C   0  0  0  0  0  0  0  0  0  0  0  0
  -27.8382  -17.6113   22.1045 C   0  0  0  0  0  0  0  0  0  0  0  0
  -26.3707  -12.8251   19.9364 C   0  0  0  0  0  0  0  0  0  0  0  0
  -27.0994  -18.7361   21.7106 C   0  0  0  0  0  0  0  0  0  0  0  0
  -17.8228  -27.6065   22.2282 C   0  0  0  0  0  0  0  0  0  0  0  0
  -29.0436  -19.5808   20.5204 C   0  0  0  0  0  0  0  0  0  0  0  0
  -15.7846  -26.4428   22.3466 C   0  0  0  0  0  0  0  0  0  0  0  0
  -14.3060  -24.2974   23.3433 C   0  0  0  0  0  0  0  0  0  0  0  0
  -16.1808  -25.1344   22.0698 C   0  0  0  0  0  0  0  0  0  0  0  0
  -21.8788  -27.9104   23.3919 C   0  0  0  0  0  0  0  0  0  0  0  0
  -29.7986  -29.2829   19.9788 C   0  0  0  0  0  0  0  0  0  0  0  0
  -31.4575  -27.7540   19.6037 C   0  0  0  0  0  0  0  0  0  0  0  0
  -30.5229  -26.7421   19.5952 C   0  0  0  0  0  0  0  0  0  0  0  0
  -23.9818  -27.4837   23.8718 C   0  0  0  0  0  0  0  0  0  0  0  0
  -22.6898  -25.4868   23.1028 C   0  0  0  0  0  0  0  0  0  0  0  0
  -25.2025  -15.9041   21.6121 C   0  0  0  0  0  0  0  0  0  0  0  0
  -23.9062  -18.0280   23.6932 C   0  0  0  0  0  0  0  0  0  0  0  0
  -24.0280  -21.1228   25.1264 C   0  0  0  0  0  0  0  0  0  0  0  0
  -27.5990  -31.7313   23.7304 C   0  0  0  0  0  0  0  0  0  0  0  0
  -24.9402  -10.8798   20.7489 C   0  0  0  0  0  0  0  0  0  0  0  0
  -27.2154  -16.5597   22.9813 C   0  0  0  0  0  0  0  0  0  0  0  0
  -25.6605  -18.9213   22.1152 C   0  0  0  0  0  0  0  0  0  0  0  0
  -24.0260  -11.9289   21.3765 C   0  0  0  0  0  0  0  0  0  0  0  0
  -24.7320  -32.0954   25.8099 C   0  0  0  0  0  0  0  0  0  0  0  0
  -23.9089  -13.1478   20.4668 C   0  0  0  0  0  0  0  0  0  0  0  0
  -23.8108  -30.9580   25.3653 C   0  0  0  0  0  0  0  0  0  0  0  0
  -25.5014  -32.6913   24.6331 C   0  0  0  0  0  0  0  0  0  0  0  0
  -25.3323  -30.5753   23.3810 C   0  0  0  0  0  0  0  0  0  0  0  0
  -25.2739  -13.8158   20.2612 C   0  0  1  0  0  0  0  0  0  0  0  0
  -25.6930  -16.5286   22.8877 C   0  0  1  0  0  0  0  0  0  0  0  0
  -24.5769  -29.9054   24.5416 C   0  0  2  0  0  0  0  0  0  0  0  0
  -32.9073  -27.4745   19.3997 C   0  0  0  0  0  0  0  0  0  0  0  0
  -28.9871  -31.1778   17.7036 C   0  0  0  0  0  0  0  0  0  0  0  0
  -22.8113  -22.5849   26.7632 C   0  0  0  0  0  0  0  0  0  0  0  0
  -21.7509  -18.5706   21.6027 C   0  0  0  0  0  0  0  0  0  0  0  0
  -21.1564  -20.6538   22.8576 C   0  0  0  0  0  0  0  0  0  0  0  0
  -20.9110  -18.4265   23.9539 C   0  0  0  0  0  0  0  0  0  0  0  0
  -26.3844  -21.2860   26.9095 C   0  0  0  0  0  0  0  0  0  0  0  0
  -30.9226  -25.3042   19.3791 C   0  0  0  0  0  0  0  0  0  0  0  0
  -29.6949  -31.6193   18.9794 C   0  0  0  0  0  0  0  0  0  0  0  0
  -29.8216  -24.2964   19.7275 C   0  0  0  0  0  0  0  0  0  0  0  0
  -30.2709  -22.8425   19.5755 C   0  0  0  0  0  0  0  0  0  0  0  0
  -30.0085  -31.3340   21.4739 C   0  0  0  0  0  0  0  0  0  0  0  0
  -29.6139  -30.6395   22.7778 C   0  0  0  0  0  0  0  0  0  0  0  0
  -29.1407  -21.8722   19.8912 C   0  0  0  0  0  0  0  0  0  1  0  0
  -29.3807  -30.6951   20.1948 C   0  0  2  0  0  0  0  0  0  0  0  0
  -23.2247  -19.3691   23.5664 C   0  0  1  0  0  0  0  0  0  0  0  0
  -23.9253  -21.5671   26.5744 C   0  0  2  0  0  0  0  0  0  0  0  0
  -21.7873  -19.2508   22.9857 C   0  0  0  0  0  0  0  0  0  0  0  0
  -29.2094  -26.9824   19.7776 N   0  0  0  0  0  0  0  0  0  0  0  0
  -22.3801  -29.0877   23.7748 N   0  0  0  0  0  0  0  0  0  0  0  0
  -31.1122  -29.0425   19.7960 N   0  0  0  0  0  0  0  0  0  0  0  0
  -23.6604  -28.7957   24.0604 N   0  0  0  0  0  0  0  0  0  0  0  0
  -25.0945  -17.8627   22.9676 N   0  0  0  0  0  0  0  0  0  0  0  0
  -26.2069  -31.6412   23.8945 N   0  0  0  0  0  0  0  0  0  0  0  0
  -25.2266  -27.0195   24.1112 N   0  0  0  0  0  0  0  0  0  0  0  0
  -21.4390  -25.0279   22.6677 N   0  0  0  0  0  0  0  0  0  0  0  0
  -25.6306  -14.6041   21.4213 N   0  0  0  0  0  0  0  0  0  0  0  0
  -23.2867  -19.9850   24.8875 N   0  0  0  0  0  0  0  0  0  0  0  0
  -28.1899  -30.6912   23.0234 N   0  0  0  0  0  0  0  0  0  0  0  0
  -25.2066  -22.1848   27.0188 N   0  3  0  0  0  0  0  0  0  0  0  0
  -23.6397  -24.6741   23.2070 O   0  0  0  0  0  0  0  0  0  0  0  0
  -24.4873  -16.5530   20.8577 O   0  0  0  0  0  0  0  0  0  0  0  0
  -23.4066  -17.1616   24.4153 O   0  0  0  0  0  0  0  0  0  0  0  0
  -24.6958  -21.7270   24.2900 O   0  0  0  0  0  0  0  0  0  0  0  0
  -28.2666  -32.6664   24.1851 O   0  0  0  0  0  0  0  0  0  0  0  0
  -16.5180  -27.5089   21.8532 O   0  0  0  0  0  0  0  0  0  0  0  0
  -29.6248  -20.5376   19.7467 O   0  0  0  0  0  0  0  0  0  1  0  0
  -13.5968  -23.2674   23.8232 F   0  0  0  0  0  0  0  0  0  0  0  0
  -17.2713  -24.9016   21.3266 F   0  0  0  0  0  0  0  0  0  0  0  0
  1  2  1  0  0  0  0
  1  5  2  0  0  0  0
  2  6  2  0  0  0  0
  3  8  2  0  0  0  0
  3 16  1  0  0  0  0
  4  9  1  0  0  0  0
  4 16  2  0  0  0  0
  5 18  1  0  0  0  0
  6 20  1  0  0  0  0
  7 10  2  0  0  0  0
  7 19  1  0  0  0  0
  8 22  1  0  0  0  0
  9 22  2  0  0  0  0
 10 23  1  0  0  0  0
 11 12  2  0  0  0  0
 11 24  1  0  0  0  0
 12 25  1  0  0  0  0
 13 21  1  0  0  0  0
 13 23  2  0  0  0  0
 14 25  2  0  0  0  0
 14 26  1  0  0  0  0
 15 28  1  0  0  0  0
 15 67  2  0  0  0  0
 16 27  1  0  0  0  0
 17 27  1  0  0  0  0
 17 31  2  0  0  0  0
 17 32  1  0  0  0  0
 18 20  2  0  0  0  0
 18 37  1  0  0  0  0
 19 21  2  0  0  0  0
 19 38  1  0  0  0  0
 20 46  1  0  0  0  0
 21 39  1  0  0  0  0
 22 84  1  0  0  0  0
 23 85  1  0  0  0  0
 24 26  2  0  0  0  0
 24 84  1  0  0  0  0
 25 86  1  0  0  0  0
 26 87  1  0  0  0  0
 27 68  2  0  0  0  0
 28 63  1  0  0  0  0
 28 69  2  0  0  0  0
 29 30  2  0  0  0  0
 29 49  1  0  0  0  0
 29 69  1  0  0  0  0
 30 56  1  0  0  0  0
 30 67  1  0  0  0  0
 31 70  1  0  0  0  0
 31 73  1  0  0  0  0
 32 74  1  0  0  0  0
 32 79  2  0  0  0  0
 33 47  1  0  0  0  0
 33 75  1  0  0  0  0
 33 80  2  0  0  0  0
 34 64  1  0  0  0  0
 34 71  1  0  0  0  0
 34 81  2  0  0  0  0
 35 65  1  0  0  0  0
 35 76  1  0  0  0  0
 35 82  2  0  0  0  0
 36 72  1  0  0  0  0
 36 77  1  0  0  0  0
 36 83  2  0  0  0  0
 37 40  1  0  0  0  0
 38 47  1  0  0  0  0
 39 71  1  0  0  0  0
 40 42  1  0  0  0  0
 41 43  1  0  0  0  0
 41 44  1  0  0  0  0
 42 46  1  0  0  0  0
 43 48  1  0  0  0  0
 44 72  1  0  0  0  0
 45 48  1  0  0  0  0
 45 72  1  0  0  0  0
 46 75  1  0  0  0  0
 47 71  1  0  0  0  0
 48 70  1  0  0  0  0
 50 57  1  0  0  0  0
 51 65  1  0  0  0  0
 52 66  1  0  0  0  0
 53 66  1  0  0  0  0
 54 66  1  0  0  0  0
 55 78  1  0  0  0  0
 56 58  1  0  0  0  0
 57 63  1  0  0  0  0
 58 59  1  0  0  0  0
 59 62  1  0  0  0  0
 60 61  1  0  0  0  0
 60 63  1  0  0  0  0
 61 77  1  0  0  0  0
 62 85  1  0  0  0  0
 64 66  1  0  0  0  0
 64 76  1  0  0  0  0
 65 78  1  0  0  0  0
 68 70  1  0  0  0  0
M  CHG  1  78   1
M  ISO  4  36 100  62 101  77 100  85 101
M  END
> <Batch ID>
0043

> <Smiles>
CCC(CC[100NH:0][100C:0](=O)N1CCCC(n2nc(-c3ccc(Oc4ccc(F)cc4F)cc3)c(C(N)=O)c2N)C1)c1cnc(CCC[101CH2:1][101O:1]c2ccc3c(c2)CN(C(=O)C(NC(=O)C(C)NC)C(C)(C)C)C(C(=O)NC2CCCc4ccccc42)C3)c(C)n1

> <Shape>
0.237

> <Color>
0.071

> <Negative vol penalty>
0.000

$$$$

  -OEChem-04052317143D

 82 90  0     1  0  0  0  0  0999 V2000
  -21.2905  -32.9001   14.8788 C   0  0  0  0  0  0  0  0  0  0  0  0
  -21.4543  -31.5868   15.3076 C   0  0  0  0  0  0  0  0  0  0  0  0
  -24.4490   -9.8379   21.6156 C   0  0  0  0  0  0  0  0  0  0  0  0
  -24.7608  -11.0051   23.7078 C   0  0  0  0  0  0  0  0  0  0  0  0
  -22.2628  -33.8549   15.1737 C   0  0  0  0  0  0  0  0  0  0  0  0
  -22.5911  -31.2274   16.0308 C   0  0  0  0  0  0  0  0  0  0  0  0
  -22.9339  -27.0921   20.5350 C   0  0  0  0  0  0  0  0  0  0  0  0
  -24.0872   -8.6852   22.3126 C   0  0  0  0  0  0  0  0  0  0  0  0
  -24.3990   -9.8524   24.4048 C   0  0  0  0  0  0  0  0  0  0  0  0
  -23.3420  -25.7591   20.5555 C   0  0  0  0  0  0  0  0  0  0  0  0
  -21.3530   -7.4912   23.9036 C   0  0  0  0  0  0  0  0  0  0  0  0
  -20.2350   -6.7872   23.4562 C   0  0  0  0  0  0  0  0  0  0  0  0
  -25.5407  -26.4497   21.2684 C   0  0  0  0  0  0  0  0  0  0  0  0
  -21.6113   -4.8362   23.0870 C   0  0  0  0  0  0  0  0  0  0  0  0
  -25.5938  -21.3712   19.7240 C   0  0  0  0  0  0  0  0  0  0  0  0
  -24.7858  -10.9979   22.3132 C   0  0  0  0  0  0  0  0  0  0  0  0
  -24.3071  -13.2162   21.1480 C   0  0  0  0  0  0  0  0  0  0  0  0
  -23.4074  -33.5091   15.9092 C   0  0  0  0  0  0  0  0  0  0  0  0
  -23.8307  -28.1164   20.8711 C   0  0  0  0  0  0  0  0  0  0  0  0
  -23.5802  -32.1782   16.3347 C   0  0  0  0  0  0  0  0  0  0  0  0
  -25.1407  -27.7946   21.2539 C   0  0  0  0  0  0  0  0  0  0  0  0
  -24.0622   -8.6924   23.7072 C   0  0  0  0  0  0  0  0  0  0  0  0
  -24.6464  -25.4380   20.9195 C   0  0  0  0  0  0  0  0  0  0  0  0
  -22.6002   -6.8677   23.9425 C   0  0  0  0  0  0  0  0  0  0  0  0
  -20.3641   -5.4597   23.0480 C   0  0  0  0  0  0  0  0  0  0  0  0
  -22.7293   -5.5402   23.5343 C   0  0  0  0  0  0  0  0  0  0  0  0
  -25.1602  -12.1889   21.5938 C   0  0  0  0  0  0  0  0  0  0  0  0
  -26.1172  -20.1074   19.9063 C   0  0  0  0  0  0  0  0  0  0  0  0
  -24.7008  -21.7923   20.6881 C   0  0  0  0  0  0  0  0  0  0  0  0
  -25.1431  -14.1107   20.5254 C   0  0  0  0  0  0  0  0  0  0  0  0
  -24.9189  -19.8321   21.8182 C   0  0  0  0  0  0  0  0  0  0  0  0
  -22.8862  -13.3501   21.2846 C   0  0  0  0  0  0  0  0  0  0  0  0
  -25.0609  -30.6136   19.3368 C   0  0  0  0  0  0  0  0  0  0  0  0
  -26.3059  -31.2978   22.2530 C   0  0  0  0  0  0  0  0  0  0  0  0
  -27.2905  -30.1702   25.3199 C   0  0  0  0  0  0  0  0  0  0  0  0
  -29.8837  -17.0519   20.3795 C   0  0  0  0  0  0  0  0  0  0  0  0
  -24.4537  -34.5653   16.1630 C   0  0  0  0  0  0  0  0  0  0  0  0
  -23.3672  -29.5473   20.8698 C   0  0  0  0  0  0  0  0  0  0  0  0
  -26.1364  -28.8556   21.6431 C   0  0  0  0  0  0  0  0  0  0  0  0
  -25.4490  -34.1862   17.2565 C   0  0  0  0  0  0  0  0  0  0  0  0
  -30.0059  -13.6961   19.1960 C   0  0  0  0  0  0  0  0  0  0  0  0
  -25.9446  -32.7576   17.0555 C   0  0  0  0  0  0  0  0  0  0  0  0
  -28.6892  -13.0884   19.6828 C   0  0  0  0  0  0  0  0  0  0  0  0
  -30.5821  -14.6812   20.2108 C   0  0  0  0  0  0  0  0  0  0  0  0
  -28.3382  -15.1393   21.1213 C   0  0  0  0  0  0  0  0  0  0  0  0
  -24.7876  -31.7550   17.1428 C   0  0  1  0  0  0  0  0  0  0  0  0
  -24.5123  -30.5462   20.7340 C   0  0  1  0  0  0  0  0  0  0  0  0
  -27.6901  -14.1815   20.1069 C   0  0  2  0  0  0  0  0  0  0  0  0
  -24.5464  -18.9793   22.9834 C   0  0  0  0  0  0  0  0  0  0  0  0
  -28.3034  -30.9582   27.4764 C   0  0  0  0  0  0  0  0  0  0  0  0
  -29.0429  -31.4418   20.9121 C   0  0  0  0  0  0  0  0  0  0  0  0
  -30.0862  -31.2785   23.1822 C   0  0  0  0  0  0  0  0  0  0  0  0
  -28.6234  -33.2194   22.6205 C   0  0  0  0  0  0  0  0  0  0  0  0
  -24.9096  -29.3473   26.8733 C   0  0  0  0  0  0  0  0  0  0  0  0
  -27.0922  -19.5655   18.9154 C   0  0  0  0  0  0  0  0  0  0  0  0
  -24.0801  -23.1538   20.5764 C   0  0  0  0  0  0  0  0  0  1  0  0
  -28.5669  -19.8801   19.2345 C   0  0  0  0  0  0  0  0  0  0  0  0
  -29.0369  -19.3746   20.5968 C   0  0  0  0  0  0  0  0  0  0  0  0
  -27.5804  -30.9447   22.9810 C   0  0  1  0  0  0  0  0  0  0  0  0
  -27.0123  -30.6867   26.7200 C   0  0  2  0  0  0  0  0  0  0  0  0
  -28.8152  -31.7010   22.4148 C   0  0  0  0  0  0  0  0  0  0  0  0
  -26.4399  -12.4091   21.2808 N   0  0  0  0  0  0  0  0  0  0  0  0
  -25.8006  -19.3077   20.9458 N   0  0  0  0  0  0  0  0  0  0  0  0
  -24.3392  -21.0459   21.7523 N   0  0  0  0  0  0  0  0  0  0  0  0
  -26.3971  -13.5850   20.6316 N   0  0  0  0  0  0  0  0  0  0  0  0
  -25.6372  -30.2404   21.6201 N   0  0  0  0  0  0  0  0  0  0  0  0
  -29.5851  -15.6926   20.5697 N   0  0  0  0  0  0  0  0  0  0  0  0
  -24.9204  -15.2876   19.9028 N   0  0  0  0  0  0  0  0  0  0  0  0
  -22.1811  -12.3396   21.9526 N   0  0  0  0  0  0  0  0  0  0  0  0
  -24.4188  -31.5279   18.5237 N   0  0  0  0  0  0  0  0  0  0  0  0
  -27.3246  -31.1929   24.3957 N   0  0  0  0  0  0  0  0  0  0  0  0
  -28.8813  -17.9441   20.7396 N   0  0  0  0  0  0  0  0  0  0  0  0
  -26.2165  -29.6902   27.4911 N   0  3  0  0  0  0  0  0  0  0  0  0
  -22.2582  -14.3285   20.8135 O   0  0  0  0  0  0  0  0  0  0  0  0
  -25.9985  -29.8908   19.0203 O   0  0  0  0  0  0  0  0  0  0  0  0
  -25.9141  -32.4675   22.2522 O   0  0  0  0  0  0  0  0  0  0  0  0
  -27.4642  -28.9791   25.0716 O   0  0  0  0  0  0  0  0  0  0  0  0
  -30.9617  -17.4412   19.9175 O   0  0  0  0  0  0  0  0  0  0  0  0
  -23.7090   -7.5678   24.3877 O   0  0  0  0  0  0  0  0  0  0  0  0
  -25.0476  -24.1378   20.9397 O   0  0  0  0  0  0  0  0  0  1  0  0
  -19.2902   -4.7833   22.6199 F   0  0  0  0  0  0  0  0  0  0  0  0
  -23.9246   -4.9355   23.5706 F   0  0  0  0  0  0  0  0  0  0  0  0
  1  2  1  0  0  0  0
  1  5  2  0  0  0  0
  2  6  2  0  0  0  0
  3  8  2  0  0  0  0
  3 16  1  0  0  0  0
  4  9  1  0  0  0  0
  4 16  2  0  0  0  0
  5 18  1  0  0  0  0
  6 20  1  0  0  0  0
  7 10  2  0  0  0  0
  7 19  1  0  0  0  0
  8 22  1  0  0  0  0
  9 22  2  0  0  0  0
 10 23  1  0  0  0  0
 11 12  2  0  0  0  0
 11 24  1  0  0  0  0
 12 25  1  0  0  0  0
 13 21  1  0  0  0  0
 13 23  2  0  0  0  0
 14 25  2  0  0  0  0
 14 26  1  0  0  0  0
 15 28  2  0  0  0  0
 15 29  1  0  0  0  0
 16 27  1  0  0  0  0
 17 27  1  0  0  0  0
 17 30  2  0  0  0  0
 17 32  1  0  0  0  0
 18 20  2  0  0  0  0
 18 37  1  0  0  0  0
 19 21  2  0  0  0  0
 19 38  1  0  0  0  0
 20 46  1  0  0  0  0
 21 39  1  0  0  0  0
 22 79  1  0  0  0  0
 23 80  1  0  0  0  0
 24 26  2  0  0  0  0
 24 79  1  0  0  0  0
 25 81  1  0  0  0  0
 26 82  1  0  0  0  0
 27 62  2  0  0  0  0
 28 55  1  0  0  0  0
 28 63  1  0  0  0  0
 29 56  1  0  0  0  0
 29 64  2  0  0  0  0
 30 65  1  0  0  0  0
 30 68  1  0  0  0  0
 31 49  1  0  0  0  0
 31 63  2  0  0  0  0
 31 64  1  0  0  0  0
 32 69  1  0  0  0  0
 32 74  2  0  0  0  0
 33 47  1  0  0  0  0
 33 70  1  0  0  0  0
 33 75  2  0  0  0  0
 34 59  1  0  0  0  0
 34 66  1  0  0  0  0
 34 76  2  0  0  0  0
 35 60  1  0  0  0  0
 35 71  1  0  0  0  0
 35 77  2  0  0  0  0
 36 67  1  0  0  0  0
 36 72  1  0  0  0  0
 36 78  2  0  0  0  0
 37 40  1  0  0  0  0
 38 47  1  0  0  0  0
 39 66  1  0  0  0  0
 40 42  1  0  0  0  0
 41 43  1  0  0  0  0
 41 44  1  0  0  0  0
 42 46  1  0  0  0  0
 43 48  1  0  0  0  0
 44 67  1  0  0  0  0
 45 48  1  0  0  0  0
 45 67  1  0  0  0  0
 46 70  1  0  0  0  0
 47 66  1  0  0  0  0
 48 65  1  0  0  0  0
 50 60  1  0  0  0  0
 51 61  1  0  0  0  0
 52 61  1  0  0  0  0
 53 61  1  0  0  0  0
 54 73  1  0  0  0  0
 55 57  1  0  0  0  0
 56 80  1  0  0  0  0
 57 58  1  0  0  0  0
 58 72  1  0  0  0  0
 59 61  1  0  0  0  0
 59 71  1  0  0  0  0
 60 73  1  0  0  0  0
 62 65  1  0  0  0  0
M  CHG  1  73   1
M  ISO  4  36 100  56 101  72 100  80 101
M  END
> <Batch ID>
0043

> <Smiles>
CNC(C)C(=O)NC(C(=O)N1Cc2cc([101O:1][101CH2:1]c3cc(CCC[100NH:0][100C:0](=O)N4CCCC(n5nc(-c6ccc(Oc7ccc(F)cc7F)cc6)c(C(N)=O)c5N)C4)nc(C)n3)ccc2CC1C(=O)NC1CCCc2ccccc21)C(C)(C)C

> <Shape>
0.237

> <Color>
0.106

> <Negative vol penalty>
0.000

$$$$

  -OEChem-04052317143D

 83 91  0     1  0  0  0  0  0999 V2000
  -24.0775   -8.2971   21.9159 C   0  0  0  0  0  0  0  0  0  0  0  0
  -24.7465   -9.3605   21.3182 C   0  0  0  0  0  0  0  0  0  0  0  0
  -25.9472  -27.1223   21.2827 C   0  0  0  0  0  0  0  0  0  0  0  0
  -26.3705  -28.0476   19.0914 C   0  0  0  0  0  0  0  0  0  0  0  0
  -22.7121   -8.3945   22.1806 C   0  0  0  0  0  0  0  0  0  0  0  0
  -24.0502  -10.5214   20.9840 C   0  0  0  0  0  0  0  0  0  0  0  0
  -26.5433  -14.7286   22.2990 C   0  0  0  0  0  0  0  0  0  0  0  0
  -25.0343  -28.1454   21.5385 C   0  0  0  0  0  0  0  0  0  0  0  0
  -25.4575  -29.0708   19.3471 C   0  0  0  0  0  0  0  0  0  0  0  0
  -27.5938  -15.1301   21.4750 C   0  0  0  0  0  0  0  0  0  0  0  0
  -25.1311  -31.4016   22.4398 C   0  0  0  0  0  0  0  0  0  0  0  0
  -25.1976  -32.0330   23.6817 C   0  0  0  0  0  0  0  0  0  0  0  0
  -26.1477  -16.7560   20.4337 C   0  0  0  0  0  0  0  0  0  0  0  0
  -30.5332  -18.5388   18.4342 C   0  0  0  0  0  0  0  0  0  0  0  0
  -22.9275  -31.3514   24.1499 C   0  0  0  0  0  0  0  0  0  0  0  0
  -26.6153  -27.0734   20.0592 C   0  0  0  0  0  0  0  0  0  0  0  0
  -27.2905  -24.7634   19.2132 C   0  0  0  0  0  0  0  0  0  0  0  0
  -22.0007   -9.5610   21.8583 C   0  0  0  0  0  0  0  0  0  0  0  0
  -25.2820  -15.3313   22.1889 C   0  0  0  0  0  0  0  0  0  0  0  0
  -22.6738  -10.6340   21.2435 C   0  0  0  0  0  0  0  0  0  0  0  0
  -25.0835  -16.3621   21.2592 C   0  0  0  0  0  0  0  0  0  0  0  0
  -29.3801  -17.8459   17.9899 C   0  0  0  0  0  0  0  0  0  0  0  0
  -24.7895  -29.1197   20.5707 C   0  0  0  0  0  0  0  0  0  0  0  0
  -27.3953  -16.1419   20.5401 C   0  0  0  0  0  0  0  0  0  0  0  0
  -23.9628  -30.7451   22.0528 C   0  0  0  0  0  0  0  0  0  0  0  0
  -24.0959  -32.0079   24.5368 C   0  0  0  0  0  0  0  0  0  0  0  0
  -22.8610  -30.7200   22.9079 C   0  0  0  0  0  0  0  0  0  0  0  0
  -27.5589  -26.0171   19.7947 C   0  0  0  0  0  0  0  0  0  0  0  0
  -31.4272  -18.5637   17.3866 C   0  0  0  0  0  0  0  0  0  0  0  0
  -29.6047  -17.4684   16.6843 C   0  0  0  0  0  0  0  0  0  0  0  0
  -28.5097  -24.1318   19.1810 C   0  0  0  0  0  0  0  0  0  0  0  0
  -26.0500  -24.2186   18.7440 C   0  0  0  0  0  0  0  0  0  0  0  0
  -22.3657  -14.3108   21.4423 C   0  0  0  0  0  0  0  0  0  0  0  0
  -21.5218  -17.3350   22.2574 C   0  0  0  0  0  0  0  0  0  0  0  0
  -22.8296  -20.6598   21.7549 C   0  0  0  0  0  0  0  0  0  0  0  0
  -33.9968  -24.1922   18.1644 C   0  0  0  0  0  0  0  0  0  0  0  0
  -20.5160   -9.6016   22.1205 C   0  0  0  0  0  0  0  0  0  0  0  0
  -24.1665  -14.9053   23.1035 C   0  0  0  0  0  0  0  0  0  0  0  0
  -23.7541  -17.0552   21.1154 C   0  0  0  0  0  0  0  0  0  0  0  0
  -19.9282  -11.0097   22.0773 C   0  0  0  0  0  0  0  0  0  0  0  0
  -32.9121  -25.3601   21.3481 C   0  0  0  0  0  0  0  0  0  0  0  0
  -20.4334  -11.7617   20.8501 C   0  0  0  0  0  0  0  0  0  0  0  0
  -31.4023  -25.5375   21.1778 C   0  0  0  0  0  0  0  0  0  0  0  0
  -33.6712  -25.7330   20.0766 C   0  0  0  0  0  0  0  0  0  0  0  0
  -31.7020  -25.2210   18.6860 C   0  0  0  0  0  0  0  0  0  0  0  0
  -21.9582  -11.9194   20.8888 C   0  0  1  0  0  0  0  0  0  0  0  0
  -22.7827  -15.2342   22.5517 C   0  0  1  0  0  0  0  0  0  0  0  0
  -30.8895  -24.8040   19.9239 C   0  0  2  0  0  0  0  0  0  0  0  0
  -28.7379  -16.7249   15.7452 C   0  0  0  0  0  0  0  0  0  0  0  0
  -22.5675  -22.7414   23.1318 C   0  0  0  0  0  0  0  0  0  0  0  0
  -19.1952  -17.9374   20.3776 C   0  0  0  0  0  0  0  0  0  0  0  0
  -19.8664  -20.3488   20.4323 C   0  0  0  0  0  0  0  0  0  0  0  0
  -19.1516  -19.2070   22.5318 C   0  0  0  0  0  0  0  0  0  0  0  0
  -31.4691  -17.7157   15.0328 C   0  0  0  0  0  0  0  0  0  0  0  0
  -25.7586  -21.0165   21.9839 C   0  0  0  0  0  0  0  0  0  0  0  0
  -28.1452  -17.5776   18.7988 C   0  0  0  0  0  0  0  0  0  1  0  0
  -32.7783  -19.1563   17.3093 C   0  0  0  0  0  0  0  0  0  0  0  0
  -32.7597  -20.6209   16.8269 C   0  0  0  0  0  0  0  0  0  0  0  0
  -34.1686  -21.2104   16.7121 C   0  0  0  0  0  0  0  0  0  0  0  0
  -34.1617  -22.6551   16.2230 C   0  0  0  0  0  0  0  0  0  0  0  0
  -21.3995  -18.6464   21.5197 C   0  0  1  0  0  0  0  0  0  0  0  0
  -23.4620  -21.5558   22.8045 C   0  0  2  0  0  0  0  0  0  0  0  0
  -19.9217  -19.0149   21.2072 C   0  0  0  0  0  0  0  0  0  0  0  0
  -28.8474  -26.1743   20.1094 N   0  0  0  0  0  0  0  0  0  0  0  0
  -30.8523  -17.9098   16.3283 N   0  0  0  0  0  0  0  0  0  0  0  0
  -29.3995  -25.0111   19.7244 N   0  0  0  0  0  0  0  0  0  0  0  0
  -22.6928  -16.5987   22.0280 N   0  0  0  0  0  0  0  0  0  0  0  0
  -33.1371  -25.0018   18.9251 N   0  0  0  0  0  0  0  0  0  0  0  0
  -28.8967  -22.9155   18.7414 N   0  0  0  0  0  0  0  0  0  0  0  0
  -24.8929  -25.0019   18.8521 N   0  0  0  0  0  0  0  0  0  0  0  0
  -22.3339  -12.9771   21.8024 N   0  0  0  0  0  0  0  0  0  0  0  0
  -22.1043  -19.6362   22.3271 N   0  0  0  0  0  0  0  0  0  0  0  0
  -33.4085  -23.5292   17.0943 N   0  0  0  0  0  0  0  0  0  0  0  0
  -24.7724  -22.0752   22.3207 N   0  3  0  0  0  0  0  0  0  0  0  0
  -25.9673  -23.0648   18.2588 O   0  0  0  0  0  0  0  0  0  0  0  0
  -22.0915  -14.7741   20.3414 O   0  0  0  0  0  0  0  0  0  0  0  0
  -20.6152  -16.9804   23.0149 O   0  0  0  0  0  0  0  0  0  0  0  0
  -22.9624  -20.8512   20.5481 O   0  0  0  0  0  0  0  0  0  0  0  0
  -35.1984  -24.0652   18.4231 O   0  0  0  0  0  0  0  0  0  0  0  0
  -23.8986  -30.1181   20.8198 O   0  0  0  0  0  0  0  0  0  0  0  0
  -28.4188  -16.5352   19.7341 O   0  0  0  0  0  0  0  0  0  1  0  0
  -24.1604  -32.6130   25.7300 F   0  0  0  0  0  0  0  0  0  0  0  0
  -21.7363  -30.0899   22.5421 F   0  0  0  0  0  0  0  0  0  0  0  0
  1  2  1  0  0  0  0
  1  5  2  0  0  0  0
  2  6  2  0  0  0  0
  3  8  2  0  0  0  0
  3 16  1  0  0  0  0
  4  9  1  0  0  0  0
  4 16  2  0  0  0  0
  5 18  1  0  0  0  0
  6 20  1  0  0  0  0
  7 10  2  0  0  0  0
  7 19  1  0  0  0  0
  8 23  1  0  0  0  0
  9 23  2  0  0  0  0
 10 24  1  0  0  0  0
 11 12  2  0  0  0  0
 11 25  1  0  0  0  0
 12 26  1  0  0  0  0
 13 21  1  0  0  0  0
 13 24  2  0  0  0  0
 14 22  1  0  0  0  0
 14 29  2  0  0  0  0
 15 26  2  0  0  0  0
 15 27  1  0  0  0  0
 16 28  1  0  0  0  0
 17 28  1  0  0  0  0
 17 31  2  0  0  0  0
 17 32  1  0  0  0  0
 18 20  2  0  0  0  0
 18 37  1  0  0  0  0
 19 21  2  0  0  0  0
 19 38  1  0  0  0  0
 20 46  1  0  0  0  0
 21 39  1  0  0  0  0
 22 30  2  0  0  0  0
 22 56  1  0  0  0  0
 23 80  1  0  0  0  0
 24 81  1  0  0  0  0
 25 27  2  0  0  0  0
 25 80  1  0  0  0  0
 26 82  1  0  0  0  0
 27 83  1  0  0  0  0
 28 64  2  0  0  0  0
 29 57  1  0  0  0  0
 29 65  1  0  0  0  0
 30 49  1  0  0  0  0
 30 65  1  0  0  0  0
 31 66  1  0  0  0  0
 31 69  1  0  0  0  0
 32 70  1  0  0  0  0
 32 75  2  0  0  0  0
 33 47  1  0  0  0  0
 33 71  1  0  0  0  0
 33 76  2  0  0  0  0
 34 61  1  0  0  0  0
 34 67  1  0  0  0  0
 34 77  2  0  0  0  0
 35 62  1  0  0  0  0
 35 72  1  0  0  0  0
 35 78  2  0  0  0  0
 36 68  1  0  0  0  0
 36 73  1  0  0  0  0
 36 79  2  0  0  0  0
 37 40  1  0  0  0  0
 38 47  1  0  0  0  0
 39 67  1  0  0  0  0
 40 42  1  0  0  0  0
 41 43  1  0  0  0  0
 41 44  1  0  0  0  0
 42 46  1  0  0  0  0
 43 48  1  0  0  0  0
 44 68  1  0  0  0  0
 45 48  1  0  0  0  0
 45 68  1  0  0  0  0
 46 71  1  0  0  0  0
 47 67  1  0  0  0  0
 48 66  1  0  0  0  0
 50 62  1  0  0  0  0
 51 63  1  0  0  0  0
 52 63  1  0  0  0  0
 53 63  1  0  0  0  0
 54 65  1  0  0  0  0
 55 74  1  0  0  0  0
 56 81  1  0  0  0  0
 57 58  1  0  0  0  0
 58 59  1  0  0  0  0
 59 60  1  0  0  0  0
 60 73  1  0  0  0  0
 61 63  1  0  0  0  0
 61 72  1  0  0  0  0
 62 74  1  0  0  0  0
 64 66  1  0  0  0  0
M  CHG  1  74   1
M  ISO  4  36 100  56 101  73 100  81 101
M  END
> <Batch ID>
0043

> <Smiles>
CNC(C)C(=O)NC(C(=O)N1Cc2cc([101O:1][101CH2:1]c3cc(CCCC[100NH:0][100C:0](=O)N4CCCC(n5nc(-c6ccc(Oc7ccc(F)cc7F)cc6)c(C(N)=O)c5N)C4)n(C)c3C)ccc2CC1C(=O)NC1CCCc2ccccc21)C(C)(C)C

> <Shape>
0.182

> <Color>
0.099

> <Negative vol penalty>
0.000

$$$$

  -OEChem-04052317143D

 83 91  0     1  0  0  0  0  0999 V2000
  -16.6417  -29.6251   23.3216 C   0  0  0  0  0  0  0  0  0  0  0  0
  -17.6695  -30.4522   23.7634 C   0  0  0  0  0  0  0  0  0  0  0  0
  -26.8801  -18.3781   21.1362 C   0  0  0  0  0  0  0  0  0  0  0  0
  -29.2302  -17.8480   21.3195 C   0  0  0  0  0  0  0  0  0  0  0  0
  -16.9329  -28.3485   22.8427 C   0  0  0  0  0  0  0  0  0  0  0  0
  -18.9889  -30.0026   23.7275 C   0  0  0  0  0  0  0  0  0  0  0  0
  -25.6748  -32.3867   22.7619 C   0  0  0  0  0  0  0  0  0  0  0  0
  -26.5731  -17.0175   21.1378 C   0  0  0  0  0  0  0  0  0  0  0  0
  -28.9231  -16.4873   21.3210 C   0  0  0  0  0  0  0  0  0  0  0  0
  -26.9275  -32.3575   23.3732 C   0  0  0  0  0  0  0  0  0  0  0  0
  -28.7866  -12.8686   21.0110 C   0  0  0  0  0  0  0  0  0  0  0  0
  -29.5590  -12.0288   20.2087 C   0  0  0  0  0  0  0  0  0  0  0  0
  -27.3195  -30.1630   22.4514 C   0  0  0  0  0  0  0  0  0  0  0  0
  -28.8802  -13.2735   18.2523 C   0  0  0  0  0  0  0  0  0  0  0  0
  -32.1047  -31.3859   20.5830 C   0  0  0  0  0  0  0  0  0  0  0  0
  -28.2087  -18.7934   21.2270 C   0  0  0  0  0  0  0  0  0  0  0  0
  -28.6313  -21.0483   22.3425 C   0  0  0  0  0  0  0  0  0  0  0  0
  -18.2576  -27.8867   22.7919 C   0  0  0  0  0  0  0  0  0  0  0  0
  -25.2298  -31.2978   21.9985 C   0  0  0  0  0  0  0  0  0  0  0  0
  -19.2980  -28.7181   23.2487 C   0  0  0  0  0  0  0  0  0  0  0  0
  -26.0618  -30.1819   21.8294 C   0  0  0  0  0  0  0  0  0  0  0  0
  -27.5945  -16.0721   21.2302 C   0  0  0  0  0  0  0  0  0  0  0  0
  -27.7489  -31.2444   23.2204 C   0  0  0  0  0  0  0  0  0  0  0  0
  -28.0610  -13.9109   20.4340 C   0  0  0  0  0  0  0  0  0  0  0  0
  -29.6058  -12.2312   18.8294 C   0  0  0  0  0  0  0  0  0  0  0  0
  -28.1078  -14.1133   19.0547 C   0  0  0  0  0  0  0  0  0  0  0  0
  -28.5266  -20.1987   21.2249 C   0  0  0  0  0  0  0  0  0  0  0  0
  -32.6331  -30.3226   21.2592 C   0  0  0  0  0  0  0  0  0  0  0  0
  -28.9501  -22.2748   21.8128 C   0  0  0  0  0  0  0  0  0  0  0  0
  -31.6605  -31.6556   22.7349 C   0  0  0  0  0  0  0  0  0  0  0  0
  -28.4561  -20.7550   23.7350 C   0  0  0  0  0  0  0  0  0  0  0  0
  -22.8007  -29.2579   22.2036 C   0  0  0  0  0  0  0  0  0  0  0  0
  -23.9078  -28.2551   19.3241 C   0  0  0  0  0  0  0  0  0  0  0  0
  -26.5311  -28.0066   17.1555 C   0  0  0  0  0  0  0  0  0  0  0  0
  -31.8979  -25.4326   18.2796 C   0  0  0  0  0  0  0  0  0  0  0  0
  -18.5185  -26.4815   22.3102 C   0  0  0  0  0  0  0  0  0  0  0  0
  -23.8869  -31.3560   21.3235 C   0  0  0  0  0  0  0  0  0  0  0  0
  -25.6392  -28.9955   21.0033 C   0  0  0  0  0  0  0  0  0  0  0  0
  -19.9801  -26.2207   21.9554 C   0  0  0  0  0  0  0  0  0  0  0  0
  -28.9447  -23.8933   17.0204 C   0  0  0  0  0  0  0  0  0  0  0  0
  -20.8987  -26.7577   23.0484 C   0  0  0  0  0  0  0  0  0  0  0  0
  -28.5852  -22.8613   18.0908 C   0  0  0  0  0  0  0  0  0  0  0  0
  -30.4562  -24.0199   16.8436 C   0  0  0  0  0  0  0  0  0  0  0  0
  -30.8449  -23.2600   19.1555 C   0  0  0  0  0  0  0  0  0  0  0  0
  -20.7444  -28.2756   23.2023 C   0  0  1  0  0  0  0  0  0  0  0  0
  -23.3242  -29.9771   20.9926 C   0  0  1  0  0  0  0  0  0  0  0  0
  -29.3327  -23.1373   19.4093 C   0  0  2  0  0  0  0  0  0  0  0  0
  -33.9043  -30.1500   24.4627 C   0  0  0  0  0  0  0  0  0  0  0  0
  -27.1398  -27.1013   14.8955 C   0  0  0  0  0  0  0  0  0  0  0  0
  -23.9944  -25.4329   20.4807 C   0  0  0  0  0  0  0  0  0  0  0  0
  -25.4642  -24.7684   18.5659 C   0  0  0  0  0  0  0  0  0  0  0  0
  -23.1428  -25.5727   18.1334 C   0  0  0  0  0  0  0  0  0  0  0  0
  -27.2177  -30.6980   16.1338 C   0  0  0  0  0  0  0  0  0  0  0  0
  -33.3772  -29.1566   20.7675 C   0  0  0  0  0  0  0  0  0  0  0  0
  -31.1452  -32.2448   24.0255 C   0  0  0  0  0  0  0  0  0  0  0  0
  -32.5076  -27.9300   20.3856 C   0  0  0  0  0  0  0  0  0  0  0  0
  -32.7174  -29.6264   23.6724 C   0  0  0  0  0  0  0  0  0  0  0  0
  -33.3074  -26.7477   19.8426 C   0  0  0  0  0  0  0  0  0  0  0  0
  -29.6362  -32.4623   24.0018 C   0  0  0  0  0  0  0  0  0  1  0  0
  -24.9112  -27.2253   18.8642 C   0  0  1  0  0  0  0  0  0  0  0  0
  -26.6445  -28.3111   15.6726 C   0  0  2  0  0  0  0  0  0  0  0  0
  -24.3856  -25.7712   19.0283 C   0  0  0  0  0  0  0  0  0  0  0  0
  -28.7598  -20.8319   20.0722 N   0  0  0  0  0  0  0  0  0  0  0  0
  -32.3439  -30.5158   22.5885 N   0  0  0  0  0  0  0  0  0  0  0  0
  -29.0141  -22.0925   20.4627 N   0  0  0  0  0  0  0  0  0  0  0  0
  -31.5088  -32.1943   21.5207 N   0  3  0  0  0  0  0  0  0  0  0  0
  -24.3147  -29.0974   20.3686 N   0  0  0  0  0  0  0  0  0  0  0  0
  -31.1048  -24.2829   18.1304 N   0  0  0  0  0  0  0  0  0  0  0  0
  -29.1790  -23.4806   22.3749 N   0  0  0  0  0  0  0  0  0  0  0  0
  -28.1305  -19.4432   24.1057 N   0  0  0  0  0  0  0  0  0  0  0  0
  -21.4515  -28.9654   22.1446 N   0  0  0  0  0  0  0  0  0  0  0  0
  -25.2637  -27.5822   17.4942 N   0  0  0  0  0  0  0  0  0  0  0  0
  -32.4709  -25.6097   19.5330 N   0  0  0  0  0  0  0  0  0  0  0  0
  -27.5949  -29.4364   15.4461 N   0  3  0  0  0  0  0  0  0  0  0  0
  -28.5683  -21.6340   24.6229 O   0  0  0  0  0  0  0  0  0  0  0  0
  -23.5646  -28.9871   23.1227 O   0  0  0  0  0  0  0  0  0  0  0  0
  -22.8063  -28.3149   18.7721 O   0  0  0  0  0  0  0  0  0  0  0  0
  -27.4737  -28.1291   17.9346 O   0  0  0  0  0  0  0  0  0  0  0  0
  -32.0774  -26.2442   17.3652 O   0  0  0  0  0  0  0  0  0  0  0  0
  -27.2953  -14.7443   21.2320 O   0  0  0  0  0  0  0  0  0  0  0  0
  -28.9718  -31.2130   23.8165 O   0  0  0  0  0  0  0  0  0  1  0  0
  -30.3488  -11.4256   18.0592 F   0  0  0  0  0  0  0  0  0  0  0  0
  -27.4138  -15.1137   18.4948 F   0  0  0  0  0  0  0  0  0  0  0  0
  1  2  1  0  0  0  0
  1  5  2  0  0  0  0
  2  6  2  0  0  0  0
  3  8  2  0  0  0  0
  3 16  1  0  0  0  0
  4  9  1  0  0  0  0
  4 16  2  0  0  0  0
  5 18  1  0  0  0  0
  6 20  1  0  0  0  0
  7 10  2  0  0  0  0
  7 19  1  0  0  0  0
  8 22  1  0  0  0  0
  9 22  2  0  0  0  0
 10 23  1  0  0  0  0
 11 12  2  0  0  0  0
 11 24  1  0  0  0  0
 12 25  1  0  0  0  0
 13 21  1  0  0  0  0
 13 23  2  0  0  0  0
 14 25  2  0  0  0  0
 14 26  1  0  0  0  0
 15 28  2  0  0  0  0
 15 66  1  0  0  0  0
 16 27  1  0  0  0  0
 17 27  1  0  0  0  0
 17 29  2  0  0  0  0
 17 31  1  0  0  0  0
 18 20  2  0  0  0  0
 18 36  1  0  0  0  0
 19 21  2  0  0  0  0
 19 37  1  0  0  0  0
 20 45  1  0  0  0  0
 21 38  1  0  0  0  0
 22 80  1  0  0  0  0
 23 81  1  0  0  0  0
 24 26  2  0  0  0  0
 24 80  1  0  0  0  0
 25 82  1  0  0  0  0
 26 83  1  0  0  0  0
 27 63  2  0  0  0  0
 28 54  1  0  0  0  0
 28 64  1  0  0  0  0
 29 65  1  0  0  0  0
 29 69  1  0  0  0  0
 30 55  1  0  0  0  0
 30 64  1  0  0  0  0
 30 66  2  0  0  0  0
 31 70  1  0  0  0  0
 31 75  2  0  0  0  0
 32 46  1  0  0  0  0
 32 71  1  0  0  0  0
 32 76  2  0  0  0  0
 33 60  1  0  0  0  0
 33 67  1  0  0  0  0
 33 77  2  0  0  0  0
 34 61  1  0  0  0  0
 34 72  1  0  0  0  0
 34 78  2  0  0  0  0
 35 68  1  0  0  0  0
 35 73  1  0  0  0  0
 35 79  2  0  0  0  0
 36 39  1  0  0  0  0
 37 46  1  0  0  0  0
 38 67  1  0  0  0  0
 39 41  1  0  0  0  0
 40 42  1  0  0  0  0
 40 43  1  0  0  0  0
 41 45  1  0  0  0  0
 42 47  1  0  0  0  0
 43 68  1  0  0  0  0
 44 47  1  0  0  0  0
 44 68  1  0  0  0  0
 45 71  1  0  0  0  0
 46 67  1  0  0  0  0
 47 65  1  0  0  0  0
 48 57  1  0  0  0  0
 49 61  1  0  0  0  0
 50 62  1  0  0  0  0
 51 62  1  0  0  0  0
 52 62  1  0  0  0  0
 53 74  1  0  0  0  0
 54 56  1  0  0  0  0
 55 59  1  0  0  0  0
 56 58  1  0  0  0  0
 57 64  1  0  0  0  0
 58 73  1  0  0  0  0
 59 81  1  0  0  0  0
 60 62  1  0  0  0  0
 60 72  1  0  0  0  0
 61 74  1  0  0  0  0
 63 65  1  0  0  0  0
M  CHG  2  66   1  74   1
M  ISO  4  35 100  59 101  73 100  81 101
M  END
> <Batch ID>
0043

> <Smiles>
CCn1c(CCC[100NH:0][100C:0](=O)N2CCCC(n3nc(-c4ccc(Oc5ccc(F)cc5F)cc4)c(C(N)=O)c3N)C2)cnc1C[101CH2:1][101O:1]c1ccc2c(c1)CN(C(=O)C(NC(=O)C(C)NC)C(C)(C)C)C(C(=O)NC1CCCc3ccccc31)C2

> <Shape>
0.300

> <Color>
0.118

> <Negative vol penalty>
0.000

$$$$

  -OEChem-04052317143D

 83 91  0     1  0  0  0  0  0999 V2000
  -26.2608  -29.0029   11.3277 C   0  0  0  0  0  0  0  0  0  0  0  0
  -26.3811  -28.1068   12.3850 C   0  0  0  0  0  0  0  0  0  0  0  0
  -22.9826   -9.8761   19.9885 C   0  0  0  0  0  0  0  0  0  0  0  0
  -23.7095   -9.9340   22.2919 C   0  0  0  0  0  0  0  0  0  0  0  0
  -25.0156  -29.5460   11.0139 C   0  0  0  0  0  0  0  0  0  0  0  0
  -25.2563  -27.7540   13.1298 C   0  0  0  0  0  0  0  0  0  0  0  0
  -24.9888  -22.7731   14.0040 C   0  0  0  0  0  0  0  0  0  0  0  0
  -22.2135   -8.7445   20.2597 C   0  0  0  0  0  0  0  0  0  0  0  0
  -22.9403   -8.8024   22.5630 C   0  0  0  0  0  0  0  0  0  0  0  0
  -25.8067  -22.2582   15.0087 C   0  0  0  0  0  0  0  0  0  0  0  0
  -23.1761   -5.4611   22.1036 C   0  0  0  0  0  0  0  0  0  0  0  0
  -23.7616   -4.4454   22.8592 C   0  0  0  0  0  0  0  0  0  0  0  0
  -23.9299  -22.2503   16.5242 C   0  0  0  0  0  0  0  0  0  0  0  0
  -22.0395   -4.6988   24.5346 C   0  0  0  0  0  0  0  0  0  0  0  0
  -28.9758  -21.3883   18.9724 C   0  0  0  0  0  0  0  0  0  0  0  0
  -23.7307  -10.4709   21.0047 C   0  0  0  0  0  0  0  0  0  0  0  0
  -24.1221  -12.9848   20.8189 C   0  0  0  0  0  0  0  0  0  0  0  0
  -23.8733  -29.1923   11.7491 C   0  0  0  0  0  0  0  0  0  0  0  0
  -23.6355  -23.0412   14.2554 C   0  0  0  0  0  0  0  0  0  0  0  0
  -23.9948  -28.2939   12.8264 C   0  0  0  0  0  0  0  0  0  0  0  0
  -23.0963  -22.7663   15.5202 C   0  0  0  0  0  0  0  0  0  0  0  0
  -22.1923   -8.2077   21.5469 C   0  0  0  0  0  0  0  0  0  0  0  0
  -25.2780  -21.9994   16.2699 C   0  0  0  0  0  0  0  0  0  0  0  0
  -22.0223   -6.0959   22.5635 C   0  0  0  0  0  0  0  0  0  0  0  0
  -23.1933   -4.0642   24.0746 C   0  0  0  0  0  0  0  0  0  0  0  0
  -21.4539   -5.7147   23.7790 C   0  0  0  0  0  0  0  0  0  0  0  0
  -24.5259  -11.6395   20.7251 C   0  0  0  0  0  0  0  0  0  0  0  0
  -28.8201  -19.4175   19.7614 C   0  0  0  0  0  0  0  0  0  0  0  0
  -28.0163  -19.4314   18.6460 C   0  0  0  0  0  0  0  0  0  0  0  0
  -25.2334  -13.7033   20.4510 C   0  0  0  0  0  0  0  0  0  0  0  0
  -22.8557  -13.5358   21.2042 C   0  0  0  0  0  0  0  0  0  0  0  0
  -21.8227  -25.6521   14.2247 C   0  0  0  0  0  0  0  0  0  0  0  0
  -19.4295  -23.5237   14.7396 C   0  0  0  0  0  0  0  0  0  0  0  0
  -18.4778  -20.4596   15.9025 C   0  0  0  0  0  0  0  0  0  0  0  0
  -30.7322  -14.6253   20.6925 C   0  0  0  0  0  0  0  0  0  0  0  0
  -22.5570  -29.8417   11.4024 C   0  0  0  0  0  0  0  0  0  0  0  0
  -22.7603  -23.5715   13.1530 C   0  0  0  0  0  0  0  0  0  0  0  0
  -21.6451  -23.0175   15.8352 C   0  0  0  0  0  0  0  0  0  0  0  0
  -21.3488  -29.1284   12.0038 C   0  0  0  0  0  0  0  0  0  0  0  0
  -29.5840  -12.1956   18.3569 C   0  0  0  0  0  0  0  0  0  0  0  0
  -21.5950  -28.8093   13.4750 C   0  0  0  0  0  0  0  0  0  0  0  0
  -28.1351  -11.9410   18.7764 C   0  0  0  0  0  0  0  0  0  0  0  0
  -30.4878  -12.4333   19.5646 C   0  0  0  0  0  0  0  0  0  0  0  0
  -28.5805  -13.2386   20.9017 C   0  0  0  0  0  0  0  0  0  0  0  0
  -22.7936  -27.8676   13.6422 C   0  0  1  0  0  0  0  0  0  0  0  0
  -21.5173  -24.2894   13.6700 C   0  0  1  0  0  0  0  0  0  0  0  0
  -27.6202  -13.0488   19.7150 C   0  0  2  0  0  0  0  0  0  0  0  0
  -27.1498  -16.2675   16.6103 C   0  0  0  0  0  0  0  0  0  0  0  0
  -16.4491  -19.0183   16.2255 C   0  0  0  0  0  0  0  0  0  0  0  0
  -18.6214  -25.2063   17.1533 C   0  0  0  0  0  0  0  0  0  0  0  0
  -17.2557  -23.2688   17.9589 C   0  0  0  0  0  0  0  0  0  0  0  0
  -16.7076  -24.3600   15.7837 C   0  0  0  0  0  0  0  0  0  0  0  0
  -19.5438  -18.3569   14.1134 C   0  0  0  0  0  0  0  0  0  0  0  0
  -29.0814  -18.3045   20.6877 C   0  0  0  0  0  0  0  0  0  0  0  0
  -27.1812  -18.3892   18.0229 C   0  0  0  0  0  0  0  0  0  0  0  0
  -28.0090  -17.3638   17.2203 C   0  0  0  0  0  0  0  0  0  0  0  0
  -30.5763  -17.9399   20.8732 C   0  0  0  0  0  0  0  0  0  0  0  0
  -30.8210  -16.8085   21.8693 C   0  0  0  0  0  0  0  0  0  0  0  0
  -27.4465  -21.2566   16.9284 C   0  0  0  0  0  0  0  0  0  1  0  0
  -18.7790  -22.9213   15.9615 C   0  0  1  0  0  0  0  0  0  0  0  0
  -17.5974  -19.3813   15.2970 C   0  0  2  0  0  0  0  0  0  0  0  0
  -17.8688  -23.9361   16.7093 C   0  0  0  0  0  0  0  0  0  0  0  0
  -29.4143  -20.6387   19.9593 N   0  0  0  0  0  0  0  0  0  0  0  0
  -25.7945  -11.5083   20.3286 N   0  0  0  0  0  0  0  0  0  0  0  0
  -28.1259  -20.7006   18.1515 N   0  0  0  0  0  0  0  0  0  0  0  0
  -26.1975  -12.7805   20.1699 N   0  0  0  0  0  0  0  0  0  0  0  0
  -20.8314  -23.5423   14.7262 N   0  0  0  0  0  0  0  0  0  0  0  0
  -29.9441  -13.4966   20.4131 N   0  0  0  0  0  0  0  0  0  0  0  0
  -25.4700  -15.0280   20.3438 N   0  0  0  0  0  0  0  0  0  0  0  0
  -21.8220  -12.6555   21.5517 N   0  0  0  0  0  0  0  0  0  0  0  0
  -22.4175  -26.5083   13.3178 N   0  0  0  0  0  0  0  0  0  0  0  0
  -18.0868  -21.7208   15.5055 N   0  0  0  0  0  0  0  0  0  0  0  0
  -30.1387  -15.5886   21.4991 N   0  0  0  0  0  0  0  0  0  0  0  0
  -18.3944  -18.1503   15.0317 N   0  3  0  0  0  0  0  0  0  0  0  0
  -22.6420  -14.7717   21.2234 O   0  0  0  0  0  0  0  0  0  0  0  0
  -21.5382  -25.9081   15.3888 O   0  0  0  0  0  0  0  0  0  0  0  0
  -18.7200  -23.9550   13.8274 O   0  0  0  0  0  0  0  0  0  0  0  0
  -19.4160  -20.2084   16.6556 O   0  0  0  0  0  0  0  0  0  0  0  0
  -31.8777  -14.7667   20.2511 O   0  0  0  0  0  0  0  0  0  0  0  0
  -21.4417   -7.1036   21.8119 O   0  0  0  0  0  0  0  0  0  0  0  0
  -26.0743  -21.4974   17.2526 O   0  0  0  0  0  0  0  0  0  1  0  0
  -23.7548   -3.0876   24.7993 F   0  0  0  0  0  0  0  0  0  0  0  0
  -20.3448   -6.3200   24.2255 F   0  0  0  0  0  0  0  0  0  0  0  0
  1  2  1  0  0  0  0
  1  5  2  0  0  0  0
  2  6  2  0  0  0  0
  3  8  2  0  0  0  0
  3 16  1  0  0  0  0
  4  9  1  0  0  0  0
  4 16  2  0  0  0  0
  5 18  1  0  0  0  0
  6 20  1  0  0  0  0
  7 10  2  0  0  0  0
  7 19  1  0  0  0  0
  8 22  1  0  0  0  0
  9 22  2  0  0  0  0
 10 23  1  0  0  0  0
 11 12  2  0  0  0  0
 11 24  1  0  0  0  0
 12 25  1  0  0  0  0
 13 21  1  0  0  0  0
 13 23  2  0  0  0  0
 14 25  2  0  0  0  0
 14 26  1  0  0  0  0
 15 63  2  0  0  0  0
 15 65  1  0  0  0  0
 16 27  1  0  0  0  0
 17 27  1  0  0  0  0
 17 30  2  0  0  0  0
 17 31  1  0  0  0  0
 18 20  2  0  0  0  0
 18 36  1  0  0  0  0
 19 21  2  0  0  0  0
 19 37  1  0  0  0  0
 20 45  1  0  0  0  0
 21 38  1  0  0  0  0
 22 80  1  0  0  0  0
 23 81  1  0  0  0  0
 24 26  2  0  0  0  0
 24 80  1  0  0  0  0
 25 82  1  0  0  0  0
 26 83  1  0  0  0  0
 27 64  2  0  0  0  0
 28 29  2  0  0  0  0
 28 54  1  0  0  0  0
 28 63  1  0  0  0  0
 29 55  1  0  0  0  0
 29 65  1  0  0  0  0
 30 66  1  0  0  0  0
 30 69  1  0  0  0  0
 31 70  1  0  0  0  0
 31 75  2  0  0  0  0
 32 46  1  0  0  0  0
 32 71  1  0  0  0  0
 32 76  2  0  0  0  0
 33 60  1  0  0  0  0
 33 67  1  0  0  0  0
 33 77  2  0  0  0  0
 34 61  1  0  0  0  0
 34 72  1  0  0  0  0
 34 78  2  0  0  0  0
 35 68  1  0  0  0  0
 35 73  1  0  0  0  0
 35 79  2  0  0  0  0
 36 39  1  0  0  0  0
 37 46  1  0  0  0  0
 38 67  1  0  0  0  0
 39 41  1  0  0  0  0
 40 42  1  0  0  0  0
 40 43  1  0  0  0  0
 41 45  1  0  0  0  0
 42 47  1  0  0  0  0
 43 68  1  0  0  0  0
 44 47  1  0  0  0  0
 44 68  1  0  0  0  0
 45 71  1  0  0  0  0
 46 67  1  0  0  0  0
 47 66  1  0  0  0  0
 48 56  1  0  0  0  0
 49 61  1  0  0  0  0
 50 62  1  0  0  0  0
 51 62  1  0  0  0  0
 52 62  1  0  0  0  0
 53 74  1  0  0  0  0
 54 57  1  0  0  0  0
 55 56  1  0  0  0  0
 57 58  1  0  0  0  0
 58 73  1  0  0  0  0
 59 65  1  0  0  0  0
 59 81  1  0  0  0  0
 60 62  1  0  0  0  0
 60 72  1  0  0  0  0
 61 74  1  0  0  0  0
 64 66  1  0  0  0  0
M  CHG  1  74   1
M  ISO  4  35 100  59 101  73 100  81 101
M  END
> <Batch ID>
0043

> <Smiles>
CCCc1c(CCC[100NH:0][100C:0](=O)N2CCCC(n3nc(-c4ccc(Oc5ccc(F)cc5F)cc4)c(C(N)=O)c3N)C2)ncn1[101CH2:1][101O:1]c1ccc2c(c1)CN(C(=O)C(NC(=O)C(C)NC)C(C)(C)C)C(C(=O)NC1CCCc3ccccc31)C2

> <Shape>
0.207

> <Color>
0.217

> <Negative vol penalty>
0.000

$$$$

  -OEChem-04052317143D

 82 90  0     1  0  0  0  0  0999 V2000
  -17.5786  -28.0203   19.2945 C   0  0  0  0  0  0  0  0  0  0  0  0
  -18.8138  -27.5817   18.8285 C   0  0  0  0  0  0  0  0  0  0  0  0
  -25.0977  -13.0349   19.1834 C   0  0  0  0  0  0  0  0  0  0  0  0
  -25.2069  -13.0464   21.5969 C   0  0  0  0  0  0  0  0  0  0  0  0
  -17.3586  -28.1523   20.6650 C   0  0  0  0  0  0  0  0  0  0  0  0
  -19.8303  -27.2758   19.7328 C   0  0  0  0  0  0  0  0  0  0  0  0
  -24.0638  -22.8868   19.1665 C   0  0  0  0  0  0  0  0  0  0  0  0
  -24.8630  -11.6601   19.2006 C   0  0  0  0  0  0  0  0  0  0  0  0
  -24.9721  -11.6716   21.6141 C   0  0  0  0  0  0  0  0  0  0  0  0
  -25.3916  -22.9135   18.7423 C   0  0  0  0  0  0  0  0  0  0  0  0
  -22.3254   -9.5942   21.2976 C   0  0  0  0  0  0  0  0  0  0  0  0
  -21.3948   -9.1086   22.2162 C   0  0  0  0  0  0  0  0  0  0  0  0
  -26.1158  -23.0630   21.0385 C   0  0  0  0  0  0  0  0  0  0  0  0
  -23.1093   -7.7413   23.2302 C   0  0  0  0  0  0  0  0  0  0  0  0
  -29.9335  -25.6139   17.5486 C   0  0  0  0  0  0  0  0  0  0  0  0
  -25.2697  -13.7281   20.3816 C   0  0  0  0  0  0  0  0  0  0  0  0
  -24.5514  -16.1758   20.4033 C   0  0  0  0  0  0  0  0  0  0  0  0
  -18.3698  -27.8387   21.5869 C   0  0  0  0  0  0  0  0  0  0  0  0
  -23.7510  -22.9592   20.5316 C   0  0  0  0  0  0  0  0  0  0  0  0
  -19.6241  -27.4050   21.1168 C   0  0  0  0  0  0  0  0  0  0  0  0
  -24.7833  -23.0345   21.4776 C   0  0  0  0  0  0  0  0  0  0  0  0
  -30.0320  -24.3645   18.1104 C   0  0  0  0  0  0  0  0  0  0  0  0
  -24.8001  -10.9784   20.4159 C   0  0  0  0  0  0  0  0  0  0  0  0
  -26.4177  -23.0046   19.6782 C   0  0  0  0  0  0  0  0  0  0  0  0
  -23.6479   -9.1532   21.3452 C   0  0  0  0  0  0  0  0  0  0  0  0
  -21.7867   -8.1822   23.1825 C   0  0  0  0  0  0  0  0  0  0  0  0
  -24.0398   -8.2268   22.3116 C   0  0  0  0  0  0  0  0  0  0  0  0
  -25.5128  -15.1482   20.3645 C   0  0  0  0  0  0  0  0  0  0  0  0
  -30.7962  -24.5619   19.2760 C   0  0  0  0  0  0  0  0  0  0  0  0
  -25.2864  -17.3354   20.3653 C   0  0  0  0  0  0  0  0  0  0  0  0
  -23.1216  -16.0898   20.4679 C   0  0  0  0  0  0  0  0  0  0  0  0
  -22.1413  -25.0021   22.3588 C   0  0  0  0  0  0  0  0  0  0  0  0
  -22.6576  -22.7597   24.6452 C   0  0  0  0  0  0  0  0  0  0  0  0
  -24.5522  -20.1550   25.7732 C   0  0  0  0  0  0  0  0  0  0  0  0
  -29.4805  -20.3689   22.1416 C   0  0  0  0  0  0  0  0  0  0  0  0
  -18.1005  -28.0423   23.0568 C   0  0  0  0  0  0  0  0  0  0  0  0
  -22.3147  -22.9023   20.9744 C   0  0  0  0  0  0  0  0  0  0  0  0
  -24.5013  -23.0942   22.9559 C   0  0  0  0  0  0  0  0  0  0  0  0
  -19.1077  -27.3396   23.9635 C   0  0  0  0  0  0  0  0  0  0  0  0
  -30.1981  -18.0932   19.4206 C   0  0  0  0  0  0  0  0  0  0  0  0
  -20.5314  -27.5969   23.4802 C   0  0  0  0  0  0  0  0  0  0  0  0
  -28.9527  -17.2049   19.4305 C   0  0  0  0  0  0  0  0  0  0  0  0
  -30.6182  -18.4720   20.8377 C   0  0  0  0  0  0  0  0  0  0  0  0
  -28.3039  -18.2428   21.6535 C   0  0  0  0  0  0  0  0  0  0  0  0
  -20.7435  -27.0398   22.0674 C   0  0  1  0  0  0  0  0  0  0  0  0
  -22.0925  -23.5003   22.3601 C   0  0  1  0  0  0  0  0  0  0  0  0
  -27.8153  -17.8438   20.2492 C   0  0  2  0  0  0  0  0  0  0  0  0
  -24.7509  -18.5492   27.6914 C   0  0  0  0  0  0  0  0  0  0  0  0
  -23.8418  -24.9766   26.3752 C   0  0  0  0  0  0  0  0  0  0  0  0
  -24.8599  -23.2067   27.8240 C   0  0  0  0  0  0  0  0  0  0  0  0
  -22.3799  -23.3624   27.6046 C   0  0  0  0  0  0  0  0  0  0  0  0
  -30.7964  -27.8729   18.2057 C   0  0  0  0  0  0  0  0  0  0  0  0
  -24.1531  -17.8144   24.0065 C   0  0  0  0  0  0  0  0  0  0  0  0
  -29.4471  -23.0760   17.5849 C   0  0  0  0  0  0  0  0  0  0  0  0
  -31.2096  -23.5526   20.2667 C   0  0  0  0  0  0  0  0  0  0  0  0
  -30.3619  -23.5199   21.5628 C   0  0  0  0  0  0  0  0  0  0  0  0
  -30.7846  -22.4389   22.5554 C   0  0  0  0  0  0  0  0  0  0  0  0
  -27.9518  -22.9628   17.8614 C   0  0  0  0  0  0  0  0  0  1  0  0
  -23.7444  -22.4978   25.6597 C   0  0  1  0  0  0  0  0  0  0  0  0
  -24.1679  -18.7869   26.3071 C   0  0  2  0  0  0  0  0  0  0  0  0
  -23.7121  -23.5117   26.8380 C   0  0  0  0  0  0  0  0  0  0  0  0
  -26.7633  -15.6140   20.3062 N   0  0  0  0  0  0  0  0  0  0  0  0
  -31.1578  -25.8365   19.4457 N   0  0  0  0  0  0  0  0  0  0  0  0
  -30.6184  -26.4512   18.3793 N   0  0  0  0  0  0  0  0  0  0  0  0
  -26.5926  -16.9470   20.3080 N   0  0  0  0  0  0  0  0  0  0  0  0
  -23.0807  -23.0418   23.3386 N   0  0  0  0  0  0  0  0  0  0  0  0
  -29.4961  -19.0917   21.5567 N   0  0  0  0  0  0  0  0  0  0  0  0
  -24.9365  -18.6391   20.3756 N   0  0  0  0  0  0  0  0  0  0  0  0
  -22.5294  -14.8199   20.5000 N   0  0  0  0  0  0  0  0  0  0  0  0
  -20.9224  -25.6043   22.1117 N   0  0  0  0  0  0  0  0  0  0  0  0
  -23.5963  -21.1045   26.0661 N   0  0  0  0  0  0  0  0  0  0  0  0
  -30.6512  -21.1059   22.0112 N   0  0  0  0  0  0  0  0  0  0  0  0
  -24.6664  -17.7170   25.3972 N   0  3  0  0  0  0  0  0  0  0  0  0
  -22.3902  -17.1087   20.4798 O   0  0  0  0  0  0  0  0  0  0  0  0
  -23.2056  -25.5722   22.5681 O   0  0  0  0  0  0  0  0  0  0  0  0
  -21.4765  -22.7086   24.9975 O   0  0  0  0  0  0  0  0  0  0  0  0
  -25.5978  -20.3615   25.1611 O   0  0  0  0  0  0  0  0  0  0  0  0
  -28.4937  -20.8215   22.7320 O   0  0  0  0  0  0  0  0  0  0  0  0
  -24.5708   -9.6369   20.4331 O   0  0  0  0  0  0  0  0  0  0  0  0
  -27.7146  -23.0314   19.2669 O   0  0  0  0  0  0  0  0  0  1  0  0
  -20.8933   -7.7171   24.0655 F   0  0  0  0  0  0  0  0  0  0  0  0
  -25.3092   -7.8004   22.3630 F   0  0  0  0  0  0  0  0  0  0  0  0
  1  2  1  0  0  0  0
  1  5  2  0  0  0  0
  2  6  2  0  0  0  0
  3  8  2  0  0  0  0
  3 16  1  0  0  0  0
  4  9  1  0  0  0  0
  4 16  2  0  0  0  0
  5 18  1  0  0  0  0
  6 20  1  0  0  0  0
  7 10  2  0  0  0  0
  7 19  1  0  0  0  0
  8 23  1  0  0  0  0
  9 23  2  0  0  0  0
 10 24  1  0  0  0  0
 11 12  2  0  0  0  0
 11 25  1  0  0  0  0
 12 26  1  0  0  0  0
 13 21  1  0  0  0  0
 13 24  2  0  0  0  0
 14 26  2  0  0  0  0
 14 27  1  0  0  0  0
 15 22  2  0  0  0  0
 15 64  1  0  0  0  0
 16 28  1  0  0  0  0
 17 28  1  0  0  0  0
 17 30  2  0  0  0  0
 17 31  1  0  0  0  0
 18 20  2  0  0  0  0
 18 36  1  0  0  0  0
 19 21  2  0  0  0  0
 19 37  1  0  0  0  0
 20 45  1  0  0  0  0
 21 38  1  0  0  0  0
 22 29  1  0  0  0  0
 22 54  1  0  0  0  0
 23 79  1  0  0  0  0
 24 80  1  0  0  0  0
 25 27  2  0  0  0  0
 25 79  1  0  0  0  0
 26 81  1  0  0  0  0
 27 82  1  0  0  0  0
 28 62  2  0  0  0  0
 29 55  1  0  0  0  0
 29 63  2  0  0  0  0
 30 65  1  0  0  0  0
 30 68  1  0  0  0  0
 31 69  1  0  0  0  0
 31 74  2  0  0  0  0
 32 46  1  0  0  0  0
 32 70  1  0  0  0  0
 32 75  2  0  0  0  0
 33 59  1  0  0  0  0
 33 66  1  0  0  0  0
 33 76  2  0  0  0  0
 34 60  1  0  0  0  0
 34 71  1  0  0  0  0
 34 77  2  0  0  0  0
 35 67  1  0  0  0  0
 35 72  1  0  0  0  0
 35 78  2  0  0  0  0
 36 39  1  0  0  0  0
 37 46  1  0  0  0  0
 38 66  1  0  0  0  0
 39 41  1  0  0  0  0
 40 42  1  0  0  0  0
 40 43  1  0  0  0  0
 41 45  1  0  0  0  0
 42 47  1  0  0  0  0
 43 67  1  0  0  0  0
 44 47  1  0  0  0  0
 44 67  1  0  0  0  0
 45 70  1  0  0  0  0
 46 66  1  0  0  0  0
 47 65  1  0  0  0  0
 48 60  1  0  0  0  0
 49 61  1  0  0  0  0
 50 61  1  0  0  0  0
 51 61  1  0  0  0  0
 52 64  1  0  0  0  0
 53 73  1  0  0  0  0
 54 58  1  0  0  0  0
 55 56  1  0  0  0  0
 56 57  1  0  0  0  0
 57 72  1  0  0  0  0
 58 80  1  0  0  0  0
 59 61  1  0  0  0  0
 59 71  1  0  0  0  0
 60 73  1  0  0  0  0
 62 65  1  0  0  0  0
 63 64  1  0  0  0  0
M  CHG  1  73   1
M  ISO  4  35 100  58 101  72 100  80 101
M  END
> <Batch ID>
0043

> <Smiles>
CNC(C)C(=O)NC(C(=O)N1Cc2cc([101O:1][101CH2:1]Cc3cn(C)nc3CCC[100NH:0][100C:0](=O)N3CCCC(n4nc(-c5ccc(Oc6ccc(F)cc6F)cc5)c(C(N)=O)c4N)C3)ccc2CC1C(=O)NC1CCCc2ccccc21)C(C)(C)C

> <Shape>
0.198

> <Color>
0.057

> <Negative vol penalty>
0.000

$$$$

  -OEChem-04052317143D

 82 90  0     1  0  0  0  0  0999 V2000
  -32.0816  -23.1802   34.7357 C   0  0  0  0  0  0  0  0  0  0  0  0
  -31.7459  -23.1639   33.3857 C   0  0  0  0  0  0  0  0  0  0  0  0
  -23.0727   -9.8697   19.9434 C   0  0  0  0  0  0  0  0  0  0  0  0
  -23.8347   -9.8788   22.2360 C   0  0  0  0  0  0  0  0  0  0  0  0
  -33.2057  -22.4863   35.1817 C   0  0  0  0  0  0  0  0  0  0  0  0
  -32.5349  -22.4547   32.4807 C   0  0  0  0  0  0  0  0  0  0  0  0
  -29.7799  -19.7165   29.2315 C   0  0  0  0  0  0  0  0  0  0  0  0
  -22.3293   -8.7166   20.1950 C   0  0  0  0  0  0  0  0  0  0  0  0
  -23.0913   -8.7257   22.4877 C   0  0  0  0  0  0  0  0  0  0  0  0
  -29.1860  -20.3968   28.1694 C   0  0  0  0  0  0  0  0  0  0  0  0
  -19.9449   -5.9758   20.3279 C   0  0  0  0  0  0  0  0  0  0  0  0
  -18.6387   -5.9271   19.8409 C   0  0  0  0  0  0  0  0  0  0  0  0
  -30.9610  -19.6589   26.7120 C   0  0  0  0  0  0  0  0  0  0  0  0
  -18.0744   -7.8710   21.1600 C   0  0  0  0  0  0  0  0  0  0  0  0
  -27.6759  -17.9756   22.9358 C   0  0  0  0  0  0  0  0  0  0  0  0
  -23.8255  -10.4508   20.9639 C   0  0  0  0  0  0  0  0  0  0  0  0
  -24.1666  -12.9759   20.8414 C   0  0  0  0  0  0  0  0  0  0  0  0
  -34.0033  -21.7603   34.2833 C   0  0  0  0  0  0  0  0  0  0  0  0
  -30.9767  -19.0100   29.0441 C   0  0  0  0  0  0  0  0  0  0  0  0
  -33.6715  -21.7516   32.9150 C   0  0  0  0  0  0  0  0  0  0  0  0
  -31.5668  -18.9683   27.7728 C   0  0  0  0  0  0  0  0  0  0  0  0
  -22.3386   -8.1446   21.4672 C   0  0  0  0  0  0  0  0  0  0  0  0
  -29.7781  -20.3705   26.9101 C   0  0  0  0  0  0  0  0  0  0  0  0
  -20.3158   -6.9721   21.2311 C   0  0  0  0  0  0  0  0  0  0  0  0
  -17.7035   -6.8747   20.2569 C   0  0  0  0  0  0  0  0  0  0  0  0
  -19.3805   -7.9197   21.6471 C   0  0  0  0  0  0  0  0  0  0  0  0
  -24.5940  -11.6416   20.7044 C   0  0  0  0  0  0  0  0  0  0  0  0
  -28.3330  -18.7550   22.0260 C   0  0  0  0  0  0  0  0  0  0  0  0
  -25.2583  -13.7253   20.4764 C   0  0  0  0  0  0  0  0  0  0  0  0
  -27.5709  -20.0744   23.6319 C   0  0  0  0  0  0  0  0  0  0  0  0
  -22.8964  -13.4918   21.2610 C   0  0  0  0  0  0  0  0  0  0  0  0
  -33.9184  -19.2266   30.2287 C   0  0  0  0  0  0  0  0  0  0  0  0
  -34.3784  -16.4928   28.5442 C   0  0  0  0  0  0  0  0  0  0  0  0
  -33.4271  -14.4966   25.9448 C   0  0  0  0  0  0  0  0  0  0  0  0
  -30.7420  -14.7457   20.6589 C   0  0  0  0  0  0  0  0  0  0  0  0
  -35.2355  -21.0646   34.8051 C   0  0  0  0  0  0  0  0  0  0  0  0
  -31.5905  -18.2592   30.1938 C   0  0  0  0  0  0  0  0  0  0  0  0
  -32.8408  -18.2077   27.5144 C   0  0  0  0  0  0  0  0  0  0  0  0
  -35.8060  -20.0297   33.8389 C   0  0  0  0  0  0  0  0  0  0  0  0
  -29.6027  -12.3589   18.2752 C   0  0  0  0  0  0  0  0  0  0  0  0
  -35.8821  -20.6024   32.4271 C   0  0  0  0  0  0  0  0  0  0  0  0
  -28.1657  -12.0652   18.7097 C   0  0  0  0  0  0  0  0  0  0  0  0
  -30.5209  -12.5809   19.4750 C   0  0  0  0  0  0  0  0  0  0  0  0
  -28.6203  -13.3128   20.8628 C   0  0  0  0  0  0  0  0  0  0  0  0
  -34.4883  -20.9734   31.9064 C   0  0  1  0  0  0  0  0  0  0  0  0
  -33.0821  -17.9978   30.0085 C   0  0  1  0  0  0  0  0  0  0  0  0
  -27.6450  -13.1370   19.6862 C   0  0  2  0  0  0  0  0  0  0  0  0
  -34.0160  -12.3451   24.7952 C   0  0  0  0  0  0  0  0  0  0  0  0
  -36.7733  -17.8529   27.2309 C   0  0  0  0  0  0  0  0  0  0  0  0
  -36.7276  -16.0755   25.4682 C   0  0  0  0  0  0  0  0  0  0  0  0
  -37.1432  -15.4580   27.8491 C   0  0  0  0  0  0  0  0  0  0  0  0
  -28.8150  -21.2130   21.8237 C   0  0  0  0  0  0  0  0  0  0  0  0
  -30.7736  -13.3232   26.5291 C   0  0  0  0  0  0  0  0  0  0  0  0
  -29.0209  -18.3906   20.7814 C   0  0  0  0  0  0  0  0  0  0  0  0
  -27.2511  -21.2886   24.4696 C   0  0  0  0  0  0  0  0  0  0  0  0
  -30.5269  -18.0505   20.9331 C   0  0  0  0  0  0  0  0  0  0  0  0
  -30.8085  -16.8973   21.8939 C   0  0  0  0  0  0  0  0  0  0  0  0
  -27.7800  -21.1656   25.8944 C   0  0  0  0  0  0  0  0  0  1  0  0
  -34.8219  -16.1647   27.1390 C   0  0  1  0  0  0  0  0  0  0  0  0
  -33.1605  -13.0043   25.8659 C   0  0  2  0  0  0  0  0  0  0  0  0
  -36.3435  -16.4038   26.9268 C   0  0  0  0  0  0  0  0  0  0  0  0
  -25.8585  -11.5457   20.2850 N   0  0  0  0  0  0  0  0  0  0  0  0
  -28.2519  -20.0488   22.4816 N   0  0  0  0  0  0  0  0  0  0  0  0
  -26.2350  -12.8292   20.1553 N   0  0  0  0  0  0  0  0  0  0  0  0
  -27.2150  -18.8180   23.9186 N   0  3  0  0  0  0  0  0  0  0  0  0
  -33.4060  -17.4948   28.6720 N   0  0  0  0  0  0  0  0  0  0  0  0
  -29.9709  -13.6101   20.3607 N   0  0  0  0  0  0  0  0  0  0  0  0
  -25.4683  -15.0567   20.4021 N   0  0  0  0  0  0  0  0  0  0  0  0
  -21.8850  -12.5827   21.6000 N   0  0  0  0  0  0  0  0  0  0  0  0
  -33.7747  -19.7875   31.4833 N   0  0  0  0  0  0  0  0  0  0  0  0
  -34.3912  -14.7943   26.8845 N   0  0  0  0  0  0  0  0  0  0  0  0
  -30.1434  -15.6751   21.5007 N   0  0  0  0  0  0  0  0  0  0  0  0
  -31.7275  -12.7503   25.5449 N   0  3  0  0  0  0  0  0  0  0  0  0
  -22.6600  -14.7224   21.3175 O   0  0  0  0  0  0  0  0  0  0  0  0
  -34.6417  -19.6346   29.3275 O   0  0  0  0  0  0  0  0  0  0  0  0
  -34.8712  -15.8776   29.4931 O   0  0  0  0  0  0  0  0  0  0  0  0
  -32.8414  -15.3160   25.2404 O   0  0  0  0  0  0  0  0  0  0  0  0
  -31.8775  -14.9210   20.2040 O   0  0  0  0  0  0  0  0  0  0  0  0
  -21.6131   -7.0195   21.7131 O   0  0  0  0  0  0  0  0  0  0  0  0
  -29.2008  -21.0343   25.8718 O   0  0  0  0  0  0  0  0  0  1  0  0
  -16.4497   -6.8287   19.7879 F   0  0  0  0  0  0  0  0  0  0  0  0
  -19.7313   -8.8798   22.5136 F   0  0  0  0  0  0  0  0  0  0  0  0
  1  2  1  0  0  0  0
  1  5  2  0  0  0  0
  2  6  2  0  0  0  0
  3  8  2  0  0  0  0
  3 16  1  0  0  0  0
  4  9  1  0  0  0  0
  4 16  2  0  0  0  0
  5 18  1  0  0  0  0
  6 20  1  0  0  0  0
  7 10  2  0  0  0  0
  7 19  1  0  0  0  0
  8 22  1  0  0  0  0
  9 22  2  0  0  0  0
 10 23  1  0  0  0  0
 11 12  2  0  0  0  0
 11 24  1  0  0  0  0
 12 25  1  0  0  0  0
 13 21  1  0  0  0  0
 13 23  2  0  0  0  0
 14 25  2  0  0  0  0
 14 26  1  0  0  0  0
 15 28  2  0  0  0  0
 15 65  1  0  0  0  0
 16 27  1  0  0  0  0
 17 27  1  0  0  0  0
 17 29  2  0  0  0  0
 17 31  1  0  0  0  0
 18 20  2  0  0  0  0
 18 36  1  0  0  0  0
 19 21  2  0  0  0  0
 19 37  1  0  0  0  0
 20 45  1  0  0  0  0
 21 38  1  0  0  0  0
 22 79  1  0  0  0  0
 23 80  1  0  0  0  0
 24 26  2  0  0  0  0
 24 79  1  0  0  0  0
 25 81  1  0  0  0  0
 26 82  1  0  0  0  0
 27 62  2  0  0  0  0
 28 54  1  0  0  0  0
 28 63  1  0  0  0  0
 29 64  1  0  0  0  0
 29 68  1  0  0  0  0
 30 55  1  0  0  0  0
 30 63  1  0  0  0  0
 30 65  2  0  0  0  0
 31 69  1  0  0  0  0
 31 74  2  0  0  0  0
 32 46  1  0  0  0  0
 32 70  1  0  0  0  0
 32 75  2  0  0  0  0
 33 59  1  0  0  0  0
 33 66  1  0  0  0  0
 33 76  2  0  0  0  0
 34 60  1  0  0  0  0
 34 71  1  0  0  0  0
 34 77  2  0  0  0  0
 35 67  1  0  0  0  0
 35 72  1  0  0  0  0
 35 78  2  0  0  0  0
 36 39  1  0  0  0  0
 37 46  1  0  0  0  0
 38 66  1  0  0  0  0
 39 41  1  0  0  0  0
 40 42  1  0  0  0  0
 40 43  1  0  0  0  0
 41 45  1  0  0  0  0
 42 47  1  0  0  0  0
 43 67  1  0  0  0  0
 44 47  1  0  0  0  0
 44 67  1  0  0  0  0
 45 70  1  0  0  0  0
 46 66  1  0  0  0  0
 47 64  1  0  0  0  0
 48 60  1  0  0  0  0
 49 61  1  0  0  0  0
 50 61  1  0  0  0  0
 51 61  1  0  0  0  0
 52 63  1  0  0  0  0
 53 73  1  0  0  0  0
 54 56  1  0  0  0  0
 55 58  1  0  0  0  0
 56 57  1  0  0  0  0
 57 72  1  0  0  0  0
 58 80  1  0  0  0  0
 59 61  1  0  0  0  0
 59 71  1  0  0  0  0
 60 73  1  0  0  0  0
 62 64  1  0  0  0  0
M  CHG  2  65   1  73   1
M  ISO  4  35 100  58 101  72 100  80 101
M  END
> <Batch ID>
0043

> <Smiles>
CNC(C)C(=O)NC(C(=O)N1Cc2cc([101O:1][101CH2:1]Cc3ncc(CCC[100NH:0][100C:0](=O)N4CCCC(n5nc(-c6ccc(Oc7ccc(F)cc7F)cc6)c(C(N)=O)c5N)C4)n3C)ccc2CC1C(=O)NC1CCCc2ccccc21)C(C)(C)C

> <Shape>
0.161

> <Color>
0.191

> <Negative vol penalty>
0.000

$$$$

  -OEChem-04052317143D

 83 91  0     1  0  0  0  0  0999 V2000
  -30.1585  -30.8300   20.7958 C   0  0  0  0  0  0  0  0  0  0  0  0
  -29.9776  -29.5626   21.3402 C   0  0  0  0  0  0  0  0  0  0  0  0
  -23.7037   -9.6522   20.8115 C   0  0  0  0  0  0  0  0  0  0  0  0
  -24.2990  -10.3470   23.0476 C   0  0  0  0  0  0  0  0  0  0  0  0
  -29.0962  -31.7324   20.7651 C   0  0  0  0  0  0  0  0  0  0  0  0
  -28.7344  -29.1973   21.8554 C   0  0  0  0  0  0  0  0  0  0  0  0
  -27.3220  -24.5532   20.4123 C   0  0  0  0  0  0  0  0  0  0  0  0
  -23.1643   -8.4715   21.3220 C   0  0  0  0  0  0  0  0  0  0  0  0
  -23.7596   -9.1663   23.5581 C   0  0  0  0  0  0  0  0  0  0  0  0
  -27.9058  -23.4751   21.0761 C   0  0  0  0  0  0  0  0  0  0  0  0
  -20.6950   -7.9357   24.2749 C   0  0  0  0  0  0  0  0  0  0  0  0
  -19.8829   -8.0314   25.4049 C   0  0  0  0  0  0  0  0  0  0  0  0
  -25.9282  -23.2512   22.4392 C   0  0  0  0  0  0  0  0  0  0  0  0
  -21.4014   -6.5961   26.6178 C   0  0  0  0  0  0  0  0  0  0  0  0
  -30.2472  -18.9663   24.8296 C   0  0  0  0  0  0  0  0  0  0  0  0
  -24.2711  -10.5899   21.6743 C   0  0  0  0  0  0  0  0  0  0  0  0
  -24.1610  -13.0322   20.9457 C   0  0  0  0  0  0  0  0  0  0  0  0
  -27.8367  -31.3746   21.2714 C   0  0  0  0  0  0  0  0  0  0  0  0
  -26.0391  -24.9961   20.7650 C   0  0  0  0  0  0  0  0  0  0  0  0
  -27.6546  -30.0962   21.8328 C   0  0  0  0  0  0  0  0  0  0  0  0
  -25.3293  -24.3336   21.7767 C   0  0  0  0  0  0  0  0  0  0  0  0
  -23.1922   -8.2285   22.6952 C   0  0  0  0  0  0  0  0  0  0  0  0
  -27.2101  -22.8257   22.0917 C   0  0  0  0  0  0  0  0  0  0  0  0
  -21.8602   -7.1700   24.3162 C   0  0  0  0  0  0  0  0  0  0  0  0
  -20.2361   -7.3617   26.5764 C   0  0  0  0  0  0  0  0  0  0  0  0
  -22.2135   -6.5003   25.4877 C   0  0  0  0  0  0  0  0  0  0  0  0
  -24.8289  -11.8095   21.1475 C   0  0  0  0  0  0  0  0  0  0  0  0
  -30.0380  -18.1398   23.7619 C   0  0  0  0  0  0  0  0  0  0  0  0
  -25.1221  -13.8676   20.4311 C   0  0  0  0  0  0  0  0  0  0  0  0
  -29.5257  -20.2018   23.1403 C   0  0  0  0  0  0  0  0  0  0  0  0
  -22.7940  -13.3815   21.2006 C   0  0  0  0  0  0  0  0  0  0  0  0
  -24.8387  -27.7052   21.9153 C   0  0  0  0  0  0  0  0  0  0  0  0
  -22.0065  -26.1973   21.4386 C   0  0  0  0  0  0  0  0  0  0  0  0
  -20.3099  -23.2539   21.1147 C   0  0  0  0  0  0  0  0  0  0  0  0
  -31.0967  -13.9360   20.8180 C   0  0  0  0  0  0  0  0  0  0  0  0
  -26.7313  -32.4005   21.2593 C   0  0  0  0  0  0  0  0  0  0  0  0
  -25.4126  -26.1436   20.0212 C   0  0  0  0  0  0  0  0  0  0  0  0
  -23.9412  -24.7572   22.1793 C   0  0  0  0  0  0  0  0  0  0  0  0
  -25.3444  -31.8042   21.4855 C   0  0  0  0  0  0  0  0  0  0  0  0
  -29.1455  -13.8008   17.8430 C   0  0  0  0  0  0  0  0  0  0  0  0
  -25.3676  -30.8280   22.6574 C   0  0  0  0  0  0  0  0  0  0  0  0
  -27.7577  -13.3854   18.3343 C   0  0  0  0  0  0  0  0  0  0  0  0
  -30.2543  -13.1149   18.6380 C   0  0  0  0  0  0  0  0  0  0  0  0
  -28.7732  -12.8653   20.5919 C   0  0  0  0  0  0  0  0  0  0  0  0
  -26.3143  -29.6542   22.3790 C   0  0  1  0  0  0  0  0  0  0  0  0
  -24.3064  -26.8354   20.8118 C   0  0  1  0  0  0  0  0  0  0  0  0
  -27.6224  -13.5740   19.8573 C   0  0  2  0  0  0  0  0  0  0  0  0
  -27.3862  -17.8764   19.8084 C   0  0  0  0  0  0  0  0  0  0  0  0
  -17.9981  -22.3403   20.7713 C   0  0  0  0  0  0  0  0  0  0  0  0
  -21.3386  -26.7981   24.3545 C   0  0  0  0  0  0  0  0  0  0  0  0
  -19.5164  -25.0867   24.2171 C   0  0  0  0  0  0  0  0  0  0  0  0
  -19.4356  -27.1115   22.7624 C   0  0  0  0  0  0  0  0  0  0  0  0
  -21.0760  -21.9552   18.5681 C   0  0  0  0  0  0  0  0  0  0  0  0
  -30.2197  -16.6890   23.6314 C   0  0  0  0  0  0  0  0  0  0  0  0
  -29.0892  -21.3880   22.3318 C   0  0  0  0  0  0  0  0  0  1  0  0
  -27.7318  -18.3736   21.2024 C   0  0  0  0  0  0  0  0  0  0  0  0
  -31.6258  -16.2386   23.1552 C   0  0  0  0  0  0  0  0  0  0  0  0
  -29.2430  -18.4677   21.4005 C   0  0  0  0  0  0  0  0  0  0  0  0
  -31.7944  -14.7234   23.0658 C   0  0  0  0  0  0  0  0  0  0  0  0
  -21.1230  -25.2954   22.2662 C   0  0  1  0  0  0  0  0  0  0  0  0
  -19.2848  -22.7889   20.0962 C   0  0  2  0  0  0  0  0  0  0  0  0
  -20.3803  -26.0659   23.3940 C   0  0  0  0  0  0  0  0  0  0  0  0
  -26.1149  -11.8594   20.7902 N   0  0  0  0  0  0  0  0  0  0  0  0
  -29.5914  -18.9307   22.7308 N   0  0  0  0  0  0  0  0  0  0  0  0
  -26.2628  -13.1235   20.3585 N   0  0  0  0  0  0  0  0  0  0  0  0
  -29.9226  -20.2360   24.4165 N   0  3  0  0  0  0  0  0  0  0  0  0
  -23.3741  -25.8883   21.4267 N   0  0  0  0  0  0  0  0  0  0  0  0
  -30.0685  -13.3335   20.0745 N   0  0  0  0  0  0  0  0  0  0  0  0
  -25.0943  -15.1588   20.0380 N   0  0  0  0  0  0  0  0  0  0  0  0
  -21.9420  -12.4030   21.7307 N   0  0  0  0  0  0  0  0  0  0  0  0
  -25.6909  -28.7036   21.4834 N   0  0  0  0  0  0  0  0  0  0  0  0
  -20.2395  -24.6147   21.3257 N   0  0  0  0  0  0  0  0  0  0  0  0
  -30.8366  -14.1122   22.1716 N   0  0  0  0  0  0  0  0  0  0  0  0
  -19.8228  -21.6471   19.3040 N   0  3  0  0  0  0  0  0  0  0  0  0
  -22.3374  -14.5227   20.9500 O   0  0  0  0  0  0  0  0  0  0  0  0
  -24.5001  -27.4877   23.0728 O   0  0  0  0  0  0  0  0  0  0  0  0
  -21.5009  -27.1369   20.8196 O   0  0  0  0  0  0  0  0  0  0  0  0
  -21.0923  -22.4861   21.6706 O   0  0  0  0  0  0  0  0  0  0  0  0
  -32.1652  -14.2956   20.3120 O   0  0  0  0  0  0  0  0  0  0  0  0
  -22.6658   -7.0766   23.1938 O   0  0  0  0  0  0  0  0  0  0  0  0
  -27.7778  -21.7736   22.7417 O   0  0  0  0  0  0  0  0  0  1  0  0
  -19.4570   -7.4550   27.6619 F   0  0  0  0  0  0  0  0  0  0  0  0
  -23.3324   -5.7642   25.5338 F   0  0  0  0  0  0  0  0  0  0  0  0
  1  2  1  0  0  0  0
  1  5  2  0  0  0  0
  2  6  2  0  0  0  0
  3  8  2  0  0  0  0
  3 16  1  0  0  0  0
  4  9  1  0  0  0  0
  4 16  2  0  0  0  0
  5 18  1  0  0  0  0
  6 20  1  0  0  0  0
  7 10  2  0  0  0  0
  7 19  1  0  0  0  0
  8 22  1  0  0  0  0
  9 22  2  0  0  0  0
 10 23  1  0  0  0  0
 11 12  2  0  0  0  0
 11 24  1  0  0  0  0
 12 25  1  0  0  0  0
 13 21  1  0  0  0  0
 13 23  2  0  0  0  0
 14 25  2  0  0  0  0
 14 26  1  0  0  0  0
 15 28  2  0  0  0  0
 15 66  1  0  0  0  0
 16 27  1  0  0  0  0
 17 27  1  0  0  0  0
 17 29  2  0  0  0  0
 17 31  1  0  0  0  0
 18 20  2  0  0  0  0
 18 36  1  0  0  0  0
 19 21  2  0  0  0  0
 19 37  1  0  0  0  0
 20 45  1  0  0  0  0
 21 38  1  0  0  0  0
 22 80  1  0  0  0  0
 23 81  1  0  0  0  0
 24 26  2  0  0  0  0
 24 80  1  0  0  0  0
 25 82  1  0  0  0  0
 26 83  1  0  0  0  0
 27 63  2  0  0  0  0
 28 54  1  0  0  0  0
 28 64  1  0  0  0  0
 29 65  1  0  0  0  0
 29 69  1  0  0  0  0
 30 55  1  0  0  0  0
 30 64  1  0  0  0  0
 30 66  2  0  0  0  0
 31 70  1  0  0  0  0
 31 75  2  0  0  0  0
 32 46  1  0  0  0  0
 32 71  1  0  0  0  0
 32 76  2  0  0  0  0
 33 60  1  0  0  0  0
 33 67  1  0  0  0  0
 33 77  2  0  0  0  0
 34 61  1  0  0  0  0
 34 72  1  0  0  0  0
 34 78  2  0  0  0  0
 35 68  1  0  0  0  0
 35 73  1  0  0  0  0
 35 79  2  0  0  0  0
 36 39  1  0  0  0  0
 37 46  1  0  0  0  0
 38 67  1  0  0  0  0
 39 41  1  0  0  0  0
 40 42  1  0  0  0  0
 40 43  1  0  0  0  0
 41 45  1  0  0  0  0
 42 47  1  0  0  0  0
 43 68  1  0  0  0  0
 44 47  1  0  0  0  0
 44 68  1  0  0  0  0
 45 71  1  0  0  0  0
 46 67  1  0  0  0  0
 47 65  1  0  0  0  0
 48 56  1  0  0  0  0
 49 61  1  0  0  0  0
 50 62  1  0  0  0  0
 51 62  1  0  0  0  0
 52 62  1  0  0  0  0
 53 74  1  0  0  0  0
 54 57  1  0  0  0  0
 55 81  1  0  0  0  0
 56 58  1  0  0  0  0
 57 59  1  0  0  0  0
 58 64  1  0  0  0  0
 59 73  1  0  0  0  0
 60 62  1  0  0  0  0
 60 72  1  0  0  0  0
 61 74  1  0  0  0  0
 63 65  1  0  0  0  0
M  CHG  2  66   1  74   1
M  ISO  4  35 100  55 101  73 100  81 101
M  END
> <Batch ID>
0043

> <Smiles>
CCCn1c(CCC[100NH:0][100C:0](=O)N2CCCC(n3nc(-c4ccc(Oc5ccc(F)cc5F)cc4)c(C(N)=O)c3N)C2)cnc1[101CH2:1][101O:1]c1ccc2c(c1)CN(C(=O)C(NC(=O)C(C)NC)C(C)(C)C)C(C(=O)NC1CCCc3ccccc31)C2

> <Shape>
0.242

> <Color>
0.136

> <Negative vol penalty>
0.000

$$$$

  -OEChem-04052317143D

 84 92  0     1  0  0  0  0  0999 V2000
  -24.3073  -29.3703   23.2742 C   0  0  0  0  0  0  0  0  0  0  0  0
  -24.8908  -28.1819   23.6986 C   0  0  0  0  0  0  0  0  0  0  0  0
  -21.4291  -23.2680   24.2553 C   0  0  0  0  0  0  0  0  0  0  0  0
  -22.9598  -22.9614   22.4113 C   0  0  0  0  0  0  0  0  0  0  0  0
  -24.3376  -29.7140   21.9243 C   0  0  0  0  0  0  0  0  0  0  0  0
  -25.5150  -27.3426   22.7752 C   0  0  0  0  0  0  0  0  0  0  0  0
  -28.0450  -21.8464   23.4959 C   0  0  0  0  0  0  0  0  0  0  0  0
  -21.3545  -24.6306   23.9668 C   0  0  0  0  0  0  0  0  0  0  0  0
  -22.8851  -24.3241   22.1228 C   0  0  0  0  0  0  0  0  0  0  0  0
  -27.6517  -20.5122   23.4018 C   0  0  0  0  0  0  0  0  0  0  0  0
  -19.7743  -26.6217   21.7371 C   0  0  0  0  0  0  0  0  0  0  0  0
  -18.5120  -27.2151   21.7328 C   0  0  0  0  0  0  0  0  0  0  0  0
  -28.5242  -20.4197   21.1547 C   0  0  0  0  0  0  0  0  0  0  0  0
  -19.2143  -28.7212   23.4866 C   0  0  0  0  0  0  0  0  0  0  0  0
  -23.4023  -14.6462   19.9624 C   0  0  0  0  0  0  0  0  0  0  0  0
  -22.2319  -22.4334   23.4776 C   0  0  0  0  0  0  0  0  0  0  0  0
  -21.4897  -20.0020   23.2646 C   0  0  0  0  0  0  0  0  0  0  0  0
  -24.9518  -28.8718   20.9828 C   0  0  0  0  0  0  0  0  0  0  0  0
  -28.6721  -22.4816   22.4143 C   0  0  0  0  0  0  0  0  0  0  0  0
  -25.5770  -27.6834   21.4119 C   0  0  0  0  0  0  0  0  0  0  0  0
  -28.9268  -21.7613   21.2385 C   0  0  0  0  0  0  0  0  0  0  0  0
  -24.6400  -14.3162   20.4758 C   0  0  0  0  0  0  0  0  0  0  0  0
  -22.0824  -25.1587   22.9005 C   0  0  0  0  0  0  0  0  0  0  0  0
  -27.8887  -19.7994   22.2301 C   0  0  0  0  0  0  0  0  0  0  0  0
  -20.7566  -27.0779   22.6161 C   0  0  0  0  0  0  0  0  0  0  0  0
  -18.2320  -28.2649   22.6076 C   0  0  0  0  0  0  0  0  0  0  0  0
  -20.4766  -28.1277   23.4908 C   0  0  0  0  0  0  0  0  0  0  0  0
  -22.3099  -21.0258   23.7755 C   0  0  0  0  0  0  0  0  0  0  0  0
  -24.6375  -13.8036   21.7570 C   0  0  0  0  0  0  0  0  0  0  0  0
  -21.9671  -18.8551   23.8505 C   0  0  0  0  0  0  0  0  0  0  0  0
  -22.3747  -13.9823   21.8782 C   0  0  0  0  0  0  0  0  0  0  0  0
  -20.3944  -20.0807   22.3429 C   0  0  0  0  0  0  0  0  0  0  0  0
  -27.9691  -24.9620   20.5550 C   0  0  0  0  0  0  0  0  0  0  0  0
  -30.9442  -24.4258   19.3786 C   0  0  0  0  0  0  0  0  0  0  0  0
  -33.5081  -22.2307   18.8745 C   0  0  0  0  0  0  0  0  0  0  0  0
  -26.2186  -15.5997   25.4229 C   0  0  0  0  0  0  0  0  0  0  0  0
  -24.9625  -29.2964   19.5354 C   0  0  0  0  0  0  0  0  0  0  0  0
  -29.1143  -23.9136   22.5413 C   0  0  0  0  0  0  0  0  0  0  0  0
  -29.6149  -22.3912   20.0561 C   0  0  0  0  0  0  0  0  0  0  0  0
  -25.2504  -28.1431   18.5797 C   0  0  0  0  0  0  0  0  0  0  0  0
  -25.2591  -18.2171   27.6376 C   0  0  0  0  0  0  0  0  0  0  0  0
  -26.4782  -27.3754   19.0464 C   0  0  0  0  0  0  0  0  0  0  0  0
  -24.3442  -19.0995   26.7865 C   0  0  0  0  0  0  0  0  0  0  0  0
  -26.4093  -17.6390   26.8161 C   0  0  0  0  0  0  0  0  0  0  0  0
  -25.0836  -17.8016   24.7450 C   0  0  0  0  0  0  0  0  0  0  0  0
  -26.2349  -26.7401   20.4212 C   0  0  1  0  0  0  0  0  0  0  0  0
  -29.2824  -24.6088   21.1938 C   0  0  1  0  0  0  0  0  0  0  0  0
  -23.8770  -18.3625   25.5169 C   0  0  2  0  0  0  0  0  0  0  0  0
  -21.1165  -13.7961   22.6569 C   0  0  0  0  0  0  0  0  0  0  0  0
  -35.7941  -22.0731   17.8512 C   0  0  0  0  0  0  0  0  0  0  0  0
  -29.6899  -24.3186   16.5992 C   0  0  0  0  0  0  0  0  0  0  0  0
  -31.7913  -23.2405   15.7686 C   0  0  0  0  0  0  0  0  0  0  0  0
  -31.8651  -25.5472   16.7154 C   0  0  0  0  0  0  0  0  0  0  0  0
  -34.7532  -21.5627   21.4750 C   0  0  0  0  0  0  0  0  0  0  0  0
  -25.8981  -14.5135   19.6682 C   0  0  0  0  0  0  0  0  0  0  0  0
  -25.9190  -13.4109   22.4151 C   0  0  0  0  0  0  0  0  0  0  0  0
  -26.3606  -15.9726   19.5890 C   0  0  0  0  0  0  0  0  0  0  0  0
  -26.7372  -16.5560   20.9516 C   0  0  0  0  0  0  0  0  0  0  0  0
  -25.9240  -13.6386   23.9307 C   0  0  0  0  0  0  0  0  0  0  0  0
  -27.1528  -18.0165   20.8388 C   0  0  0  0  0  0  0  0  0  1  0  0
  -31.5179  -23.5812   18.2667 C   0  0  1  0  0  0  0  0  0  0  0  0
  -35.0015  -22.3528   19.1186 C   0  0  2  0  0  0  0  0  0  0  0  0
  -31.2013  -24.1602   16.8589 C   0  0  0  0  0  0  0  0  0  0  0  0
  -22.2449  -14.4918   20.6384 N   0  0  0  0  0  0  0  0  0  0  0  0
  -23.2378  -20.5696   24.6210 N   0  0  0  0  0  0  0  0  0  0  0  0
  -23.5192  -13.6227   22.4899 N   0  0  0  0  0  0  0  0  0  0  0  0
  -23.0036  -19.2465   24.6459 N   0  0  0  0  0  0  0  0  0  0  0  0
  -30.0226  -23.7956   20.2267 N   0  0  0  0  0  0  0  0  0  0  0  0
  -25.8986  -16.9520   25.6274 N   0  0  0  0  0  0  0  0  0  0  0  0
  -21.5972  -17.5602   23.7577 N   0  0  0  0  0  0  0  0  0  0  0  0
  -20.0357  -21.3376   21.8371 N   0  0  0  0  0  0  0  0  0  0  0  0
  -27.4815  -26.2023   20.9199 N   0  0  0  0  0  0  0  0  0  0  0  0
  -32.9425  -23.4457   18.5505 N   0  0  0  0  0  0  0  0  0  0  0  0
  -25.6887  -15.0231   24.2750 N   0  0  0  0  0  0  0  0  0  0  0  0
  -35.4356  -21.3870   20.1672 N   0  3  0  0  0  0  0  0  0  0  0  0
  -19.7422  -19.0685   21.9912 O   0  0  0  0  0  0  0  0  0  0  0  0
  -27.4382  -24.1685   19.7867 O   0  0  0  0  0  0  0  0  0  0  0  0
  -31.3059  -25.5994   19.4949 O   0  0  0  0  0  0  0  0  0  0  0  0
  -32.9045  -21.1634   18.9589 O   0  0  0  0  0  0  0  0  0  0  0  0
  -26.9198  -14.9525   26.2080 O   0  0  0  0  0  0  0  0  0  0  0  0
  -22.0095  -26.4882   22.6185 O   0  0  0  0  0  0  0  0  0  0  0  0
  -27.5052  -18.4972   22.1354 O   0  0  0  0  0  0  0  0  0  1  0  0
  -17.0203  -28.8358   22.6023 F   0  0  0  0  0  0  0  0  0  0  0  0
  -21.4165  -28.5712   24.3368 F   0  0  0  0  0  0  0  0  0  0  0  0
  1  2  1  0  0  0  0
  1  5  2  0  0  0  0
  2  6  2  0  0  0  0
  3  8  2  0  0  0  0
  3 16  1  0  0  0  0
  4  9  1  0  0  0  0
  4 16  2  0  0  0  0
  5 18  1  0  0  0  0
  6 20  1  0  0  0  0
  7 10  2  0  0  0  0
  7 19  1  0  0  0  0
  8 23  1  0  0  0  0
  9 23  2  0  0  0  0
 10 24  1  0  0  0  0
 11 12  2  0  0  0  0
 11 25  1  0  0  0  0
 12 26  1  0  0  0  0
 13 21  1  0  0  0  0
 13 24  2  0  0  0  0
 14 26  2  0  0  0  0
 14 27  1  0  0  0  0
 15 22  1  0  0  0  0
 15 64  2  0  0  0  0
 16 28  1  0  0  0  0
 17 28  1  0  0  0  0
 17 30  2  0  0  0  0
 17 32  1  0  0  0  0
 18 20  2  0  0  0  0
 18 37  1  0  0  0  0
 19 21  2  0  0  0  0
 19 38  1  0  0  0  0
 20 46  1  0  0  0  0
 21 39  1  0  0  0  0
 22 29  2  0  0  0  0
 22 55  1  0  0  0  0
 23 81  1  0  0  0  0
 24 82  1  0  0  0  0
 25 27  2  0  0  0  0
 25 81  1  0  0  0  0
 26 83  1  0  0  0  0
 27 84  1  0  0  0  0
 28 65  2  0  0  0  0
 29 56  1  0  0  0  0
 29 66  1  0  0  0  0
 30 67  1  0  0  0  0
 30 70  1  0  0  0  0
 31 49  1  0  0  0  0
 31 64  1  0  0  0  0
 31 66  2  0  0  0  0
 32 71  1  0  0  0  0
 32 76  2  0  0  0  0
 33 47  1  0  0  0  0
 33 72  1  0  0  0  0
 33 77  2  0  0  0  0
 34 61  1  0  0  0  0
 34 68  1  0  0  0  0
 34 78  2  0  0  0  0
 35 62  1  0  0  0  0
 35 73  1  0  0  0  0
 35 79  2  0  0  0  0
 36 69  1  0  0  0  0
 36 74  1  0  0  0  0
 36 80  2  0  0  0  0
 37 40  1  0  0  0  0
 38 47  1  0  0  0  0
 39 68  1  0  0  0  0
 40 42  1  0  0  0  0
 41 43  1  0  0  0  0
 41 44  1  0  0  0  0
 42 46  1  0  0  0  0
 43 48  1  0  0  0  0
 44 69  1  0  0  0  0
 45 48  1  0  0  0  0
 45 69  1  0  0  0  0
 46 72  1  0  0  0  0
 47 68  1  0  0  0  0
 48 67  1  0  0  0  0
 50 62  1  0  0  0  0
 51 63  1  0  0  0  0
 52 63  1  0  0  0  0
 53 63  1  0  0  0  0
 54 75  1  0  0  0  0
 55 57  1  0  0  0  0
 56 59  1  0  0  0  0
 57 58  1  0  0  0  0
 58 60  1  0  0  0  0
 59 74  1  0  0  0  0
 60 82  1  0  0  0  0
 61 63  1  0  0  0  0
 61 73  1  0  0  0  0
 62 75  1  0  0  0  0
 65 67  1  0  0  0  0
M  CHG  1  75   1
M  ISO  4  36 100  60 101  74 100  82 101
M  END
> <Batch ID>
0043

> <Smiles>
CNC(C)C(=O)NC(C(=O)N1Cc2cc([101O:1][101CH2:1]CCCc3cnc(C)nc3CC[100NH:0][100C:0](=O)N3CCCC(n4nc(-c5ccc(Oc6ccc(F)cc6F)cc5)c(C(N)=O)c4N)C3)ccc2CC1C(=O)NC1CCCc2ccccc21)C(C)(C)C

> <Shape>
0.181

> <Color>
0.065

> <Negative vol penalty>
0.000

$$$$

  -OEChem-04052317143D

 83 91  0     1  0  0  0  0  0999 V2000
  -22.2437  -12.1383   18.4364 C   0  0  0  0  0  0  0  0  0  0  0  0
  -21.9496  -13.4288   18.8648 C   0  0  0  0  0  0  0  0  0  0  0  0
  -29.9903  -26.3156   19.8653 C   0  0  0  0  0  0  0  0  0  0  0  0
  -29.5708  -26.0944   22.2343 C   0  0  0  0  0  0  0  0  0  0  0  0
  -23.4082  -11.5084   18.8735 C   0  0  0  0  0  0  0  0  0  0  0  0
  -22.8194  -14.0898   19.7314 C   0  0  0  0  0  0  0  0  0  0  0  0
  -24.0599  -20.0861   19.8367 C   0  0  0  0  0  0  0  0  0  0  0  0
  -31.3483  -26.0843   20.0841 C   0  0  0  0  0  0  0  0  0  0  0  0
  -30.9288  -25.8631   22.4531 C   0  0  0  0  0  0  0  0  0  0  0  0
  -23.5804  -21.1294   20.6276 C   0  0  0  0  0  0  0  0  0  0  0  0
  -34.3376  -25.5712   23.6798 C   0  0  0  0  0  0  0  0  0  0  0  0
  -34.9462  -26.2397   24.7420 C   0  0  0  0  0  0  0  0  0  0  0  0
  -25.4888  -20.8940   22.0843 C   0  0  0  0  0  0  0  0  0  0  0  0
  -34.3737  -28.3602   23.7355 C   0  0  0  0  0  0  0  0  0  0  0  0
  -20.5928  -25.6473   22.5641 C   0  0  0  0  0  0  0  0  0  0  0  0
  -29.1015  -26.3207   20.9404 C   0  0  0  0  0  0  0  0  0  0  0  0
  -26.7043  -25.5998   20.4494 C   0  0  0  0  0  0  0  0  0  0  0  0
  -24.2975  -12.1656   19.7383 C   0  0  0  0  0  0  0  0  0  0  0  0
  -25.2538  -19.4306   20.1704 C   0  0  0  0  0  0  0  0  0  0  0  0
  -23.9962  -13.4675   20.1815 C   0  0  0  0  0  0  0  0  0  0  0  0
  -25.9825  -19.8444   21.2946 C   0  0  0  0  0  0  0  0  0  0  0  0
  -31.8176  -25.8580   21.3780 C   0  0  0  0  0  0  0  0  0  0  0  0
  -24.2934  -21.5316   21.7532 C   0  0  0  0  0  0  0  0  0  0  0  0
  -33.7471  -26.2972   22.6454 C   0  0  0  0  0  0  0  0  0  0  0  0
  -34.9643  -27.6342   24.7699 C   0  0  0  0  0  0  0  0  0  0  0  0
  -33.7651  -27.6916   22.6733 C   0  0  0  0  0  0  0  0  0  0  0  0
  -27.6987  -26.5602   20.7150 C   0  0  0  0  0  0  0  0  0  0  0  0
  -19.9540  -24.5395   23.1527 C   0  0  0  0  0  0  0  0  0  0  0  0
  -19.6281  -26.2183   21.7704 C   0  0  0  0  0  0  0  0  0  0  0  0
  -25.5490  -26.3301   20.3139 C   0  0  0  0  0  0  0  0  0  0  0  0
  -26.8149  -24.1748   20.3355 C   0  0  0  0  0  0  0  0  0  0  0  0
  -26.0324  -16.4513   20.9587 C   0  0  0  0  0  0  0  0  0  0  0  0
  -29.0557  -17.6182   20.8172 C   0  0  0  0  0  0  0  0  0  0  0  0
  -31.1280  -20.3240   20.9921 C   0  0  0  0  0  0  0  0  0  0  0  0
  -22.1295  -30.3922   22.0320 C   0  0  0  0  0  0  0  0  0  0  0  0
  -25.5202  -11.4262   20.2212 C   0  0  0  0  0  0  0  0  0  0  0  0
  -25.7712  -18.3247   19.2920 C   0  0  0  0  0  0  0  0  0  0  0  0
  -27.2802  -19.1867   21.6846 C   0  0  0  0  0  0  0  0  0  0  0  0
  -26.5768  -12.3365   20.8419 C   0  0  0  0  0  0  0  0  0  0  0  0
  -24.8376  -31.3223   19.9158 C   0  0  0  0  0  0  0  0  0  0  0  0
  -25.9315  -13.3154   21.8177 C   0  0  0  0  0  0  0  0  0  0  0  0
  -25.7438  -30.0899   19.9184 C   0  0  0  0  0  0  0  0  0  0  0  0
  -24.1874  -31.5476   21.2791 C   0  0  0  0  0  0  0  0  0  0  0  0
  -24.3678  -29.1503   21.8217 C   0  0  0  0  0  0  0  0  0  0  0  0
  -24.9272  -14.2267   21.1019 C   0  0  1  0  0  0  0  0  0  0  0  0
  -26.7333  -17.3875   20.0154 C   0  0  1  0  0  0  0  0  0  0  0  0
  -25.0023  -28.8498   20.4530 C   0  0  2  0  0  0  0  0  0  0  0  0
  -33.5531  -20.9588   20.8755 C   0  0  0  0  0  0  0  0  0  0  0  0
  -29.4732  -16.5323   23.6379 C   0  0  0  0  0  0  0  0  0  0  0  0
  -31.5027  -17.9867   23.8223 C   0  0  0  0  0  0  0  0  0  0  0  0
  -31.4094  -16.1922   22.0920 C   0  0  0  0  0  0  0  0  0  0  0  0
  -17.2289  -25.6423   21.2946 C   0  0  0  0  0  0  0  0  0  0  0  0
  -30.6808  -22.0562   18.6345 C   0  0  0  0  0  0  0  0  0  0  0  0
  -20.5451  -23.5447   24.1193 C   0  0  0  0  0  0  0  0  0  0  0  0
  -19.6706  -27.4049   20.8964 C   0  0  0  0  0  0  0  0  0  0  0  0
  -22.0489  -23.3276   23.9370 C   0  0  0  0  0  0  0  0  0  0  0  0
  -19.2826  -28.7380   21.5823 C   0  0  0  0  0  0  0  0  0  0  0  0
  -20.1526  -29.0950   22.7856 C   0  0  0  0  0  0  0  0  0  0  0  0
  -22.4125  -22.7263   22.5843 C   0  0  0  0  0  0  0  0  0  1  0  0
  -29.9975  -18.2693   21.8010 C   0  0  1  0  0  0  0  0  0  0  0  0
  -32.2608  -20.7851   20.0928 C   0  0  2  0  0  0  0  0  0  0  0  0
  -30.5703  -17.2564   22.8323 C   0  0  0  0  0  0  0  0  0  0  0  0
  -27.2173  -27.8057   20.7465 N   0  0  0  0  0  0  0  0  0  0  0  0
  -18.6818  -24.4125   22.7661 N   0  0  0  0  0  0  0  0  0  0  0  0
  -18.5134  -25.4479   21.9261 N   0  0  0  0  0  0  0  0  0  0  0  0
  -25.9077  -27.6329   20.4989 N   0  0  0  0  0  0  0  0  0  0  0  0
  -27.7414  -18.1061   20.7975 N   0  0  0  0  0  0  0  0  0  0  0  0
  -23.4997  -30.3346   21.7282 N   0  0  0  0  0  0  0  0  0  0  0  0
  -24.2714  -25.9786   20.0556 N   0  0  0  0  0  0  0  0  0  0  0  0
  -28.0762  -23.5871   20.5033 N   0  0  0  0  0  0  0  0  0  0  0  0
  -25.6196  -15.2689   20.3747 N   0  0  0  0  0  0  0  0  0  0  0  0
  -31.0129  -18.9501   21.0049 N   0  0  0  0  0  0  0  0  0  0  0  0
  -21.5539  -29.1966   22.4441 N   0  0  0  0  0  0  0  0  0  0  0  0
  -31.9186  -22.0880   19.4554 N   0  3  0  0  0  0  0  0  0  0  0  0
  -25.8276  -23.4459   20.0760 O   0  0  0  0  0  0  0  0  0  0  0  0
  -25.8787  -16.7769   22.1301 O   0  0  0  0  0  0  0  0  0  0  0  0
  -29.4727  -16.7150   20.0878 O   0  0  0  0  0  0  0  0  0  0  0  0
  -30.4188  -21.1045   21.6234 O   0  0  0  0  0  0  0  0  0  0  0  0
  -21.4670  -31.4310   21.9374 O   0  0  0  0  0  0  0  0  0  0  0  0
  -33.1426  -25.6320   21.5919 O   0  0  0  0  0  0  0  0  0  0  0  0
  -23.8274  -22.5492   22.5272 O   0  0  0  0  0  0  0  0  0  1  0  0
  -35.5474  -28.2760   25.7908 F   0  0  0  0  0  0  0  0  0  0  0  0
  -33.1985  -28.3945   21.6830 F   0  0  0  0  0  0  0  0  0  0  0  0
  1  2  1  0  0  0  0
  1  5  2  0  0  0  0
  2  6  2  0  0  0  0
  3  8  2  0  0  0  0
  3 16  1  0  0  0  0
  4  9  1  0  0  0  0
  4 16  2  0  0  0  0
  5 18  1  0  0  0  0
  6 20  1  0  0  0  0
  7 10  2  0  0  0  0
  7 19  1  0  0  0  0
  8 22  1  0  0  0  0
  9 22  2  0  0  0  0
 10 23  1  0  0  0  0
 11 12  2  0  0  0  0
 11 24  1  0  0  0  0
 12 25  1  0  0  0  0
 13 21  1  0  0  0  0
 13 23  2  0  0  0  0
 14 25  2  0  0  0  0
 14 26  1  0  0  0  0
 15 28  1  0  0  0  0
 15 29  2  0  0  0  0
 16 27  1  0  0  0  0
 17 27  1  0  0  0  0
 17 30  2  0  0  0  0
 17 31  1  0  0  0  0
 18 20  2  0  0  0  0
 18 36  1  0  0  0  0
 19 21  2  0  0  0  0
 19 37  1  0  0  0  0
 20 45  1  0  0  0  0
 21 38  1  0  0  0  0
 22 80  1  0  0  0  0
 23 81  1  0  0  0  0
 24 26  2  0  0  0  0
 24 80  1  0  0  0  0
 25 82  1  0  0  0  0
 26 83  1  0  0  0  0
 27 63  2  0  0  0  0
 28 54  1  0  0  0  0
 28 64  2  0  0  0  0
 29 55  1  0  0  0  0
 29 65  1  0  0  0  0
 30 66  1  0  0  0  0
 30 69  1  0  0  0  0
 31 70  1  0  0  0  0
 31 75  2  0  0  0  0
 32 46  1  0  0  0  0
 32 71  1  0  0  0  0
 32 76  2  0  0  0  0
 33 60  1  0  0  0  0
 33 67  1  0  0  0  0
 33 77  2  0  0  0  0
 34 61  1  0  0  0  0
 34 72  1  0  0  0  0
 34 78  2  0  0  0  0
 35 68  1  0  0  0  0
 35 73  1  0  0  0  0
 35 79  2  0  0  0  0
 36 39  1  0  0  0  0
 37 46  1  0  0  0  0
 38 67  1  0  0  0  0
 39 41  1  0  0  0  0
 40 42  1  0  0  0  0
 40 43  1  0  0  0  0
 41 45  1  0  0  0  0
 42 47  1  0  0  0  0
 43 68  1  0  0  0  0
 44 47  1  0  0  0  0
 44 68  1  0  0  0  0
 45 71  1  0  0  0  0
 46 67  1  0  0  0  0
 47 66  1  0  0  0  0
 48 61  1  0  0  0  0
 49 62  1  0  0  0  0
 50 62  1  0  0  0  0
 51 62  1  0  0  0  0
 52 65  1  0  0  0  0
 53 74  1  0  0  0  0
 54 56  1  0  0  0  0
 55 57  1  0  0  0  0
 56 59  1  0  0  0  0
 57 58  1  0  0  0  0
 58 73  1  0  0  0  0
 59 81  1  0  0  0  0
 60 62  1  0  0  0  0
 60 72  1  0  0  0  0
 61 74  1  0  0  0  0
 63 66  1  0  0  0  0
 64 65  1  0  0  0  0
M  CHG  1  74   1
M  ISO  4  35 100  59 101  73 100  81 101
M  END
> <Batch ID>
0043

> <Smiles>
CNC(C)C(=O)NC(C(=O)N1Cc2cc([101O:1][101CH2:1]CCc3cc(CCC[100NH:0][100C:0](=O)N4CCCC(n5nc(-c6ccc(Oc7ccc(F)cc7F)cc6)c(C(N)=O)c5N)C4)n(C)n3)ccc2CC1C(=O)NC1CCCc2ccccc21)C(C)(C)C

> <Shape>
0.215

> <Color>
0.081

> <Negative vol penalty>
0.000

$$$$

  -OEChem-04052317143D

 82 90  0     1  0  0  0  0  0999 V2000
  -28.3245  -11.4298   19.0394 C   0  0  0  0  0  0  0  0  0  0  0  0
  -27.4799  -12.1480   19.8797 C   0  0  0  0  0  0  0  0  0  0  0  0
  -24.6551  -31.4799   24.6168 C   0  0  0  0  0  0  0  0  0  0  0  0
  -26.2144  -29.6860   24.1840 C   0  0  0  0  0  0  0  0  0  0  0  0
  -29.6103  -11.9009   18.7769 C   0  0  0  0  0  0  0  0  0  0  0  0
  -27.9209  -13.3374   20.4588 C   0  0  0  0  0  0  0  0  0  0  0  0
  -24.4590  -17.0244   20.2008 C   0  0  0  0  0  0  0  0  0  0  0  0
  -25.5123  -31.9899   25.5918 C   0  0  0  0  0  0  0  0  0  0  0  0
  -27.0717  -30.1960   25.1590 C   0  0  0  0  0  0  0  0  0  0  0  0
  -23.4085  -16.9766   21.1161 C   0  0  0  0  0  0  0  0  0  0  0  0
  -29.3307  -32.6952   25.4267 C   0  0  0  0  0  0  0  0  0  0  0  0
  -30.6883  -32.7740   25.1168 C   0  0  0  0  0  0  0  0  0  0  0  0
  -24.5258  -18.6269   22.4754 C   0  0  0  0  0  0  0  0  0  0  0  0
  -31.1964  -31.3089   26.9694 C   0  0  0  0  0  0  0  0  0  0  0  0
  -19.0571  -18.6324   25.6854 C   0  0  0  0  0  0  0  0  0  0  0  0
  -25.0061  -30.3280   23.9129 C   0  0  0  0  0  0  0  0  0  0  0  0
  -24.1069  -30.1189   21.5348 C   0  0  0  0  0  0  0  0  0  0  0  0
  -30.0638  -13.1016   19.3454 C   0  0  0  0  0  0  0  0  0  0  0  0
  -25.5578  -17.8671   20.4217 C   0  0  0  0  0  0  0  0  0  0  0  0
  -29.2143  -13.8243   20.2047 C   0  0  0  0  0  0  0  0  0  0  0  0
  -25.5877  -18.6854   21.5600 C   0  0  0  0  0  0  0  0  0  0  0  0
  -20.0944  -18.8883   24.8119 C   0  0  0  0  0  0  0  0  0  0  0  0
  -26.7206  -31.3479   25.8629 C   0  0  0  0  0  0  0  0  0  0  0  0
  -23.4431  -17.7758   22.2551 C   0  0  0  0  0  0  0  0  0  0  0  0
  -28.9058  -31.9233   26.5081 C   0  0  0  0  0  0  0  0  0  0  0  0
  -31.6212  -32.0809   25.8881 C   0  0  0  0  0  0  0  0  0  0  0  0
  -29.8387  -31.2301   27.2794 C   0  0  0  0  0  0  0  0  0  0  0  0
  -24.1207  -29.8004   22.9060 C   0  0  0  0  0  0  0  0  0  0  0  0
  -21.3192  -18.3624   25.1692 C   0  0  0  0  0  0  0  0  0  0  0  0
  -23.0883  -29.3576   21.0157 C   0  0  0  0  0  0  0  0  0  0  0  0
  -20.4369  -17.4600   27.0597 C   0  0  0  0  0  0  0  0  0  0  0  0
  -24.9403  -31.0221   20.7963 C   0  0  0  0  0  0  0  0  0  0  0  0
  -28.6752  -17.4217   20.8539 C   0  0  0  0  0  0  0  0  0  0  0  0
  -28.7580  -20.6625   20.7421 C   0  0  0  0  0  0  0  0  0  0  0  0
  -27.4613  -23.9408   21.5092 C   0  0  0  0  0  0  0  0  0  0  0  0
  -20.7059  -24.2500   22.7739 C   0  0  0  0  0  0  0  0  0  0  0  0
  -31.4784  -13.5464   19.0699 C   0  0  0  0  0  0  0  0  0  0  0  0
  -26.6704  -17.9268   19.4112 C   0  0  0  0  0  0  0  0  0  0  0  0
  -26.7349  -19.6222   21.8332 C   0  0  0  0  0  0  0  0  0  0  0  0
  -31.7373  -15.0083   19.4252 C   0  0  0  0  0  0  0  0  0  0  0  0
  -18.9180  -27.3500   22.2346 C   0  0  0  0  0  0  0  0  0  0  0  0
  -31.1677  -15.3318   20.8027 C   0  0  0  0  0  0  0  0  0  0  0  0
  -20.0643  -28.3629   22.2161 C   0  0  0  0  0  0  0  0  0  0  0  0
  -19.1697  -26.2490   23.2606 C   0  0  0  0  0  0  0  0  0  0  0  0
  -21.6095  -26.5390   23.0679 C   0  0  0  0  0  0  0  0  0  0  0  0
  -29.6476  -15.1315   20.8321 C   0  0  1  0  0  0  0  0  0  0  0  0
  -27.9818  -18.4420   19.9962 C   0  0  1  0  0  0  0  0  0  0  0  0
  -21.4255  -27.6655   22.0348 C   0  0  2  0  0  0  0  0  0  0  0  0
  -20.6271  -16.6661   28.3078 C   0  0  0  0  0  0  0  0  0  0  0  0
  -28.2826  -26.2169   20.8441 C   0  0  0  0  0  0  0  0  0  0  0  0
  -30.2331  -20.5922   23.4121 C   0  0  0  0  0  0  0  0  0  0  0  0
  -29.7060  -23.0241   23.6880 C   0  0  0  0  0  0  0  0  0  0  0  0
  -31.1165  -22.2646   21.7759 C   0  0  0  0  0  0  0  0  0  0  0  0
  -24.8417  -24.6727   20.3426 C   0  0  0  0  0  0  0  0  0  0  0  0
  -19.8800  -19.6814   23.5748 C   0  0  0  0  0  0  0  0  0  0  0  0
  -22.5201  -18.5763   24.2955 C   0  0  0  0  0  0  0  0  0  1  0  0
  -19.8306  -21.2097   23.7896 C   0  0  0  0  0  0  0  0  0  0  0  0
  -19.6570  -22.0173   22.5051 C   0  0  0  0  0  0  0  0  0  0  0  0
  -28.6370  -21.7708   21.7600 C   0  0  1  0  0  0  0  0  0  0  0  0
  -27.2942  -25.1007   20.5442 C   0  0  2  0  0  0  0  0  0  0  0  0
  -29.9023  -21.8939   22.6551 C   0  0  0  0  0  0  0  0  0  0  0  0
  -19.1934  -17.9192   26.8225 N   0  0  0  0  0  0  0  0  0  0  0  0
  -23.1851  -28.9065   23.2372 N   0  0  0  0  0  0  0  0  0  0  0  0
  -21.5271  -17.6409   26.2901 N   0  0  0  0  0  0  0  0  0  0  0  0
  -22.5738  -28.6569   22.0667 N   0  0  0  0  0  0  0  0  0  0  0  0
  -27.8018  -19.6399   20.8188 N   0  0  0  0  0  0  0  0  0  0  0  0
  -20.4729  -25.6131   23.0210 N   0  0  0  0  0  0  0  0  0  0  0  0
  -22.5915  -29.2260   19.7674 N   0  0  0  0  0  0  0  0  0  0  0  0
  -25.9386  -31.7247   21.4850 N   0  0  0  0  0  0  0  0  0  0  0  0
  -28.9786  -16.2455   20.1950 N   0  0  0  0  0  0  0  0  0  0  0  0
  -28.3154  -22.9803   21.0102 N   0  0  0  0  0  0  0  0  0  0  0  0
  -19.5773  -23.4398   22.7527 N   0  0  0  0  0  0  0  0  0  0  0  0
  -25.9147  -25.6570   20.6368 N   0  3  0  0  0  0  0  0  0  0  0  0
  -24.7931  -31.2131   19.5653 O   0  0  0  0  0  0  0  0  0  0  0  0
  -28.9185  -17.6827   22.0262 O   0  0  0  0  0  0  0  0  0  0  0  0
  -29.6631  -20.7062   19.9051 O   0  0  0  0  0  0  0  0  0  0  0  0
  -26.8939  -23.8935   22.5984 O   0  0  0  0  0  0  0  0  0  0  0  0
  -21.8363  -23.7894   22.5810 O   0  0  0  0  0  0  0  0  0  0  0  0
  -27.5575  -31.8454   26.8141 O   0  0  0  0  0  0  0  0  0  0  0  0
  -22.4193  -17.7306   23.1505 O   0  0  0  0  0  0  0  0  0  1  0  0
  -32.9248  -32.1554   25.5893 F   0  0  0  0  0  0  0  0  0  0  0  0
  -29.4365  -30.4859   28.3188 F   0  0  0  0  0  0  0  0  0  0  0  0
  1  2  1  0  0  0  0
  1  5  2  0  0  0  0
  2  6  2  0  0  0  0
  3  8  2  0  0  0  0
  3 16  1  0  0  0  0
  4  9  1  0  0  0  0
  4 16  2  0  0  0  0
  5 18  1  0  0  0  0
  6 20  1  0  0  0  0
  7 10  2  0  0  0  0
  7 19  1  0  0  0  0
  8 23  1  0  0  0  0
  9 23  2  0  0  0  0
 10 24  1  0  0  0  0
 11 12  2  0  0  0  0
 11 25  1  0  0  0  0
 12 26  1  0  0  0  0
 13 21  1  0  0  0  0
 13 24  2  0  0  0  0
 14 26  2  0  0  0  0
 14 27  1  0  0  0  0
 15 22  1  0  0  0  0
 15 62  2  0  0  0  0
 16 28  1  0  0  0  0
 17 28  1  0  0  0  0
 17 30  2  0  0  0  0
 17 32  1  0  0  0  0
 18 20  2  0  0  0  0
 18 37  1  0  0  0  0
 19 21  2  0  0  0  0
 19 38  1  0  0  0  0
 20 46  1  0  0  0  0
 21 39  1  0  0  0  0
 22 29  2  0  0  0  0
 22 55  1  0  0  0  0
 23 79  1  0  0  0  0
 24 80  1  0  0  0  0
 25 27  2  0  0  0  0
 25 79  1  0  0  0  0
 26 81  1  0  0  0  0
 27 82  1  0  0  0  0
 28 63  2  0  0  0  0
 29 56  1  0  0  0  0
 29 64  1  0  0  0  0
 30 65  1  0  0  0  0
 30 68  1  0  0  0  0
 31 49  1  0  0  0  0
 31 62  1  0  0  0  0
 31 64  2  0  0  0  0
 32 69  1  0  0  0  0
 32 74  2  0  0  0  0
 33 47  1  0  0  0  0
 33 70  1  0  0  0  0
 33 75  2  0  0  0  0
 34 59  1  0  0  0  0
 34 66  1  0  0  0  0
 34 76  2  0  0  0  0
 35 60  1  0  0  0  0
 35 71  1  0  0  0  0
 35 77  2  0  0  0  0
 36 67  1  0  0  0  0
 36 72  1  0  0  0  0
 36 78  2  0  0  0  0
 37 40  1  0  0  0  0
 38 47  1  0  0  0  0
 39 66  1  0  0  0  0
 40 42  1  0  0  0  0
 41 43  1  0  0  0  0
 41 44  1  0  0  0  0
 42 46  1  0  0  0  0
 43 48  1  0  0  0  0
 44 67  1  0  0  0  0
 45 48  1  0  0  0  0
 45 67  1  0  0  0  0
 46 70  1  0  0  0  0
 47 66  1  0  0  0  0
 48 65  1  0  0  0  0
 50 60  1  0  0  0  0
 51 61  1  0  0  0  0
 52 61  1  0  0  0  0
 53 61  1  0  0  0  0
 54 73  1  0  0  0  0
 55 57  1  0  0  0  0
 56 80  1  0  0  0  0
 57 58  1  0  0  0  0
 58 72  1  0  0  0  0
 59 61  1  0  0  0  0
 59 71  1  0  0  0  0
 60 73  1  0  0  0  0
 63 65  1  0  0  0  0
M  CHG  1  73   1
M  ISO  4  36 100  56 101  72 100  80 101
M  END
> <Batch ID>
0043

> <Smiles>
CNC(C)C(=O)NC(C(=O)N1Cc2cc([101O:1][101CH2:1]c3nc(C)ncc3CCC[100NH:0][100C:0](=O)N3CCCC(n4nc(-c5ccc(Oc6ccc(F)cc6F)cc5)c(C(N)=O)c4N)C3)ccc2CC1C(=O)NC1CCCc2ccccc21)C(C)(C)C

> <Shape>
0.239

> <Color>
0.056

> <Negative vol penalty>
0.000

$$$$

  -OEChem-04052317143D

 84 91  0     1  0  0  0  0  0999 V2000
  -21.2242  -33.3019   12.5386 C   0  0  0  0  0  0  0  0  0  0  0  0
  -21.4770  -31.9463   12.3547 C   0  0  0  0  0  0  0  0  0  0  0  0
  -22.9669  -10.0180   19.9552 C   0  0  0  0  0  0  0  0  0  0  0  0
  -23.8146   -9.8856   22.2137 C   0  0  0  0  0  0  0  0  0  0  0  0
  -21.7209  -33.9559   13.6653 C   0  0  0  0  0  0  0  0  0  0  0  0
  -22.2277  -31.2441   13.2970 C   0  0  0  0  0  0  0  0  0  0  0  0
  -22.8109  -24.7436   16.2500 C   0  0  0  0  0  0  0  0  0  0  0  0
  -22.2075   -8.8684   20.1729 C   0  0  0  0  0  0  0  0  0  0  0  0
  -23.0551   -8.7361   22.4314 C   0  0  0  0  0  0  0  0  0  0  0  0
  -23.7624  -23.7559   16.5007 C   0  0  0  0  0  0  0  0  0  0  0  0
  -23.2496   -5.4438   21.6872 C   0  0  0  0  0  0  0  0  0  0  0  0
  -23.8692   -4.3689   22.3246 C   0  0  0  0  0  0  0  0  0  0  0  0
  -24.5025  -24.9718   18.4482 C   0  0  0  0  0  0  0  0  0  0  0  0
  -22.2391   -4.4847   24.1042 C   0  0  0  0  0  0  0  0  0  0  0  0
  -23.7705  -10.5266   20.9756 C   0  0  0  0  0  0  0  0  0  0  0  0
  -24.1641  -13.0470   20.9765 C   0  0  0  0  0  0  0  0  0  0  0  0
  -22.4699  -33.2592   14.6267 C   0  0  0  0  0  0  0  0  0  0  0  0
  -22.7051  -25.8601   17.0918 C   0  0  0  0  0  0  0  0  0  0  0  0
  -22.7360  -31.8897   14.4369 C   0  0  0  0  0  0  0  0  0  0  0  0
  -23.5471  -25.9710   18.2075 C   0  0  0  0  0  0  0  0  0  0  0  0
  -22.2516   -8.2274   21.4110 C   0  0  0  0  0  0  0  0  0  0  0  0
  -24.6104  -23.8714   17.5983 C   0  0  0  0  0  0  0  0  0  0  0  0
  -22.1249   -6.0392   22.2583 C   0  0  0  0  0  0  0  0  0  0  0  0
  -23.3639   -3.8893   23.5331 C   0  0  0  0  0  0  0  0  0  0  0  0
  -21.6196   -5.5597   23.4667 C   0  0  0  0  0  0  0  0  0  0  0  0
  -24.5556  -11.7137   20.7512 C   0  0  0  0  0  0  0  0  0  0  0  0
  -25.2579  -13.7926   20.6105 C   0  0  0  0  0  0  0  0  0  0  0  0
  -22.9226  -13.5652   21.4724 C   0  0  0  0  0  0  0  0  0  0  0  0
  -23.0568  -28.9964   16.7127 C   0  0  0  0  0  0  0  0  0  0  0  0
  -21.9885  -29.0927   19.7741 C   0  0  0  0  0  0  0  0  0  0  0  0
  -21.6013  -27.4850   22.7594 C   0  0  0  0  0  0  0  0  0  0  0  0
  -30.7664  -14.6881   20.6349 C   0  0  0  0  0  0  0  0  0  0  0  0
  -23.0260  -34.0196   15.8045 C   0  0  0  0  0  0  0  0  0  0  0  0
  -21.6556  -26.9035   16.8228 C   0  0  0  0  0  0  0  0  0  0  0  0
  -23.4605  -27.1399   19.1533 C   0  0  0  0  0  0  0  0  0  0  0  0
  -23.4953  -33.1190   16.9443 C   0  0  0  0  0  0  0  0  0  0  0  0
  -29.4843  -12.4596   18.1718 C   0  0  0  0  0  0  0  0  0  0  0  0
  -24.3398  -31.9697   16.4034 C   0  0  0  0  0  0  0  0  0  0  0  0
  -28.0584  -12.1723   18.6452 C   0  0  0  0  0  0  0  0  0  0  0  0
  -30.4518  -12.5966   19.3454 C   0  0  0  0  0  0  0  0  0  0  0  0
  -28.6218  -13.2903   20.8433 C   0  0  0  0  0  0  0  0  0  0  0  0
  -23.5253  -31.0880   15.4491 C   0  0  1  0  0  0  0  0  0  0  0  0
  -21.9805  -28.2542   17.4532 C   0  0  1  0  0  0  0  0  0  0  0  0
  -27.5993  -13.1994   19.6976 C   0  0  2  0  0  0  0  0  0  0  0  0
  -20.7276  -27.8338   25.0858 C   0  0  0  0  0  0  0  0  0  0  0  0
  -24.4643  -30.7414   20.4540 C   0  0  0  0  0  0  0  0  0  0  0  0
  -24.0420  -30.2497   22.8723 C   0  0  0  0  0  0  0  0  0  0  0  0
  -22.3562  -31.5251   21.5478 C   0  0  0  0  0  0  0  0  0  0  0  0
  -29.7658  -20.9291   16.2483 C   0  0  0  0  0  0  0  0  0  0  0  0
  -27.7251  -20.3536   14.9375 C   0  0  0  0  0  0  0  0  0  0  0  0
  -28.5781  -22.6982   14.9282 C   0  0  0  0  0  0  0  0  0  0  0  0
  -19.6023  -25.3235   22.4574 C   0  0  0  0  0  0  0  0  0  0  0  0
  -29.1294  -18.2869   21.0812 C   0  0  0  0  0  0  0  0  0  0  0  0
  -28.8172  -19.4609   20.1512 C   0  0  0  0  0  0  0  0  0  0  0  0
  -30.6229  -17.9606   21.0838 C   0  0  0  0  0  0  0  0  0  0  0  0
  -27.3168  -19.7667   20.1274 C   0  0  0  0  0  0  0  0  0  0  0  0
  -30.9282  -16.7670   21.9808 C   0  0  0  0  0  0  0  0  0  0  0  0
  -26.9769  -20.9124   19.1817 C   0  0  0  0  0  0  0  0  0  0  0  0
  -26.0652  -22.2089   16.7177 C   0  0  0  0  0  0  0  0  0  1  0  0
  -22.6394  -29.0469   21.1354 C   0  0  1  0  0  0  0  0  0  0  0  0
  -20.4034  -27.3479   23.6817 C   0  0  2  0  0  0  0  0  0  0  0  0
  -27.4873  -21.7482   17.0454 C   0  0  2  0  0  0  0  0  0  0  0  0
  -23.3786  -30.3696   21.4837 C   0  0  0  0  0  0  0  0  0  0  0  0
  -28.3842  -21.4474   15.8058 C   0  0  0  0  0  0  0  0  0  0  0  0
  -25.8009  -11.6149   20.2785 N   0  0  0  0  0  0  0  0  0  0  0  0
  -26.2013  -12.8956   20.2038 N   0  0  0  0  0  0  0  0  0  0  0  0
  -22.4223  -28.1370   18.8444 N   0  0  0  0  0  0  0  0  0  0  0  0
  -29.9591  -13.5868   20.3059 N   0  0  0  0  0  0  0  0  0  0  0  0
  -25.4952  -15.1215   20.6001 N   0  0  0  0  0  0  0  0  0  0  0  0
  -21.9042  -12.6600   21.8007 N   0  0  0  0  0  0  0  0  0  0  0  0
  -22.6487  -30.2111   16.1955 N   0  0  0  0  0  0  0  0  0  0  0  0
  -21.5873  -28.6841   22.0788 N   0  0  0  0  0  0  0  0  0  0  0  0
  -30.2212  -15.5822   21.5482 N   0  0  0  0  0  0  0  0  0  0  0  0
  -19.9739  -25.9233   23.7648 N   0  3  0  0  0  0  0  0  0  0  0  0
  -22.7164  -14.7955   21.6044 O   0  0  0  0  0  0  0  0  0  0  0  0
  -24.1751  -28.5043   16.6189 O   0  0  0  0  0  0  0  0  0  0  0  0
  -21.1219  -29.9405   19.5463 O   0  0  0  0  0  0  0  0  0  0  0  0
  -22.4651  -26.6168   22.6560 O   0  0  0  0  0  0  0  0  0  0  0  0
  -31.8877  -14.8647   20.1465 O   0  0  0  0  0  0  0  0  0  0  0  0
  -21.5105   -7.1058   21.6238 O   0  0  0  0  0  0  0  0  0  0  0  0
  -25.5405  -22.9091   17.8449 O   0  0  0  0  0  0  0  0  0  1  0  0
  -27.3561  -20.5759   17.8584 O   0  0  0  0  0  0  0  0  0  0  0  0
  -23.9580   -2.8561   24.1443 F   0  0  0  0  0  0  0  0  0  0  0  0
  -20.5387   -6.1269   24.0196 F   0  0  0  0  0  0  0  0  0  0  0  0
  1  2  1  0  0  0  0
  1  5  2  0  0  0  0
  2  6  2  0  0  0  0
  3  8  2  0  0  0  0
  3 15  1  0  0  0  0
  4  9  1  0  0  0  0
  4 15  2  0  0  0  0
  5 17  1  0  0  0  0
  6 19  1  0  0  0  0
  7 10  2  0  0  0  0
  7 18  1  0  0  0  0
  8 21  1  0  0  0  0
  9 21  2  0  0  0  0
 10 22  1  0  0  0  0
 11 12  2  0  0  0  0
 11 23  1  0  0  0  0
 12 24  1  0  0  0  0
 13 20  1  0  0  0  0
 13 22  2  0  0  0  0
 14 24  2  0  0  0  0
 14 25  1  0  0  0  0
 15 26  1  0  0  0  0
 16 26  1  0  0  0  0
 16 27  2  0  0  0  0
 16 28  1  0  0  0  0
 17 19  2  0  0  0  0
 17 33  1  0  0  0  0
 18 20  2  0  0  0  0
 18 34  1  0  0  0  0
 19 42  1  0  0  0  0
 20 35  1  0  0  0  0
 21 80  1  0  0  0  0
 22 81  1  0  0  0  0
 23 25  2  0  0  0  0
 23 80  1  0  0  0  0
 24 83  1  0  0  0  0
 25 84  1  0  0  0  0
 26 65  2  0  0  0  0
 27 66  1  0  0  0  0
 27 69  1  0  0  0  0
 28 70  1  0  0  0  0
 28 75  2  0  0  0  0
 29 43  1  0  0  0  0
 29 71  1  0  0  0  0
 29 76  2  0  0  0  0
 30 60  1  0  0  0  0
 30 67  1  0  0  0  0
 30 77  2  0  0  0  0
 31 61  1  0  0  0  0
 31 72  1  0  0  0  0
 31 78  2  0  0  0  0
 32 68  1  0  0  0  0
 32 73  1  0  0  0  0
 32 79  2  0  0  0  0
 33 36  1  0  0  0  0
 34 43  1  0  0  0  0
 35 67  1  0  0  0  0
 36 38  1  0  0  0  0
 37 39  1  0  0  0  0
 37 40  1  0  0  0  0
 38 42  1  0  0  0  0
 39 44  1  0  0  0  0
 40 68  1  0  0  0  0
 41 44  1  0  0  0  0
 41 68  1  0  0  0  0
 42 71  1  0  0  0  0
 43 67  1  0  0  0  0
 44 66  1  0  0  0  0
 45 61  1  0  0  0  0
 46 63  1  0  0  0  0
 47 63  1  0  0  0  0
 48 63  1  0  0  0  0
 49 64  1  0  0  0  0
 50 64  1  0  0  0  0
 51 64  1  0  0  0  0
 52 74  1  0  0  0  0
 53 54  1  0  0  0  0
 53 55  1  0  0  0  0
 54 56  1  0  0  0  0
 55 57  1  0  0  0  0
 56 58  1  0  0  0  0
 57 73  1  0  0  0  0
 58 82  1  0  0  0  0
 59 62  1  0  0  0  0
 59 81  1  0  0  0  0
 60 63  1  0  0  0  0
 60 72  1  0  0  0  0
 61 74  1  0  0  0  0
 62 64  1  0  0  0  0
 62 82  1  0  0  0  0
 65 66  1  0  0  0  0
M  CHG  1  74   1
M  ISO  4  32 100  59 101  73 100  81 101
M  END
> <Batch ID>
0043

> <Smiles>
CNC(C)C(=O)NC(C(=O)N1Cc2cc([101O:1][101CH2:1]C(OCCCCCC[100NH:0][100C:0](=O)N3CCCC(n4nc(-c5ccc(Oc6ccc(F)cc6F)cc5)c(C(N)=O)c4N)C3)C(C)(C)C)ccc2CC1C(=O)NC1CCCc2ccccc21)C(C)(C)C

> <Shape>
0.276

> <Color>
0.206

> <Negative vol penalty>
0.000

$$$$

  -OEChem-04052317143D

 83 91  0     1  0  0  0  0  0999 V2000
  -26.7000  -27.6995   21.3495 C   0  0  0  0  0  0  0  0  0  0  0  0
  -27.7352  -27.1251   22.0803 C   0  0  0  0  0  0  0  0  0  0  0  0
  -23.0764   -9.8362   19.9697 C   0  0  0  0  0  0  0  0  0  0  0  0
  -23.8256   -9.8939   22.2659 C   0  0  0  0  0  0  0  0  0  0  0  0
  -26.0231  -26.9461   20.3914 C   0  0  0  0  0  0  0  0  0  0  0  0
  -28.0933  -25.7966   21.8540 C   0  0  0  0  0  0  0  0  0  0  0  0
  -33.7209  -23.3990   22.1497 C   0  0  0  0  0  0  0  0  0  0  0  0
  -22.3356   -8.6857   20.2403 C   0  0  0  0  0  0  0  0  0  0  0  0
  -23.0847   -8.7435   22.5365 C   0  0  0  0  0  0  0  0  0  0  0  0
  -34.3860  -22.6874   23.1472 C   0  0  0  0  0  0  0  0  0  0  0  0
  -22.9186   -5.3762   20.6031 C   0  0  0  0  0  0  0  0  0  0  0  0
  -22.9936   -4.3275   19.6865 C   0  0  0  0  0  0  0  0  0  0  0  0
  -33.7571  -20.6169   22.0809 C   0  0  0  0  0  0  0  0  0  0  0  0
  -20.6101   -4.4770   19.3206 C   0  0  0  0  0  0  0  0  0  0  0  0
  -23.8215  -10.4403   20.9825 C   0  0  0  0  0  0  0  0  0  0  0  0
  -24.1547  -12.9636   20.8112 C   0  0  0  0  0  0  0  0  0  0  0  0
  -26.3794  -25.6106   20.1465 C   0  0  0  0  0  0  0  0  0  0  0  0
  -33.0585  -22.7236   21.1147 C   0  0  0  0  0  0  0  0  0  0  0  0
  -27.4196  -25.0242   20.8926 C   0  0  0  0  0  0  0  0  0  0  0  0
  -33.0864  -21.3224   21.0702 C   0  0  0  0  0  0  0  0  0  0  0  0
  -22.3397   -8.1394   21.5237 C   0  0  0  0  0  0  0  0  0  0  0  0
  -34.4017  -21.2960   23.1145 C   0  0  0  0  0  0  0  0  0  0  0  0
  -21.6894   -5.9753   20.8785 C   0  0  0  0  0  0  0  0  0  0  0  0
  -21.8393   -3.8779   19.0452 C   0  0  0  0  0  0  0  0  0  0  0  0
  -20.5352   -5.5258   20.2372 C   0  0  0  0  0  0  0  0  0  0  0  0
  -24.5874  -11.6284   20.7034 C   0  0  0  0  0  0  0  0  0  0  0  0
  -32.5557  -19.5292   26.7943 C   0  0  0  0  0  0  0  0  0  0  0  0
  -33.8422  -19.2612   26.3756 C   0  0  0  0  0  0  0  0  0  0  0  0
  -25.2458  -13.7094   20.4374 C   0  0  0  0  0  0  0  0  0  0  0  0
  -32.2284  -17.5145   25.9919 C   0  0  0  0  0  0  0  0  0  0  0  0
  -22.8804  -13.4833   21.2135 C   0  0  0  0  0  0  0  0  0  0  0  0
  -30.0428  -22.5372   20.1273 C   0  0  0  0  0  0  0  0  0  0  0  0
  -31.3534  -20.8371   17.6953 C   0  0  0  0  0  0  0  0  0  0  0  0
  -33.9335  -18.9069   16.5706 C   0  0  0  0  0  0  0  0  0  0  0  0
  -30.7248  -14.7526   20.6294 C   0  0  0  0  0  0  0  0  0  0  0  0
  -25.5874  -24.8219   19.1339 C   0  0  0  0  0  0  0  0  0  0  0  0
  -32.3682  -23.5064   20.0316 C   0  0  0  0  0  0  0  0  0  0  0  0
  -32.4079  -20.5502   19.9694 C   0  0  0  0  0  0  0  0  0  0  0  0
  -26.2761  -23.5333   18.6916 C   0  0  0  0  0  0  0  0  0  0  0  0
  -29.6070  -12.3146   18.2879 C   0  0  0  0  0  0  0  0  0  0  0  0
  -26.8060  -22.7691   19.9007 C   0  0  0  0  0  0  0  0  0  0  0  0
  -28.1686  -12.0246   18.7203 C   0  0  0  0  0  0  0  0  0  0  0  0
  -30.5177  -12.5638   19.4880 C   0  0  0  0  0  0  0  0  0  0  0  0
  -28.6069  -13.3166   20.8504 C   0  0  0  0  0  0  0  0  0  0  0  0
  -27.8536  -23.5935   20.6586 C   0  0  1  0  0  0  0  0  0  0  0  0
  -31.2913  -22.7039   19.3080 C   0  0  1  0  0  0  0  0  0  0  0  0
  -27.6389  -13.1138   19.6722 C   0  0  2  0  0  0  0  0  0  0  0  0
  -32.0942  -20.7741   27.4421 C   0  0  0  0  0  0  0  0  0  0  0  0
  -34.7048  -17.6313   14.5519 C   0  0  0  0  0  0  0  0  0  0  0  0
  -29.3617  -18.6173   18.3399 C   0  0  0  0  0  0  0  0  0  0  0  0
  -30.7682  -17.0556   16.9795 C   0  0  0  0  0  0  0  0  0  0  0  0
  -29.7036  -19.0354   15.8981 C   0  0  0  0  0  0  0  0  0  0  0  0
  -36.3620  -20.5766   16.2998 C   0  0  0  0  0  0  0  0  0  0  0  0
  -35.0868  -20.1118   26.4522 C   0  0  0  0  0  0  0  0  0  0  0  0
  -31.5550  -16.2575   25.5989 C   0  0  0  0  0  0  0  0  0  0  0  0
  -30.7229  -16.4074   24.3101 C   0  0  0  0  0  0  0  0  0  0  0  0
  -31.5881  -16.7904   23.1057 C   0  0  0  0  0  0  0  0  0  0  0  0
  -30.7771  -16.9288   21.8214 C   0  0  0  0  0  0  0  0  0  0  0  0
  -35.1144  -21.1968   25.3813 C   0  0  0  0  0  0  0  0  0  1  0  0
  -31.6647  -19.3794   17.4561 C   0  0  1  0  0  0  0  0  0  0  0  0
  -34.7475  -18.9601   15.2904 C   0  0  2  0  0  0  0  0  0  0  0  0
  -30.3858  -18.5361   17.1903 C   0  0  0  0  0  0  0  0  0  0  0  0
  -25.8545  -11.5285   20.2930 N   0  0  0  0  0  0  0  0  0  0  0  0
  -31.6289  -18.5289   26.5748 N   0  0  0  0  0  0  0  0  0  0  0  0
  -26.2274  -12.8105   20.1396 N   0  0  0  0  0  0  0  0  0  0  0  0
  -31.7410  -21.3606   18.9369 N   0  0  0  0  0  0  0  0  0  0  0  0
  -29.9593  -13.6086   20.3498 N   0  0  0  0  0  0  0  0  0  0  0  0
  -25.4517  -15.0398   20.3375 N   0  0  0  0  0  0  0  0  0  0  0  0
  -21.8702  -12.5776   21.5651 N   0  0  0  0  0  0  0  0  0  0  0  0
  -29.1238  -23.5564   19.9659 N   0  0  0  0  0  0  0  0  0  0  0  0
  -32.6405  -19.3429   16.3721 N   0  0  0  0  0  0  0  0  0  0  0  0
  -30.1184  -15.6966   21.4491 N   0  0  0  0  0  0  0  0  0  0  0  0
  -36.1702  -19.2834   15.5942 N   0  3  0  0  0  0  0  0  0  0  0  0
  -22.6394  -14.7140   21.2440 O   0  0  0  0  0  0  0  0  0  0  0  0
  -29.9216  -21.5557   20.8510 O   0  0  0  0  0  0  0  0  0  0  0  0
  -30.7936  -21.4890   16.8103 O   0  0  0  0  0  0  0  0  0  0  0  0
  -34.3971  -18.5142   17.6390 O   0  0  0  0  0  0  0  0  0  0  0  0
  -31.8622  -14.9228   20.1774 O   0  0  0  0  0  0  0  0  0  0  0  0
  -21.6167   -7.0169   21.7882 O   0  0  0  0  0  0  0  0  0  0  0  0
  -35.0497  -20.5989   24.0872 O   0  0  0  0  0  0  0  0  0  1  0  0
  -21.9117   -2.8719   18.1639 F   0  0  0  0  0  0  0  0  0  0  0  0
  -19.3516   -6.0982   20.4968 F   0  0  0  0  0  0  0  0  0  0  0  0
  -33.9060  -17.6954   25.6789 S   0  0  0  0  0  0  0  0  0  0  0  0
  1  2  1  0  0  0  0
  1  5  2  0  0  0  0
  2  6  2  0  0  0  0
  3  8  2  0  0  0  0
  3 15  1  0  0  0  0
  4  9  1  0  0  0  0
  4 15  2  0  0  0  0
  5 17  1  0  0  0  0
  6 19  1  0  0  0  0
  7 10  2  0  0  0  0
  7 18  1  0  0  0  0
  8 21  1  0  0  0  0
  9 21  2  0  0  0  0
 10 22  1  0  0  0  0
 11 12  2  0  0  0  0
 11 23  1  0  0  0  0
 12 24  1  0  0  0  0
 13 20  1  0  0  0  0
 13 22  2  0  0  0  0
 14 24  2  0  0  0  0
 14 25  1  0  0  0  0
 15 26  1  0  0  0  0
 16 26  1  0  0  0  0
 16 29  2  0  0  0  0
 16 31  1  0  0  0  0
 17 19  2  0  0  0  0
 17 36  1  0  0  0  0
 18 20  2  0  0  0  0
 18 37  1  0  0  0  0
 19 45  1  0  0  0  0
 20 38  1  0  0  0  0
 21 79  1  0  0  0  0
 22 80  1  0  0  0  0
 23 25  2  0  0  0  0
 23 79  1  0  0  0  0
 24 81  1  0  0  0  0
 25 82  1  0  0  0  0
 26 63  2  0  0  0  0
 27 28  2  0  0  0  0
 27 48  1  0  0  0  0
 27 64  1  0  0  0  0
 28 54  1  0  0  0  0
 28 83  1  0  0  0  0
 29 65  1  0  0  0  0
 29 68  1  0  0  0  0
 30 55  1  0  0  0  0
 30 64  2  0  0  0  0
 30 83  1  0  0  0  0
 31 69  1  0  0  0  0
 31 74  2  0  0  0  0
 32 46  1  0  0  0  0
 32 70  1  0  0  0  0
 32 75  2  0  0  0  0
 33 60  1  0  0  0  0
 33 66  1  0  0  0  0
 33 76  2  0  0  0  0
 34 61  1  0  0  0  0
 34 71  1  0  0  0  0
 34 77  2  0  0  0  0
 35 67  1  0  0  0  0
 35 72  1  0  0  0  0
 35 78  2  0  0  0  0
 36 39  1  0  0  0  0
 37 46  1  0  0  0  0
 38 66  1  0  0  0  0
 39 41  1  0  0  0  0
 40 42  1  0  0  0  0
 40 43  1  0  0  0  0
 41 45  1  0  0  0  0
 42 47  1  0  0  0  0
 43 67  1  0  0  0  0
 44 47  1  0  0  0  0
 44 67  1  0  0  0  0
 45 70  1  0  0  0  0
 46 66  1  0  0  0  0
 47 65  1  0  0  0  0
 49 61  1  0  0  0  0
 50 62  1  0  0  0  0
 51 62  1  0  0  0  0
 52 62  1  0  0  0  0
 53 73  1  0  0  0  0
 54 59  1  0  0  0  0
 55 56  1  0  0  0  0
 56 57  1  0  0  0  0
 57 58  1  0  0  0  0
 58 72  1  0  0  0  0
 59 80  1  0  0  0  0
 60 62  1  0  0  0  0
 60 71  1  0  0  0  0
 61 73  1  0  0  0  0
 63 65  1  0  0  0  0
M  CHG  1  73   1
M  ISO  4  35 100  59 101  72 100  80 101
M  END
> <Batch ID>
0043

> <Smiles>
CNC(C)C(=O)NC(C(=O)N1Cc2cc([101O:1][101CH2:1]Cc3sc(CCCC[100NH:0][100C:0](=O)N4CCCC(n5nc(-c6ccc(Oc7ccc(F)cc7F)cc6)c(C(N)=O)c5N)C4)nc3C)ccc2CC1C(=O)NC1CCCc2ccccc21)C(C)(C)C

> <Shape>
0.206

> <Color>
0.197

> <Negative vol penalty>
0.000

$$$$

  -OEChem-04052317143D

 82 90  0     1  0  0  0  0  0999 V2000
  -32.0382  -16.1897   21.1241 C   0  0  0  0  0  0  0  0  0  0  0  0
  -30.9736  -17.0835   21.1804 C   0  0  0  0  0  0  0  0  0  0  0  0
  -28.7857  -26.0140   20.1600 C   0  0  0  0  0  0  0  0  0  0  0  0
  -26.8611  -25.5739   18.7675 C   0  0  0  0  0  0  0  0  0  0  0  0
  -31.8233  -14.8768   20.7068 C   0  0  0  0  0  0  0  0  0  0  0  0
  -29.6936  -16.6651   20.8182 C   0  0  0  0  0  0  0  0  0  0  0  0
  -24.3902  -18.4936   23.2752 C   0  0  0  0  0  0  0  0  0  0  0  0
  -29.3080  -24.7625   19.8337 C   0  0  0  0  0  0  0  0  0  0  0  0
  -27.3834  -24.3224   18.4410 C   0  0  0  0  0  0  0  0  0  0  0  0
  -23.4467  -19.4382   22.8736 C   0  0  0  0  0  0  0  0  0  0  0  0
  -28.0359  -20.8663   17.5250 C   0  0  0  0  0  0  0  0  0  0  0  0
  -27.1682  -19.7745   17.5518 C   0  0  0  0  0  0  0  0  0  0  0  0
  -22.1515  -17.6916   21.8293 C   0  0  0  0  0  0  0  0  0  0  0  0
  -26.7389  -20.1732   19.8957 C   0  0  0  0  0  0  0  0  0  0  0  0
  -20.1633  -23.3050   22.3166 C   0  0  0  0  0  0  0  0  0  0  0  0
  -18.8801  -22.5362   20.0867 C   0  0  0  0  0  0  0  0  0  0  0  0
  -27.5622  -26.4197   19.6270 C   0  0  0  0  0  0  0  0  0  0  0  0
  -27.2355  -28.9264   19.2848 C   0  0  0  0  0  0  0  0  0  0  0  0
  -30.5384  -14.4395   20.3486 C   0  0  0  0  0  0  0  0  0  0  0  0
  -24.2267  -17.1402   22.9469 C   0  0  0  0  0  0  0  0  0  0  0  0
  -29.4616  -15.3456   20.3945 C   0  0  0  0  0  0  0  0  0  0  0  0
  -23.0931  -16.7314   22.2301 C   0  0  0  0  0  0  0  0  0  0  0  0
  -28.6069  -23.9167   18.9741 C   0  0  0  0  0  0  0  0  0  0  0  0
  -22.3286  -19.0377   22.1481 C   0  0  0  0  0  0  0  0  0  0  0  0
  -28.2552  -21.6115   18.6836 C   0  0  0  0  0  0  0  0  0  0  0  0
  -26.5196  -19.4280   18.7371 C   0  0  0  0  0  0  0  0  0  0  0  0
  -27.6067  -21.2649   19.8689 C   0  0  0  0  0  0  0  0  0  0  0  0
  -27.0218  -27.7121   19.9642 C   0  0  0  0  0  0  0  0  0  0  0  0
  -19.1102  -24.0244   21.7895 C   0  0  0  0  0  0  0  0  0  0  0  0
  -20.5137  -22.1646   21.6230 C   0  0  0  0  0  0  0  0  0  0  0  0
  -26.5089  -29.8501   19.9957 C   0  0  0  0  0  0  0  0  0  0  0  0
  -28.0206  -29.1955   18.1156 C   0  0  0  0  0  0  0  0  0  0  0  0
  -25.8763  -15.0330   21.2316 C   0  0  0  0  0  0  0  0  0  0  0  0
  -23.6690  -12.9534   22.3830 C   0  0  0  0  0  0  0  0  0  0  0  0
  -20.5443  -12.4597   23.6632 C   0  0  0  0  0  0  0  0  0  0  0  0
  -21.7141  -29.4027   23.5539 C   0  0  0  0  0  0  0  0  0  0  0  0
  -30.3636  -13.0239   19.8586 C   0  0  0  0  0  0  0  0  0  0  0  0
  -25.2400  -16.1299   23.4106 C   0  0  0  0  0  0  0  0  0  0  0  0
  -22.8606  -15.2876   21.8697 C   0  0  0  0  0  0  0  0  0  0  0  0
  -28.9102  -12.5573   19.8502 C   0  0  0  0  0  0  0  0  0  0  0  0
  -24.8959  -30.7527   24.4087 C   0  0  0  0  0  0  0  0  0  0  0  0
  -28.0119  -13.6200   19.2254 C   0  0  0  0  0  0  0  0  0  0  0  0
  -25.8208  -30.2361   23.3053 C   0  0  0  0  0  0  0  0  0  0  0  0
  -23.8383  -29.7187   24.7887 C   0  0  0  0  0  0  0  0  0  0  0  0
  -23.9689  -28.6847   22.5553 C   0  0  0  0  0  0  0  0  0  0  0  0
  -28.0542  -14.9226   20.0334 C   0  0  1  0  0  0  0  0  0  0  0  0
  -25.2337  -14.8517   22.5776 C   0  0  1  0  0  0  0  0  0  0  0  0
  -25.0174  -29.7136   22.0991 C   0  0  2  0  0  0  0  0  0  0  0  0
  -19.0114  -10.6455   24.4733 C   0  0  0  0  0  0  0  0  0  0  0  0
  -23.1219  -12.1302   19.4964 C   0  0  0  0  0  0  0  0  0  0  0  0
  -20.9939  -11.0667   20.2764 C   0  0  0  0  0  0  0  0  0  0  0  0
  -23.1865  -10.2353   21.1272 C   0  0  0  0  0  0  0  0  0  0  0  0
  -20.3988  -13.6339   26.3760 C   0  0  0  0  0  0  0  0  0  0  0  0
  -18.6581  -25.2728   22.4702 C   0  0  0  0  0  0  0  0  0  0  0  0
  -21.6475  -21.3161   22.1189 C   0  0  0  0  0  0  0  0  0  1  0  0
  -19.3933  -26.5174   21.9494 C   0  0  0  0  0  0  0  0  0  0  0  0
  -18.9471  -27.7864   22.6817 C   0  0  0  0  0  0  0  0  0  0  0  0
  -19.6741  -29.0337   22.1896 C   0  0  0  0  0  0  0  0  0  0  0  0
  -22.3142  -12.4702   21.9249 C   0  0  1  0  0  0  0  0  0  0  0  0
  -20.0622  -11.6716   24.8678 C   0  0  2  0  0  0  0  0  0  0  0  0
  -22.4092  -11.5031   20.7112 C   0  0  0  0  0  0  0  0  0  0  0  0
  -18.4436  -23.6677   20.6721 N   0  0  0  0  0  0  0  0  0  0  0  0
  -19.8914  -21.7489   20.5004 N   0  0  0  0  0  0  0  0  0  0  0  0
  -26.2222  -27.8487   21.0253 N   0  0  0  0  0  0  0  0  0  0  0  0
  -25.9271  -29.1598   21.0181 N   0  0  0  0  0  0  0  0  0  0  0  0
  -23.8830  -14.3384   22.3403 N   0  0  0  0  0  0  0  0  0  0  0  0
  -23.1113  -29.2653   23.6004 N   0  0  0  0  0  0  0  0  0  0  0  0
  -26.3174  -31.1773   19.8399 N   0  0  0  0  0  0  0  0  0  0  0  0
  -28.7031  -28.1317   17.5098 N   0  0  0  0  0  0  0  0  0  0  0  0
  -27.2393  -14.8057   21.2237 N   0  0  0  0  0  0  0  0  0  0  0  0
  -21.6680  -11.8938   23.0990 N   0  0  0  0  0  0  0  0  0  0  0  0
  -21.1040  -28.9538   22.3890 N   0  0  0  0  0  0  0  0  0  0  0  0
  -19.4673  -12.5875   25.8818 N   0  3  0  0  0  0  0  0  0  0  0  0
  -28.1273  -30.3481   17.6323 O   0  0  0  0  0  0  0  0  0  0  0  0
  -25.1864  -15.3537   20.2710 O   0  0  0  0  0  0  0  0  0  0  0  0
  -24.5042  -12.1329   22.7715 O   0  0  0  0  0  0  0  0  0  0  0  0
  -19.9783  -13.4737   23.2607 O   0  0  0  0  0  0  0  0  0  0  0  0
  -21.0595  -29.8941   24.4796 O   0  0  0  0  0  0  0  0  0  0  0  0
  -29.1164  -22.6955   18.6553 O   0  0  0  0  0  0  0  0  0  0  0  0
  -21.4064  -19.9577   21.7543 O   0  0  0  0  0  0  0  0  0  1  0  0
  -25.6852  -18.3805   18.7623 F   0  0  0  0  0  0  0  0  0  0  0  0
  -27.8124  -21.9778   20.9849 F   0  0  0  0  0  0  0  0  0  0  0  0
  1  2  1  0  0  0  0
  1  5  2  0  0  0  0
  2  6  2  0  0  0  0
  3  8  2  0  0  0  0
  3 17  1  0  0  0  0
  4  9  1  0  0  0  0
  4 17  2  0  0  0  0
  5 19  1  0  0  0  0
  6 21  1  0  0  0  0
  7 10  2  0  0  0  0
  7 20  1  0  0  0  0
  8 23  1  0  0  0  0
  9 23  2  0  0  0  0
 10 24  1  0  0  0  0
 11 12  2  0  0  0  0
 11 25  1  0  0  0  0
 12 26  1  0  0  0  0
 13 22  1  0  0  0  0
 13 24  2  0  0  0  0
 14 26  2  0  0  0  0
 14 27  1  0  0  0  0
 15 29  2  0  0  0  0
 15 30  1  0  0  0  0
 16 62  2  0  0  0  0
 16 63  1  0  0  0  0
 17 28  1  0  0  0  0
 18 28  1  0  0  0  0
 18 31  2  0  0  0  0
 18 32  1  0  0  0  0
 19 21  2  0  0  0  0
 19 37  1  0  0  0  0
 20 22  2  0  0  0  0
 20 38  1  0  0  0  0
 21 46  1  0  0  0  0
 22 39  1  0  0  0  0
 23 79  1  0  0  0  0
 24 80  1  0  0  0  0
 25 27  2  0  0  0  0
 25 79  1  0  0  0  0
 26 81  1  0  0  0  0
 27 82  1  0  0  0  0
 28 64  2  0  0  0  0
 29 54  1  0  0  0  0
 29 62  1  0  0  0  0
 30 55  1  0  0  0  0
 30 63  2  0  0  0  0
 31 65  1  0  0  0  0
 31 68  1  0  0  0  0
 32 69  1  0  0  0  0
 32 74  2  0  0  0  0
 33 47  1  0  0  0  0
 33 70  1  0  0  0  0
 33 75  2  0  0  0  0
 34 59  1  0  0  0  0
 34 66  1  0  0  0  0
 34 76  2  0  0  0  0
 35 60  1  0  0  0  0
 35 71  1  0  0  0  0
 35 77  2  0  0  0  0
 36 67  1  0  0  0  0
 36 72  1  0  0  0  0
 36 78  2  0  0  0  0
 37 40  1  0  0  0  0
 38 47  1  0  0  0  0
 39 66  1  0  0  0  0
 40 42  1  0  0  0  0
 41 43  1  0  0  0  0
 41 44  1  0  0  0  0
 42 46  1  0  0  0  0
 43 48  1  0  0  0  0
 44 67  1  0  0  0  0
 45 48  1  0  0  0  0
 45 67  1  0  0  0  0
 46 70  1  0  0  0  0
 47 66  1  0  0  0  0
 48 65  1  0  0  0  0
 49 60  1  0  0  0  0
 50 61  1  0  0  0  0
 51 61  1  0  0  0  0
 52 61  1  0  0  0  0
 53 73  1  0  0  0  0
 54 56  1  0  0  0  0
 55 80  1  0  0  0  0
 56 57  1  0  0  0  0
 57 58  1  0  0  0  0
 58 72  1  0  0  0  0
 59 61  1  0  0  0  0
 59 71  1  0  0  0  0
 60 73  1  0  0  0  0
 64 65  1  0  0  0  0
M  CHG  1  73   1
M  ISO  4  36 100  55 101  72 100  80 101
M  END
> <Batch ID>
0043

> <Smiles>
CNC(C)C(=O)NC(C(=O)N1Cc2cc([101O:1][101CH2:1]c3cc(CCCC[100NH:0][100C:0](=O)N4CCCC(n5nc(-c6ccc(Oc7ccc(F)cc7F)cc6)c(C(N)=O)c5N)C4)ncn3)ccc2CC1C(=O)NC1CCCc2ccccc21)C(C)(C)C

> <Shape>
0.234

> <Color>
0.066

> <Negative vol penalty>
0.000

$$$$

  -OEChem-04052317143D

 85 93  0     1  0  0  0  0  0999 V2000
  -20.1040  -27.1512   17.2709 C   0  0  0  0  0  0  0  0  0  0  0  0
  -19.5263  -25.8938   17.1273 C   0  0  0  0  0  0  0  0  0  0  0  0
  -28.2041  -26.6733   19.0763 C   0  0  0  0  0  0  0  0  0  0  0  0
  -29.1163  -26.0668   21.2297 C   0  0  0  0  0  0  0  0  0  0  0  0
  -21.3876  -27.2708   17.8019 C   0  0  0  0  0  0  0  0  0  0  0  0
  -20.2323  -24.7551   17.5136 C   0  0  0  0  0  0  0  0  0  0  0  0
  -19.2123  -18.2168   20.2569 C   0  0  0  0  0  0  0  0  0  0  0  0
  -27.7132  -27.8609   19.6187 C   0  0  0  0  0  0  0  0  0  0  0  0
  -28.6255  -27.2544   21.7722 C   0  0  0  0  0  0  0  0  0  0  0  0
  -19.5261  -16.8820   20.0048 C   0  0  0  0  0  0  0  0  0  0  0  0
  -25.0858  -28.8371   21.5077 C   0  0  0  0  0  0  0  0  0  0  0  0
  -23.7795  -29.2047   21.1852 C   0  0  0  0  0  0  0  0  0  0  0  0
  -21.7056  -17.2157   20.9833 C   0  0  0  0  0  0  0  0  0  0  0  0
  -24.5993  -31.2524   20.1992 C   0  0  0  0  0  0  0  0  0  0  0  0
  -28.9056  -25.7762   19.8818 C   0  0  0  0  0  0  0  0  0  0  0  0
  -30.6727  -24.3413   18.7302 C   0  0  0  0  0  0  0  0  0  0  0  0
  -22.1060  -26.1337   18.2039 C   0  0  0  0  0  0  0  0  0  0  0  0
  -20.1484  -19.0653   20.8653 C   0  0  0  0  0  0  0  0  0  0  0  0
  -21.5273  -24.8595   18.0492 C   0  0  0  0  0  0  0  0  0  0  0  0
  -21.4003  -18.5602   21.2444 C   0  0  0  0  0  0  0  0  0  0  0  0
  -25.1151  -12.8856   22.1068 C   0  0  0  0  0  0  0  0  0  0  0  0
  -27.9239  -28.1515   20.9666 C   0  0  0  0  0  0  0  0  0  0  0  0
  -20.7739  -16.3820   20.3653 C   0  0  0  0  0  0  0  0  0  0  0  0
  -26.1489  -29.6772   21.1760 C   0  0  0  0  0  0  0  0  0  0  0  0
  -23.5362  -30.4124   20.5310 C   0  0  0  0  0  0  0  0  0  0  0  0
  -25.9056  -30.8848   20.5218 C   0  0  0  0  0  0  0  0  0  0  0  0
  -29.4125  -24.5490   19.3223 C   0  0  0  0  0  0  0  0  0  0  0  0
  -26.1998  -12.4636   21.3149 C   0  0  0  0  0  0  0  0  0  0  0  0
  -24.0395  -12.1859   21.6167 C   0  0  0  0  0  0  0  0  0  0  0  0
  -30.6651  -23.0182   18.3617 C   0  0  0  0  0  0  0  0  0  0  0  0
  -31.7535  -25.2621   18.5311 C   0  0  0  0  0  0  0  0  0  0  0  0
  -21.6594  -21.7249   20.0011 C   0  0  0  0  0  0  0  0  0  0  0  0
  -22.7212  -21.6534   23.0654 C   0  0  0  0  0  0  0  0  0  0  0  0
  -23.3892  -19.8086   25.8578 C   0  0  0  0  0  0  0  0  0  0  0  0
  -29.6725  -17.7631   19.5215 C   0  0  0  0  0  0  0  0  0  0  0  0
  -23.5090  -26.3094   18.7286 C   0  0  0  0  0  0  0  0  0  0  0  0
  -19.7848  -20.4958   21.1547 C   0  0  0  0  0  0  0  0  0  0  0  0
  -22.4331  -19.4247   21.9186 C   0  0  0  0  0  0  0  0  0  0  0  0
  -24.0434  -25.0816   19.4616 C   0  0  0  0  0  0  0  0  0  0  0  0
  -26.8833  -19.6615   18.2123 C   0  0  0  0  0  0  0  0  0  0  0  0
  -23.7597  -23.8156   18.6594 C   0  0  0  0  0  0  0  0  0  0  0  0
  -27.4048  -21.0941   18.3381 C   0  0  0  0  0  0  0  0  0  0  0  0
  -27.3293  -18.8051   19.3938 C   0  0  0  0  0  0  0  0  0  0  0  0
  -29.3263  -20.2076   19.7387 C   0  0  0  0  0  0  0  0  0  0  0  0
  -22.2518  -23.6026   18.4798 C   0  0  1  0  0  0  0  0  0  0  0  0
  -21.0021  -21.4015   21.3130 C   0  0  1  0  0  0  0  0  0  0  0  0
  -28.9283  -21.1182   18.5629 C   0  0  2  0  0  0  0  0  0  0  0  0
  -25.1269  -13.8588   23.2126 C   0  0  0  0  0  0  0  0  0  0  0  0
  -24.2853  -20.0222   28.1921 C   0  0  0  0  0  0  0  0  0  0  0  0
  -25.5562  -21.8568   21.9559 C   0  0  0  0  0  0  0  0  0  0  0  0
  -26.4092  -21.1181   24.1909 C   0  0  0  0  0  0  0  0  0  0  0  0
  -25.1291  -23.2495   23.9887 C   0  0  0  0  0  0  0  0  0  0  0  0
  -23.7795  -10.5021   19.7694 C   0  0  0  0  0  0  0  0  0  0  0  0
  -20.8460  -18.8690   27.0444 C   0  0  0  0  0  0  0  0  0  0  0  0
  -27.6059  -12.8952   21.4045 C   0  0  0  0  0  0  0  0  0  0  0  0
  -22.5874  -12.1791   22.0229 C   0  0  0  0  0  0  0  0  0  0  0  0
  -27.9946  -13.9043   20.3031 C   0  0  0  0  0  0  0  0  0  0  0  0
  -21.6779  -12.9589   21.0709 C   0  0  0  0  0  0  0  0  0  0  0  0
  -29.4686  -14.3128   20.3819 C   0  0  0  0  0  0  0  0  0  0  0  0
  -29.8628  -15.3001   19.2882 C   0  0  0  0  0  0  0  0  0  0  0  0
  -21.9962  -14.4486   21.0165 C   0  0  0  0  0  0  0  0  0  1  0  0
  -23.9093  -21.0457   23.7713 C   0  0  1  0  0  0  0  0  0  0  0  0
  -23.0404  -20.0300   27.3186 C   0  0  2  0  0  0  0  0  0  0  0  0
  -25.2324  -21.8015   23.4623 C   0  0  0  0  0  0  0  0  0  0  0  0
  -28.6590  -23.4461   19.3313 N   0  0  0  0  0  0  0  0  0  0  0  0
  -25.8458  -11.5653   20.3920 N   0  0  0  0  0  0  0  0  0  0  0  0
  -24.5265  -11.4171   20.6009 N   0  0  0  0  0  0  0  0  0  0  0  0
  -29.4480  -22.5328   18.7403 N   0  0  0  0  0  0  0  0  0  0  0  0
  -22.0325  -20.8180   22.1745 N   0  0  0  0  0  0  0  0  0  0  0  0
  -28.7907  -18.8565   19.5415 N   0  0  0  0  0  0  0  0  0  0  0  0
  -31.5807  -22.2343   17.7538 N   0  0  0  0  0  0  0  0  0  0  0  0
  -31.5947  -26.5837   18.9698 N   0  0  0  0  0  0  0  0  0  0  0  0
  -21.6682  -23.0720   19.6932 N   0  0  0  0  0  0  0  0  0  0  0  0
  -23.5635  -21.0011   25.1879 N   0  0  0  0  0  0  0  0  0  0  0  0
  -29.0844  -16.5178   19.3371 N   0  0  0  0  0  0  0  0  0  0  0  0
  -22.1220  -18.9595   27.7998 N   0  3  0  0  0  0  0  0  0  0  0  0
  -32.8220  -24.9271   17.9658 O   0  0  0  0  0  0  0  0  0  0  0  0
  -22.1255  -20.8195   19.3195 O   0  0  0  0  0  0  0  0  0  0  0  0
  -22.4112  -22.8238   23.3014 O   0  0  0  0  0  0  0  0  0  0  0  0
  -23.5000  -18.6897   25.3616 O   0  0  0  0  0  0  0  0  0  0  0  0
  -30.8949  -17.8879   19.6530 O   0  0  0  0  0  0  0  0  0  0  0  0
  -27.4453  -29.3104   21.4962 O   0  0  0  0  0  0  0  0  0  0  0  0
  -21.0830  -15.0796   20.1197 O   0  0  0  0  0  0  0  0  0  1  0  0
  -22.2819  -30.7646   20.2200 F   0  0  0  0  0  0  0  0  0  0  0  0
  -26.9229  -31.6954   20.1995 F   0  0  0  0  0  0  0  0  0  0  0  0
  1  2  1  0  0  0  0
  1  5  2  0  0  0  0
  2  6  2  0  0  0  0
  3  8  2  0  0  0  0
  3 15  1  0  0  0  0
  4  9  1  0  0  0  0
  4 15  2  0  0  0  0
  5 17  1  0  0  0  0
  6 19  1  0  0  0  0
  7 10  2  0  0  0  0
  7 18  1  0  0  0  0
  8 22  1  0  0  0  0
  9 22  2  0  0  0  0
 10 23  1  0  0  0  0
 11 12  2  0  0  0  0
 11 24  1  0  0  0  0
 12 25  1  0  0  0  0
 13 20  1  0  0  0  0
 13 23  2  0  0  0  0
 14 25  2  0  0  0  0
 14 26  1  0  0  0  0
 15 27  1  0  0  0  0
 16 27  1  0  0  0  0
 16 30  2  0  0  0  0
 16 31  1  0  0  0  0
 17 19  2  0  0  0  0
 17 36  1  0  0  0  0
 18 20  2  0  0  0  0
 18 37  1  0  0  0  0
 19 45  1  0  0  0  0
 20 38  1  0  0  0  0
 21 28  1  0  0  0  0
 21 29  2  0  0  0  0
 21 48  1  0  0  0  0
 22 82  1  0  0  0  0
 23 83  1  0  0  0  0
 24 26  2  0  0  0  0
 24 82  1  0  0  0  0
 25 84  1  0  0  0  0
 26 85  1  0  0  0  0
 27 65  2  0  0  0  0
 28 55  1  0  0  0  0
 28 66  2  0  0  0  0
 29 56  1  0  0  0  0
 29 67  1  0  0  0  0
 30 68  1  0  0  0  0
 30 71  1  0  0  0  0
 31 72  1  0  0  0  0
 31 77  2  0  0  0  0
 32 46  1  0  0  0  0
 32 73  1  0  0  0  0
 32 78  2  0  0  0  0
 33 62  1  0  0  0  0
 33 69  1  0  0  0  0
 33 79  2  0  0  0  0
 34 63  1  0  0  0  0
 34 74  1  0  0  0  0
 34 80  2  0  0  0  0
 35 70  1  0  0  0  0
 35 75  1  0  0  0  0
 35 81  2  0  0  0  0
 36 39  1  0  0  0  0
 37 46  1  0  0  0  0
 38 69  1  0  0  0  0
 39 41  1  0  0  0  0
 40 42  1  0  0  0  0
 40 43  1  0  0  0  0
 41 45  1  0  0  0  0
 42 47  1  0  0  0  0
 43 70  1  0  0  0  0
 44 47  1  0  0  0  0
 44 70  1  0  0  0  0
 45 73  1  0  0  0  0
 46 69  1  0  0  0  0
 47 68  1  0  0  0  0
 49 63  1  0  0  0  0
 50 64  1  0  0  0  0
 51 64  1  0  0  0  0
 52 64  1  0  0  0  0
 53 67  1  0  0  0  0
 54 76  1  0  0  0  0
 55 57  1  0  0  0  0
 56 58  1  0  0  0  0
 57 59  1  0  0  0  0
 58 61  1  0  0  0  0
 59 60  1  0  0  0  0
 60 75  1  0  0  0  0
 61 83  1  0  0  0  0
 62 64  1  0  0  0  0
 62 74  1  0  0  0  0
 63 76  1  0  0  0  0
 65 68  1  0  0  0  0
 66 67  1  0  0  0  0
M  CHG  1  76   1
M  ISO  4  35 100  61 101  75 100  83 101
M  END
> <Batch ID>
0043

> <Smiles>
CNC(C)C(=O)NC(C(=O)N1Cc2cc([101O:1][101CH2:1]CCc3c(C)c(CCCC[100NH:0][100C:0](=O)N4CCCC(n5nc(-c6ccc(Oc7ccc(F)cc7F)cc6)c(C(N)=O)c5N)C4)nn3C)ccc2CC1C(=O)NC1CCCc2ccccc21)C(C)(C)C

> <Shape>
0.200

> <Color>
0.074

> <Negative vol penalty>
0.000

$$$$

  -OEChem-04052317143D

 84 92  0     1  0  0  0  0  0999 V2000
  -31.4857  -23.5657   16.7936 C   0  0  0  0  0  0  0  0  0  0  0  0
  -30.1188  -23.8140   16.7208 C   0  0  0  0  0  0  0  0  0  0  0  0
  -27.8990  -14.9742   21.3773 C   0  0  0  0  0  0  0  0  0  0  0  0
  -26.1056  -15.6422   19.9027 C   0  0  0  0  0  0  0  0  0  0  0  0
  -32.1418  -23.6384   18.0216 C   0  0  0  0  0  0  0  0  0  0  0  0
  -29.4070  -24.1340   17.8764 C   0  0  0  0  0  0  0  0  0  0  0  0
  -24.6519  -27.9669   18.3282 C   0  0  0  0  0  0  0  0  0  0  0  0
  -27.4167  -13.6654   21.3711 C   0  0  0  0  0  0  0  0  0  0  0  0
  -25.6233  -14.3334   19.8964 C   0  0  0  0  0  0  0  0  0  0  0  0
  -23.2748  -27.7525   18.3683 C   0  0  0  0  0  0  0  0  0  0  0  0
  -23.8072  -12.3378   21.9337 C   0  0  0  0  0  0  0  0  0  0  0  0
  -22.4337  -12.1525   22.0912 C   0  0  0  0  0  0  0  0  0  0  0  0
  -23.3381  -27.8363   20.7783 C   0  0  0  0  0  0  0  0  0  0  0  0
  -22.3343  -11.0595   19.9389 C   0  0  0  0  0  0  0  0  0  0  0  0
  -27.2434  -15.9626   20.6432 C   0  0  0  0  0  0  0  0  0  0  0  0
  -28.6787  -17.8799   19.7648 C   0  0  0  0  0  0  0  0  0  0  0  0
  -31.4395  -23.9689   19.1913 C   0  0  0  0  0  0  0  0  0  0  0  0
  -25.3853  -28.1069   19.5152 C   0  0  0  0  0  0  0  0  0  0  0  0
  -30.0540  -24.2098   19.1214 C   0  0  0  0  0  0  0  0  0  0  0  0
  -24.7239  -28.0549   20.7505 C   0  0  0  0  0  0  0  0  0  0  0  0
  -26.2788  -13.3450   20.6306 C   0  0  0  0  0  0  0  0  0  0  0  0
  -22.6182  -27.6843   19.5935 C   0  0  0  0  0  0  0  0  0  0  0  0
  -24.4442  -11.8839   20.7787 C   0  0  0  0  0  0  0  0  0  0  0  0
  -21.6973  -11.5133   21.0939 C   0  0  0  0  0  0  0  0  0  0  0  0
  -23.7078  -11.2448   19.7814 C   0  0  0  0  0  0  0  0  0  0  0  0
  -27.7409  -17.3149   20.6497 C   0  0  0  0  0  0  0  0  0  0  0  0
  -28.8121  -19.1792   20.1897 C   0  0  0  0  0  0  0  0  0  0  0  0
  -19.7490  -22.2296   21.5523 C   0  0  0  0  0  0  0  0  0  0  0  0
  -29.3675  -17.2837   18.6577 C   0  0  0  0  0  0  0  0  0  0  0  0
  -27.7521  -26.4935   20.8931 C   0  0  0  0  0  0  0  0  0  0  0  0
  -27.6801  -28.9556   23.0039 C   0  0  0  0  0  0  0  0  0  0  0  0
  -25.8993  -31.4850   24.4451 C   0  0  0  0  0  0  0  0  0  0  0  0
  -25.2007  -22.8688   23.2221 C   0  0  0  0  0  0  0  0  0  0  0  0
  -32.1830  -23.9890   20.5033 C   0  0  0  0  0  0  0  0  0  0  0  0
  -26.8659  -28.3643   19.4541 C   0  0  0  0  0  0  0  0  0  0  0  0
  -25.4623  -28.2193   22.0529 C   0  0  0  0  0  0  0  0  0  0  0  0
  -31.4264  -24.7016   21.6213 C   0  0  0  0  0  0  0  0  0  0  0  0
  -28.5005  -21.8826   24.1249 C   0  0  0  0  0  0  0  0  0  0  0  0
  -29.9722  -24.2425   21.6588 C   0  0  0  0  0  0  0  0  0  0  0  0
  -28.7646  -20.6511   23.2568 C   0  0  0  0  0  0  0  0  0  0  0  0
  -27.0473  -21.9440   24.5900 C   0  0  0  0  0  0  0  0  0  0  0  0
  -26.3112  -20.6269   22.6414 C   0  0  0  0  0  0  0  0  0  0  0  0
  -29.2519  -24.5843   20.3488 C   0  0  1  0  0  0  0  0  0  0  0  0
  -27.5928  -27.9796   20.7391 C   0  0  1  0  0  0  0  0  0  0  0  0
  -27.7498  -20.5509   22.1021 C   0  0  2  0  0  0  0  0  0  0  0  0
  -26.0969  -33.3022   26.1645 C   0  0  0  0  0  0  0  0  0  0  0  0
  -27.4159  -26.8798   25.2246 C   0  0  0  0  0  0  0  0  0  0  0  0
  -26.6737  -28.7155   26.7567 C   0  0  0  0  0  0  0  0  0  0  0  0
  -28.9552  -28.7796   25.7501 C   0  0  0  0  0  0  0  0  0  0  0  0
  -25.3976  -33.5998   22.4364 C   0  0  0  0  0  0  0  0  0  0  0  0
  -18.8713  -23.3891   21.9516 C   0  0  0  0  0  0  0  0  0  0  0  0
  -18.5665  -24.3591   20.8045 C   0  0  0  0  0  0  0  0  0  0  0  0
  -19.8181  -25.0526   20.2573 C   0  0  0  0  0  0  0  0  0  0  0  0
  -19.4716  -25.9850   19.0977 C   0  0  0  0  0  0  0  0  0  0  0  0
  -22.3316  -23.8746   22.8470 C   0  0  0  0  0  0  0  0  0  0  0  0
  -21.5788  -22.6014   23.2562 C   0  0  0  0  0  0  0  0  0  0  0  0
  -23.3723  -23.6708   21.7480 C   0  0  0  0  0  0  0  0  0  0  0  0
  -20.7026  -26.7112   18.5740 C   0  0  0  0  0  0  0  0  0  1  0  0
  -26.9429  -29.2397   24.2902 C   0  0  1  0  0  0  0  0  0  0  0  0
  -26.2411  -32.9430   24.6938 C   0  0  2  0  0  0  0  0  0  0  0  0
  -27.4830  -28.3986   25.4811 C   0  0  0  0  0  0  0  0  0  0  0  0
  -27.3092  -18.1839   21.5675 N   0  0  0  0  0  0  0  0  0  0  0  0
  -19.5397  -21.3523   20.5979 N   0  0  0  0  0  0  0  0  0  0  0  0
  -20.6212  -20.5013   20.6321 N   0  0  0  0  0  0  0  0  0  0  0  0
  -21.4740  -20.8519   21.5871 N   0  0  0  0  0  0  0  0  0  0  0  0
  -27.9789  -19.3083   21.2617 N   0  0  0  0  0  0  0  0  0  0  0  0
  -20.9265  -21.9323   22.1609 N   0  0  0  0  0  0  0  0  0  0  0  0
  -26.9100  -28.4627   21.9410 N   0  0  0  0  0  0  0  0  0  0  0  0
  -26.1363  -21.8456   23.4471 N   0  0  0  0  0  0  0  0  0  0  0  0
  -29.5599  -20.2124   19.7473 N   0  0  0  0  0  0  0  0  0  0  0  0
  -29.1132  -15.9382   18.3588 N   0  0  0  0  0  0  0  0  0  0  0  0
  -28.9015  -25.9880   20.3161 N   0  0  0  0  0  0  0  0  0  0  0  0
  -27.0193  -30.6823   24.4944 N   0  0  0  0  0  0  0  0  0  0  0  0
  -24.3799  -22.7003   22.1136 N   0  0  0  0  0  0  0  0  0  0  0  0
  -25.3401  -33.8284   23.9032 N   0  3  0  0  0  0  0  0  0  0  0  0
  -30.1967  -17.9205   17.9645 O   0  0  0  0  0  0  0  0  0  0  0  0
  -26.8963  -25.8530   21.4924 O   0  0  0  0  0  0  0  0  0  0  0  0
  -28.8933  -29.1699   22.9421 O   0  0  0  0  0  0  0  0  0  0  0  0
  -24.7528  -31.0966   24.2324 O   0  0  0  0  0  0  0  0  0  0  0  0
  -25.1075  -23.8617   23.9517 O   0  0  0  0  0  0  0  0  0  0  0  0
  -25.8080  -12.0679   20.6241 O   0  0  0  0  0  0  0  0  0  0  0  0
  -21.2742  -27.4745   19.6355 O   0  0  0  0  0  0  0  0  0  1  0  0
  -20.3786  -11.3341   21.2460 F   0  0  0  0  0  0  0  0  0  0  0  0
  -24.3144  -10.8055   18.6701 F   0  0  0  0  0  0  0  0  0  0  0  0
  1  2  1  0  0  0  0
  1  5  2  0  0  0  0
  2  6  2  0  0  0  0
  3  8  2  0  0  0  0
  3 15  1  0  0  0  0
  4  9  1  0  0  0  0
  4 15  2  0  0  0  0
  5 17  1  0  0  0  0
  6 19  1  0  0  0  0
  7 10  2  0  0  0  0
  7 18  1  0  0  0  0
  8 21  1  0  0  0  0
  9 21  2  0  0  0  0
 10 22  1  0  0  0  0
 11 12  2  0  0  0  0
 11 23  1  0  0  0  0
 12 24  1  0  0  0  0
 13 20  1  0  0  0  0
 13 22  2  0  0  0  0
 14 24  2  0  0  0  0
 14 25  1  0  0  0  0
 15 26  1  0  0  0  0
 16 26  1  0  0  0  0
 16 27  2  0  0  0  0
 16 29  1  0  0  0  0
 17 19  2  0  0  0  0
 17 34  1  0  0  0  0
 18 20  2  0  0  0  0
 18 35  1  0  0  0  0
 19 43  1  0  0  0  0
 20 36  1  0  0  0  0
 21 81  1  0  0  0  0
 22 82  1  0  0  0  0
 23 25  2  0  0  0  0
 23 81  1  0  0  0  0
 24 83  1  0  0  0  0
 25 84  1  0  0  0  0
 26 62  2  0  0  0  0
 27 66  1  0  0  0  0
 27 70  1  0  0  0  0
 28 51  1  0  0  0  0
 28 63  2  0  0  0  0
 28 67  1  0  0  0  0
 29 71  1  0  0  0  0
 29 76  2  0  0  0  0
 30 44  1  0  0  0  0
 30 72  1  0  0  0  0
 30 77  2  0  0  0  0
 31 59  1  0  0  0  0
 31 68  1  0  0  0  0
 31 78  2  0  0  0  0
 32 60  1  0  0  0  0
 32 73  1  0  0  0  0
 32 79  2  0  0  0  0
 33 69  1  0  0  0  0
 33 74  1  0  0  0  0
 33 80  2  0  0  0  0
 34 37  1  0  0  0  0
 35 44  1  0  0  0  0
 36 68  1  0  0  0  0
 37 39  1  0  0  0  0
 38 40  1  0  0  0  0
 38 41  1  0  0  0  0
 39 43  1  0  0  0  0
 40 45  1  0  0  0  0
 41 69  1  0  0  0  0
 42 45  1  0  0  0  0
 42 69  1  0  0  0  0
 43 72  1  0  0  0  0
 44 68  1  0  0  0  0
 45 66  1  0  0  0  0
 46 60  1  0  0  0  0
 47 61  1  0  0  0  0
 48 61  1  0  0  0  0
 49 61  1  0  0  0  0
 50 75  1  0  0  0  0
 51 52  1  0  0  0  0
 52 53  1  0  0  0  0
 53 54  1  0  0  0  0
 54 58  1  0  0  0  0
 55 56  1  0  0  0  0
 55 57  1  0  0  0  0
 56 67  1  0  0  0  0
 57 74  1  0  0  0  0
 58 82  1  0  0  0  0
 59 61  1  0  0  0  0
 59 73  1  0  0  0  0
 60 75  1  0  0  0  0
 62 66  1  0  0  0  0
 63 64  1  0  0  0  0
 64 65  2  0  0  0  0
 65 67  1  0  0  0  0
M  CHG  1  75   1
M  ISO  4  33 100  58 101  74 100  82 101
M  END
> <Batch ID>
0043

> <Smiles>
CNC(C)C(=O)NC(C(=O)N1Cc2cc([101O:1][101CH2:1]CCCCc3nnnn3CCC[100NH:0][100C:0](=O)N3CCCC(n4nc(-c5ccc(Oc6ccc(F)cc6F)cc5)c(C(N)=O)c4N)C3)ccc2CC1C(=O)NC1CCCc2ccccc21)C(C)(C)C

> <Shape>
0.231

> <Color>
0.061

> <Negative vol penalty>
0.000

$$$$

  -OEChem-04052317143D

 82 90  0     1  0  0  0  0  0999 V2000
  -39.4660  -36.0311   24.5884 C   0  0  0  0  0  0  0  0  0  0  0  0
  -39.6134  -35.1452   25.6509 C   0  0  0  0  0  0  0  0  0  0  0  0
  -22.6605  -10.1975   20.1743 C   0  0  0  0  0  0  0  0  0  0  0  0
  -24.3386   -9.4091   21.7233 C   0  0  0  0  0  0  0  0  0  0  0  0
  -38.1918  -36.4285   24.1853 C   0  0  0  0  0  0  0  0  0  0  0  0
  -38.4867  -34.6570   26.3116 C   0  0  0  0  0  0  0  0  0  0  0  0
  -36.2198  -27.2851   27.5539 C   0  0  0  0  0  0  0  0  0  0  0  0
  -21.9318   -9.0238   20.3663 C   0  0  0  0  0  0  0  0  0  0  0  0
  -23.6099   -8.2353   21.9154 C   0  0  0  0  0  0  0  0  0  0  0  0
  -35.6342  -26.0272   27.6984 C   0  0  0  0  0  0  0  0  0  0  0  0
  -20.8911   -7.2515   23.6648 C   0  0  0  0  0  0  0  0  0  0  0  0
  -20.7273   -6.7990   24.9740 C   0  0  0  0  0  0  0  0  0  0  0  0
  -33.4413  -27.0442   27.7672 C   0  0  0  0  0  0  0  0  0  0  0  0
  -21.8474   -4.7364   24.4013 C   0  0  0  0  0  0  0  0  0  0  0  0
  -23.8640  -10.3902   20.8528 C   0  0  0  0  0  0  0  0  0  0  0  0
  -24.1920  -12.9193   20.9111 C   0  0  0  0  0  0  0  0  0  0  0  0
  -37.0485  -35.9373   24.8351 C   0  0  0  0  0  0  0  0  0  0  0  0
  -35.4164  -28.4274   27.5000 C   0  0  0  0  0  0  0  0  0  0  0  0
  -37.1961  -35.0491   25.9176 C   0  0  0  0  0  0  0  0  0  0  0  0
  -34.0214  -28.3058   27.6100 C   0  0  0  0  0  0  0  0  0  0  0  0
  -22.4065   -8.0427   21.2368 C   0  0  0  0  0  0  0  0  0  0  0  0
  -34.2484  -25.9071   27.8050 C   0  0  0  0  0  0  0  0  0  0  0  0
  -21.5330   -6.4464   22.7238 C   0  0  0  0  0  0  0  0  0  0  0  0
  -21.2055   -5.5415   25.3423 C   0  0  0  0  0  0  0  0  0  0  0  0
  -22.0112   -5.1888   23.0921 C   0  0  0  0  0  0  0  0  0  0  0  0
  -24.6175  -11.6022   20.6544 C   0  0  0  0  0  0  0  0  0  0  0  0
  -25.2653  -13.7014   20.5605 C   0  0  0  0  0  0  0  0  0  0  0  0
  -22.9386  -13.3935   21.4209 C   0  0  0  0  0  0  0  0  0  0  0  0
  -35.2521  -32.1594   27.1518 C   0  0  0  0  0  0  0  0  0  0  0  0
  -30.7738  -14.6656   20.6866 C   0  0  0  0  0  0  0  0  0  0  0  0
  -32.9333  -31.0080   25.5062 C   0  0  0  0  0  0  0  0  0  0  0  0
  -30.7672  -29.3264   23.4770 C   0  0  0  0  0  0  0  0  0  0  0  0
  -35.6939  -36.4323   24.3941 C   0  0  0  0  0  0  0  0  0  0  0  0
  -36.0079  -29.8077   27.4070 C   0  0  0  0  0  0  0  0  0  0  0  0
  -33.1990  -29.5651   27.5817 C   0  0  0  0  0  0  0  0  0  0  0  0
  -34.5370  -35.5776   24.9054 C   0  0  0  0  0  0  0  0  0  0  0  0
  -29.5124  -12.5572   18.0783 C   0  0  0  0  0  0  0  0  0  0  0  0
  -34.7119  -35.2756   26.3903 C   0  0  0  0  0  0  0  0  0  0  0  0
  -31.3242  -22.0217   25.5001 C   0  0  0  0  0  0  0  0  0  0  0  0
  -33.0477  -20.2209   25.9046 C   0  0  0  0  0  0  0  0  0  0  0  0
  -32.3268  -23.0825   25.9510 C   0  0  0  0  0  0  0  0  0  0  0  0
  -34.0502  -21.2817   26.3555 C   0  0  0  0  0  0  0  0  0  0  0  0
  -28.1029  -12.2046   18.5518 C   0  0  0  0  0  0  0  0  0  0  0  0
  -30.4821  -12.6742   19.2500 C   0  0  0  0  0  0  0  0  0  0  0  0
  -28.6372  -13.2881   20.7801 C   0  0  0  0  0  0  0  0  0  0  0  0
  -35.9972  -34.4783   26.6434 C   0  0  1  0  0  0  0  0  0  0  0  0
  -35.1490  -30.7777   26.5759 C   0  0  1  0  0  0  0  0  0  0  0  0
  -32.0267  -20.7914   24.9121 C   0  0  0  0  0  0  0  0  0  0  0  0
  -33.3477  -22.5120   26.9436 C   0  0  0  0  0  0  0  0  0  0  0  0
  -27.6192  -13.1904   19.6301 C   0  0  2  0  0  0  0  0  0  0  0  0
  -28.9310  -29.7078   21.8097 C   0  0  0  0  0  0  0  0  0  0  0  0
  -31.0141  -31.6813   27.7793 C   0  0  0  0  0  0  0  0  0  0  0  0
  -29.1152  -31.1160   26.2486 C   0  0  0  0  0  0  0  0  0  0  0  0
  -30.6525  -32.9976   25.6838 C   0  0  0  0  0  0  0  0  0  0  0  0
  -32.2849  -27.9783   21.3234 C   0  0  0  0  0  0  0  0  0  0  0  0
  -30.1829  -15.5810   21.7291 C   0  0  0  0  0  0  0  0  0  0  0  0
  -31.0066  -19.7260   24.5153 C   0  0  0  0  0  0  0  0  0  0  0  0
  -34.3678  -23.5774   27.3405 C   0  0  0  0  0  0  0  0  0  1  0  0
  -31.1598  -16.6934   22.0971 C   0  0  0  0  0  0  0  0  0  0  0  0
  -31.5855  -18.7640   23.4821 C   0  0  0  0  0  0  0  0  0  0  0  0
  -30.5720  -17.6792   23.1114 C   0  0  0  0  0  0  0  0  0  0  0  0
  -31.4775  -30.6170   25.4731 C   0  0  1  0  0  0  0  0  0  0  0  0
  -30.4239  -29.4971   22.0082 C   0  0  2  0  0  0  0  0  0  0  0  0
  -30.5852  -31.5839   26.3016 C   0  0  0  0  0  0  0  0  0  0  0  0
  -25.8639  -11.5467   20.1775 N   0  0  0  0  0  0  0  0  0  0  0  0
  -26.2307  -12.8387   20.1315 N   0  0  0  0  0  0  0  0  0  0  0  0
  -33.7082  -30.4744   26.5431 N   0  0  0  0  0  0  0  0  0  0  0  0
  -29.9762  -13.6025   20.2628 N   0  0  0  0  0  0  0  0  0  0  0  0
  -25.4679  -15.0359   20.5802 N   0  0  0  0  0  0  0  0  0  0  0  0
  -22.7906  -13.5314   22.8078 N   0  0  0  0  0  0  0  0  0  0  0  0
  -35.8068  -33.0875   26.2913 N   0  0  0  0  0  0  0  0  0  0  0  0
  -31.1113  -30.5258   24.0638 N   0  0  0  0  0  0  0  0  0  0  0  0
  -30.8350  -28.2902   21.2366 N   0  3  0  0  0  0  0  0  0  0  0  0
  -21.9729  -13.6706   20.6699 O   0  0  0  0  0  0  0  0  0  0  0  0
  -34.8564  -32.3697   28.2923 O   0  0  0  0  0  0  0  0  0  0  0  0
  -31.9094  -14.8920   20.2606 O   0  0  0  0  0  0  0  0  0  0  0  0
  -33.3730  -31.7702   24.6407 O   0  0  0  0  0  0  0  0  0  0  0  0
  -30.7300  -28.2386   24.0478 O   0  0  0  0  0  0  0  0  0  0  0  0
  -21.6955   -6.8973   21.4246 O   0  0  0  0  0  0  0  0  0  0  0  0
  -33.6829  -24.6757   27.9414 O   0  0  0  0  0  0  0  0  0  1  0  0
  -21.0495   -5.1077   26.6000 F   0  0  0  0  0  0  0  0  0  0  0  0
  -22.6297   -4.4114   22.1928 F   0  0  0  0  0  0  0  0  0  0  0  0
  1  2  1  0  0  0  0
  1  5  2  0  0  0  0
  2  6  2  0  0  0  0
  3  8  2  0  0  0  0
  3 15  1  0  0  0  0
  4  9  1  0  0  0  0
  4 15  2  0  0  0  0
  5 17  1  0  0  0  0
  6 19  1  0  0  0  0
  7 10  2  0  0  0  0
  7 18  1  0  0  0  0
  8 21  1  0  0  0  0
  9 21  2  0  0  0  0
 10 22  1  0  0  0  0
 11 12  2  0  0  0  0
 11 23  1  0  0  0  0
 12 24  1  0  0  0  0
 13 20  1  0  0  0  0
 13 22  2  0  0  0  0
 14 24  2  0  0  0  0
 14 25  1  0  0  0  0
 15 26  1  0  0  0  0
 16 26  1  0  0  0  0
 16 27  2  0  0  0  0
 16 28  1  0  0  0  0
 17 19  2  0  0  0  0
 17 33  1  0  0  0  0
 18 20  2  0  0  0  0
 18 34  1  0  0  0  0
 19 46  1  0  0  0  0
 20 35  1  0  0  0  0
 21 79  1  0  0  0  0
 22 80  1  0  0  0  0
 23 25  2  0  0  0  0
 23 79  1  0  0  0  0
 24 81  1  0  0  0  0
 25 82  1  0  0  0  0
 26 65  2  0  0  0  0
 27 66  1  0  0  0  0
 27 69  1  0  0  0  0
 28 70  1  0  0  0  0
 28 74  2  0  0  0  0
 29 47  1  0  0  0  0
 29 71  1  0  0  0  0
 29 75  2  0  0  0  0
 30 56  1  0  0  0  0
 30 68  1  0  0  0  0
 30 76  2  0  0  0  0
 31 62  1  0  0  0  0
 31 67  1  0  0  0  0
 31 77  2  0  0  0  0
 32 63  1  0  0  0  0
 32 72  1  0  0  0  0
 32 78  2  0  0  0  0
 33 36  1  0  0  0  0
 34 47  1  0  0  0  0
 35 67  1  0  0  0  0
 36 38  1  0  0  0  0
 37 43  1  0  0  0  0
 37 44  1  0  0  0  0
 38 46  1  0  0  0  0
 39 41  1  0  0  0  0
 39 48  1  0  0  0  0
 40 42  1  0  0  0  0
 40 48  1  0  0  0  0
 41 49  1  0  0  0  0
 42 49  1  0  0  0  0
 43 50  1  0  0  0  0
 44 68  1  0  0  0  0
 45 50  1  0  0  0  0
 45 68  1  0  0  0  0
 46 71  1  0  0  0  0
 47 67  1  0  0  0  0
 48 57  1  0  0  0  0
 49 58  1  0  0  0  0
 50 66  1  0  0  0  0
 51 63  1  0  0  0  0
 52 64  1  0  0  0  0
 53 64  1  0  0  0  0
 54 64  1  0  0  0  0
 55 73  1  0  0  0  0
 56 59  1  0  0  0  0
 57 60  1  0  0  0  0
 58 80  1  0  0  0  0
 59 61  1  0  0  0  0
 60 61  1  0  0  0  0
 62 64  1  0  0  0  0
 62 72  1  0  0  0  0
 63 73  1  0  0  0  0
 65 66  1  0  0  0  0
M  CHG  1  73   1
M  ISO  4  30 100  56 100  58 101  80 101
M  END
> <Batch ID>
0043

> <Smiles>
CNC(C)C(=O)NC(C(=O)N1Cc2cc([101O:1][101CH2:1]C3CCC(CCCC[100CH2:0][100C:0](=O)N4CCCC(n5nc(-c6ccc(Oc7ccc(F)cc7F)cc6)c(C(N)=O)c5N)C4)CC3)ccc2CC1C(=O)NC1CCCc2ccccc21)C(C)(C)C

> <Shape>
0.191

> <Color>
0.186

> <Negative vol penalty>
0.000

$$$$

  -OEChem-04052317143D

 84 92  0     1  0  0  0  0  0999 V2000
  -28.5287  -24.1020   17.2292 C   0  0  0  0  0  0  0  0  0  0  0  0
  -27.3809  -24.8488   17.4700 C   0  0  0  0  0  0  0  0  0  0  0  0
  -28.2084  -13.9103   23.6319 C   0  0  0  0  0  0  0  0  0  0  0  0
  -26.9921  -13.4421   21.5976 C   0  0  0  0  0  0  0  0  0  0  0  0
  -29.5916  -24.1553   18.1284 C   0  0  0  0  0  0  0  0  0  0  0  0
  -27.3005  -25.6583   18.6036 C   0  0  0  0  0  0  0  0  0  0  0  0
  -23.3752  -28.6007   18.9747 C   0  0  0  0  0  0  0  0  0  0  0  0
  -27.7027  -12.7426   24.2031 C   0  0  0  0  0  0  0  0  0  0  0  0
  -26.4864  -12.2743   22.1688 C   0  0  0  0  0  0  0  0  0  0  0  0
  -22.0963  -28.1199   19.2523 C   0  0  0  0  0  0  0  0  0  0  0  0
  -24.0503  -11.4216   24.3526 C   0  0  0  0  0  0  0  0  0  0  0  0
  -22.6903  -11.1573   24.1908 C   0  0  0  0  0  0  0  0  0  0  0  0
  -22.3065  -28.8922   21.5280 C   0  0  0  0  0  0  0  0  0  0  0  0
  -23.2265   -9.0926   23.0564 C   0  0  0  0  0  0  0  0  0  0  0  0
  -19.4010  -25.9119   23.4062 C   0  0  0  0  0  0  0  0  0  0  0  0
  -27.8531  -14.2601   22.3292 C   0  0  0  0  0  0  0  0  0  0  0  0
  -29.5628  -15.6049   20.9965 C   0  0  0  0  0  0  0  0  0  0  0  0
  -29.5184  -24.9564   19.2798 C   0  0  0  0  0  0  0  0  0  0  0  0
  -24.1349  -29.2222   19.9763 C   0  0  0  0  0  0  0  0  0  0  0  0
  -28.3722  -25.7440   19.5107 C   0  0  0  0  0  0  0  0  0  0  0  0
  -23.5937  -29.3823   21.2599 C   0  0  0  0  0  0  0  0  0  0  0  0
  -19.6444  -25.3185   22.1844 C   0  0  0  0  0  0  0  0  0  0  0  0
  -26.8417  -11.9246   23.4715 C   0  0  0  0  0  0  0  0  0  0  0  0
  -21.5629  -28.2630   20.5299 C   0  0  0  0  0  0  0  0  0  0  0  0
  -24.9984  -10.5215   23.8663 C   0  0  0  0  0  0  0  0  0  0  0  0
  -22.2784   -9.9929   23.5427 C   0  0  0  0  0  0  0  0  0  0  0  0
  -24.5865   -9.3570   23.2182 C   0  0  0  0  0  0  0  0  0  0  0  0
  -28.3747  -15.4666   21.7389 C   0  0  0  0  0  0  0  0  0  0  0  0
  -20.5453  -24.2732   22.1973 C   0  0  0  0  0  0  0  0  0  0  0  0
  -29.6062  -16.9366   20.6630 C   0  0  0  0  0  0  0  0  0  0  0  0
  -20.8451  -24.4929   24.4398 C   0  0  0  0  0  0  0  0  0  0  0  0
  -30.5397  -14.6178   20.6400 C   0  0  0  0  0  0  0  0  0  0  0  0
  -26.9107  -28.6029   21.3958 C   0  0  0  0  0  0  0  0  0  0  0  0
  -26.3975  -31.4873   22.7883 C   0  0  0  0  0  0  0  0  0  0  0  0
  -24.1667  -33.8839   23.7510 C   0  0  0  0  0  0  0  0  0  0  0  0
  -25.3415  -20.9621   19.9826 C   0  0  0  0  0  0  0  0  0  0  0  0
  -30.7012  -24.9828   20.2154 C   0  0  0  0  0  0  0  0  0  0  0  0
  -25.5023  -29.7594   19.6537 C   0  0  0  0  0  0  0  0  0  0  0  0
  -24.3605  -30.0602   22.3649 C   0  0  0  0  0  0  0  0  0  0  0  0
  -30.3514  -25.5154   21.6011 C   0  0  0  0  0  0  0  0  0  0  0  0
  -28.1783  -21.2337   22.2134 C   0  0  0  0  0  0  0  0  0  0  0  0
  -29.5850  -26.8238   21.4769 C   0  0  0  0  0  0  0  0  0  0  0  0
  -28.6614  -19.7833   22.2690 C   0  0  0  0  0  0  0  0  0  0  0  0
  -26.6551  -21.3074   22.1616 C   0  0  0  0  0  0  0  0  0  0  0  0
  -26.5202  -19.0885   21.0975 C   0  0  0  0  0  0  0  0  0  0  0  0
  -28.2500  -26.6080   20.7528 C   0  0  1  0  0  0  0  0  0  0  0  0
  -26.3886  -29.9162   20.8855 C   0  0  1  0  0  0  0  0  0  0  0  0
  -28.0528  -18.9458   21.1286 C   0  0  2  0  0  0  0  0  0  0  0  0
  -21.5114  -24.0338   25.6925 C   0  0  0  0  0  0  0  0  0  0  0  0
  -24.0419  -36.1115   24.8998 C   0  0  0  0  0  0  0  0  0  0  0  0
  -26.7963  -30.1163   25.4848 C   0  0  0  0  0  0  0  0  0  0  0  0
  -25.7441  -32.1093   26.5752 C   0  0  0  0  0  0  0  0  0  0  0  0
  -27.8669  -32.3681   25.2910 C   0  0  0  0  0  0  0  0  0  0  0  0
  -23.0319  -35.1891   21.3494 C   0  0  0  0  0  0  0  0  0  0  0  0
  -18.9569  -25.8012   20.9303 C   0  0  0  0  0  0  0  0  0  0  0  0
  -20.8861  -23.5553   20.9332 C   0  0  0  0  0  0  0  0  0  0  0  0
  -22.3913  -23.5983   20.6296 C   0  0  0  0  0  0  0  0  0  0  0  0
  -22.7227  -22.8907   19.3124 C   0  0  0  0  0  0  0  0  0  0  0  0
  -24.2114  -22.9320   18.9829 C   0  0  0  0  0  0  0  0  0  0  0  0
  -19.8706  -26.6590   20.0617 C   0  0  0  0  0  0  0  0  0  1  0  0
  -25.7057  -31.9604   24.0440 C   0  0  1  0  0  0  0  0  0  0  0  0
  -24.1648  -35.3907   23.5663 C   0  0  2  0  0  0  0  0  0  0  0  0
  -26.5143  -31.6240   25.3287 C   0  0  0  0  0  0  0  0  0  0  0  0
  -19.9859  -25.5231   24.5582 N   0  0  0  0  0  0  0  0  0  0  0  0
  -27.7114  -16.6185   21.8698 N   0  0  0  0  0  0  0  0  0  0  0  0
  -21.1666  -23.8327   23.3109 N   0  0  0  0  0  0  0  0  0  0  0  0
  -28.4854  -17.4933   21.2052 N   0  0  0  0  0  0  0  0  0  0  0  0
  -25.6957  -30.5630   22.0016 N   0  0  0  0  0  0  0  0  0  0  0  0
  -26.1407  -20.5043   21.0433 N   0  0  0  0  0  0  0  0  0  0  0  0
  -30.4935  -17.6739   19.9620 N   0  0  0  0  0  0  0  0  0  0  0  0
  -30.3404  -13.2969   21.0641 N   0  0  0  0  0  0  0  0  0  0  0  0
  -27.6529  -27.8946   20.4701 N   0  0  0  0  0  0  0  0  0  0  0  0
  -25.4474  -33.3839   23.8561 N   0  0  0  0  0  0  0  0  0  0  0  0
  -25.0211  -22.3139   20.0092 N   0  0  0  0  0  0  0  0  0  0  0  0
  -23.0242  -35.8050   22.7013 N   0  3  0  0  0  0  0  0  0  0  0  0
  -31.5675  -14.9021   19.9795 O   0  0  0  0  0  0  0  0  0  0  0  0
  -26.6601  -28.2585   22.5448 O   0  0  0  0  0  0  0  0  0  0  0  0
  -27.5163  -31.9274   22.5119 O   0  0  0  0  0  0  0  0  0  0  0  0
  -23.1352  -33.2176   23.8010 O   0  0  0  0  0  0  0  0  0  0  0  0
  -24.9468  -20.2217   19.0753 O   0  0  0  0  0  0  0  0  0  0  0  0
  -26.3482  -10.7849   24.0284 O   0  0  0  0  0  0  0  0  0  0  0  0
  -20.3152  -27.7940   20.8037 O   0  0  0  0  0  0  0  0  0  1  0  0
  -20.9724   -9.7384   23.3888 F   0  0  0  0  0  0  0  0  0  0  0  0
  -25.4927   -8.4879   22.7500 F   0  0  0  0  0  0  0  0  0  0  0  0
  1  2  1  0  0  0  0
  1  5  2  0  0  0  0
  2  6  2  0  0  0  0
  3  8  2  0  0  0  0
  3 16  1  0  0  0  0
  4  9  1  0  0  0  0
  4 16  2  0  0  0  0
  5 18  1  0  0  0  0
  6 20  1  0  0  0  0
  7 10  2  0  0  0  0
  7 19  1  0  0  0  0
  8 23  1  0  0  0  0
  9 23  2  0  0  0  0
 10 24  1  0  0  0  0
 11 12  2  0  0  0  0
 11 25  1  0  0  0  0
 12 26  1  0  0  0  0
 13 21  1  0  0  0  0
 13 24  2  0  0  0  0
 14 26  2  0  0  0  0
 14 27  1  0  0  0  0
 15 22  1  0  0  0  0
 15 64  2  0  0  0  0
 16 28  1  0  0  0  0
 17 28  1  0  0  0  0
 17 30  2  0  0  0  0
 17 32  1  0  0  0  0
 18 20  2  0  0  0  0
 18 37  1  0  0  0  0
 19 21  2  0  0  0  0
 19 38  1  0  0  0  0
 20 46  1  0  0  0  0
 21 39  1  0  0  0  0
 22 29  2  0  0  0  0
 22 55  1  0  0  0  0
 23 81  1  0  0  0  0
 24 82  1  0  0  0  0
 25 27  2  0  0  0  0
 25 81  1  0  0  0  0
 26 83  1  0  0  0  0
 27 84  1  0  0  0  0
 28 65  2  0  0  0  0
 29 56  1  0  0  0  0
 29 66  1  0  0  0  0
 30 67  1  0  0  0  0
 30 70  1  0  0  0  0
 31 49  1  0  0  0  0
 31 64  1  0  0  0  0
 31 66  2  0  0  0  0
 32 71  1  0  0  0  0
 32 76  2  0  0  0  0
 33 47  1  0  0  0  0
 33 72  1  0  0  0  0
 33 77  2  0  0  0  0
 34 61  1  0  0  0  0
 34 68  1  0  0  0  0
 34 78  2  0  0  0  0
 35 62  1  0  0  0  0
 35 73  1  0  0  0  0
 35 79  2  0  0  0  0
 36 69  1  0  0  0  0
 36 74  1  0  0  0  0
 36 80  2  0  0  0  0
 37 40  1  0  0  0  0
 38 47  1  0  0  0  0
 39 68  1  0  0  0  0
 40 42  1  0  0  0  0
 41 43  1  0  0  0  0
 41 44  1  0  0  0  0
 42 46  1  0  0  0  0
 43 48  1  0  0  0  0
 44 69  1  0  0  0  0
 45 48  1  0  0  0  0
 45 69  1  0  0  0  0
 46 72  1  0  0  0  0
 47 68  1  0  0  0  0
 48 67  1  0  0  0  0
 50 62  1  0  0  0  0
 51 63  1  0  0  0  0
 52 63  1  0  0  0  0
 53 63  1  0  0  0  0
 54 75  1  0  0  0  0
 55 60  1  0  0  0  0
 56 57  1  0  0  0  0
 57 58  1  0  0  0  0
 58 59  1  0  0  0  0
 59 74  1  0  0  0  0
 60 82  1  0  0  0  0
 61 63  1  0  0  0  0
 61 73  1  0  0  0  0
 62 75  1  0  0  0  0
 65 67  1  0  0  0  0
M  CHG  1  75   1
M  ISO  4  36 100  60 101  74 100  82 101
M  END
> <Batch ID>
0043

> <Smiles>
CNC(C)C(=O)NC(C(=O)N1Cc2cc([101O:1][101CH2:1]Cc3cnc(C)nc3CCCC[100NH:0][100C:0](=O)N3CCCC(n4nc(-c5ccc(Oc6ccc(F)cc6F)cc5)c(C(N)=O)c4N)C3)ccc2CC1C(=O)NC1CCCc2ccccc21)C(C)(C)C

> <Shape>
0.264

> <Color>
0.089

> <Negative vol penalty>
0.000

$$$$

  -OEChem-04052317143D

 85 93  0     1  0  0  0  0  0999 V2000
  -26.5185  -22.1554   15.0879 C   0  0  0  0  0  0  0  0  0  0  0  0
  -26.3937  -21.9225   16.4538 C   0  0  0  0  0  0  0  0  0  0  0  0
  -23.1337   -9.8076   20.0404 C   0  0  0  0  0  0  0  0  0  0  0  0
  -23.8343   -9.9855   22.3457 C   0  0  0  0  0  0  0  0  0  0  0  0
  -27.2890  -23.2240   14.6316 C   0  0  0  0  0  0  0  0  0  0  0  0
  -27.0404  -22.7576   17.3642 C   0  0  0  0  0  0  0  0  0  0  0  0
  -24.0618  -24.0835   21.2391 C   0  0  0  0  0  0  0  0  0  0  0  0
  -27.4331  -20.6329   23.1498 C   0  0  0  0  0  0  0  0  0  0  0  0
  -22.4059   -8.6587   20.3502 C   0  0  0  0  0  0  0  0  0  0  0  0
  -23.1065   -8.8366   22.6556 C   0  0  0  0  0  0  0  0  0  0  0  0
  -23.8731  -23.1408   22.2488 C   0  0  0  0  0  0  0  0  0  0  0  0
  -19.4373   -7.9007   21.7805 C   0  0  0  0  0  0  0  0  0  0  0  0
  -18.1444   -7.7945   21.2680 C   0  0  0  0  0  0  0  0  0  0  0  0
  -28.1173  -20.2671   21.9960 C   0  0  0  0  0  0  0  0  0  0  0  0
  -25.5153  -24.2736   23.6050 C   0  0  0  0  0  0  0  0  0  0  0  0
  -18.7750   -5.7785   20.0952 C   0  0  0  0  0  0  0  0  0  0  0  0
  -23.8479  -10.4710   21.0381 C   0  0  0  0  0  0  0  0  0  0  0  0
  -24.1442  -12.9888   20.7547 C   0  0  0  0  0  0  0  0  0  0  0  0
  -27.9376  -24.0784   15.5372 C   0  0  0  0  0  0  0  0  0  0  0  0
  -24.9881  -25.1238   21.4007 C   0  0  0  0  0  0  0  0  0  0  0  0
  -27.8214  -23.8379   16.9196 C   0  0  0  0  0  0  0  0  0  0  0  0
  -25.7120  -25.2297   22.5969 C   0  0  0  0  0  0  0  0  0  0  0  0
  -26.8396  -19.6542   23.9393 C   0  0  0  0  0  0  0  0  0  0  0  0
  -22.3923   -8.1732   21.6578 C   0  0  0  0  0  0  0  0  0  0  0  0
  -24.6020  -23.2340   23.4308 C   0  0  0  0  0  0  0  0  0  0  0  0
  -20.3991   -6.9459   21.4503 C   0  0  0  0  0  0  0  0  0  0  0  0
  -17.8132   -6.7334   20.4253 C   0  0  0  0  0  0  0  0  0  0  0  0
  -20.0679   -5.8848   20.6077 C   0  0  0  0  0  0  0  0  0  0  0  0
  -24.6004  -11.6575   20.7186 C   0  0  0  0  0  0  0  0  0  0  0  0
  -28.1789  -18.9199   21.6781 C   0  0  0  0  0  0  0  0  0  0  0  0
  -26.9582  -18.3345   23.5343 C   0  0  0  0  0  0  0  0  0  0  0  0
  -25.2307  -13.7347   20.3678 C   0  0  0  0  0  0  0  0  0  0  0  0
  -22.8537  -13.5051   21.1066 C   0  0  0  0  0  0  0  0  0  0  0  0
  -27.6439  -26.0159   19.8992 C   0  0  0  0  0  0  0  0  0  0  0  0
  -27.4554  -28.5619   21.9003 C   0  0  0  0  0  0  0  0  0  0  0  0
  -26.3086  -29.8555   24.8428 C   0  0  0  0  0  0  0  0  0  0  0  0
  -30.6873  -14.8784   20.6192 C   0  0  0  0  0  0  0  0  0  0  0  0
  -28.7981  -25.1923   14.9954 C   0  0  0  0  0  0  0  0  0  0  0  0
  -25.1605  -26.1481   20.3128 C   0  0  0  0  0  0  0  0  0  0  0  0
  -26.7039  -26.3393   22.8280 C   0  0  0  0  0  0  0  0  0  0  0  0
  -29.1459  -26.2542   16.0354 C   0  0  0  0  0  0  0  0  0  0  0  0
  -29.6571  -12.3147   18.3735 C   0  0  0  0  0  0  0  0  0  0  0  0
  -29.6021  -25.5991   17.3352 C   0  0  0  0  0  0  0  0  0  0  0  0
  -28.2150  -12.0210   18.7905 C   0  0  0  0  0  0  0  0  0  0  0  0
  -30.5388  -12.6353   19.5785 C   0  0  0  0  0  0  0  0  0  0  0  0
  -28.5885  -13.4186   20.8655 C   0  0  0  0  0  0  0  0  0  0  0  0
  -28.4875  -24.7364   17.9390 C   0  0  1  0  0  0  0  0  0  0  0  0
  -26.5035  -26.8689   20.3781 C   0  0  1  0  0  0  0  0  0  0  0  0
  -27.6483  -13.1445   19.6792 C   0  0  2  0  0  0  0  0  0  0  0  0
  -26.8410  -15.8606   23.9254 C   0  0  0  0  0  0  0  0  0  0  0  0
  -26.3477  -31.9523   26.2209 C   0  0  0  0  0  0  0  0  0  0  0  0
  -30.3205  -27.9468   22.7506 C   0  0  0  0  0  0  0  0  0  0  0  0
  -29.9712  -29.4202   24.7444 C   0  0  0  0  0  0  0  0  0  0  0  0
  -29.8219  -30.3785   22.4462 C   0  0  0  0  0  0  0  0  0  0  0  0
  -23.3654  -30.1358   24.7102 C   0  0  0  0  0  0  0  0  0  0  0  0
  -26.0951  -20.0449   25.1910 C   0  0  0  0  0  0  0  0  0  0  0  0
  -28.9068  -18.4915   20.4478 C   0  0  0  0  0  0  0  0  0  0  0  0
  -26.3437  -17.2407   24.3448 C   0  0  0  0  0  0  0  0  0  0  0  0
  -24.5729  -20.0029   25.0406 C   0  0  0  0  0  0  0  0  0  0  0  0
  -30.4022  -18.1890   20.6650 C   0  0  0  0  0  0  0  0  0  0  0  0
  -30.6801  -17.1086   21.7079 C   0  0  0  0  0  0  0  0  0  0  0  0
  -24.0395  -20.9990   24.0176 C   0  0  0  0  0  0  0  0  0  1  0  0
  -27.9709  -28.8742   23.2844 C   0  0  1  0  0  0  0  0  0  0  0  0
  -25.5988  -31.1590   25.1614 C   0  0  2  0  0  0  0  0  0  0  0  0
  -29.5039  -29.1328   23.3016 C   0  0  0  0  0  0  0  0  0  0  0  0
  -25.8771  -11.5600   20.3386 N   0  0  0  0  0  0  0  0  0  0  0  0
  -27.6150  -17.9406   22.4202 N   0  0  0  0  0  0  0  0  0  0  0  0
  -26.2325  -12.8396   20.1323 N   0  0  0  0  0  0  0  0  0  0  0  0
  -26.8415  -27.3127   21.7320 N   0  0  0  0  0  0  0  0  0  0  0  0
  -29.9461  -13.7097   20.3787 N   0  0  0  0  0  0  0  0  0  0  0  0
  -25.4173  -15.0622   20.2093 N   0  0  0  0  0  0  0  0  0  0  0  0
  -21.8511  -12.5999   21.4803 N   0  0  0  0  0  0  0  0  0  0  0  0
  -27.5049  -25.5692   18.5989 N   0  0  0  0  0  0  0  0  0  0  0  0
  -27.1710  -29.9911   23.7755 N   0  0  0  0  0  0  0  0  0  0  0  0
  -30.0490  -15.8493   21.3812 N   0  0  0  0  0  0  0  0  0  0  0  0
  -24.2212  -30.8897   25.6621 N   0  3  0  0  0  0  0  0  0  0  0  0
  -22.5925  -14.7316   21.0742 O   0  0  0  0  0  0  0  0  0  0  0  0
  -28.5812  -25.7816   20.6529 O   0  0  0  0  0  0  0  0  0  0  0  0
  -27.5862  -29.3985   21.0033 O   0  0  0  0  0  0  0  0  0  0  0  0
  -26.1200  -28.8214   25.4796 O   0  0  0  0  0  0  0  0  0  0  0  0
  -31.8309  -15.0465   20.1823 O   0  0  0  0  0  0  0  0  0  0  0  0
  -21.6820   -7.0523   21.9606 O   0  0  0  0  0  0  0  0  0  0  0  0
  -24.4203  -22.3148   24.4177 O   0  0  0  0  0  0  0  0  0  1  0  0
  -16.5712   -6.6306   19.9345 F   0  0  0  0  0  0  0  0  0  0  0  0
  -20.9873   -4.9638   20.2878 F   0  0  0  0  0  0  0  0  0  0  0  0
  1  2  1  0  0  0  0
  1  5  2  0  0  0  0
  2  6  2  0  0  0  0
  3  9  2  0  0  0  0
  3 17  1  0  0  0  0
  4 10  1  0  0  0  0
  4 17  2  0  0  0  0
  5 19  1  0  0  0  0
  6 21  1  0  0  0  0
  7 11  2  0  0  0  0
  7 20  1  0  0  0  0
  8 14  2  0  0  0  0
  8 23  1  0  0  0  0
  9 24  1  0  0  0  0
 10 24  2  0  0  0  0
 11 25  1  0  0  0  0
 12 13  2  0  0  0  0
 12 26  1  0  0  0  0
 13 27  1  0  0  0  0
 14 30  1  0  0  0  0
 15 22  1  0  0  0  0
 15 25  2  0  0  0  0
 16 27  2  0  0  0  0
 16 28  1  0  0  0  0
 17 29  1  0  0  0  0
 18 29  1  0  0  0  0
 18 32  2  0  0  0  0
 18 33  1  0  0  0  0
 19 21  2  0  0  0  0
 19 38  1  0  0  0  0
 20 22  2  0  0  0  0
 20 39  1  0  0  0  0
 21 47  1  0  0  0  0
 22 40  1  0  0  0  0
 23 31  2  0  0  0  0
 23 56  1  0  0  0  0
 24 82  1  0  0  0  0
 25 83  1  0  0  0  0
 26 28  2  0  0  0  0
 26 82  1  0  0  0  0
 27 84  1  0  0  0  0
 28 85  1  0  0  0  0
 29 66  2  0  0  0  0
 30 57  1  0  0  0  0
 30 67  2  0  0  0  0
 31 58  1  0  0  0  0
 31 67  1  0  0  0  0
 32 68  1  0  0  0  0
 32 71  1  0  0  0  0
 33 72  1  0  0  0  0
 33 77  2  0  0  0  0
 34 48  1  0  0  0  0
 34 73  1  0  0  0  0
 34 78  2  0  0  0  0
 35 63  1  0  0  0  0
 35 69  1  0  0  0  0
 35 79  2  0  0  0  0
 36 64  1  0  0  0  0
 36 74  1  0  0  0  0
 36 80  2  0  0  0  0
 37 70  1  0  0  0  0
 37 75  1  0  0  0  0
 37 81  2  0  0  0  0
 38 41  1  0  0  0  0
 39 48  1  0  0  0  0
 40 69  1  0  0  0  0
 41 43  1  0  0  0  0
 42 44  1  0  0  0  0
 42 45  1  0  0  0  0
 43 47  1  0  0  0  0
 44 49  1  0  0  0  0
 45 70  1  0  0  0  0
 46 49  1  0  0  0  0
 46 70  1  0  0  0  0
 47 73  1  0  0  0  0
 48 69  1  0  0  0  0
 49 68  1  0  0  0  0
 50 58  1  0  0  0  0
 51 64  1  0  0  0  0
 52 65  1  0  0  0  0
 53 65  1  0  0  0  0
 54 65  1  0  0  0  0
 55 76  1  0  0  0  0
 56 59  1  0  0  0  0
 57 60  1  0  0  0  0
 59 62  1  0  0  0  0
 60 61  1  0  0  0  0
 61 75  1  0  0  0  0
 62 83  1  0  0  0  0
 63 65  1  0  0  0  0
 63 74  1  0  0  0  0
 64 76  1  0  0  0  0
 66 68  1  0  0  0  0
M  CHG  1  76   1
M  ISO  4  37 100  62 101  75 100  83 101
M  END
> <Batch ID>
0043

> <Smiles>
CCc1nc(CCC[100NH:0][100C:0](=O)N2CCCC(n3nc(-c4ccc(Oc5ccc(F)cc5F)cc4)c(C(N)=O)c3N)C2)ccc1CC[101CH2:1][101O:1]c1ccc2c(c1)CN(C(=O)C(NC(=O)C(C)NC)C(C)(C)C)C(C(=O)NC1CCCc3ccccc31)C2

> <Shape>
0.247

> <Color>
0.193

> <Negative vol penalty>
0.000

$$$$

  -OEChem-04052317143D

 86 94  0     1  0  0  0  0  0999 V2000
  -23.0091  -21.3712   10.3034 C   0  0  0  0  0  0  0  0  0  0  0  0
  -23.2443  -21.1086   11.6492 C   0  0  0  0  0  0  0  0  0  0  0  0
  -22.9999   -9.8982   19.9788 C   0  0  0  0  0  0  0  0  0  0  0  0
  -23.7348   -9.9382   22.2799 C   0  0  0  0  0  0  0  0  0  0  0  0
  -23.6382  -22.4506    9.6846 C   0  0  0  0  0  0  0  0  0  0  0  0
  -24.1097  -21.9248   12.3767 C   0  0  0  0  0  0  0  0  0  0  0  0
  -23.6130  -23.4798   18.2793 C   0  0  0  0  0  0  0  0  0  0  0  0
  -22.2351   -8.7619   20.2427 C   0  0  0  0  0  0  0  0  0  0  0  0
  -22.9700   -8.8019   22.5439 C   0  0  0  0  0  0  0  0  0  0  0  0
  -24.2168  -22.9839   19.4340 C   0  0  0  0  0  0  0  0  0  0  0  0
  -23.2142   -5.4655   22.0544 C   0  0  0  0  0  0  0  0  0  0  0  0
  -23.8054   -4.4449   22.7990 C   0  0  0  0  0  0  0  0  0  0  0  0
  -25.8818  -24.7246   19.3035 C   0  0  0  0  0  0  0  0  0  0  0  0
  -22.0886   -4.6785   24.4827 C   0  0  0  0  0  0  0  0  0  0  0  0
  -23.7498  -10.4863   20.9974 C   0  0  0  0  0  0  0  0  0  0  0  0
  -24.1329  -13.0029   20.8322 C   0  0  0  0  0  0  0  0  0  0  0  0
  -24.5043  -23.2862   10.4073 C   0  0  0  0  0  0  0  0  0  0  0  0
  -24.1463  -24.5971   17.6208 C   0  0  0  0  0  0  0  0  0  0  0  0
  -24.7521  -23.0156   11.7666 C   0  0  0  0  0  0  0  0  0  0  0  0
  -25.2814  -25.2342   18.1421 C   0  0  0  0  0  0  0  0  0  0  0  0
  -22.2201   -8.2138   21.5253 C   0  0  0  0  0  0  0  0  0  0  0  0
  -25.3531  -23.6046   19.9446 C   0  0  0  0  0  0  0  0  0  0  0  0
  -22.0601   -6.0927   22.5240 C   0  0  0  0  0  0  0  0  0  0  0  0
  -23.2427   -4.0514   24.0131 C   0  0  0  0  0  0  0  0  0  0  0  0
  -21.4973   -5.6992   23.7381 C   0  0  0  0  0  0  0  0  0  0  0  0
  -24.5404  -11.6597   20.7252 C   0  0  0  0  0  0  0  0  0  0  0  0
  -28.8037  -19.4552   19.8159 C   0  0  0  0  0  0  0  0  0  0  0  0
  -28.5164  -20.7660   20.0730 C   0  0  0  0  0  0  0  0  0  0  0  0
  -25.2407  -13.7280   20.4667 C   0  0  0  0  0  0  0  0  0  0  0  0
  -28.5287  -20.4872   17.8770 C   0  0  0  0  0  0  0  0  0  0  0  0
  -22.8663  -13.5467   21.2268 C   0  0  0  0  0  0  0  0  0  0  0  0
  -25.3679  -25.1284   14.7348 C   0  0  0  0  0  0  0  0  0  0  0  0
  -25.4005  -28.2111   15.7437 C   0  0  0  0  0  0  0  0  0  0  0  0
  -25.4594  -30.4033   18.3586 C   0  0  0  0  0  0  0  0  0  0  0  0
  -30.7376  -14.6645   20.6965 C   0  0  0  0  0  0  0  0  0  0  0  0
  -25.1981  -24.4128    9.6834 C   0  0  0  0  0  0  0  0  0  0  0  0
  -23.4675  -25.1358   16.3914 C   0  0  0  0  0  0  0  0  0  0  0  0
  -25.8813  -26.4490   17.4841 C   0  0  0  0  0  0  0  0  0  0  0  0
  -25.8099  -25.4525   10.6188 C   0  0  0  0  0  0  0  0  0  0  0  0
  -29.5883  -12.2518   18.3439 C   0  0  0  0  0  0  0  0  0  0  0  0
  -26.5869  -24.7702   11.7402 C   0  0  0  0  0  0  0  0  0  0  0  0
  -28.1417  -11.9892   18.7664 C   0  0  0  0  0  0  0  0  0  0  0  0
  -30.4957  -12.4817   19.5505 C   0  0  0  0  0  0  0  0  0  0  0  0
  -28.5908  -13.2695   20.9013 C   0  0  0  0  0  0  0  0  0  0  0  0
  -25.6650  -23.8928   12.5956 C   0  0  1  0  0  0  0  0  0  0  0  0
  -24.3957  -25.9691   15.5130 C   0  0  1  0  0  0  0  0  0  0  0  0
  -27.6269  -13.0872   19.7164 C   0  0  2  0  0  0  0  0  0  0  0  0
  -26.1917  -19.6030   16.1575 C   0  0  0  0  0  0  0  0  0  0  0  0
  -25.5191  -32.8596   18.8689 C   0  0  0  0  0  0  0  0  0  0  0  0
  -28.3604  -28.2898   15.0070 C   0  0  0  0  0  0  0  0  0  0  0  0
  -28.5764  -30.3691   16.3846 C   0  0  0  0  0  0  0  0  0  0  0  0
  -27.0771  -30.3461   14.3911 C   0  0  0  0  0  0  0  0  0  0  0  0
  -29.0631  -18.0777   17.7299 C   0  0  0  0  0  0  0  0  0  0  0  0
  -22.8749  -30.2856   19.7957 C   0  0  0  0  0  0  0  0  0  0  0  0
  -29.0745  -18.3381   20.7305 C   0  0  0  0  0  0  0  0  0  0  0  0
  -28.3765  -21.5240   21.3689 C   0  0  0  0  0  0  0  0  0  0  0  0
  -28.4323  -20.7707   16.4235 C   0  0  0  0  0  0  0  0  0  0  0  0
  -26.9740  -20.8895   15.9459 C   0  0  0  0  0  0  0  0  0  0  0  0
  -30.5725  -17.9769   20.9069 C   0  0  0  0  0  0  0  0  0  0  0  0
  -27.0569  -21.2604   22.0974 C   0  0  0  0  0  0  0  0  0  0  0  0
  -30.8241  -16.8375   21.8921 C   0  0  0  0  0  0  0  0  0  0  0  0
  -25.8327  -21.7206   21.3145 C   0  0  0  0  0  0  0  0  0  1  0  0
  -26.3903  -29.0869   16.4732 C   0  0  1  0  0  0  0  0  0  0  0  0
  -24.6333  -31.6424   18.6530 C   0  0  2  0  0  0  0  0  0  0  0  0
  -27.5911  -29.4989   15.5755 C   0  0  0  0  0  0  0  0  0  0  0  0
  -25.8081  -11.5359   20.3230 N   0  0  0  0  0  0  0  0  0  0  0  0
  -28.8043  -19.3108   18.4495 N   0  0  0  0  0  0  0  0  0  0  0  0
  -26.2067  -12.8106   20.1740 N   0  0  0  0  0  0  0  0  0  0  0  0
  -28.3514  -21.3809   18.8554 N   0  3  0  0  0  0  0  0  0  0  0  0
  -25.1851  -26.9341   16.2810 N   0  0  0  0  0  0  0  0  0  0  0  0
  -29.9520  -13.5359   20.4101 N   0  0  0  0  0  0  0  0  0  0  0  0
  -25.4730  -15.0543   20.3702 N   0  0  0  0  0  0  0  0  0  0  0  0
  -21.8365  -12.6602   21.5703 N   0  0  0  0  0  0  0  0  0  0  0  0
  -24.8924  -24.7097   13.5068 N   0  0  0  0  0  0  0  0  0  0  0  0
  -25.6271  -30.2115   17.0035 N   0  0  0  0  0  0  0  0  0  0  0  0
  -30.1442  -15.6189   21.5137 N   0  0  0  0  0  0  0  0  0  0  0  0
  -23.8100  -31.4370   19.8781 N   0  3  0  0  0  0  0  0  0  0  0  0
  -22.6490  -14.7817   21.2576 O   0  0  0  0  0  0  0  0  0  0  0  0
  -26.4686  -24.8792   15.2124 O   0  0  0  0  0  0  0  0  0  0  0  0
  -24.8337  -28.6467   14.7383 O   0  0  0  0  0  0  0  0  0  0  0  0
  -25.9137  -29.6802   19.2424 O   0  0  0  0  0  0  0  0  0  0  0  0
  -31.8811  -14.8132   20.2523 O   0  0  0  0  0  0  0  0  0  0  0  0
  -21.4738   -7.1052   21.7833 O   0  0  0  0  0  0  0  0  0  0  0  0
  -25.9449  -23.1223   21.0711 O   0  0  0  0  0  0  0  0  0  1  0  0
  -23.8097   -3.0703   24.7272 F   0  0  0  0  0  0  0  0  0  0  0  0
  -20.3880   -6.2972   24.1938 F   0  0  0  0  0  0  0  0  0  0  0  0
  1  2  1  0  0  0  0
  1  5  2  0  0  0  0
  2  6  2  0  0  0  0
  3  8  2  0  0  0  0
  3 15  1  0  0  0  0
  4  9  1  0  0  0  0
  4 15  2  0  0  0  0
  5 17  1  0  0  0  0
  6 19  1  0  0  0  0
  7 10  2  0  0  0  0
  7 18  1  0  0  0  0
  8 21  1  0  0  0  0
  9 21  2  0  0  0  0
 10 22  1  0  0  0  0
 11 12  2  0  0  0  0
 11 23  1  0  0  0  0
 12 24  1  0  0  0  0
 13 20  1  0  0  0  0
 13 22  2  0  0  0  0
 14 24  2  0  0  0  0
 14 25  1  0  0  0  0
 15 26  1  0  0  0  0
 16 26  1  0  0  0  0
 16 29  2  0  0  0  0
 16 31  1  0  0  0  0
 17 19  2  0  0  0  0
 17 36  1  0  0  0  0
 18 20  2  0  0  0  0
 18 37  1  0  0  0  0
 19 45  1  0  0  0  0
 20 38  1  0  0  0  0
 21 83  1  0  0  0  0
 22 84  1  0  0  0  0
 23 25  2  0  0  0  0
 23 83  1  0  0  0  0
 24 85  1  0  0  0  0
 25 86  1  0  0  0  0
 26 66  2  0  0  0  0
 27 28  2  0  0  0  0
 27 55  1  0  0  0  0
 27 67  1  0  0  0  0
 28 56  1  0  0  0  0
 28 69  1  0  0  0  0
 29 68  1  0  0  0  0
 29 72  1  0  0  0  0
 30 57  1  0  0  0  0
 30 67  1  0  0  0  0
 30 69  2  0  0  0  0
 31 73  1  0  0  0  0
 31 78  2  0  0  0  0
 32 46  1  0  0  0  0
 32 74  1  0  0  0  0
 32 79  2  0  0  0  0
 33 63  1  0  0  0  0
 33 70  1  0  0  0  0
 33 80  2  0  0  0  0
 34 64  1  0  0  0  0
 34 75  1  0  0  0  0
 34 81  2  0  0  0  0
 35 71  1  0  0  0  0
 35 76  1  0  0  0  0
 35 82  2  0  0  0  0
 36 39  1  0  0  0  0
 37 46  1  0  0  0  0
 38 70  1  0  0  0  0
 39 41  1  0  0  0  0
 40 42  1  0  0  0  0
 40 43  1  0  0  0  0
 41 45  1  0  0  0  0
 42 47  1  0  0  0  0
 43 71  1  0  0  0  0
 44 47  1  0  0  0  0
 44 71  1  0  0  0  0
 45 74  1  0  0  0  0
 46 70  1  0  0  0  0
 47 68  1  0  0  0  0
 48 58  1  0  0  0  0
 49 64  1  0  0  0  0
 50 65  1  0  0  0  0
 51 65  1  0  0  0  0
 52 65  1  0  0  0  0
 53 67  1  0  0  0  0
 54 77  1  0  0  0  0
 55 59  1  0  0  0  0
 56 60  1  0  0  0  0
 57 58  1  0  0  0  0
 59 61  1  0  0  0  0
 60 62  1  0  0  0  0
 61 76  1  0  0  0  0
 62 84  1  0  0  0  0
 63 65  1  0  0  0  0
 63 75  1  0  0  0  0
 64 77  1  0  0  0  0
 66 68  1  0  0  0  0
M  CHG  2  69   1  77   1
M  ISO  4  35 100  62 101  76 100  84 101
M  END
> <Batch ID>
0043

> <Smiles>
CCCc1nc(CC[101CH2:1][101O:1]c2ccc3c(c2)CN(C(=O)C(NC(=O)C(C)NC)C(C)(C)C)C(C(=O)NC2CCCc4ccccc42)C3)c(CCC[100NH:0][100C:0](=O)N2CCCC(n3nc(-c4ccc(Oc5ccc(F)cc5F)cc4)c(C(N)=O)c3N)C2)n1C

> <Shape>
0.238

> <Color>
0.193

> <Negative vol penalty>
0.000

$$$$

  -OEChem-04052317143D

 86 95  0     1  0  0  0  0  0999 V2000
  -24.8293  -10.6810   20.6604 C   0  0  0  0  0  0  0  0  0  0  0  0
  -23.7678  -11.5677   20.5106 C   0  0  0  0  0  0  0  0  0  0  0  0
  -31.5169  -24.8313   19.5221 C   0  0  0  0  0  0  0  0  0  0  0  0
  -32.0368  -26.4418   21.2463 C   0  0  0  0  0  0  0  0  0  0  0  0
  -26.0756  -11.1508   21.0728 C   0  0  0  0  0  0  0  0  0  0  0  0
  -23.9517  -12.9246   20.7742 C   0  0  0  0  0  0  0  0  0  0  0  0
  -21.7208  -19.3824   18.6210 C   0  0  0  0  0  0  0  0  0  0  0  0
  -22.0724  -27.4658   24.0941 C   0  0  0  0  0  0  0  0  0  0  0  0
  -21.0766  -26.4853   24.0334 C   0  0  0  0  0  0  0  0  0  0  0  0
  -32.8743  -24.7114   19.2246 C   0  0  0  0  0  0  0  0  0  0  0  0
  -33.3943  -26.3219   20.9489 C   0  0  0  0  0  0  0  0  0  0  0  0
  -21.1923  -20.5659   19.1347 C   0  0  0  0  0  0  0  0  0  0  0  0
  -35.2130  -26.4547   17.5169 C   0  0  0  0  0  0  0  0  0  0  0  0
  -35.5844  -26.4646   16.1725 C   0  0  0  0  0  0  0  0  0  0  0  0
  -23.4101  -21.2756   19.7648 C   0  0  0  0  0  0  0  0  0  0  0  0
  -20.7305  -29.0141   22.7787 C   0  0  0  0  0  0  0  0  0  0  0  0
  -36.5457  -24.2621   16.4218 C   0  0  0  0  0  0  0  0  0  0  0  0
  -31.0981  -25.6965   20.5329 C   0  0  0  0  0  0  0  0  0  0  0  0
  -28.9588  -25.0638   21.7702 C   0  0  0  0  0  0  0  0  0  0  0  0
  -26.2774  -12.5156   21.3322 C   0  0  0  0  0  0  0  0  0  0  0  0
  -23.0989  -19.1314   18.6853 C   0  0  0  0  0  0  0  0  0  0  0  0
  -25.2015  -13.4128   21.1917 C   0  0  0  0  0  0  0  0  0  0  0  0
  -23.9538  -20.0893   19.2489 C   0  0  0  0  0  0  0  0  0  0  0  0
  -21.9045  -28.7084   23.4787 C   0  0  0  0  0  0  0  0  0  0  0  0
  -19.7197  -28.0407   22.7074 C   0  0  0  0  0  0  0  0  0  0  0  0
  -19.9161  -26.8117   23.3309 C   0  0  0  0  0  0  0  0  0  0  0  0
  -33.8131  -25.4567   19.9380 C   0  0  0  0  0  0  0  0  0  0  0  0
  -22.0366  -21.5114   19.7093 C   0  0  0  0  0  0  0  0  0  0  0  0
  -35.5079  -25.3485   18.3139 C   0  0  0  0  0  0  0  0  0  0  0  0
  -36.2508  -25.3683   15.6249 C   0  0  0  0  0  0  0  0  0  0  0  0
  -36.1742  -24.2522   17.7663 C   0  0  0  0  0  0  0  0  0  0  0  0
  -29.6959  -25.8212   20.8402 C   0  0  0  0  0  0  0  0  0  0  0  0
  -27.6830  -25.5656   21.6874 C   0  0  0  0  0  0  0  0  0  0  0  0
  -17.9448  -26.9146   22.3319 C   0  0  0  0  0  0  0  0  0  0  0  0
  -29.3890  -24.0017   22.6319 C   0  0  0  0  0  0  0  0  0  0  0  0
  -24.9144  -16.9235   20.0757 C   0  0  0  0  0  0  0  0  0  0  0  0
  -27.2904  -18.4047   18.4378 C   0  0  0  0  0  0  0  0  0  0  0  0
  -28.4282  -21.2377   16.9124 C   0  0  0  0  0  0  0  0  0  0  0  0
  -24.1623  -29.8852   21.3858 C   0  0  0  0  0  0  0  0  0  0  0  0
  -27.6300  -12.9693   21.8213 C   0  0  0  0  0  0  0  0  0  0  0  0
  -23.6564  -17.8617   18.1026 C   0  0  0  0  0  0  0  0  0  0  0  0
  -25.4430  -19.8768   19.3240 C   0  0  0  0  0  0  0  0  0  0  0  0
  -27.8401  -14.4778   21.7190 C   0  0  0  0  0  0  0  0  0  0  0  0
  -25.6028  -28.7358   18.3394 C   0  0  0  0  0  0  0  0  0  0  0  0
  -26.6245  -15.2240   22.2596 C   0  0  0  0  0  0  0  0  0  0  0  0
  -26.7386  -27.8181   18.7953 C   0  0  0  0  0  0  0  0  0  0  0  0
  -25.4431  -29.9391   19.2661 C   0  0  0  0  0  0  0  0  0  0  0  0
  -26.4217  -28.6868   21.1497 C   0  0  0  0  0  0  0  0  0  0  0  0
  -25.3680  -14.8956   21.4442 C   0  0  1  0  0  0  0  0  0  0  0  0
  -25.0147  -17.4830   18.6848 C   0  0  1  0  0  0  0  0  0  0  0  0
  -26.5850  -27.4299   20.2781 C   0  0  2  0  0  0  0  0  0  0  0  0
  -16.6109  -26.4705   21.8777 C   0  0  0  0  0  0  0  0  0  0  0  0
  -30.4226  -22.1551   15.6967 C   0  0  0  0  0  0  0  0  0  0  0  0
  -28.7775  -18.6770   21.0881 C   0  0  0  0  0  0  0  0  0  0  0  0
  -30.2508  -20.3877   20.0058 C   0  0  0  0  0  0  0  0  0  0  0  0
  -30.2183  -18.0473   19.1434 C   0  0  0  0  0  0  0  0  0  0  0  0
  -26.8504  -21.7312   14.4576 C   0  0  0  0  0  0  0  0  0  0  0  0
  -22.9915  -29.7283   23.5684 C   0  0  0  0  0  0  0  0  0  0  0  0
  -18.6519  -23.6463   22.4404 C   0  0  0  0  0  0  0  0  0  0  0  0
  -20.0546  -23.6581   21.8308 C   0  0  0  0  0  0  0  0  0  0  0  0
  -18.4627  -24.7066   23.5312 C   0  0  0  0  0  0  0  0  0  0  0  0
  -20.1940  -22.6168   20.7285 C   0  0  0  0  0  0  0  0  0  1  0  0
  -28.2305  -19.5514   18.7212 C   0  0  1  0  0  0  0  0  0  0  0  0
  -29.0764  -21.4615   15.5580 C   0  0  2  0  0  0  0  0  0  0  0  0
  -29.3411  -19.1693   19.7401 C   0  0  0  0  0  0  0  0  0  0  0  0
  -18.4897  -28.0862   22.0923 N   0  0  0  0  0  0  0  0  0  0  0  0
  -28.9503  -26.7346   20.2126 N   0  0  0  0  0  0  0  0  0  0  0  0
  -18.7652  -26.1116   23.0745 N   0  0  0  0  0  0  0  0  0  0  0  0
  -27.7314  -26.5543   20.7492 N   0  0  0  0  0  0  0  0  0  0  0  0
  -25.9393  -18.6169   18.7463 N   0  0  0  0  0  0  0  0  0  0  0  0
  -25.3004  -29.5023   20.6571 N   0  0  0  0  0  0  0  0  0  0  0  0
  -26.5356  -25.2531   22.3263 N   0  0  0  0  0  0  0  0  0  0  0  0
  -30.7343  -23.6108   22.5902 N   0  0  0  0  0  0  0  0  0  0  0  0
  -25.3718  -15.6250   20.1942 N   0  0  0  0  0  0  0  0  0  0  0  0
  -28.7349  -19.9954   17.4263 N   0  0  0  0  0  0  0  0  0  0  0  0
  -24.1027  -29.4233   22.6949 N   0  0  0  0  0  0  0  0  0  0  0  0
  -28.1996  -22.3049   14.6973 N   0  3  0  0  0  0  0  0  0  0  0  0
  -28.6001  -23.4055   23.4037 O   0  0  0  0  0  0  0  0  0  0  0  0
  -24.4573  -17.6190   20.9752 O   0  0  0  0  0  0  0  0  0  0  0  0
  -27.7373  -17.3619   17.9536 O   0  0  0  0  0  0  0  0  0  0  0  0
  -27.7236  -22.0819   17.4613 O   0  0  0  0  0  0  0  0  0  0  0  0
  -23.2632  -30.5825   20.9037 O   0  0  0  0  0  0  0  0  0  0  0  0
  -35.1378  -25.3398   19.6482 O   0  0  0  0  0  0  0  0  0  0  0  0
  -21.5234  -22.6671   20.2120 O   0  0  0  0  0  0  0  0  0  1  0  0
  -36.6060  -25.3773   14.3335 F   0  0  0  0  0  0  0  0  0  0  0  0
  -36.4593  -23.1861   18.5266 F   0  0  0  0  0  0  0  0  0  0  0  0
  1  2  1  0  0  0  0
  1  5  2  0  0  0  0
  2  6  2  0  0  0  0
  3 10  2  0  0  0  0
  3 18  1  0  0  0  0
  4 11  1  0  0  0  0
  4 18  2  0  0  0  0
  5 20  1  0  0  0  0
  6 22  1  0  0  0  0
  7 12  2  0  0  0  0
  7 21  1  0  0  0  0
  8  9  2  0  0  0  0
  8 24  1  0  0  0  0
  9 26  1  0  0  0  0
 10 27  1  0  0  0  0
 11 27  2  0  0  0  0
 12 28  1  0  0  0  0
 13 14  2  0  0  0  0
 13 29  1  0  0  0  0
 14 30  1  0  0  0  0
 15 23  1  0  0  0  0
 15 28  2  0  0  0  0
 16 24  2  0  0  0  0
 16 25  1  0  0  0  0
 17 30  2  0  0  0  0
 17 31  1  0  0  0  0
 18 32  1  0  0  0  0
 19 32  1  0  0  0  0
 19 33  2  0  0  0  0
 19 35  1  0  0  0  0
 20 22  2  0  0  0  0
 20 40  1  0  0  0  0
 21 23  2  0  0  0  0
 21 41  1  0  0  0  0
 22 49  1  0  0  0  0
 23 42  1  0  0  0  0
 24 58  1  0  0  0  0
 25 26  2  0  0  0  0
 25 66  1  0  0  0  0
 26 68  1  0  0  0  0
 27 83  1  0  0  0  0
 28 84  1  0  0  0  0
 29 31  2  0  0  0  0
 29 83  1  0  0  0  0
 30 85  1  0  0  0  0
 31 86  1  0  0  0  0
 32 67  2  0  0  0  0
 33 69  1  0  0  0  0
 33 72  1  0  0  0  0
 34 52  1  0  0  0  0
 34 66  2  0  0  0  0
 34 68  1  0  0  0  0
 35 73  1  0  0  0  0
 35 78  2  0  0  0  0
 36 50  1  0  0  0  0
 36 74  1  0  0  0  0
 36 79  2  0  0  0  0
 37 63  1  0  0  0  0
 37 70  1  0  0  0  0
 37 80  2  0  0  0  0
 38 64  1  0  0  0  0
 38 75  1  0  0  0  0
 38 81  2  0  0  0  0
 39 71  1  0  0  0  0
 39 76  1  0  0  0  0
 39 82  2  0  0  0  0
 40 43  1  0  0  0  0
 41 50  1  0  0  0  0
 42 70  1  0  0  0  0
 43 45  1  0  0  0  0
 44 46  1  0  0  0  0
 44 47  1  0  0  0  0
 45 49  1  0  0  0  0
 46 51  1  0  0  0  0
 47 71  1  0  0  0  0
 48 51  1  0  0  0  0
 48 71  1  0  0  0  0
 49 74  1  0  0  0  0
 50 70  1  0  0  0  0
 51 69  1  0  0  0  0
 53 64  1  0  0  0  0
 54 65  1  0  0  0  0
 55 65  1  0  0  0  0
 56 65  1  0  0  0  0
 57 77  1  0  0  0  0
 58 76  1  0  0  0  0
 59 60  1  0  0  0  0
 59 61  1  0  0  0  0
 60 62  1  0  0  0  0
 61 68  1  0  0  0  0
 62 84  1  0  0  0  0
 63 65  1  0  0  0  0
 63 75  1  0  0  0  0
 64 77  1  0  0  0  0
 67 69  1  0  0  0  0
M  CHG  1  77   1
M  ISO  4  39 100  62 101  76 100  84 101
M  END
> <Batch ID>
0043

> <Smiles>
CNC(C)C(=O)NC(C(=O)N1Cc2cc([101O:1][101CH2:1]CCCn3c(C)nc4cc(C[100NH:0][100C:0](=O)N5CCCC(n6nc(-c7ccc(Oc8ccc(F)cc8F)cc7)c(C(N)=O)c6N)C5)ccc43)ccc2CC1C(=O)NC1CCCc2ccccc21)C(C)(C)C

> <Shape>
0.205

> <Color>
0.067

> <Negative vol penalty>
0.000

$$$$

  -OEChem-04052317143D

 90 98  0     1  0  0  0  0  0999 V2000
  -16.4814  -29.0136   25.7752 C   0  0  0  0  0  0  0  0  0  0  0  0
  -17.3396  -28.0281   26.2524 C   0  0  0  0  0  0  0  0  0  0  0  0
  -25.0900  -13.2294   21.9834 C   0  0  0  0  0  0  0  0  0  0  0  0
  -25.3866  -13.7649   19.6463 C   0  0  0  0  0  0  0  0  0  0  0  0
  -16.6362  -29.5030   24.4789 C   0  0  0  0  0  0  0  0  0  0  0  0
  -18.3524  -27.5307   25.4332 C   0  0  0  0  0  0  0  0  0  0  0  0
  -25.0310  -24.9590   25.7491 C   0  0  0  0  0  0  0  0  0  0  0  0
  -25.0314  -11.8726   21.6652 C   0  0  0  0  0  0  0  0  0  0  0  0
  -25.3281  -12.4080   19.3280 C   0  0  0  0  0  0  0  0  0  0  0  0
  -25.7818  -23.8582   25.3389 C   0  0  0  0  0  0  0  0  0  0  0  0
  -24.4438   -8.2919   21.4268 C   0  0  0  0  0  0  0  0  0  0  0  0
  -23.4448   -7.5259   22.0274 C   0  0  0  0  0  0  0  0  0  0  0  0
  -26.0041  -24.8352   23.1445 C   0  0  0  0  0  0  0  0  0  0  0  0
  -21.7595   -8.9337   21.0200 C   0  0  0  0  0  0  0  0  0  0  0  0
  -25.2675  -14.1756   20.9740 C   0  0  0  0  0  0  0  0  0  0  0  0
  -26.4755  -16.3277   21.6194 C   0  0  0  0  0  0  0  0  0  0  0  0
  -17.6575  -29.0182   23.6467 C   0  0  0  0  0  0  0  0  0  0  0  0
  -24.7514  -26.0028   24.8554 C   0  0  0  0  0  0  0  0  0  0  0  0
  -18.5202  -28.0131   24.1241 C   0  0  0  0  0  0  0  0  0  0  0  0
  -25.2517  -25.9493   23.5466 C   0  0  0  0  0  0  0  0  0  0  0  0
  -25.1505  -11.4619   20.3375 C   0  0  0  0  0  0  0  0  0  0  0  0
  -26.2660  -23.7948   24.0356 C   0  0  0  0  0  0  0  0  0  0  0  0
  -24.1007   -9.3790   20.6228 C   0  0  0  0  0  0  0  0  0  0  0  0
  -22.1027   -7.8468   21.8240 C   0  0  0  0  0  0  0  0  0  0  0  0
  -22.7586   -9.6998   20.4194 C   0  0  0  0  0  0  0  0  0  0  0  0
  -25.3275  -15.5773   21.3020 C   0  0  0  0  0  0  0  0  0  0  0  0
  -29.8140  -21.8500   20.3658 C   0  0  0  0  0  0  0  0  0  0  0  0
  -29.5599  -22.7616   19.3684 C   0  0  0  0  0  0  0  0  0  0  0  0
  -26.0034  -17.5968   21.8494 C   0  0  0  0  0  0  0  0  0  0  0  0
  -29.2665  -20.6940   18.6645 C   0  0  0  0  0  0  0  0  0  0  0  0
  -27.8461  -15.9145   21.6992 C   0  0  0  0  0  0  0  0  0  0  0  0
  -22.1007  -27.2507   23.6225 C   0  0  0  0  0  0  0  0  0  0  0  0
  -24.1645  -29.4296   22.3916 C   0  0  0  0  0  0  0  0  0  0  0  0
  -27.3492  -30.1766   21.4187 C   0  0  0  0  0  0  0  0  0  0  0  0
  -22.7410  -21.9035   20.4512 C   0  0  0  0  0  0  0  0  0  0  0  0
  -17.7559  -29.5442   22.2366 C   0  0  0  0  0  0  0  0  0  0  0  0
  -23.9627  -27.1959   25.3213 C   0  0  0  0  0  0  0  0  0  0  0  0
  -24.9966  -27.0534   22.5544 C   0  0  0  0  0  0  0  0  0  0  0  0
  -19.0890  -29.2317   21.5616 C   0  0  0  0  0  0  0  0  0  0  0  0
  -21.2717  -19.3020   22.3878 C   0  0  0  0  0  0  0  0  0  0  0  0
  -19.4694  -27.7710   21.7819 C   0  0  0  0  0  0  0  0  0  0  0  0
  -22.2873  -18.1616   22.2988 C   0  0  0  0  0  0  0  0  0  0  0  0
  -21.1831  -20.0823   21.0781 C   0  0  0  0  0  0  0  0  0  0  0  0
  -23.4879  -19.4463   20.4804 C   0  0  0  0  0  0  0  0  0  0  0  0
  -19.6465  -27.4660   23.2742 C   0  0  1  0  0  0  0  0  0  0  0  0
  -23.3035  -27.9601   24.1772 C   0  0  1  0  0  0  0  0  0  0  0  0
  -23.6533  -18.6652   21.7952 C   0  0  2  0  0  0  0  0  0  0  0  0
  -29.6143  -24.2344   19.3451 C   0  0  0  0  0  0  0  0  0  0  0  0
  -30.2883  -15.9535   17.3207 C   0  0  0  0  0  0  0  0  0  0  0  0
  -28.7208  -32.0238   20.4167 C   0  0  0  0  0  0  0  0  0  0  0  0
  -22.9729  -28.8234   19.6489 C   0  0  0  0  0  0  0  0  0  0  0  0
  -24.9621  -29.9383   18.6154 C   0  0  0  0  0  0  0  0  0  0  0  0
  -23.4221  -31.2457   20.0788 C   0  0  0  0  0  0  0  0  0  0  0  0
  -29.0926  -30.3337   23.8051 C   0  0  0  0  0  0  0  0  0  0  0  0
  -30.2425  -22.1112   21.7877 C   0  0  0  0  0  0  0  0  0  0  0  0
  -28.9433  -19.5909   17.7362 C   0  0  0  0  0  0  0  0  0  0  0  0
  -29.4487  -17.1894   17.0394 C   0  0  0  0  0  0  0  0  0  0  0  0
  -29.1159  -21.9484   22.8104 C   0  0  0  0  0  0  0  0  0  0  0  0
  -29.7560  -18.3129   18.0295 C   0  0  0  0  0  0  0  0  0  0  0  0
  -26.5179  -23.2748   17.6989 C   0  0  0  0  0  0  0  0  0  0  0  0
  -25.0226  -23.1999   17.3806 C   0  0  0  0  0  0  0  0  0  0  0  0
  -27.3403  -22.4598   16.6957 C   0  0  0  0  0  0  0  0  0  0  0  0
  -24.2032  -24.0389   18.3657 C   0  0  0  0  0  0  0  0  0  0  0  0
  -28.8462  -22.5048   16.9779 C   0  0  0  0  0  0  0  0  0  0  0  0
  -24.4206  -23.6162   19.8152 C   0  0  0  0  0  0  0  0  0  0  0  0
  -27.9801  -22.9472   22.6216 C   0  0  0  0  0  0  0  0  0  1  0  0
  -24.9704  -29.5394   21.1197 C   0  0  1  0  0  0  0  0  0  0  0  0
  -28.2344  -31.3765   21.7040 C   0  0  2  0  0  0  0  0  0  0  0  0
  -24.0852  -29.8648   19.8836 C   0  0  0  0  0  0  0  0  0  0  0  0
  -24.2101  -16.3087   21.3272 N   0  0  0  0  0  0  0  0  0  0  0  0
  -29.6298  -20.5647   19.9212 N   0  0  0  0  0  0  0  0  0  0  0  0
  -29.2108  -22.0062   18.2846 N   0  0  0  0  0  0  0  0  0  0  0  0
  -24.6538  -17.5319   21.6633 N   0  0  0  0  0  0  0  0  0  0  0  0
  -24.2150  -28.1958   23.0558 N   0  0  0  0  0  0  0  0  0  0  0  0
  -22.5117  -20.5330   20.6565 N   0  0  0  0  0  0  0  0  0  0  0  0
  -26.6151  -18.7508   22.1907 N   0  0  0  0  0  0  0  0  0  0  0  0
  -28.1565  -14.5741   21.4322 N   0  0  0  0  0  0  0  0  0  0  0  0
  -20.9223  -27.9623   23.7436 N   0  0  0  0  0  0  0  0  0  0  0  0
  -26.0152  -30.5233   21.3822 N   0  0  0  0  0  0  0  0  0  0  0  0
  -24.0293  -22.2457   20.0588 N   0  0  0  0  0  0  0  0  0  0  0  0
  -29.4239  -30.9646   22.5016 N   0  3  0  0  0  0  0  0  0  0  0  0
  -28.7662  -16.7067   22.0143 O   0  0  0  0  0  0  0  0  0  0  0  0
  -22.2322  -26.1406   23.1203 O   0  0  0  0  0  0  0  0  0  0  0  0
  -23.5199  -30.4049   22.7852 O   0  0  0  0  0  0  0  0  0  0  0  0
  -27.7968  -29.0457   21.2420 O   0  0  0  0  0  0  0  0  0  0  0  0
  -21.8641  -22.7593   20.6112 O   0  0  0  0  0  0  0  0  0  0  0  0
  -25.0937  -10.1380   20.0266 O   0  0  0  0  0  0  0  0  0  0  0  0
  -26.9985  -22.7211   23.6324 O   0  0  0  0  0  0  0  0  0  1  0  0
  -21.1434   -7.1101   22.3996 F   0  0  0  0  0  0  0  0  0  0  0  0
  -22.4228  -10.7422   19.6471 F   0  0  0  0  0  0  0  0  0  0  0  0
  1  2  1  0  0  0  0
  1  5  2  0  0  0  0
  2  6  2  0  0  0  0
  3  8  2  0  0  0  0
  3 15  1  0  0  0  0
  4  9  1  0  0  0  0
  4 15  2  0  0  0  0
  5 17  1  0  0  0  0
  6 19  1  0  0  0  0
  7 10  2  0  0  0  0
  7 18  1  0  0  0  0
  8 21  1  0  0  0  0
  9 21  2  0  0  0  0
 10 22  1  0  0  0  0
 11 12  2  0  0  0  0
 11 23  1  0  0  0  0
 12 24  1  0  0  0  0
 13 20  1  0  0  0  0
 13 22  2  0  0  0  0
 14 24  2  0  0  0  0
 14 25  1  0  0  0  0
 15 26  1  0  0  0  0
 16 26  1  0  0  0  0
 16 29  2  0  0  0  0
 16 31  1  0  0  0  0
 17 19  2  0  0  0  0
 17 36  1  0  0  0  0
 18 20  2  0  0  0  0
 18 37  1  0  0  0  0
 19 45  1  0  0  0  0
 20 38  1  0  0  0  0
 21 87  1  0  0  0  0
 22 88  1  0  0  0  0
 23 25  2  0  0  0  0
 23 87  1  0  0  0  0
 24 89  1  0  0  0  0
 25 90  1  0  0  0  0
 26 70  2  0  0  0  0
 27 28  2  0  0  0  0
 27 55  1  0  0  0  0
 27 71  1  0  0  0  0
 28 48  1  0  0  0  0
 28 72  1  0  0  0  0
 29 73  1  0  0  0  0
 29 76  1  0  0  0  0
 30 56  1  0  0  0  0
 30 71  2  0  0  0  0
 30 72  1  0  0  0  0
 31 77  1  0  0  0  0
 31 82  2  0  0  0  0
 32 46  1  0  0  0  0
 32 78  1  0  0  0  0
 32 83  2  0  0  0  0
 33 67  1  0  0  0  0
 33 74  1  0  0  0  0
 33 84  2  0  0  0  0
 34 68  1  0  0  0  0
 34 79  1  0  0  0  0
 34 85  2  0  0  0  0
 35 75  1  0  0  0  0
 35 80  1  0  0  0  0
 35 86  2  0  0  0  0
 36 39  1  0  0  0  0
 37 46  1  0  0  0  0
 38 74  1  0  0  0  0
 39 41  1  0  0  0  0
 40 42  1  0  0  0  0
 40 43  1  0  0  0  0
 41 45  1  0  0  0  0
 42 47  1  0  0  0  0
 43 75  1  0  0  0  0
 44 47  1  0  0  0  0
 44 75  1  0  0  0  0
 45 78  1  0  0  0  0
 46 74  1  0  0  0  0
 47 73  1  0  0  0  0
 49 57  1  0  0  0  0
 50 68  1  0  0  0  0
 51 69  1  0  0  0  0
 52 69  1  0  0  0  0
 53 69  1  0  0  0  0
 54 81  1  0  0  0  0
 55 58  1  0  0  0  0
 56 59  1  0  0  0  0
 57 59  1  0  0  0  0
 58 66  1  0  0  0  0
 60 61  1  0  0  0  0
 60 62  1  0  0  0  0
 61 63  1  0  0  0  0
 62 64  1  0  0  0  0
 63 65  1  0  0  0  0
 64 72  1  0  0  0  0
 65 80  1  0  0  0  0
 66 88  1  0  0  0  0
 67 69  1  0  0  0  0
 67 79  1  0  0  0  0
 68 81  1  0  0  0  0
 70 73  1  0  0  0  0
M  CHG  1  81   1
M  ISO  4  35 100  66 101  80 100  88 101
M  END
> <Batch ID>
0043

> <Smiles>
CCCCc1nc(CC[101CH2:1][101O:1]c2ccc3c(c2)CN(C(=O)C(NC(=O)C(C)NC)C(C)(C)C)C(C(=O)NC2CCCc4ccccc42)C3)c(C)n1CCCCCC[100NH:0][100C:0](=O)N1CCCC(n2nc(-c3ccc(Oc4ccc(F)cc4F)cc3)c(C(N)=O)c2N)C1

> <Shape>
0.227

> <Color>
0.058

> <Negative vol penalty>
0.000

$$$$

  -OEChem-04052317143D

 85 93  0     1  0  0  0  0  0999 V2000
  -30.3582  -34.8913   21.0493 C   0  0  0  0  0  0  0  0  0  0  0  0
  -30.6137  -33.5248   20.9978 C   0  0  0  0  0  0  0  0  0  0  0  0
  -24.4925   -9.1525   21.4535 C   0  0  0  0  0  0  0  0  0  0  0  0
  -22.6150  -10.3191   20.4783 C   0  0  0  0  0  0  0  0  0  0  0  0
  -29.1551  -35.3548   21.5800 C   0  0  0  0  0  0  0  0  0  0  0  0
  -29.6667  -32.6209   21.4780 C   0  0  0  0  0  0  0  0  0  0  0  0
  -28.4403  -27.0466   19.2579 C   0  0  0  0  0  0  0  0  0  0  0  0
  -23.7026   -8.0139   21.6123 C   0  0  0  0  0  0  0  0  0  0  0  0
  -21.8251   -9.1805   20.6370 C   0  0  0  0  0  0  0  0  0  0  0  0
  -28.8447  -25.7711   19.6496 C   0  0  0  0  0  0  0  0  0  0  0  0
  -21.3298   -6.9072   23.7499 C   0  0  0  0  0  0  0  0  0  0  0  0
  -21.4015   -6.2344   24.9697 C   0  0  0  0  0  0  0  0  0  0  0  0
  -26.8044  -25.5184   20.9116 C   0  0  0  0  0  0  0  0  0  0  0  0
  -22.1513   -4.2422   23.8269 C   0  0  0  0  0  0  0  0  0  0  0  0
  -23.9487  -10.3052   20.8866 C   0  0  0  0  0  0  0  0  0  0  0  0
  -25.5535  -11.8206   19.6077 C   0  0  0  0  0  0  0  0  0  0  0  0
  -28.1888  -34.4558   22.0581 C   0  0  0  0  0  0  0  0  0  0  0  0
  -27.2178  -27.5727   19.6997 C   0  0  0  0  0  0  0  0  0  0  0  0
  -28.4501  -33.0729   22.0168 C   0  0  0  0  0  0  0  0  0  0  0  0
  -26.3856  -26.7998   20.5220 C   0  0  0  0  0  0  0  0  0  0  0  0
  -22.3689   -8.0279   21.2040 C   0  0  0  0  0  0  0  0  0  0  0  0
  -28.0280  -25.0080   20.4789 C   0  0  0  0  0  0  0  0  0  0  0  0
  -21.6688   -6.2474   22.5686 C   0  0  0  0  0  0  0  0  0  0  0  0
  -21.8123   -4.9020   25.0082 C   0  0  0  0  0  0  0  0  0  0  0  0
  -22.0796   -4.9150   22.6071 C   0  0  0  0  0  0  0  0  0  0  0  0
  -24.7640  -11.4818   20.7229 C   0  0  0  0  0  0  0  0  0  0  0  0
  -25.5612  -21.6046   19.0687 C   0  0  0  0  0  0  0  0  0  0  0  0
  -27.1783  -19.8593   20.2795 C   0  0  0  0  0  0  0  0  0  0  0  0
  -25.1103  -20.3570   19.4398 C   0  0  0  0  0  0  0  0  0  0  0  0
  -27.6295  -21.1066   19.9078 C   0  0  0  0  0  0  0  0  0  0  0  0
  -26.1250  -13.0234   19.9442 C   0  0  0  0  0  0  0  0  0  0  0  0
  -25.7525  -11.1115   18.3775 C   0  0  0  0  0  0  0  0  0  0  0  0
  -26.3578  -30.0798   21.4544 C   0  0  0  0  0  0  0  0  0  0  0  0
  -23.3657  -29.1448   20.6204 C   0  0  0  0  0  0  0  0  0  0  0  0
  -21.2945  -26.6319   19.5996 C   0  0  0  0  0  0  0  0  0  0  0  0
  -24.5092  -17.3959   23.7021 C   0  0  0  0  0  0  0  0  0  0  0  0
  -26.9231  -35.0062   22.6662 C   0  0  0  0  0  0  0  0  0  0  0  0
  -26.7839  -28.9397   19.2465 C   0  0  0  0  0  0  0  0  0  0  0  0
  -25.0545  -27.3107   21.0073 C   0  0  0  0  0  0  0  0  0  0  0  0
  -25.8145  -33.9667   22.8102 C   0  0  0  0  0  0  0  0  0  0  0  0
  -27.5572  -15.5561   23.7422 C   0  0  0  0  0  0  0  0  0  0  0  0
  -26.3659  -32.6780   23.4118 C   0  0  0  0  0  0  0  0  0  0  0  0
  -27.2582  -14.3339   22.8723 C   0  0  0  0  0  0  0  0  0  0  0  0
  -26.3419  -15.9719   24.5681 C   0  0  0  0  0  0  0  0  0  0  0  0
  -24.8100  -14.9684   22.9190 C   0  0  0  0  0  0  0  0  0  0  0  0
  -27.4372  -32.0601   22.5051 C   0  0  1  0  0  0  0  0  0  0  0  0
  -25.7538  -29.5775   20.1736 C   0  0  1  0  0  0  0  0  0  0  0  0
  -25.9887  -14.5452   22.0257 C   0  0  2  0  0  0  0  0  0  0  0  0
  -24.6655  -22.5856   18.3929 C   0  0  0  0  0  0  0  0  0  0  0  0
  -28.0737  -18.8781   20.9556 C   0  0  0  0  0  0  0  0  0  0  0  0
  -18.8939  -26.1632   19.0386 C   0  0  0  0  0  0  0  0  0  0  0  0
  -22.6756  -29.1349   23.5926 C   0  0  0  0  0  0  0  0  0  0  0  0
  -20.6422  -27.7809   23.0446 C   0  0  0  0  0  0  0  0  0  0  0  0
  -20.8960  -30.0804   22.1115 C   0  0  0  0  0  0  0  0  0  0  0  0
  -21.9718  -25.8702   16.8211 C   0  0  0  0  0  0  0  0  0  0  0  0
  -23.7057  -19.9299   19.1822 C   0  0  0  0  0  0  0  0  0  0  0  0
  -29.0523  -21.5384   20.1674 C   0  0  0  0  0  0  0  0  0  0  0  0
  -23.1806  -18.9719   20.2635 C   0  0  0  0  0  0  0  0  0  0  0  0
  -23.1645  -19.6306   21.6461 C   0  0  0  0  0  0  0  0  0  0  0  0
  -22.6341  -18.7008   22.7325 C   0  0  0  0  0  0  0  0  0  0  0  0
  -29.2510  -23.0357   19.9589 C   0  0  0  0  0  0  0  0  0  1  0  0
  -22.3357  -28.2096   21.2063 C   0  0  1  0  0  0  0  0  0  0  0  0
  -20.2550  -26.5694   18.4952 C   0  0  2  0  0  0  0  0  0  0  0  0
  -21.6633  -28.7923   22.4814 C   0  0  0  0  0  0  0  0  0  0  0  0
  -24.8260  -12.3955   21.6953 N   0  0  0  0  0  0  0  0  0  0  0  0
  -25.9107  -19.4620   20.0521 N   0  0  0  0  0  0  0  0  0  0  0  0
  -26.8290  -22.0017   19.2958 N   0  0  0  0  0  0  0  0  0  0  0  0
  -25.6614  -13.3202   21.1921 N   0  0  0  0  0  0  0  0  0  0  0  0
  -24.6773  -28.6556   20.5419 N   0  0  0  0  0  0  0  0  0  0  0  0
  -25.1725  -16.1577   23.7057 N   0  0  0  0  0  0  0  0  0  0  0  0
  -26.9739  -13.8454   19.2915 N   0  0  0  0  0  0  0  0  0  0  0  0
  -25.0892   -9.8903   18.1955 N   0  0  0  0  0  0  0  0  0  0  0  0
  -26.8212  -31.3798   21.3861 N   0  0  0  0  0  0  0  0  0  0  0  0
  -21.4037  -27.9012   20.1271 N   0  0  0  0  0  0  0  0  0  0  0  0
  -23.4145  -17.4893   22.8515 N   0  0  0  0  0  0  0  0  0  0  0  0
  -20.6609  -25.5802   17.4571 N   0  3  0  0  0  0  0  0  0  0  0  0
  -26.5092  -11.5399   17.4735 O   0  0  0  0  0  0  0  0  0  0  0  0
  -26.3991  -29.3429   22.4327 O   0  0  0  0  0  0  0  0  0  0  0  0
  -23.0180  -30.2655   20.2398 O   0  0  0  0  0  0  0  0  0  0  0  0
  -21.9422  -25.6518   19.9610 O   0  0  0  0  0  0  0  0  0  0  0  0
  -24.8694  -18.3492   24.4009 O   0  0  0  0  0  0  0  0  0  0  0  0
  -21.5979   -6.9169   21.3585 O   0  0  0  0  0  0  0  0  0  0  0  0
  -28.4206  -23.7630   20.8633 O   0  0  0  0  0  0  0  0  0  1  0  0
  -21.8826   -4.2566   26.1798 F   0  0  0  0  0  0  0  0  0  0  0  0
  -22.4076   -4.2762   21.4756 F   0  0  0  0  0  0  0  0  0  0  0  0
  1  2  1  0  0  0  0
  1  5  2  0  0  0  0
  2  6  2  0  0  0  0
  3  8  2  0  0  0  0
  3 15  1  0  0  0  0
  4  9  1  0  0  0  0
  4 15  2  0  0  0  0
  5 17  1  0  0  0  0
  6 19  1  0  0  0  0
  7 10  2  0  0  0  0
  7 18  1  0  0  0  0
  8 21  1  0  0  0  0
  9 21  2  0  0  0  0
 10 22  1  0  0  0  0
 11 12  2  0  0  0  0
 11 23  1  0  0  0  0
 12 24  1  0  0  0  0
 13 20  1  0  0  0  0
 13 22  2  0  0  0  0
 14 24  2  0  0  0  0
 14 25  1  0  0  0  0
 15 26  1  0  0  0  0
 16 26  1  0  0  0  0
 16 31  2  0  0  0  0
 16 32  1  0  0  0  0
 17 19  2  0  0  0  0
 17 37  1  0  0  0  0
 18 20  2  0  0  0  0
 18 38  1  0  0  0  0
 19 46  1  0  0  0  0
 20 39  1  0  0  0  0
 21 82  1  0  0  0  0
 22 83  1  0  0  0  0
 23 25  2  0  0  0  0
 23 82  1  0  0  0  0
 24 84  1  0  0  0  0
 25 85  1  0  0  0  0
 26 65  2  0  0  0  0
 27 29  1  0  0  0  0
 27 49  1  0  0  0  0
 27 67  2  0  0  0  0
 28 30  2  0  0  0  0
 28 50  1  0  0  0  0
 28 66  1  0  0  0  0
 29 56  1  0  0  0  0
 29 66  2  0  0  0  0
 30 57  1  0  0  0  0
 30 67  1  0  0  0  0
 31 68  1  0  0  0  0
 31 71  1  0  0  0  0
 32 72  1  0  0  0  0
 32 77  2  0  0  0  0
 33 47  1  0  0  0  0
 33 73  1  0  0  0  0
 33 78  2  0  0  0  0
 34 62  1  0  0  0  0
 34 69  1  0  0  0  0
 34 79  2  0  0  0  0
 35 63  1  0  0  0  0
 35 74  1  0  0  0  0
 35 80  2  0  0  0  0
 36 70  1  0  0  0  0
 36 75  1  0  0  0  0
 36 81  2  0  0  0  0
 37 40  1  0  0  0  0
 38 47  1  0  0  0  0
 39 69  1  0  0  0  0
 40 42  1  0  0  0  0
 41 43  1  0  0  0  0
 41 44  1  0  0  0  0
 42 46  1  0  0  0  0
 43 48  1  0  0  0  0
 44 70  1  0  0  0  0
 45 48  1  0  0  0  0
 45 70  1  0  0  0  0
 46 73  1  0  0  0  0
 47 69  1  0  0  0  0
 48 68  1  0  0  0  0
 51 63  1  0  0  0  0
 52 64  1  0  0  0  0
 53 64  1  0  0  0  0
 54 64  1  0  0  0  0
 55 76  1  0  0  0  0
 56 58  1  0  0  0  0
 57 61  1  0  0  0  0
 58 59  1  0  0  0  0
 59 60  1  0  0  0  0
 60 75  1  0  0  0  0
 61 83  1  0  0  0  0
 62 64  1  0  0  0  0
 62 74  1  0  0  0  0
 63 76  1  0  0  0  0
 65 68  1  0  0  0  0
M  CHG  1  76   1
M  ISO  4  36 100  61 101  75 100  83 101
M  END
> <Batch ID>
0043

> <Smiles>
CNC(C)C(=O)NC(C(=O)N1Cc2cc([101O:1][101CH2:1]Cc3nc(C)c(CCCC[100NH:0][100C:0](=O)N4CCCC(n5nc(-c6ccc(Oc7ccc(F)cc7F)cc6)c(C(N)=O)c5N)C4)nc3C)ccc2CC1C(=O)NC1CCCc2ccccc21)C(C)(C)C

> <Shape>
0.265

> <Color>
0.093

> <Negative vol penalty>
0.000

$$$$

  -OEChem-04052317143D

 85 93  0     1  0  0  0  0  0999 V2000
  -24.7247  -26.0679   12.4689 C   0  0  0  0  0  0  0  0  0  0  0  0
  -24.0354  -26.5592   13.5730 C   0  0  0  0  0  0  0  0  0  0  0  0
  -26.2794  -13.3996   19.7184 C   0  0  0  0  0  0  0  0  0  0  0  0
  -24.3022  -13.6653   21.0812 C   0  0  0  0  0  0  0  0  0  0  0  0
  -25.8519  -25.2680   12.6517 C   0  0  0  0  0  0  0  0  0  0  0  0
  -24.4724  -26.2500   14.8606 C   0  0  0  0  0  0  0  0  0  0  0  0
  -24.1984  -29.8523   19.8057 C   0  0  0  0  0  0  0  0  0  0  0  0
  -26.3365  -12.0496   20.0643 C   0  0  0  0  0  0  0  0  0  0  0  0
  -24.3593  -12.3152   21.4272 C   0  0  0  0  0  0  0  0  0  0  0  0
  -23.3004  -29.9174   20.8702 C   0  0  0  0  0  0  0  0  0  0  0  0
  -23.5407   -9.3502   20.0275 C   0  0  0  0  0  0  0  0  0  0  0  0
  -22.3512   -8.6227   19.9916 C   0  0  0  0  0  0  0  0  0  0  0  0
  -24.7699  -28.5295   22.1869 C   0  0  0  0  0  0  0  0  0  0  0  0
  -22.5826   -8.1284   22.3452 C   0  0  0  0  0  0  0  0  0  0  0  0
  -25.2623  -14.2075   20.2269 C   0  0  0  0  0  0  0  0  0  0  0  0
  -24.5250  -16.1720   18.7760 C   0  0  0  0  0  0  0  0  0  0  0  0
  -26.3086  -24.9568   13.9421 C   0  0  0  0  0  0  0  0  0  0  0  0
  -25.3858  -29.1151   19.9203 C   0  0  0  0  0  0  0  0  0  0  0  0
  -25.6061  -25.4441   15.0608 C   0  0  0  0  0  0  0  0  0  0  0  0
  -25.6825  -28.4588   21.1233 C   0  0  0  0  0  0  0  0  0  0  0  0
  -25.3765  -11.5074   20.9187 C   0  0  0  0  0  0  0  0  0  0  0  0
  -23.5847  -29.2536   22.0600 C   0  0  0  0  0  0  0  0  0  0  0  0
  -24.2513   -9.4667   21.2221 C   0  0  0  0  0  0  0  0  0  0  0  0
  -21.8721   -8.0118   21.1505 C   0  0  0  0  0  0  0  0  0  0  0  0
  -23.7722   -8.8558   22.3810 C   0  0  0  0  0  0  0  0  0  0  0  0
  -25.2031  -15.6023   19.8703 C   0  0  0  0  0  0  0  0  0  0  0  0
  -24.7762  -17.5183   18.8795 C   0  0  0  0  0  0  0  0  0  0  0  0
  -19.3110  -28.8333   23.1424 C   0  0  0  0  0  0  0  0  0  0  0  0
  -19.8802  -26.7503   22.9277 C   0  0  0  0  0  0  0  0  0  0  0  0
  -23.7384  -15.5406   17.7571 C   0  0  0  0  0  0  0  0  0  0  0  0
  -26.6133  -26.5929   18.4251 C   0  0  0  0  0  0  0  0  0  0  0  0
  -29.2093  -27.2632   20.2510 C   0  0  0  0  0  0  0  0  0  0  0  0
  -30.4706  -28.7044   23.0757 C   0  0  0  0  0  0  0  0  0  0  0  0
  -25.1753  -22.1741   21.9307 C   0  0  0  0  0  0  0  0  0  0  0  0
  -27.5042  -24.0494   14.0898 C   0  0  0  0  0  0  0  0  0  0  0  0
  -26.3567  -29.0768   18.7721 C   0  0  0  0  0  0  0  0  0  0  0  0
  -26.9532  -27.6706   21.3042 C   0  0  0  0  0  0  0  0  0  0  0  0
  -28.1210  -24.0770   15.4859 C   0  0  0  0  0  0  0  0  0  0  0  0
  -28.0264  -20.0445   21.8191 C   0  0  0  0  0  0  0  0  0  0  0  0
  -27.0351  -23.9673   16.5516 C   0  0  0  0  0  0  0  0  0  0  0  0
  -27.4888  -18.7447   21.2180 C   0  0  0  0  0  0  0  0  0  0  0  0
  -27.0020  -20.7080   22.7369 C   0  0  0  0  0  0  0  0  0  0  0  0
  -25.1422  -19.6384   21.5241 C   0  0  0  0  0  0  0  0  0  0  0  0
  -26.0636  -25.1511   16.4732 C   0  0  1  0  0  0  0  0  0  0  0  0
  -27.2928  -27.8732   18.8211 C   0  0  1  0  0  0  0  0  0  0  0  0
  -26.1190  -18.9616   20.5473 C   0  0  2  0  0  0  0  0  0  0  0  0
  -18.0081  -32.4213   23.7200 C   0  0  0  0  0  0  0  0  0  0  0  0
  -32.6244  -29.0559   24.3145 C   0  0  0  0  0  0  0  0  0  0  0  0
  -29.1305  -24.3661   21.2051 C   0  0  0  0  0  0  0  0  0  0  0  0
  -30.6435  -25.0188   23.0900 C   0  0  0  0  0  0  0  0  0  0  0  0
  -31.4229  -25.2464   20.7313 C   0  0  0  0  0  0  0  0  0  0  0  0
  -30.2505  -31.6477   22.8574 C   0  0  0  0  0  0  0  0  0  0  0  0
  -19.3052  -30.2295   23.6141 C   0  0  0  0  0  0  0  0  0  0  0  0
  -20.6025  -25.4811   23.1256 C   0  0  0  0  0  0  0  0  0  0  0  0
  -18.0299  -30.9928   23.1997 C   0  0  0  0  0  0  0  0  0  0  0  0
  -21.5945  -25.1717   21.9842 C   0  0  0  0  0  0  0  0  0  0  0  0
  -22.3078  -23.8307   22.1808 C   0  0  0  0  0  0  0  0  0  0  0  0
  -21.2837  -28.0905   24.6167 C   0  0  0  0  0  0  0  0  0  0  0  0
  -23.2801  -23.5124   21.0496 C   0  0  0  0  0  0  0  0  0  0  0  0
  -22.6649  -28.1911   23.9786 C   0  0  0  0  0  0  0  0  0  1  0  0
  -29.6860  -26.8526   21.6232 C   0  0  1  0  0  0  0  0  0  0  0  0
  -31.6552  -29.6287   23.2921 C   0  0  2  0  0  0  0  0  0  0  0  0
  -30.1958  -25.3841   21.6586 C   0  0  0  0  0  0  0  0  0  0  0  0
  -25.8375  -16.5123   20.6143 N   0  0  0  0  0  0  0  0  0  0  0  0
  -18.5074  -28.2942   22.2535 N   0  0  0  0  0  0  0  0  0  0  0  0
  -18.8696  -26.9689   22.1169 N   0  0  0  0  0  0  0  0  0  0  0  0
  -25.5593  -17.6674   19.9862 N   0  0  0  0  0  0  0  0  0  0  0  0
  -20.1913  -27.8971   23.5932 N   0  0  0  0  0  0  0  0  0  0  0  0
  -27.8677  -27.6580   20.1505 N   0  0  0  0  0  0  0  0  0  0  0  0
  -25.7259  -20.8865   22.0401 N   0  0  0  0  0  0  0  0  0  0  0  0
  -24.4016  -18.5774   18.1309 N   0  0  0  0  0  0  0  0  0  0  0  0
  -23.5820  -14.1485   17.8003 N   0  0  0  0  0  0  0  0  0  0  0  0
  -26.6545  -26.3302   17.0691 N   0  0  0  0  0  0  0  0  0  0  0  0
  -30.6825  -27.8408   22.0218 N   0  0  0  0  0  0  0  0  0  0  0  0
  -23.9670  -22.2558   21.2495 N   0  0  0  0  0  0  0  0  0  0  0  0
  -31.1921  -30.9594   23.7775 N   0  3  0  0  0  0  0  0  0  0  0  0
  -23.2039  -16.1898   16.8263 O   0  0  0  0  0  0  0  0  0  0  0  0
  -26.0915  -25.8944   19.2862 O   0  0  0  0  0  0  0  0  0  0  0  0
  -30.0001  -27.2416   19.3045 O   0  0  0  0  0  0  0  0  0  0  0  0
  -29.4600  -28.7420   23.7741 O   0  0  0  0  0  0  0  0  0  0  0  0
  -25.7228  -23.1774   22.4004 O   0  0  0  0  0  0  0  0  0  0  0  0
  -25.4317  -10.1900   21.2563 O   0  0  0  0  0  0  0  0  0  0  0  0
  -22.7095  -29.3149   23.1003 O   0  0  0  0  0  0  0  0  0  1  0  0
  -20.7289   -7.3146   21.1163 F   0  0  0  0  0  0  0  0  0  0  0  0
  -24.4498   -8.9653   23.5319 F   0  0  0  0  0  0  0  0  0  0  0  0
  1  2  1  0  0  0  0
  1  5  2  0  0  0  0
  2  6  2  0  0  0  0
  3  8  2  0  0  0  0
  3 15  1  0  0  0  0
  4  9  1  0  0  0  0
  4 15  2  0  0  0  0
  5 17  1  0  0  0  0
  6 19  1  0  0  0  0
  7 10  2  0  0  0  0
  7 18  1  0  0  0  0
  8 21  1  0  0  0  0
  9 21  2  0  0  0  0
 10 22  1  0  0  0  0
 11 12  2  0  0  0  0
 11 23  1  0  0  0  0
 12 24  1  0  0  0  0
 13 20  1  0  0  0  0
 13 22  2  0  0  0  0
 14 24  2  0  0  0  0
 14 25  1  0  0  0  0
 15 26  1  0  0  0  0
 16 26  1  0  0  0  0
 16 27  2  0  0  0  0
 16 30  1  0  0  0  0
 17 19  2  0  0  0  0
 17 35  1  0  0  0  0
 18 20  2  0  0  0  0
 18 36  1  0  0  0  0
 19 44  1  0  0  0  0
 20 37  1  0  0  0  0
 21 82  1  0  0  0  0
 22 83  1  0  0  0  0
 23 25  2  0  0  0  0
 23 82  1  0  0  0  0
 24 84  1  0  0  0  0
 25 85  1  0  0  0  0
 26 64  2  0  0  0  0
 27 67  1  0  0  0  0
 27 71  1  0  0  0  0
 28 53  1  0  0  0  0
 28 65  2  0  0  0  0
 28 68  1  0  0  0  0
 29 54  1  0  0  0  0
 29 66  2  0  0  0  0
 29 68  1  0  0  0  0
 30 72  1  0  0  0  0
 30 77  2  0  0  0  0
 31 45  1  0  0  0  0
 31 73  1  0  0  0  0
 31 78  2  0  0  0  0
 32 61  1  0  0  0  0
 32 69  1  0  0  0  0
 32 79  2  0  0  0  0
 33 62  1  0  0  0  0
 33 74  1  0  0  0  0
 33 80  2  0  0  0  0
 34 70  1  0  0  0  0
 34 75  1  0  0  0  0
 34 81  2  0  0  0  0
 35 38  1  0  0  0  0
 36 45  1  0  0  0  0
 37 69  1  0  0  0  0
 38 40  1  0  0  0  0
 39 41  1  0  0  0  0
 39 42  1  0  0  0  0
 40 44  1  0  0  0  0
 41 46  1  0  0  0  0
 42 70  1  0  0  0  0
 43 46  1  0  0  0  0
 43 70  1  0  0  0  0
 44 73  1  0  0  0  0
 45 69  1  0  0  0  0
 46 67  1  0  0  0  0
 47 55  1  0  0  0  0
 48 62  1  0  0  0  0
 49 63  1  0  0  0  0
 50 63  1  0  0  0  0
 51 63  1  0  0  0  0
 52 76  1  0  0  0  0
 53 55  1  0  0  0  0
 54 56  1  0  0  0  0
 56 57  1  0  0  0  0
 57 59  1  0  0  0  0
 58 60  1  0  0  0  0
 58 68  1  0  0  0  0
 59 75  1  0  0  0  0
 60 83  1  0  0  0  0
 61 63  1  0  0  0  0
 61 74  1  0  0  0  0
 62 76  1  0  0  0  0
 64 67  1  0  0  0  0
 65 66  1  0  0  0  0
M  CHG  1  76   1
M  ISO  4  34 100  60 101  75 100  83 101
M  END
> <Batch ID>
0043

> <Smiles>
CCCc1nnc(CCCC[100NH:0][100C:0](=O)N2CCCC(n3nc(-c4ccc(Oc5ccc(F)cc5F)cc4)c(C(N)=O)c3N)C2)n1C[101CH2:1][101O:1]c1ccc2c(c1)CN(C(=O)C(NC(=O)C(C)NC)C(C)(C)C)C(C(=O)NC1CCCc3ccccc31)C2

> <Shape>
0.225

> <Color>
0.085

> <Negative vol penalty>
0.000

$$$$

  -OEChem-04052317143D

 83 91  0     1  0  0  0  0  0999 V2000
  -22.0849   -5.8319   28.6988 C   0  0  0  0  0  0  0  0  0  0  0  0
  -22.8839   -6.6873   27.9469 C   0  0  0  0  0  0  0  0  0  0  0  0
  -23.1302  -10.1465   22.0776 C   0  0  0  0  0  0  0  0  0  0  0  0
  -23.7751   -9.4625   19.8520 C   0  0  0  0  0  0  0  0  0  0  0  0
  -20.7680   -6.1856   28.9896 C   0  0  0  0  0  0  0  0  0  0  0  0
  -22.3660   -7.8965   27.4843 C   0  0  0  0  0  0  0  0  0  0  0  0
  -25.3818  -13.1879   26.8422 C   0  0  0  0  0  0  0  0  0  0  0  0
  -22.3898   -8.9734   22.2235 C   0  0  0  0  0  0  0  0  0  0  0  0
  -23.0347   -8.2894   19.9979 C   0  0  0  0  0  0  0  0  0  0  0  0
  -25.9648  -13.8072   25.7375 C   0  0  0  0  0  0  0  0  0  0  0  0
  -22.9905   -5.7179   22.9117 C   0  0  0  0  0  0  0  0  0  0  0  0
  -23.1174   -5.0162   24.1105 C   0  0  0  0  0  0  0  0  0  0  0  0
  -23.9646  -15.1189   25.4250 C   0  0  0  0  0  0  0  0  0  0  0  0
  -20.7516   -5.2869   24.5193 C   0  0  0  0  0  0  0  0  0  0  0  0
  -29.9644  -18.4392   25.1308 C   0  0  0  0  0  0  0  0  0  0  0  0
  -23.8229  -10.3911   20.8918 C   0  0  0  0  0  0  0  0  0  0  0  0
  -24.1070  -12.9246   20.8032 C   0  0  0  0  0  0  0  0  0  0  0  0
  -20.2367   -7.4042   28.5385 C   0  0  0  0  0  0  0  0  0  0  0  0
  -24.0796  -13.5222   27.2408 C   0  0  0  0  0  0  0  0  0  0  0  0
  -21.0403   -8.2663   27.7682 C   0  0  0  0  0  0  0  0  0  0  0  0
  -23.3684  -14.5043   26.5367 C   0  0  0  0  0  0  0  0  0  0  0  0
  -22.3420   -8.0449   21.1837 C   0  0  0  0  0  0  0  0  0  0  0  0
  -25.2551  -14.7708   25.0270 C   0  0  0  0  0  0  0  0  0  0  0  0
  -21.7443   -6.2042   22.5167 C   0  0  0  0  0  0  0  0  0  0  0  0
  -21.9980   -4.8007   24.9143 C   0  0  0  0  0  0  0  0  0  0  0  0
  -20.6248   -5.9887   23.3205 C   0  0  0  0  0  0  0  0  0  0  0  0
  -24.5874  -11.6029   20.7402 C   0  0  0  0  0  0  0  0  0  0  0  0
  -29.7591  -17.2742   24.4469 C   0  0  0  0  0  0  0  0  0  0  0  0
  -25.2190  -13.7043   20.5981 C   0  0  0  0  0  0  0  0  0  0  0  0
  -30.7706  -16.7785   26.3526 C   0  0  0  0  0  0  0  0  0  0  0  0
  -22.7747  -13.4047   21.0273 C   0  0  0  0  0  0  0  0  0  0  0  0
  -21.3347  -11.9392   27.4920 C   0  0  0  0  0  0  0  0  0  0  0  0
  -20.3044  -14.7154   28.8162 C   0  0  0  0  0  0  0  0  0  0  0  0
  -20.6842  -18.0925   29.1285 C   0  0  0  0  0  0  0  0  0  0  0  0
  -31.0689  -12.7737   21.4722 C   0  0  0  0  0  0  0  0  0  0  0  0
  -18.7930   -7.7218   28.8378 C   0  0  0  0  0  0  0  0  0  0  0  0
  -23.4750  -12.8642   28.4507 C   0  0  0  0  0  0  0  0  0  0  0  0
  -21.9750  -14.9136   26.9359 C   0  0  0  0  0  0  0  0  0  0  0  0
  -18.4364   -9.1912   28.6280 C   0  0  0  0  0  0  0  0  0  0  0  0
  -29.4750  -13.6556   18.4130 C   0  0  0  0  0  0  0  0  0  0  0  0
  -18.9919   -9.6906   27.2980 C   0  0  0  0  0  0  0  0  0  0  0  0
  -27.9983  -13.3488   18.6682 C   0  0  0  0  0  0  0  0  0  0  0  0
  -30.3886  -12.6390   19.0940 C   0  0  0  0  0  0  0  0  0  0  0  0
  -28.6710  -12.1528   20.7932 C   0  0  0  0  0  0  0  0  0  0  0  0
  -20.5223   -9.5979   27.2696 C   0  0  1  0  0  0  0  0  0  0  0  0
  -21.9502  -12.9120   28.4576 C   0  0  1  0  0  0  0  0  0  0  0  0
  -27.7120  -13.1831   20.1728 C   0  0  2  0  0  0  0  0  0  0  0  0
  -31.4139  -16.0347   27.4640 C   0  0  0  0  0  0  0  0  0  0  0  0
  -19.6675  -20.0938   30.2504 C   0  0  0  0  0  0  0  0  0  0  0  0
  -18.0254  -14.6917   26.7875 C   0  0  0  0  0  0  0  0  0  0  0  0
  -17.6293  -17.1082   27.3086 C   0  0  0  0  0  0  0  0  0  0  0  0
  -17.3604  -15.3885   29.0955 C   0  0  0  0  0  0  0  0  0  0  0  0
  -23.1744  -18.6656   30.6217 C   0  0  0  0  0  0  0  0  0  0  0  0
  -29.1167  -17.0286   23.1051 C   0  0  0  0  0  0  0  0  0  0  0  0
  -27.6084  -16.7813   23.1803 C   0  0  0  0  0  0  0  0  0  0  0  0
  -31.6091  -14.3383   24.3539 C   0  0  0  0  0  0  0  0  0  0  0  0
  -30.2650  -14.8523   24.8871 C   0  0  0  0  0  0  0  0  0  0  0  0
  -31.5945  -12.8817   23.8952 C   0  0  0  0  0  0  0  0  0  0  0  0
  -27.2411  -15.5212   23.9553 C   0  0  0  0  0  0  0  0  0  1  0  0
  -19.6809  -15.9849   28.2884 C   0  0  1  0  0  0  0  0  0  0  0  0
  -20.7134  -18.9942   30.3494 C   0  0  2  0  0  0  0  0  0  0  0  0
  -18.1995  -15.7844   27.8610 C   0  0  0  0  0  0  0  0  0  0  0  0
  -25.9022  -11.5424   20.5127 N   0  0  0  0  0  0  0  0  0  0  0  0
  -30.2681  -16.2632   25.2259 N   0  0  0  0  0  0  0  0  0  0  0  0
  -26.2574  -12.8360   20.4309 N   0  0  0  0  0  0  0  0  0  0  0  0
  -30.5915  -18.1026   26.3061 N   0  3  0  0  0  0  0  0  0  0  0  0
  -21.4248  -14.2370   28.1221 N   0  0  0  0  0  0  0  0  0  0  0  0
  -30.0663  -12.5306   20.5189 N   0  0  0  0  0  0  0  0  0  0  0  0
  -25.4001  -15.0411   20.5462 N   0  0  0  0  0  0  0  0  0  0  0  0
  -22.3647  -13.6472   22.3454 N   0  0  0  0  0  0  0  0  0  0  0  0
  -21.1085  -10.6844   28.0248 N   0  0  0  0  0  0  0  0  0  0  0  0
  -19.8728  -16.9949   29.3235 N   0  0  0  0  0  0  0  0  0  0  0  0
  -30.6776  -12.6559   22.8002 N   0  0  0  0  0  0  0  0  0  0  0  0
  -22.0531  -19.6314   30.4909 N   0  3  0  0  0  0  0  0  0  0  0  0
  -21.9662  -13.5969   20.0876 O   0  0  0  0  0  0  0  0  0  0  0  0
  -21.0821  -12.3006   26.3486 O   0  0  0  0  0  0  0  0  0  0  0  0
  -19.8197  -14.1723   29.8120 O   0  0  0  0  0  0  0  0  0  0  0  0
  -21.3150  -18.3393   28.1030 O   0  0  0  0  0  0  0  0  0  0  0  0
  -32.2257  -13.0788   21.1627 O   0  0  0  0  0  0  0  0  0  0  0  0
  -21.6198   -6.9000   21.3259 O   0  0  0  0  0  0  0  0  0  0  0  0
  -25.8215  -15.3764   23.9479 O   0  0  0  0  0  0  0  0  0  1  0  0
  -22.1196   -4.1254   26.0647 F   0  0  0  0  0  0  0  0  0  0  0  0
  -19.4247   -6.4524   22.9457 F   0  0  0  0  0  0  0  0  0  0  0  0
  1  2  1  0  0  0  0
  1  5  2  0  0  0  0
  2  6  2  0  0  0  0
  3  8  2  0  0  0  0
  3 16  1  0  0  0  0
  4  9  1  0  0  0  0
  4 16  2  0  0  0  0
  5 18  1  0  0  0  0
  6 20  1  0  0  0  0
  7 10  2  0  0  0  0
  7 19  1  0  0  0  0
  8 22  1  0  0  0  0
  9 22  2  0  0  0  0
 10 23  1  0  0  0  0
 11 12  2  0  0  0  0
 11 24  1  0  0  0  0
 12 25  1  0  0  0  0
 13 21  1  0  0  0  0
 13 23  2  0  0  0  0
 14 25  2  0  0  0  0
 14 26  1  0  0  0  0
 15 28  2  0  0  0  0
 15 66  1  0  0  0  0
 16 27  1  0  0  0  0
 17 27  1  0  0  0  0
 17 29  2  0  0  0  0
 17 31  1  0  0  0  0
 18 20  2  0  0  0  0
 18 36  1  0  0  0  0
 19 21  2  0  0  0  0
 19 37  1  0  0  0  0
 20 45  1  0  0  0  0
 21 38  1  0  0  0  0
 22 80  1  0  0  0  0
 23 81  1  0  0  0  0
 24 26  2  0  0  0  0
 24 80  1  0  0  0  0
 25 82  1  0  0  0  0
 26 83  1  0  0  0  0
 27 63  2  0  0  0  0
 28 54  1  0  0  0  0
 28 64  1  0  0  0  0
 29 65  1  0  0  0  0
 29 69  1  0  0  0  0
 30 48  1  0  0  0  0
 30 64  1  0  0  0  0
 30 66  2  0  0  0  0
 31 70  1  0  0  0  0
 31 75  2  0  0  0  0
 32 46  1  0  0  0  0
 32 71  1  0  0  0  0
 32 76  2  0  0  0  0
 33 60  1  0  0  0  0
 33 67  1  0  0  0  0
 33 77  2  0  0  0  0
 34 61  1  0  0  0  0
 34 72  1  0  0  0  0
 34 78  2  0  0  0  0
 35 68  1  0  0  0  0
 35 73  1  0  0  0  0
 35 79  2  0  0  0  0
 36 39  1  0  0  0  0
 37 46  1  0  0  0  0
 38 67  1  0  0  0  0
 39 41  1  0  0  0  0
 40 42  1  0  0  0  0
 40 43  1  0  0  0  0
 41 45  1  0  0  0  0
 42 47  1  0  0  0  0
 43 68  1  0  0  0  0
 44 47  1  0  0  0  0
 44 68  1  0  0  0  0
 45 71  1  0  0  0  0
 46 67  1  0  0  0  0
 47 65  1  0  0  0  0
 49 61  1  0  0  0  0
 50 62  1  0  0  0  0
 51 62  1  0  0  0  0
 52 62  1  0  0  0  0
 53 74  1  0  0  0  0
 54 55  1  0  0  0  0
 55 59  1  0  0  0  0
 56 57  1  0  0  0  0
 56 58  1  0  0  0  0
 57 64  1  0  0  0  0
 58 73  1  0  0  0  0
 59 81  1  0  0  0  0
 60 62  1  0  0  0  0
 60 72  1  0  0  0  0
 61 74  1  0  0  0  0
 63 65  1  0  0  0  0
M  CHG  2  66   1  74   1
M  ISO  4  35 100  59 101  73 100  81 101
M  END
> <Batch ID>
0043

> <Smiles>
CNC(C)C(=O)NC(C(=O)N1Cc2cc([101O:1][101CH2:1]CCc3cnc(C)n3CCC[100NH:0][100C:0](=O)N3CCCC(n4nc(-c5ccc(Oc6ccc(F)cc6F)cc5)c(C(N)=O)c4N)C3)ccc2CC1C(=O)NC1CCCc2ccccc21)C(C)(C)C

> <Shape>
0.142

> <Color>
0.174

> <Negative vol penalty>
0.000

$$$$

  -OEChem-04052317143D

 82 90  0     1  0  0  0  0  0999 V2000
  -22.3226  -22.6097   18.0212 C   0  0  0  0  0  0  0  0  0  0  0  0
  -23.4689  -21.9763   17.5520 C   0  0  0  0  0  0  0  0  0  0  0  0
  -25.2074  -26.5891   20.9834 C   0  0  0  0  0  0  0  0  0  0  0  0
  -26.4637  -27.1345   22.9737 C   0  0  0  0  0  0  0  0  0  0  0  0
  -21.8267  -22.3027   19.2876 C   0  0  0  0  0  0  0  0  0  0  0  0
  -24.1207  -21.0362   18.3495 C   0  0  0  0  0  0  0  0  0  0  0  0
  -27.9217  -14.9833   17.8695 C   0  0  0  0  0  0  0  0  0  0  0  0
  -24.1318  -27.3407   21.4563 C   0  0  0  0  0  0  0  0  0  0  0  0
  -25.3882  -27.8863   23.4466 C   0  0  0  0  0  0  0  0  0  0  0  0
  -29.1300  -14.4336   18.2957 C   0  0  0  0  0  0  0  0  0  0  0  0
  -21.6203  -26.9648   23.6869 C   0  0  0  0  0  0  0  0  0  0  0  0
  -20.3459  -26.4070   23.5845 C   0  0  0  0  0  0  0  0  0  0  0  0
  -28.1373  -13.9249   20.4346 C   0  0  0  0  0  0  0  0  0  0  0  0
  -19.6451  -28.2615   22.2036 C   0  0  0  0  0  0  0  0  0  0  0  0
  -32.2085  -16.0614   23.4692 C   0  0  0  0  0  0  0  0  0  0  0  0
  -26.3733  -26.4859   21.7421 C   0  0  0  0  0  0  0  0  0  0  0  0
  -28.5526  -26.1611   20.4565 C   0  0  0  0  0  0  0  0  0  0  0  0
  -22.4672  -21.3513   20.0971 C   0  0  0  0  0  0  0  0  0  0  0  0
  -26.8134  -15.0178   18.7280 C   0  0  0  0  0  0  0  0  0  0  0  0
  -23.6336  -20.7172   19.6284 C   0  0  0  0  0  0  0  0  0  0  0  0
  -26.9153  -14.4733   20.0161 C   0  0  0  0  0  0  0  0  0  0  0  0
  -24.2222  -27.9894   22.6879 C   0  0  0  0  0  0  0  0  0  0  0  0
  -29.2388  -13.9069   19.5794 C   0  0  0  0  0  0  0  0  0  0  0  0
  -21.9070  -28.1710   23.0477 C   0  0  0  0  0  0  0  0  0  0  0  0
  -19.3584  -27.0553   22.8429 C   0  0  0  0  0  0  0  0  0  0  0  0
  -20.9195  -28.8193   22.3060 C   0  0  0  0  0  0  0  0  0  0  0  0
  -27.4845  -25.7091   21.2544 C   0  0  0  0  0  0  0  0  0  0  0  0
  -31.4808  -16.8052   24.3546 C   0  0  0  0  0  0  0  0  0  0  0  0
  -29.3355  -25.0484   20.2682 C   0  0  0  0  0  0  0  0  0  0  0  0
  -31.1890  -14.6687   24.8553 C   0  0  0  0  0  0  0  0  0  0  0  0
  -28.8138  -27.4698   19.9324 C   0  0  0  0  0  0  0  0  0  0  0  0
  -25.0434  -17.3236   20.0142 C   0  0  0  0  0  0  0  0  0  0  0  0
  -23.2541  -14.8295   21.0632 C   0  0  0  0  0  0  0  0  0  0  0  0
  -23.0913  -11.5176   21.8704 C   0  0  0  0  0  0  0  0  0  0  0  0
  -30.0681  -20.1621   23.4998 C   0  0  0  0  0  0  0  0  0  0  0  0
  -21.9208  -21.0872   21.4778 C   0  0  0  0  0  0  0  0  0  0  0  0
  -25.5093  -15.5901   18.2439 C   0  0  0  0  0  0  0  0  0  0  0  0
  -25.7492  -14.4676   20.9692 C   0  0  0  0  0  0  0  0  0  0  0  0
  -22.4568  -19.8052   22.1100 C   0  0  0  0  0  0  0  0  0  0  0  0
  -29.0639  -20.2761   20.0247 C   0  0  0  0  0  0  0  0  0  0  0  0
  -23.9699  -19.7172   21.9377 C   0  0  0  0  0  0  0  0  0  0  0  0
  -28.6449  -21.7400   19.8771 C   0  0  0  0  0  0  0  0  0  0  0  0
  -28.6699  -19.7235   21.3913 C   0  0  0  0  0  0  0  0  0  0  0  0
  -28.7760  -21.9692   22.4010 C   0  0  0  0  0  0  0  0  0  0  0  0
  -24.3545  -19.6736   20.4539 C   0  0  1  0  0  0  0  0  0  0  0  0
  -24.5947  -16.0374   19.3800 C   0  0  1  0  0  0  0  0  0  0  0  0
  -29.1664  -22.5929   21.0487 C   0  0  2  0  0  0  0  0  0  0  0  0
  -30.7170  -13.4353   25.5326 C   0  0  0  0  0  0  0  0  0  0  0  0
  -21.5041   -9.7762   22.7339 C   0  0  0  0  0  0  0  0  0  0  0  0
  -34.1573  -13.5892   23.2152 C   0  0  0  0  0  0  0  0  0  0  0  0
  -23.5277  -15.9786   23.8765 C   0  0  0  0  0  0  0  0  0  0  0  0
  -22.7750  -13.7674   24.7776 C   0  0  0  0  0  0  0  0  0  0  0  0
  -21.2509  -15.1039   23.3238 C   0  0  0  0  0  0  0  0  0  0  0  0
  -23.3507   -9.8943   19.4094 C   0  0  0  0  0  0  0  0  0  0  0  0
  -31.3077  -18.2539   24.4892 C   0  0  0  0  0  0  0  0  0  0  0  0
  -32.2218  -13.4688   21.6005 C   0  0  0  0  0  0  0  0  0  0  0  0
  -30.7093  -13.4527   21.3924 C   0  0  0  0  0  0  0  0  0  1  0  0
  -23.2550  -13.9564   22.2947 C   0  0  1  0  0  0  0  0  0  0  0  0
  -22.0917  -10.4378   21.4971 C   0  0  2  0  0  0  0  0  0  0  0  0
  -32.6298  -13.5575   23.0837 C   0  0  2  0  0  0  0  0  0  0  0  0
  -22.7249  -14.7033   23.5511 C   0  0  0  0  0  0  0  0  0  0  0  0
  -27.5772  -24.4104   21.5524 N   0  0  0  0  0  0  0  0  0  0  0  0
  -32.0099  -14.7433   23.8027 N   0  0  0  0  0  0  0  0  0  0  0  0
  -28.7128  -24.0368   20.9384 N   0  0  0  0  0  0  0  0  0  0  0  0
  -30.8601  -15.9177   25.2004 N   0  3  0  0  0  0  0  0  0  0  0  0
  -24.4973  -15.0442   20.4516 N   0  0  0  0  0  0  0  0  0  0  0  0
  -29.2130  -20.5704   22.4628 N   0  0  0  0  0  0  0  0  0  0  0  0
  -30.4888  -24.8463   19.5964 N   0  0  0  0  0  0  0  0  0  0  0  0
  -27.9072  -28.4987   20.2218 N   0  0  0  0  0  0  0  0  0  0  0  0
  -24.1259  -18.3517   19.9111 N   0  0  0  0  0  0  0  0  0  0  0  0
  -22.4968  -12.7594   21.9470 N   0  0  0  0  0  0  0  0  0  0  0  0
  -30.4290  -18.8203   23.4902 N   0  0  0  0  0  0  0  0  0  0  0  0
  -22.7491   -9.3871   20.6695 N   0  3  0  0  0  0  0  0  0  0  0  0
  -29.8127  -27.7158   19.2146 O   0  0  0  0  0  0  0  0  0  0  0  0
  -26.1401  -17.3786   20.5581 O   0  0  0  0  0  0  0  0  0  0  0  0
  -22.1885  -15.2978   20.6547 O   0  0  0  0  0  0  0  0  0  0  0  0
  -24.2797  -11.2824   22.0773 O   0  0  0  0  0  0  0  0  0  0  0  0
  -30.4839  -20.9374   24.3675 O   0  0  0  0  0  0  0  0  0  0  0  0
  -23.1729  -28.7232   23.1496 O   0  0  0  0  0  0  0  0  0  0  0  0
  -30.4172  -13.3703   19.9981 O   0  0  0  0  0  0  0  0  0  1  0  0
  -18.1351  -26.5187   22.7434 F   0  0  0  0  0  0  0  0  0  0  0  0
  -21.1894  -29.9777   21.6887 F   0  0  0  0  0  0  0  0  0  0  0  0
  1  2  1  0  0  0  0
  1  5  2  0  0  0  0
  2  6  2  0  0  0  0
  3  8  2  0  0  0  0
  3 16  1  0  0  0  0
  4  9  1  0  0  0  0
  4 16  2  0  0  0  0
  5 18  1  0  0  0  0
  6 20  1  0  0  0  0
  7 10  2  0  0  0  0
  7 19  1  0  0  0  0
  8 22  1  0  0  0  0
  9 22  2  0  0  0  0
 10 23  1  0  0  0  0
 11 12  2  0  0  0  0
 11 24  1  0  0  0  0
 12 25  1  0  0  0  0
 13 21  1  0  0  0  0
 13 23  2  0  0  0  0
 14 25  2  0  0  0  0
 14 26  1  0  0  0  0
 15 28  2  0  0  0  0
 15 63  1  0  0  0  0
 16 27  1  0  0  0  0
 17 27  1  0  0  0  0
 17 29  2  0  0  0  0
 17 31  1  0  0  0  0
 18 20  2  0  0  0  0
 18 36  1  0  0  0  0
 19 21  2  0  0  0  0
 19 37  1  0  0  0  0
 20 45  1  0  0  0  0
 21 38  1  0  0  0  0
 22 79  1  0  0  0  0
 23 80  1  0  0  0  0
 24 26  2  0  0  0  0
 24 79  1  0  0  0  0
 25 81  1  0  0  0  0
 26 82  1  0  0  0  0
 27 62  2  0  0  0  0
 28 55  1  0  0  0  0
 28 65  1  0  0  0  0
 29 64  1  0  0  0  0
 29 68  1  0  0  0  0
 30 48  1  0  0  0  0
 30 63  1  0  0  0  0
 30 65  2  0  0  0  0
 31 69  1  0  0  0  0
 31 74  2  0  0  0  0
 32 46  1  0  0  0  0
 32 70  1  0  0  0  0
 32 75  2  0  0  0  0
 33 58  1  0  0  0  0
 33 66  1  0  0  0  0
 33 76  2  0  0  0  0
 34 59  1  0  0  0  0
 34 71  1  0  0  0  0
 34 77  2  0  0  0  0
 35 67  1  0  0  0  0
 35 72  1  0  0  0  0
 35 78  2  0  0  0  0
 36 39  1  0  0  0  0
 37 46  1  0  0  0  0
 38 66  1  0  0  0  0
 39 41  1  0  0  0  0
 40 42  1  0  0  0  0
 40 43  1  0  0  0  0
 41 45  1  0  0  0  0
 42 47  1  0  0  0  0
 43 67  1  0  0  0  0
 44 47  1  0  0  0  0
 44 67  1  0  0  0  0
 45 70  1  0  0  0  0
 46 66  1  0  0  0  0
 47 64  1  0  0  0  0
 49 59  1  0  0  0  0
 50 60  1  0  0  0  0
 51 61  1  0  0  0  0
 52 61  1  0  0  0  0
 53 61  1  0  0  0  0
 54 73  1  0  0  0  0
 55 72  1  0  0  0  0
 56 57  1  0  0  0  0
 56 60  1  0  0  0  0
 57 80  1  0  0  0  0
 58 61  1  0  0  0  0
 58 71  1  0  0  0  0
 59 73  1  0  0  0  0
 60 63  1  0  0  0  0
 62 64  1  0  0  0  0
M  CHG  2  65   1  73   1
M  ISO  4  35 100  57 101  72 100  80 101
M  END
> <Batch ID>
0043

> <Smiles>
CNC(C)C(=O)NC(C(=O)N1Cc2cc([101O:1][101CH2:1]CC(C)n3cc(C[100NH:0][100C:0](=O)N4CCCC(n5nc(-c6ccc(Oc7ccc(F)cc7F)cc6)c(C(N)=O)c5N)C4)nc3C)ccc2CC1C(=O)NC1CCCc2ccccc21)C(C)(C)C

> <Shape>
0.207

> <Color>
0.062

> <Negative vol penalty>
0.000

$$$$

  -OEChem-04052317143D

 87 95  0     1  0  0  0  0  0999 V2000
  -21.3954  -33.9826   22.8758 C   0  0  0  0  0  0  0  0  0  0  0  0
  -22.5742  -33.2439   22.8651 C   0  0  0  0  0  0  0  0  0  0  0  0
  -27.1977  -17.6549   19.8840 C   0  0  0  0  0  0  0  0  0  0  0  0
  -29.1816  -17.4009   21.2393 C   0  0  0  0  0  0  0  0  0  0  0  0
  -20.1731  -33.3399   23.0676 C   0  0  0  0  0  0  0  0  0  0  0  0
  -22.5314  -31.8621   23.0472 C   0  0  0  0  0  0  0  0  0  0  0  0
  -25.4883  -29.3782   19.7712 C   0  0  0  0  0  0  0  0  0  0  0  0
  -27.0695  -16.2679   19.8117 C   0  0  0  0  0  0  0  0  0  0  0  0
  -29.0533  -16.0138   21.1671 C   0  0  0  0  0  0  0  0  0  0  0  0
  -26.8574  -29.3633   20.0340 C   0  0  0  0  0  0  0  0  0  0  0  0
  -25.9454  -13.7640   21.7866 C   0  0  0  0  0  0  0  0  0  0  0  0
  -24.6771  -13.2190   21.9867 C   0  0  0  0  0  0  0  0  0  0  0  0
  -26.6495  -27.1449   20.9587 C   0  0  0  0  0  0  0  0  0  0  0  0
  -24.7438  -12.2511   19.7741 C   0  0  0  0  0  0  0  0  0  0  0  0
  -34.3289  -24.5608   25.2417 C   0  0  0  0  0  0  0  0  0  0  0  0
  -28.2538  -18.2214   20.5977 C   0  0  0  0  0  0  0  0  0  0  0  0
  -27.8337  -20.5101   21.6433 C   0  0  0  0  0  0  0  0  0  0  0  0
  -20.1144  -31.9483   23.2425 C   0  0  0  0  0  0  0  0  0  0  0  0
  -24.6863  -28.2792   20.1106 C   0  0  0  0  0  0  0  0  0  0  0  0
  -21.3073  -31.2003   23.2429 C   0  0  0  0  0  0  0  0  0  0  0  0
  -25.2709  -27.1474   20.6968 C   0  0  0  0  0  0  0  0  0  0  0  0
  -27.9972  -15.4473   20.4533 C   0  0  0  0  0  0  0  0  0  0  0  0
  -27.4377  -28.2477   20.6305 C   0  0  0  0  0  0  0  0  0  0  0  0
  -26.6128  -13.5527   20.5801 C   0  0  0  0  0  0  0  0  0  0  0  0
  -24.0763  -12.4625   20.9805 C   0  0  0  0  0  0  0  0  0  0  0  0
  -26.0121  -12.7962   19.5739 C   0  0  0  0  0  0  0  0  0  0  0  0
  -28.3872  -19.6542   20.6723 C   0  0  0  0  0  0  0  0  0  0  0  0
  -33.2485  -24.4531   26.1378 C   0  0  0  0  0  0  0  0  0  0  0  0
  -33.7844  -25.1242   24.1136 C   0  0  0  0  0  0  0  0  0  0  0  0
  -28.2494  -21.7653   21.2716 C   0  0  0  0  0  0  0  0  0  0  0  0
  -27.0169  -20.1984   22.7796 C   0  0  0  0  0  0  0  0  0  0  0  0
  -22.2192  -27.8201   22.0616 C   0  0  0  0  0  0  0  0  0  0  0  0
  -22.1958  -24.8732   20.7061 C   0  0  0  0  0  0  0  0  0  0  0  0
  -23.9195  -22.4209   19.0745 C   0  0  0  0  0  0  0  0  0  0  0  0
  -32.9256  -23.7375   18.0944 C   0  0  0  0  0  0  0  0  0  0  0  0
  -18.7741  -31.3041   23.4936 C   0  0  0  0  0  0  0  0  0  0  0  0
  -23.2156  -28.3003   19.7961 C   0  0  0  0  0  0  0  0  0  0  0  0
  -24.4572  -25.9338   21.0620 C   0  0  0  0  0  0  0  0  0  0  0  0
  -18.7815  -29.7893   23.3052 C   0  0  0  0  0  0  0  0  0  0  0  0
  -29.4787  -24.3128   17.4128 C   0  0  0  0  0  0  0  0  0  0  0  0
  -19.9871  -29.1701   24.0052 C   0  0  0  0  0  0  0  0  0  0  0  0
  -28.7582  -23.2613   18.2585 C   0  0  0  0  0  0  0  0  0  0  0  0
  -30.7891  -23.7761   16.8412 C   0  0  0  0  0  0  0  0  0  0  0  0
  -30.9920  -22.1537   18.6853 C   0  0  0  0  0  0  0  0  0  0  0  0
  -21.2997  -29.6966   23.4123 C   0  0  1  0  0  0  0  0  0  0  0  0
  -22.4072  -27.3312   20.6533 C   0  0  1  0  0  0  0  0  0  0  0  0
  -29.6925  -22.6665   19.3292 C   0  0  2  0  0  0  0  0  0  0  0  0
  -33.5650  -24.9760   28.5695 C   0  0  0  0  0  0  0  0  0  0  0  0
  -23.6424  -20.1118   18.1319 C   0  0  0  0  0  0  0  0  0  0  0  0
  -30.0435  -27.3717   24.9731 C   0  0  0  0  0  0  0  0  0  0  0  0
  -22.2975  -23.7124   23.5261 C   0  0  0  0  0  0  0  0  0  0  0  0
  -22.9699  -21.5189   22.5238 C   0  0  0  0  0  0  0  0  0  0  0  0
  -20.7546  -22.5183   21.9614 C   0  0  0  0  0  0  0  0  0  0  0  0
  -24.5700  -23.3352   16.3359 C   0  0  0  0  0  0  0  0  0  0  0  0
  -33.2688  -23.9106   27.5067 C   0  0  0  0  0  0  0  0  0  0  0  0
  -34.3953  -25.4912   22.8229 C   0  0  0  0  0  0  0  0  0  0  0  0
  -34.3517  -24.3436   21.7920 C   0  0  0  0  0  0  0  0  0  0  0  0
  -35.0261  -24.7234   20.4704 C   0  0  0  0  0  0  0  0  0  0  0  0
  -30.4764  -28.0952   22.5733 C   0  0  0  0  0  0  0  0  0  0  0  0
  -31.4185  -25.9058   23.4768 C   0  0  0  0  0  0  0  0  0  0  0  0
  -34.9986  -23.5894   19.4508 C   0  0  0  0  0  0  0  0  0  0  0  0
  -29.2088  -27.4623   22.0098 C   0  0  0  0  0  0  0  0  0  1  0  0
  -22.8575  -23.5510   21.0109 C   0  0  1  0  0  0  0  0  0  0  0  0
  -23.5826  -21.6033   17.8406 C   0  0  2  0  0  0  0  0  0  0  0  0
  -31.0418  -27.3678   23.8096 C   0  0  2  0  0  0  0  0  0  0  0  0
  -22.2352  -22.8486   22.2506 C   0  0  0  0  0  0  0  0  0  0  0  0
  -29.1000  -20.3102   19.7527 N   0  0  0  0  0  0  0  0  0  0  0  0
  -32.1043  -24.9115   25.6234 N   0  0  0  0  0  0  0  0  0  0  0  0
  -32.4626  -25.3127   24.3918 N   0  0  0  0  0  0  0  0  0  0  0  0
  -28.9972  -21.5917   20.1442 N   0  0  0  0  0  0  0  0  0  0  0  0
  -23.0223  -26.0052   20.7402 N   0  0  0  0  0  0  0  0  0  0  0  0
  -31.6300  -23.2279   17.9082 N   0  0  0  0  0  0  0  0  0  0  0  0
  -28.0445  -22.9895   21.8022 N   0  0  0  0  0  0  0  0  0  0  0  0
  -26.6834  -18.8577   23.0152 N   0  0  0  0  0  0  0  0  0  0  0  0
  -21.5830  -29.0434   22.1523 N   0  0  0  0  0  0  0  0  0  0  0  0
  -22.7880  -22.7670   19.7825 N   0  0  0  0  0  0  0  0  0  0  0  0
  -33.6531  -23.1668   19.1316 N   0  0  0  0  0  0  0  0  0  0  0  0
  -24.5416  -21.9061   16.7408 N   0  3  0  0  0  0  0  0  0  0  0  0
  -26.5817  -21.0844   23.5537 O   0  0  0  0  0  0  0  0  0  0  0  0
  -22.6202  -27.1373   22.9968 O   0  0  0  0  0  0  0  0  0  0  0  0
  -20.9915  -24.8997   20.4403 O   0  0  0  0  0  0  0  0  0  0  0  0
  -25.0715  -22.7194   19.3817 O   0  0  0  0  0  0  0  0  0  0  0  0
  -33.3970  -24.6383   17.3920 O   0  0  0  0  0  0  0  0  0  0  0  0
  -27.8722  -14.0938   20.3832 O   0  0  0  0  0  0  0  0  0  0  0  0
  -28.7737  -28.2307   20.8888 O   0  0  0  0  0  0  0  0  0  1  0  0
  -22.8591  -11.9379   21.1735 F   0  0  0  0  0  0  0  0  0  0  0  0
  -26.6489  -12.5887   18.4132 F   0  0  0  0  0  0  0  0  0  0  0  0
  1  2  1  0  0  0  0
  1  5  2  0  0  0  0
  2  6  2  0  0  0  0
  3  8  2  0  0  0  0
  3 16  1  0  0  0  0
  4  9  1  0  0  0  0
  4 16  2  0  0  0  0
  5 18  1  0  0  0  0
  6 20  1  0  0  0  0
  7 10  2  0  0  0  0
  7 19  1  0  0  0  0
  8 22  1  0  0  0  0
  9 22  2  0  0  0  0
 10 23  1  0  0  0  0
 11 12  2  0  0  0  0
 11 24  1  0  0  0  0
 12 25  1  0  0  0  0
 13 21  1  0  0  0  0
 13 23  2  0  0  0  0
 14 25  2  0  0  0  0
 14 26  1  0  0  0  0
 15 28  1  0  0  0  0
 15 29  2  0  0  0  0
 16 27  1  0  0  0  0
 17 27  1  0  0  0  0
 17 30  2  0  0  0  0
 17 31  1  0  0  0  0
 18 20  2  0  0  0  0
 18 36  1  0  0  0  0
 19 21  2  0  0  0  0
 19 37  1  0  0  0  0
 20 45  1  0  0  0  0
 21 38  1  0  0  0  0
 22 84  1  0  0  0  0
 23 85  1  0  0  0  0
 24 26  2  0  0  0  0
 24 84  1  0  0  0  0
 25 86  1  0  0  0  0
 26 87  1  0  0  0  0
 27 67  2  0  0  0  0
 28 55  1  0  0  0  0
 28 68  2  0  0  0  0
 29 56  1  0  0  0  0
 29 69  1  0  0  0  0
 30 70  1  0  0  0  0
 30 73  1  0  0  0  0
 31 74  1  0  0  0  0
 31 79  2  0  0  0  0
 32 46  1  0  0  0  0
 32 75  1  0  0  0  0
 32 80  2  0  0  0  0
 33 63  1  0  0  0  0
 33 71  1  0  0  0  0
 33 81  2  0  0  0  0
 34 64  1  0  0  0  0
 34 76  1  0  0  0  0
 34 82  2  0  0  0  0
 35 72  1  0  0  0  0
 35 77  1  0  0  0  0
 35 83  2  0  0  0  0
 36 39  1  0  0  0  0
 37 46  1  0  0  0  0
 38 71  1  0  0  0  0
 39 41  1  0  0  0  0
 40 42  1  0  0  0  0
 40 43  1  0  0  0  0
 41 45  1  0  0  0  0
 42 47  1  0  0  0  0
 43 72  1  0  0  0  0
 44 47  1  0  0  0  0
 44 72  1  0  0  0  0
 45 75  1  0  0  0  0
 46 71  1  0  0  0  0
 47 70  1  0  0  0  0
 48 55  1  0  0  0  0
 49 64  1  0  0  0  0
 50 65  1  0  0  0  0
 51 66  1  0  0  0  0
 52 66  1  0  0  0  0
 53 66  1  0  0  0  0
 54 78  1  0  0  0  0
 56 57  1  0  0  0  0
 57 58  1  0  0  0  0
 58 61  1  0  0  0  0
 59 62  1  0  0  0  0
 59 65  1  0  0  0  0
 60 65  1  0  0  0  0
 60 69  1  0  0  0  0
 61 77  1  0  0  0  0
 62 85  1  0  0  0  0
 63 66  1  0  0  0  0
 63 76  1  0  0  0  0
 64 78  1  0  0  0  0
 67 70  1  0  0  0  0
 68 69  1  0  0  0  0
M  CHG  1  78   1
M  ISO  4  35 100  62 101  77 100  85 101
M  END
> <Batch ID>
0043

> <Smiles>
CCc1cc(CCCC[100NH:0][100C:0](=O)N2CCCC(n3nc(-c4ccc(Oc5ccc(F)cc5F)cc4)c(C(N)=O)c3N)C2)n(CC(C)C[101CH2:1][101O:1]c2ccc3c(c2)CN(C(=O)C(NC(=O)C(C)NC)C(C)(C)C)C(C(=O)NC2CCCc4ccccc42)C3)n1

> <Shape>
0.200

> <Color>
0.068

> <Negative vol penalty>
0.000

$$$$

  -OEChem-04052317143D

 87 95  0     1  0  0  0  0  0999 V2000
  -18.8604  -24.7596   21.8022 C   0  0  0  0  0  0  0  0  0  0  0  0
  -19.8885  -25.6877   21.9329 C   0  0  0  0  0  0  0  0  0  0  0  0
  -26.5986  -14.4405   21.3292 C   0  0  0  0  0  0  0  0  0  0  0  0
  -24.1965  -14.5125   21.5782 C   0  0  0  0  0  0  0  0  0  0  0  0
  -19.1260  -23.4000   21.9600 C   0  0  0  0  0  0  0  0  0  0  0  0
  -21.1826  -25.2568   22.2225 C   0  0  0  0  0  0  0  0  0  0  0  0
  -24.6794  -27.5552   19.3703 C   0  0  0  0  0  0  0  0  0  0  0  0
  -26.5019  -13.1690   20.7639 C   0  0  0  0  0  0  0  0  0  0  0  0
  -24.0998  -13.2410   21.0129 C   0  0  0  0  0  0  0  0  0  0  0  0
  -25.0395  -28.8538   19.7278 C   0  0  0  0  0  0  0  0  0  0  0  0
  -23.2487   -9.8661   19.9662 C   0  0  0  0  0  0  0  0  0  0  0  0
  -22.4055   -8.9437   20.5856 C   0  0  0  0  0  0  0  0  0  0  0  0
  -27.0183  -28.0002   20.8118 C   0  0  0  0  0  0  0  0  0  0  0  0
  -23.7087   -9.1137   22.6129 C   0  0  0  0  0  0  0  0  0  0  0  0
  -27.1574  -30.2580   24.9101 C   0  0  0  0  0  0  0  0  0  0  0  0
  -25.4459  -15.1122   21.7364 C   0  0  0  0  0  0  0  0  0  0  0  0
  -25.5121  -17.6608   21.6466 C   0  0  0  0  0  0  0  0  0  0  0  0
  -20.4259  -22.9515   22.2422 C   0  0  0  0  0  0  0  0  0  0  0  0
  -25.4818  -26.4665   19.7409 C   0  0  0  0  0  0  0  0  0  0  0  0
  -21.4656  -23.8900   22.3855 C   0  0  0  0  0  0  0  0  0  0  0  0
  -26.6675  -26.6890   20.4556 C   0  0  0  0  0  0  0  0  0  0  0  0
  -25.2525  -12.5692   20.6058 C   0  0  0  0  0  0  0  0  0  0  0  0
  -26.2076  -29.0762   20.4511 C   0  0  0  0  0  0  0  0  0  0  0  0
  -24.3220  -10.4123   20.6701 C   0  0  0  0  0  0  0  0  0  0  0  0
  -22.6355   -8.5675   21.9089 C   0  0  0  0  0  0  0  0  0  0  0  0
  -24.5519  -10.0362   21.9934 C   0  0  0  0  0  0  0  0  0  0  0  0
  -25.5452  -16.4255   22.3209 C   0  0  0  0  0  0  0  0  0  0  0  0
  -26.2028  -31.0012   25.5451 C   0  0  0  0  0  0  0  0  0  0  0  0
  -25.6425  -18.5986   22.6416 C   0  0  0  0  0  0  0  0  0  0  0  0
  -26.2206  -31.5910   23.4115 C   0  0  0  0  0  0  0  0  0  0  0  0
  -25.3756  -17.9360   20.2462 C   0  0  0  0  0  0  0  0  0  0  0  0
  -25.0641  -23.8843   21.5469 C   0  0  0  0  0  0  0  0  0  0  0  0
  -28.0110  -23.1081   20.4351 C   0  0  0  0  0  0  0  0  0  0  0  0
  -30.9844  -24.1581   19.1301 C   0  0  0  0  0  0  0  0  0  0  0  0
  -24.3076  -20.5478   27.6977 C   0  0  0  0  0  0  0  0  0  0  0  0
  -20.6553  -21.4755   22.4509 C   0  0  0  0  0  0  0  0  0  0  0  0
  -25.0932  -25.0744   19.3245 C   0  0  0  0  0  0  0  0  0  0  0  0
  -27.5740  -25.5563   20.8602 C   0  0  0  0  0  0  0  0  0  0  0  0
  -22.1262  -21.0725   22.3862 C   0  0  0  0  0  0  0  0  0  0  0  0
  -26.8609  -18.0725   27.5227 C   0  0  0  0  0  0  0  0  0  0  0  0
  -22.9784  -22.0278   23.2157 C   0  0  0  0  0  0  0  0  0  0  0  0
  -26.7392  -17.5213   26.1010 C   0  0  0  0  0  0  0  0  0  0  0  0
  -25.4951  -18.4141   28.1144 C   0  0  0  0  0  0  0  0  0  0  0  0
  -24.5481  -18.7634   25.8661 C   0  0  0  0  0  0  0  0  0  0  0  0
  -22.8873  -23.4598   22.6747 C   0  0  1  0  0  0  0  0  0  0  0  0
  -25.7193  -23.9925   20.1990 C   0  0  1  0  0  0  0  0  0  0  0  0
  -25.9036  -18.4568   25.2066 C   0  0  2  0  0  0  0  0  0  0  0  0
  -33.2117  -23.2961   18.3598 C   0  0  0  0  0  0  0  0  0  0  0  0
  -28.8778  -22.7595   23.3398 C   0  0  0  0  0  0  0  0  0  0  0  0
  -31.2576  -22.8437   22.5668 C   0  0  0  0  0  0  0  0  0  0  0  0
  -29.7543  -21.0180   21.7734 C   0  0  0  0  0  0  0  0  0  0  0  0
  -24.5784  -32.7792   24.8274 C   0  0  0  0  0  0  0  0  0  0  0  0
  -30.5497  -25.1571   16.3783 C   0  0  0  0  0  0  0  0  0  0  0  0
  -25.7817  -31.0086   26.9514 C   0  0  0  0  0  0  0  0  0  0  0  0
  -25.9045  -32.2697   22.1009 C   0  0  0  0  0  0  0  0  0  0  0  0
  -23.5663  -25.1372   27.2359 C   0  0  0  0  0  0  0  0  0  0  0  0
  -24.1072  -23.7562   26.8537 C   0  0  0  0  0  0  0  0  0  0  0  0
  -24.5900  -26.2352   26.9410 C   0  0  0  0  0  0  0  0  0  0  0  0
  -23.1029  -22.6402   27.1239 C   0  0  0  0  0  0  0  0  0  0  0  0
  -24.6443  -30.0301   27.2944 C   0  0  0  0  0  0  0  0  0  0  0  0
  -24.0342  -27.6080   27.2893 C   0  0  0  0  0  0  0  0  0  0  0  0
  -25.5036  -31.2766   21.0155 C   0  0  0  0  0  0  0  0  0  1  0  0
  -29.4272  -23.3645   20.8907 C   0  0  1  0  0  0  0  0  0  0  0  0
  -31.7953  -23.6638   17.9458 C   0  0  2  0  0  0  0  0  0  0  0  0
  -29.8114  -22.5178   22.1369 C   0  0  0  0  0  0  0  0  0  0  0  0
  -25.6858  -16.5627   23.6421 N   0  0  0  0  0  0  0  0  0  0  0  0
  -25.6396  -31.8176   24.5941 N   0  0  0  0  0  0  0  0  0  0  0  0
  -25.7423  -17.8954   23.8059 N   0  0  0  0  0  0  0  0  0  0  0  0
  -27.1465  -30.6434   23.5913 N   0  3  0  0  0  0  0  0  0  0  0  0
  -27.1476  -24.2128   20.4350 N   0  0  0  0  0  0  0  0  0  0  0  0
  -24.7542  -19.3052   27.2184 N   0  0  0  0  0  0  0  0  0  0  0  0
  -25.6806  -19.9480   22.6253 N   0  0  0  0  0  0  0  0  0  0  0  0
  -25.2523  -16.8556   19.3619 N   0  0  0  0  0  0  0  0  0  0  0  0
  -23.7114  -23.6074   21.4942 N   0  0  0  0  0  0  0  0  0  0  0  0
  -30.2778  -23.1359   19.7277 N   0  0  0  0  0  0  0  0  0  0  0  0
  -23.6191  -21.3337   26.7817 N   0  0  0  0  0  0  0  0  0  0  0  0
  -31.8715  -24.7170   16.8943 N   0  3  0  0  0  0  0  0  0  0  0  0
  -25.0445  -28.6449   26.9442 N   0  3  0  0  0  0  0  0  0  0  0  0
  -25.3798  -19.1047   19.7907 O   0  0  0  0  0  0  0  0  0  0  0  0
  -25.7365  -24.0390   22.5596 O   0  0  0  0  0  0  0  0  0  0  0  0
  -27.6848  -21.9711   20.0852 O   0  0  0  0  0  0  0  0  0  0  0  0
  -30.9812  -25.3329   19.4913 O   0  0  0  0  0  0  0  0  0  0  0  0
  -24.5123  -20.9308   28.8546 O   0  0  0  0  0  0  0  0  0  0  0  0
  -25.1577  -11.3286   20.0540 O   0  0  0  0  0  0  0  0  0  0  0  0
  -26.5612  -30.3426   20.8019 O   0  0  0  0  0  0  0  0  0  1  0  0
  -21.8248   -7.6828   22.5041 F   0  0  0  0  0  0  0  0  0  0  0  0
  -25.5807  -10.5584   22.6752 F   0  0  0  0  0  0  0  0  0  0  0  0
  1  2  1  0  0  0  0
  1  5  2  0  0  0  0
  2  6  2  0  0  0  0
  3  8  2  0  0  0  0
  3 16  1  0  0  0  0
  4  9  1  0  0  0  0
  4 16  2  0  0  0  0
  5 18  1  0  0  0  0
  6 20  1  0  0  0  0
  7 10  2  0  0  0  0
  7 19  1  0  0  0  0
  8 22  1  0  0  0  0
  9 22  2  0  0  0  0
 10 23  1  0  0  0  0
 11 12  2  0  0  0  0
 11 24  1  0  0  0  0
 12 25  1  0  0  0  0
 13 21  1  0  0  0  0
 13 23  2  0  0  0  0
 14 25  2  0  0  0  0
 14 26  1  0  0  0  0
 15 28  2  0  0  0  0
 15 69  1  0  0  0  0
 16 27  1  0  0  0  0
 17 27  1  0  0  0  0
 17 29  2  0  0  0  0
 17 31  1  0  0  0  0
 18 20  2  0  0  0  0
 18 36  1  0  0  0  0
 19 21  2  0  0  0  0
 19 37  1  0  0  0  0
 20 45  1  0  0  0  0
 21 38  1  0  0  0  0
 22 84  1  0  0  0  0
 23 85  1  0  0  0  0
 24 26  2  0  0  0  0
 24 84  1  0  0  0  0
 25 86  1  0  0  0  0
 26 87  1  0  0  0  0
 27 66  2  0  0  0  0
 28 54  1  0  0  0  0
 28 67  1  0  0  0  0
 29 68  1  0  0  0  0
 29 72  1  0  0  0  0
 30 55  1  0  0  0  0
 30 67  1  0  0  0  0
 30 69  2  0  0  0  0
 31 73  1  0  0  0  0
 31 79  2  0  0  0  0
 32 46  1  0  0  0  0
 32 74  1  0  0  0  0
 32 80  2  0  0  0  0
 33 63  1  0  0  0  0
 33 70  1  0  0  0  0
 33 81  2  0  0  0  0
 34 64  1  0  0  0  0
 34 75  1  0  0  0  0
 34 82  2  0  0  0  0
 35 71  1  0  0  0  0
 35 76  1  0  0  0  0
 35 83  2  0  0  0  0
 36 39  1  0  0  0  0
 37 46  1  0  0  0  0
 38 70  1  0  0  0  0
 39 41  1  0  0  0  0
 40 42  1  0  0  0  0
 40 43  1  0  0  0  0
 41 45  1  0  0  0  0
 42 47  1  0  0  0  0
 43 71  1  0  0  0  0
 44 47  1  0  0  0  0
 44 71  1  0  0  0  0
 45 74  1  0  0  0  0
 46 70  1  0  0  0  0
 47 68  1  0  0  0  0
 48 64  1  0  0  0  0
 49 65  1  0  0  0  0
 50 65  1  0  0  0  0
 51 65  1  0  0  0  0
 52 67  1  0  0  0  0
 53 77  1  0  0  0  0
 54 60  1  0  0  0  0
 55 62  1  0  0  0  0
 56 57  1  0  0  0  0
 56 58  1  0  0  0  0
 57 59  1  0  0  0  0
 58 61  1  0  0  0  0
 59 76  1  0  0  0  0
 60 78  1  0  0  0  0
 61 78  1  0  0  0  0
 62 85  1  0  0  0  0
 63 65  1  0  0  0  0
 63 75  1  0  0  0  0
 64 77  1  0  0  0  0
 66 68  1  0  0  0  0
M  CHG  3  69   1  77   1  78   1
M  ISO  4  35 100  62 101  76 100  85 101
M  END
> <Batch ID>
0043

> <Smiles>
CNC(C)C(=O)NC(C(=O)N1Cc2cc([101O:1][101CH2:1]Cc3ncc(CCNCCCCC[100NH:0][100C:0](=O)N4CCCC(n5nc(-c6ccc(Oc7ccc(F)cc7F)cc6)c(C(N)=O)c5N)C4)n3C)ccc2CC1C(=O)NC1CCCc2ccccc21)C(C)(C)C

> <Shape>
0.223

> <Color>
0.058

> <Negative vol penalty>
0.000

$$$$

  -OEChem-04052317143D

 85 93  0     1  0  0  0  0  0999 V2000
  -29.8587  -12.4504   19.6007 C   0  0  0  0  0  0  0  0  0  0  0  0
  -29.7395  -13.8300   19.4667 C   0  0  0  0  0  0  0  0  0  0  0  0
  -24.8345  -30.2060   20.2495 C   0  0  0  0  0  0  0  0  0  0  0  0
  -24.2561  -28.6412   21.9971 C   0  0  0  0  0  0  0  0  0  0  0  0
  -28.7147  -11.6553   19.6582 C   0  0  0  0  0  0  0  0  0  0  0  0
  -28.4763  -14.4153   19.3890 C   0  0  0  0  0  0  0  0  0  0  0  0
  -28.0660  -18.5438   22.2927 C   0  0  0  0  0  0  0  0  0  0  0  0
  -24.5168  -31.2684   21.0956 C   0  0  0  0  0  0  0  0  0  0  0  0
  -23.9385  -29.7036   22.8432 C   0  0  0  0  0  0  0  0  0  0  0  0
  -28.6336  -19.7217   21.8087 C   0  0  0  0  0  0  0  0  0  0  0  0
  -25.9586  -32.9192   23.6703 C   0  0  0  0  0  0  0  0  0  0  0  0
  -26.8454  -33.9947   23.7215 C   0  0  0  0  0  0  0  0  0  0  0  0
  -26.4562  -20.4663   21.0849 C   0  0  0  0  0  0  0  0  0  0  0  0
  -25.0920  -35.4763   22.9683 C   0  0  0  0  0  0  0  0  0  0  0  0
  -30.3239  -19.6683   16.4718 C   0  0  0  0  0  0  0  0  0  0  0  0
  -24.7041  -28.8924   20.7002 C   0  0  0  0  0  0  0  0  0  0  0  0
  -26.2839  -27.1684   19.6806 C   0  0  0  0  0  0  0  0  0  0  0  0
  -27.4367  -12.2321   19.5908 C   0  0  0  0  0  0  0  0  0  0  0  0
  -26.6886  -18.3132   22.1665 C   0  0  0  0  0  0  0  0  0  0  0  0
  -27.3142  -13.6271   19.4443 C   0  0  0  0  0  0  0  0  0  0  0  0
  -25.8733  -19.2858   21.5705 C   0  0  0  0  0  0  0  0  0  0  0  0
  -24.0689  -31.0173   22.3925 C   0  0  0  0  0  0  0  0  0  0  0  0
  -27.8291  -20.6818   21.2021 C   0  0  0  0  0  0  0  0  0  0  0  0
  -24.6385  -33.1223   23.2681 C   0  0  0  0  0  0  0  0  0  0  0  0
  -26.4121  -35.2732   23.3705 C   0  0  0  0  0  0  0  0  0  0  0  0
  -24.2052  -34.4009   22.9171 C   0  0  0  0  0  0  0  0  0  0  0  0
  -25.0315  -27.7945   19.8264 C   0  0  0  0  0  0  0  0  0  0  0  0
  -29.2245  -21.3226   17.2368 C   0  0  0  0  0  0  0  0  0  0  0  0
  -28.3078  -20.5541   16.5588 C   0  0  0  0  0  0  0  0  0  0  0  0
  -26.0721  -26.1923   18.7377 C   0  0  0  0  0  0  0  0  0  0  0  0
  -27.5275  -27.4443   20.3386 C   0  0  0  0  0  0  0  0  0  0  0  0
  -24.9048  -16.1380   20.6865 C   0  0  0  0  0  0  0  0  0  0  0  0
  -22.4803  -17.6466   22.2254 C   0  0  0  0  0  0  0  0  0  0  0  0
  -21.3171  -20.4892   23.7131 C   0  0  0  0  0  0  0  0  0  0  0  0
  -22.9885  -22.0423   16.6369 C   0  0  0  0  0  0  0  0  0  0  0  0
  -26.2301  -11.3274   19.6095 C   0  0  0  0  0  0  0  0  0  0  0  0
  -26.0878  -17.0493   22.7178 C   0  0  0  0  0  0  0  0  0  0  0  0
  -24.3860  -19.0954   21.4287 C   0  0  0  0  0  0  0  0  0  0  0  0
  -24.9229  -12.0614   19.8972 C   0  0  0  0  0  0  0  0  0  0  0  0
  -22.1232  -25.3629   15.6874 C   0  0  0  0  0  0  0  0  0  0  0  0
  -24.8239  -13.3270   19.0514 C   0  0  0  0  0  0  0  0  0  0  0  0
  -22.9008  -26.2390   16.6711 C   0  0  0  0  0  0  0  0  0  0  0  0
  -21.6155  -24.0841   16.3500 C   0  0  0  0  0  0  0  0  0  0  0  0
  -23.4292  -24.1632   18.0167 C   0  0  0  0  0  0  0  0  0  0  0  0
  -25.9609  -14.3015   19.3816 C   0  0  1  0  0  0  0  0  0  0  0  0
  -24.7512  -16.6929   22.0744 C   0  0  1  0  0  0  0  0  0  0  0  0
  -24.0092  -25.4379   17.3803 C   0  0  2  0  0  0  0  0  0  0  0  0
  -19.2842  -21.4304   24.8441 C   0  0  0  0  0  0  0  0  0  0  0  0
  -28.6763  -17.0586   16.0155 C   0  0  0  0  0  0  0  0  0  0  0  0
  -29.1573  -18.3532   13.8945 C   0  0  0  0  0  0  0  0  0  0  0  0
  -21.1157  -17.9518   19.5134 C   0  0  0  0  0  0  0  0  0  0  0  0
  -19.6209  -19.6792   20.5381 C   0  0  0  0  0  0  0  0  0  0  0  0
  -19.5816  -17.3348   21.3896 C   0  0  0  0  0  0  0  0  0  0  0  0
  -22.7919  -20.9493   26.2374 C   0  0  0  0  0  0  0  0  0  0  0  0
  -28.9987  -22.6158   17.9787 C   0  0  0  0  0  0  0  0  0  0  0  0
  -26.8606  -20.7191   16.3345 C   0  0  0  0  0  0  0  0  0  0  0  0
  -29.9296  -22.8085   19.1778 C   0  0  0  0  0  0  0  0  0  0  0  0
  -25.9530  -19.8620   17.2515 C   0  0  0  0  0  0  0  0  0  0  0  0
  -24.4583  -20.0811   17.0277 C   0  0  0  0  0  0  0  0  0  0  0  0
  -29.7306  -21.7647   20.2706 C   0  0  0  0  0  0  0  0  0  1  0  0
  -21.5702  -18.8080   21.9064 C   0  0  1  0  0  0  0  0  0  0  0  0
  -20.6130  -20.7167   25.0386 C   0  0  2  0  0  0  0  0  0  0  0  0
  -28.5262  -18.3958   15.2874 C   0  0  0  0  0  0  0  0  0  0  0  0
  -20.5004  -18.4465   20.8377 C   0  0  0  0  0  0  0  0  0  0  0  0
  -30.4776  -20.7659   17.1786 N   0  0  0  0  0  0  0  0  0  0  0  0
  -24.0936  -27.2611   19.0391 N   0  0  0  0  0  0  0  0  0  0  0  0
  -29.0269  -19.4982   16.0739 N   0  0  0  0  0  0  0  0  0  0  0  0
  -24.7571  -26.2896   18.3894 N   0  0  0  0  0  0  0  0  0  0  0  0
  -23.8466  -17.8403   21.9778 N   0  0  0  0  0  0  0  0  0  0  0  0
  -22.7159  -23.3707   17.0028 N   0  0  0  0  0  0  0  0  0  0  0  0
  -26.8844  -25.2690   18.1808 N   0  0  0  0  0  0  0  0  0  0  0  0
  -27.5693  -28.4816   21.2802 N   0  0  0  0  0  0  0  0  0  0  0  0
  -25.6850  -14.9994   20.6190 N   0  0  0  0  0  0  0  0  0  0  0  0
  -21.0156  -19.2538   23.1800 N   0  0  0  0  0  0  0  0  0  0  0  0
  -24.0521  -21.4419   17.2996 N   0  0  0  0  0  0  0  0  0  0  0  0
  -21.4629  -21.5436   25.9413 N   0  3  0  0  0  0  0  0  0  0  0  0
  -28.5746  -26.8012   20.0868 O   0  0  0  0  0  0  0  0  0  0  0  0
  -24.3550  -16.7003   19.7467 O   0  0  0  0  0  0  0  0  0  0  0  0
  -21.9975  -16.6083   22.6843 O   0  0  0  0  0  0  0  0  0  0  0  0
  -22.0573  -21.3254   23.1999 O   0  0  0  0  0  0  0  0  0  0  0  0
  -22.3360  -21.4378   15.7791 O   0  0  0  0  0  0  0  0  0  0  0  0
  -23.7591  -32.0537   23.2185 O   0  0  0  0  0  0  0  0  0  0  0  0
  -28.3807  -21.8321   20.7281 O   0  0  0  0  0  0  0  0  0  1  0  0
  -27.2634  -36.3061   23.4212 F   0  0  0  0  0  0  0  0  0  0  0  0
  -22.9378  -34.6024   22.5310 F   0  0  0  0  0  0  0  0  0  0  0  0
  1  2  1  0  0  0  0
  1  5  2  0  0  0  0
  2  6  2  0  0  0  0
  3  8  2  0  0  0  0
  3 16  1  0  0  0  0
  4  9  1  0  0  0  0
  4 16  2  0  0  0  0
  5 18  1  0  0  0  0
  6 20  1  0  0  0  0
  7 10  2  0  0  0  0
  7 19  1  0  0  0  0
  8 22  1  0  0  0  0
  9 22  2  0  0  0  0
 10 23  1  0  0  0  0
 11 12  2  0  0  0  0
 11 24  1  0  0  0  0
 12 25  1  0  0  0  0
 13 21  1  0  0  0  0
 13 23  2  0  0  0  0
 14 25  2  0  0  0  0
 14 26  1  0  0  0  0
 15 65  2  0  0  0  0
 15 67  1  0  0  0  0
 16 27  1  0  0  0  0
 17 27  1  0  0  0  0
 17 30  2  0  0  0  0
 17 31  1  0  0  0  0
 18 20  2  0  0  0  0
 18 36  1  0  0  0  0
 19 21  2  0  0  0  0
 19 37  1  0  0  0  0
 20 45  1  0  0  0  0
 21 38  1  0  0  0  0
 22 82  1  0  0  0  0
 23 83  1  0  0  0  0
 24 26  2  0  0  0  0
 24 82  1  0  0  0  0
 25 84  1  0  0  0  0
 26 85  1  0  0  0  0
 27 66  2  0  0  0  0
 28 29  2  0  0  0  0
 28 55  1  0  0  0  0
 28 65  1  0  0  0  0
 29 56  1  0  0  0  0
 29 67  1  0  0  0  0
 30 68  1  0  0  0  0
 30 71  1  0  0  0  0
 31 72  1  0  0  0  0
 31 77  2  0  0  0  0
 32 46  1  0  0  0  0
 32 73  1  0  0  0  0
 32 78  2  0  0  0  0
 33 61  1  0  0  0  0
 33 69  1  0  0  0  0
 33 79  2  0  0  0  0
 34 62  1  0  0  0  0
 34 74  1  0  0  0  0
 34 80  2  0  0  0  0
 35 70  1  0  0  0  0
 35 75  1  0  0  0  0
 35 81  2  0  0  0  0
 36 39  1  0  0  0  0
 37 46  1  0  0  0  0
 38 69  1  0  0  0  0
 39 41  1  0  0  0  0
 40 42  1  0  0  0  0
 40 43  1  0  0  0  0
 41 45  1  0  0  0  0
 42 47  1  0  0  0  0
 43 70  1  0  0  0  0
 44 47  1  0  0  0  0
 44 70  1  0  0  0  0
 45 73  1  0  0  0  0
 46 69  1  0  0  0  0
 47 68  1  0  0  0  0
 48 62  1  0  0  0  0
 49 63  1  0  0  0  0
 50 63  1  0  0  0  0
 51 64  1  0  0  0  0
 52 64  1  0  0  0  0
 53 64  1  0  0  0  0
 54 76  1  0  0  0  0
 55 57  1  0  0  0  0
 56 58  1  0  0  0  0
 57 60  1  0  0  0  0
 58 59  1  0  0  0  0
 59 75  1  0  0  0  0
 60 83  1  0  0  0  0
 61 64  1  0  0  0  0
 61 74  1  0  0  0  0
 62 76  1  0  0  0  0
 63 67  1  0  0  0  0
 66 68  1  0  0  0  0
M  CHG  1  76   1
M  ISO  4  35 100  60 101  75 100  83 101
M  END
> <Batch ID>
0043

> <Smiles>
CNC(C)C(=O)NC(C(=O)N1Cc2cc([101O:1][101CH2:1]CCc3ncn(C(C)C)c3CCC[100NH:0][100C:0](=O)N3CCCC(n4nc(-c5ccc(Oc6ccc(F)cc6F)cc5)c(C(N)=O)c4N)C3)ccc2CC1C(=O)NC1CCCc2ccccc21)C(C)(C)C

> <Shape>
0.203

> <Color>
0.078

> <Negative vol penalty>
0.000

$$$$

  -OEChem-04052317143D

 86 94  0     1  0  0  0  0  0999 V2000
  -29.5096  -23.8771   12.5693 C   0  0  0  0  0  0  0  0  0  0  0  0
  -28.9323  -22.6341   12.8028 C   0  0  0  0  0  0  0  0  0  0  0  0
  -28.4268  -26.5041   18.1016 C   0  0  0  0  0  0  0  0  0  0  0  0
  -27.0568  -25.6781   19.9120 C   0  0  0  0  0  0  0  0  0  0  0  0
  -28.8680  -25.0330   13.0094 C   0  0  0  0  0  0  0  0  0  0  0  0
  -27.7077  -22.5471   13.4658 C   0  0  0  0  0  0  0  0  0  0  0  0
  -24.5158  -17.6797   15.2678 C   0  0  0  0  0  0  0  0  0  0  0  0
  -27.6001  -27.6216   17.9859 C   0  0  0  0  0  0  0  0  0  0  0  0
  -26.2300  -26.7956   19.7963 C   0  0  0  0  0  0  0  0  0  0  0  0
  -24.4051  -16.8866   16.4091 C   0  0  0  0  0  0  0  0  0  0  0  0
  -26.2897  -30.0433   20.7286 C   0  0  0  0  0  0  0  0  0  0  0  0
  -25.9116  -30.6923   21.9040 C   0  0  0  0  0  0  0  0  0  0  0  0
  -22.4918  -18.1765   17.1126 C   0  0  0  0  0  0  0  0  0  0  0  0
  -23.5896  -30.2594   21.3958 C   0  0  0  0  0  0  0  0  0  0  0  0
  -28.1551  -25.5323   19.0647 C   0  0  0  0  0  0  0  0  0  0  0  0
  -30.1540  -24.2470   19.9920 C   0  0  0  0  0  0  0  0  0  0  0  0
  -27.6410  -24.9584   13.6890 C   0  0  0  0  0  0  0  0  0  0  0  0
  -23.6205  -18.7358   15.0455 C   0  0  0  0  0  0  0  0  0  0  0  0
  -27.0329  -23.7037   13.8966 C   0  0  0  0  0  0  0  0  0  0  0  0
  -22.5917  -18.9799   15.9665 C   0  0  0  0  0  0  0  0  0  0  0  0
  -26.8878  -13.1892   19.8469 C   0  0  0  0  0  0  0  0  0  0  0  0
  -26.5017  -27.7673   18.8332 C   0  0  0  0  0  0  0  0  0  0  0  0
  -23.3948  -17.1367   17.3331 C   0  0  0  0  0  0  0  0  0  0  0  0
  -25.3178  -29.5024   19.8868 C   0  0  0  0  0  0  0  0  0  0  0  0
  -24.5615  -30.8003   22.2376 C   0  0  0  0  0  0  0  0  0  0  0  0
  -23.9678  -29.6105   20.2205 C   0  0  0  0  0  0  0  0  0  0  0  0
  -29.0084  -24.3775   19.1844 C   0  0  0  0  0  0  0  0  0  0  0  0
  -26.6991  -11.7943   19.8302 C   0  0  0  0  0  0  0  0  0  0  0  0
  -25.9198  -13.6564   20.7019 C   0  0  0  0  0  0  0  0  0  0  0  0
  -30.6015  -22.9713   19.7497 C   0  0  0  0  0  0  0  0  0  0  0  0
  -30.7595  -25.1943   20.8819 C   0  0  0  0  0  0  0  0  0  0  0  0
  -23.8982  -21.8894   14.7597 C   0  0  0  0  0  0  0  0  0  0  0  0
  -20.7433  -21.7095   14.0271 C   0  0  0  0  0  0  0  0  0  0  0  0
  -17.8059  -19.9893   14.2711 C   0  0  0  0  0  0  0  0  0  0  0  0
  -29.6323  -17.6124   19.2111 C   0  0  0  0  0  0  0  0  0  0  0  0
  -26.9863  -26.2416   14.1365 C   0  0  0  0  0  0  0  0  0  0  0  0
  -23.7370  -19.5653   13.7961 C   0  0  0  0  0  0  0  0  0  0  0  0
  -21.5927  -20.0887   15.7641 C   0  0  0  0  0  0  0  0  0  0  0  0
  -25.9255  -26.0246   15.2106 C   0  0  0  0  0  0  0  0  0  0  0  0
  -29.2316  -19.6137   16.2225 C   0  0  0  0  0  0  0  0  0  0  0  0
  -24.9733  -24.9171   14.7846 C   0  0  0  0  0  0  0  0  0  0  0  0
  -29.2331  -21.0295   16.8020 C   0  0  0  0  0  0  0  0  0  0  0  0
  -28.5053  -18.6395   17.1452 C   0  0  0  0  0  0  0  0  0  0  0  0
  -29.0341  -20.0158   19.1199 C   0  0  0  0  0  0  0  0  0  0  0  0
  -25.7164  -23.5827   14.6427 C   0  0  1  0  0  0  0  0  0  0  0  0
  -23.0853  -20.9384   13.9276 C   0  0  1  0  0  0  0  0  0  0  0  0
  -29.7732  -21.0439   18.2443 C   0  0  2  0  0  0  0  0  0  0  0  0
  -27.0884  -10.7395   17.5891 C   0  0  0  0  0  0  0  0  0  0  0  0
  -22.7942  -12.3355   21.3280 C   0  0  0  0  0  0  0  0  0  0  0  0
  -15.3903  -20.1113   13.6022 C   0  0  0  0  0  0  0  0  0  0  0  0
  -20.2467  -23.7849   16.2080 C   0  0  0  0  0  0  0  0  0  0  0  0
  -17.8215  -23.1662   16.1474 C   0  0  0  0  0  0  0  0  0  0  0  0
  -18.9130  -24.1260   14.1201 C   0  0  0  0  0  0  0  0  0  0  0  0
  -17.9968  -17.4932   12.6925 C   0  0  0  0  0  0  0  0  0  0  0  0
  -27.8953  -13.9747   19.1132 C   0  0  0  0  0  0  0  0  0  0  0  0
  -27.4655  -10.7877   19.0746 C   0  0  0  0  0  0  0  0  0  0  0  0
  -25.5802  -15.0547   21.1527 C   0  0  0  0  0  0  0  0  0  0  0  0
  -29.1227  -14.4133   19.9503 C   0  0  0  0  0  0  0  0  0  0  0  0
  -24.3349  -15.6339   20.4780 C   0  0  0  0  0  0  0  0  0  0  0  0
  -24.1198  -12.5280   22.0444 C   0  0  0  0  0  0  0  0  0  0  0  0
  -30.1709  -15.1908   19.1571 C   0  0  0  0  0  0  0  0  0  0  0  0
  -24.4883  -15.8035   18.9710 C   0  0  0  0  0  0  0  0  0  1  0  0
  -19.4579  -21.7577   14.8173 C   0  0  1  0  0  0  0  0  0  0  0  0
  -16.7740  -19.6048   13.2261 C   0  0  2  0  0  0  0  0  0  0  0  0
  -19.1296  -23.1890   15.3283 C   0  0  0  0  0  0  0  0  0  0  0  0
  -28.7446  -23.2728   18.4814 N   0  0  0  0  0  0  0  0  0  0  0  0
  -25.6906  -11.4009   20.6126 N   0  0  0  0  0  0  0  0  0  0  0  0
  -25.2370  -12.5557   21.1290 N   0  0  0  0  0  0  0  0  0  0  0  0
  -29.7309  -22.4361   18.8465 N   0  0  0  0  0  0  0  0  0  0  0  0
  -21.7522  -20.8759   14.5302 N   0  0  0  0  0  0  0  0  0  0  0  0
  -29.0797  -18.6887   18.4971 N   0  0  0  0  0  0  0  0  0  0  0  0
  -31.6510  -22.2663   20.2231 N   0  0  0  0  0  0  0  0  0  0  0  0
  -30.1706  -26.4594   21.0124 N   0  0  0  0  0  0  0  0  0  0  0  0
  -24.8309  -22.6111   14.0395 N   0  0  0  0  0  0  0  0  0  0  0  0
  -18.4295  -21.1790   13.9594 N   0  0  0  0  0  0  0  0  0  0  0  0
  -29.6309  -16.3886   18.5531 N   0  0  0  0  0  0  0  0  0  0  0  0
  -16.7092  -18.1228   13.0831 N   0  3  0  0  0  0  0  0  0  0  0  0
  -31.8016  -24.9325   21.5292 O   0  0  0  0  0  0  0  0  0  0  0  0
  -23.6933  -21.9640   15.9655 O   0  0  0  0  0  0  0  0  0  0  0  0
  -20.8458  -22.3810   12.9975 O   0  0  0  0  0  0  0  0  0  0  0  0
  -18.0331  -19.3049   15.2662 O   0  0  0  0  0  0  0  0  0  0  0  0
  -30.0978  -17.7341   20.3493 O   0  0  0  0  0  0  0  0  0  0  0  0
  -25.6949  -28.8577   18.7207 O   0  0  0  0  0  0  0  0  0  0  0  0
  -23.2849  -16.3645   18.4483 O   0  0  0  0  0  0  0  0  0  1  0  0
  -24.1986  -31.4222   23.3671 F   0  0  0  0  0  0  0  0  0  0  0  0
  -23.0296  -29.0918   19.4163 F   0  0  0  0  0  0  0  0  0  0  0  0
  1  2  1  0  0  0  0
  1  5  2  0  0  0  0
  2  6  2  0  0  0  0
  3  8  2  0  0  0  0
  3 15  1  0  0  0  0
  4  9  1  0  0  0  0
  4 15  2  0  0  0  0
  5 17  1  0  0  0  0
  6 19  1  0  0  0  0
  7 10  2  0  0  0  0
  7 18  1  0  0  0  0
  8 22  1  0  0  0  0
  9 22  2  0  0  0  0
 10 23  1  0  0  0  0
 11 12  2  0  0  0  0
 11 24  1  0  0  0  0
 12 25  1  0  0  0  0
 13 20  1  0  0  0  0
 13 23  2  0  0  0  0
 14 25  2  0  0  0  0
 14 26  1  0  0  0  0
 15 27  1  0  0  0  0
 16 27  1  0  0  0  0
 16 30  2  0  0  0  0
 16 31  1  0  0  0  0
 17 19  2  0  0  0  0
 17 36  1  0  0  0  0
 18 20  2  0  0  0  0
 18 37  1  0  0  0  0
 19 45  1  0  0  0  0
 20 38  1  0  0  0  0
 21 28  1  0  0  0  0
 21 29  2  0  0  0  0
 21 55  1  0  0  0  0
 22 83  1  0  0  0  0
 23 84  1  0  0  0  0
 24 26  2  0  0  0  0
 24 83  1  0  0  0  0
 25 85  1  0  0  0  0
 26 86  1  0  0  0  0
 27 66  2  0  0  0  0
 28 56  1  0  0  0  0
 28 67  2  0  0  0  0
 29 57  1  0  0  0  0
 29 68  1  0  0  0  0
 30 69  1  0  0  0  0
 30 72  1  0  0  0  0
 31 73  1  0  0  0  0
 31 78  2  0  0  0  0
 32 46  1  0  0  0  0
 32 74  1  0  0  0  0
 32 79  2  0  0  0  0
 33 63  1  0  0  0  0
 33 70  1  0  0  0  0
 33 80  2  0  0  0  0
 34 64  1  0  0  0  0
 34 75  1  0  0  0  0
 34 81  2  0  0  0  0
 35 71  1  0  0  0  0
 35 76  1  0  0  0  0
 35 82  2  0  0  0  0
 36 39  1  0  0  0  0
 37 46  1  0  0  0  0
 38 70  1  0  0  0  0
 39 41  1  0  0  0  0
 40 42  1  0  0  0  0
 40 43  1  0  0  0  0
 41 45  1  0  0  0  0
 42 47  1  0  0  0  0
 43 71  1  0  0  0  0
 44 47  1  0  0  0  0
 44 71  1  0  0  0  0
 45 74  1  0  0  0  0
 46 70  1  0  0  0  0
 47 69  1  0  0  0  0
 48 56  1  0  0  0  0
 49 60  1  0  0  0  0
 50 64  1  0  0  0  0
 51 65  1  0  0  0  0
 52 65  1  0  0  0  0
 53 65  1  0  0  0  0
 54 77  1  0  0  0  0
 55 58  1  0  0  0  0
 57 59  1  0  0  0  0
 58 61  1  0  0  0  0
 59 62  1  0  0  0  0
 60 68  1  0  0  0  0
 61 76  1  0  0  0  0
 62 84  1  0  0  0  0
 63 65  1  0  0  0  0
 63 75  1  0  0  0  0
 64 77  1  0  0  0  0
 66 69  1  0  0  0  0
 67 68  1  0  0  0  0
M  CHG  1  77   1
M  ISO  4  35 100  62 101  76 100  84 101
M  END
> <Batch ID>
0043

> <Smiles>
CCc1nn(CC)c(CC[101CH2:1][101O:1]c2ccc3c(c2)CN(C(=O)C(NC(=O)C(C)NC)C(C)(C)C)C(C(=O)NC2CCCc4ccccc42)C3)c1CCC[100NH:0][100C:0](=O)N1CCCC(n2nc(-c3ccc(Oc4ccc(F)cc4F)cc3)c(C(N)=O)c2N)C1

> <Shape>
0.190

> <Color>
0.074

> <Negative vol penalty>
0.000

$$$$

  -OEChem-04052317143D

 84 92  0     1  0  0  0  0  0999 V2000
  -31.1765  -24.1035   18.2592 C   0  0  0  0  0  0  0  0  0  0  0  0
  -29.8019  -23.9544   18.4132 C   0  0  0  0  0  0  0  0  0  0  0  0
  -26.6645  -13.8201   21.2227 C   0  0  0  0  0  0  0  0  0  0  0  0
  -24.6204  -13.8804   19.9363 C   0  0  0  0  0  0  0  0  0  0  0  0
  -31.9021  -24.8585   19.1797 C   0  0  0  0  0  0  0  0  0  0  0  0
  -29.1523  -24.5594   19.4886 C   0  0  0  0  0  0  0  0  0  0  0  0
  -23.5026  -26.9227   19.5200 C   0  0  0  0  0  0  0  0  0  0  0  0
  -26.1560  -12.7658   21.9814 C   0  0  0  0  0  0  0  0  0  0  0  0
  -24.1119  -12.8261   20.6949 C   0  0  0  0  0  0  0  0  0  0  0  0
  -22.2774  -26.4186   19.9542 C   0  0  0  0  0  0  0  0  0  0  0  0
  -22.4167   -9.9121   22.0563 C   0  0  0  0  0  0  0  0  0  0  0  0
  -21.7799   -8.8726   21.3786 C   0  0  0  0  0  0  0  0  0  0  0  0
  -22.5664  -27.5510   22.0646 C   0  0  0  0  0  0  0  0  0  0  0  0
  -23.8140   -8.4247   20.1542 C   0  0  0  0  0  0  0  0  0  0  0  0
  -25.8967  -14.3774   20.2002 C   0  0  0  0  0  0  0  0  0  0  0  0
  -27.1674  -15.3758   18.2263 C   0  0  0  0  0  0  0  0  0  0  0  0
  -31.2596  -25.4810   20.2615 C   0  0  0  0  0  0  0  0  0  0  0  0
  -24.2753  -27.7372   20.3602 C   0  0  0  0  0  0  0  0  0  0  0  0
  -29.8703  -25.3223   20.4252 C   0  0  0  0  0  0  0  0  0  0  0  0
  -23.7998  -28.0662   21.6376 C   0  0  0  0  0  0  0  0  0  0  0  0
  -20.8322  -21.6818   22.2337 C   0  0  0  0  0  0  0  0  0  0  0  0
  -24.8797  -12.2688   21.7174 C   0  0  0  0  0  0  0  0  0  0  0  0
  -21.8105  -26.7304   21.2278 C   0  0  0  0  0  0  0  0  0  0  0  0
  -23.7522  -10.2080   21.7830 C   0  0  0  0  0  0  0  0  0  0  0  0
  -22.4785   -8.1289   20.4275 C   0  0  0  0  0  0  0  0  0  0  0  0
  -24.4508   -9.4643   20.8320 C   0  0  0  0  0  0  0  0  0  0  0  0
  -26.4212  -15.4669   19.4166 C   0  0  0  0  0  0  0  0  0  0  0  0
  -19.8748  -22.0301   21.2621 C   0  0  0  0  0  0  0  0  0  0  0  0
  -20.8015  -22.7191   23.1334 C   0  0  0  0  0  0  0  0  0  0  0  0
  -27.4226  -16.6802   17.8804 C   0  0  0  0  0  0  0  0  0  0  0  0
  -27.5918  -14.2157   17.4984 C   0  0  0  0  0  0  0  0  0  0  0  0
  -27.1642  -27.5108   21.6665 C   0  0  0  0  0  0  0  0  0  0  0  0
  -26.5388  -30.5442   22.6306 C   0  0  0  0  0  0  0  0  0  0  0  0
  -24.2106  -32.9298   23.3624 C   0  0  0  0  0  0  0  0  0  0  0  0
  -24.6308  -21.8386   19.0836 C   0  0  0  0  0  0  0  0  0  0  0  0
  -32.0933  -26.2481   21.2572 C   0  0  0  0  0  0  0  0  0  0  0  0
  -25.5822  -28.2947   19.8669 C   0  0  0  0  0  0  0  0  0  0  0  0
  -24.5818  -28.9530   22.5707 C   0  0  0  0  0  0  0  0  0  0  0  0
  -31.2728  -27.1665   22.1592 C   0  0  0  0  0  0  0  0  0  0  0  0
  -28.0184  -21.0178   19.8095 C   0  0  0  0  0  0  0  0  0  0  0  0
  -30.0523  -26.4302   22.7024 C   0  0  0  0  0  0  0  0  0  0  0  0
  -28.0605  -19.4939   19.6837 C   0  0  0  0  0  0  0  0  0  0  0  0
  -26.6975  -21.4985   20.4063 C   0  0  0  0  0  0  0  0  0  0  0  0
  -25.5328  -19.4871   19.5868 C   0  0  0  0  0  0  0  0  0  0  0  0
  -29.1259  -25.9837   21.5649 C   0  0  1  0  0  0  0  0  0  0  0  0
  -26.5258  -28.6947   20.9970 C   0  0  1  0  0  0  0  0  0  0  0  0
  -26.8235  -18.9584   18.9379 C   0  0  2  0  0  0  0  0  0  0  0  0
  -21.6789  -20.4770   22.2783 C   0  0  0  0  0  0  0  0  0  0  0  0
  -21.5650  -22.9562   24.3731 C   0  0  0  0  0  0  0  0  0  0  0  0
  -24.0023  -35.2997   24.1609 C   0  0  0  0  0  0  0  0  0  0  0  0
  -27.1850  -29.6410   25.4725 C   0  0  0  0  0  0  0  0  0  0  0  0
  -26.0654  -31.7169   26.3124 C   0  0  0  0  0  0  0  0  0  0  0  0
  -28.0878  -31.8920   24.8627 C   0  0  0  0  0  0  0  0  0  0  0  0
  -22.8528  -33.7722   20.8713 C   0  0  0  0  0  0  0  0  0  0  0  0
  -19.4915  -21.2714   20.0585 C   0  0  0  0  0  0  0  0  0  0  0  0
  -20.6845  -20.9954   19.1187 C   0  0  0  0  0  0  0  0  0  0  0  0
  -21.3681  -22.2840   18.6520 C   0  0  0  0  0  0  0  0  0  0  0  0
  -19.4486  -24.9005   23.2911 C   0  0  0  0  0  0  0  0  0  0  0  0
  -22.5563  -22.0180   17.7334 C   0  0  0  0  0  0  0  0  0  0  0  0
  -20.4713  -26.0066   23.0550 C   0  0  0  0  0  0  0  0  0  1  0  0
  -25.8905  -31.1686   23.8426 C   0  0  1  0  0  0  0  0  0  0  0  0
  -24.0961  -34.3859   22.9489 C   0  0  2  0  0  0  0  0  0  0  0  0
  -26.7931  -31.0863   25.1059 C   0  0  0  0  0  0  0  0  0  0  0  0
  -26.2159  -16.7294   19.8011 N   0  0  0  0  0  0  0  0  0  0  0  0
  -19.2792  -23.1974   21.5204 N   0  0  0  0  0  0  0  0  0  0  0  0
  -19.8638  -23.5916   22.6645 N   0  0  0  0  0  0  0  0  0  0  0  0
  -26.8369  -17.4436   18.8470 N   0  0  0  0  0  0  0  0  0  0  0  0
  -25.8567  -29.4684   22.0448 N   0  0  0  0  0  0  0  0  0  0  0  0
  -25.5645  -20.9567   19.6523 N   0  0  0  0  0  0  0  0  0  0  0  0
  -28.0887  -17.2373   16.8467 N   0  0  0  0  0  0  0  0  0  0  0  0
  -27.2436  -12.9517   17.9938 N   0  0  0  0  0  0  0  0  0  0  0  0
  -28.3464  -27.1022   21.0793 N   0  0  0  0  0  0  0  0  0  0  0  0
  -25.5261  -32.5274   23.4561 N   0  0  0  0  0  0  0  0  0  0  0  0
  -23.5913  -21.2426   18.3802 N   0  0  0  0  0  0  0  0  0  0  0  0
  -22.8819  -34.5921   22.1097 N   0  3  0  0  0  0  0  0  0  0  0  0
  -28.2740  -14.2972   16.4489 O   0  0  0  0  0  0  0  0  0  0  0  0
  -26.6249  -27.0063   22.6445 O   0  0  0  0  0  0  0  0  0  0  0  0
  -27.6073  -30.9990   22.2146 O   0  0  0  0  0  0  0  0  0  0  0  0
  -23.2311  -32.2213   23.5840 O   0  0  0  0  0  0  0  0  0  0  0  0
  -24.7201  -23.0665   19.1901 O   0  0  0  0  0  0  0  0  0  0  0  0
  -24.3833  -11.2399   22.4573 O   0  0  0  0  0  0  0  0  0  0  0  0
  -20.6152  -26.2392   21.6544 O   0  0  0  0  0  0  0  0  0  1  0  0
  -21.8673   -7.1297   19.7778 F   0  0  0  0  0  0  0  0  0  0  0  0
  -25.7343   -9.7431   20.5660 F   0  0  0  0  0  0  0  0  0  0  0  0
  1  2  1  0  0  0  0
  1  5  2  0  0  0  0
  2  6  2  0  0  0  0
  3  8  2  0  0  0  0
  3 15  1  0  0  0  0
  4  9  1  0  0  0  0
  4 15  2  0  0  0  0
  5 17  1  0  0  0  0
  6 19  1  0  0  0  0
  7 10  2  0  0  0  0
  7 18  1  0  0  0  0
  8 22  1  0  0  0  0
  9 22  2  0  0  0  0
 10 23  1  0  0  0  0
 11 12  2  0  0  0  0
 11 24  1  0  0  0  0
 12 25  1  0  0  0  0
 13 20  1  0  0  0  0
 13 23  2  0  0  0  0
 14 25  2  0  0  0  0
 14 26  1  0  0  0  0
 15 27  1  0  0  0  0
 16 27  1  0  0  0  0
 16 30  2  0  0  0  0
 16 31  1  0  0  0  0
 17 19  2  0  0  0  0
 17 36  1  0  0  0  0
 18 20  2  0  0  0  0
 18 37  1  0  0  0  0
 19 45  1  0  0  0  0
 20 38  1  0  0  0  0
 21 28  1  0  0  0  0
 21 29  2  0  0  0  0
 21 48  1  0  0  0  0
 22 81  1  0  0  0  0
 23 82  1  0  0  0  0
 24 26  2  0  0  0  0
 24 81  1  0  0  0  0
 25 83  1  0  0  0  0
 26 84  1  0  0  0  0
 27 64  2  0  0  0  0
 28 55  1  0  0  0  0
 28 65  2  0  0  0  0
 29 49  1  0  0  0  0
 29 66  1  0  0  0  0
 30 67  1  0  0  0  0
 30 70  1  0  0  0  0
 31 71  1  0  0  0  0
 31 76  2  0  0  0  0
 32 46  1  0  0  0  0
 32 72  1  0  0  0  0
 32 77  2  0  0  0  0
 33 61  1  0  0  0  0
 33 68  1  0  0  0  0
 33 78  2  0  0  0  0
 34 62  1  0  0  0  0
 34 73  1  0  0  0  0
 34 79  2  0  0  0  0
 35 69  1  0  0  0  0
 35 74  1  0  0  0  0
 35 80  2  0  0  0  0
 36 39  1  0  0  0  0
 37 46  1  0  0  0  0
 38 68  1  0  0  0  0
 39 41  1  0  0  0  0
 40 42  1  0  0  0  0
 40 43  1  0  0  0  0
 41 45  1  0  0  0  0
 42 47  1  0  0  0  0
 43 69  1  0  0  0  0
 44 47  1  0  0  0  0
 44 69  1  0  0  0  0
 45 72  1  0  0  0  0
 46 68  1  0  0  0  0
 47 67  1  0  0  0  0
 50 62  1  0  0  0  0
 51 63  1  0  0  0  0
 52 63  1  0  0  0  0
 53 63  1  0  0  0  0
 54 75  1  0  0  0  0
 55 56  1  0  0  0  0
 56 57  1  0  0  0  0
 57 59  1  0  0  0  0
 58 60  1  0  0  0  0
 58 66  1  0  0  0  0
 59 74  1  0  0  0  0
 60 82  1  0  0  0  0
 61 63  1  0  0  0  0
 61 73  1  0  0  0  0
 62 75  1  0  0  0  0
 64 67  1  0  0  0  0
 65 66  1  0  0  0  0
M  CHG  1  75   1
M  ISO  4  35 100  60 101  74 100  82 101
M  END
> <Batch ID>
0043

> <Smiles>
CNC(C)C(=O)NC(C(=O)N1Cc2cc([101O:1][101CH2:1]Cn3nc(CCCC[100NH:0][100C:0](=O)N4CCCC(n5nc(-c6ccc(Oc7ccc(F)cc7F)cc6)c(C(N)=O)c5N)C4)c(C)c3C)ccc2CC1C(=O)NC1CCCc2ccccc21)C(C)(C)C

> <Shape>
0.249

> <Color>
0.067

> <Negative vol penalty>
0.000

$$$$

  -OEChem-04052317143D

 89 97  0     1  0  0  0  0  0999 V2000
  -20.0960  -24.0747   21.2253 C   0  0  0  0  0  0  0  0  0  0  0  0
  -21.0082  -24.7804   20.4474 C   0  0  0  0  0  0  0  0  0  0  0  0
  -28.0732  -14.4187   20.7136 C   0  0  0  0  0  0  0  0  0  0  0  0
  -26.3604  -14.9858   19.1069 C   0  0  0  0  0  0  0  0  0  0  0  0
  -19.2781  -24.7542   22.1272 C   0  0  0  0  0  0  0  0  0  0  0  0
  -21.1024  -26.1662   20.5701 C   0  0  0  0  0  0  0  0  0  0  0  0
  -25.8991  -27.7773   20.7721 C   0  0  0  0  0  0  0  0  0  0  0  0
  -27.4689  -13.1787   20.9202 C   0  0  0  0  0  0  0  0  0  0  0  0
  -25.7561  -13.7457   19.3134 C   0  0  0  0  0  0  0  0  0  0  0  0
  -26.5997  -27.8435   19.5686 C   0  0  0  0  0  0  0  0  0  0  0  0
  -27.3198  -10.1878   19.3500 C   0  0  0  0  0  0  0  0  0  0  0  0
  -28.1438   -9.0630   19.3855 C   0  0  0  0  0  0  0  0  0  0  0  0
  -26.1948  -30.2195   19.4705 C   0  0  0  0  0  0  0  0  0  0  0  0
  -27.4057   -8.5933   21.6376 C   0  0  0  0  0  0  0  0  0  0  0  0
  -27.5190  -15.3223   19.8070 C   0  0  0  0  0  0  0  0  0  0  0  0
  -29.1351  -16.9188   18.6463 C   0  0  0  0  0  0  0  0  0  0  0  0
  -19.3690  -26.1479   22.2680 C   0  0  0  0  0  0  0  0  0  0  0  0
  -25.3307  -28.9318   21.3292 C   0  0  0  0  0  0  0  0  0  0  0  0
  -20.2840  -26.8651   21.4737 C   0  0  0  0  0  0  0  0  0  0  0  0
  -25.4896  -30.1658   20.6825 C   0  0  0  0  0  0  0  0  0  0  0  0
  -26.3104  -12.8422   20.2201 C   0  0  0  0  0  0  0  0  0  0  0  0
  -26.7452  -29.0642   18.9161 C   0  0  0  0  0  0  0  0  0  0  0  0
  -26.5387  -10.5155   20.4584 C   0  0  0  0  0  0  0  0  0  0  0  0
  -28.1867   -8.2657   20.5292 C   0  0  0  0  0  0  0  0  0  0  0  0
  -26.5817   -9.7182   21.6021 C   0  0  0  0  0  0  0  0  0  0  0  0
  -28.1424  -16.6036   19.5935 C   0  0  0  0  0  0  0  0  0  0  0  0
  -29.3886  -18.2538   18.8460 C   0  0  0  0  0  0  0  0  0  0  0  0
  -29.7783  -24.4334   14.6011 C   0  0  0  0  0  0  0  0  0  0  0  0
  -28.6482  -26.2859   14.6153 C   0  0  0  0  0  0  0  0  0  0  0  0
  -29.7710  -16.0798   17.6730 C   0  0  0  0  0  0  0  0  0  0  0  0
  -22.3735  -29.8607   22.0335 C   0  0  0  0  0  0  0  0  0  0  0  0
  -23.9022  -32.4013   23.3491 C   0  0  0  0  0  0  0  0  0  0  0  0
  -26.6798  -34.3821   23.4400 C   0  0  0  0  0  0  0  0  0  0  0  0
  -26.1251  -22.7282   21.1220 C   0  0  0  0  0  0  0  0  0  0  0  0
  -18.4310  -26.8439   23.2220 C   0  0  0  0  0  0  0  0  0  0  0  0
  -24.6008  -28.8482   22.6417 C   0  0  0  0  0  0  0  0  0  0  0  0
  -24.9160  -31.4378   21.2492 C   0  0  0  0  0  0  0  0  0  0  0  0
  -18.8552  -28.2705   23.5613 C   0  0  0  0  0  0  0  0  0  0  0  0
  -29.3108  -21.6114   22.2536 C   0  0  0  0  0  0  0  0  0  0  0  0
  -19.2396  -29.0287   22.2948 C   0  0  0  0  0  0  0  0  0  0  0  0
  -29.4622  -20.2298   21.6147 C   0  0  0  0  0  0  0  0  0  0  0  0
  -27.8671  -21.8860   22.6688 C   0  0  0  0  0  0  0  0  0  0  0  0
  -27.0213  -20.3269   20.9578 C   0  0  0  0  0  0  0  0  0  0  0  0
  -20.4330  -28.3661   21.5960 C   0  0  1  0  0  0  0  0  0  0  0  0
  -23.6232  -29.9995   22.8562 C   0  0  1  0  0  0  0  0  0  0  0  0
  -28.4495  -20.0265   20.4717 C   0  0  2  0  0  0  0  0  0  0  0  0
  -31.9660  -20.9823   11.6641 C   0  0  0  0  0  0  0  0  0  0  0  0
  -27.6211  -36.4033   24.5916 C   0  0  0  0  0  0  0  0  0  0  0  0
  -22.1078  -34.1979   21.6573 C   0  0  0  0  0  0  0  0  0  0  0  0
  -23.6897  -36.0852   22.1087 C   0  0  0  0  0  0  0  0  0  0  0  0
  -22.4762  -34.9983   23.9978 C   0  0  0  0  0  0  0  0  0  0  0  0
  -28.9497  -32.8383   24.5461 C   0  0  0  0  0  0  0  0  0  0  0  0
  -30.1016  -23.0055   14.4324 C   0  0  0  0  0  0  0  0  0  0  0  0
  -27.4987  -27.2496   14.4619 C   0  0  0  0  0  0  0  0  0  0  0  0
  -31.2046  -21.2377   12.9550 C   0  0  0  0  0  0  0  0  0  0  0  0
  -30.9103  -22.7255   13.1470 C   0  0  0  0  0  0  0  0  0  0  0  0
  -27.5347  -28.4142   15.4539 C   0  0  0  0  0  0  0  0  0  0  0  0
  -26.2117  -24.2732   16.1546 C   0  0  0  0  0  0  0  0  0  0  0  0
  -25.5239  -23.4121   17.2169 C   0  0  0  0  0  0  0  0  0  0  0  0
  -26.6812  -23.4230   14.9698 C   0  0  0  0  0  0  0  0  0  0  0  0
  -25.0281  -24.2663   18.3874 C   0  0  0  0  0  0  0  0  0  0  0  0
  -27.3788  -24.2456   13.8806 C   0  0  0  0  0  0  0  0  0  0  0  0
  -24.3901  -23.4299   19.4921 C   0  0  0  0  0  0  0  0  0  0  0  0
  -27.4016  -27.9738   16.9071 C   0  0  0  0  0  0  0  0  0  1  0  0
  -24.3537  -33.7528   22.8505 C   0  0  1  0  0  0  0  0  0  0  0  0
  -27.5202  -34.8859   24.5995 C   0  0  2  0  0  0  0  0  0  0  0  0
  -23.1661  -34.7344   22.6416 C   0  0  0  0  0  0  0  0  0  0  0  0
  -27.7896  -17.6539   20.3396 N   0  0  0  0  0  0  0  0  0  0  0  0
  -30.5873  -25.3863   15.0061 N   0  0  0  0  0  0  0  0  0  0  0  0
  -29.8683  -26.5648   15.0151 N   0  0  0  0  0  0  0  0  0  0  0  0
  -28.5648  -18.6420   19.8613 N   0  0  0  0  0  0  0  0  0  0  0  0
  -28.5469  -24.9551   14.3440 N   0  0  0  0  0  0  0  0  0  0  0  0
  -24.2054  -31.3033   22.5316 N   0  0  0  0  0  0  0  0  0  0  0  0
  -26.9580  -21.6769   21.5393 N   0  0  0  0  0  0  0  0  0  0  0  0
  -30.2337  -19.1219   18.2504 N   0  0  0  0  0  0  0  0  0  0  0  0
  -29.3919  -14.7323   17.6027 N   0  0  0  0  0  0  0  0  0  0  0  0
  -21.6659  -28.6990   22.2768 N   0  0  0  0  0  0  0  0  0  0  0  0
  -25.3579  -34.2230   23.7985 N   0  0  0  0  0  0  0  0  0  0  0  0
  -25.2988  -22.4480   20.0406 N   0  0  0  0  0  0  0  0  0  0  0  0
  -28.8980  -34.3228   24.5237 N   0  3  0  0  0  0  0  0  0  0  0  0
  -30.6611  -16.5083   16.9000 O   0  0  0  0  0  0  0  0  0  0  0  0
  -22.0728  -30.7429   21.2380 O   0  0  0  0  0  0  0  0  0  0  0  0
  -23.3089  -32.3219   24.4276 O   0  0  0  0  0  0  0  0  0  0  0  0
  -27.1484  -34.1560   22.3265 O   0  0  0  0  0  0  0  0  0  0  0  0
  -26.1220  -23.8362   21.6691 O   0  0  0  0  0  0  0  0  0  0  0  0
  -25.7205  -11.6321   20.4213 O   0  0  0  0  0  0  0  0  0  0  0  0
  -27.4281  -29.1315   17.7409 O   0  0  0  0  0  0  0  0  0  1  0  0
  -28.9769   -7.1847   20.5626 F   0  0  0  0  0  0  0  0  0  0  0  0
  -25.8327  -10.0272   22.6695 F   0  0  0  0  0  0  0  0  0  0  0  0
  1  2  1  0  0  0  0
  1  5  2  0  0  0  0
  2  6  2  0  0  0  0
  3  8  2  0  0  0  0
  3 15  1  0  0  0  0
  4  9  1  0  0  0  0
  4 15  2  0  0  0  0
  5 17  1  0  0  0  0
  6 19  1  0  0  0  0
  7 10  2  0  0  0  0
  7 18  1  0  0  0  0
  8 21  1  0  0  0  0
  9 21  2  0  0  0  0
 10 22  1  0  0  0  0
 11 12  2  0  0  0  0
 11 23  1  0  0  0  0
 12 24  1  0  0  0  0
 13 20  1  0  0  0  0
 13 22  2  0  0  0  0
 14 24  2  0  0  0  0
 14 25  1  0  0  0  0
 15 26  1  0  0  0  0
 16 26  1  0  0  0  0
 16 27  2  0  0  0  0
 16 30  1  0  0  0  0
 17 19  2  0  0  0  0
 17 35  1  0  0  0  0
 18 20  2  0  0  0  0
 18 36  1  0  0  0  0
 19 44  1  0  0  0  0
 20 37  1  0  0  0  0
 21 86  1  0  0  0  0
 22 87  1  0  0  0  0
 23 25  2  0  0  0  0
 23 86  1  0  0  0  0
 24 88  1  0  0  0  0
 25 89  1  0  0  0  0
 26 68  2  0  0  0  0
 27 71  1  0  0  0  0
 27 75  1  0  0  0  0
 28 53  1  0  0  0  0
 28 69  2  0  0  0  0
 28 72  1  0  0  0  0
 29 54  1  0  0  0  0
 29 70  2  0  0  0  0
 29 72  1  0  0  0  0
 30 76  1  0  0  0  0
 30 81  2  0  0  0  0
 31 45  1  0  0  0  0
 31 77  1  0  0  0  0
 31 82  2  0  0  0  0
 32 65  1  0  0  0  0
 32 73  1  0  0  0  0
 32 83  2  0  0  0  0
 33 66  1  0  0  0  0
 33 78  1  0  0  0  0
 33 84  2  0  0  0  0
 34 74  1  0  0  0  0
 34 79  1  0  0  0  0
 34 85  2  0  0  0  0
 35 38  1  0  0  0  0
 36 45  1  0  0  0  0
 37 73  1  0  0  0  0
 38 40  1  0  0  0  0
 39 41  1  0  0  0  0
 39 42  1  0  0  0  0
 40 44  1  0  0  0  0
 41 46  1  0  0  0  0
 42 74  1  0  0  0  0
 43 46  1  0  0  0  0
 43 74  1  0  0  0  0
 44 77  1  0  0  0  0
 45 73  1  0  0  0  0
 46 71  1  0  0  0  0
 47 55  1  0  0  0  0
 48 66  1  0  0  0  0
 49 67  1  0  0  0  0
 50 67  1  0  0  0  0
 51 67  1  0  0  0  0
 52 80  1  0  0  0  0
 53 56  1  0  0  0  0
 54 57  1  0  0  0  0
 55 56  1  0  0  0  0
 57 64  1  0  0  0  0
 58 59  1  0  0  0  0
 58 60  1  0  0  0  0
 59 61  1  0  0  0  0
 60 62  1  0  0  0  0
 61 63  1  0  0  0  0
 62 72  1  0  0  0  0
 63 79  1  0  0  0  0
 64 87  1  0  0  0  0
 65 67  1  0  0  0  0
 65 78  1  0  0  0  0
 66 80  1  0  0  0  0
 68 71  1  0  0  0  0
 69 70  1  0  0  0  0
M  CHG  1  80   1
M  ISO  4  34 100  64 101  79 100  87 101
M  END
> <Batch ID>
0043

> <Smiles>
CCCCc1nnc(CC[101CH2:1][101O:1]c2ccc3c(c2)CN(C(=O)C(NC(=O)C(C)NC)C(C)(C)C)C(C(=O)NC2CCCc4ccccc42)C3)n1CCCCCC[100NH:0][100C:0](=O)N1CCCC(n2nc(-c3ccc(Oc4ccc(F)cc4F)cc3)c(C(N)=O)c2N)C1

> <Shape>
0.229

> <Color>
0.100

> <Negative vol penalty>
0.000

$$$$

  -OEChem-04052317143D

 80 88  0     1  0  0  0  0  0999 V2000
  -17.7711  -18.3765   31.8272 C   0  0  0  0  0  0  0  0  0  0  0  0
  -18.5441  -18.9986   30.8520 C   0  0  0  0  0  0  0  0  0  0  0  0
  -23.0003   -9.8953   19.9853 C   0  0  0  0  0  0  0  0  0  0  0  0
  -23.7293   -9.9519   22.2880 C   0  0  0  0  0  0  0  0  0  0  0  0
  -18.3670  -17.5013   32.7342 C   0  0  0  0  0  0  0  0  0  0  0  0
  -19.9139  -18.7466   30.7841 C   0  0  0  0  0  0  0  0  0  0  0  0
  -23.3592  -18.4661   25.7287 C   0  0  0  0  0  0  0  0  0  0  0  0
  -22.2345   -8.7613   20.2556 C   0  0  0  0  0  0  0  0  0  0  0  0
  -22.9635   -8.8178   22.5583 C   0  0  0  0  0  0  0  0  0  0  0  0
  -24.1986  -19.3935   25.1130 C   0  0  0  0  0  0  0  0  0  0  0  0
  -23.2078   -5.4778   22.0938 C   0  0  0  0  0  0  0  0  0  0  0  0
  -23.7968   -4.4626   22.8473 C   0  0  0  0  0  0  0  0  0  0  0  0
  -26.0946  -18.4164   26.2399 C   0  0  0  0  0  0  0  0  0  0  0  0
  -22.0757   -4.7090   24.5249 C   0  0  0  0  0  0  0  0  0  0  0  0
  -29.8025  -18.6407   23.2901 C   0  0  0  0  0  0  0  0  0  0  0  0
  -29.0436  -18.4328   21.0907 C   0  0  0  0  0  0  0  0  0  0  0  0
  -23.7478  -10.4906   21.0015 C   0  0  0  0  0  0  0  0  0  0  0  0
  -24.1322  -13.0058   20.8189 C   0  0  0  0  0  0  0  0  0  0  0  0
  -19.7431  -17.2310   32.6712 C   0  0  0  0  0  0  0  0  0  0  0  0
  -23.8805  -17.5122   26.6145 C   0  0  0  0  0  0  0  0  0  0  0  0
  -20.5291  -17.8679   31.6919 C   0  0  0  0  0  0  0  0  0  0  0  0
  -25.2600  -17.4764   26.8635 C   0  0  0  0  0  0  0  0  0  0  0  0
  -29.8871  -17.9770   22.0832 C   0  0  0  0  0  0  0  0  0  0  0  0
  -22.2161   -8.2225   21.5421 C   0  0  0  0  0  0  0  0  0  0  0  0
  -25.5661  -19.3706   25.3708 C   0  0  0  0  0  0  0  0  0  0  0  0
  -22.0527   -6.1088   22.5558 C   0  0  0  0  0  0  0  0  0  0  0  0
  -23.2308   -4.0781   24.0628 C   0  0  0  0  0  0  0  0  0  0  0  0
  -21.4867   -5.7244   23.7713 C   0  0  0  0  0  0  0  0  0  0  0  0
  -24.5395  -11.6617   20.7228 C   0  0  0  0  0  0  0  0  0  0  0  0
  -25.2412  -13.7278   20.4510 C   0  0  0  0  0  0  0  0  0  0  0  0
  -28.1919  -20.0222   22.4748 C   0  0  0  0  0  0  0  0  0  0  0  0
  -22.8648  -13.5529   21.2063 C   0  0  0  0  0  0  0  0  0  0  0  0
  -23.4671  -16.8501   29.6958 C   0  0  0  0  0  0  0  0  0  0  0  0
  -25.3581  -14.3073   29.0026 C   0  0  0  0  0  0  0  0  0  0  0  0
  -27.7370  -12.9323   26.9784 C   0  0  0  0  0  0  0  0  0  0  0  0
  -30.7378  -14.6643   20.6881 C   0  0  0  0  0  0  0  0  0  0  0  0
  -20.3507  -16.3140   33.7030 C   0  0  0  0  0  0  0  0  0  0  0  0
  -22.9653  -16.5017   27.2498 C   0  0  0  0  0  0  0  0  0  0  0  0
  -25.8723  -16.4596   27.7907 C   0  0  0  0  0  0  0  0  0  0  0  0
  -21.7426  -15.8120   33.3276 C   0  0  0  0  0  0  0  0  0  0  0  0
  -29.5937  -12.2348   18.3503 C   0  0  0  0  0  0  0  0  0  0  0  0
  -22.6101  -16.9646   32.8318 C   0  0  0  0  0  0  0  0  0  0  0  0
  -28.1460  -11.9757   18.7709 C   0  0  0  0  0  0  0  0  0  0  0  0
  -30.4981  -12.4733   19.5574 C   0  0  0  0  0  0  0  0  0  0  0  0
  -28.5900  -13.2715   20.8975 C   0  0  0  0  0  0  0  0  0  0  0  0
  -22.0137  -17.6010   31.5705 C   0  0  1  0  0  0  0  0  0  0  0  0
  -23.5350  -15.9024   28.5318 C   0  0  1  0  0  0  0  0  0  0  0  0
  -27.6291  -13.0808   19.7116 C   0  0  2  0  0  0  0  0  0  0  0  0
  -29.1124  -10.8538   26.6854 C   0  0  0  0  0  0  0  0  0  0  0  0
  -27.1582  -15.1765   31.3079 C   0  0  0  0  0  0  0  0  0  0  0  0
  -28.9455  -13.6879   30.3817 C   0  0  0  0  0  0  0  0  0  0  0  0
  -26.7836  -12.7088   31.1500 C   0  0  0  0  0  0  0  0  0  0  0  0
  -26.5658  -12.3932   24.3144 C   0  0  0  0  0  0  0  0  0  0  0  0
  -30.8219  -16.8460   21.8680 C   0  0  0  0  0  0  0  0  0  0  0  0
  -27.2363  -21.1696   22.6952 C   0  0  0  0  0  0  0  0  0  0  0  0
  -25.9999  -20.7512   23.4836 C   0  0  0  0  0  0  0  0  0  1  0  0
  -26.8454  -14.0484   29.0066 C   0  0  1  0  0  0  0  0  0  0  0  0
  -27.8264  -11.5729   26.3086 C   0  0  2  0  0  0  0  0  0  0  0  0
  -27.4217  -13.9259   30.4455 C   0  0  0  0  0  0  0  0  0  0  0  0
  -28.9630  -19.6713   23.5216 N   0  0  0  0  0  0  0  0  0  0  0  0
  -28.1800  -19.4567   21.2527 N   0  0  0  0  0  0  0  0  0  0  0  0
  -25.8082  -11.5346   20.3248 N   0  0  0  0  0  0  0  0  0  0  0  0
  -26.2076  -12.8081   20.1675 N   0  0  0  0  0  0  0  0  0  0  0  0
  -24.9351  -15.4968   28.3926 N   0  0  0  0  0  0  0  0  0  0  0  0
  -29.9525  -13.5339   20.4079 N   0  0  0  0  0  0  0  0  0  0  0  0
  -25.4742  -15.0533   20.3454 N   0  0  0  0  0  0  0  0  0  0  0  0
  -21.8338  -12.6693   21.5536 N   0  0  0  0  0  0  0  0  0  0  0  0
  -22.2873  -16.7785   30.4116 N   0  0  0  0  0  0  0  0  0  0  0  0
  -27.0565  -12.8678   28.1759 N   0  0  0  0  0  0  0  0  0  0  0  0
  -30.1425  -15.6248   21.4967 N   0  0  0  0  0  0  0  0  0  0  0  0
  -27.7885  -11.7223   24.8263 N   0  3  0  0  0  0  0  0  0  0  0  0
  -22.6478  -14.7882   21.2275 O   0  0  0  0  0  0  0  0  0  0  0  0
  -24.4156  -17.5905   29.9282 O   0  0  0  0  0  0  0  0  0  0  0  0
  -24.5991  -13.4811   29.5152 O   0  0  0  0  0  0  0  0  0  0  0  0
  -28.2254  -13.9489   26.4900 O   0  0  0  0  0  0  0  0  0  0  0  0
  -31.8824  -14.8094   20.2458 O   0  0  0  0  0  0  0  0  0  0  0  0
  -21.4687   -7.1161   21.8062 O   0  0  0  0  0  0  0  0  0  0  0  0
  -26.3876  -20.2751   24.7717 O   0  0  0  0  0  0  0  0  0  1  0  0
  -23.7957   -3.1020   24.7856 F   0  0  0  0  0  0  0  0  0  0  0  0
  -20.3764   -6.3260   24.2198 F   0  0  0  0  0  0  0  0  0  0  0  0
  1  2  1  0  0  0  0
  1  5  2  0  0  0  0
  2  6  2  0  0  0  0
  3  8  2  0  0  0  0
  3 17  1  0  0  0  0
  4  9  1  0  0  0  0
  4 17  2  0  0  0  0
  5 19  1  0  0  0  0
  6 21  1  0  0  0  0
  7 10  2  0  0  0  0
  7 20  1  0  0  0  0
  8 24  1  0  0  0  0
  9 24  2  0  0  0  0
 10 25  1  0  0  0  0
 11 12  2  0  0  0  0
 11 26  1  0  0  0  0
 12 27  1  0  0  0  0
 13 22  1  0  0  0  0
 13 25  2  0  0  0  0
 14 27  2  0  0  0  0
 14 28  1  0  0  0  0
 15 23  1  0  0  0  0
 15 60  2  0  0  0  0
 16 23  2  0  0  0  0
 16 61  1  0  0  0  0
 17 29  1  0  0  0  0
 18 29  1  0  0  0  0
 18 30  2  0  0  0  0
 18 32  1  0  0  0  0
 19 21  2  0  0  0  0
 19 37  1  0  0  0  0
 20 22  2  0  0  0  0
 20 38  1  0  0  0  0
 21 46  1  0  0  0  0
 22 39  1  0  0  0  0
 23 54  1  0  0  0  0
 24 77  1  0  0  0  0
 25 78  1  0  0  0  0
 26 28  2  0  0  0  0
 26 77  1  0  0  0  0
 27 79  1  0  0  0  0
 28 80  1  0  0  0  0
 29 62  2  0  0  0  0
 30 63  1  0  0  0  0
 30 66  1  0  0  0  0
 31 55  1  0  0  0  0
 31 60  1  0  0  0  0
 31 61  2  0  0  0  0
 32 67  1  0  0  0  0
 32 72  2  0  0  0  0
 33 47  1  0  0  0  0
 33 68  1  0  0  0  0
 33 73  2  0  0  0  0
 34 57  1  0  0  0  0
 34 64  1  0  0  0  0
 34 74  2  0  0  0  0
 35 58  1  0  0  0  0
 35 69  1  0  0  0  0
 35 75  2  0  0  0  0
 36 65  1  0  0  0  0
 36 70  1  0  0  0  0
 36 76  2  0  0  0  0
 37 40  1  0  0  0  0
 38 47  1  0  0  0  0
 39 64  1  0  0  0  0
 40 42  1  0  0  0  0
 41 43  1  0  0  0  0
 41 44  1  0  0  0  0
 42 46  1  0  0  0  0
 43 48  1  0  0  0  0
 44 65  1  0  0  0  0
 45 48  1  0  0  0  0
 45 65  1  0  0  0  0
 46 68  1  0  0  0  0
 47 64  1  0  0  0  0
 48 63  1  0  0  0  0
 49 58  1  0  0  0  0
 50 59  1  0  0  0  0
 51 59  1  0  0  0  0
 52 59  1  0  0  0  0
 53 71  1  0  0  0  0
 54 70  1  0  0  0  0
 55 56  1  0  0  0  0
 56 78  1  0  0  0  0
 57 59  1  0  0  0  0
 57 69  1  0  0  0  0
 58 71  1  0  0  0  0
 62 63  1  0  0  0  0
M  CHG  1  71   1
M  ISO  4  36 100  56 101  70 100  78 101
M  END
> <Batch ID>
0043

> <Smiles>
CNC(C)C(=O)NC(C(=O)N1Cc2cc([101O:1][101CH2:1]Cc3ncc(C[100NH:0][100C:0](=O)N4CCCC(n5nc(-c6ccc(Oc7ccc(F)cc7F)cc6)c(C(N)=O)c5N)C4)cn3)ccc2CC1C(=O)NC1CCCc2ccccc21)C(C)(C)C

> <Shape>
0.187

> <Color>
0.198

> <Negative vol penalty>
0.000

$$$$

  -OEChem-04052317143D

 85 93  0     1  0  0  0  0  0999 V2000
  -28.8515  -24.6978   16.8114 C   0  0  0  0  0  0  0  0  0  0  0  0
  -27.6763  -24.7527   17.5538 C   0  0  0  0  0  0  0  0  0  0  0  0
  -28.0130  -15.2412   19.4941 C   0  0  0  0  0  0  0  0  0  0  0  0
  -27.5966  -16.5703   21.4683 C   0  0  0  0  0  0  0  0  0  0  0  0
  -29.9844  -25.3820   17.2499 C   0  0  0  0  0  0  0  0  0  0  0  0
  -27.6336  -25.4911   18.7359 C   0  0  0  0  0  0  0  0  0  0  0  0
  -23.4465  -28.3145   19.1126 C   0  0  0  0  0  0  0  0  0  0  0  0
  -29.1904  -15.9526   19.2635 C   0  0  0  0  0  0  0  0  0  0  0  0
  -28.7741  -17.2817   21.2376 C   0  0  0  0  0  0  0  0  0  0  0  0
  -22.2711  -27.6638   19.4851 C   0  0  0  0  0  0  0  0  0  0  0  0
  -29.8161  -19.7885   19.2224 C   0  0  0  0  0  0  0  0  0  0  0  0
  -29.7689  -21.1771   19.3449 C   0  0  0  0  0  0  0  0  0  0  0  0
  -22.5596  -28.4505   21.7472 C   0  0  0  0  0  0  0  0  0  0  0  0
  -31.4367  -21.0799   21.0902 C   0  0  0  0  0  0  0  0  0  0  0  0
  -22.8137  -24.3451   22.4210 C   0  0  0  0  0  0  0  0  0  0  0  0
  -27.2160  -15.5501   20.5965 C   0  0  0  0  0  0  0  0  0  0  0  0
  -25.8509  -13.6405   21.5953 C   0  0  0  0  0  0  0  0  0  0  0  0
  -29.9527  -26.1370   18.4330 C   0  0  0  0  0  0  0  0  0  0  0  0
  -24.1943  -29.0303   20.0586 C   0  0  0  0  0  0  0  0  0  0  0  0
  -28.7675  -26.1850   19.1914 C   0  0  0  0  0  0  0  0  0  0  0  0
  -23.7427  -29.1116   21.3836 C   0  0  0  0  0  0  0  0  0  0  0  0
  -21.5579  -23.7773   22.3488 C   0  0  0  0  0  0  0  0  0  0  0  0
  -29.5710  -16.9728   20.1352 C   0  0  0  0  0  0  0  0  0  0  0  0
  -21.8290  -27.7293   20.8032 C   0  0  0  0  0  0  0  0  0  0  0  0
  -30.6736  -19.0455   20.0339 C   0  0  0  0  0  0  0  0  0  0  0  0
  -30.5791  -21.8229   20.2787 C   0  0  0  0  0  0  0  0  0  0  0  0
  -31.4839  -19.6913   20.9678 C   0  0  0  0  0  0  0  0  0  0  0  0
  -25.9993  -14.8160   20.8350 C   0  0  0  0  0  0  0  0  0  0  0  0
  -21.5257  -22.4411   22.0056 C   0  0  0  0  0  0  0  0  0  0  0  0
  -24.5121  -13.3451   21.5129 C   0  0  0  0  0  0  0  0  0  0  0  0
  -23.7928  -22.3735   21.8541 C   0  0  0  0  0  0  0  0  0  0  0  0
  -26.8351  -12.8835   22.3121 C   0  0  0  0  0  0  0  0  0  0  0  0
  -27.1345  -28.7890   21.2421 C   0  0  0  0  0  0  0  0  0  0  0  0
  -26.3517  -31.5729   22.7116 C   0  0  0  0  0  0  0  0  0  0  0  0
  -23.9035  -33.6417   23.8836 C   0  0  0  0  0  0  0  0  0  0  0  0
  -19.6527  -16.6931   20.4983 C   0  0  0  0  0  0  0  0  0  0  0  0
  -31.2162  -26.8212   18.8916 C   0  0  0  0  0  0  0  0  0  0  0  0
  -25.4459  -29.7490   19.6349 C   0  0  0  0  0  0  0  0  0  0  0  0
  -24.4983  -29.8839   22.4329 C   0  0  0  0  0  0  0  0  0  0  0  0
  -30.9791  -27.8862   19.9592 C   0  0  0  0  0  0  0  0  0  0  0  0
  -20.7337  -13.8653   18.6242 C   0  0  0  0  0  0  0  0  0  0  0  0
  -30.0480  -27.3557   21.0448 C   0  0  0  0  0  0  0  0  0  0  0  0
  -22.1924  -13.6822   19.0469 C   0  0  0  0  0  0  0  0  0  0  0  0
  -20.3506  -15.3413   18.5432 C   0  0  0  0  0  0  0  0  0  0  0  0
  -22.0878  -15.9383   20.1862 C   0  0  0  0  0  0  0  0  0  0  0  0
  -28.6745  -26.9954   20.4660 C   0  0  1  0  0  0  0  0  0  0  0  0
  -26.4001  -30.0208   20.7938 C   0  0  1  0  0  0  0  0  0  0  0  0
  -22.5051  -14.4653   20.3362 C   0  0  2  0  0  0  0  0  0  0  0  0
  -25.0339  -21.5935   21.5800 C   0  0  0  0  0  0  0  0  0  0  0  0
  -23.5731  -35.8282   25.0699 C   0  0  0  0  0  0  0  0  0  0  0  0
  -27.1499  -30.2605   25.3480 C   0  0  0  0  0  0  0  0  0  0  0  0
  -25.9305  -32.0890   26.5471 C   0  0  0  0  0  0  0  0  0  0  0  0
  -27.8874  -32.6373   25.1006 C   0  0  0  0  0  0  0  0  0  0  0  0
  -22.4113  -34.7881   21.5994 C   0  0  0  0  0  0  0  0  0  0  0  0
  -20.3176  -24.5871   22.6309 C   0  0  0  0  0  0  0  0  0  0  0  0
  -20.2221  -21.7211   21.8973 C   0  0  0  0  0  0  0  0  0  0  0  0
  -19.5464  -24.9910   21.3725 C   0  0  0  0  0  0  0  0  0  0  0  0
  -20.3423  -20.2416   22.2922 C   0  0  0  0  0  0  0  0  0  0  0  0
  -19.0073  -19.5060   22.1415 C   0  0  0  0  0  0  0  0  0  0  0  0
  -19.1052  -18.0307   22.5157 C   0  0  0  0  0  0  0  0  0  0  0  0
  -20.3363  -25.9119   20.4498 C   0  0  0  0  0  0  0  0  0  1  0  0
  -25.7068  -31.9439   24.0252 C   0  0  1  0  0  0  0  0  0  0  0  0
  -23.6832  -35.1348   23.7209 C   0  0  2  0  0  0  0  0  0  0  0  0
  -26.6552  -31.7164   25.2361 C   0  0  0  0  0  0  0  0  0  0  0  0
  -23.9565  -23.6700   22.1791 N   0  0  0  0  0  0  0  0  0  0  0  0
  -24.8469  -15.2383   20.3082 N   0  0  0  0  0  0  0  0  0  0  0  0
  -22.6278  -21.7059   21.7504 N   0  0  0  0  0  0  0  0  0  0  0  0
  -23.9615  -14.3233   20.7381 N   0  0  0  0  0  0  0  0  0  0  0  0
  -25.7194  -30.5643   21.9709 N   0  0  0  0  0  0  0  0  0  0  0  0
  -20.6714  -16.0261   19.7978 N   0  0  0  0  0  0  0  0  0  0  0  0
  -23.7638  -12.3466   22.0282 N   0  0  0  0  0  0  0  0  0  0  0  0
  -28.1643  -13.3276   22.2925 N   0  0  0  0  0  0  0  0  0  0  0  0
  -27.8877  -28.1908   20.2500 N   0  0  0  0  0  0  0  0  0  0  0  0
  -25.2443  -33.3197   23.8787 N   0  0  0  0  0  0  0  0  0  0  0  0
  -20.0408  -17.3105   21.6810 N   0  0  0  0  0  0  0  0  0  0  0  0
  -22.4306  -35.3932   22.9560 N   0  3  0  0  0  0  0  0  0  0  0  0
  -26.5474  -11.8348   22.9374 O   0  0  0  0  0  0  0  0  0  0  0  0
  -27.0270  -28.4103   22.4026 O   0  0  0  0  0  0  0  0  0  0  0  0
  -27.3745  -32.1615   22.3526 O   0  0  0  0  0  0  0  0  0  0  0  0
  -22.9789  -32.8414   24.0068 O   0  0  0  0  0  0  0  0  0  0  0  0
  -18.4830  -16.7307   20.1018 O   0  0  0  0  0  0  0  0  0  0  0  0
  -30.7200  -17.6670   19.9106 O   0  0  0  0  0  0  0  0  0  0  0  0
  -20.6824  -27.0945   21.1695 O   0  0  0  0  0  0  0  0  0  1  0  0
  -30.5348  -23.1565   20.3952 F   0  0  0  0  0  0  0  0  0  0  0  0
  -32.3105  -18.9830   21.7493 F   0  0  0  0  0  0  0  0  0  0  0  0
  1  2  1  0  0  0  0
  1  5  2  0  0  0  0
  2  6  2  0  0  0  0
  3  8  2  0  0  0  0
  3 16  1  0  0  0  0
  4  9  1  0  0  0  0
  4 16  2  0  0  0  0
  5 18  1  0  0  0  0
  6 20  1  0  0  0  0
  7 10  2  0  0  0  0
  7 19  1  0  0  0  0
  8 23  1  0  0  0  0
  9 23  2  0  0  0  0
 10 24  1  0  0  0  0
 11 12  2  0  0  0  0
 11 25  1  0  0  0  0
 12 26  1  0  0  0  0
 13 21  1  0  0  0  0
 13 24  2  0  0  0  0
 14 26  2  0  0  0  0
 14 27  1  0  0  0  0
 15 22  1  0  0  0  0
 15 65  2  0  0  0  0
 16 28  1  0  0  0  0
 17 28  1  0  0  0  0
 17 30  2  0  0  0  0
 17 32  1  0  0  0  0
 18 20  2  0  0  0  0
 18 37  1  0  0  0  0
 19 21  2  0  0  0  0
 19 38  1  0  0  0  0
 20 46  1  0  0  0  0
 21 39  1  0  0  0  0
 22 29  2  0  0  0  0
 22 55  1  0  0  0  0
 23 82  1  0  0  0  0
 24 83  1  0  0  0  0
 25 27  2  0  0  0  0
 25 82  1  0  0  0  0
 26 84  1  0  0  0  0
 27 85  1  0  0  0  0
 28 66  2  0  0  0  0
 29 56  1  0  0  0  0
 29 67  1  0  0  0  0
 30 68  1  0  0  0  0
 30 71  1  0  0  0  0
 31 49  1  0  0  0  0
 31 65  1  0  0  0  0
 31 67  2  0  0  0  0
 32 72  1  0  0  0  0
 32 77  2  0  0  0  0
 33 47  1  0  0  0  0
 33 73  1  0  0  0  0
 33 78  2  0  0  0  0
 34 62  1  0  0  0  0
 34 69  1  0  0  0  0
 34 79  2  0  0  0  0
 35 63  1  0  0  0  0
 35 74  1  0  0  0  0
 35 80  2  0  0  0  0
 36 70  1  0  0  0  0
 36 75  1  0  0  0  0
 36 81  2  0  0  0  0
 37 40  1  0  0  0  0
 38 47  1  0  0  0  0
 39 69  1  0  0  0  0
 40 42  1  0  0  0  0
 41 43  1  0  0  0  0
 41 44  1  0  0  0  0
 42 46  1  0  0  0  0
 43 48  1  0  0  0  0
 44 70  1  0  0  0  0
 45 48  1  0  0  0  0
 45 70  1  0  0  0  0
 46 73  1  0  0  0  0
 47 69  1  0  0  0  0
 48 68  1  0  0  0  0
 50 63  1  0  0  0  0
 51 64  1  0  0  0  0
 52 64  1  0  0  0  0
 53 64  1  0  0  0  0
 54 76  1  0  0  0  0
 55 57  1  0  0  0  0
 56 58  1  0  0  0  0
 57 61  1  0  0  0  0
 58 59  1  0  0  0  0
 59 60  1  0  0  0  0
 60 75  1  0  0  0  0
 61 83  1  0  0  0  0
 62 64  1  0  0  0  0
 62 74  1  0  0  0  0
 63 76  1  0  0  0  0
 66 68  1  0  0  0  0
M  CHG  1  76   1
M  ISO  4  36 100  61 101  75 100  83 101
M  END
> <Batch ID>
0043

> <Smiles>
CNC(C)C(=O)NC(C(=O)N1Cc2cc([101O:1][101CH2:1]CCc3cnc(C)nc3CCCC[100NH:0][100C:0](=O)N3CCCC(n4nc(-c5ccc(Oc6ccc(F)cc6F)cc5)c(C(N)=O)c4N)C3)ccc2CC1C(=O)NC1CCCc2ccccc21)C(C)(C)C

> <Shape>
0.269

> <Color>
0.084

> <Negative vol penalty>
0.000

$$$$

  -OEChem-04052317143D

 83 91  0     1  0  0  0  0  0999 V2000
  -24.4597  -27.6871   20.6902 C   0  0  0  0  0  0  0  0  0  0  0  0
  -24.3102  -26.4486   20.0743 C   0  0  0  0  0  0  0  0  0  0  0  0
  -23.4127  -15.9800   21.4704 C   0  0  0  0  0  0  0  0  0  0  0  0
  -22.6833  -15.0387   19.3682 C   0  0  0  0  0  0  0  0  0  0  0  0
  -25.7355  -28.1982   20.9248 C   0  0  0  0  0  0  0  0  0  0  0  0
  -25.4366  -25.7211   19.6915 C   0  0  0  0  0  0  0  0  0  0  0  0
  -26.0761  -19.6306   19.7378 C   0  0  0  0  0  0  0  0  0  0  0  0
  -22.4725  -17.0019   21.3391 C   0  0  0  0  0  0  0  0  0  0  0  0
  -21.7430  -16.0606   19.2369 C   0  0  0  0  0  0  0  0  0  0  0  0
  -25.9642  -18.6680   18.7354 C   0  0  0  0  0  0  0  0  0  0  0  0
  -19.1466  -17.4009   21.7996 C   0  0  0  0  0  0  0  0  0  0  0  0
  -18.3831  -17.7272   22.9204 C   0  0  0  0  0  0  0  0  0  0  0  0
  -28.3540  -18.7344   18.4133 C   0  0  0  0  0  0  0  0  0  0  0  0
  -19.2523  -19.9805   22.8564 C   0  0  0  0  0  0  0  0  0  0  0  0
  -26.7052  -15.6656   14.7043 C   0  0  0  0  0  0  0  0  0  0  0  0
  -25.2450  -14.0173   14.6182 C   0  0  0  0  0  0  0  0  0  0  0  0
  -23.5182  -14.9984   20.4849 C   0  0  0  0  0  0  0  0  0  0  0  0
  -24.3068  -12.6936   21.2423 C   0  0  0  0  0  0  0  0  0  0  0  0
  -26.8782  -27.4723   20.5534 C   0  0  0  0  0  0  0  0  0  0  0  0
  -27.3286  -20.1611   20.0785 C   0  0  0  0  0  0  0  0  0  0  0  0
  -26.7288  -26.2237   19.9200 C   0  0  0  0  0  0  0  0  0  0  0  0
  -28.4794  -19.7017   19.4221 C   0  0  0  0  0  0  0  0  0  0  0  0
  -21.6376  -17.0422   20.2224 C   0  0  0  0  0  0  0  0  0  0  0  0
  -27.1029  -18.2219   18.0710 C   0  0  0  0  0  0  0  0  0  0  0  0
  -19.9630  -18.3643   21.2072 C   0  0  0  0  0  0  0  0  0  0  0  0
  -18.4359  -19.0170   23.4488 C   0  0  0  0  0  0  0  0  0  0  0  0
  -20.0158  -19.6542   21.7356 C   0  0  0  0  0  0  0  0  0  0  0  0
  -24.4897  -13.9429   20.6197 C   0  0  0  0  0  0  0  0  0  0  0  0
  -25.7820  -15.7581   15.7190 C   0  0  0  0  0  0  0  0  0  0  0  0
  -25.5179  -12.0607   21.1045 C   0  0  0  0  0  0  0  0  0  0  0  0
  -23.1458  -12.1535   21.8875 C   0  0  0  0  0  0  0  0  0  0  0  0
  -28.6335  -23.0585   20.0019 C   0  0  0  0  0  0  0  0  0  0  0  0
  -29.8429  -11.6073   17.2528 C   0  0  0  0  0  0  0  0  0  0  0  0
  -31.0905  -21.5657   21.5044 C   0  0  0  0  0  0  0  0  0  0  0  0
  -32.7532  -18.6561   22.1496 C   0  0  0  0  0  0  0  0  0  0  0  0
  -28.2358  -28.0871   20.7847 C   0  0  0  0  0  0  0  0  0  0  0  0
  -27.4355  -21.1793   21.1805 C   0  0  0  0  0  0  0  0  0  0  0  0
  -29.8497  -20.2246   19.7645 C   0  0  0  0  0  0  0  0  0  0  0  0
  -29.3830  -27.0847   20.6875 C   0  0  0  0  0  0  0  0  0  0  0  0
  -30.1526  -13.5321   20.2593 C   0  0  0  0  0  0  0  0  0  0  0  0
  -29.2235  -26.2094   19.4485 C   0  0  0  0  0  0  0  0  0  0  0  0
  -28.7052  -13.7406   20.7028 C   0  0  0  0  0  0  0  0  0  0  0  0
  -30.2767  -13.5354   18.7389 C   0  0  0  0  0  0  0  0  0  0  0  0
  -27.9422  -12.7524   18.4968 C   0  0  0  0  0  0  0  0  0  0  0  0
  -27.9267  -25.3934   19.5127 C   0  0  1  0  0  0  0  0  0  0  0  0
  -28.7015  -22.0257   21.0912 C   0  0  1  0  0  0  0  0  0  0  0  0
  -27.7678  -12.7251   20.0256 C   0  0  2  0  0  0  0  0  0  0  0  0
  -28.6855   -9.4682   17.6237 C   0  0  0  0  0  0  0  0  0  0  0  0
  -34.7469  -17.7579   23.3808 C   0  0  0  0  0  0  0  0  0  0  0  0
  -32.9272  -22.6774   19.3363 C   0  0  0  0  0  0  0  0  0  0  0  0
  -34.6593  -21.0163   20.0496 C   0  0  0  0  0  0  0  0  0  0  0  0
  -33.8739  -22.7616   21.6495 C   0  0  0  0  0  0  0  0  0  0  0  0
  -31.0657  -16.9183   23.8500 C   0  0  0  0  0  0  0  0  0  0  0  0
  -25.6872  -16.7983   16.7962 C   0  0  0  0  0  0  0  0  0  1  0  0
  -28.1397  -12.0997   14.0927 C   0  0  0  0  0  0  0  0  0  0  0  0
  -29.4578  -11.3495   14.3012 C   0  0  0  0  0  0  0  0  0  0  0  0
  -28.3225  -13.2895   13.1451 C   0  0  0  0  0  0  0  0  0  0  0  0
  -29.2838  -10.1838   15.2817 C   0  0  0  0  0  0  0  0  0  0  0  0
  -27.0099  -14.0195   12.8387 C   0  0  0  0  0  0  0  0  0  0  0  0
  -28.8333  -10.6499   16.6712 C   0  0  2  0  0  0  0  0  0  0  0  0
  -32.3377  -20.8434   21.0553 C   0  0  1  0  0  0  0  0  0  0  0  0
  -33.2559  -18.0497   23.4473 C   0  0  2  0  0  0  0  0  0  0  0  0
  -33.4236  -21.8160   20.5146 C   0  0  0  0  0  0  0  0  0  0  0  0
  -24.8759  -14.7289   15.6601 N   0  0  0  0  0  0  0  0  0  0  0  0
  -25.7202  -14.0964   20.1234 N   0  0  0  0  0  0  0  0  0  0  0  0
  -26.3486  -14.5453   14.0079 N   0  0  0  0  0  0  0  0  0  0  0  0
  -26.3214  -12.9354   20.4341 N   0  0  0  0  0  0  0  0  0  0  0  0
  -29.9015  -21.2236   20.8447 N   0  0  0  0  0  0  0  0  0  0  0  0
  -29.3545  -12.5738   18.1322 N   0  0  0  0  0  0  0  0  0  0  0  0
  -25.9633  -10.8469   21.4927 N   0  0  0  0  0  0  0  0  0  0  0  0
  -21.9852  -12.9374   21.9401 N   0  0  0  0  0  0  0  0  0  0  0  0
  -28.0848  -24.2622   20.4013 N   0  0  0  0  0  0  0  0  0  0  0  0
  -32.7714  -20.0343   22.1892 N   0  0  0  0  0  0  0  0  0  0  0  0
  -32.5399  -16.7746   23.7347 N   0  3  0  0  0  0  0  0  0  0  0  0
  -23.1429  -11.0162   22.4166 O   0  0  0  0  0  0  0  0  0  0  0  0
  -29.0496  -22.7842   18.8824 O   0  0  0  0  0  0  0  0  0  0  0  0
  -31.0301  -11.4960   16.9361 O   0  0  0  0  0  0  0  0  0  0  0  0
  -31.1670  -22.3975   22.4121 O   0  0  0  0  0  0  0  0  0  0  0  0
  -32.3850  -17.9754   21.1949 O   0  0  0  0  0  0  0  0  0  0  0  0
  -20.7198  -18.0390   20.0941 O   0  0  0  0  0  0  0  0  0  0  0  0
  -26.9965  -17.2830   17.0917 O   0  0  0  0  0  0  0  0  0  1  0  0
  -17.7015  -19.3306   24.5242 F   0  0  0  0  0  0  0  0  0  0  0  0
  -20.7974  -20.5844   21.1702 F   0  0  0  0  0  0  0  0  0  0  0  0
  1  2  1  0  0  0  0
  1  5  2  0  0  0  0
  2  6  2  0  0  0  0
  3  8  2  0  0  0  0
  3 17  1  0  0  0  0
  4  9  1  0  0  0  0
  4 17  2  0  0  0  0
  5 19  1  0  0  0  0
  6 21  1  0  0  0  0
  7 10  2  0  0  0  0
  7 20  1  0  0  0  0
  8 23  1  0  0  0  0
  9 23  2  0  0  0  0
 10 24  1  0  0  0  0
 11 12  2  0  0  0  0
 11 25  1  0  0  0  0
 12 26  1  0  0  0  0
 13 22  1  0  0  0  0
 13 24  2  0  0  0  0
 14 26  2  0  0  0  0
 14 27  1  0  0  0  0
 15 29  2  0  0  0  0
 15 66  1  0  0  0  0
 16 64  2  0  0  0  0
 16 66  1  0  0  0  0
 17 28  1  0  0  0  0
 18 28  1  0  0  0  0
 18 30  2  0  0  0  0
 18 31  1  0  0  0  0
 19 21  2  0  0  0  0
 19 36  1  0  0  0  0
 20 22  2  0  0  0  0
 20 37  1  0  0  0  0
 21 45  1  0  0  0  0
 22 38  1  0  0  0  0
 23 80  1  0  0  0  0
 24 81  1  0  0  0  0
 25 27  2  0  0  0  0
 25 80  1  0  0  0  0
 26 82  1  0  0  0  0
 27 83  1  0  0  0  0
 28 65  2  0  0  0  0
 29 54  1  0  0  0  0
 29 64  1  0  0  0  0
 30 67  1  0  0  0  0
 30 70  1  0  0  0  0
 31 71  1  0  0  0  0
 31 75  2  0  0  0  0
 32 46  1  0  0  0  0
 32 72  1  0  0  0  0
 32 76  2  0  0  0  0
 33 60  1  0  0  0  0
 33 69  1  0  0  0  0
 33 77  2  0  0  0  0
 34 61  1  0  0  0  0
 34 68  1  0  0  0  0
 34 78  2  0  0  0  0
 35 62  1  0  0  0  0
 35 73  1  0  0  0  0
 35 79  2  0  0  0  0
 36 39  1  0  0  0  0
 37 46  1  0  0  0  0
 38 68  1  0  0  0  0
 39 41  1  0  0  0  0
 40 42  1  0  0  0  0
 40 43  1  0  0  0  0
 41 45  1  0  0  0  0
 42 47  1  0  0  0  0
 43 69  1  0  0  0  0
 44 47  1  0  0  0  0
 44 69  1  0  0  0  0
 45 72  1  0  0  0  0
 46 68  1  0  0  0  0
 47 67  1  0  0  0  0
 48 60  1  0  0  0  0
 49 62  1  0  0  0  0
 50 63  1  0  0  0  0
 51 63  1  0  0  0  0
 52 63  1  0  0  0  0
 53 74  1  0  0  0  0
 54 81  1  0  0  0  0
 55 56  1  0  0  0  0
 55 57  1  0  0  0  0
 56 58  1  0  0  0  0
 57 59  1  0  0  0  0
 58 60  1  0  0  0  0
 59 66  1  0  0  0  0
 61 63  1  0  0  0  0
 61 73  1  0  0  0  0
 62 74  1  0  0  0  0
 65 67  1  0  0  0  0
M  CHG  1  74   1
M  ISO  4  33 100  54 101  60 100  81 101
M  END
> <Batch ID>
0043

> <Smiles>
CNC(C)C(=O)NC(C(=O)N1Cc2cc([101O:1][101CH2:1]c3cn(CCCCC[100CH:0](C)[100C:0](=O)N4CCCC(n5nc(-c6ccc(Oc7ccc(F)cc7F)cc6)c(C(N)=O)c5N)C4)cn3)ccc2CC1C(=O)NC1CCCc2ccccc21)C(C)(C)C

> <Shape>
0.194

> <Color>
0.079

> <Negative vol penalty>
0.000

$$$$

  -OEChem-04052317143D

 82 90  0     1  0  0  0  0  0999 V2000
  -21.5781  -12.2074   20.8797 C   0  0  0  0  0  0  0  0  0  0  0  0
  -21.6272  -13.5274   21.3163 C   0  0  0  0  0  0  0  0  0  0  0  0
  -29.5322  -27.3646   21.6267 C   0  0  0  0  0  0  0  0  0  0  0  0
  -27.9027  -25.5880   21.7866 C   0  0  0  0  0  0  0  0  0  0  0  0
  -22.7581  -11.5327   20.5696 C   0  0  0  0  0  0  0  0  0  0  0  0
  -22.8565  -14.1731   21.4440 C   0  0  0  0  0  0  0  0  0  0  0  0
  -22.7948  -18.8636   19.5361 C   0  0  0  0  0  0  0  0  0  0  0  0
  -30.4438  -26.5934   22.3477 C   0  0  0  0  0  0  0  0  0  0  0  0
  -28.8143  -24.8168   22.5076 C   0  0  0  0  0  0  0  0  0  0  0  0
  -22.1999  -19.8584   20.3109 C   0  0  0  0  0  0  0  0  0  0  0  0
  -29.9743  -24.6464   25.6787 C   0  0  0  0  0  0  0  0  0  0  0  0
  -29.5092  -23.9895   26.8179 C   0  0  0  0  0  0  0  0  0  0  0  0
  -24.3808  -20.5831   21.0440 C   0  0  0  0  0  0  0  0  0  0  0  0
  -30.1203  -21.8653   25.8424 C   0  0  0  0  0  0  0  0  0  0  0  0
  -28.2616  -26.8620   21.3463 C   0  0  0  0  0  0  0  0  0  0  0  0
  -27.1485  -27.6889   19.2050 C   0  0  0  0  0  0  0  0  0  0  0  0
  -24.0018  -12.1735   20.6844 C   0  0  0  0  0  0  0  0  0  0  0  0
  -24.1889  -18.7139   19.5179 C   0  0  0  0  0  0  0  0  0  0  0  0
  -24.0543  -13.5059   21.1365 C   0  0  0  0  0  0  0  0  0  0  0  0
  -24.9911  -19.5873   20.2662 C   0  0  0  0  0  0  0  0  0  0  0  0
  -30.0849  -25.3195   22.7881 C   0  0  0  0  0  0  0  0  0  0  0  0
  -22.9928  -20.7165   21.0673 C   0  0  0  0  0  0  0  0  0  0  0  0
  -30.5123  -23.9128   24.6213 C   0  0  0  0  0  0  0  0  0  0  0  0
  -29.5822  -22.5989   26.8998 C   0  0  0  0  0  0  0  0  0  0  0  0
  -30.5853  -22.5223   24.7032 C   0  0  0  0  0  0  0  0  0  0  0  0
  -27.3192  -27.6584   20.6021 C   0  0  0  0  0  0  0  0  0  0  0  0
  -19.6481  -24.1155   24.1732 C   0  0  0  0  0  0  0  0  0  0  0  0
  -20.3659  -24.9869   23.3883 C   0  0  0  0  0  0  0  0  0  0  0  0
  -26.1378  -28.5966   19.0024 C   0  0  0  0  0  0  0  0  0  0  0  0
  -20.5503  -22.9129   22.6663 C   0  0  0  0  0  0  0  0  0  0  0  0
  -27.8415  -26.9618   18.1819 C   0  0  0  0  0  0  0  0  0  0  0  0
  -26.2077  -16.4027   20.3465 C   0  0  0  0  0  0  0  0  0  0  0  0
  -28.4109  -18.3925   19.0393 C   0  0  0  0  0  0  0  0  0  0  0  0
  -29.2855  -21.5737   18.1662 C   0  0  0  0  0  0  0  0  0  0  0  0
  -21.6345  -30.5210   22.4475 C   0  0  0  0  0  0  0  0  0  0  0  0
  -25.2537  -11.3881   20.3830 C   0  0  0  0  0  0  0  0  0  0  0  0
  -24.8166  -17.6530   18.6560 C   0  0  0  0  0  0  0  0  0  0  0  0
  -26.4935  -19.4814   20.2653 C   0  0  0  0  0  0  0  0  0  0  0  0
  -26.4891  -12.2630   20.1867 C   0  0  0  0  0  0  0  0  0  0  0  0
  -24.1737  -32.5073   20.9362 C   0  0  0  0  0  0  0  0  0  0  0  0
  -26.5811  -13.3121   21.2903 C   0  0  0  0  0  0  0  0  0  0  0  0
  -25.2524  -31.4926   20.5531 C   0  0  0  0  0  0  0  0  0  0  0  0
  -23.4982  -32.1417   22.2560 C   0  0  0  0  0  0  0  0  0  0  0  0
  -24.0319  -29.7577   21.9313 C   0  0  0  0  0  0  0  0  0  0  0  0
  -25.3668  -14.2483   21.2641 C   0  0  1  0  0  0  0  0  0  0  0  0
  -26.2184  -17.2627   19.1145 C   0  0  1  0  0  0  0  0  0  0  0  0
  -24.7031  -30.0535   20.5792 C   0  0  2  0  0  0  0  0  0  0  0  0
  -18.8310  -24.4139   25.3600 C   0  0  0  0  0  0  0  0  0  0  0  0
  -31.1642  -22.8919   17.1512 C   0  0  0  0  0  0  0  0  0  0  0  0
  -29.9661  -18.1867   21.6563 C   0  0  0  0  0  0  0  0  0  0  0  0
  -31.2722  -20.2053   20.9581 C   0  0  0  0  0  0  0  0  0  0  0  0
  -31.3800  -18.1191   19.5946 C   0  0  0  0  0  0  0  0  0  0  0  0
  -21.7949  -24.6536   21.3544 C   0  0  0  0  0  0  0  0  0  0  0  0
  -27.5911  -22.4734   15.9127 C   0  0  0  0  0  0  0  0  0  0  0  0
  -20.5547  -26.4470   23.4595 C   0  0  0  0  0  0  0  0  0  0  0  0
  -20.9904  -21.7712   21.7979 C   0  0  0  0  0  0  0  0  0  1  0  0
  -19.6886  -27.2688   22.4729 C   0  0  0  0  0  0  0  0  0  0  0  0
  -19.8719  -28.7801   22.5941 C   0  0  0  0  0  0  0  0  0  0  0  0
  -29.2745  -19.5182   19.5552 C   0  0  1  0  0  0  0  0  0  0  0  0
  -29.8679  -22.1425   16.8850 C   0  0  2  0  0  0  0  0  0  0  0  0
  -30.4448  -19.0083   20.4428 C   0  0  0  0  0  0  0  0  0  0  0  0
  -26.4840  -28.4813   21.2417 N   0  0  0  0  0  0  0  0  0  0  0  0
  -19.7673  -22.8260   23.7186 N   0  0  0  0  0  0  0  0  0  0  0  0
  -20.9387  -24.2019   22.4276 N   0  0  0  0  0  0  0  0  0  0  0  0
  -25.7787  -29.0376   20.2421 N   0  0  0  0  0  0  0  0  0  0  0  0
  -27.0596  -18.4239   19.4115 N   0  0  0  0  0  0  0  0  0  0  0  0
  -22.9980  -30.7655   22.2145 N   0  0  0  0  0  0  0  0  0  0  0  0
  -25.5300  -29.0526   17.8865 N   0  0  0  0  0  0  0  0  0  0  0  0
  -28.8526  -26.0698   18.5645 N   0  0  0  0  0  0  0  0  0  0  0  0
  -25.5028  -15.2229   20.2030 N   0  0  0  0  0  0  0  0  0  0  0  0
  -29.6995  -20.2765   18.3836 N   0  0  0  0  0  0  0  0  0  0  0  0
  -21.2426  -29.1895   22.3832 N   0  0  0  0  0  0  0  0  0  0  0  0
  -28.9026  -23.0841   16.2505 N   0  3  0  0  0  0  0  0  0  0  0  0
  -27.5833  -27.1112   16.9635 O   0  0  0  0  0  0  0  0  0  0  0  0
  -26.7967  -16.7808   21.3524 O   0  0  0  0  0  0  0  0  0  0  0  0
  -28.9153  -17.5215   18.3261 O   0  0  0  0  0  0  0  0  0  0  0  0
  -28.5410  -22.2170   18.9026 O   0  0  0  0  0  0  0  0  0  0  0  0
  -20.8254  -31.4232   22.6892 O   0  0  0  0  0  0  0  0  0  0  0  0
  -30.9743  -24.5666   23.4914 O   0  0  0  0  0  0  0  0  0  0  0  0
  -22.4147  -21.6879   21.8249 O   0  0  0  0  0  0  0  0  0  1  0  0
  -29.1370  -21.9683   27.9944 F   0  0  0  0  0  0  0  0  0  0  0  0
  -31.1022  -21.8122   23.6910 F   0  0  0  0  0  0  0  0  0  0  0  0
  1  2  1  0  0  0  0
  1  5  2  0  0  0  0
  2  6  2  0  0  0  0
  3  8  2  0  0  0  0
  3 15  1  0  0  0  0
  4  9  1  0  0  0  0
  4 15  2  0  0  0  0
  5 17  1  0  0  0  0
  6 19  1  0  0  0  0
  7 10  2  0  0  0  0
  7 18  1  0  0  0  0
  8 21  1  0  0  0  0
  9 21  2  0  0  0  0
 10 22  1  0  0  0  0
 11 12  2  0  0  0  0
 11 23  1  0  0  0  0
 12 24  1  0  0  0  0
 13 20  1  0  0  0  0
 13 22  2  0  0  0  0
 14 24  2  0  0  0  0
 14 25  1  0  0  0  0
 15 26  1  0  0  0  0
 16 26  1  0  0  0  0
 16 29  2  0  0  0  0
 16 31  1  0  0  0  0
 17 19  2  0  0  0  0
 17 36  1  0  0  0  0
 18 20  2  0  0  0  0
 18 37  1  0  0  0  0
 19 45  1  0  0  0  0
 20 38  1  0  0  0  0
 21 79  1  0  0  0  0
 22 80  1  0  0  0  0
 23 25  2  0  0  0  0
 23 79  1  0  0  0  0
 24 81  1  0  0  0  0
 25 82  1  0  0  0  0
 26 62  2  0  0  0  0
 27 28  2  0  0  0  0
 27 48  1  0  0  0  0
 27 63  1  0  0  0  0
 28 55  1  0  0  0  0
 28 64  1  0  0  0  0
 29 65  1  0  0  0  0
 29 68  1  0  0  0  0
 30 56  1  0  0  0  0
 30 63  2  0  0  0  0
 30 64  1  0  0  0  0
 31 69  1  0  0  0  0
 31 74  2  0  0  0  0
 32 46  1  0  0  0  0
 32 70  1  0  0  0  0
 32 75  2  0  0  0  0
 33 59  1  0  0  0  0
 33 66  1  0  0  0  0
 33 76  2  0  0  0  0
 34 60  1  0  0  0  0
 34 71  1  0  0  0  0
 34 77  2  0  0  0  0
 35 67  1  0  0  0  0
 35 72  1  0  0  0  0
 35 78  2  0  0  0  0
 36 39  1  0  0  0  0
 37 46  1  0  0  0  0
 38 66  1  0  0  0  0
 39 41  1  0  0  0  0
 40 42  1  0  0  0  0
 40 43  1  0  0  0  0
 41 45  1  0  0  0  0
 42 47  1  0  0  0  0
 43 67  1  0  0  0  0
 44 47  1  0  0  0  0
 44 67  1  0  0  0  0
 45 70  1  0  0  0  0
 46 66  1  0  0  0  0
 47 65  1  0  0  0  0
 49 60  1  0  0  0  0
 50 61  1  0  0  0  0
 51 61  1  0  0  0  0
 52 61  1  0  0  0  0
 53 64  1  0  0  0  0
 54 73  1  0  0  0  0
 55 57  1  0  0  0  0
 56 80  1  0  0  0  0
 57 58  1  0  0  0  0
 58 72  1  0  0  0  0
 59 61  1  0  0  0  0
 59 71  1  0  0  0  0
 60 73  1  0  0  0  0
 62 65  1  0  0  0  0
M  CHG  1  73   1
M  ISO  4  35 100  56 101  72 100  80 101
M  END
> <Batch ID>
0043

> <Smiles>
CNC(C)C(=O)NC(C(=O)N1Cc2cc([101O:1][101CH2:1]c3nc(C)c(CCC[100NH:0][100C:0](=O)N4CCCC(n5nc(-c6ccc(Oc7ccc(F)cc7F)cc6)c(C(N)=O)c5N)C4)n3C)ccc2CC1C(=O)NC1CCCc2ccccc21)C(C)(C)C

> <Shape>
0.216

> <Color>
0.083

> <Negative vol penalty>
0.000

$$$$

  -OEChem-04052317143D

 88 96  0     1  0  0  0  0  0999 V2000
  -21.1809  -27.0069   25.7649 C   0  0  0  0  0  0  0  0  0  0  0  0
  -21.2590  -25.7601   25.1527 C   0  0  0  0  0  0  0  0  0  0  0  0
  -25.7855  -28.0566   20.6790 C   0  0  0  0  0  0  0  0  0  0  0  0
  -26.1120  -26.6751   22.6340 C   0  0  0  0  0  0  0  0  0  0  0  0
  -20.4951  -28.0475   25.1398 C   0  0  0  0  0  0  0  0  0  0  0  0
  -20.6504  -25.5529   23.9153 C   0  0  0  0  0  0  0  0  0  0  0  0
  -23.6249  -23.0297   20.6856 C   0  0  0  0  0  0  0  0  0  0  0  0
  -24.7660  -28.7455   21.3361 C   0  0  0  0  0  0  0  0  0  0  0  0
  -25.0926  -27.3641   23.2911 C   0  0  0  0  0  0  0  0  0  0  0  0
  -23.7264  -21.6501   20.8586 C   0  0  0  0  0  0  0  0  0  0  0  0
  -22.3216  -31.1066   22.6266 C   0  0  0  0  0  0  0  0  0  0  0  0
  -22.3129  -32.4981   22.5308 C   0  0  0  0  0  0  0  0  0  0  0  0
  -22.1351  -21.3156   19.0767 C   0  0  0  0  0  0  0  0  0  0  0  0
  -24.4962  -32.5827   23.5619 C   0  0  0  0  0  0  0  0  0  0  0  0
  -26.4584  -27.0214   21.3279 C   0  0  0  0  0  0  0  0  0  0  0  0
  -28.8834  -26.6237   20.6429 C   0  0  0  0  0  0  0  0  0  0  0  0
  -19.8861  -27.8557   23.8896 C   0  0  0  0  0  0  0  0  0  0  0  0
  -22.7681  -23.5639   19.7125 C   0  0  0  0  0  0  0  0  0  0  0  0
  -19.9547  -26.5916   23.2734 C   0  0  0  0  0  0  0  0  0  0  0  0
  -22.0265  -22.7023   18.8916 C   0  0  0  0  0  0  0  0  0  0  0  0
  -24.4196  -28.3993   22.6421 C   0  0  0  0  0  0  0  0  0  0  0  0
  -22.9793  -20.7928   20.0561 C   0  0  0  0  0  0  0  0  0  0  0  0
  -23.4176  -30.4530   23.1901 C   0  0  0  0  0  0  0  0  0  0  0  0
  -23.4002  -33.2361   22.9984 C   0  0  0  0  0  0  0  0  0  0  0  0
  -24.5049  -31.1911   23.6577 C   0  0  0  0  0  0  0  0  0  0  0  0
  -27.5112  -26.3090   20.6495 C   0  0  0  0  0  0  0  0  0  0  0  0
  -26.8954  -15.2605   18.8950 C   0  0  0  0  0  0  0  0  0  0  0  0
  -26.8245  -13.9149   18.6689 C   0  0  0  0  0  0  0  0  0  0  0  0
  -29.4551  -25.6502   19.8605 C   0  0  0  0  0  0  0  0  0  0  0  0
  -25.5145  -14.3887   20.3894 C   0  0  0  0  0  0  0  0  0  0  0  0
  -29.5789  -27.6996   21.2864 C   0  0  0  0  0  0  0  0  0  0  0  0
  -20.2132  -25.4543   19.7673 C   0  0  0  0  0  0  0  0  0  0  0  0
  -20.5296  -25.3225   16.5417 C   0  0  0  0  0  0  0  0  0  0  0  0
  -21.6956  -23.6396   13.8113 C   0  0  0  0  0  0  0  0  0  0  0  0
  -28.9548  -20.0787   18.8023 C   0  0  0  0  0  0  0  0  0  0  0  0
  -19.1156  -28.9971   23.2747 C   0  0  0  0  0  0  0  0  0  0  0  0
  -22.6900  -25.0537   19.5205 C   0  0  0  0  0  0  0  0  0  0  0  0
  -21.1074  -23.2249   17.8189 C   0  0  0  0  0  0  0  0  0  0  0  0
  -18.8176  -28.8012   21.7904 C   0  0  0  0  0  0  0  0  0  0  0  0
  -27.7873  -22.5280   16.4074 C   0  0  0  0  0  0  0  0  0  0  0  0
  -18.2890  -27.3936   21.5333 C   0  0  0  0  0  0  0  0  0  0  0  0
  -27.7322  -23.7920   17.2674 C   0  0  0  0  0  0  0  0  0  0  0  0
  -27.3587  -21.2988   17.2033 C   0  0  0  0  0  0  0  0  0  0  0  0
  -28.0781  -22.3386   19.3187 C   0  0  0  0  0  0  0  0  0  0  0  0
  -19.3287  -26.3347   21.9198 C   0  0  1  0  0  0  0  0  0  0  0  0
  -21.3980  -25.5022   18.8445 C   0  0  1  0  0  0  0  0  0  0  0  0
  -28.5216  -23.6131   18.5777 C   0  0  2  0  0  0  0  0  0  0  0  0
  -28.6523  -12.2533   18.2388 C   0  0  0  0  0  0  0  0  0  0  0  0
  -20.6997  -13.7922   21.7254 C   0  0  0  0  0  0  0  0  0  0  0  0
  -21.7684  -23.7604   11.3058 C   0  0  0  0  0  0  0  0  0  0  0  0
  -17.6110  -24.4414   16.4168 C   0  0  0  0  0  0  0  0  0  0  0  0
  -18.0150  -23.6763   14.0674 C   0  0  0  0  0  0  0  0  0  0  0  0
  -18.2804  -26.0859   14.6557 C   0  0  0  0  0  0  0  0  0  0  0  0
  -24.6533  -23.7403   13.7863 C   0  0  0  0  0  0  0  0  0  0  0  0
  -27.6573  -16.3080   18.2023 C   0  0  0  0  0  0  0  0  0  0  0  0
  -27.4751  -13.0604   17.6707 C   0  0  0  0  0  0  0  0  0  0  0  0
  -24.5654  -14.2299   21.5191 C   0  0  0  0  0  0  0  0  0  0  0  0
  -22.1340  -13.9287   22.2108 C   0  0  0  0  0  0  0  0  0  0  0  0
  -28.9597  -16.7578   18.9142 C   0  0  0  0  0  0  0  0  0  0  0  0
  -23.1120  -14.0501   21.0422 C   0  0  0  0  0  0  0  0  0  0  0  0
  -24.5135  -17.5263   20.1480 C   0  0  0  0  0  0  0  0  0  0  0  0
  -25.8363  -16.8848   20.5728 C   0  0  0  0  0  0  0  0  0  0  0  0
  -29.7488  -17.8198   18.1514 C   0  0  0  0  0  0  0  0  0  0  0  0
  -24.3242  -18.9375   20.6922 C   0  0  0  0  0  0  0  0  0  1  0  0
  -20.0058  -24.4183   15.4521 C   0  0  1  0  0  0  0  0  0  0  0  0
  -22.4851  -24.1065   12.6016 C   0  0  2  0  0  0  0  0  0  0  0  0
  -18.4938  -24.6454   15.1694 C   0  0  0  0  0  0  0  0  0  0  0  0
  -27.2283  -25.2209   19.9285 N   0  0  0  0  0  0  0  0  0  0  0  0
  -26.0747  -15.5259   19.9646 N   0  0  0  0  0  0  0  0  0  0  0  0
  -28.4305  -24.8433   19.4614 N   0  0  0  0  0  0  0  0  0  0  0  0
  -25.9634  -13.4009   19.6082 N   0  3  0  0  0  0  0  0  0  0  0  0
  -21.0608  -24.6892   17.6742 N   0  0  0  0  0  0  0  0  0  0  0  0
  -28.1611  -21.1759   18.4286 N   0  0  0  0  0  0  0  0  0  0  0  0
  -30.7292  -25.4144   19.4819 N   0  0  0  0  0  0  0  0  0  0  0  0
  -28.8387  -28.6102   22.0527 N   0  0  0  0  0  0  0  0  0  0  0  0
  -20.3505  -26.2339   20.9000 N   0  0  0  0  0  0  0  0  0  0  0  0
  -20.8685  -24.6312   14.2951 N   0  0  0  0  0  0  0  0  0  0  0  0
  -28.9737  -19.0158   17.9075 N   0  0  0  0  0  0  0  0  0  0  0  0
  -23.8297  -23.4641   12.5812 N   0  3  0  0  0  0  0  0  0  0  0  0
  -30.8179  -27.8586   21.1716 O   0  0  0  0  0  0  0  0  0  0  0  0
  -19.2455  -24.7627   19.4728 O   0  0  0  0  0  0  0  0  0  0  0  0
  -20.4761  -26.5456   16.3903 O   0  0  0  0  0  0  0  0  0  0  0  0
  -21.7993  -22.5073   14.2778 O   0  0  0  0  0  0  0  0  0  0  0  0
  -29.6034  -20.0504   19.8538 O   0  0  0  0  0  0  0  0  0  0  0  0
  -23.4251  -29.0714   23.2837 O   0  0  0  0  0  0  0  0  0  0  0  0
  -23.0760  -19.4458   20.2233 O   0  0  0  0  0  0  0  0  0  1  0  0
  -23.3924  -34.5723   22.9050 F   0  0  0  0  0  0  0  0  0  0  0  0
  -25.5612  -30.5688   24.1989 F   0  0  0  0  0  0  0  0  0  0  0  0
  1  2  1  0  0  0  0
  1  5  2  0  0  0  0
  2  6  2  0  0  0  0
  3  8  2  0  0  0  0
  3 15  1  0  0  0  0
  4  9  1  0  0  0  0
  4 15  2  0  0  0  0
  5 17  1  0  0  0  0
  6 19  1  0  0  0  0
  7 10  2  0  0  0  0
  7 18  1  0  0  0  0
  8 21  1  0  0  0  0
  9 21  2  0  0  0  0
 10 22  1  0  0  0  0
 11 12  2  0  0  0  0
 11 23  1  0  0  0  0
 12 24  1  0  0  0  0
 13 20  1  0  0  0  0
 13 22  2  0  0  0  0
 14 24  2  0  0  0  0
 14 25  1  0  0  0  0
 15 26  1  0  0  0  0
 16 26  1  0  0  0  0
 16 29  2  0  0  0  0
 16 31  1  0  0  0  0
 17 19  2  0  0  0  0
 17 36  1  0  0  0  0
 18 20  2  0  0  0  0
 18 37  1  0  0  0  0
 19 45  1  0  0  0  0
 20 38  1  0  0  0  0
 21 85  1  0  0  0  0
 22 86  1  0  0  0  0
 23 25  2  0  0  0  0
 23 85  1  0  0  0  0
 24 87  1  0  0  0  0
 25 88  1  0  0  0  0
 26 68  2  0  0  0  0
 27 28  2  0  0  0  0
 27 55  1  0  0  0  0
 27 69  1  0  0  0  0
 28 56  1  0  0  0  0
 28 71  1  0  0  0  0
 29 70  1  0  0  0  0
 29 74  1  0  0  0  0
 30 57  1  0  0  0  0
 30 69  1  0  0  0  0
 30 71  2  0  0  0  0
 31 75  1  0  0  0  0
 31 80  2  0  0  0  0
 32 46  1  0  0  0  0
 32 76  1  0  0  0  0
 32 81  2  0  0  0  0
 33 65  1  0  0  0  0
 33 72  1  0  0  0  0
 33 82  2  0  0  0  0
 34 66  1  0  0  0  0
 34 77  1  0  0  0  0
 34 83  2  0  0  0  0
 35 73  1  0  0  0  0
 35 78  1  0  0  0  0
 35 84  2  0  0  0  0
 36 39  1  0  0  0  0
 37 46  1  0  0  0  0
 38 72  1  0  0  0  0
 39 41  1  0  0  0  0
 40 42  1  0  0  0  0
 40 43  1  0  0  0  0
 41 45  1  0  0  0  0
 42 47  1  0  0  0  0
 43 73  1  0  0  0  0
 44 47  1  0  0  0  0
 44 73  1  0  0  0  0
 45 76  1  0  0  0  0
 46 72  1  0  0  0  0
 47 70  1  0  0  0  0
 48 56  1  0  0  0  0
 49 58  1  0  0  0  0
 50 66  1  0  0  0  0
 51 67  1  0  0  0  0
 52 67  1  0  0  0  0
 53 67  1  0  0  0  0
 54 79  1  0  0  0  0
 55 59  1  0  0  0  0
 57 60  1  0  0  0  0
 58 60  1  0  0  0  0
 59 63  1  0  0  0  0
 61 62  1  0  0  0  0
 61 64  1  0  0  0  0
 62 69  1  0  0  0  0
 63 78  1  0  0  0  0
 64 86  1  0  0  0  0
 65 67  1  0  0  0  0
 65 77  1  0  0  0  0
 66 79  1  0  0  0  0
 68 70  1  0  0  0  0
M  CHG  2  71   1  79   1
M  ISO  4  35 100  64 101  78 100  86 101
M  END
> <Batch ID>
0043

> <Smiles>
CCCCc1nc(CC)c(CCC[100NH:0][100C:0](=O)N2CCCC(n3nc(-c4ccc(Oc5ccc(F)cc5F)cc4)c(C(N)=O)c3N)C2)n1CC[101CH2:1][101O:1]c1ccc2c(c1)CN(C(=O)C(NC(=O)C(C)NC)C(C)(C)C)C(C(=O)NC1CCCc3ccccc31)C2

> <Shape>
0.209

> <Color>
0.070

> <Negative vol penalty>
0.000

$$$$

  -OEChem-04052317143D

 80 87  0     1  0  0  0  0  0999 V2000
  -22.3393  -11.5246   18.8840 C   0  0  0  0  0  0  0  0  0  0  0  0
  -21.9898  -12.8428   19.1589 C   0  0  0  0  0  0  0  0  0  0  0  0
  -25.2151  -28.2721   19.8042 C   0  0  0  0  0  0  0  0  0  0  0  0
  -25.0358  -25.8628   19.8262 C   0  0  0  0  0  0  0  0  0  0  0  0
  -23.5693  -11.0270   19.3124 C   0  0  0  0  0  0  0  0  0  0  0  0
  -22.8696  -13.6639   19.8632 C   0  0  0  0  0  0  0  0  0  0  0  0
  -23.2991  -18.2701   17.8031 C   0  0  0  0  0  0  0  0  0  0  0  0
  -26.6042  -28.1694   19.8772 C   0  0  0  0  0  0  0  0  0  0  0  0
  -26.4250  -25.7602   19.8992 C   0  0  0  0  0  0  0  0  0  0  0  0
  -22.2683  -19.1761   18.0488 C   0  0  0  0  0  0  0  0  0  0  0  0
  -29.1672  -27.5103   17.7726 C   0  0  0  0  0  0  0  0  0  0  0  0
  -29.9226  -28.3206   16.9250 C   0  0  0  0  0  0  0  0  0  0  0  0
  -23.6050  -20.2229   19.7624 C   0  0  0  0  0  0  0  0  0  0  0  0
  -30.9730  -29.3477   18.8430 C   0  0  0  0  0  0  0  0  0  0  0  0
  -24.4308  -27.1188   19.7788 C   0  0  0  0  0  0  0  0  0  0  0  0
  -22.2065  -27.2721   18.5393 C   0  0  0  0  0  0  0  0  0  0  0  0
  -24.4687  -11.8452   20.0139 C   0  0  0  0  0  0  0  0  0  0  0  0
  -24.4884  -18.3269   18.5440 C   0  0  0  0  0  0  0  0  0  0  0  0
  -24.1122  -13.1764   20.3025 C   0  0  0  0  0  0  0  0  0  0  0  0
  -24.6504  -19.3181   19.5224 C   0  0  0  0  0  0  0  0  0  0  0  0
  -27.2092  -26.9135   19.9247 C   0  0  0  0  0  0  0  0  0  0  0  0
  -22.4200  -20.1509   19.0305 C   0  0  0  0  0  0  0  0  0  0  0  0
  -29.3147  -27.6187   19.1555 C   0  0  0  0  0  0  0  0  0  0  0  0
  -30.8255  -29.2393   17.4602 C   0  0  0  0  0  0  0  0  0  0  0  0
  -30.2176  -28.5374   19.6906 C   0  0  0  0  0  0  0  0  0  0  0  0
  -22.9958  -27.2242   19.7040 C   0  0  0  0  0  0  0  0  0  0  0  0
  -20.9172  -27.3714   19.0021 C   0  0  0  0  0  0  0  0  0  0  0  0
  -22.6033  -27.2304   17.1621 C   0  0  0  0  0  0  0  0  0  0  0  0
  -25.9941  -16.3485   20.5245 C   0  0  0  0  0  0  0  0  0  0  0  0
  -28.3032  -18.6243   20.4192 C   0  0  0  0  0  0  0  0  0  0  0  0
  -29.1309  -21.8884   19.8645 C   0  0  0  0  0  0  0  0  0  0  0  0
  -18.2019  -25.7876   23.9816 C   0  0  0  0  0  0  0  0  0  0  0  0
  -25.7668  -11.2489   20.4977 C   0  0  0  0  0  0  0  0  0  0  0  0
  -25.6013  -17.3591   18.2485 C   0  0  0  0  0  0  0  0  0  0  0  0
  -25.9154  -19.4344   20.3316 C   0  0  0  0  0  0  0  0  0  0  0  0
  -26.7999  -12.2936   20.9121 C   0  0  0  0  0  0  0  0  0  0  0  0
  -18.3702  -29.0044   22.6973 C   0  0  0  0  0  0  0  0  0  0  0  0
  -26.1576  -13.3585   21.7954 C   0  0  0  0  0  0  0  0  0  0  0  0
  -19.4992  -28.9315   21.6702 C   0  0  0  0  0  0  0  0  0  0  0  0
  -18.7202  -28.2077   23.9484 C   0  0  0  0  0  0  0  0  0  0  0  0
  -20.1703  -26.6806   22.6499 C   0  0  0  0  0  0  0  0  0  0  0  0
  -25.0501  -14.1054   21.0424 C   0  0  1  0  0  0  0  0  0  0  0  0
  -26.5676  -17.1852   19.4160 C   0  0  1  0  0  0  0  0  0  0  0  0
  -19.8683  -27.4703   21.3598 C   0  0  2  0  0  0  0  0  0  0  0  0
  -31.0903  -23.4559   19.8926 C   0  0  0  0  0  0  0  0  0  0  0  0
  -18.9712  -25.4077   27.1215 C   0  0  0  0  0  0  0  0  0  0  0  0
  -20.9922  -23.9405   27.3175 C   0  0  0  0  0  0  0  0  0  0  0  0
  -28.2099  -18.6823   23.4685 C   0  0  0  0  0  0  0  0  0  0  0  0
  -29.4390  -20.8622   23.3952 C   0  0  0  0  0  0  0  0  0  0  0  0
  -30.5097  -18.7978   22.4928 C   0  0  0  0  0  0  0  0  0  0  0  0
  -28.8304  -22.5007   16.9846 C   0  0  0  0  0  0  0  0  0  0  0  0
  -19.6701  -22.4071   22.3241 C   0  0  0  0  0  0  0  0  0  0  0  0
  -18.2130  -22.7904   22.5994 C   0  0  0  0  0  0  0  0  0  0  0  0
  -19.8454  -21.8832   20.8999 C   0  0  0  0  0  0  0  0  0  0  0  0
  -18.0056  -23.3303   24.0106 C   0  0  0  0  0  0  0  0  0  0  0  0
  -19.9920  -24.3558   25.0543 C   0  0  0  0  0  0  0  0  0  0  0  0
  -21.2989  -21.5384   20.6034 C   0  0  0  0  0  0  0  0  0  1  0  0
  -28.6123  -19.8712   21.2122 C   0  0  1  0  0  0  0  0  0  0  0  0
  -30.2416  -22.5207   19.0454 C   0  0  2  0  0  0  0  0  0  0  0  0
  -19.6939  -24.1866   26.5482 C   0  0  0  0  0  0  0  0  0  0  0  0
  -29.1680  -19.5502   22.6284 C   0  0  0  0  0  0  0  0  0  0  0  0
  -22.2687  -27.2880   20.8226 N   0  0  0  0  0  0  0  0  0  0  0  0
  -21.0090  -27.3771   20.3629 N   0  0  0  0  0  0  0  0  0  0  0  0
  -26.9722  -18.4612   20.0098 N   0  0  0  0  0  0  0  0  0  0  0  0
  -19.0706  -26.8265   23.6159 N   0  0  0  0  0  0  0  0  0  0  0  0
  -19.7252  -27.4536   18.3738 N   0  0  0  0  0  0  0  0  0  0  0  0
  -23.9686  -27.1268   16.8631 N   0  0  0  0  0  0  0  0  0  0  0  0
  -25.6224  -15.0761   20.1343 N   0  0  0  0  0  0  0  0  0  0  0  0
  -29.5105  -20.6691   20.3846 N   0  0  0  0  0  0  0  0  0  0  0  0
  -18.7773  -24.5390   24.2621 N   0  0  0  0  0  0  0  0  0  0  0  0
  -29.6694  -23.3019   17.9126 N   0  3  0  0  0  0  0  0  0  0  0  0
  -21.7730  -27.3000   16.2244 O   0  0  0  0  0  0  0  0  0  0  0  0
  -25.8974  -16.8217   21.6507 O   0  0  0  0  0  0  0  0  0  0  0  0
  -29.2107  -17.8281   20.1661 O   0  0  0  0  0  0  0  0  0  0  0  0
  -28.0372  -22.4243   20.0297 O   0  0  0  0  0  0  0  0  0  0  0  0
  -16.9797  -25.9663   24.0611 O   0  0  0  0  0  0  0  0  0  0  0  0
  -28.5647  -26.8130   19.9956 O   0  0  0  0  0  0  0  0  0  0  0  0
  -21.4152  -21.0360   19.2728 O   0  0  0  0  0  0  0  0  0  1  0  0
  -31.5518  -30.0163   16.6461 F   0  0  0  0  0  0  0  0  0  0  0  0
  -30.3646  -28.6453   21.0183 F   0  0  0  0  0  0  0  0  0  0  0  0
  1  2  1  0  0  0  0
  1  5  2  0  0  0  0
  2  6  2  0  0  0  0
  3  8  2  0  0  0  0
  3 15  1  0  0  0  0
  4  9  1  0  0  0  0
  4 15  2  0  0  0  0
  5 17  1  0  0  0  0
  6 19  1  0  0  0  0
  7 10  2  0  0  0  0
  7 18  1  0  0  0  0
  8 21  1  0  0  0  0
  9 21  2  0  0  0  0
 10 22  1  0  0  0  0
 11 12  2  0  0  0  0
 11 23  1  0  0  0  0
 12 24  1  0  0  0  0
 13 20  1  0  0  0  0
 13 22  2  0  0  0  0
 14 24  2  0  0  0  0
 14 25  1  0  0  0  0
 15 26  1  0  0  0  0
 16 26  1  0  0  0  0
 16 27  2  0  0  0  0
 16 28  1  0  0  0  0
 17 19  2  0  0  0  0
 17 33  1  0  0  0  0
 18 20  2  0  0  0  0
 18 34  1  0  0  0  0
 19 42  1  0  0  0  0
 20 35  1  0  0  0  0
 21 77  1  0  0  0  0
 22 78  1  0  0  0  0
 23 25  2  0  0  0  0
 23 77  1  0  0  0  0
 24 79  1  0  0  0  0
 25 80  1  0  0  0  0
 26 62  2  0  0  0  0
 27 63  1  0  0  0  0
 27 66  1  0  0  0  0
 28 67  1  0  0  0  0
 28 72  2  0  0  0  0
 29 43  1  0  0  0  0
 29 68  1  0  0  0  0
 29 73  2  0  0  0  0
 30 58  1  0  0  0  0
 30 64  1  0  0  0  0
 30 74  2  0  0  0  0
 31 59  1  0  0  0  0
 31 69  1  0  0  0  0
 31 75  2  0  0  0  0
 32 65  1  0  0  0  0
 32 70  1  0  0  0  0
 32 76  2  0  0  0  0
 33 36  1  0  0  0  0
 34 43  1  0  0  0  0
 35 64  1  0  0  0  0
 36 38  1  0  0  0  0
 37 39  1  0  0  0  0
 37 40  1  0  0  0  0
 38 42  1  0  0  0  0
 39 44  1  0  0  0  0
 40 65  1  0  0  0  0
 41 44  1  0  0  0  0
 41 65  1  0  0  0  0
 42 68  1  0  0  0  0
 43 64  1  0  0  0  0
 44 63  1  0  0  0  0
 45 59  1  0  0  0  0
 46 60  1  0  0  0  0
 47 60  1  0  0  0  0
 48 61  1  0  0  0  0
 49 61  1  0  0  0  0
 50 61  1  0  0  0  0
 51 71  1  0  0  0  0
 52 53  1  0  0  0  0
 52 54  1  0  0  0  0
 53 55  1  0  0  0  0
 54 57  1  0  0  0  0
 55 70  1  0  0  0  0
 56 60  1  0  0  0  0
 56 70  1  0  0  0  0
 57 78  1  0  0  0  0
 58 61  1  0  0  0  0
 58 69  1  0  0  0  0
 59 71  1  0  0  0  0
 62 63  1  0  0  0  0
M  CHG  1  71   1
M  ISO  4  32 100  57 101  70 100  78 101
M  END
> <Batch ID>
0043

> <Smiles>
CNC(C)C(=O)NC(C(=O)N1Cc2cc([101O:1][101CH2:1]CCCC[100N:0](CC(C)C)[100C:0](=O)N3CCCC(n4nc(-c5ccc(Oc6ccc(F)cc6F)cc5)c(C(N)=O)c4N)C3)ccc2CC1C(=O)NC1CCCc2ccccc21)C(C)(C)C

> <Shape>
0.192

> <Color>
0.088

> <Negative vol penalty>
0.000

$$$$

  -OEChem-04052317143D

 82 90  0     1  0  0  0  0  0999 V2000
  -26.5299  -29.7625   19.5971 C   0  0  0  0  0  0  0  0  0  0  0  0
  -26.7858  -28.4736   19.1403 C   0  0  0  0  0  0  0  0  0  0  0  0
  -30.7008  -22.5974   21.1913 C   0  0  0  0  0  0  0  0  0  0  0  0
  -29.5908  -22.3666   19.0578 C   0  0  0  0  0  0  0  0  0  0  0  0
  -25.6414  -29.9632   20.6527 C   0  0  0  0  0  0  0  0  0  0  0  0
  -26.1540  -27.3845   19.7395 C   0  0  0  0  0  0  0  0  0  0  0  0
  -23.5611  -20.8888   18.1907 C   0  0  0  0  0  0  0  0  0  0  0  0
  -31.1288  -23.8750   20.8304 C   0  0  0  0  0  0  0  0  0  0  0  0
  -30.0188  -23.6442   18.6969 C   0  0  0  0  0  0  0  0  0  0  0  0
  -23.6472  -19.5646   18.6184 C   0  0  0  0  0  0  0  0  0  0  0  0
  -29.8185  -26.9878   20.6679 C   0  0  0  0  0  0  0  0  0  0  0  0
  -29.6888  -28.0058   21.6125 C   0  0  0  0  0  0  0  0  0  0  0  0
  -22.0712  -20.0381   20.3822 C   0  0  0  0  0  0  0  0  0  0  0  0
  -32.0782  -28.3595   21.5594 C   0  0  0  0  0  0  0  0  0  0  0  0
  -22.5909  -14.9227   20.0448 C   0  0  0  0  0  0  0  0  0  0  0  0
  -29.9318  -21.8432   20.3049 C   0  0  0  0  0  0  0  0  0  0  0  0
  -28.2937  -20.1815   21.3360 C   0  0  0  0  0  0  0  0  0  0  0  0
  -24.9911  -28.8768   21.2588 C   0  0  0  0  0  0  0  0  0  0  0  0
  -22.7363  -21.8018   18.8634 C   0  0  0  0  0  0  0  0  0  0  0  0
  -25.2570  -27.5707   20.8050 C   0  0  0  0  0  0  0  0  0  0  0  0
  -21.9744  -21.3727   19.9595 C   0  0  0  0  0  0  0  0  0  0  0  0
  -30.7879  -24.3983   19.5832 C   0  0  0  0  0  0  0  0  0  0  0  0
  -22.9044  -19.1398   19.7161 C   0  0  0  0  0  0  0  0  0  0  0  0
  -31.0781  -26.6555   20.1691 C   0  0  0  0  0  0  0  0  0  0  0  0
  -30.8186  -28.6918   22.0582 C   0  0  0  0  0  0  0  0  0  0  0  0
  -32.2079  -27.3414   20.6149 C   0  0  0  0  0  0  0  0  0  0  0  0
  -29.4898  -20.5232   20.6770 C   0  0  0  0  0  0  0  0  0  0  0  0
  -23.7862  -15.6058   19.9997 C   0  0  0  0  0  0  0  0  0  0  0  0
  -23.6377  -13.1572   21.0530 C   0  0  0  0  0  0  0  0  0  0  0  0
  -24.8333  -13.8399   21.0074 C   0  0  0  0  0  0  0  0  0  0  0  0
  -28.3461  -18.8143   21.4557 C   0  0  0  0  0  0  0  0  0  0  0  0
  -27.2302  -21.0247   21.7985 C   0  0  0  0  0  0  0  0  0  0  0  0
  -23.2198  -24.5074   20.4601 C   0  0  0  0  0  0  0  0  0  0  0  0
  -19.9779  -24.5826   20.5416 C   0  0  0  0  0  0  0  0  0  0  0  0
  -17.0355  -22.8595   20.4005 C   0  0  0  0  0  0  0  0  0  0  0  0
  -29.3955  -13.7765   19.2959 C   0  0  0  0  0  0  0  0  0  0  0  0
  -24.0750  -29.1393   22.4278 C   0  0  0  0  0  0  0  0  0  0  0  0
  -22.6340  -23.2201   18.3731 C   0  0  0  0  0  0  0  0  0  0  0  0
  -21.0584  -22.3085   20.7036 C   0  0  0  0  0  0  0  0  0  0  0  0
  -23.1612  -27.9630   22.7617 C   0  0  0  0  0  0  0  0  0  0  0  0
  -32.1516  -15.5820   20.6453 C   0  0  0  0  0  0  0  0  0  0  0  0
  -23.9547  -26.6605   22.7853 C   0  0  0  0  0  0  0  0  0  0  0  0
  -31.6081  -17.0009   20.8221 C   0  0  0  0  0  0  0  0  0  0  0  0
  -31.5930  -14.9160   19.3897 C   0  0  0  0  0  0  0  0  0  0  0  0
  -29.5778  -16.3325   19.4693 C   0  0  0  0  0  0  0  0  0  0  0  0
  -24.5723  -26.3658   21.4130 C   0  0  1  0  0  0  0  0  0  0  0  0
  -22.1552  -24.1909   19.4482 C   0  0  1  0  0  0  0  0  0  0  0  0
  -30.0693  -17.0246   20.7521 C   0  0  2  0  0  0  0  0  0  0  0  0
  -23.5455  -11.7897   21.6391 C   0  0  0  0  0  0  0  0  0  0  0  0
  -14.5514  -23.1889   20.5351 C   0  0  0  0  0  0  0  0  0  0  0  0
  -20.1860  -24.8962   23.5695 C   0  0  0  0  0  0  0  0  0  0  0  0
  -17.7673  -24.2697   23.7306 C   0  0  0  0  0  0  0  0  0  0  0  0
  -18.4412  -26.3263   22.4901 C   0  0  0  0  0  0  0  0  0  0  0  0
  -16.6333  -21.8283   17.6558 C   0  0  0  0  0  0  0  0  0  0  0  0
  -26.0901  -13.2429   21.5418 C   0  0  0  0  0  0  0  0  0  0  0  0
  -23.8547  -16.9819   19.4056 C   0  0  0  0  0  0  0  0  0  1  0  0
  -26.7635  -12.2234   20.6013 C   0  0  0  0  0  0  0  0  0  0  0  0
  -27.1235  -12.7804   19.2256 C   0  0  0  0  0  0  0  0  0  0  0  0
  -18.9196  -24.0578   21.4815 C   0  0  1  0  0  0  0  0  0  0  0  0
  -15.7599  -23.1070   19.6156 C   0  0  2  0  0  0  0  0  0  0  0  0
  -18.8472  -24.8701   22.8053 C   0  0  0  0  0  0  0  0  0  0  0  0
  -22.4951  -13.6861   20.5723 N   0  0  0  0  0  0  0  0  0  0  0  0
  -30.2468  -19.4588   20.3977 N   0  0  0  0  0  0  0  0  0  0  0  0
  -24.9289  -15.0767   20.4802 N   0  0  0  0  0  0  0  0  0  0  0  0
  -29.5247  -18.4349   20.8837 N   0  0  0  0  0  0  0  0  0  0  0  0
  -20.9975  -23.6868   20.1898 N   0  0  0  0  0  0  0  0  0  0  0  0
  -30.1292  -14.9709   19.3857 N   0  0  0  0  0  0  0  0  0  0  0  0
  -27.4986  -17.9115   21.9935 N   0  0  0  0  0  0  0  0  0  0  0  0
  -27.3367  -22.4072   21.5944 N   0  0  0  0  0  0  0  0  0  0  0  0
  -23.5700  -25.8432   20.5093 N   0  0  0  0  0  0  0  0  0  0  0  0
  -17.6734  -24.0386   20.7233 N   0  0  0  0  0  0  0  0  0  0  0  0
  -28.0132  -13.9175   19.3050 N   0  0  0  0  0  0  0  0  0  0  0  0
  -15.5321  -22.0063   18.6370 N   0  3  0  0  0  0  0  0  0  0  0  0
  -26.2233  -20.5673   22.3904 O   0  0  0  0  0  0  0  0  0  0  0  0
  -23.6879  -23.6066   21.1466 O   0  0  0  0  0  0  0  0  0  0  0  0
  -19.8988  -25.7424   20.1288 O   0  0  0  0  0  0  0  0  0  0  0  0
  -17.4249  -21.7332   20.7007 O   0  0  0  0  0  0  0  0  0  0  0  0
  -29.9326  -12.6663   19.2191 O   0  0  0  0  0  0  0  0  0  0  0  0
  -31.2052  -25.6450   19.2308 O   0  0  0  0  0  0  0  0  0  0  0  0
  -22.9872  -17.8480   20.1360 O   0  0  0  0  0  0  0  0  0  1  0  0
  -30.6937  -29.6704   22.9642 F   0  0  0  0  0  0  0  0  0  0  0  0
  -33.4205  -27.0275   20.1385 F   0  0  0  0  0  0  0  0  0  0  0  0
  1  2  1  0  0  0  0
  1  5  2  0  0  0  0
  2  6  2  0  0  0  0
  3  8  2  0  0  0  0
  3 16  1  0  0  0  0
  4  9  1  0  0  0  0
  4 16  2  0  0  0  0
  5 18  1  0  0  0  0
  6 20  1  0  0  0  0
  7 10  2  0  0  0  0
  7 19  1  0  0  0  0
  8 22  1  0  0  0  0
  9 22  2  0  0  0  0
 10 23  1  0  0  0  0
 11 12  2  0  0  0  0
 11 24  1  0  0  0  0
 12 25  1  0  0  0  0
 13 21  1  0  0  0  0
 13 23  2  0  0  0  0
 14 25  2  0  0  0  0
 14 26  1  0  0  0  0
 15 28  1  0  0  0  0
 15 62  2  0  0  0  0
 16 27  1  0  0  0  0
 17 27  1  0  0  0  0
 17 31  2  0  0  0  0
 17 32  1  0  0  0  0
 18 20  2  0  0  0  0
 18 37  1  0  0  0  0
 19 21  2  0  0  0  0
 19 38  1  0  0  0  0
 20 46  1  0  0  0  0
 21 39  1  0  0  0  0
 22 79  1  0  0  0  0
 23 80  1  0  0  0  0
 24 26  2  0  0  0  0
 24 79  1  0  0  0  0
 25 81  1  0  0  0  0
 26 82  1  0  0  0  0
 27 63  2  0  0  0  0
 28 56  1  0  0  0  0
 28 64  2  0  0  0  0
 29 30  2  0  0  0  0
 29 49  1  0  0  0  0
 29 62  1  0  0  0  0
 30 55  1  0  0  0  0
 30 64  1  0  0  0  0
 31 65  1  0  0  0  0
 31 68  1  0  0  0  0
 32 69  1  0  0  0  0
 32 74  2  0  0  0  0
 33 47  1  0  0  0  0
 33 70  1  0  0  0  0
 33 75  2  0  0  0  0
 34 59  1  0  0  0  0
 34 66  1  0  0  0  0
 34 76  2  0  0  0  0
 35 60  1  0  0  0  0
 35 71  1  0  0  0  0
 35 77  2  0  0  0  0
 36 67  1  0  0  0  0
 36 72  1  0  0  0  0
 36 78  2  0  0  0  0
 37 40  1  0  0  0  0
 38 47  1  0  0  0  0
 39 66  1  0  0  0  0
 40 42  1  0  0  0  0
 41 43  1  0  0  0  0
 41 44  1  0  0  0  0
 42 46  1  0  0  0  0
 43 48  1  0  0  0  0
 44 67  1  0  0  0  0
 45 48  1  0  0  0  0
 45 67  1  0  0  0  0
 46 70  1  0  0  0  0
 47 66  1  0  0  0  0
 48 65  1  0  0  0  0
 50 60  1  0  0  0  0
 51 61  1  0  0  0  0
 52 61  1  0  0  0  0
 53 61  1  0  0  0  0
 54 73  1  0  0  0  0
 55 57  1  0  0  0  0
 56 80  1  0  0  0  0
 57 58  1  0  0  0  0
 58 72  1  0  0  0  0
 59 61  1  0  0  0  0
 59 71  1  0  0  0  0
 60 73  1  0  0  0  0
 63 65  1  0  0  0  0
M  CHG  1  73   1
M  ISO  4  36 100  56 101  72 100  80 101
M  END
> <Batch ID>
0043

> <Smiles>
CNC(C)C(=O)NC(C(=O)N1Cc2cc([101O:1][101CH2:1]c3cnc(C)c(CCC[100NH:0][100C:0](=O)N4CCCC(n5nc(-c6ccc(Oc7ccc(F)cc7F)cc6)c(C(N)=O)c5N)C4)n3)ccc2CC1C(=O)NC1CCCc2ccccc21)C(C)(C)C

> <Shape>
0.224

> <Color>
0.056

> <Negative vol penalty>
0.000

$$$$

  -OEChem-04052317143D

 87 95  0     1  0  0  0  0  0999 V2000
  -17.2700  -26.6653   25.7662 C   0  0  0  0  0  0  0  0  0  0  0  0
  -17.9757  -25.5301   25.3806 C   0  0  0  0  0  0  0  0  0  0  0  0
  -22.7335  -12.4060   21.3682 C   0  0  0  0  0  0  0  0  0  0  0  0
  -23.1542  -14.5236   22.4525 C   0  0  0  0  0  0  0  0  0  0  0  0
  -17.4001  -27.8467   25.0373 C   0  0  0  0  0  0  0  0  0  0  0  0
  -18.8110  -25.5753   24.2650 C   0  0  0  0  0  0  0  0  0  0  0  0
  -24.1030  -22.5881   23.5051 C   0  0  0  0  0  0  0  0  0  0  0  0
  -21.8194  -12.0753   22.3686 C   0  0  0  0  0  0  0  0  0  0  0  0
  -22.2401  -14.1930   23.4529 C   0  0  0  0  0  0  0  0  0  0  0  0
  -24.4257  -21.4060   22.8401 C   0  0  0  0  0  0  0  0  0  0  0  0
  -18.6171  -12.8170   23.1608 C   0  0  0  0  0  0  0  0  0  0  0  0
  -17.3975  -12.2658   22.7681 C   0  0  0  0  0  0  0  0  0  0  0  0
  -25.0772  -22.6824   20.8996 C   0  0  0  0  0  0  0  0  0  0  0  0
  -17.8846  -10.2758   24.0486 C   0  0  0  0  0  0  0  0  0  0  0  0
  -30.6304  -20.4748   21.9085 C   0  0  0  0  0  0  0  0  0  0  0  0
  -23.4009  -13.6301   21.4102 C   0  0  0  0  0  0  0  0  0  0  0  0
  -24.0786  -14.6439   19.1695 C   0  0  0  0  0  0  0  0  0  0  0  0
  -18.2449  -27.9091   23.9179 C   0  0  0  0  0  0  0  0  0  0  0  0
  -24.2549  -23.8277   22.8674 C   0  0  0  0  0  0  0  0  0  0  0  0
  -18.9515  -26.7582   23.5196 C   0  0  0  0  0  0  0  0  0  0  0  0
  -24.7581  -23.8790   21.5596 C   0  0  0  0  0  0  0  0  0  0  0  0
  -21.5727  -12.9688   23.4109 C   0  0  0  0  0  0  0  0  0  0  0  0
  -24.9102  -21.4528   21.5362 C   0  0  0  0  0  0  0  0  0  0  0  0
  -19.4705  -12.0976   23.9974 C   0  0  0  0  0  0  0  0  0  0  0  0
  -17.0312  -10.9952   23.2120 C   0  0  0  0  0  0  0  0  0  0  0  0
  -19.1042  -10.8270   24.4413 C   0  0  0  0  0  0  0  0  0  0  0  0
  -24.3457  -13.9721   20.3774 C   0  0  0  0  0  0  0  0  0  0  0  0
  -29.7629  -21.0139   22.8160 C   0  0  0  0  0  0  0  0  0  0  0  0
  -25.2986  -14.7230   18.5435 C   0  0  0  0  0  0  0  0  0  0  0  0
  -28.6717  -19.4739   21.6591 C   0  0  0  0  0  0  0  0  0  0  0  0
  -22.8385  -15.1511   18.6589 C   0  0  0  0  0  0  0  0  0  0  0  0
  -22.2835  -26.1771   22.0321 C   0  0  0  0  0  0  0  0  0  0  0  0
  -25.0422  -27.6780   21.2201 C   0  0  0  0  0  0  0  0  0  0  0  0
  -28.3214  -27.4203   20.3104 C   0  0  0  0  0  0  0  0  0  0  0  0
  -30.9322  -14.6764   20.5711 C   0  0  0  0  0  0  0  0  0  0  0  0
  -18.3167  -29.1952   23.1334 C   0  0  0  0  0  0  0  0  0  0  0  0
  -23.9276  -25.0954   23.6078 C   0  0  0  0  0  0  0  0  0  0  0  0
  -24.9587  -25.1856   20.8377 C   0  0  0  0  0  0  0  0  0  0  0  0
  -19.5111  -29.2645   22.1853 C   0  0  0  0  0  0  0  0  0  0  0  0
  -29.4893  -12.4393   18.2067 C   0  0  0  0  0  0  0  0  0  0  0  0
  -19.6420  -27.9659   21.3958 C   0  0  0  0  0  0  0  0  0  0  0  0
  -27.9834  -12.6391   18.3859 C   0  0  0  0  0  0  0  0  0  0  0  0
  -30.2337  -12.5367   19.5365 C   0  0  0  0  0  0  0  0  0  0  0  0
  -28.4651  -13.9679   20.4838 C   0  0  0  0  0  0  0  0  0  0  0  0
  -19.8866  -26.7746   22.3299 C   0  0  1  0  0  0  0  0  0  0  0  0
  -23.6359  -26.2709   22.6801 C   0  0  1  0  0  0  0  0  0  0  0  0
  -27.6780  -13.9340   19.1626 C   0  0  2  0  0  0  0  0  0  0  0  0
  -27.8961  -25.9400   26.3932 C   0  0  0  0  0  0  0  0  0  0  0  0
  -30.3057  -28.8197   19.6768 C   0  0  0  0  0  0  0  0  0  0  0  0
  -23.8307  -28.1413   18.4583 C   0  0  0  0  0  0  0  0  0  0  0  0
  -26.1297  -28.6603   17.6136 C   0  0  0  0  0  0  0  0  0  0  0  0
  -25.1002  -30.0887   19.3807 C   0  0  0  0  0  0  0  0  0  0  0  0
  -29.9014  -26.4268   22.6072 C   0  0  0  0  0  0  0  0  0  0  0  0
  -29.9448  -22.0593   23.8263 C   0  0  0  0  0  0  0  0  0  0  0  0
  -27.5677  -18.5717   21.1684 C   0  0  0  0  0  0  0  0  0  0  0  0
  -27.6472  -24.8029   25.4151 C   0  0  0  0  0  0  0  0  0  0  0  0
  -28.6733  -22.8804   24.1377 C   0  0  0  0  0  0  0  0  0  0  0  0
  -26.9576  -19.0133   19.8364 C   0  0  0  0  0  0  0  0  0  0  0  0
  -28.9220  -24.0000   25.1534 C   0  0  0  0  0  0  0  0  0  0  0  0
  -31.7176  -17.9054   20.5457 C   0  0  0  0  0  0  0  0  0  0  0  0
  -30.4719  -18.7052   20.1412 C   0  0  0  0  0  0  0  0  0  0  0  0
  -31.4738  -16.8556   21.6278 C   0  0  0  0  0  0  0  0  0  0  0  0
  -26.2649  -20.3691   19.9095 C   0  0  0  0  0  0  0  0  0  1  0  0
  -25.8873  -27.7600   19.9719 C   0  0  1  0  0  0  0  0  0  0  0  0
  -29.5649  -28.1313   20.8127 C   0  0  2  0  0  0  0  0  0  0  0  0
  -25.2315  -28.6377   18.8687 C   0  0  0  0  0  0  0  0  0  0  0  0
  -25.6342  -13.6473   20.5128 N   0  0  0  0  0  0  0  0  0  0  0  0
  -29.9288  -19.5244   21.2066 N   0  0  0  0  0  0  0  0  0  0  0  0
  -26.1876  -14.1170   19.3818 N   0  0  0  0  0  0  0  0  0  0  0  0
  -28.5587  -20.3762   22.6391 N   0  3  0  0  0  0  0  0  0  0  0  0
  -24.6183  -26.3972   21.6017 N   0  0  0  0  0  0  0  0  0  0  0  0
  -29.9017  -13.7880   20.2219 N   0  0  0  0  0  0  0  0  0  0  0  0
  -25.6869  -15.2509   17.3633 N   0  0  0  0  0  0  0  0  0  0  0  0
  -21.6804  -14.9852   19.4306 N   0  0  0  0  0  0  0  0  0  0  0  0
  -21.2654  -26.7515   22.7690 N   0  0  0  0  0  0  0  0  0  0  0  0
  -27.2033  -28.2223   20.3995 N   0  0  0  0  0  0  0  0  0  0  0  0
  -30.5303  -15.8418   21.2121 N   0  0  0  0  0  0  0  0  0  0  0  0
  -30.4924  -27.1594   21.4578 N   0  3  0  0  0  0  0  0  0  0  0  0
  -22.7569  -15.7197   17.5437 O   0  0  0  0  0  0  0  0  0  0  0  0
  -22.1722  -25.6259   20.9433 O   0  0  0  0  0  0  0  0  0  0  0  0
  -24.7742  -28.7115   21.8379 O   0  0  0  0  0  0  0  0  0  0  0  0
  -28.3406  -26.2698   19.8783 O   0  0  0  0  0  0  0  0  0  0  0  0
  -32.1218  -14.4503   20.3246 O   0  0  0  0  0  0  0  0  0  0  0  0
  -20.6806  -12.6466   24.3871 O   0  0  0  0  0  0  0  0  0  0  0  0
  -25.2253  -20.3004   20.8846 O   0  0  0  0  0  0  0  0  0  1  0  0
  -15.8593  -10.4666   22.8360 F   0  0  0  0  0  0  0  0  0  0  0  0
  -19.9194  -10.1316   25.2461 F   0  0  0  0  0  0  0  0  0  0  0  0
  1  2  1  0  0  0  0
  1  5  2  0  0  0  0
  2  6  2  0  0  0  0
  3  8  2  0  0  0  0
  3 16  1  0  0  0  0
  4  9  1  0  0  0  0
  4 16  2  0  0  0  0
  5 18  1  0  0  0  0
  6 20  1  0  0  0  0
  7 10  2  0  0  0  0
  7 19  1  0  0  0  0
  8 22  1  0  0  0  0
  9 22  2  0  0  0  0
 10 23  1  0  0  0  0
 11 12  2  0  0  0  0
 11 24  1  0  0  0  0
 12 25  1  0  0  0  0
 13 21  1  0  0  0  0
 13 23  2  0  0  0  0
 14 25  2  0  0  0  0
 14 26  1  0  0  0  0
 15 28  2  0  0  0  0
 15 68  1  0  0  0  0
 16 27  1  0  0  0  0
 17 27  1  0  0  0  0
 17 29  2  0  0  0  0
 17 31  1  0  0  0  0
 18 20  2  0  0  0  0
 18 36  1  0  0  0  0
 19 21  2  0  0  0  0
 19 37  1  0  0  0  0
 20 45  1  0  0  0  0
 21 38  1  0  0  0  0
 22 84  1  0  0  0  0
 23 85  1  0  0  0  0
 24 26  2  0  0  0  0
 24 84  1  0  0  0  0
 25 86  1  0  0  0  0
 26 87  1  0  0  0  0
 27 67  2  0  0  0  0
 28 54  1  0  0  0  0
 28 70  1  0  0  0  0
 29 69  1  0  0  0  0
 29 73  1  0  0  0  0
 30 55  1  0  0  0  0
 30 68  1  0  0  0  0
 30 70  2  0  0  0  0
 31 74  1  0  0  0  0
 31 79  2  0  0  0  0
 32 46  1  0  0  0  0
 32 75  1  0  0  0  0
 32 80  2  0  0  0  0
 33 64  1  0  0  0  0
 33 71  1  0  0  0  0
 33 81  2  0  0  0  0
 34 65  1  0  0  0  0
 34 76  1  0  0  0  0
 34 82  2  0  0  0  0
 35 72  1  0  0  0  0
 35 77  1  0  0  0  0
 35 83  2  0  0  0  0
 36 39  1  0  0  0  0
 37 46  1  0  0  0  0
 38 71  1  0  0  0  0
 39 41  1  0  0  0  0
 40 42  1  0  0  0  0
 40 43  1  0  0  0  0
 41 45  1  0  0  0  0
 42 47  1  0  0  0  0
 43 72  1  0  0  0  0
 44 47  1  0  0  0  0
 44 72  1  0  0  0  0
 45 75  1  0  0  0  0
 46 71  1  0  0  0  0
 47 69  1  0  0  0  0
 48 56  1  0  0  0  0
 49 65  1  0  0  0  0
 50 66  1  0  0  0  0
 51 66  1  0  0  0  0
 52 66  1  0  0  0  0
 53 78  1  0  0  0  0
 54 57  1  0  0  0  0
 55 58  1  0  0  0  0
 56 59  1  0  0  0  0
 57 59  1  0  0  0  0
 58 63  1  0  0  0  0
 60 61  1  0  0  0  0
 60 62  1  0  0  0  0
 61 68  1  0  0  0  0
 62 77  1  0  0  0  0
 63 85  1  0  0  0  0
 64 66  1  0  0  0  0
 64 76  1  0  0  0  0
 65 78  1  0  0  0  0
 67 69  1  0  0  0  0
M  CHG  2  70   1  78   1
M  ISO  4  35 100  63 101  77 100  85 101
M  END
> <Batch ID>
0043

> <Smiles>
CCCCCc1cn(CCC[100NH:0][100C:0](=O)N2CCCC(n3nc(-c4ccc(Oc5ccc(F)cc5F)cc4)c(C(N)=O)c3N)C2)c(CC[101CH2:1][101O:1]c2ccc3c(c2)CN(C(=O)C(NC(=O)C(C)NC)C(C)(C)C)C(C(=O)NC2CCCc4ccccc42)C3)n1

> <Shape>
0.218

> <Color>
0.060

> <Negative vol penalty>
0.000

$$$$

  -OEChem-04052317143D

 84 92  0     1  0  0  0  0  0999 V2000
  -34.2765   -9.6011   21.9362 C   0  0  0  0  0  0  0  0  0  0  0  0
  -34.0153  -10.9650   22.0190 C   0  0  0  0  0  0  0  0  0  0  0  0
  -24.3795  -32.5747   21.4404 C   0  0  0  0  0  0  0  0  0  0  0  0
  -26.4901  -31.5316   21.9831 C   0  0  0  0  0  0  0  0  0  0  0  0
  -33.4903   -8.7903   21.1185 C   0  0  0  0  0  0  0  0  0  0  0  0
  -32.9684  -11.5192   21.2833 C   0  0  0  0  0  0  0  0  0  0  0  0
  -29.3444  -16.1624   22.9605 C   0  0  0  0  0  0  0  0  0  0  0  0
  -24.8951  -33.8145   21.8184 C   0  0  0  0  0  0  0  0  0  0  0  0
  -27.0057  -32.7713   22.3610 C   0  0  0  0  0  0  0  0  0  0  0  0
  -29.3626  -17.5232   22.6576 C   0  0  0  0  0  0  0  0  0  0  0  0
  -25.4960  -35.4906   24.6913 C   0  0  0  0  0  0  0  0  0  0  0  0
  -24.6959  -36.3084   25.4891 C   0  0  0  0  0  0  0  0  0  0  0  0
  -27.7584  -17.1464   20.8958 C   0  0  0  0  0  0  0  0  0  0  0  0
  -24.7392  -38.0167   23.7813 C   0  0  0  0  0  0  0  0  0  0  0  0
  -28.6631  -21.7555   19.0039 C   0  0  0  0  0  0  0  0  0  0  0  0
  -25.1770  -31.4333   21.5228 C   0  0  0  0  0  0  0  0  0  0  0  0
  -24.6859  -29.5686   19.8526 C   0  0  0  0  0  0  0  0  0  0  0  0
  -32.4272   -9.3333   20.3798 C   0  0  0  0  0  0  0  0  0  0  0  0
  -28.5399  -15.2803   22.2250 C   0  0  0  0  0  0  0  0  0  0  0  0
  -32.1682  -10.7153   20.4540 C   0  0  0  0  0  0  0  0  0  0  0  0
  -27.7298  -15.7753   21.1931 C   0  0  0  0  0  0  0  0  0  0  0  0
  -27.9319  -21.2553   20.0619 C   0  0  0  0  0  0  0  0  0  0  0  0
  -26.2081  -33.9128   22.2787 C   0  0  0  0  0  0  0  0  0  0  0  0
  -28.5717  -18.0149   21.6233 C   0  0  0  0  0  0  0  0  0  0  0  0
  -25.9179  -35.9358   23.4385 C   0  0  0  0  0  0  0  0  0  0  0  0
  -24.3174  -37.5715   25.0341 C   0  0  0  0  0  0  0  0  0  0  0  0
  -25.5394  -37.1989   22.9835 C   0  0  0  0  0  0  0  0  0  0  0  0
  -24.6449  -30.1522   21.1330 C   0  0  0  0  0  0  0  0  0  0  0  0
  -27.3905  -22.1979   20.9120 C   0  0  0  0  0  0  0  0  0  0  0  0
  -24.0504  -28.3606   20.0053 C   0  0  0  0  0  0  0  0  0  0  0  0
  -28.2783  -23.8908   19.6820 C   0  0  0  0  0  0  0  0  0  0  0  0
  -25.2481  -30.0734   18.6340 C   0  0  0  0  0  0  0  0  0  0  0  0
  -29.0913  -12.7594   20.3689 C   0  0  0  0  0  0  0  0  0  0  0  0
  -25.8544  -12.5478   20.3596 C   0  0  0  0  0  0  0  0  0  0  0  0
  -22.8473  -14.1175   20.7341 C   0  0  0  0  0  0  0  0  0  0  0  0
  -23.1841  -24.7771   24.7233 C   0  0  0  0  0  0  0  0  0  0  0  0
  -31.6348   -8.4252   19.4731 C   0  0  0  0  0  0  0  0  0  0  0  0
  -28.5114  -13.8193   22.5816 C   0  0  0  0  0  0  0  0  0  0  0  0
  -26.8332  -14.8730   20.3865 C   0  0  0  0  0  0  0  0  0  0  0  0
  -30.3089   -9.0274   19.0156 C   0  0  0  0  0  0  0  0  0  0  0  0
  -20.6816  -26.2077   22.6334 C   0  0  0  0  0  0  0  0  0  0  0  0
  -30.5087  -10.4658   18.5488 C   0  0  0  0  0  0  0  0  0  0  0  0
  -21.4173  -27.3282   21.8964 C   0  0  0  0  0  0  0  0  0  0  0  0
  -21.1696  -26.0639   24.0733 C   0  0  0  0  0  0  0  0  0  0  0  0
  -23.3635  -27.0185   23.4822 C   0  0  0  0  0  0  0  0  0  0  0  0
  -31.0259  -11.3495   19.6904 C   0  0  1  0  0  0  0  0  0  0  0  0
  -28.0435  -12.9326   21.4317 C   0  0  1  0  0  0  0  0  0  0  0  0
  -22.9450  -27.1649   22.0092 C   0  0  2  0  0  0  0  0  0  0  0  0
  -27.2314  -26.0230   18.8794 C   0  0  0  0  0  0  0  0  0  0  0  0
  -20.3764  -13.6918   20.6296 C   0  0  0  0  0  0  0  0  0  0  0  0
  -25.9894  -12.5273   17.3115 C   0  0  0  0  0  0  0  0  0  0  0  0
  -23.5429  -13.0577   17.2690 C   0  0  0  0  0  0  0  0  0  0  0  0
  -24.3377  -10.9266   18.2933 C   0  0  0  0  0  0  0  0  0  0  0  0
  -22.4802  -14.8697   23.5729 C   0  0  0  0  0  0  0  0  0  0  0  0
  -27.7530  -19.7779   20.2530 C   0  0  0  0  0  0  0  0  0  1  0  0
  -26.5795  -21.7729   22.0915 C   0  0  0  0  0  0  0  0  0  0  0  0
  -28.4699  -25.3546   19.4707 C   0  0  0  0  0  0  0  0  0  0  0  0
  -26.3361  -22.9279   23.0744 C   0  0  0  0  0  0  0  0  0  0  0  0
  -25.5351  -22.4705   24.2971 C   0  0  0  0  0  0  0  0  0  0  0  0
  -25.2921  -23.5985   25.2945 C   0  0  0  0  0  0  0  0  0  0  0  0
  -24.7487  -13.1103   19.4994 C   0  0  1  0  0  0  0  0  0  0  0  0
  -21.6061  -13.7414   21.5230 C   0  0  2  0  0  0  0  0  0  0  0  0
  -24.6729  -12.4224   18.1070 C   0  0  0  0  0  0  0  0  0  0  0  0
  -28.8572  -23.0723   18.7829 N   0  0  0  0  0  0  0  0  0  0  0  0
  -24.0317  -29.3787   22.0328 N   0  0  0  0  0  0  0  0  0  0  0  0
  -27.5444  -23.5286   20.7515 N   0  0  0  0  0  0  0  0  0  0  0  0
  -23.6815  -28.2967   21.3168 N   0  0  0  0  0  0  0  0  0  0  0  0
  -26.8450  -13.4515   20.7694 N   0  0  0  0  0  0  0  0  0  0  0  0
  -22.6261  -25.9111   24.1103 N   0  0  0  0  0  0  0  0  0  0  0  0
  -23.7768  -27.3574   19.1444 N   0  0  0  0  0  0  0  0  0  0  0  0
  -25.8643  -31.3320   18.6536 N   0  0  0  0  0  0  0  0  0  0  0  0
  -29.9464  -11.6966   20.5896 N   0  0  0  0  0  0  0  0  0  0  0  0
  -23.5248  -13.0033   20.2861 N   0  0  0  0  0  0  0  0  0  0  0  0
  -24.5718  -24.7072   24.7091 N   0  0  0  0  0  0  0  0  0  0  0  0
  -21.3601  -14.7349   22.6063 N   0  3  0  0  0  0  0  0  0  0  0  0
  -25.1908  -29.4345   17.5560 O   0  0  0  0  0  0  0  0  0  0  0  0
  -29.1208  -13.5319   19.4180 O   0  0  0  0  0  0  0  0  0  0  0  0
  -25.8359  -11.3523   20.6630 O   0  0  0  0  0  0  0  0  0  0  0  0
  -23.1804  -15.2832   20.5321 O   0  0  0  0  0  0  0  0  0  0  0  0
  -22.4964  -23.8899   25.2400 O   0  0  0  0  0  0  0  0  0  0  0  0
  -26.7116  -35.1224   22.6474 O   0  0  0  0  0  0  0  0  0  0  0  0
  -28.5881  -19.3426   21.3251 O   0  0  0  0  0  0  0  0  0  1  0  0
  -23.5477  -38.3561   25.7996 F   0  0  0  0  0  0  0  0  0  0  0  0
  -25.9406  -37.6317   21.7803 F   0  0  0  0  0  0  0  0  0  0  0  0
  1  2  1  0  0  0  0
  1  5  2  0  0  0  0
  2  6  2  0  0  0  0
  3  8  2  0  0  0  0
  3 16  1  0  0  0  0
  4  9  1  0  0  0  0
  4 16  2  0  0  0  0
  5 18  1  0  0  0  0
  6 20  1  0  0  0  0
  7 10  2  0  0  0  0
  7 19  1  0  0  0  0
  8 23  1  0  0  0  0
  9 23  2  0  0  0  0
 10 24  1  0  0  0  0
 11 12  2  0  0  0  0
 11 25  1  0  0  0  0
 12 26  1  0  0  0  0
 13 21  1  0  0  0  0
 13 24  2  0  0  0  0
 14 26  2  0  0  0  0
 14 27  1  0  0  0  0
 15 22  1  0  0  0  0
 15 64  2  0  0  0  0
 16 28  1  0  0  0  0
 17 28  1  0  0  0  0
 17 30  2  0  0  0  0
 17 32  1  0  0  0  0
 18 20  2  0  0  0  0
 18 37  1  0  0  0  0
 19 21  2  0  0  0  0
 19 38  1  0  0  0  0
 20 46  1  0  0  0  0
 21 39  1  0  0  0  0
 22 29  2  0  0  0  0
 22 55  1  0  0  0  0
 23 81  1  0  0  0  0
 24 82  1  0  0  0  0
 25 27  2  0  0  0  0
 25 81  1  0  0  0  0
 26 83  1  0  0  0  0
 27 84  1  0  0  0  0
 28 65  2  0  0  0  0
 29 56  1  0  0  0  0
 29 66  1  0  0  0  0
 30 67  1  0  0  0  0
 30 70  1  0  0  0  0
 31 57  1  0  0  0  0
 31 64  1  0  0  0  0
 31 66  2  0  0  0  0
 32 71  1  0  0  0  0
 32 76  2  0  0  0  0
 33 47  1  0  0  0  0
 33 72  1  0  0  0  0
 33 77  2  0  0  0  0
 34 61  1  0  0  0  0
 34 68  1  0  0  0  0
 34 78  2  0  0  0  0
 35 62  1  0  0  0  0
 35 73  1  0  0  0  0
 35 79  2  0  0  0  0
 36 69  1  0  0  0  0
 36 74  1  0  0  0  0
 36 80  2  0  0  0  0
 37 40  1  0  0  0  0
 38 47  1  0  0  0  0
 39 68  1  0  0  0  0
 40 42  1  0  0  0  0
 41 43  1  0  0  0  0
 41 44  1  0  0  0  0
 42 46  1  0  0  0  0
 43 48  1  0  0  0  0
 44 69  1  0  0  0  0
 45 48  1  0  0  0  0
 45 69  1  0  0  0  0
 46 72  1  0  0  0  0
 47 68  1  0  0  0  0
 48 67  1  0  0  0  0
 49 57  1  0  0  0  0
 50 62  1  0  0  0  0
 51 63  1  0  0  0  0
 52 63  1  0  0  0  0
 53 63  1  0  0  0  0
 54 75  1  0  0  0  0
 55 82  1  0  0  0  0
 56 58  1  0  0  0  0
 58 59  1  0  0  0  0
 59 60  1  0  0  0  0
 60 74  1  0  0  0  0
 61 63  1  0  0  0  0
 61 73  1  0  0  0  0
 62 75  1  0  0  0  0
 65 67  1  0  0  0  0
M  CHG  1  75   1
M  ISO  4  36 100  55 101  74 100  82 101
M  END
> <Batch ID>
0043

> <Smiles>
CCc1ncc([101CH2:1][101O:1]c2ccc3c(c2)CN(C(=O)C(NC(=O)C(C)NC)C(C)(C)C)C(C(=O)NC2CCCc4ccccc42)C3)c(CCCC[100NH:0][100C:0](=O)N2CCCC(n3nc(-c4ccc(Oc5ccc(F)cc5F)cc4)c(C(N)=O)c3N)C2)n1

> <Shape>
0.247

> <Color>
0.066

> <Negative vol penalty>
0.000

$$$$

  -OEChem-04052317143D

 86 94  0     1  0  0  0  0  0999 V2000
  -26.7529  -31.9919   24.6947 C   0  0  0  0  0  0  0  0  0  0  0  0
  -26.2912  -30.6942   24.8907 C   0  0  0  0  0  0  0  0  0  0  0  0
  -23.0226   -9.8298   19.9953 C   0  0  0  0  0  0  0  0  0  0  0  0
  -23.7095   -9.9531   22.3083 C   0  0  0  0  0  0  0  0  0  0  0  0
  -26.4732  -32.6573   23.5018 C   0  0  0  0  0  0  0  0  0  0  0  0
  -25.5487  -30.0616   23.8942 C   0  0  0  0  0  0  0  0  0  0  0  0
  -27.0346  -25.2860   23.1002 C   0  0  0  0  0  0  0  0  0  0  0  0
  -22.2617   -8.6964   20.2817 C   0  0  0  0  0  0  0  0  0  0  0  0
  -22.9485   -8.8198   22.5947 C   0  0  0  0  0  0  0  0  0  0  0  0
  -26.6088  -24.3259   24.0170 C   0  0  0  0  0  0  0  0  0  0  0  0
  -23.2295   -5.4711   22.2228 C   0  0  0  0  0  0  0  0  0  0  0  0
  -23.8134   -4.4812   23.0132 C   0  0  0  0  0  0  0  0  0  0  0  0
  -24.8690  -23.6478   22.4897 C   0  0  0  0  0  0  0  0  0  0  0  0
  -22.0603   -4.7561   24.6528 C   0  0  0  0  0  0  0  0  0  0  0  0
  -23.7466  -10.4581   21.0085 C   0  0  0  0  0  0  0  0  0  0  0  0
  -24.1129  -12.9711   20.7666 C   0  0  0  0  0  0  0  0  0  0  0  0
  -25.7351  -32.0290   22.4864 C   0  0  0  0  0  0  0  0  0  0  0  0
  -26.3729  -25.4418   21.8737 C   0  0  0  0  0  0  0  0  0  0  0  0
  -25.2578  -30.7198   22.6872 C   0  0  0  0  0  0  0  0  0  0  0  0
  -25.2900  -24.6089   21.5580 C   0  0  0  0  0  0  0  0  0  0  0  0
  -22.2246   -8.1914   21.5814 C   0  0  0  0  0  0  0  0  0  0  0  0
  -25.5240  -23.5086   23.7131 C   0  0  0  0  0  0  0  0  0  0  0  0
  -22.0610   -6.1036   22.6475 C   0  0  0  0  0  0  0  0  0  0  0  0
  -23.2289   -4.1237   24.2282 C   0  0  0  0  0  0  0  0  0  0  0  0
  -21.4764   -5.7461   23.8624 C   0  0  0  0  0  0  0  0  0  0  0  0
  -24.5332  -11.6286   20.7132 C   0  0  0  0  0  0  0  0  0  0  0  0
  -26.8699  -18.2497   23.5177 C   0  0  0  0  0  0  0  0  0  0  0  0
  -26.9915  -19.5290   24.0137 C   0  0  0  0  0  0  0  0  0  0  0  0
  -28.4189  -20.0553   22.3063 C   0  0  0  0  0  0  0  0  0  0  0  0
  -28.2978  -18.7758   21.8107 C   0  0  0  0  0  0  0  0  0  0  0  0
  -25.2221  -13.6931   20.3995 C   0  0  0  0  0  0  0  0  0  0  0  0
  -22.8341  -13.5167   21.1168 C   0  0  0  0  0  0  0  0  0  0  0  0
  -24.7623  -27.7999   20.4777 C   0  0  0  0  0  0  0  0  0  0  0  0
  -24.7321  -25.7620   17.9542 C   0  0  0  0  0  0  0  0  0  0  0  0
  -24.9238  -22.5477   16.8235 C   0  0  0  0  0  0  0  0  0  0  0  0
  -30.7054  -14.6845   20.7096 C   0  0  0  0  0  0  0  0  0  0  0  0
  -25.4176  -32.8057   21.2331 C   0  0  0  0  0  0  0  0  0  0  0  0
  -26.8614  -26.4641   20.8844 C   0  0  0  0  0  0  0  0  0  0  0  0
  -24.5583  -24.7224   20.2464 C   0  0  0  0  0  0  0  0  0  0  0  0
  -24.9440  -31.9288   20.0767 C   0  0  0  0  0  0  0  0  0  0  0  0
  -29.6243  -12.1845   18.4166 C   0  0  0  0  0  0  0  0  0  0  0  0
  -23.8927  -30.9335   20.5573 C   0  0  0  0  0  0  0  0  0  0  0  0
  -28.1715  -11.9236   18.8181 C   0  0  0  0  0  0  0  0  0  0  0  0
  -30.5047  -12.4626   19.6329 C   0  0  0  0  0  0  0  0  0  0  0  0
  -28.5661  -13.2786   20.9174 C   0  0  0  0  0  0  0  0  0  0  0  0
  -24.4703  -29.9910   21.6200 C   0  0  1  0  0  0  0  0  0  0  0  0
  -25.7917  -26.8828   19.8804 C   0  0  1  0  0  0  0  0  0  0  0  0
  -27.6283  -13.0483   19.7200 C   0  0  2  0  0  0  0  0  0  0  0  0
  -26.0079  -17.2348   24.1872 C   0  0  0  0  0  0  0  0  0  0  0  0
  -28.4694  -22.0790   20.8268 C   0  0  0  0  0  0  0  0  0  0  0  0
  -25.0551  -20.6651   15.1694 C   0  0  0  0  0  0  0  0  0  0  0  0
  -21.7005  -26.0991   17.8784 C   0  0  0  0  0  0  0  0  0  0  0  0
  -21.5792  -24.0565   16.4357 C   0  0  0  0  0  0  0  0  0  0  0  0
  -22.8040  -26.0765   15.6342 C   0  0  0  0  0  0  0  0  0  0  0  0
  -27.8768  -22.7050   16.7033 C   0  0  0  0  0  0  0  0  0  0  0  0
  -29.2807  -21.0701   21.6363 C   0  0  0  0  0  0  0  0  0  0  0  0
  -26.2583  -19.9628   25.2579 C   0  0  0  0  0  0  0  0  0  0  0  0
  -29.0235  -18.3465   20.5816 C   0  0  0  0  0  0  0  0  0  0  0  0
  -30.5094  -18.0006   20.8049 C   0  0  0  0  0  0  0  0  0  0  0  0
  -24.7693  -20.2340   25.0324 C   0  0  0  0  0  0  0  0  0  0  0  0
  -30.7498  -16.8971   21.8329 C   0  0  0  0  0  0  0  0  0  0  0  0
  -24.5045  -21.3908   24.0758 C   0  0  0  0  0  0  0  0  0  1  0  0
  -23.8102  -24.6664   17.4757 C   0  0  1  0  0  0  0  0  0  0  0  0
  -25.7283  -21.9219   15.6985 C   0  0  2  0  0  0  0  0  0  0  0  0
  -22.4859  -25.2235   16.8816 C   0  0  0  0  0  0  0  0  0  0  0  0
  -25.8099  -11.5024   20.3413 N   0  0  0  0  0  0  0  0  0  0  0  0
  -27.5209  -17.8501   22.4073 N   0  0  0  0  0  0  0  0  0  0  0  0
  -27.7681  -20.4548   23.4169 N   0  0  0  0  0  0  0  0  0  0  0  0
  -26.2012  -12.7749   20.1576 N   0  0  0  0  0  0  0  0  0  0  0  0
  -25.0697  -25.7412   19.3148 N   0  0  0  0  0  0  0  0  0  0  0  0
  -29.9349  -13.5402   20.4454 N   0  0  0  0  0  0  0  0  0  0  0  0
  -25.4457  -15.0174   20.2632 N   0  0  0  0  0  0  0  0  0  0  0  0
  -21.8045  -12.6333   21.4689 N   0  0  0  0  0  0  0  0  0  0  0  0
  -25.2845  -28.9680   20.9994 N   0  0  0  0  0  0  0  0  0  0  0  0
  -24.5882  -23.8557   16.5451 N   0  0  0  0  0  0  0  0  0  0  0  0
  -30.0876  -15.6606   21.4819 N   0  0  0  0  0  0  0  0  0  0  0  0
  -27.0922  -21.5586   16.1769 N   0  3  0  0  0  0  0  0  0  0  0  0
  -22.6063  -14.7502   21.1016 O   0  0  0  0  0  0  0  0  0  0  0  0
  -23.5814  -27.4728   20.4647 O   0  0  0  0  0  0  0  0  0  0  0  0
  -25.1433  -26.6009   17.1488 O   0  0  0  0  0  0  0  0  0  0  0  0
  -24.6202  -21.9360   17.8454 O   0  0  0  0  0  0  0  0  0  0  0  0
  -31.8566  -14.8283   20.2840 O   0  0  0  0  0  0  0  0  0  0  0  0
  -21.4820   -7.0856   21.8613 O   0  0  0  0  0  0  0  0  0  0  0  0
  -25.1059  -22.5710   24.6065 O   0  0  0  0  0  0  0  0  0  1  0  0
  -23.7889   -3.1720   24.9863 F   0  0  0  0  0  0  0  0  0  0  0  0
  -20.3532   -6.3493   24.2751 F   0  0  0  0  0  0  0  0  0  0  0  0
  1  2  1  0  0  0  0
  1  5  2  0  0  0  0
  2  6  2  0  0  0  0
  3  8  2  0  0  0  0
  3 15  1  0  0  0  0
  4  9  1  0  0  0  0
  4 15  2  0  0  0  0
  5 17  1  0  0  0  0
  6 19  1  0  0  0  0
  7 10  2  0  0  0  0
  7 18  1  0  0  0  0
  8 21  1  0  0  0  0
  9 21  2  0  0  0  0
 10 22  1  0  0  0  0
 11 12  2  0  0  0  0
 11 23  1  0  0  0  0
 12 24  1  0  0  0  0
 13 20  1  0  0  0  0
 13 22  2  0  0  0  0
 14 24  2  0  0  0  0
 14 25  1  0  0  0  0
 15 26  1  0  0  0  0
 16 26  1  0  0  0  0
 16 31  2  0  0  0  0
 16 32  1  0  0  0  0
 17 19  2  0  0  0  0
 17 37  1  0  0  0  0
 18 20  2  0  0  0  0
 18 38  1  0  0  0  0
 19 46  1  0  0  0  0
 20 39  1  0  0  0  0
 21 83  1  0  0  0  0
 22 84  1  0  0  0  0
 23 25  2  0  0  0  0
 23 83  1  0  0  0  0
 24 85  1  0  0  0  0
 25 86  1  0  0  0  0
 26 66  2  0  0  0  0
 27 28  1  0  0  0  0
 27 49  1  0  0  0  0
 27 67  2  0  0  0  0
 28 57  1  0  0  0  0
 28 68  2  0  0  0  0
 29 30  2  0  0  0  0
 29 56  1  0  0  0  0
 29 68  1  0  0  0  0
 30 58  1  0  0  0  0
 30 67  1  0  0  0  0
 31 69  1  0  0  0  0
 31 72  1  0  0  0  0
 32 73  1  0  0  0  0
 32 78  2  0  0  0  0
 33 47  1  0  0  0  0
 33 74  1  0  0  0  0
 33 79  2  0  0  0  0
 34 63  1  0  0  0  0
 34 70  1  0  0  0  0
 34 80  2  0  0  0  0
 35 64  1  0  0  0  0
 35 75  1  0  0  0  0
 35 81  2  0  0  0  0
 36 71  1  0  0  0  0
 36 76  1  0  0  0  0
 36 82  2  0  0  0  0
 37 40  1  0  0  0  0
 38 47  1  0  0  0  0
 39 70  1  0  0  0  0
 40 42  1  0  0  0  0
 41 43  1  0  0  0  0
 41 44  1  0  0  0  0
 42 46  1  0  0  0  0
 43 48  1  0  0  0  0
 44 71  1  0  0  0  0
 45 48  1  0  0  0  0
 45 71  1  0  0  0  0
 46 74  1  0  0  0  0
 47 70  1  0  0  0  0
 48 69  1  0  0  0  0
 50 56  1  0  0  0  0
 51 64  1  0  0  0  0
 52 65  1  0  0  0  0
 53 65  1  0  0  0  0
 54 65  1  0  0  0  0
 55 77  1  0  0  0  0
 57 60  1  0  0  0  0
 58 59  1  0  0  0  0
 59 61  1  0  0  0  0
 60 62  1  0  0  0  0
 61 76  1  0  0  0  0
 62 84  1  0  0  0  0
 63 65  1  0  0  0  0
 63 75  1  0  0  0  0
 64 77  1  0  0  0  0
 66 69  1  0  0  0  0
M  CHG  1  77   1
M  ISO  4  36 100  62 101  76 100  84 101
M  END
> <Batch ID>
0043

> <Smiles>
CCc1nc(CC[101CH2:1][101O:1]c2ccc3c(c2)CN(C(=O)C(NC(=O)C(C)NC)C(C)(C)C)C(C(=O)NC2CCCc4ccccc42)C3)c(C)nc1CCC[100NH:0][100C:0](=O)N1CCCC(n2nc(-c3ccc(Oc4ccc(F)cc4F)cc3)c(C(N)=O)c2N)C1

> <Shape>
0.292

> <Color>
0.196

> <Negative vol penalty>
0.000

$$$$

  -OEChem-04052317143D

 85 93  0     1  0  0  0  0  0999 V2000
  -24.8551  -28.7035   20.5223 C   0  0  0  0  0  0  0  0  0  0  0  0
  -24.6982  -27.4969   19.8479 C   0  0  0  0  0  0  0  0  0  0  0  0
  -21.4919  -22.7821   22.8759 C   0  0  0  0  0  0  0  0  0  0  0  0
  -19.4617  -21.5744   22.3691 C   0  0  0  0  0  0  0  0  0  0  0  0
  -26.1330  -29.1645   20.8360 C   0  0  0  0  0  0  0  0  0  0  0  0
  -25.8194  -26.7511   19.4856 C   0  0  0  0  0  0  0  0  0  0  0  0
  -25.2802  -21.8181   20.4956 C   0  0  0  0  0  0  0  0  0  0  0  0
  -20.9572  -23.9280   22.2872 C   0  0  0  0  0  0  0  0  0  0  0  0
  -18.9270  -22.7204   21.7804 C   0  0  0  0  0  0  0  0  0  0  0  0
  -24.5049  -21.0683   19.6121 C   0  0  0  0  0  0  0  0  0  0  0  0
  -18.7664  -26.3654   23.1194 C   0  0  0  0  0  0  0  0  0  0  0  0
  -18.9151  -27.5736   23.8002 C   0  0  0  0  0  0  0  0  0  0  0  0
  -26.5124  -20.2535   18.5514 C   0  0  0  0  0  0  0  0  0  0  0  0
  -24.3074  -12.1844   14.0092 C   0  0  0  0  0  0  0  0  0  0  0  0
  -20.1346  -28.4816   21.9225 C   0  0  0  0  0  0  0  0  0  0  0  0
  -20.7441  -21.6053   22.9169 C   0  0  0  0  0  0  0  0  0  0  0  0
  -21.1920  -20.0299   24.8727 C   0  0  0  0  0  0  0  0  0  0  0  0
  -27.2700  -28.4192   20.4859 C   0  0  0  0  0  0  0  0  0  0  0  0
  -26.6795  -21.7997   20.4064 C   0  0  0  0  0  0  0  0  0  0  0  0
  -27.1137  -27.2032   19.7937 C   0  0  0  0  0  0  0  0  0  0  0  0
  -27.3033  -21.0020   19.4366 C   0  0  0  0  0  0  0  0  0  0  0  0
  -24.6726  -11.7223   15.2977 C   0  0  0  0  0  0  0  0  0  0  0  0
  -19.6748  -23.8972   21.7395 C   0  0  0  0  0  0  0  0  0  0  0  0
  -25.1209  -20.2881   18.6380 C   0  0  0  0  0  0  0  0  0  0  0  0
  -19.3018  -26.2152   21.8401 C   0  0  0  0  0  0  0  0  0  0  0  0
  -19.5992  -28.6317   23.2018 C   0  0  0  0  0  0  0  0  0  0  0  0
  -19.9859  -27.2732   21.2417 C   0  0  0  0  0  0  0  0  0  0  0  0
  -21.2961  -20.4211   23.5244 C   0  0  0  0  0  0  0  0  0  0  0  0
  -23.7540  -13.4364   14.1628 C   0  0  0  0  0  0  0  0  0  0  0  0
  -24.3310  -12.7059   16.1995 C   0  0  0  0  0  0  0  0  0  0  0  0
  -21.8802  -18.8432   24.9400 C   0  0  0  0  0  0  0  0  0  0  0  0
  -20.5322  -20.6810   25.9665 C   0  0  0  0  0  0  0  0  0  0  0  0
  -28.9191  -23.9794   19.8262 C   0  0  0  0  0  0  0  0  0  0  0  0
  -30.9307  -21.5330   20.5267 C   0  0  0  0  0  0  0  0  0  0  0  0
  -31.4404  -18.1636   20.7115 C   0  0  0  0  0  0  0  0  0  0  0  0
  -23.0357  -14.7298   20.8656 C   0  0  0  0  0  0  0  0  0  0  0  0
  -28.6328  -28.9813   20.8045 C   0  0  0  0  0  0  0  0  0  0  0  0
  -27.5023  -22.5932   21.3841 C   0  0  0  0  0  0  0  0  0  0  0  0
  -28.8026  -20.9317   19.3121 C   0  0  0  0  0  0  0  0  0  0  0  0
  -29.7534  -27.9485   20.7165 C   0  0  0  0  0  0  0  0  0  0  0  0
  -25.4904  -16.4848   22.8636 C   0  0  0  0  0  0  0  0  0  0  0  0
  -29.6261  -27.1305   19.4352 C   0  0  0  0  0  0  0  0  0  0  0  0
  -24.6689  -17.6636   23.3884 C   0  0  0  0  0  0  0  0  0  0  0  0
  -25.1069  -16.1394   21.4277 C   0  0  0  0  0  0  0  0  0  0  0  0
  -22.8341  -17.0356   21.7516 C   0  0  0  0  0  0  0  0  0  0  0  0
  -28.3044  -26.3535   19.4058 C   0  0  1  0  0  0  0  0  0  0  0  0
  -28.9061  -22.9009   20.8723 C   0  0  1  0  0  0  0  0  0  0  0  0
  -23.1590  -17.4195   23.2066 C   0  0  2  0  0  0  0  0  0  0  0  0
  -25.3035  -10.4241   15.6082 C   0  0  0  0  0  0  0  0  0  0  0  0
  -23.2106  -14.3620   13.1476 C   0  0  0  0  0  0  0  0  0  0  0  0
  -33.1982  -16.4655   21.2809 C   0  0  0  0  0  0  0  0  0  0  0  0
  -32.3049  -22.0631   17.8546 C   0  0  0  0  0  0  0  0  0  0  0  0
  -33.3815  -19.8104   18.0406 C   0  0  0  0  0  0  0  0  0  0  0  0
  -33.8616  -21.5650   19.7475 C   0  0  0  0  0  0  0  0  0  0  0  0
  -29.8108  -17.0442   22.9138 C   0  0  0  0  0  0  0  0  0  0  0  0
  -24.4879  -12.7471   17.6691 C   0  0  0  0  0  0  0  0  0  0  0  0
  -23.2023  -12.4332   18.4701 C   0  0  0  0  0  0  0  0  0  0  0  0
  -24.3620  -16.0308   16.4533 C   0  0  0  0  0  0  0  0  0  0  0  0
  -23.8158  -17.3607   16.9752 C   0  0  0  0  0  0  0  0  0  0  0  0
  -23.2592  -15.0253   16.1030 C   0  0  0  0  0  0  0  0  0  0  0  0
  -23.3944  -12.4378   19.9851 C   0  0  0  0  0  0  0  0  0  0  0  0
  -24.9371  -18.3452   17.2788 C   0  0  0  0  0  0  0  0  0  1  0  0
  -31.5988  -20.4372   19.7318 C   0  0  1  0  0  0  0  0  0  0  0  0
  -32.0346  -17.2931   21.8041 C   0  0  2  0  0  0  0  0  0  0  0  0
  -32.7584  -20.9715   18.8444 C   0  0  0  0  0  0  0  0  0  0  0  0
  -21.9955  -19.5533   22.7883 N   0  0  0  0  0  0  0  0  0  0  0  0
  -23.7732  -13.7430   15.4984 N   0  0  0  0  0  0  0  0  0  0  0  0
  -22.3372  -18.6051   23.6772 N   0  0  0  0  0  0  0  0  0  0  0  0
  -29.5634  -21.7306   20.2871 N   0  0  0  0  0  0  0  0  0  0  0  0
  -23.6602  -15.9006   21.3267 N   0  0  0  0  0  0  0  0  0  0  0  0
  -22.1330  -17.9905   25.9556 N   0  0  0  0  0  0  0  0  0  0  0  0
  -19.8727  -21.8934   25.7227 N   0  0  0  0  0  0  0  0  0  0  0  0
  -28.3879  -25.1821   20.2515 N   0  0  0  0  0  0  0  0  0  0  0  0
  -32.0045  -19.4217   20.6974 N   0  0  0  0  0  0  0  0  0  0  0  0
  -23.8891  -13.7049   20.4759 N   0  0  0  0  0  0  0  0  0  0  0  0
  -31.0025  -16.3639   22.3447 N   0  3  0  0  0  0  0  0  0  0  0  0
  -20.5415  -20.2102   27.1291 O   0  0  0  0  0  0  0  0  0  0  0  0
  -29.3786  -23.7388   18.7160 O   0  0  0  0  0  0  0  0  0  0  0  0
  -31.5957  -22.1846   21.3358 O   0  0  0  0  0  0  0  0  0  0  0  0
  -30.5662  -17.7659   19.9446 O   0  0  0  0  0  0  0  0  0  0  0  0
  -21.8075  -14.6048   20.8104 O   0  0  0  0  0  0  0  0  0  0  0  0
  -19.1526  -25.0152   21.1651 O   0  0  0  0  0  0  0  0  0  0  0  0
  -24.3665  -19.5558   17.7740 O   0  0  0  0  0  0  0  0  0  1  0  0
  -19.7407  -29.7925   23.8551 F   0  0  0  0  0  0  0  0  0  0  0  0
  -20.5014  -27.1353   20.0124 F   0  0  0  0  0  0  0  0  0  0  0  0
  1  2  1  0  0  0  0
  1  5  2  0  0  0  0
  2  6  2  0  0  0  0
  3  8  2  0  0  0  0
  3 16  1  0  0  0  0
  4  9  1  0  0  0  0
  4 16  2  0  0  0  0
  5 18  1  0  0  0  0
  6 20  1  0  0  0  0
  7 10  2  0  0  0  0
  7 19  1  0  0  0  0
  8 23  1  0  0  0  0
  9 23  2  0  0  0  0
 10 24  1  0  0  0  0
 11 12  2  0  0  0  0
 11 25  1  0  0  0  0
 12 26  1  0  0  0  0
 13 21  1  0  0  0  0
 13 24  2  0  0  0  0
 14 22  1  0  0  0  0
 14 29  2  0  0  0  0
 15 26  2  0  0  0  0
 15 27  1  0  0  0  0
 16 28  1  0  0  0  0
 17 28  1  0  0  0  0
 17 31  2  0  0  0  0
 17 32  1  0  0  0  0
 18 20  2  0  0  0  0
 18 37  1  0  0  0  0
 19 21  2  0  0  0  0
 19 38  1  0  0  0  0
 20 46  1  0  0  0  0
 21 39  1  0  0  0  0
 22 30  2  0  0  0  0
 22 49  1  0  0  0  0
 23 82  1  0  0  0  0
 24 83  1  0  0  0  0
 25 27  2  0  0  0  0
 25 82  1  0  0  0  0
 26 84  1  0  0  0  0
 27 85  1  0  0  0  0
 28 66  2  0  0  0  0
 29 50  1  0  0  0  0
 29 67  1  0  0  0  0
 30 56  1  0  0  0  0
 30 67  1  0  0  0  0
 31 68  1  0  0  0  0
 31 71  1  0  0  0  0
 32 72  1  0  0  0  0
 32 77  2  0  0  0  0
 33 47  1  0  0  0  0
 33 73  1  0  0  0  0
 33 78  2  0  0  0  0
 34 63  1  0  0  0  0
 34 69  1  0  0  0  0
 34 79  2  0  0  0  0
 35 64  1  0  0  0  0
 35 74  1  0  0  0  0
 35 80  2  0  0  0  0
 36 70  1  0  0  0  0
 36 75  1  0  0  0  0
 36 81  2  0  0  0  0
 37 40  1  0  0  0  0
 38 47  1  0  0  0  0
 39 69  1  0  0  0  0
 40 42  1  0  0  0  0
 41 43  1  0  0  0  0
 41 44  1  0  0  0  0
 42 46  1  0  0  0  0
 43 48  1  0  0  0  0
 44 70  1  0  0  0  0
 45 48  1  0  0  0  0
 45 70  1  0  0  0  0
 46 73  1  0  0  0  0
 47 69  1  0  0  0  0
 48 68  1  0  0  0  0
 51 64  1  0  0  0  0
 52 65  1  0  0  0  0
 53 65  1  0  0  0  0
 54 65  1  0  0  0  0
 55 76  1  0  0  0  0
 56 57  1  0  0  0  0
 57 61  1  0  0  0  0
 58 59  1  0  0  0  0
 58 60  1  0  0  0  0
 59 62  1  0  0  0  0
 60 67  1  0  0  0  0
 61 75  1  0  0  0  0
 62 83  1  0  0  0  0
 63 65  1  0  0  0  0
 63 74  1  0  0  0  0
 64 76  1  0  0  0  0
 66 68  1  0  0  0  0
M  CHG  1  76   1
M  ISO  4  36 100  62 101  75 100  83 101
M  END
> <Batch ID>
0043

> <Smiles>
CNC(C)C(=O)NC(C(=O)N1Cc2cc([101O:1][101CH2:1]CCCn3c(C)cc(C)c3CCC[100NH:0][100C:0](=O)N3CCCC(n4nc(-c5ccc(Oc6ccc(F)cc6F)cc5)c(C(N)=O)c4N)C3)ccc2CC1C(=O)NC1CCCc2ccccc21)C(C)(C)C

> <Shape>
0.179

> <Color>
0.080

> <Negative vol penalty>
0.000

$$$$

  -OEChem-04052317143D

 84 92  0     1  0  0  0  0  0999 V2000
  -30.8534  -29.9511   15.9749 C   0  0  0  0  0  0  0  0  0  0  0  0
  -30.6188  -28.7399   16.6179 C   0  0  0  0  0  0  0  0  0  0  0  0
  -23.1359  -12.3487   19.4570 C   0  0  0  0  0  0  0  0  0  0  0  0
  -24.4039  -11.7549   21.4259 C   0  0  0  0  0  0  0  0  0  0  0  0
  -30.3786  -31.1380   16.5315 C   0  0  0  0  0  0  0  0  0  0  0  0
  -29.9100  -28.7150   17.8185 C   0  0  0  0  0  0  0  0  0  0  0  0
  -26.0628  -24.3515   19.7328 C   0  0  0  0  0  0  0  0  0  0  0  0
  -22.8516  -11.0016   19.2338 C   0  0  0  0  0  0  0  0  0  0  0  0
  -24.1196  -10.4077   21.2027 C   0  0  0  0  0  0  0  0  0  0  0  0
  -26.2242  -23.2748   20.6036 C   0  0  0  0  0  0  0  0  0  0  0  0
  -21.5257   -8.2971   21.6898 C   0  0  0  0  0  0  0  0  0  0  0  0
  -21.1294   -7.5298   22.7852 C   0  0  0  0  0  0  0  0  0  0  0  0
  -25.3243  -24.6040   22.4043 C   0  0  0  0  0  0  0  0  0  0  0  0
  -23.0291   -6.0745   22.4529 C   0  0  0  0  0  0  0  0  0  0  0  0
  -28.5546  -16.9145   23.4923 C   0  0  0  0  0  0  0  0  0  0  0  0
  -30.0194  -18.5325   23.1873 C   0  0  0  0  0  0  0  0  0  0  0  0
  -23.9121  -12.7254   20.5531 C   0  0  0  0  0  0  0  0  0  0  0  0
  -23.4529  -15.0304   21.5451 C   0  0  0  0  0  0  0  0  0  0  0  0
  -29.6553  -31.1266   17.7346 C   0  0  0  0  0  0  0  0  0  0  0  0
  -25.5402  -25.5682   20.1944 C   0  0  0  0  0  0  0  0  0  0  0  0
  -29.4263  -29.9030   18.3924 C   0  0  0  0  0  0  0  0  0  0  0  0
  -25.1548  -25.6938   21.5367 C   0  0  0  0  0  0  0  0  0  0  0  0
  -23.3435  -10.0310   20.1066 C   0  0  0  0  0  0  0  0  0  0  0  0
  -25.8576  -23.4018   21.9403 C   0  0  0  0  0  0  0  0  0  0  0  0
  -22.6736   -7.9531   20.9759 C   0  0  0  0  0  0  0  0  0  0  0  0
  -21.8811   -6.4185   23.1667 C   0  0  0  0  0  0  0  0  0  0  0  0
  -23.4253   -6.8418   21.3575 C   0  0  0  0  0  0  0  0  0  0  0  0
  -24.2065  -14.1169   20.7840 C   0  0  0  0  0  0  0  0  0  0  0  0
  -28.3861  -17.9250   24.4094 C   0  0  0  0  0  0  0  0  0  0  0  0
  -24.1495  -16.2106   21.4534 C   0  0  0  0  0  0  0  0  0  0  0  0
  -22.2323  -14.8300   22.2702 C   0  0  0  0  0  0  0  0  0  0  0  0
  -26.6315  -28.5469   20.3933 C   0  0  0  0  0  0  0  0  0  0  0  0
  -29.9385  -17.3770   20.3404 C   0  0  0  0  0  0  0  0  0  0  0  0
  -23.5960  -29.1812   21.3450 C   0  0  0  0  0  0  0  0  0  0  0  0
  -20.6929  -28.0343   22.7247 C   0  0  0  0  0  0  0  0  0  0  0  0
  -29.2030  -32.4400   18.3221 C   0  0  0  0  0  0  0  0  0  0  0  0
  -25.3475  -26.7115   19.2363 C   0  0  0  0  0  0  0  0  0  0  0  0
  -24.5700  -26.9721   22.0775 C   0  0  0  0  0  0  0  0  0  0  0  0
  -28.1372  -32.2882   19.4045 C   0  0  0  0  0  0  0  0  0  0  0  0
  -27.0885  -18.6178   18.5577 C   0  0  0  0  0  0  0  0  0  0  0  0
  -28.5281  -31.1899   20.3882 C   0  0  0  0  0  0  0  0  0  0  0  0
  -25.9643  -17.6699   18.9736 C   0  0  0  0  0  0  0  0  0  0  0  0
  -28.4242  -17.8882   18.4537 C   0  0  0  0  0  0  0  0  0  0  0  0
  -27.6914  -16.2062   20.1137 C   0  0  0  0  0  0  0  0  0  0  0  0
  -28.6401  -29.8325   19.6836 C   0  0  1  0  0  0  0  0  0  0  0  0
  -25.2844  -28.0686   19.9305 C   0  0  1  0  0  0  0  0  0  0  0  0
  -26.3303  -16.9093   20.2604 C   0  0  2  0  0  0  0  0  0  0  0  0
  -18.4022  -28.7958   23.4103 C   0  0  0  0  0  0  0  0  0  0  0  0
  -31.9483  -15.4656   23.0619 C   0  0  0  0  0  0  0  0  0  0  0  0
  -32.2097  -15.4512   20.5836 C   0  0  0  0  0  0  0  0  0  0  0  0
  -24.7838  -30.5228   23.8146 C   0  0  0  0  0  0  0  0  0  0  0  0
  -22.5216  -30.4051   24.8808 C   0  0  0  0  0  0  0  0  0  0  0  0
  -22.8486  -31.7368   22.7970 C   0  0  0  0  0  0  0  0  0  0  0  0
  -19.3814  -26.1673   20.8397 C   0  0  0  0  0  0  0  0  0  0  0  0
  -27.3680  -18.0190   25.5179 C   0  0  0  0  0  0  0  0  0  0  0  0
  -26.0591  -18.6991   25.1008 C   0  0  0  0  0  0  0  0  0  0  0  0
  -26.2488  -20.1623   24.6883 C   0  0  0  0  0  0  0  0  0  0  0  0
  -24.9261  -20.7901   24.2521 C   0  0  0  0  0  0  0  0  0  0  0  0
  -25.0960  -22.2562   23.8802 C   0  0  0  0  0  0  0  0  0  1  0  0
  -30.1749  -16.5934   21.6069 C   0  0  1  0  0  0  0  0  0  0  0  0
  -22.8758  -29.2119   22.6714 C   0  0  1  0  0  0  0  0  0  0  0  0
  -19.2444  -28.1904   22.2982 C   0  0  2  0  0  0  0  0  0  0  0  0
  -31.6811  -16.2608   21.7768 C   0  0  0  0  0  0  0  0  0  0  0  0
  -23.2702  -30.4456   23.5315 C   0  0  0  0  0  0  0  0  0  0  0  0
  -29.3009  -18.9293   24.2140 N   0  0  0  0  0  0  0  0  0  0  0  0
  -25.2982  -14.6693   20.2481 N   0  0  0  0  0  0  0  0  0  0  0  0
  -29.6041  -17.3181   22.7159 N   0  0  0  0  0  0  0  0  0  0  0  0
  -25.2355  -15.9428   20.6731 N   0  0  0  0  0  0  0  0  0  0  0  0
  -24.4071  -28.0635   21.1029 N   0  0  0  0  0  0  0  0  0  0  0  0
  -28.7250  -17.1599   19.6875 N   0  0  0  0  0  0  0  0  0  0  0  0
  -23.9327  -17.4409   21.9650 N   0  0  0  0  0  0  0  0  0  0  0  0
  -21.6504  -13.5550   22.2595 N   0  0  0  0  0  0  0  0  0  0  0  0
  -27.3254  -29.2761   19.4465 N   0  0  0  0  0  0  0  0  0  0  0  0
  -21.4519  -29.1278   22.3648 N   0  0  0  0  0  0  0  0  0  0  0  0
  -18.6649  -26.8655   21.9379 N   0  3  0  0  0  0  0  0  0  0  0  0
  -21.6655  -15.7583   22.8952 O   0  0  0  0  0  0  0  0  0  0  0  0
  -27.0125  -28.2760   21.5260 O   0  0  0  0  0  0  0  0  0  0  0  0
  -30.8063  -18.1605   19.9464 O   0  0  0  0  0  0  0  0  0  0  0  0
  -23.4388  -30.1111   20.5499 O   0  0  0  0  0  0  0  0  0  0  0  0
  -21.1086  -27.0433   23.3211 O   0  0  0  0  0  0  0  0  0  0  0  0
  -23.0661   -8.7164   19.8892 O   0  0  0  0  0  0  0  0  0  0  0  0
  -26.0147  -22.3527   22.7925 O   0  0  0  0  0  0  0  0  0  1  0  0
  -21.5014   -5.6826   24.2196 F   0  0  0  0  0  0  0  0  0  0  0  0
  -24.5297   -6.5071   20.6762 F   0  0  0  0  0  0  0  0  0  0  0  0
  1  2  1  0  0  0  0
  1  5  2  0  0  0  0
  2  6  2  0  0  0  0
  3  8  2  0  0  0  0
  3 17  1  0  0  0  0
  4  9  1  0  0  0  0
  4 17  2  0  0  0  0
  5 19  1  0  0  0  0
  6 21  1  0  0  0  0
  7 10  2  0  0  0  0
  7 20  1  0  0  0  0
  8 23  1  0  0  0  0
  9 23  2  0  0  0  0
 10 24  1  0  0  0  0
 11 12  2  0  0  0  0
 11 25  1  0  0  0  0
 12 26  1  0  0  0  0
 13 22  1  0  0  0  0
 13 24  2  0  0  0  0
 14 26  2  0  0  0  0
 14 27  1  0  0  0  0
 15 29  2  0  0  0  0
 15 67  1  0  0  0  0
 16 65  2  0  0  0  0
 16 67  1  0  0  0  0
 17 28  1  0  0  0  0
 18 28  1  0  0  0  0
 18 30  2  0  0  0  0
 18 31  1  0  0  0  0
 19 21  2  0  0  0  0
 19 36  1  0  0  0  0
 20 22  2  0  0  0  0
 20 37  1  0  0  0  0
 21 45  1  0  0  0  0
 22 38  1  0  0  0  0
 23 81  1  0  0  0  0
 24 82  1  0  0  0  0
 25 27  2  0  0  0  0
 25 81  1  0  0  0  0
 26 83  1  0  0  0  0
 27 84  1  0  0  0  0
 28 66  2  0  0  0  0
 29 55  1  0  0  0  0
 29 65  1  0  0  0  0
 30 68  1  0  0  0  0
 30 71  1  0  0  0  0
 31 72  1  0  0  0  0
 31 76  2  0  0  0  0
 32 46  1  0  0  0  0
 32 73  1  0  0  0  0
 32 77  2  0  0  0  0
 33 60  1  0  0  0  0
 33 70  1  0  0  0  0
 33 78  2  0  0  0  0
 34 61  1  0  0  0  0
 34 69  1  0  0  0  0
 34 79  2  0  0  0  0
 35 62  1  0  0  0  0
 35 74  1  0  0  0  0
 35 80  2  0  0  0  0
 36 39  1  0  0  0  0
 37 46  1  0  0  0  0
 38 69  1  0  0  0  0
 39 41  1  0  0  0  0
 40 42  1  0  0  0  0
 40 43  1  0  0  0  0
 41 45  1  0  0  0  0
 42 47  1  0  0  0  0
 43 70  1  0  0  0  0
 44 47  1  0  0  0  0
 44 70  1  0  0  0  0
 45 73  1  0  0  0  0
 46 69  1  0  0  0  0
 47 68  1  0  0  0  0
 48 62  1  0  0  0  0
 49 63  1  0  0  0  0
 50 63  1  0  0  0  0
 51 64  1  0  0  0  0
 52 64  1  0  0  0  0
 53 64  1  0  0  0  0
 54 75  1  0  0  0  0
 55 56  1  0  0  0  0
 56 57  1  0  0  0  0
 57 58  1  0  0  0  0
 58 59  1  0  0  0  0
 59 82  1  0  0  0  0
 60 63  1  0  0  0  0
 60 67  1  0  0  0  0
 61 64  1  0  0  0  0
 61 74  1  0  0  0  0
 62 75  1  0  0  0  0
 66 68  1  0  0  0  0
M  CHG  1  75   1
M  ISO  4  33 100  59 101  60 100  82 101
M  END
> <Batch ID>
0043

> <Smiles>
CNC(C)C(=O)NC(C(=O)N1Cc2cc([101O:1][101CH2:1]CCCCc3cn([100CH:0](C(C)C)[100C:0](=O)N4CCCC(n5nc(-c6ccc(Oc7ccc(F)cc7F)cc6)c(C(N)=O)c5N)C4)cn3)ccc2CC1C(=O)NC1CCCc2ccccc21)C(C)(C)C

> <Shape>
0.251

> <Color>
0.053

> <Negative vol penalty>
0.000

$$$$

  -OEChem-04052317143D

 88 96  0     1  0  0  0  0  0999 V2000
  -15.9741  -24.6310   23.6523 C   0  0  0  0  0  0  0  0  0  0  0  0
  -16.9256  -23.9693   22.8828 C   0  0  0  0  0  0  0  0  0  0  0  0
  -25.6013  -13.8625   22.3310 C   0  0  0  0  0  0  0  0  0  0  0  0
  -23.9382  -15.2986   21.3266 C   0  0  0  0  0  0  0  0  0  0  0  0
  -16.0077  -26.0210   23.7568 C   0  0  0  0  0  0  0  0  0  0  0  0
  -17.9108  -24.6972   22.2165 C   0  0  0  0  0  0  0  0  0  0  0  0
  -23.7048  -22.9874   21.2108 C   0  0  0  0  0  0  0  0  0  0  0  0
  -24.6702  -12.8257   22.3906 C   0  0  0  0  0  0  0  0  0  0  0  0
  -23.0070  -14.2617   21.3862 C   0  0  0  0  0  0  0  0  0  0  0  0
  -24.3391  -22.4297   20.1016 C   0  0  0  0  0  0  0  0  0  0  0  0
  -22.8345   -9.6892   22.4762 C   0  0  0  0  0  0  0  0  0  0  0  0
  -23.2508   -8.4198   22.0751 C   0  0  0  0  0  0  0  0  0  0  0  0
  -25.0602  -24.6274   19.4165 C   0  0  0  0  0  0  0  0  0  0  0  0
  -23.7523   -9.2798   19.8737 C   0  0  0  0  0  0  0  0  0  0  0  0
  -25.2353  -15.0990   21.7990 C   0  0  0  0  0  0  0  0  0  0  0  0
  -27.0824  -16.4585   20.6821 C   0  0  0  0  0  0  0  0  0  0  0  0
  -16.9996  -26.7656   23.0993 C   0  0  0  0  0  0  0  0  0  0  0  0
  -23.7342  -24.3729   21.4257 C   0  0  0  0  0  0  0  0  0  0  0  0
  -17.9569  -26.0985   22.3113 C   0  0  0  0  0  0  0  0  0  0  0  0
  -24.4276  -25.1999   20.5305 C   0  0  0  0  0  0  0  0  0  0  0  0
  -28.9331  -22.9660   16.6298 C   0  0  0  0  0  0  0  0  0  0  0  0
  -23.3730  -13.0253   21.9182 C   0  0  0  0  0  0  0  0  0  0  0  0
  -25.0145  -23.2500   19.2027 C   0  0  0  0  0  0  0  0  0  0  0  0
  -22.8771  -10.7539   21.5760 C   0  0  0  0  0  0  0  0  0  0  0  0
  -23.7097   -8.2151   20.7739 C   0  0  0  0  0  0  0  0  0  0  0  0
  -23.3360  -10.5493   20.2749 C   0  0  0  0  0  0  0  0  0  0  0  0
  -26.1966  -16.1706   21.7377 C   0  0  0  0  0  0  0  0  0  0  0  0
  -29.9818  -23.7794   17.0079 C   0  0  0  0  0  0  0  0  0  0  0  0
  -28.4581  -22.1126   17.6046 C   0  0  0  0  0  0  0  0  0  0  0  0
  -27.7775  -17.5636   21.1090 C   0  0  0  0  0  0  0  0  0  0  0  0
  -29.9807  -22.8930   19.1011 C   0  0  0  0  0  0  0  0  0  0  0  0
  -27.2609  -15.7873   19.4278 C   0  0  0  0  0  0  0  0  0  0  0  0
  -21.5373  -26.6638   21.5940 C   0  0  0  0  0  0  0  0  0  0  0  0
  -24.0769  -28.4989   22.4338 C   0  0  0  0  0  0  0  0  0  0  0  0
  -27.4531  -28.9888   22.3440 C   0  0  0  0  0  0  0  0  0  0  0  0
  -27.9125  -22.6025   23.5040 C   0  0  0  0  0  0  0  0  0  0  0  0
  -16.9670  -28.2698   23.2038 C   0  0  0  0  0  0  0  0  0  0  0  0
  -23.0677  -24.9560   22.6414 C   0  0  0  0  0  0  0  0  0  0  0  0
  -24.5061  -26.6912   20.7269 C   0  0  0  0  0  0  0  0  0  0  0  0
  -18.2687  -28.9388   22.7697 C   0  0  0  0  0  0  0  0  0  0  0  0
  -27.9857  -19.7678   25.6570 C   0  0  0  0  0  0  0  0  0  0  0  0
  -18.7583  -28.3488   21.4511 C   0  0  0  0  0  0  0  0  0  0  0  0
  -27.5939  -18.6047   24.7439 C   0  0  0  0  0  0  0  0  0  0  0  0
  -27.2257  -21.0441   25.3029 C   0  0  0  0  0  0  0  0  0  0  0  0
  -26.9322  -20.2882   22.9756 C   0  0  0  0  0  0  0  0  0  0  0  0
  -19.0562  -26.8513   21.5936 C   0  0  1  0  0  0  0  0  0  0  0  0
  -22.7259  -26.4345   22.4840 C   0  0  1  0  0  0  0  0  0  0  0  0
  -27.7135  -18.9935   23.2580 C   0  0  2  0  0  0  0  0  0  0  0  0
  -31.9056  -25.3143   16.5283 C   0  0  0  0  0  0  0  0  0  0  0  0
  -29.6664  -30.0512   22.8637 C   0  0  0  0  0  0  0  0  0  0  0  0
  -28.9006  -20.5820   14.6991 C   0  0  0  0  0  0  0  0  0  0  0  0
  -28.3887  -22.2022   12.8615 C   0  0  0  0  0  0  0  0  0  0  0  0
  -23.2716  -30.4153   20.2002 C   0  0  0  0  0  0  0  0  0  0  0  0
  -25.5469  -31.4474   20.3603 C   0  0  0  0  0  0  0  0  0  0  0  0
  -24.0021  -31.5286   22.3171 C   0  0  0  0  0  0  0  0  0  0  0  0
  -27.8177  -27.3201   24.7609 C   0  0  0  0  0  0  0  0  0  0  0  0
  -28.3519  -23.0082   15.2611 C   0  0  0  0  0  0  0  0  0  0  0  0
  -30.5783  -24.7446   16.0368 C   0  0  0  0  0  0  0  0  0  0  0  0
  -27.3136  -21.1741   17.3081 C   0  0  0  0  0  0  0  0  0  0  0  0
  -30.5606  -22.8544   20.4743 C   0  0  0  0  0  0  0  0  0  0  0  0
  -30.0812  -23.9887   21.4018 C   0  0  0  0  0  0  0  0  0  0  0  0
  -28.5672  -24.0456   21.5940 C   0  0  0  0  0  0  0  0  0  0  0  0
  -26.1356  -21.3792   18.2544 C   0  0  0  0  0  0  0  0  0  1  0  0
  -25.0867  -29.3342   21.6844 C   0  0  1  0  0  0  0  0  0  0  0  0
  -28.4493  -29.3400   23.4343 C   0  0  2  0  0  0  0  0  0  0  0  0
  -29.0159  -22.0404   14.2485 C   0  0  0  0  0  0  0  0  0  0  0  0
  -24.4739  -30.6535   21.1355 C   0  0  0  0  0  0  0  0  0  0  0  0
  -26.3161  -17.0237   22.7584 N   0  0  0  0  0  0  0  0  0  0  0  0
  -30.5321  -23.7691   18.2398 N   0  0  0  0  0  0  0  0  0  0  0  0
  -28.9602  -22.0493   18.8552 N   0  0  0  0  0  0  0  0  0  0  0  0
  -27.2852  -17.8586   22.3462 N   0  0  0  0  0  0  0  0  0  0  0  0
  -23.8331  -27.2144   21.9273 N   0  0  0  0  0  0  0  0  0  0  0  0
  -27.3812  -21.3580   23.8804 N   0  0  0  0  0  0  0  0  0  0  0  0
  -28.7558  -18.3019   20.5430 N   0  0  0  0  0  0  0  0  0  0  0  0
  -26.4640  -14.6684   19.1495 N   0  0  0  0  0  0  0  0  0  0  0  0
  -20.3257  -26.6496   22.2584 N   0  0  0  0  0  0  0  0  0  0  0  0
  -26.2100  -29.5304   22.5944 N   0  0  0  0  0  0  0  0  0  0  0  0
  -28.0321  -22.8167   22.1363 N   0  0  0  0  0  0  0  0  0  0  0  0
  -28.9100  -28.1063   24.1319 N   0  3  0  0  0  0  0  0  0  0  0  0
  -28.1135  -16.1585   18.5859 O   0  0  0  0  0  0  0  0  0  0  0  0
  -21.7069  -26.8421   20.3935 O   0  0  0  0  0  0  0  0  0  0  0  0
  -23.5300  -28.9661   23.4359 O   0  0  0  0  0  0  0  0  0  0  0  0
  -27.7491  -28.3058   21.3661 O   0  0  0  0  0  0  0  0  0  0  0  0
  -28.2600  -23.4573   24.3259 O   0  0  0  0  0  0  0  0  0  0  0  0
  -22.4642  -12.0138   21.9760 O   0  0  0  0  0  0  0  0  0  0  0  0
  -25.6339  -22.7082   18.1188 O   0  0  0  0  0  0  0  0  0  1  0  0
  -24.1109   -6.9963   20.3893 F   0  0  0  0  0  0  0  0  0  0  0  0
  -23.3803  -11.5685   19.4060 F   0  0  0  0  0  0  0  0  0  0  0  0
  1  2  1  0  0  0  0
  1  5  2  0  0  0  0
  2  6  2  0  0  0  0
  3  8  2  0  0  0  0
  3 15  1  0  0  0  0
  4  9  1  0  0  0  0
  4 15  2  0  0  0  0
  5 17  1  0  0  0  0
  6 19  1  0  0  0  0
  7 10  2  0  0  0  0
  7 18  1  0  0  0  0
  8 22  1  0  0  0  0
  9 22  2  0  0  0  0
 10 23  1  0  0  0  0
 11 12  2  0  0  0  0
 11 24  1  0  0  0  0
 12 25  1  0  0  0  0
 13 20  1  0  0  0  0
 13 23  2  0  0  0  0
 14 25  2  0  0  0  0
 14 26  1  0  0  0  0
 15 27  1  0  0  0  0
 16 27  1  0  0  0  0
 16 30  2  0  0  0  0
 16 32  1  0  0  0  0
 17 19  2  0  0  0  0
 17 37  1  0  0  0  0
 18 20  2  0  0  0  0
 18 38  1  0  0  0  0
 19 46  1  0  0  0  0
 20 39  1  0  0  0  0
 21 28  2  0  0  0  0
 21 29  1  0  0  0  0
 21 57  1  0  0  0  0
 22 85  1  0  0  0  0
 23 86  1  0  0  0  0
 24 26  2  0  0  0  0
 24 85  1  0  0  0  0
 25 87  1  0  0  0  0
 26 88  1  0  0  0  0
 27 68  2  0  0  0  0
 28 58  1  0  0  0  0
 28 69  1  0  0  0  0
 29 59  1  0  0  0  0
 29 70  2  0  0  0  0
 30 71  1  0  0  0  0
 30 74  1  0  0  0  0
 31 60  1  0  0  0  0
 31 69  2  0  0  0  0
 31 70  1  0  0  0  0
 32 75  1  0  0  0  0
 32 80  2  0  0  0  0
 33 47  1  0  0  0  0
 33 76  1  0  0  0  0
 33 81  2  0  0  0  0
 34 64  1  0  0  0  0
 34 72  1  0  0  0  0
 34 82  2  0  0  0  0
 35 65  1  0  0  0  0
 35 77  1  0  0  0  0
 35 83  2  0  0  0  0
 36 73  1  0  0  0  0
 36 78  1  0  0  0  0
 36 84  2  0  0  0  0
 37 40  1  0  0  0  0
 38 47  1  0  0  0  0
 39 72  1  0  0  0  0
 40 42  1  0  0  0  0
 41 43  1  0  0  0  0
 41 44  1  0  0  0  0
 42 46  1  0  0  0  0
 43 48  1  0  0  0  0
 44 73  1  0  0  0  0
 45 48  1  0  0  0  0
 45 73  1  0  0  0  0
 46 76  1  0  0  0  0
 47 72  1  0  0  0  0
 48 71  1  0  0  0  0
 49 58  1  0  0  0  0
 50 65  1  0  0  0  0
 51 66  1  0  0  0  0
 52 66  1  0  0  0  0
 53 67  1  0  0  0  0
 54 67  1  0  0  0  0
 55 67  1  0  0  0  0
 56 79  1  0  0  0  0
 57 66  1  0  0  0  0
 59 63  1  0  0  0  0
 60 61  1  0  0  0  0
 61 62  1  0  0  0  0
 62 78  1  0  0  0  0
 63 86  1  0  0  0  0
 64 67  1  0  0  0  0
 64 77  1  0  0  0  0
 65 79  1  0  0  0  0
 68 71  1  0  0  0  0
M  CHG  1  79   1
M  ISO  4  36 100  63 101  78 100  86 101
M  END
> <Batch ID>
0043

> <Smiles>
CCc1nc(CCC[100NH:0][100C:0](=O)N2CCCC(n3nc(-c4ccc(Oc5ccc(F)cc5F)cc4)c(C(N)=O)c3N)C2)nc(C[101CH2:1][101O:1]c2ccc3c(c2)CN(C(=O)C(NC(=O)C(C)NC)C(C)(C)C)C(C(=O)NC2CCCc4ccccc42)C3)c1CC(C)C

> <Shape>
0.215

> <Color>
0.048

> <Negative vol penalty>
0.000

$$$$

  -OEChem-04052317143D

 84 92  0     1  0  0  0  0  0999 V2000
  -16.9976  -29.6447   24.5841 C   0  0  0  0  0  0  0  0  0  0  0  0
  -17.4341  -28.4037   24.1315 C   0  0  0  0  0  0  0  0  0  0  0  0
  -26.4215  -14.8605   22.9231 C   0  0  0  0  0  0  0  0  0  0  0  0
  -25.2750  -15.3401   20.8512 C   0  0  0  0  0  0  0  0  0  0  0  0
  -17.5362  -30.8115   24.0433 C   0  0  0  0  0  0  0  0  0  0  0  0
  -18.4086  -28.3288   23.1369 C   0  0  0  0  0  0  0  0  0  0  0  0
  -22.7975  -24.0921   22.5949 C   0  0  0  0  0  0  0  0  0  0  0  0
  -25.3949  -13.9903   23.2898 C   0  0  0  0  0  0  0  0  0  0  0  0
  -24.2484  -14.4698   21.2179 C   0  0  0  0  0  0  0  0  0  0  0  0
  -22.8978  -22.9396   21.8167 C   0  0  0  0  0  0  0  0  0  0  0  0
  -21.5014  -12.0991   21.4470 C   0  0  0  0  0  0  0  0  0  0  0  0
  -21.0300  -11.2083   20.4828 C   0  0  0  0  0  0  0  0  0  0  0  0
  -24.1384  -24.1753   20.1574 C   0  0  0  0  0  0  0  0  0  0  0  0
  -23.2363  -10.2411   20.2977 C   0  0  0  0  0  0  0  0  0  0  0  0
  -24.9940  -21.9164   14.7821 C   0  0  0  0  0  0  0  0  0  0  0  0
  -25.4956  -20.0252   15.7962 C   0  0  0  0  0  0  0  0  0  0  0  0
  -26.3615  -15.5354   21.7038 C   0  0  0  0  0  0  0  0  0  0  0  0
  -28.5889  -16.1177   20.6050 C   0  0  0  0  0  0  0  0  0  0  0  0
  -18.5248  -30.7508   23.0485 C   0  0  0  0  0  0  0  0  0  0  0  0
  -23.3585  -25.2994   22.1544 C   0  0  0  0  0  0  0  0  0  0  0  0
  -18.9599  -29.4959   22.5814 C   0  0  0  0  0  0  0  0  0  0  0  0
  -24.0461  -25.3410   20.9331 C   0  0  0  0  0  0  0  0  0  0  0  0
  -24.3084  -13.7949   22.4372 C   0  0  0  0  0  0  0  0  0  0  0  0
  -23.5658  -22.9818   20.5964 C   0  0  0  0  0  0  0  0  0  0  0  0
  -22.8403  -12.0611   21.8366 C   0  0  0  0  0  0  0  0  0  0  0  0
  -21.8974  -10.2793   19.9082 C   0  0  0  0  0  0  0  0  0  0  0  0
  -23.7077  -11.1320   21.2620 C   0  0  0  0  0  0  0  0  0  0  0  0
  -27.4213  -16.4349   21.3247 C   0  0  0  0  0  0  0  0  0  0  0  0
  -26.2817  -21.5228   14.5040 C   0  0  0  0  0  0  0  0  0  0  0  0
  -29.2652  -17.3089   20.5054 C   0  0  0  0  0  0  0  0  0  0  0  0
  -29.0231  -14.8587   20.0738 C   0  0  0  0  0  0  0  0  0  0  0  0
  -22.2100  -28.1721   21.4248 C   0  0  0  0  0  0  0  0  0  0  0  0
  -25.3523  -28.9292   21.1508 C   0  0  0  0  0  0  0  0  0  0  0  0
  -28.5500  -27.8713   20.6007 C   0  0  0  0  0  0  0  0  0  0  0  0
  -29.3291  -22.8014   19.5181 C   0  0  0  0  0  0  0  0  0  0  0  0
  -19.0431  -32.0394   22.4606 C   0  0  0  0  0  0  0  0  0  0  0  0
  -23.2647  -26.5273   23.0180 C   0  0  0  0  0  0  0  0  0  0  0  0
  -24.6834  -26.6074   20.4246 C   0  0  0  0  0  0  0  0  0  0  0  0
  -20.3417  -31.8719   21.6758 C   0  0  0  0  0  0  0  0  0  0  0  0
  -28.4806  -21.7429   22.8100 C   0  0  0  0  0  0  0  0  0  0  0  0
  -20.2472  -30.6734   20.7369 C   0  0  0  0  0  0  0  0  0  0  0  0
  -28.2197  -20.2434   22.6562 C   0  0  0  0  0  0  0  0  0  0  0  0
  -28.0005  -22.5271   21.5908 C   0  0  0  0  0  0  0  0  0  0  0  0
  -28.2669  -20.5487   20.1456 C   0  0  0  0  0  0  0  0  0  0  0  0
  -20.0332  -29.3734   21.5216 C   0  0  1  0  0  0  0  0  0  0  0  0
  -23.4287  -27.8245   22.2320 C   0  0  1  0  0  0  0  0  0  0  0  0
  -28.7847  -19.7095   21.3262 C   0  0  2  0  0  0  0  0  0  0  0  0
  -30.9005  -28.7265   20.3985 C   0  0  0  0  0  0  0  0  0  0  0  0
  -24.7261  -29.9825   18.3564 C   0  0  0  0  0  0  0  0  0  0  0  0
  -27.1801  -29.9306   17.8628 C   0  0  0  0  0  0  0  0  0  0  0  0
  -26.3055  -31.4025   19.6769 C   0  0  0  0  0  0  0  0  0  0  0  0
  -29.4595  -26.2562   22.9079 C   0  0  0  0  0  0  0  0  0  0  0  0
  -27.2765  -22.1970   13.6560 C   0  0  0  0  0  0  0  0  0  0  0  0
  -28.1515  -23.2016   14.4367 C   0  0  0  0  0  0  0  0  0  0  0  0
  -28.9745  -22.5292   15.5376 C   0  0  0  0  0  0  0  0  0  0  0  0
  -29.8007  -23.5554   16.3185 C   0  0  0  0  0  0  0  0  0  0  0  0
  -23.1224  -20.8147   17.7434 C   0  0  0  0  0  0  0  0  0  0  0  0
  -23.1226  -20.9044   16.2158 C   0  0  0  0  0  0  0  0  0  0  0  0
  -30.6440  -22.9154   17.4164 C   0  0  0  0  0  0  0  0  0  0  0  0
  -23.7320  -22.0368   18.4204 C   0  0  0  0  0  0  0  0  0  1  0  0
  -26.3654  -28.9000   20.0319 C   0  0  1  0  0  0  0  0  0  0  0  0
  -29.8465  -28.1584   21.3362 C   0  0  2  0  0  0  0  0  0  0  0  0
  -26.1307  -30.0304   18.9904 C   0  0  0  0  0  0  0  0  0  0  0  0
  -26.5878  -20.3447   15.1381 N   0  0  0  0  0  0  0  0  0  0  0  0
  -27.3566  -17.7265   21.6589 N   0  0  0  0  0  0  0  0  0  0  0  0
  -24.5030  -20.9470   15.6105 N   0  0  0  0  0  0  0  0  0  0  0  0
  -28.4920  -18.2313   21.1469 N   0  0  0  0  0  0  0  0  0  0  0  0
  -24.5592  -27.7829   21.3022 N   0  0  0  0  0  0  0  0  0  0  0  0
  -28.5737  -21.9712   20.3626 N   0  0  0  0  0  0  0  0  0  0  0  0
  -30.4400  -17.6469   19.9327 N   0  0  0  0  0  0  0  0  0  0  0  0
  -28.2074  -13.7353   20.2660 N   0  0  0  0  0  0  0  0  0  0  0  0
  -21.2779  -28.9276   22.1103 N   0  0  0  0  0  0  0  0  0  0  0  0
  -27.6776  -28.9369   20.6683 N   0  0  0  0  0  0  0  0  0  0  0  0
  -29.8415  -22.1935   18.3785 N   0  0  0  0  0  0  0  0  0  0  0  0
  -30.3840  -26.9092   21.9457 N   0  3  0  0  0  0  0  0  0  0  0  0
  -30.1104  -14.7304   19.4614 O   0  0  0  0  0  0  0  0  0  0  0  0
  -22.1225  -27.7849   20.2655 O   0  0  0  0  0  0  0  0  0  0  0  0
  -25.2727  -29.9292   21.8686 O   0  0  0  0  0  0  0  0  0  0  0  0
  -28.3342  -26.8093   20.0208 O   0  0  0  0  0  0  0  0  0  0  0  0
  -29.5365  -23.9944   19.7644 O   0  0  0  0  0  0  0  0  0  0  0  0
  -23.3066  -12.9456   22.7946 O   0  0  0  0  0  0  0  0  0  0  0  0
  -23.6645  -21.8585   19.8346 O   0  0  0  0  0  0  0  0  0  1  0  0
  -21.4442   -9.4228   18.9833 F   0  0  0  0  0  0  0  0  0  0  0  0
  -24.9947  -11.0898   21.6330 F   0  0  0  0  0  0  0  0  0  0  0  0
  1  2  1  0  0  0  0
  1  5  2  0  0  0  0
  2  6  2  0  0  0  0
  3  8  2  0  0  0  0
  3 17  1  0  0  0  0
  4  9  1  0  0  0  0
  4 17  2  0  0  0  0
  5 19  1  0  0  0  0
  6 21  1  0  0  0  0
  7 10  2  0  0  0  0
  7 20  1  0  0  0  0
  8 23  1  0  0  0  0
  9 23  2  0  0  0  0
 10 24  1  0  0  0  0
 11 12  2  0  0  0  0
 11 25  1  0  0  0  0
 12 26  1  0  0  0  0
 13 22  1  0  0  0  0
 13 24  2  0  0  0  0
 14 26  2  0  0  0  0
 14 27  1  0  0  0  0
 15 29  2  0  0  0  0
 15 66  1  0  0  0  0
 16 64  2  0  0  0  0
 16 66  1  0  0  0  0
 17 28  1  0  0  0  0
 18 28  1  0  0  0  0
 18 30  2  0  0  0  0
 18 31  1  0  0  0  0
 19 21  2  0  0  0  0
 19 36  1  0  0  0  0
 20 22  2  0  0  0  0
 20 37  1  0  0  0  0
 21 45  1  0  0  0  0
 22 38  1  0  0  0  0
 23 81  1  0  0  0  0
 24 82  1  0  0  0  0
 25 27  2  0  0  0  0
 25 81  1  0  0  0  0
 26 83  1  0  0  0  0
 27 84  1  0  0  0  0
 28 65  2  0  0  0  0
 29 53  1  0  0  0  0
 29 64  1  0  0  0  0
 30 67  1  0  0  0  0
 30 70  1  0  0  0  0
 31 71  1  0  0  0  0
 31 76  2  0  0  0  0
 32 46  1  0  0  0  0
 32 72  1  0  0  0  0
 32 77  2  0  0  0  0
 33 61  1  0  0  0  0
 33 68  1  0  0  0  0
 33 78  2  0  0  0  0
 34 62  1  0  0  0  0
 34 73  1  0  0  0  0
 34 79  2  0  0  0  0
 35 69  1  0  0  0  0
 35 74  1  0  0  0  0
 35 80  2  0  0  0  0
 36 39  1  0  0  0  0
 37 46  1  0  0  0  0
 38 68  1  0  0  0  0
 39 41  1  0  0  0  0
 40 42  1  0  0  0  0
 40 43  1  0  0  0  0
 41 45  1  0  0  0  0
 42 47  1  0  0  0  0
 43 69  1  0  0  0  0
 44 47  1  0  0  0  0
 44 69  1  0  0  0  0
 45 72  1  0  0  0  0
 46 68  1  0  0  0  0
 47 67  1  0  0  0  0
 48 62  1  0  0  0  0
 49 63  1  0  0  0  0
 50 63  1  0  0  0  0
 51 63  1  0  0  0  0
 52 75  1  0  0  0  0
 53 54  1  0  0  0  0
 54 55  1  0  0  0  0
 55 56  1  0  0  0  0
 56 59  1  0  0  0  0
 57 58  1  0  0  0  0
 57 60  1  0  0  0  0
 58 66  1  0  0  0  0
 59 74  1  0  0  0  0
 60 82  1  0  0  0  0
 61 63  1  0  0  0  0
 61 73  1  0  0  0  0
 62 75  1  0  0  0  0
 65 67  1  0  0  0  0
M  CHG  1  75   1
M  ISO  4  35 100  60 101  74 100  82 101
M  END
> <Batch ID>
0043

> <Smiles>
CNC(C)C(=O)NC(C(=O)N1Cc2cc([101O:1][101CH2:1]CCn3cnc(CCCCC[100NH:0][100C:0](=O)N4CCCC(n5nc(-c6ccc(Oc7ccc(F)cc7F)cc6)c(C(N)=O)c5N)C4)c3)ccc2CC1C(=O)NC1CCCc2ccccc21)C(C)(C)C

> <Shape>
0.242

> <Color>
0.073

> <Negative vol penalty>
0.000

$$$$

  -OEChem-04052317143D

 87 95  0     1  0  0  0  0  0999 V2000
  -16.7081  -29.7142   23.4112 C   0  0  0  0  0  0  0  0  0  0  0  0
  -17.1696  -29.0016   22.3091 C   0  0  0  0  0  0  0  0  0  0  0  0
  -26.3328  -12.7728   21.5764 C   0  0  0  0  0  0  0  0  0  0  0  0
  -25.9305  -13.5876   19.3379 C   0  0  0  0  0  0  0  0  0  0  0  0
  -17.5529  -29.9407   24.4970 C   0  0  0  0  0  0  0  0  0  0  0  0
  -18.4766  -28.5160   22.2917 C   0  0  0  0  0  0  0  0  0  0  0  0
  -20.4310  -23.2963   19.7538 C   0  0  0  0  0  0  0  0  0  0  0  0
  -25.1062  -12.1090   21.5553 C   0  0  0  0  0  0  0  0  0  0  0  0
  -24.7039  -12.9238   19.3167 C   0  0  0  0  0  0  0  0  0  0  0  0
  -21.0448  -23.0191   18.5330 C   0  0  0  0  0  0  0  0  0  0  0  0
  -22.2436   -9.9041   21.9539 C   0  0  0  0  0  0  0  0  0  0  0  0
  -22.2079   -8.5922   22.4264 C   0  0  0  0  0  0  0  0  0  0  0  0
  -23.2029  -23.0918   19.6085 C   0  0  0  0  0  0  0  0  0  0  0  0
  -28.5729  -25.7561   16.6467 C   0  0  0  0  0  0  0  0  0  0  0  0
  -27.2247  -24.4396   15.1347 C   0  0  0  0  0  0  0  0  0  0  0  0
  -23.8050   -7.9396   20.7351 C   0  0  0  0  0  0  0  0  0  0  0  0
  -26.7449  -13.5121   20.4677 C   0  0  0  0  0  0  0  0  0  0  0  0
  -29.2599  -13.6921   20.0803 C   0  0  0  0  0  0  0  0  0  0  0  0
  -18.8678  -29.4492   24.4971 C   0  0  0  0  0  0  0  0  0  0  0  0
  -21.2006  -23.4844   20.9109 C   0  0  0  0  0  0  0  0  0  0  0  0
  -19.3402  -28.7372   23.3780 C   0  0  0  0  0  0  0  0  0  0  0  0
  -22.5963  -23.3687   20.8432 C   0  0  0  0  0  0  0  0  0  0  0  0
  -27.9126  -25.6176   15.4259 C   0  0  0  0  0  0  0  0  0  0  0  0
  -28.5453  -24.7165   17.5764 C   0  0  0  0  0  0  0  0  0  0  0  0
  -27.1970  -23.4001   16.0644 C   0  0  0  0  0  0  0  0  0  0  0  0
  -27.8573  -23.5386   17.2853 C   0  0  0  0  0  0  0  0  0  0  0  0
  -24.2917  -12.1845   20.4255 C   0  0  0  0  0  0  0  0  0  0  0  0
  -22.4311  -22.9197   18.4597 C   0  0  0  0  0  0  0  0  0  0  0  0
  -23.0599  -10.2337   20.8719 C   0  0  0  0  0  0  0  0  0  0  0  0
  -22.9886   -7.6100   21.8170 C   0  0  0  0  0  0  0  0  0  0  0  0
  -23.8406   -9.2515   20.2625 C   0  0  0  0  0  0  0  0  0  0  0  0
  -28.0117  -14.1985   20.4891 C   0  0  0  0  0  0  0  0  0  0  0  0
  -30.1378  -14.7258   20.2978 C   0  0  0  0  0  0  0  0  0  0  0  0
  -29.5959  -12.4026   19.5510 C   0  0  0  0  0  0  0  0  0  0  0  0
  -21.6566  -25.8928   22.9346 C   0  0  0  0  0  0  0  0  0  0  0  0
  -23.3631  -23.6767   24.5775 C   0  0  0  0  0  0  0  0  0  0  0  0
  -25.1443  -20.7662   24.5219 C   0  0  0  0  0  0  0  0  0  0  0  0
  -29.4500  -20.6667   20.5871 C   0  0  0  0  0  0  0  0  0  0  0  0
  -19.7588  -29.7598   25.6736 C   0  0  0  0  0  0  0  0  0  0  0  0
  -20.5216  -23.7563   22.2253 C   0  0  0  0  0  0  0  0  0  0  0  0
  -23.4664  -23.5419   22.0603 C   0  0  0  0  0  0  0  0  0  0  0  0
  -21.0111  -28.8891   25.7359 C   0  0  0  0  0  0  0  0  0  0  0  0
  -30.8056  -18.5434   23.1032 C   0  0  0  0  0  0  0  0  0  0  0  0
  -21.6777  -28.8139   24.3659 C   0  0  0  0  0  0  0  0  0  0  0  0
  -30.3559  -17.1434   22.6817 C   0  0  0  0  0  0  0  0  0  0  0  0
  -29.7389  -19.5937   22.8011 C   0  0  0  0  0  0  0  0  0  0  0  0
  -28.8142  -18.2100   20.9833 C   0  0  0  0  0  0  0  0  0  0  0  0
  -20.7436  -28.1729   23.3324 C   0  0  1  0  0  0  0  0  0  0  0  0
  -21.4346  -24.4383   23.2395 C   0  0  1  0  0  0  0  0  0  0  0  0
  -29.8793  -17.1249   21.2169 C   0  0  2  0  0  0  0  0  0  0  0  0
  -27.9428  -26.7287   14.4316 C   0  0  0  0  0  0  0  0  0  0  0  0
  -26.7749  -27.1669   20.8184 C   0  0  0  0  0  0  0  0  0  0  0  0
  -26.4494  -19.2266   26.0131 C   0  0  0  0  0  0  0  0  0  0  0  0
  -25.6937  -25.6460   24.5668 C   0  0  0  0  0  0  0  0  0  0  0  0
  -27.2064  -23.7515   25.1921 C   0  0  0  0  0  0  0  0  0  0  0  0
  -25.3630  -24.4328   26.7285 C   0  0  0  0  0  0  0  0  0  0  0  0
  -23.3119  -18.5049   23.9854 C   0  0  0  0  0  0  0  0  0  0  0  0
  -29.2595  -24.8905   18.8769 C   0  0  0  0  0  0  0  0  0  0  0  0
  -26.4462  -22.1372   15.7253 C   0  0  0  0  0  0  0  0  0  0  0  0
  -27.8275  -22.4243   18.2824 C   0  0  0  0  0  0  0  0  0  0  0  0
  -27.2662  -25.9750   20.0126 C   0  0  0  0  0  0  0  0  0  0  0  0
  -28.7466  -26.1110   19.6567 C   0  0  0  0  0  0  0  0  0  0  0  0
  -24.9268  -22.2728   15.8456 C   0  0  0  0  0  0  0  0  0  0  0  0
  -29.1156  -21.5959   18.3103 C   0  0  0  0  0  0  0  0  0  0  0  0
  -24.4570  -22.5619   17.2666 C   0  0  0  0  0  0  0  0  0  1  0  0
  -24.8028  -23.2227   24.5805 C   0  0  1  0  0  0  0  0  0  0  0  0
  -25.0889  -19.5343   25.4072 C   0  0  2  0  0  0  0  0  0  0  0  0
  -25.7505  -24.2618   25.2435 C   0  0  0  0  0  0  0  0  0  0  0  0
  -28.0857  -15.4560   20.9330 N   0  0  0  0  0  0  0  0  0  0  0  0
  -29.3911  -15.7485   20.8044 N   0  0  0  0  0  0  0  0  0  0  0  0
  -22.7560  -23.8126   23.3210 N   0  0  0  0  0  0  0  0  0  0  0  0
  -29.3317  -19.5242   21.3956 N   0  0  0  0  0  0  0  0  0  0  0  0
  -31.4678  -14.8505   20.1034 N   0  0  0  0  0  0  0  0  0  0  0  0
  -28.5725  -11.4583   19.3920 N   0  0  0  0  0  0  0  0  0  0  0  0
  -20.7173  -26.7354   23.4977 N   0  0  0  0  0  0  0  0  0  0  0  0
  -24.8157  -21.9104   25.2177 N   0  0  0  0  0  0  0  0  0  0  0  0
  -29.0478  -20.5130   19.2660 N   0  0  0  0  0  0  0  0  0  0  0  0
  -24.6466  -18.3494   24.6189 N   0  3  0  0  0  0  0  0  0  0  0  0
  -30.7716  -12.0913   19.2440 O   0  0  0  0  0  0  0  0  0  0  0  0
  -22.6103  -26.2260   22.2410 O   0  0  0  0  0  0  0  0  0  0  0  0
  -22.7958  -23.8956   25.6508 O   0  0  0  0  0  0  0  0  0  0  0  0
  -25.4521  -20.7188   23.3330 O   0  0  0  0  0  0  0  0  0  0  0  0
  -29.8871  -21.7424   21.0098 O   0  0  0  0  0  0  0  0  0  0  0  0
  -23.0949  -11.5368   20.4044 O   0  0  0  0  0  0  0  0  0  0  0  0
  -23.0327  -22.6499   17.2692 O   0  0  0  0  0  0  0  0  0  1  0  0
  -22.9554   -6.3505   22.2719 F   0  0  0  0  0  0  0  0  0  0  0  0
  -24.6277   -9.5623   19.2234 F   0  0  0  0  0  0  0  0  0  0  0  0
  1  2  1  0  0  0  0
  1  5  2  0  0  0  0
  2  6  2  0  0  0  0
  3  8  2  0  0  0  0
  3 17  1  0  0  0  0
  4  9  1  0  0  0  0
  4 17  2  0  0  0  0
  5 19  1  0  0  0  0
  6 21  1  0  0  0  0
  7 10  2  0  0  0  0
  7 20  1  0  0  0  0
  8 27  1  0  0  0  0
  9 27  2  0  0  0  0
 10 28  1  0  0  0  0
 11 12  2  0  0  0  0
 11 29  1  0  0  0  0
 12 30  1  0  0  0  0
 13 22  1  0  0  0  0
 13 28  2  0  0  0  0
 14 23  2  0  0  0  0
 14 24  1  0  0  0  0
 15 23  1  0  0  0  0
 15 25  2  0  0  0  0
 16 30  2  0  0  0  0
 16 31  1  0  0  0  0
 17 32  1  0  0  0  0
 18 32  1  0  0  0  0
 18 33  2  0  0  0  0
 18 34  1  0  0  0  0
 19 21  2  0  0  0  0
 19 39  1  0  0  0  0
 20 22  2  0  0  0  0
 20 40  1  0  0  0  0
 21 48  1  0  0  0  0
 22 41  1  0  0  0  0
 23 51  1  0  0  0  0
 24 26  2  0  0  0  0
 24 58  1  0  0  0  0
 25 26  1  0  0  0  0
 25 59  1  0  0  0  0
 26 60  1  0  0  0  0
 27 84  1  0  0  0  0
 28 85  1  0  0  0  0
 29 31  2  0  0  0  0
 29 84  1  0  0  0  0
 30 86  1  0  0  0  0
 31 87  1  0  0  0  0
 32 69  2  0  0  0  0
 33 70  1  0  0  0  0
 33 73  1  0  0  0  0
 34 74  1  0  0  0  0
 34 79  2  0  0  0  0
 35 49  1  0  0  0  0
 35 75  1  0  0  0  0
 35 80  2  0  0  0  0
 36 66  1  0  0  0  0
 36 71  1  0  0  0  0
 36 81  2  0  0  0  0
 37 67  1  0  0  0  0
 37 76  1  0  0  0  0
 37 82  2  0  0  0  0
 38 72  1  0  0  0  0
 38 77  1  0  0  0  0
 38 83  2  0  0  0  0
 39 42  1  0  0  0  0
 40 49  1  0  0  0  0
 41 71  1  0  0  0  0
 42 44  1  0  0  0  0
 43 45  1  0  0  0  0
 43 46  1  0  0  0  0
 44 48  1  0  0  0  0
 45 50  1  0  0  0  0
 46 72  1  0  0  0  0
 47 50  1  0  0  0  0
 47 72  1  0  0  0  0
 48 75  1  0  0  0  0
 49 71  1  0  0  0  0
 50 70  1  0  0  0  0
 52 61  1  0  0  0  0
 53 67  1  0  0  0  0
 54 68  1  0  0  0  0
 55 68  1  0  0  0  0
 56 68  1  0  0  0  0
 57 78  1  0  0  0  0
 58 62  1  0  0  0  0
 59 63  1  0  0  0  0
 60 64  1  0  0  0  0
 61 62  1  0  0  0  0
 63 65  1  0  0  0  0
 64 77  1  0  0  0  0
 65 85  1  0  0  0  0
 66 68  1  0  0  0  0
 66 76  1  0  0  0  0
 67 78  1  0  0  0  0
 69 70  1  0  0  0  0
M  CHG  1  78   1
M  ISO  4  38 100  65 101  77 100  85 101
M  END
> <Batch ID>
0043

> <Smiles>
CCCCc1cc(C)cc(CC[101CH2:1][101O:1]c2ccc3c(c2)CN(C(=O)C(NC(=O)C(C)NC)C(C)(C)C)C(C(=O)NC2CCCc4ccccc42)C3)c1CC[100NH:0][100C:0](=O)N1CCCC(n2nc(-c3ccc(Oc4ccc(F)cc4F)cc3)c(C(N)=O)c2N)C1

> <Shape>
0.226

> <Color>
0.070

> <Negative vol penalty>
0.000

$$$$

  -OEChem-04052317143D

 84 92  0     1  0  0  0  0  0999 V2000
  -24.4831  -19.9369   22.1574 C   0  0  0  0  0  0  0  0  0  0  0  0
  -25.2676  -20.8828   21.5051 C   0  0  0  0  0  0  0  0  0  0  0  0
  -26.9533  -11.8116   21.7672 C   0  0  0  0  0  0  0  0  0  0  0  0
  -26.4687  -12.2537   19.4419 C   0  0  0  0  0  0  0  0  0  0  0  0
  -23.1538  -20.2261   22.4624 C   0  0  0  0  0  0  0  0  0  0  0  0
  -24.7226  -22.1181   21.1565 C   0  0  0  0  0  0  0  0  0  0  0  0
  -27.8061  -25.9816   22.2566 C   0  0  0  0  0  0  0  0  0  0  0  0
  -25.8445  -10.9684   21.8380 C   0  0  0  0  0  0  0  0  0  0  0  0
  -25.3599  -11.4104   19.5127 C   0  0  0  0  0  0  0  0  0  0  0  0
  -28.8708  -26.2141   21.3871 C   0  0  0  0  0  0  0  0  0  0  0  0
  -24.7542   -8.0859   19.4701 C   0  0  0  0  0  0  0  0  0  0  0  0
  -24.5659   -7.1768   18.4292 C   0  0  0  0  0  0  0  0  0  0  0  0
  -27.6207  -27.9925   20.3413 C   0  0  0  0  0  0  0  0  0  0  0  0
  -22.4232   -8.1804   17.9403 C   0  0  0  0  0  0  0  0  0  0  0  0
  -27.2765  -24.4157   16.9394 C   0  0  0  0  0  0  0  0  0  0  0  0
  -27.2654  -12.4544   20.5692 C   0  0  0  0  0  0  0  0  0  0  0  0
  -29.7287  -12.9706   20.1530 C   0  0  0  0  0  0  0  0  0  0  0  0
  -22.5951  -21.4692   22.1260 C   0  0  0  0  0  0  0  0  0  0  0  0
  -26.6344  -26.7470   22.1677 C   0  0  0  0  0  0  0  0  0  0  0  0
  -23.3842  -22.4237   21.4561 C   0  0  0  0  0  0  0  0  0  0  0  0
  -26.5435  -27.7695   21.2126 C   0  0  0  0  0  0  0  0  0  0  0  0
  -25.0478  -10.7677   20.7108 C   0  0  0  0  0  0  0  0  0  0  0  0
  -28.7771  -27.2177   20.4274 C   0  0  0  0  0  0  0  0  0  0  0  0
  -23.7771   -9.0423   19.7462 C   0  0  0  0  0  0  0  0  0  0  0  0
  -23.4004   -7.2240   17.6642 C   0  0  0  0  0  0  0  0  0  0  0  0
  -22.6116   -9.0895   18.9813 C   0  0  0  0  0  0  0  0  0  0  0  0
  -28.4103  -13.3260   20.4955 C   0  0  0  0  0  0  0  0  0  0  0  0
  -27.7414  -23.3108   16.2606 C   0  0  0  0  0  0  0  0  0  0  0  0
  -29.7359  -24.3707   15.9018 C   0  0  0  0  0  0  0  0  0  0  0  0
  -29.2706  -25.4758   16.5799 C   0  0  0  0  0  0  0  0  0  0  0  0
  -30.4324  -14.1477   20.2292 C   0  0  0  0  0  0  0  0  0  0  0  0
  -30.2689  -11.6909   19.7976 C   0  0  0  0  0  0  0  0  0  0  0  0
  -23.5822  -26.1122   21.5475 C   0  0  0  0  0  0  0  0  0  0  0  0
  -23.1838  -29.2441   22.2925 C   0  0  0  0  0  0  0  0  0  0  0  0
  -24.5530  -32.3604   22.5389 C   0  0  0  0  0  0  0  0  0  0  0  0
  -28.8303  -19.8956   19.7334 C   0  0  0  0  0  0  0  0  0  0  0  0
  -21.1398  -21.7183   22.4341 C   0  0  0  0  0  0  0  0  0  0  0  0
  -25.5053  -26.5015   23.1306 C   0  0  0  0  0  0  0  0  0  0  0  0
  -25.3154  -28.6326   21.0893 C   0  0  0  0  0  0  0  0  0  0  0  0
  -20.7461  -23.1915   22.3649 C   0  0  0  0  0  0  0  0  0  0  0  0
  -30.4539  -18.3570   22.5035 C   0  0  0  0  0  0  0  0  0  0  0  0
  -21.3037  -23.8342   21.0988 C   0  0  0  0  0  0  0  0  0  0  0  0
  -30.2332  -16.8611   22.2721 C   0  0  0  0  0  0  0  0  0  0  0  0
  -29.2432  -19.1799   22.0688 C   0  0  0  0  0  0  0  0  0  0  0  0
  -28.5749  -17.4433   20.4528 C   0  0  0  0  0  0  0  0  0  0  0  0
  -22.8362  -23.7843   21.0837 C   0  0  1  0  0  0  0  0  0  0  0  0
  -24.1596  -27.0003   22.6131 C   0  0  1  0  0  0  0  0  0  0  0  0
  -29.7906  -16.5769   20.8241 C   0  0  2  0  0  0  0  0  0  0  0  0
  -31.1077  -24.3367   15.3198 C   0  0  0  0  0  0  0  0  0  0  0  0
  -23.9702  -34.7263   23.1391 C   0  0  0  0  0  0  0  0  0  0  0  0
  -21.7655  -29.5724   19.6110 C   0  0  0  0  0  0  0  0  0  0  0  0
  -22.0586  -32.0484   19.8381 C   0  0  0  0  0  0  0  0  0  0  0  0
  -20.6979  -30.7966   21.5126 C   0  0  0  0  0  0  0  0  0  0  0  0
  -26.5068  -32.4004   24.7615 C   0  0  0  0  0  0  0  0  0  0  0  0
  -26.8775  -22.1108   16.0893 C   0  0  0  0  0  0  0  0  0  0  0  0
  -30.1271  -26.7028   16.7653 C   0  0  0  0  0  0  0  0  0  0  0  0
  -27.0024  -21.0649   17.2164 C   0  0  0  0  0  0  0  0  0  0  0  0
  -31.2041  -26.5453   17.8408 C   0  0  0  0  0  0  0  0  0  0  0  0
  -28.3958  -20.4552   17.3549 C   0  0  0  0  0  0  0  0  0  0  0  0
  -30.6349  -26.3287   19.2382 C   0  0  0  0  0  0  0  0  0  1  0  0
  -23.2130  -30.5394   21.5177 C   0  0  1  0  0  0  0  0  0  0  0  0
  -24.5057  -33.3967   23.6472 C   0  0  2  0  0  0  0  0  0  0  0  0
  -21.9563  -30.7218   20.6206 C   0  0  0  0  0  0  0  0  0  0  0  0
  -28.0327  -25.5180   17.1112 N   0  0  0  0  0  0  0  0  0  0  0  0
  -28.2815  -14.6270   20.7692 N   0  0  0  0  0  0  0  0  0  0  0  0
  -28.9795  -23.2685   15.7297 N   0  0  0  0  0  0  0  0  0  0  0  0
  -29.5281  -15.0994   20.5987 N   0  0  0  0  0  0  0  0  0  0  0  0
  -24.2358  -28.3496   22.0494 N   0  0  0  0  0  0  0  0  0  0  0  0
  -28.8759  -18.8645   20.6862 N   0  0  0  0  0  0  0  0  0  0  0  0
  -31.7304  -14.4510   20.0156 N   0  0  0  0  0  0  0  0  0  0  0  0
  -29.4065  -10.5865   19.7682 N   0  0  0  0  0  0  0  0  0  0  0  0
  -23.3838  -24.8055   21.9508 N   0  0  0  0  0  0  0  0  0  0  0  0
  -23.4037  -31.5994   22.5018 N   0  0  0  0  0  0  0  0  0  0  0  0
  -28.4796  -19.5095   18.4455 N   0  0  0  0  0  0  0  0  0  0  0  0
  -25.8693  -33.6214   24.2048 N   0  3  0  0  0  0  0  0  0  0  0  0
  -31.4837  -11.5286   19.5305 O   0  0  0  0  0  0  0  0  0  0  0  0
  -23.3336  -26.5783   20.4418 O   0  0  0  0  0  0  0  0  0  0  0  0
  -22.2654  -29.0367   23.0895 O   0  0  0  0  0  0  0  0  0  0  0  0
  -25.5119  -32.2406   21.7795 O   0  0  0  0  0  0  0  0  0  0  0  0
  -29.0886  -21.0722   20.0088 O   0  0  0  0  0  0  0  0  0  0  0  0
  -23.9659   -9.9447   20.7795 O   0  0  0  0  0  0  0  0  0  0  0  0
  -29.8147  -27.4462   19.5770 O   0  0  0  0  0  0  0  0  0  1  0  0
  -23.2203   -6.3519   16.6637 F   0  0  0  0  0  0  0  0  0  0  0  0
  -21.6698  -10.0068   19.2410 F   0  0  0  0  0  0  0  0  0  0  0  0
  1  2  1  0  0  0  0
  1  5  2  0  0  0  0
  2  6  2  0  0  0  0
  3  8  2  0  0  0  0
  3 16  1  0  0  0  0
  4  9  1  0  0  0  0
  4 16  2  0  0  0  0
  5 18  1  0  0  0  0
  6 20  1  0  0  0  0
  7 10  2  0  0  0  0
  7 19  1  0  0  0  0
  8 22  1  0  0  0  0
  9 22  2  0  0  0  0
 10 23  1  0  0  0  0
 11 12  2  0  0  0  0
 11 24  1  0  0  0  0
 12 25  1  0  0  0  0
 13 21  1  0  0  0  0
 13 23  2  0  0  0  0
 14 25  2  0  0  0  0
 14 26  1  0  0  0  0
 15 28  1  0  0  0  0
 15 64  2  0  0  0  0
 16 27  1  0  0  0  0
 17 27  1  0  0  0  0
 17 31  2  0  0  0  0
 17 32  1  0  0  0  0
 18 20  2  0  0  0  0
 18 37  1  0  0  0  0
 19 21  2  0  0  0  0
 19 38  1  0  0  0  0
 20 46  1  0  0  0  0
 21 39  1  0  0  0  0
 22 81  1  0  0  0  0
 23 82  1  0  0  0  0
 24 26  2  0  0  0  0
 24 81  1  0  0  0  0
 25 83  1  0  0  0  0
 26 84  1  0  0  0  0
 27 65  2  0  0  0  0
 28 55  1  0  0  0  0
 28 66  2  0  0  0  0
 29 30  2  0  0  0  0
 29 49  1  0  0  0  0
 29 66  1  0  0  0  0
 30 56  1  0  0  0  0
 30 64  1  0  0  0  0
 31 67  1  0  0  0  0
 31 70  1  0  0  0  0
 32 71  1  0  0  0  0
 32 76  2  0  0  0  0
 33 47  1  0  0  0  0
 33 72  1  0  0  0  0
 33 77  2  0  0  0  0
 34 61  1  0  0  0  0
 34 68  1  0  0  0  0
 34 78  2  0  0  0  0
 35 62  1  0  0  0  0
 35 73  1  0  0  0  0
 35 79  2  0  0  0  0
 36 69  1  0  0  0  0
 36 74  1  0  0  0  0
 36 80  2  0  0  0  0
 37 40  1  0  0  0  0
 38 47  1  0  0  0  0
 39 68  1  0  0  0  0
 40 42  1  0  0  0  0
 41 43  1  0  0  0  0
 41 44  1  0  0  0  0
 42 46  1  0  0  0  0
 43 48  1  0  0  0  0
 44 69  1  0  0  0  0
 45 48  1  0  0  0  0
 45 69  1  0  0  0  0
 46 72  1  0  0  0  0
 47 68  1  0  0  0  0
 48 67  1  0  0  0  0
 50 62  1  0  0  0  0
 51 63  1  0  0  0  0
 52 63  1  0  0  0  0
 53 63  1  0  0  0  0
 54 75  1  0  0  0  0
 55 57  1  0  0  0  0
 56 58  1  0  0  0  0
 57 59  1  0  0  0  0
 58 60  1  0  0  0  0
 59 74  1  0  0  0  0
 60 82  1  0  0  0  0
 61 63  1  0  0  0  0
 61 73  1  0  0  0  0
 62 75  1  0  0  0  0
 65 67  1  0  0  0  0
M  CHG  1  75   1
M  ISO  4  36 100  60 101  74 100  82 101
M  END
> <Batch ID>
0043

> <Smiles>
CNC(C)C(=O)NC(C(=O)N1Cc2cc([101O:1][101CH2:1]CCc3ncc(CCC[100NH:0][100C:0](=O)N4CCCC(n5nc(-c6ccc(Oc7ccc(F)cc7F)cc6)c(C(N)=O)c5N)C4)nc3C)ccc2CC1C(=O)NC1CCCc2ccccc21)C(C)(C)C

> <Shape>
0.253

> <Color>
0.056

> <Negative vol penalty>
0.000

$$$$

  -OEChem-04052317143D

 87 95  0     1  0  0  0  0  0999 V2000
  -28.5382  -36.6536   22.7831 C   0  0  0  0  0  0  0  0  0  0  0  0
  -28.4622  -35.2710   22.6490 C   0  0  0  0  0  0  0  0  0  0  0  0
  -24.3681   -3.6429   22.4566 C   0  0  0  0  0  0  0  0  0  0  0  0
  -22.5364   -5.2081   22.2777 C   0  0  0  0  0  0  0  0  0  0  0  0
  -27.5079  -37.3492   23.4144 C   0  0  0  0  0  0  0  0  0  0  0  0
  -27.3563  -34.5830   23.1471 C   0  0  0  0  0  0  0  0  0  0  0  0
  -25.5960  -31.1215   19.8969 C   0  0  0  0  0  0  0  0  0  0  0  0
  -23.7059   -2.9865   23.4939 C   0  0  0  0  0  0  0  0  0  0  0  0
  -21.8741   -4.5516   23.3150 C   0  0  0  0  0  0  0  0  0  0  0  0
  -26.2950  -29.9185   19.8075 C   0  0  0  0  0  0  0  0  0  0  0  0
  -20.0282   -1.7485   23.7095 C   0  0  0  0  0  0  0  0  0  0  0  0
  -18.6683   -1.4860   23.5446 C   0  0  0  0  0  0  0  0  0  0  0  0
  -24.6596  -28.8690   21.2369 C   0  0  0  0  0  0  0  0  0  0  0  0
  -18.1754   -2.8067   25.5068 C   0  0  0  0  0  0  0  0  0  0  0  0
  -28.9561  -25.7571   20.6801 C   0  0  0  0  0  0  0  0  0  0  0  0
  -23.7834   -4.7538   21.8485 C   0  0  0  0  0  0  0  0  0  0  0  0
  -24.3696   -5.1613   19.3994 C   0  0  0  0  0  0  0  0  0  0  0  0
  -26.3843  -36.6706   23.9119 C   0  0  0  0  0  0  0  0  0  0  0  0
  -24.4275  -31.2102   20.6672 C   0  0  0  0  0  0  0  0  0  0  0  0
  -26.3107  -35.2701   23.7869 C   0  0  0  0  0  0  0  0  0  0  0  0
  -23.9462  -30.0735   21.3325 C   0  0  0  0  0  0  0  0  0  0  0  0
  -22.4589   -3.4407   23.9231 C   0  0  0  0  0  0  0  0  0  0  0  0
  -25.8284  -28.7927   20.4799 C   0  0  0  0  0  0  0  0  0  0  0  0
  -20.4618   -2.5399   24.7731 C   0  0  0  0  0  0  0  0  0  0  0  0
  -17.7419   -2.0151   24.4431 C   0  0  0  0  0  0  0  0  0  0  0  0
  -19.5354   -3.0690   25.6717 C   0  0  0  0  0  0  0  0  0  0  0  0
  -24.4673   -5.4328   20.7773 C   0  0  0  0  0  0  0  0  0  0  0  0
  -28.2810  -26.2418   19.5816 C   0  0  0  0  0  0  0  0  0  0  0  0
  -28.6687  -24.2774   18.4766 C   0  0  0  0  0  0  0  0  0  0  0  0
  -29.3444  -23.7931   19.5749 C   0  0  0  0  0  0  0  0  0  0  0  0
  -25.2074   -6.0756   18.8091 C   0  0  0  0  0  0  0  0  0  0  0  0
  -23.5911   -4.1712   18.7144 C   0  0  0  0  0  0  0  0  0  0  0  0
  -23.5465  -32.8841   23.2217 C   0  0  0  0  0  0  0  0  0  0  0  0
  -27.0521  -11.4158   20.6408 C   0  0  0  0  0  0  0  0  0  0  0  0
  -20.6571  -31.5355   22.6258 C   0  0  0  0  0  0  0  0  0  0  0  0
  -18.8884  -28.9763   21.2226 C   0  0  0  0  0  0  0  0  0  0  0  0
  -25.3178  -37.4602   24.6288 C   0  0  0  0  0  0  0  0  0  0  0  0
  -23.6704  -32.5083   20.7318 C   0  0  0  0  0  0  0  0  0  0  0  0
  -22.6858  -30.1110   22.1561 C   0  0  0  0  0  0  0  0  0  0  0  0
  -24.0053  -36.6989   24.7961 C   0  0  0  0  0  0  0  0  0  0  0  0
  -29.1605   -8.6265   19.6399 C   0  0  0  0  0  0  0  0  0  0  0  0
  -24.2697  -35.2825   25.2969 C   0  0  0  0  0  0  0  0  0  0  0  0
  -28.1801   -7.4573   19.7227 C   0  0  0  0  0  0  0  0  0  0  0  0
  -28.8911   -9.6630   20.7277 C   0  0  0  0  0  0  0  0  0  0  0  0
  -26.5059   -9.0093   20.8188 C   0  0  0  0  0  0  0  0  0  0  0  0
  -25.1157  -34.4911   24.2922 C   0  0  1  0  0  0  0  0  0  0  0  0
  -22.7737  -32.6164   21.9612 C   0  0  1  0  0  0  0  0  0  0  0  0
  -26.7245   -7.9562   19.7196 C   0  0  2  0  0  0  0  0  0  0  0  0
  -28.5029  -23.4580   17.2426 C   0  0  0  0  0  0  0  0  0  0  0  0
  -16.5444  -28.1285   20.9325 C   0  0  0  0  0  0  0  0  0  0  0  0
  -20.6506  -30.5702   25.5202 C   0  0  0  0  0  0  0  0  0  0  0  0
  -18.8179  -28.9769   24.9116 C   0  0  0  0  0  0  0  0  0  0  0  0
  -18.4507  -31.4355   24.7042 C   0  0  0  0  0  0  0  0  0  0  0  0
  -19.0611  -29.1654   18.2741 C   0  0  0  0  0  0  0  0  0  0  0  0
  -29.9478  -22.4119   19.5803 C   0  0  0  0  0  0  0  0  0  0  0  0
  -27.6939  -27.6096   19.5988 C   0  0  0  0  0  0  0  0  0  1  0  0
  -28.1215  -12.4771   20.5785 C   0  0  0  0  0  0  0  0  0  0  0  0
  -28.8850  -21.3312   19.7909 C   0  0  0  0  0  0  0  0  0  0  0  0
  -27.5198  -13.8765   20.5070 C   0  0  0  0  0  0  0  0  0  0  0  0
  -29.5127  -19.9358   19.8301 C   0  0  0  0  0  0  0  0  0  0  0  0
  -28.5893  -14.9662   20.3843 C   0  0  0  0  0  0  0  0  0  0  0  0
  -28.4457  -18.8537   20.0096 C   0  0  0  0  0  0  0  0  0  0  0  0
  -27.9564  -16.3565   20.2827 C   0  0  0  0  0  0  0  0  0  0  0  0
  -29.0249  -17.4411   20.1279 C   0  0  0  0  0  0  0  0  0  0  0  0
  -19.9626  -30.2643   23.0506 C   0  0  1  0  0  0  0  0  0  0  0  0
  -17.6590  -28.9710   20.3321 C   0  0  2  0  0  0  0  0  0  0  0  0
  -19.4953  -30.3112   24.5328 C   0  0  0  0  0  0  0  0  0  0  0  0
  -29.5000  -24.5240   20.6965 N   0  0  0  0  0  0  0  0  0  0  0  0
  -25.3015   -6.4406   21.0464 N   0  0  0  0  0  0  0  0  0  0  0  0
  -28.1251  -25.5107   18.4601 N   0  0  0  0  0  0  0  0  0  0  0  0
  -25.7357   -6.8104   19.8295 N   0  0  0  0  0  0  0  0  0  0  0  0
  -21.9845  -31.4050   22.1935 N   0  0  0  0  0  0  0  0  0  0  0  0
  -27.4876  -10.0922   20.7091 N   0  0  0  0  0  0  0  0  0  0  0  0
  -25.5365   -6.3147   17.5218 N   0  0  0  0  0  0  0  0  0  0  0  0
  -22.7843   -3.3127   19.4736 N   0  0  0  0  0  0  0  0  0  0  0  0
  -24.2981  -34.0431   23.1853 N   0  0  0  0  0  0  0  0  0  0  0  0
  -18.8853  -30.0474   22.0910 N   0  0  0  0  0  0  0  0  0  0  0  0
  -17.9945  -28.4185   18.9893 N   0  3  0  0  0  0  0  0  0  0  0  0
  -23.6228   -4.0406   17.4672 O   0  0  0  0  0  0  0  0  0  0  0  0
  -23.4657  -32.0982   24.1584 O   0  0  0  0  0  0  0  0  0  0  0  0
  -25.8659  -11.7548   20.6263 O   0  0  0  0  0  0  0  0  0  0  0  0
  -20.0422  -32.6040   22.6689 O   0  0  0  0  0  0  0  0  0  0  0  0
  -19.7620  -28.1144   21.1571 O   0  0  0  0  0  0  0  0  0  0  0  0
  -21.8123   -2.8002   24.9351 O   0  0  0  0  0  0  0  0  0  0  0  0
  -26.5136  -27.6097   20.3942 O   0  0  0  0  0  0  0  0  0  1  0  0
  -16.4358   -1.7643   24.2837 F   0  0  0  0  0  0  0  0  0  0  0  0
  -19.9459   -3.8311   26.6948 F   0  0  0  0  0  0  0  0  0  0  0  0
  1  2  1  0  0  0  0
  1  5  2  0  0  0  0
  2  6  2  0  0  0  0
  3  8  2  0  0  0  0
  3 16  1  0  0  0  0
  4  9  1  0  0  0  0
  4 16  2  0  0  0  0
  5 18  1  0  0  0  0
  6 20  1  0  0  0  0
  7 10  2  0  0  0  0
  7 19  1  0  0  0  0
  8 22  1  0  0  0  0
  9 22  2  0  0  0  0
 10 23  1  0  0  0  0
 11 12  2  0  0  0  0
 11 24  1  0  0  0  0
 12 25  1  0  0  0  0
 13 21  1  0  0  0  0
 13 23  2  0  0  0  0
 14 25  2  0  0  0  0
 14 26  1  0  0  0  0
 15 28  1  0  0  0  0
 15 68  2  0  0  0  0
 16 27  1  0  0  0  0
 17 27  1  0  0  0  0
 17 31  2  0  0  0  0
 17 32  1  0  0  0  0
 18 20  2  0  0  0  0
 18 37  1  0  0  0  0
 19 21  2  0  0  0  0
 19 38  1  0  0  0  0
 20 46  1  0  0  0  0
 21 39  1  0  0  0  0
 22 84  1  0  0  0  0
 23 85  1  0  0  0  0
 24 26  2  0  0  0  0
 24 84  1  0  0  0  0
 25 86  1  0  0  0  0
 26 87  1  0  0  0  0
 27 69  2  0  0  0  0
 28 56  1  0  0  0  0
 28 70  2  0  0  0  0
 29 30  2  0  0  0  0
 29 49  1  0  0  0  0
 29 70  1  0  0  0  0
 30 55  1  0  0  0  0
 30 68  1  0  0  0  0
 31 71  1  0  0  0  0
 31 74  1  0  0  0  0
 32 75  1  0  0  0  0
 32 79  2  0  0  0  0
 33 47  1  0  0  0  0
 33 76  1  0  0  0  0
 33 80  2  0  0  0  0
 34 57  1  0  0  0  0
 34 73  1  0  0  0  0
 34 81  2  0  0  0  0
 35 65  1  0  0  0  0
 35 72  1  0  0  0  0
 35 82  2  0  0  0  0
 36 66  1  0  0  0  0
 36 77  1  0  0  0  0
 36 83  2  0  0  0  0
 37 40  1  0  0  0  0
 38 47  1  0  0  0  0
 39 72  1  0  0  0  0
 40 42  1  0  0  0  0
 41 43  1  0  0  0  0
 41 44  1  0  0  0  0
 42 46  1  0  0  0  0
 43 48  1  0  0  0  0
 44 73  1  0  0  0  0
 45 48  1  0  0  0  0
 45 73  1  0  0  0  0
 46 76  1  0  0  0  0
 47 72  1  0  0  0  0
 48 71  1  0  0  0  0
 50 66  1  0  0  0  0
 51 67  1  0  0  0  0
 52 67  1  0  0  0  0
 53 67  1  0  0  0  0
 54 78  1  0  0  0  0
 55 58  1  0  0  0  0
 56 85  1  0  0  0  0
 57 59  1  0  0  0  0
 58 60  1  0  0  0  0
 59 61  1  0  0  0  0
 60 62  1  0  0  0  0
 61 63  1  0  0  0  0
 62 64  1  0  0  0  0
 63 64  1  0  0  0  0
 65 67  1  0  0  0  0
 65 77  1  0  0  0  0
 66 78  1  0  0  0  0
 69 71  1  0  0  0  0
M  CHG  1  78   1
M  ISO  4  34 100  56 101  57 100  85 101
M  END
> <Batch ID>
0043

> <Smiles>
CNC(C)C(=O)NC(C(=O)N1Cc2cc([101O:1][101CH2:1]c3cnc(CCCCCCCC[100CH2:0][100C:0](=O)N4CCCC(n5nc(-c6ccc(Oc7ccc(F)cc7F)cc6)c(C(N)=O)c5N)C4)c(C)n3)ccc2CC1C(=O)NC1CCCc2ccccc21)C(C)(C)C

> <Shape>
0.243

> <Color>
0.052

> <Negative vol penalty>
0.000

$$$$

  -OEChem-04052317143D

 83 91  0     1  0  0  0  0  0999 V2000
  -27.7419  -23.6099   18.2575 C   0  0  0  0  0  0  0  0  0  0  0  0
  -26.5580  -23.9984   18.8763 C   0  0  0  0  0  0  0  0  0  0  0  0
  -27.1495  -16.6735   21.8959 C   0  0  0  0  0  0  0  0  0  0  0  0
  -25.4178  -18.0670   20.9491 C   0  0  0  0  0  0  0  0  0  0  0  0
  -28.9601  -24.1227   18.7012 C   0  0  0  0  0  0  0  0  0  0  0  0
  -26.5918  -24.8993   19.9401 C   0  0  0  0  0  0  0  0  0  0  0  0
  -23.0464  -28.4946   19.5545 C   0  0  0  0  0  0  0  0  0  0  0  0
  -26.5235  -15.5413   21.3746 C   0  0  0  0  0  0  0  0  0  0  0  0
  -24.7918  -16.9348   20.4278 C   0  0  0  0  0  0  0  0  0  0  0  0
  -21.7429  -28.1434   19.9027 C   0  0  0  0  0  0  0  0  0  0  0  0
  -25.5759  -12.3177   19.9870 C   0  0  0  0  0  0  0  0  0  0  0  0
  -26.3770  -11.3673   19.3541 C   0  0  0  0  0  0  0  0  0  0  0  0
  -22.0429  -29.1891   22.0558 C   0  0  0  0  0  0  0  0  0  0  0  0
  -27.0838  -13.0306   17.7507 C   0  0  0  0  0  0  0  0  0  0  0  0
  -21.9288  -23.7658   23.2856 C   0  0  0  0  0  0  0  0  0  0  0  0
  -26.5967  -17.9364   21.6831 C   0  0  0  0  0  0  0  0  0  0  0  0
  -28.2228  -19.9000   21.5965 C   0  0  0  0  0  0  0  0  0  0  0  0
  -29.0080  -25.0378   19.7647 C   0  0  0  0  0  0  0  0  0  0  0  0
  -23.8630  -29.1873   20.4599 C   0  0  0  0  0  0  0  0  0  0  0  0
  -27.8119  -25.4239   20.3994 C   0  0  0  0  0  0  0  0  0  0  0  0
  -23.3555  -29.5502   21.7156 C   0  0  0  0  0  0  0  0  0  0  0  0
  -25.3446  -15.6719   20.6406 C   0  0  0  0  0  0  0  0  0  0  0  0
  -21.2419  -28.4881   21.1546 C   0  0  0  0  0  0  0  0  0  0  0  0
  -25.5288  -13.6246   19.5017 C   0  0  0  0  0  0  0  0  0  0  0  0
  -27.1309  -11.7237   18.2360 C   0  0  0  0  0  0  0  0  0  0  0  0
  -26.2827  -13.9811   18.3836 C   0  0  0  0  0  0  0  0  0  0  0  0
  -27.2426  -19.1063   22.2218 C   0  0  0  0  0  0  0  0  0  0  0  0
  -21.1592  -23.8810   24.4588 C   0  0  0  0  0  0  0  0  0  0  0  0
  -21.1745  -24.3834   22.3182 C   0  0  0  0  0  0  0  0  0  0  0  0
  -28.5082  -20.8803   22.5152 C   0  0  0  0  0  0  0  0  0  0  0  0
  -28.8218  -19.7634   20.3010 C   0  0  0  0  0  0  0  0  0  0  0  0
  -26.6142  -28.5682   21.9264 C   0  0  0  0  0  0  0  0  0  0  0  0
  -26.3200  -31.6378   22.9329 C   0  0  0  0  0  0  0  0  0  0  0  0
  -24.2722  -34.2875   23.5907 C   0  0  0  0  0  0  0  0  0  0  0  0
  -25.3845  -23.2728   27.0285 C   0  0  0  0  0  0  0  0  0  0  0  0
  -30.3525  -25.5286   20.2401 C   0  0  0  0  0  0  0  0  0  0  0  0
  -25.2578  -29.5823   20.0589 C   0  0  0  0  0  0  0  0  0  0  0  0
  -24.1846  -30.3117   22.7162 C   0  0  0  0  0  0  0  0  0  0  0  0
  -30.2694  -26.7664   21.1296 C   0  0  0  0  0  0  0  0  0  0  0  0
  -28.5677  -21.6907   27.2302 C   0  0  0  0  0  0  0  0  0  0  0  0
  -29.1846  -26.5916   22.1876 C   0  0  0  0  0  0  0  0  0  0  0  0
  -28.6775  -20.9205   25.9130 C   0  0  0  0  0  0  0  0  0  0  0  0
  -27.1386  -21.6877   27.7682 C   0  0  0  0  0  0  0  0  0  0  0  0
  -26.2268  -21.3901   25.4980 C   0  0  0  0  0  0  0  0  0  0  0  0
  -27.8054  -26.4181   21.5403 C   0  0  1  0  0  0  0  0  0  0  0  0
  -26.1732  -29.8367   21.2525 C   0  0  1  0  0  0  0  0  0  0  0  0
  -27.6386  -21.4126   24.8875 C   0  0  2  0  0  0  0  0  0  0  0  0
  -21.4278  -24.5956   20.8813 C   0  0  0  0  0  0  0  0  0  0  0  0
  -24.3170  -36.6489   24.4386 C   0  0  0  0  0  0  0  0  0  0  0  0
  -26.6708  -30.6054   25.7826 C   0  0  0  0  0  0  0  0  0  0  0  0
  -25.7737  -32.7912   26.6107 C   0  0  0  0  0  0  0  0  0  0  0  0
  -27.8872  -32.7336   25.2869 C   0  0  0  0  0  0  0  0  0  0  0  0
  -23.1876  -35.3440   21.0478 C   0  0  0  0  0  0  0  0  0  0  0  0
  -21.4946  -23.3852   25.8043 C   0  0  0  0  0  0  0  0  0  0  0  0
  -22.2704  -24.3850   26.6982 C   0  0  0  0  0  0  0  0  0  0  0  0
  -18.5790  -26.8945   22.9991 C   0  0  0  0  0  0  0  0  0  0  0  0
  -18.8879  -25.5567   22.3233 C   0  0  0  0  0  0  0  0  0  0  0  0
  -23.6330  -24.7902   26.1402 C   0  0  0  0  0  0  0  0  0  0  0  0
  -19.7122  -27.9070   22.8804 C   0  0  0  0  0  0  0  0  0  1  0  0
  -25.6828  -32.3169   24.1211 C   0  0  1  0  0  0  0  0  0  0  0  0
  -24.3686  -35.7539   23.2102 C   0  0  2  0  0  0  0  0  0  0  0  0
  -26.4884  -32.0957   25.4324 C   0  0  0  0  0  0  0  0  0  0  0  0
  -26.9266  -19.5445   23.4434 N   0  0  0  0  0  0  0  0  0  0  0  0
  -20.0047  -24.5216   24.2573 N   0  0  0  0  0  0  0  0  0  0  0  0
  -20.0432  -24.8146   22.9462 N   0  0  0  0  0  0  0  0  0  0  0  0
  -27.7128  -20.6240   23.5931 N   0  0  0  0  0  0  0  0  0  0  0  0
  -25.5444  -30.6695   22.2797 N   0  0  0  0  0  0  0  0  0  0  0  0
  -26.2032  -22.1666   26.7475 N   0  0  0  0  0  0  0  0  0  0  0  0
  -29.3595  -21.9279   22.4981 N   0  0  0  0  0  0  0  0  0  0  0  0
  -28.4133  -18.6998   19.4849 N   0  0  0  0  0  0  0  0  0  0  0  0
  -27.2914  -27.6959   21.0958 N   0  0  0  0  0  0  0  0  0  0  0  0
  -25.5178  -33.7183   23.7504 N   0  0  0  0  0  0  0  0  0  0  0  0
  -24.5315  -23.6654   26.0043 N   0  0  0  0  0  0  0  0  0  0  0  0
  -23.2441  -36.1297   22.3073 N   0  3  0  0  0  0  0  0  0  0  0  0
  -29.7054  -20.5513   19.8862 O   0  0  0  0  0  0  0  0  0  0  0  0
  -26.3603  -28.3944   23.1126 O   0  0  0  0  0  0  0  0  0  0  0  0
  -27.4610  -31.9599   22.5924 O   0  0  0  0  0  0  0  0  0  0  0  0
  -23.1991  -33.7061   23.7357 O   0  0  0  0  0  0  0  0  0  0  0  0
  -25.4155  -23.8699   28.1099 O   0  0  0  0  0  0  0  0  0  0  0  0
  -24.7336  -14.5673   20.1316 O   0  0  0  0  0  0  0  0  0  0  0  0
  -19.9702  -28.1459   21.4974 O   0  0  0  0  0  0  0  0  0  1  0  0
  -27.9013  -10.8112   17.6293 F   0  0  0  0  0  0  0  0  0  0  0  0
  -26.2424  -15.2353   17.9135 F   0  0  0  0  0  0  0  0  0  0  0  0
  1  2  1  0  0  0  0
  1  5  2  0  0  0  0
  2  6  2  0  0  0  0
  3  8  2  0  0  0  0
  3 16  1  0  0  0  0
  4  9  1  0  0  0  0
  4 16  2  0  0  0  0
  5 18  1  0  0  0  0
  6 20  1  0  0  0  0
  7 10  2  0  0  0  0
  7 19  1  0  0  0  0
  8 22  1  0  0  0  0
  9 22  2  0  0  0  0
 10 23  1  0  0  0  0
 11 12  2  0  0  0  0
 11 24  1  0  0  0  0
 12 25  1  0  0  0  0
 13 21  1  0  0  0  0
 13 23  2  0  0  0  0
 14 25  2  0  0  0  0
 14 26  1  0  0  0  0
 15 28  1  0  0  0  0
 15 29  2  0  0  0  0
 16 27  1  0  0  0  0
 17 27  1  0  0  0  0
 17 30  2  0  0  0  0
 17 31  1  0  0  0  0
 18 20  2  0  0  0  0
 18 36  1  0  0  0  0
 19 21  2  0  0  0  0
 19 37  1  0  0  0  0
 20 45  1  0  0  0  0
 21 38  1  0  0  0  0
 22 80  1  0  0  0  0
 23 81  1  0  0  0  0
 24 26  2  0  0  0  0
 24 80  1  0  0  0  0
 25 82  1  0  0  0  0
 26 83  1  0  0  0  0
 27 63  2  0  0  0  0
 28 54  1  0  0  0  0
 28 64  2  0  0  0  0
 29 48  1  0  0  0  0
 29 65  1  0  0  0  0
 30 66  1  0  0  0  0
 30 69  1  0  0  0  0
 31 70  1  0  0  0  0
 31 75  2  0  0  0  0
 32 46  1  0  0  0  0
 32 71  1  0  0  0  0
 32 76  2  0  0  0  0
 33 60  1  0  0  0  0
 33 67  1  0  0  0  0
 33 77  2  0  0  0  0
 34 61  1  0  0  0  0
 34 72  1  0  0  0  0
 34 78  2  0  0  0  0
 35 68  1  0  0  0  0
 35 73  1  0  0  0  0
 35 79  2  0  0  0  0
 36 39  1  0  0  0  0
 37 46  1  0  0  0  0
 38 67  1  0  0  0  0
 39 41  1  0  0  0  0
 40 42  1  0  0  0  0
 40 43  1  0  0  0  0
 41 45  1  0  0  0  0
 42 47  1  0  0  0  0
 43 68  1  0  0  0  0
 44 47  1  0  0  0  0
 44 68  1  0  0  0  0
 45 71  1  0  0  0  0
 46 67  1  0  0  0  0
 47 66  1  0  0  0  0
 49 61  1  0  0  0  0
 50 62  1  0  0  0  0
 51 62  1  0  0  0  0
 52 62  1  0  0  0  0
 53 74  1  0  0  0  0
 54 55  1  0  0  0  0
 55 58  1  0  0  0  0
 56 57  1  0  0  0  0
 56 59  1  0  0  0  0
 57 65  1  0  0  0  0
 58 73  1  0  0  0  0
 59 81  1  0  0  0  0
 60 62  1  0  0  0  0
 60 72  1  0  0  0  0
 61 74  1  0  0  0  0
 63 66  1  0  0  0  0
 64 65  1  0  0  0  0
M  CHG  1  74   1
M  ISO  4  35 100  59 101  73 100  81 101
M  END
> <Batch ID>
0043

> <Smiles>
CNC(C)C(=O)NC(C(=O)N1Cc2cc([101O:1][101CH2:1]CCn3nc(CCC[100NH:0][100C:0](=O)N4CCCC(n5nc(-c6ccc(Oc7ccc(F)cc7F)cc6)c(C(N)=O)c5N)C4)cc3C)ccc2CC1C(=O)NC1CCCc2ccccc21)C(C)(C)C

> <Shape>
0.262

> <Color>
0.068

> <Negative vol penalty>
0.000

$$$$

  -OEChem-04052317143D

 90 98  0     1  0  0  0  0  0999 V2000
  -26.7950  -23.0482   11.0902 C   0  0  0  0  0  0  0  0  0  0  0  0
  -26.7083  -23.3666   12.4417 C   0  0  0  0  0  0  0  0  0  0  0  0
  -23.0291  -10.0409   19.9156 C   0  0  0  0  0  0  0  0  0  0  0  0
  -23.8423   -9.9122   22.1870 C   0  0  0  0  0  0  0  0  0  0  0  0
  -27.8347  -22.2408   10.6307 C   0  0  0  0  0  0  0  0  0  0  0  0
  -27.6607  -22.8767   13.3347 C   0  0  0  0  0  0  0  0  0  0  0  0
  -29.2930  -26.4154   16.5686 C   0  0  0  0  0  0  0  0  0  0  0  0
  -22.2454   -8.9076   20.1319 C   0  0  0  0  0  0  0  0  0  0  0  0
  -23.0585   -8.7788   22.4033 C   0  0  0  0  0  0  0  0  0  0  0  0
  -28.4599  -26.7307   17.6412 C   0  0  0  0  0  0  0  0  0  0  0  0
  -19.8159   -8.0814   23.0507 C   0  0  0  0  0  0  0  0  0  0  0  0
  -19.0856   -8.0172   24.2374 C   0  0  0  0  0  0  0  0  0  0  0  0
  -29.7927  -25.3273   19.0811 C   0  0  0  0  0  0  0  0  0  0  0  0
  -20.2648   -6.0006   24.8539 C   0  0  0  0  0  0  0  0  0  0  0  0
  -23.9700  -23.5759   20.0958 C   0  0  0  0  0  0  0  0  0  0  0  0
  -23.8276  -10.5432   20.9431 C   0  0  0  0  0  0  0  0  0  0  0  0
  -24.2682  -13.0559   20.9287 C   0  0  0  0  0  0  0  0  0  0  0  0
  -28.8058  -21.7487   11.5170 C   0  0  0  0  0  0  0  0  0  0  0  0
  -30.3776  -25.5437   16.7421 C   0  0  0  0  0  0  0  0  0  0  0  0
  -28.7135  -22.0608   12.8869 C   0  0  0  0  0  0  0  0  0  0  0  0
  -30.6396  -25.0046   18.0097 C   0  0  0  0  0  0  0  0  0  0  0  0
  -22.2601   -8.2765   21.3758 C   0  0  0  0  0  0  0  0  0  0  0  0
  -28.7080  -26.1843   18.8970 C   0  0  0  0  0  0  0  0  0  0  0  0
  -20.7705   -7.1052   22.7655 C   0  0  0  0  0  0  0  0  0  0  0  0
  -19.3101   -6.9768   25.1390 C   0  0  0  0  0  0  0  0  0  0  0  0
  -20.9950   -6.0648   23.6671 C   0  0  0  0  0  0  0  0  0  0  0  0
  -24.6379  -11.7136   20.7200 C   0  0  0  0  0  0  0  0  0  0  0  0
  -25.2885  -23.9738   20.1224 C   0  0  0  0  0  0  0  0  0  0  0  0
  -24.3832  -22.3319   18.2220 C   0  0  0  0  0  0  0  0  0  0  0  0
  -25.7016  -22.7303   18.2480 C   0  0  0  0  0  0  0  0  0  0  0  0
  -25.3809  -13.7779   20.5721 C   0  0  0  0  0  0  0  0  0  0  0  0
  -23.0298  -13.6013   21.4025 C   0  0  0  0  0  0  0  0  0  0  0  0
  -31.1960  -22.7153   15.5443 C   0  0  0  0  0  0  0  0  0  0  0  0
  -33.9367  -23.2451   17.1966 C   0  0  0  0  0  0  0  0  0  0  0  0
  -35.5014  -24.8352   19.7792 C   0  0  0  0  0  0  0  0  0  0  0  0
  -31.0241  -14.2408   21.0796 C   0  0  0  0  0  0  0  0  0  0  0  0
  -29.8842  -20.8408   10.9811 C   0  0  0  0  0  0  0  0  0  0  0  0
  -31.2825  -25.2347   15.5810 C   0  0  0  0  0  0  0  0  0  0  0  0
  -31.8030  -24.0795   18.2530 C   0  0  0  0  0  0  0  0  0  0  0  0
  -31.0653  -20.6700   11.9331 C   0  0  0  0  0  0  0  0  0  0  0  0
  -29.6167  -12.3787   18.2067 C   0  0  0  0  0  0  0  0  0  0  0  0
  -30.5730  -20.3956   13.3505 C   0  0  0  0  0  0  0  0  0  0  0  0
  -28.1869  -12.0934   18.6629 C   0  0  0  0  0  0  0  0  0  0  0  0
  -30.5750  -12.5011   19.3875 C   0  0  0  0  0  0  0  0  0  0  0  0
  -28.7228  -13.2164   20.8611 C   0  0  0  0  0  0  0  0  0  0  0  0
  -29.7415  -21.5690   13.8826 C   0  0  1  0  0  0  0  0  0  0  0  0
  -32.0543  -23.9304   15.7556 C   0  0  1  0  0  0  0  0  0  0  0  0
  -27.7233  -13.1335   19.6976 C   0  0  2  0  0  0  0  0  0  0  0  0
  -23.6459  -22.1303   15.8340 C   0  0  0  0  0  0  0  0  0  0  0  0
  -37.7362  -25.0399   20.9022 C   0  0  0  0  0  0  0  0  0  0  0  0
  -33.5224  -20.5232   18.5118 C   0  0  0  0  0  0  0  0  0  0  0  0
  -35.1910  -21.1896   20.2554 C   0  0  0  0  0  0  0  0  0  0  0  0
  -35.8866  -21.0206   17.8658 C   0  0  0  0  0  0  0  0  0  0  0  0
  -31.5553  -16.3690   22.2056 C   0  0  0  0  0  0  0  0  0  0  0  0
  -35.6588  -27.7325   19.1962 C   0  0  0  0  0  0  0  0  0  0  0  0
  -25.7863  -24.9009   21.2024 C   0  0  0  0  0  0  0  0  0  0  0  0
  -23.8689  -21.4156   17.1647 C   0  0  0  0  0  0  0  0  0  0  0  0
  -26.6749  -22.2637   17.2201 C   0  0  0  0  0  0  0  0  0  0  0  0
  -25.6730  -26.3837   20.8417 C   0  0  0  0  0  0  0  0  0  0  0  0
  -27.9175  -21.5578   17.7959 C   0  0  0  0  0  0  0  0  0  0  0  0
  -27.5688  -20.2695   18.5493 C   0  0  0  0  0  0  0  0  0  0  0  0
  -28.7990  -19.5221   19.0738 C   0  0  0  0  0  0  0  0  0  0  0  0
  -28.4574  -18.1981   19.7621 C   0  0  0  0  0  0  0  0  0  0  0  0
  -29.7194  -17.5084   20.2912 C   0  0  0  0  0  0  0  0  0  0  0  0
  -29.4131  -16.1902   20.9953 C   0  0  0  0  0  0  0  0  0  0  0  0
  -26.5315  -26.7817   19.6467 C   0  0  0  0  0  0  0  0  0  1  0  0
  -34.4168  -22.9438   18.5958 C   0  0  1  0  0  0  0  0  0  0  0  0
  -36.8054  -25.6099   19.8433 C   0  0  2  0  0  0  0  0  0  0  0  0
  -34.7311  -21.4352   18.8025 C   0  0  0  0  0  0  0  0  0  0  0  0
  -23.4937  -22.7478   19.1451 N   0  0  0  0  0  0  0  0  0  0  0  0
  -25.8877  -11.5876   20.2660 N   0  0  0  0  0  0  0  0  0  0  0  0
  -26.1780  -23.5582   19.1989 N   0  0  0  0  0  0  0  0  0  0  0  0
  -26.3130  -12.8600   20.1863 N   0  0  0  0  0  0  0  0  0  0  0  0
  -32.6552  -23.8027   17.0848 N   0  0  0  0  0  0  0  0  0  0  0  0
  -30.0888  -13.4640   20.3761 N   0  0  0  0  0  0  0  0  0  0  0  0
  -25.6431  -15.1020   20.5540 N   0  0  0  0  0  0  0  0  0  0  0  0
  -21.9902  -12.7179   21.7238 N   0  0  0  0  0  0  0  0  0  0  0  0
  -30.6053  -22.6539   14.2966 N   0  0  0  0  0  0  0  0  0  0  0  0
  -35.5509  -23.8290   18.8377 N   0  0  0  0  0  0  0  0  0  0  0  0
  -30.6172  -15.5215   21.4834 N   0  0  0  0  0  0  0  0  0  0  0  0
  -36.5426  -27.0401   20.1691 N   0  3  0  0  0  0  0  0  0  0  0  0
  -22.8448  -14.8363   21.5213 O   0  0  0  0  0  0  0  0  0  0  0  0
  -31.0795  -21.8937   16.4460 O   0  0  0  0  0  0  0  0  0  0  0  0
  -34.6746  -23.0014   16.2385 O   0  0  0  0  0  0  0  0  0  0  0  0
  -34.5369  -25.0941   20.4955 O   0  0  0  0  0  0  0  0  0  0  0  0
  -32.1612  -13.8175   21.3240 O   0  0  0  0  0  0  0  0  0  0  0  0
  -21.4952   -7.1707   21.5873 O   0  0  0  0  0  0  0  0  0  0  0  0
  -27.8961  -26.4898   19.9455 O   0  0  0  0  0  0  0  0  0  1  0  0
  -18.6099   -6.9162   26.2793 F   0  0  0  0  0  0  0  0  0  0  0  0
  -21.9116   -5.1247   23.3992 F   0  0  0  0  0  0  0  0  0  0  0  0
  1  2  1  0  0  0  0
  1  5  2  0  0  0  0
  2  6  2  0  0  0  0
  3  8  2  0  0  0  0
  3 16  1  0  0  0  0
  4  9  1  0  0  0  0
  4 16  2  0  0  0  0
  5 18  1  0  0  0  0
  6 20  1  0  0  0  0
  7 10  2  0  0  0  0
  7 19  1  0  0  0  0
  8 22  1  0  0  0  0
  9 22  2  0  0  0  0
 10 23  1  0  0  0  0
 11 12  2  0  0  0  0
 11 24  1  0  0  0  0
 12 25  1  0  0  0  0
 13 21  1  0  0  0  0
 13 23  2  0  0  0  0
 14 25  2  0  0  0  0
 14 26  1  0  0  0  0
 15 28  1  0  0  0  0
 15 70  2  0  0  0  0
 16 27  1  0  0  0  0
 17 27  1  0  0  0  0
 17 31  2  0  0  0  0
 17 32  1  0  0  0  0
 18 20  2  0  0  0  0
 18 37  1  0  0  0  0
 19 21  2  0  0  0  0
 19 38  1  0  0  0  0
 20 46  1  0  0  0  0
 21 39  1  0  0  0  0
 22 87  1  0  0  0  0
 23 88  1  0  0  0  0
 24 26  2  0  0  0  0
 24 87  1  0  0  0  0
 25 89  1  0  0  0  0
 26 90  1  0  0  0  0
 27 71  2  0  0  0  0
 28 56  1  0  0  0  0
 28 72  2  0  0  0  0
 29 30  2  0  0  0  0
 29 57  1  0  0  0  0
 29 70  1  0  0  0  0
 30 58  1  0  0  0  0
 30 72  1  0  0  0  0
 31 73  1  0  0  0  0
 31 76  1  0  0  0  0
 32 77  1  0  0  0  0
 32 82  2  0  0  0  0
 33 47  1  0  0  0  0
 33 78  1  0  0  0  0
 33 83  2  0  0  0  0
 34 67  1  0  0  0  0
 34 74  1  0  0  0  0
 34 84  2  0  0  0  0
 35 68  1  0  0  0  0
 35 79  1  0  0  0  0
 35 85  2  0  0  0  0
 36 75  1  0  0  0  0
 36 80  1  0  0  0  0
 36 86  2  0  0  0  0
 37 40  1  0  0  0  0
 38 47  1  0  0  0  0
 39 74  1  0  0  0  0
 40 42  1  0  0  0  0
 41 43  1  0  0  0  0
 41 44  1  0  0  0  0
 42 46  1  0  0  0  0
 43 48  1  0  0  0  0
 44 75  1  0  0  0  0
 45 48  1  0  0  0  0
 45 75  1  0  0  0  0
 46 78  1  0  0  0  0
 47 74  1  0  0  0  0
 48 73  1  0  0  0  0
 49 57  1  0  0  0  0
 50 68  1  0  0  0  0
 51 69  1  0  0  0  0
 52 69  1  0  0  0  0
 53 69  1  0  0  0  0
 54 80  1  0  0  0  0
 55 81  1  0  0  0  0
 56 59  1  0  0  0  0
 58 60  1  0  0  0  0
 59 66  1  0  0  0  0
 60 61  1  0  0  0  0
 61 62  1  0  0  0  0
 62 63  1  0  0  0  0
 63 64  1  0  0  0  0
 64 65  1  0  0  0  0
 65 80  1  0  0  0  0
 66 88  1  0  0  0  0
 67 69  1  0  0  0  0
 67 79  1  0  0  0  0
 68 81  1  0  0  0  0
 71 73  1  0  0  0  0
M  CHG  1  81   1
M  ISO  4  36 100  66 101  80 100  88 101
M  END
> <Batch ID>
0043

> <Smiles>
CCc1ncc(CC[101CH2:1][101O:1]c2ccc3c(c2)CN(C(=O)C(NC(=O)C(C)NC)C(C)(C)C)C(C(=O)NC2CCCc4ccccc42)C3)nc1CCCCCCC[100N:0](C)[100C:0](=O)N1CCCC(n2nc(-c3ccc(Oc4ccc(F)cc4F)cc3)c(C(N)=O)c2N)C1

> <Shape>
0.227

> <Color>
0.175

> <Negative vol penalty>
0.000

$$$$

  -OEChem-04052317143D

 82 90  0     1  0  0  0  0  0999 V2000
  -21.5549  -11.5097   20.5760 C   0  0  0  0  0  0  0  0  0  0  0  0
  -21.5520  -12.6503   21.3727 C   0  0  0  0  0  0  0  0  0  0  0  0
  -25.5122  -29.4035   20.4300 C   0  0  0  0  0  0  0  0  0  0  0  0
  -25.5679  -27.0960   21.1438 C   0  0  0  0  0  0  0  0  0  0  0  0
  -22.7509  -11.0447   20.0308 C   0  0  0  0  0  0  0  0  0  0  0  0
  -22.7454  -13.3259   21.6254 C   0  0  0  0  0  0  0  0  0  0  0  0
  -23.4856  -19.3689   22.2888 C   0  0  0  0  0  0  0  0  0  0  0  0
  -26.7348  -29.2323   19.7809 C   0  0  0  0  0  0  0  0  0  0  0  0
  -26.7905  -26.9248   20.4946 C   0  0  0  0  0  0  0  0  0  0  0  0
  -23.5887  -20.1831   23.4158 C   0  0  0  0  0  0  0  0  0  0  0  0
  -30.0416  -27.6504   21.0734 C   0  0  0  0  0  0  0  0  0  0  0  0
  -31.0502  -26.9737   21.7592 C   0  0  0  0  0  0  0  0  0  0  0  0
  -25.9939  -20.0896   23.2558 C   0  0  0  0  0  0  0  0  0  0  0  0
  -31.1115  -25.3002   20.0177 C   0  0  0  0  0  0  0  0  0  0  0  0
  -23.9910  -23.9995   26.9922 C   0  0  0  0  0  0  0  0  0  0  0  0
  -24.9287  -28.3354   21.1115 C   0  0  0  0  0  0  0  0  0  0  0  0
  -22.3811  -28.3136   21.2426 C   0  0  0  0  0  0  0  0  0  0  0  0
  -23.9581  -11.7205   20.2690 C   0  0  0  0  0  0  0  0  0  0  0  0
  -24.6378  -18.8992   21.6421 C   0  0  0  0  0  0  0  0  0  0  0  0
  -23.9589  -12.8687   21.0839 C   0  0  0  0  0  0  0  0  0  0  0  0
  -25.9027  -19.2717   22.1192 C   0  0  0  0  0  0  0  0  0  0  0  0
  -27.3740  -27.9929   19.8132 C   0  0  0  0  0  0  0  0  0  0  0  0
  -24.8430  -20.5412   23.9012 C   0  0  0  0  0  0  0  0  0  0  0  0
  -29.5678  -27.1520   19.8597 C   0  0  0  0  0  0  0  0  0  0  0  0
  -31.5852  -25.7987   21.2313 C   0  0  0  0  0  0  0  0  0  0  0  0
  -30.1028  -25.9769   19.3319 C   0  0  0  0  0  0  0  0  0  0  0  0
  -23.6660  -28.5119   21.7827 C   0  0  0  0  0  0  0  0  0  0  0  0
  -24.4411  -24.1493   28.3153 C   0  0  0  0  0  0  0  0  0  0  0  0
  -24.0508  -22.6477   26.7790 C   0  0  0  0  0  0  0  0  0  0  0  0
  -21.5252  -28.6113   22.2747 C   0  0  0  0  0  0  0  0  0  0  0  0
  -21.9959  -27.8974   19.9258 C   0  0  0  0  0  0  0  0  0  0  0  0
  -25.8748  -16.0281   21.0673 C   0  0  0  0  0  0  0  0  0  0  0  0
  -28.0246  -17.7310   19.3350 C   0  0  0  0  0  0  0  0  0  0  0  0
  -29.5892  -20.7133   18.7832 C   0  0  0  0  0  0  0  0  0  0  0  0
  -22.1357  -28.5312   28.2305 C   0  0  0  0  0  0  0  0  0  0  0  0
  -25.2329  -11.1529   19.6968 C   0  0  0  0  0  0  0  0  0  0  0  0
  -24.5095  -18.0436   20.4118 C   0  0  0  0  0  0  0  0  0  0  0  0
  -27.1703  -18.8106   21.4492 C   0  0  0  0  0  0  0  0  0  0  0  0
  -26.3970  -12.1403   19.7056 C   0  0  0  0  0  0  0  0  0  0  0  0
  -21.2023  -31.3112   26.2113 C   0  0  0  0  0  0  0  0  0  0  0  0
  -26.4974  -12.8352   21.0598 C   0  0  0  0  0  0  0  0  0  0  0  0
  -21.6120  -30.8911   24.7987 C   0  0  0  0  0  0  0  0  0  0  0  0
  -22.1934  -30.8092   27.2591 C   0  0  0  0  0  0  0  0  0  0  0  0
  -22.8687  -28.9390   25.8030 C   0  0  0  0  0  0  0  0  0  0  0  0
  -25.2292  -13.6431   21.3606 C   0  0  1  0  0  0  0  0  0  0  0  0
  -25.7517  -17.2017   20.1371 C   0  0  1  0  0  0  0  0  0  0  0  0
  -21.8698  -29.3745   24.7172 C   0  0  2  0  0  0  0  0  0  0  0  0
  -31.3251  -21.7867   17.3231 C   0  0  0  0  0  0  0  0  0  0  0  0
  -30.2229  -16.3437   20.9327 C   0  0  0  0  0  0  0  0  0  0  0  0
  -31.8174  -18.0994   20.1307 C   0  0  0  0  0  0  0  0  0  0  0  0
  -30.7030  -16.5861   18.4904 C   0  0  0  0  0  0  0  0  0  0  0  0
  -22.9660  -24.8504   30.9892 C   0  0  0  0  0  0  0  0  0  0  0  0
  -23.7651  -27.1882   30.6896 C   0  0  0  0  0  0  0  0  0  0  0  0
  -27.6401  -22.6573   17.6964 C   0  0  0  0  0  0  0  0  0  0  0  0
  -24.5876  -25.3968   29.0823 C   0  0  0  0  0  0  0  0  0  0  0  0
  -23.7289  -21.7655   25.6088 C   0  0  0  0  0  0  0  0  0  1  0  0
  -22.1165  -26.1908   29.0560 C   0  0  0  0  0  0  0  0  0  0  0  0
  -29.3493  -18.3931   19.6279 C   0  0  1  0  0  0  0  0  0  0  0  0
  -29.8437  -21.4965   17.5079 C   0  0  2  0  0  0  0  0  0  0  0  0
  -30.4995  -17.3628   19.8094 C   0  0  0  0  0  0  0  0  0  0  0  0
  -23.3590  -25.9029   29.9322 C   0  0  0  0  0  0  0  0  0  0  0  0
  -23.6338  -28.9053   23.0587 N   0  0  0  0  0  0  0  0  0  0  0  0
  -24.7560  -22.9800   28.8796 N   0  0  0  0  0  0  0  0  0  0  0  0
  -22.3184  -28.9567   23.3290 N   0  0  0  0  0  0  0  0  0  0  0  0
  -26.9925  -17.9705   20.2533 N   0  0  0  0  0  0  0  0  0  0  0  0
  -22.3924  -29.3637   27.1287 N   0  0  0  0  0  0  0  0  0  0  0  0
  -20.1789  -28.6088   22.3741 N   0  0  0  0  0  0  0  0  0  0  0  0
  -23.0027  -27.6323   18.9876 N   0  0  0  0  0  0  0  0  0  0  0  0
  -25.2353  -14.8872   20.6213 N   0  0  0  0  0  0  0  0  0  0  0  0
  -29.5719  -19.3540   18.5529 N   0  0  0  0  0  0  0  0  0  0  0  0
  -22.3435  -27.1735   28.0199 N   0  0  0  0  0  0  0  0  0  0  0  0
  -29.1113  -22.7940   17.5420 N   0  3  0  0  0  0  0  0  0  0  0  0
  -20.7940  -27.7804   19.5862 O   0  0  0  0  0  0  0  0  0  0  0  0
  -26.5047  -16.1483   22.1116 O   0  0  0  0  0  0  0  0  0  0  0  0
  -27.9077  -17.0329   18.3247 O   0  0  0  0  0  0  0  0  0  0  0  0
  -29.4260  -21.2533   19.8752 O   0  0  0  0  0  0  0  0  0  0  0  0
  -21.7448  -28.9650   29.3195 O   0  0  0  0  0  0  0  0  0  0  0  0
  -24.5059  -22.0284   27.8981 O   0  0  0  0  0  0  0  0  0  0  0  0
  -28.5670  -27.8254   19.1797 O   0  0  0  0  0  0  0  0  0  0  0  0
  -24.9465  -21.3353   25.0014 O   0  0  0  0  0  0  0  0  0  1  0  0
  -32.5549  -25.1498   21.8893 F   0  0  0  0  0  0  0  0  0  0  0  0
  -29.6526  -25.4938   18.1658 F   0  0  0  0  0  0  0  0  0  0  0  0
  1  2  1  0  0  0  0
  1  5  2  0  0  0  0
  2  6  2  0  0  0  0
  3  8  2  0  0  0  0
  3 16  1  0  0  0  0
  4  9  1  0  0  0  0
  4 16  2  0  0  0  0
  5 18  1  0  0  0  0
  6 20  1  0  0  0  0
  7 10  2  0  0  0  0
  7 19  1  0  0  0  0
  8 22  1  0  0  0  0
  9 22  2  0  0  0  0
 10 23  1  0  0  0  0
 11 12  2  0  0  0  0
 11 24  1  0  0  0  0
 12 25  1  0  0  0  0
 13 21  1  0  0  0  0
 13 23  2  0  0  0  0
 14 25  2  0  0  0  0
 14 26  1  0  0  0  0
 15 28  1  0  0  0  0
 15 29  2  0  0  0  0
 16 27  1  0  0  0  0
 17 27  1  0  0  0  0
 17 30  2  0  0  0  0
 17 31  1  0  0  0  0
 18 20  2  0  0  0  0
 18 36  1  0  0  0  0
 19 21  2  0  0  0  0
 19 37  1  0  0  0  0
 20 45  1  0  0  0  0
 21 38  1  0  0  0  0
 22 79  1  0  0  0  0
 23 80  1  0  0  0  0
 24 26  2  0  0  0  0
 24 79  1  0  0  0  0
 25 81  1  0  0  0  0
 26 82  1  0  0  0  0
 27 62  2  0  0  0  0
 28 55  1  0  0  0  0
 28 63  2  0  0  0  0
 29 56  1  0  0  0  0
 29 78  1  0  0  0  0
 30 64  1  0  0  0  0
 30 67  1  0  0  0  0
 31 68  1  0  0  0  0
 31 73  2  0  0  0  0
 32 46  1  0  0  0  0
 32 69  1  0  0  0  0
 32 74  2  0  0  0  0
 33 58  1  0  0  0  0
 33 65  1  0  0  0  0
 33 75  2  0  0  0  0
 34 59  1  0  0  0  0
 34 70  1  0  0  0  0
 34 76  2  0  0  0  0
 35 66  1  0  0  0  0
 35 71  1  0  0  0  0
 35 77  2  0  0  0  0
 36 39  1  0  0  0  0
 37 46  1  0  0  0  0
 38 65  1  0  0  0  0
 39 41  1  0  0  0  0
 40 42  1  0  0  0  0
 40 43  1  0  0  0  0
 41 45  1  0  0  0  0
 42 47  1  0  0  0  0
 43 66  1  0  0  0  0
 44 47  1  0  0  0  0
 44 66  1  0  0  0  0
 45 69  1  0  0  0  0
 46 65  1  0  0  0  0
 47 64  1  0  0  0  0
 48 59  1  0  0  0  0
 49 60  1  0  0  0  0
 50 60  1  0  0  0  0
 51 60  1  0  0  0  0
 52 61  1  0  0  0  0
 53 61  1  0  0  0  0
 54 72  1  0  0  0  0
 55 61  1  0  0  0  0
 56 80  1  0  0  0  0
 57 61  1  0  0  0  0
 57 71  1  0  0  0  0
 58 60  1  0  0  0  0
 58 70  1  0  0  0  0
 59 72  1  0  0  0  0
 62 64  1  0  0  0  0
 63 78  1  0  0  0  0
M  CHG  1  72   1
M  ISO  4  35 100  56 101  71 100  80 101
M  END
> <Batch ID>
0043

> <Smiles>
CNC(C)C(=O)NC(C(=O)N1Cc2cc([101O:1][101CH2:1]c3cc(CC(C)(C)C[100NH:0][100C:0](=O)N4CCCC(n5nc(-c6ccc(Oc7ccc(F)cc7F)cc6)c(C(N)=O)c5N)C4)no3)ccc2CC1C(=O)NC1CCCc2ccccc21)C(C)(C)C

> <Shape>
0.210

> <Color>
0.084

> <Negative vol penalty>
0.000

$$$$

  -OEChem-04052317143D

 83 91  0     1  0  0  0  0  0999 V2000
  -22.6796  -20.2303   24.7864 C   0  0  0  0  0  0  0  0  0  0  0  0
  -23.4427  -20.9467   23.8700 C   0  0  0  0  0  0  0  0  0  0  0  0
  -26.7845  -12.4137   21.8506 C   0  0  0  0  0  0  0  0  0  0  0  0
  -25.9047  -14.1569   20.4278 C   0  0  0  0  0  0  0  0  0  0  0  0
  -21.4504  -20.7324   25.2118 C   0  0  0  0  0  0  0  0  0  0  0  0
  -22.9765  -22.1652   23.3776 C   0  0  0  0  0  0  0  0  0  0  0  0
  -26.5662  -25.7366   23.3147 C   0  0  0  0  0  0  0  0  0  0  0  0
  -25.5245  -11.8175   21.8994 C   0  0  0  0  0  0  0  0  0  0  0  0
  -24.6446  -13.5606   20.4765 C   0  0  0  0  0  0  0  0  0  0  0  0
  -27.4991  -25.6836   22.2800 C   0  0  0  0  0  0  0  0  0  0  0  0
  -23.6189   -9.8547   19.9121 C   0  0  0  0  0  0  0  0  0  0  0  0
  -23.5490   -8.4721   19.7418 C   0  0  0  0  0  0  0  0  0  0  0  0
  -26.2850  -27.4057   21.1053 C   0  0  0  0  0  0  0  0  0  0  0  0
  -22.5519   -8.2528   21.9316 C   0  0  0  0  0  0  0  0  0  0  0  0
  -27.8791  -22.3298   17.7662 C   0  0  0  0  0  0  0  0  0  0  0  0
  -26.9746  -13.5835   21.1149 C   0  0  0  0  0  0  0  0  0  0  0  0
  -29.2983  -13.9528   20.1290 C   0  0  0  0  0  0  0  0  0  0  0  0
  -20.9733  -21.9622   24.7317 C   0  0  0  0  0  0  0  0  0  0  0  0
  -25.4778  -26.6183   23.2474 C   0  0  0  0  0  0  0  0  0  0  0  0
  -21.7392  -22.6835   23.7959 C   0  0  0  0  0  0  0  0  0  0  0  0
  -25.3411  -27.4697   22.1417 C   0  0  0  0  0  0  0  0  0  0  0  0
  -24.4545  -12.3909   21.2123 C   0  0  0  0  0  0  0  0  0  0  0  0
  -27.3570  -26.5161   21.1737 C   0  0  0  0  0  0  0  0  0  0  0  0
  -23.1555  -10.4364   21.0922 C   0  0  0  0  0  0  0  0  0  0  0  0
  -23.0155   -7.6711   20.7515 C   0  0  0  0  0  0  0  0  0  0  0  0
  -22.6219   -9.6354   22.1019 C   0  0  0  0  0  0  0  0  0  0  0  0
  -28.2759  -14.2001   21.0646 C   0  0  0  0  0  0  0  0  0  0  0  0
  -29.4367  -21.4896   19.0794 C   0  0  0  0  0  0  0  0  0  0  0  0
  -28.3607  -20.6407   18.9686 C   0  0  0  0  0  0  0  0  0  0  0  0
  -30.3227  -14.7836   20.5121 C   0  0  0  0  0  0  0  0  0  0  0  0
  -29.3200  -13.0525   19.0134 C   0  0  0  0  0  0  0  0  0  0  0  0
  -22.3180  -26.2802   23.1780 C   0  0  0  0  0  0  0  0  0  0  0  0
  -22.3577  -29.5174   23.3805 C   0  0  0  0  0  0  0  0  0  0  0  0
  -24.0541  -32.4323   22.8588 C   0  0  0  0  0  0  0  0  0  0  0  0
  -30.4732  -19.9253   23.5768 C   0  0  0  0  0  0  0  0  0  0  0  0
  -19.6170  -22.4415   25.1846 C   0  0  0  0  0  0  0  0  0  0  0  0
  -24.4950  -26.6823   24.3842 C   0  0  0  0  0  0  0  0  0  0  0  0
  -24.2017  -28.4484   22.0306 C   0  0  0  0  0  0  0  0  0  0  0  0
  -19.3670  -23.9202   24.8997 C   0  0  0  0  0  0  0  0  0  0  0  0
  -32.1772  -16.9039   24.3795 C   0  0  0  0  0  0  0  0  0  0  0  0
  -19.7805  -24.2662   23.4727 C   0  0  0  0  0  0  0  0  0  0  0  0
  -31.4628  -15.8460   23.5365 C   0  0  0  0  0  0  0  0  0  0  0  0
  -31.2062  -17.9623   24.8981 C   0  0  0  0  0  0  0  0  0  0  0  0
  -29.6684  -17.5514   23.0167 C   0  0  0  0  0  0  0  0  0  0  0  0
  -21.2788  -24.0208   23.2576 C   0  0  1  0  0  0  0  0  0  0  0  0
  -23.1417  -27.2537   23.9726 C   0  0  1  0  0  0  0  0  0  0  0  0
  -30.6152  -16.4934   22.4249 C   0  0  2  0  0  0  0  0  0  0  0  0
  -23.8130  -34.9198   23.0868 C   0  0  0  0  0  0  0  0  0  0  0  0
  -20.5761  -29.5692   20.9040 C   0  0  0  0  0  0  0  0  0  0  0  0
  -21.1480  -31.9911   20.6287 C   0  0  0  0  0  0  0  0  0  0  0  0
  -19.9485  -31.2194   22.6753 C   0  0  0  0  0  0  0  0  0  0  0  0
  -26.3268  -32.5962   24.7475 C   0  0  0  0  0  0  0  0  0  0  0  0
  -30.7040  -21.3871   19.8257 C   0  0  0  0  0  0  0  0  0  0  0  0
  -30.7485  -22.1828   21.1536 C   0  0  0  0  0  0  0  0  0  0  0  0
  -29.2373  -25.1043   18.4421 C   0  0  0  0  0  0  0  0  0  0  0  0
  -29.9493  -23.8009   18.0733 C   0  0  0  0  0  0  0  0  0  0  0  0
  -29.6622  -21.7885   22.1521 C   0  0  0  0  0  0  0  0  0  0  0  0
  -28.9064  -25.2129   19.9260 C   0  0  0  0  0  0  0  0  0  1  0  0
  -22.3946  -30.6506   22.3837 C   0  0  1  0  0  0  0  0  0  0  0  0
  -24.2856  -33.6370   23.7531 C   0  0  2  0  0  0  0  0  0  0  0  0
  -21.0373  -30.8379   21.6488 C   0  0  0  0  0  0  0  0  0  0  0  0
  -27.3946  -21.1694   18.1495 N   0  0  0  0  0  0  0  0  0  0  0  0
  -28.6195  -15.1163   21.9738 N   0  0  0  0  0  0  0  0  0  0  0  0
  -29.1138  -22.5669   18.3034 N   0  0  0  0  0  0  0  0  0  0  0  0
  -29.8694  -15.4519   21.6113 N   0  0  0  0  0  0  0  0  0  0  0  0
  -23.2633  -28.4690   23.1648 N   0  0  0  0  0  0  0  0  0  0  0  0
  -30.4345  -18.5381   23.7941 N   0  0  0  0  0  0  0  0  0  0  0  0
  -31.5580  -15.0004   20.0127 N   0  0  0  0  0  0  0  0  0  0  0  0
  -28.1831  -12.2724   18.7620 N   0  0  0  0  0  0  0  0  0  0  0  0
  -22.0554  -25.0951   23.8385 N   0  0  0  0  0  0  0  0  0  0  0  0
  -22.8428  -31.8275   23.1201 N   0  0  0  0  0  0  0  0  0  0  0  0
  -29.7183  -20.3876   22.5057 N   0  0  0  0  0  0  0  0  0  0  0  0
  -25.7354  -33.7775   24.0679 N   0  3  0  0  0  0  0  0  0  0  0  0
  -30.3241  -12.9310   18.2714 O   0  0  0  0  0  0  0  0  0  0  0  0
  -21.9469  -26.5824   22.0499 O   0  0  0  0  0  0  0  0  0  0  0  0
  -21.5597  -29.5643   24.3200 O   0  0  0  0  0  0  0  0  0  0  0  0
  -24.8650  -32.0668   22.0106 O   0  0  0  0  0  0  0  0  0  0  0  0
  -31.1359  -20.6941   24.2815 O   0  0  0  0  0  0  0  0  0  0  0  0
  -23.2249  -11.8093   21.2595 O   0  0  0  0  0  0  0  0  0  0  0  0
  -28.2657  -26.4660   20.1620 O   0  0  0  0  0  0  0  0  0  1  0  0
  -22.9469   -6.3435   20.5872 F   0  0  0  0  0  0  0  0  0  0  0  0
  -22.1740  -10.1886   23.2373 F   0  0  0  0  0  0  0  0  0  0  0  0
  -28.1818  -19.1210   19.7175 Cl  0  0  0  0  0  0  0  0  0  0  0  0
  1  2  1  0  0  0  0
  1  5  2  0  0  0  0
  2  6  2  0  0  0  0
  3  8  2  0  0  0  0
  3 16  1  0  0  0  0
  4  9  1  0  0  0  0
  4 16  2  0  0  0  0
  5 18  1  0  0  0  0
  6 20  1  0  0  0  0
  7 10  2  0  0  0  0
  7 19  1  0  0  0  0
  8 22  1  0  0  0  0
  9 22  2  0  0  0  0
 10 23  1  0  0  0  0
 11 12  2  0  0  0  0
 11 24  1  0  0  0  0
 12 25  1  0  0  0  0
 13 21  1  0  0  0  0
 13 23  2  0  0  0  0
 14 25  2  0  0  0  0
 14 26  1  0  0  0  0
 15 62  2  0  0  0  0
 15 64  1  0  0  0  0
 16 27  1  0  0  0  0
 17 27  1  0  0  0  0
 17 30  2  0  0  0  0
 17 31  1  0  0  0  0
 18 20  2  0  0  0  0
 18 36  1  0  0  0  0
 19 21  2  0  0  0  0
 19 37  1  0  0  0  0
 20 45  1  0  0  0  0
 21 38  1  0  0  0  0
 22 79  1  0  0  0  0
 23 80  1  0  0  0  0
 24 26  2  0  0  0  0
 24 79  1  0  0  0  0
 25 81  1  0  0  0  0
 26 82  1  0  0  0  0
 27 63  2  0  0  0  0
 28 29  2  0  0  0  0
 28 53  1  0  0  0  0
 28 64  1  0  0  0  0
 29 62  1  0  0  0  0
 29 83  1  0  0  0  0
 30 65  1  0  0  0  0
 30 68  1  0  0  0  0
 31 69  1  0  0  0  0
 31 74  2  0  0  0  0
 32 46  1  0  0  0  0
 32 70  1  0  0  0  0
 32 75  2  0  0  0  0
 33 59  1  0  0  0  0
 33 66  1  0  0  0  0
 33 76  2  0  0  0  0
 34 60  1  0  0  0  0
 34 71  1  0  0  0  0
 34 77  2  0  0  0  0
 35 67  1  0  0  0  0
 35 72  1  0  0  0  0
 35 78  2  0  0  0  0
 36 39  1  0  0  0  0
 37 46  1  0  0  0  0
 38 66  1  0  0  0  0
 39 41  1  0  0  0  0
 40 42  1  0  0  0  0
 40 43  1  0  0  0  0
 41 45  1  0  0  0  0
 42 47  1  0  0  0  0
 43 67  1  0  0  0  0
 44 47  1  0  0  0  0
 44 67  1  0  0  0  0
 45 70  1  0  0  0  0
 46 66  1  0  0  0  0
 47 65  1  0  0  0  0
 48 60  1  0  0  0  0
 49 61  1  0  0  0  0
 50 61  1  0  0  0  0
 51 61  1  0  0  0  0
 52 73  1  0  0  0  0
 53 54  1  0  0  0  0
 54 57  1  0  0  0  0
 55 56  1  0  0  0  0
 55 58  1  0  0  0  0
 56 64  1  0  0  0  0
 57 72  1  0  0  0  0
 58 80  1  0  0  0  0
 59 61  1  0  0  0  0
 59 71  1  0  0  0  0
 60 73  1  0  0  0  0
 63 65  1  0  0  0  0
M  CHG  1  73   1
M  ISO  4  35 100  58 101  72 100  80 101
M  END
> <Batch ID>
0043

> <Smiles>
CNC(C)C(=O)NC(C(=O)N1Cc2cc([101O:1][101CH2:1]CCn3cnc(Cl)c3CCC[100NH:0][100C:0](=O)N3CCCC(n4nc(-c5ccc(Oc6ccc(F)cc6F)cc5)c(C(N)=O)c4N)C3)ccc2CC1C(=O)NC1CCCc2ccccc21)C(C)(C)C

> <Shape>
0.259

> <Color>
0.080

> <Negative vol penalty>
0.000

$$$$

  -OEChem-04052317143D

 83 91  0     1  0  0  0  0  0999 V2000
  -27.1472  -23.3914   17.7645 C   0  0  0  0  0  0  0  0  0  0  0  0
  -26.0162  -23.7950   18.4669 C   0  0  0  0  0  0  0  0  0  0  0  0
  -26.4463  -13.9916   20.0409 C   0  0  0  0  0  0  0  0  0  0  0  0
  -24.4032  -14.1356   21.3223 C   0  0  0  0  0  0  0  0  0  0  0  0
  -28.4054  -23.8561   18.1451 C   0  0  0  0  0  0  0  0  0  0  0  0
  -26.1429  -24.6628   19.5509 C   0  0  0  0  0  0  0  0  0  0  0  0
  -22.6906  -28.3672   19.4879 C   0  0  0  0  0  0  0  0  0  0  0  0
  -26.4900  -12.6156   20.2651 C   0  0  0  0  0  0  0  0  0  0  0  0
  -24.4468  -12.7596   21.5465 C   0  0  0  0  0  0  0  0  0  0  0  0
  -21.4011  -28.0430   19.9074 C   0  0  0  0  0  0  0  0  0  0  0  0
  -23.7070   -9.9356   19.8440 C   0  0  0  0  0  0  0  0  0  0  0  0
  -22.5227   -9.2165   19.6830 C   0  0  0  0  0  0  0  0  0  0  0  0
  -21.8651  -29.0158   22.0655 C   0  0  0  0  0  0  0  0  0  0  0  0
  -22.6383   -8.5097   21.9905 C   0  0  0  0  0  0  0  0  0  0  0  0
  -20.9113  -22.9993   22.4406 C   0  0  0  0  0  0  0  0  0  0  0  0
  -25.4030  -14.7516   20.5696 C   0  0  0  0  0  0  0  0  0  0  0  0
  -24.7333  -16.8412   19.2685 C   0  0  0  0  0  0  0  0  0  0  0  0
  -28.5466  -24.7377   19.2284 C   0  0  0  0  0  0  0  0  0  0  0  0
  -23.5821  -29.0095   20.3592 C   0  0  0  0  0  0  0  0  0  0  0  0
  -27.4043  -25.1387   19.9472 C   0  0  0  0  0  0  0  0  0  0  0  0
  -23.1645  -29.3494   21.6538 C   0  0  0  0  0  0  0  0  0  0  0  0
  -25.4902  -11.9995   21.0178 C   0  0  0  0  0  0  0  0  0  0  0  0
  -20.9891  -28.3647   21.1973 C   0  0  0  0  0  0  0  0  0  0  0  0
  -24.3570   -9.9417   21.0782 C   0  0  0  0  0  0  0  0  0  0  0  0
  -21.9884   -8.5035   20.7562 C   0  0  0  0  0  0  0  0  0  0  0  0
  -23.8226   -9.2288   22.1514 C   0  0  0  0  0  0  0  0  0  0  0  0
  -25.3577  -16.1732   20.3388 C   0  0  0  0  0  0  0  0  0  0  0  0
  -21.6329  -23.5078   23.4835 C   0  0  0  0  0  0  0  0  0  0  0  0
  -24.9753  -18.1721   19.5063 C   0  0  0  0  0  0  0  0  0  0  0  0
  -19.8506  -24.7891   23.1970 C   0  0  0  0  0  0  0  0  0  0  0  0
  -24.0000  -16.3065   18.1585 C   0  0  0  0  0  0  0  0  0  0  0  0
  -26.3989  -28.2694   21.6327 C   0  0  0  0  0  0  0  0  0  0  0  0
  -26.2602  -31.3152   22.7401 C   0  0  0  0  0  0  0  0  0  0  0  0
  -24.3379  -34.0013   23.5980 C   0  0  0  0  0  0  0  0  0  0  0  0
  -26.1336  -21.2782   24.4925 C   0  0  0  0  0  0  0  0  0  0  0  0
  -29.9322  -25.1759   19.6319 C   0  0  0  0  0  0  0  0  0  0  0  0
  -24.9608  -29.3763   19.8826 C   0  0  0  0  0  0  0  0  0  0  0  0
  -24.0765  -30.0572   22.6211 C   0  0  0  0  0  0  0  0  0  0  0  0
  -29.9417  -26.3888   20.5587 C   0  0  0  0  0  0  0  0  0  0  0  0
  -28.1575  -21.0889   21.5694 C   0  0  0  0  0  0  0  0  0  0  0  0
  -28.9197  -26.2138   21.6775 C   0  0  0  0  0  0  0  0  0  0  0  0
  -27.6132  -19.8679   20.8260 C   0  0  0  0  0  0  0  0  0  0  0  0
  -28.1323  -20.8858   23.0827 C   0  0  0  0  0  0  0  0  0  0  0  0
  -26.2762  -19.2760   22.8902 C   0  0  0  0  0  0  0  0  0  0  0  0
  -27.4984  -26.0987   21.1133 C   0  0  1  0  0  0  0  0  0  0  0  0
  -25.9555  -29.5692   21.0231 C   0  0  1  0  0  0  0  0  0  0  0  0
  -26.2295  -19.4553   21.3631 C   0  0  2  0  0  0  0  0  0  0  0  0
  -24.5064  -36.3345   24.5064 C   0  0  0  0  0  0  0  0  0  0  0  0
  -26.7553  -30.1896   25.5326 C   0  0  0  0  0  0  0  0  0  0  0  0
  -25.9775  -32.3746   26.4754 C   0  0  0  0  0  0  0  0  0  0  0  0
  -28.0024  -32.2960   25.0207 C   0  0  0  0  0  0  0  0  0  0  0  0
  -21.3622  -25.4686   25.0319 C   0  0  0  0  0  0  0  0  0  0  0  0
  -23.1306  -35.1628   21.1583 C   0  0  0  0  0  0  0  0  0  0  0  0
  -22.8900  -23.0469   24.0853 C   0  0  0  0  0  0  0  0  0  0  0  0
  -18.8226  -25.8814   23.3507 C   0  0  0  0  0  0  0  0  0  0  0  0
  -22.7337  -22.0340   25.2498 C   0  0  0  0  0  0  0  0  0  0  0  0
  -18.1563  -26.2897   22.0351 C   0  0  0  0  0  0  0  0  0  0  0  0
  -24.0596  -21.5454   25.8291 C   0  0  0  0  0  0  0  0  0  0  0  0
  -19.1282  -26.8936   21.0280 C   0  0  0  0  0  0  0  0  0  1  0  0
  -25.7186  -31.9767   23.9843 C   0  0  1  0  0  0  0  0  0  0  0  0
  -24.4549  -35.4750   23.2529 C   0  0  2  0  0  0  0  0  0  0  0  0
  -26.5967  -31.6942   25.2359 C   0  0  0  0  0  0  0  0  0  0  0  0
  -25.9519  -17.0106   21.1931 N   0  0  0  0  0  0  0  0  0  0  0  0
  -20.9537  -24.6149   23.9320 N   0  0  0  0  0  0  0  0  0  0  0  0
  -25.7020  -18.2185   20.6596 N   0  0  0  0  0  0  0  0  0  0  0  0
  -19.8139  -23.8115   22.2857 N   0  3  0  0  0  0  0  0  0  0  0  0
  -25.4169  -30.3890   22.1103 N   0  0  0  0  0  0  0  0  0  0  0  0
  -26.7917  -20.4977   23.5278 N   0  0  0  0  0  0  0  0  0  0  0  0
  -24.6354  -19.2955   18.8394 N   0  0  0  0  0  0  0  0  0  0  0  0
  -23.8456  -14.9165   18.0671 N   0  0  0  0  0  0  0  0  0  0  0  0
  -26.9967  -27.4031   20.7374 N   0  0  0  0  0  0  0  0  0  0  0  0
  -25.5734  -33.3925   23.6635 N   0  0  0  0  0  0  0  0  0  0  0  0
  -24.8641  -20.8438   24.8537 N   0  0  0  0  0  0  0  0  0  0  0  0
  -23.2886  -35.9091   22.4330 N   0  3  0  0  0  0  0  0  0  0  0  0
  -23.5107  -17.0386   17.2652 O   0  0  0  0  0  0  0  0  0  0  0  0
  -26.2137  -28.0680   22.8272 O   0  0  0  0  0  0  0  0  0  0  0  0
  -27.3872  -31.6146   22.3378 O   0  0  0  0  0  0  0  0  0  0  0  0
  -23.2588  -33.4467   23.7939 O   0  0  0  0  0  0  0  0  0  0  0  0
  -26.6376  -22.2904   24.9908 O   0  0  0  0  0  0  0  0  0  0  0  0
  -25.5323  -10.6568   21.2366 O   0  0  0  0  0  0  0  0  0  0  0  0
  -19.7313  -28.0489   21.6094 O   0  0  0  0  0  0  0  0  0  1  0  0
  -20.8503   -7.8143   20.6019 F   0  0  0  0  0  0  0  0  0  0  0  0
  -24.4419   -9.2319   23.3398 F   0  0  0  0  0  0  0  0  0  0  0  0
  1  2  1  0  0  0  0
  1  5  2  0  0  0  0
  2  6  2  0  0  0  0
  3  8  2  0  0  0  0
  3 16  1  0  0  0  0
  4  9  1  0  0  0  0
  4 16  2  0  0  0  0
  5 18  1  0  0  0  0
  6 20  1  0  0  0  0
  7 10  2  0  0  0  0
  7 19  1  0  0  0  0
  8 22  1  0  0  0  0
  9 22  2  0  0  0  0
 10 23  1  0  0  0  0
 11 12  2  0  0  0  0
 11 24  1  0  0  0  0
 12 25  1  0  0  0  0
 13 21  1  0  0  0  0
 13 23  2  0  0  0  0
 14 25  2  0  0  0  0
 14 26  1  0  0  0  0
 15 28  2  0  0  0  0
 15 66  1  0  0  0  0
 16 27  1  0  0  0  0
 17 27  1  0  0  0  0
 17 29  2  0  0  0  0
 17 31  1  0  0  0  0
 18 20  2  0  0  0  0
 18 36  1  0  0  0  0
 19 21  2  0  0  0  0
 19 37  1  0  0  0  0
 20 45  1  0  0  0  0
 21 38  1  0  0  0  0
 22 80  1  0  0  0  0
 23 81  1  0  0  0  0
 24 26  2  0  0  0  0
 24 80  1  0  0  0  0
 25 82  1  0  0  0  0
 26 83  1  0  0  0  0
 27 63  2  0  0  0  0
 28 54  1  0  0  0  0
 28 64  1  0  0  0  0
 29 65  1  0  0  0  0
 29 69  1  0  0  0  0
 30 55  1  0  0  0  0
 30 64  1  0  0  0  0
 30 66  2  0  0  0  0
 31 70  1  0  0  0  0
 31 75  2  0  0  0  0
 32 46  1  0  0  0  0
 32 71  1  0  0  0  0
 32 76  2  0  0  0  0
 33 60  1  0  0  0  0
 33 67  1  0  0  0  0
 33 77  2  0  0  0  0
 34 61  1  0  0  0  0
 34 72  1  0  0  0  0
 34 78  2  0  0  0  0
 35 68  1  0  0  0  0
 35 73  1  0  0  0  0
 35 79  2  0  0  0  0
 36 39  1  0  0  0  0
 37 46  1  0  0  0  0
 38 67  1  0  0  0  0
 39 41  1  0  0  0  0
 40 42  1  0  0  0  0
 40 43  1  0  0  0  0
 41 45  1  0  0  0  0
 42 47  1  0  0  0  0
 43 68  1  0  0  0  0
 44 47  1  0  0  0  0
 44 68  1  0  0  0  0
 45 71  1  0  0  0  0
 46 67  1  0  0  0  0
 47 65  1  0  0  0  0
 48 61  1  0  0  0  0
 49 62  1  0  0  0  0
 50 62  1  0  0  0  0
 51 62  1  0  0  0  0
 52 64  1  0  0  0  0
 53 74  1  0  0  0  0
 54 56  1  0  0  0  0
 55 57  1  0  0  0  0
 56 58  1  0  0  0  0
 57 59  1  0  0  0  0
 58 73  1  0  0  0  0
 59 81  1  0  0  0  0
 60 62  1  0  0  0  0
 60 72  1  0  0  0  0
 61 74  1  0  0  0  0
 63 65  1  0  0  0  0
M  CHG  2  66   1  74   1
M  ISO  4  35 100  59 101  73 100  81 101
M  END
> <Batch ID>
0043

> <Smiles>
CNC(C)C(=O)NC(C(=O)N1Cc2cc([101O:1][101CH2:1]CCc3ncc(CCC[100NH:0][100C:0](=O)N4CCCC(n5nc(-c6ccc(Oc7ccc(F)cc7F)cc6)c(C(N)=O)c5N)C4)n3C)ccc2CC1C(=O)NC1CCCc2ccccc21)C(C)(C)C

> <Shape>
0.282

> <Color>
0.077

> <Negative vol penalty>
0.000

$$$$

  -OEChem-04052317143D

 86 94  0     1  0  0  0  0  0999 V2000
  -28.0873  -24.8606   17.1812 C   0  0  0  0  0  0  0  0  0  0  0  0
  -26.8373  -25.4624   17.2850 C   0  0  0  0  0  0  0  0  0  0  0  0
  -25.0245  -14.9373   18.7156 C   0  0  0  0  0  0  0  0  0  0  0  0
  -23.3375  -14.8763   20.4440 C   0  0  0  0  0  0  0  0  0  0  0  0
  -28.9529  -24.8611   18.2743 C   0  0  0  0  0  0  0  0  0  0  0  0
  -26.4517  -26.0640   18.4824 C   0  0  0  0  0  0  0  0  0  0  0  0
  -22.9792  -31.0658   19.1381 C   0  0  0  0  0  0  0  0  0  0  0  0
  -25.5171  -13.7079   19.1530 C   0  0  0  0  0  0  0  0  0  0  0  0
  -23.8301  -13.6468   20.8814 C   0  0  0  0  0  0  0  0  0  0  0  0
  -21.6237  -31.2368   19.4157 C   0  0  0  0  0  0  0  0  0  0  0  0
  -23.6245  -10.4067   19.9434 C   0  0  0  0  0  0  0  0  0  0  0  0
  -22.6985   -9.4023   20.2249 C   0  0  0  0  0  0  0  0  0  0  0  0
  -22.1437  -31.5130   21.7551 C   0  0  0  0  0  0  0  0  0  0  0  0
  -18.0715  -28.2632   21.9069 C   0  0  0  0  0  0  0  0  0  0  0  0
  -23.4874   -9.3144   22.5068 C   0  0  0  0  0  0  0  0  0  0  0  0
  -18.6550  -29.4123   24.3121 C   0  0  0  0  0  0  0  0  0  0  0  0
  -23.9347  -15.5216   19.3611 C   0  0  0  0  0  0  0  0  0  0  0  0
  -22.4266  -17.0125   17.9431 C   0  0  0  0  0  0  0  0  0  0  0  0
  -28.5815  -25.4715   19.4826 C   0  0  0  0  0  0  0  0  0  0  0  0
  -23.9277  -31.1063   20.1702 C   0  0  0  0  0  0  0  0  0  0  0  0
  -27.3125  -26.0715   19.5931 C   0  0  0  0  0  0  0  0  0  0  0  0
  -23.5109  -31.3447   21.4876 C   0  0  0  0  0  0  0  0  0  0  0  0
  -18.3910  -27.4526   22.9905 C   0  0  0  0  0  0  0  0  0  0  0  0
  -18.6895  -28.0302   24.2196 C   0  0  0  0  0  0  0  0  0  0  0  0
  -24.9200  -13.0626   20.2359 C   0  0  0  0  0  0  0  0  0  0  0  0
  -21.2054  -31.4576   20.7247 C   0  0  0  0  0  0  0  0  0  0  0  0
  -24.4820  -10.8650   20.9436 C   0  0  0  0  0  0  0  0  0  0  0  0
  -22.6299   -8.8562   21.5065 C   0  0  0  0  0  0  0  0  0  0  0  0
  -24.4134  -10.3189   22.2253 C   0  0  0  0  0  0  0  0  0  0  0  0
  -23.4257  -16.7919   18.9101 C   0  0  0  0  0  0  0  0  0  0  0  0
  -18.0644  -29.6348   22.1031 C   0  0  0  0  0  0  0  0  0  0  0  0
  -22.3084  -18.3793   17.8772 C   0  0  0  0  0  0  0  0  0  0  0  0
  -21.6728  -16.0665   17.1734 C   0  0  0  0  0  0  0  0  0  0  0  0
  -26.0221  -29.0405   21.3743 C   0  0  0  0  0  0  0  0  0  0  0  0
  -23.5111  -22.5889   21.8907 C   0  0  0  0  0  0  0  0  0  0  0  0
  -26.9579  -31.6065   23.1241 C   0  0  0  0  0  0  0  0  0  0  0  0
  -26.1645  -34.6408   24.4696 C   0  0  0  0  0  0  0  0  0  0  0  0
  -29.5321  -25.4053   20.6516 C   0  0  0  0  0  0  0  0  0  0  0  0
  -25.3888  -30.9466   19.8506 C   0  0  0  0  0  0  0  0  0  0  0  0
  -24.4913  -31.4174   22.6287 C   0  0  0  0  0  0  0  0  0  0  0  0
  -29.1960  -26.3921   21.7667 C   0  0  0  0  0  0  0  0  0  0  0  0
  -24.8168  -22.3970   18.5017 C   0  0  0  0  0  0  0  0  0  0  0  0
  -27.7050  -26.3491   22.0860 C   0  0  0  0  0  0  0  0  0  0  0  0
  -24.5368  -20.9369   18.1485 C   0  0  0  0  0  0  0  0  0  0  0  0
  -25.1818  -22.5580   19.9751 C   0  0  0  0  0  0  0  0  0  0  0  0
  -23.8822  -20.5353   20.5616 C   0  0  0  0  0  0  0  0  0  0  0  0
  -26.8679  -26.7561   20.8673 C   0  0  1  0  0  0  0  0  0  0  0  0
  -26.2168  -30.4945   21.0496 C   0  0  1  0  0  0  0  0  0  0  0  0
  -23.4805  -20.3339   19.0909 C   0  0  2  0  0  0  0  0  0  0  0  0
  -18.4070  -25.9706   22.8122 C   0  0  0  0  0  0  0  0  0  0  0  0
  -27.1229  -36.4811   25.8810 C   0  0  0  0  0  0  0  0  0  0  0  0
  -26.5885  -29.8845   25.6158 C   0  0  0  0  0  0  0  0  0  0  0  0
  -26.6242  -31.9806   26.9846 C   0  0  0  0  0  0  0  0  0  0  0  0
  -28.6256  -31.3351   25.6428 C   0  0  0  0  0  0  0  0  0  0  0  0
  -25.8543  -36.6264   22.2969 C   0  0  0  0  0  0  0  0  0  0  0  0
  -19.0387  -27.2093   25.4121 C   0  0  0  0  0  0  0  0  0  0  0  0
  -17.7225  -30.5459   20.9492 C   0  0  0  0  0  0  0  0  0  0  0  0
  -23.8895  -24.0263   22.1449 C   0  0  0  0  0  0  0  0  0  0  0  0
  -23.1006  -24.6002   23.3187 C   0  0  0  0  0  0  0  0  0  0  0  0
  -23.5076  -26.0417   23.6479 C   0  0  0  0  0  0  0  0  0  0  0  0
  -20.5294  -27.2048   25.7577 C   0  0  0  0  0  0  0  0  0  0  0  0
  -22.7845  -26.6110   24.8628 C   0  0  0  0  0  0  0  0  0  0  0  0
  -18.9540  -30.9535   20.1477 C   0  0  0  0  0  0  0  0  0  1  0  0
  -26.5630  -32.1922   24.4582 C   0  0  1  0  0  0  0  0  0  0  0  0
  -26.9018  -35.9678   24.4667 C   0  0  2  0  0  0  0  0  0  0  0  0
  -27.0814  -31.3449   25.6543 C   0  0  0  0  0  0  0  0  0  0  0  0
  -18.3490  -30.2324   23.2819 N   0  0  0  0  0  0  0  0  0  0  0  0
  -23.9080  -17.9276   19.4216 N   0  0  0  0  0  0  0  0  0  0  0  0
  -23.2090  -18.8750   18.7735 N   0  0  0  0  0  0  0  0  0  0  0  0
  -25.9082  -31.2487   22.2662 N   0  0  0  0  0  0  0  0  0  0  0  0
  -24.1646  -21.9466   20.8387 N   0  0  0  0  0  0  0  0  0  0  0  0
  -21.5231  -19.1935   17.1404 N   0  0  0  0  0  0  0  0  0  0  0  0
  -21.9201  -14.7004   17.3655 N   0  0  0  0  0  0  0  0  0  0  0  0
  -26.8822  -28.1937   20.7016 N   0  0  0  0  0  0  0  0  0  0  0  0
  -27.0359  -33.5723   24.4542 N   0  0  0  0  0  0  0  0  0  0  0  0
  -26.1243  -36.9907   23.7116 N   0  3  0  0  0  0  0  0  0  0  0  0
  -21.3120  -26.6094   24.6465 N   0  3  0  0  0  0  0  0  0  0  0  0
  -20.8171  -16.4225   16.3280 O   0  0  0  0  0  0  0  0  0  0  0  0
  -25.1565  -28.7113   22.1769 O   0  0  0  0  0  0  0  0  0  0  0  0
  -22.6581  -22.0555   22.6049 O   0  0  0  0  0  0  0  0  0  0  0  0
  -28.1538  -31.4780   22.8503 O   0  0  0  0  0  0  0  0  0  0  0  0
  -24.9383  -34.5602   24.4877 O   0  0  0  0  0  0  0  0  0  0  0  0
  -25.4003  -11.8628   20.6628 O   0  0  0  0  0  0  0  0  0  0  0  0
  -19.8829  -31.6241   20.9985 O   0  0  0  0  0  0  0  0  0  1  0  0
  -21.7396   -7.8927   21.7771 F   0  0  0  0  0  0  0  0  0  0  0  0
  -25.2338  -10.7559   23.1906 F   0  0  0  0  0  0  0  0  0  0  0  0
  1  2  1  0  0  0  0
  1  5  2  0  0  0  0
  2  6  2  0  0  0  0
  3  8  2  0  0  0  0
  3 17  1  0  0  0  0
  4  9  1  0  0  0  0
  4 17  2  0  0  0  0
  5 19  1  0  0  0  0
  6 21  1  0  0  0  0
  7 10  2  0  0  0  0
  7 20  1  0  0  0  0
  8 25  1  0  0  0  0
  9 25  2  0  0  0  0
 10 26  1  0  0  0  0
 11 12  2  0  0  0  0
 11 27  1  0  0  0  0
 12 28  1  0  0  0  0
 13 22  1  0  0  0  0
 13 26  2  0  0  0  0
 14 23  2  0  0  0  0
 14 31  1  0  0  0  0
 15 28  2  0  0  0  0
 15 29  1  0  0  0  0
 16 24  2  0  0  0  0
 16 67  1  0  0  0  0
 17 30  1  0  0  0  0
 18 30  1  0  0  0  0
 18 32  2  0  0  0  0
 18 33  1  0  0  0  0
 19 21  2  0  0  0  0
 19 38  1  0  0  0  0
 20 22  2  0  0  0  0
 20 39  1  0  0  0  0
 21 47  1  0  0  0  0
 22 40  1  0  0  0  0
 23 24  1  0  0  0  0
 23 50  1  0  0  0  0
 24 56  1  0  0  0  0
 25 83  1  0  0  0  0
 26 84  1  0  0  0  0
 27 29  2  0  0  0  0
 27 83  1  0  0  0  0
 28 85  1  0  0  0  0
 29 86  1  0  0  0  0
 30 68  2  0  0  0  0
 31 57  1  0  0  0  0
 31 67  2  0  0  0  0
 32 69  1  0  0  0  0
 32 72  1  0  0  0  0
 33 73  1  0  0  0  0
 33 78  2  0  0  0  0
 34 48  1  0  0  0  0
 34 74  1  0  0  0  0
 34 79  2  0  0  0  0
 35 58  1  0  0  0  0
 35 71  1  0  0  0  0
 35 80  2  0  0  0  0
 36 64  1  0  0  0  0
 36 70  1  0  0  0  0
 36 81  2  0  0  0  0
 37 65  1  0  0  0  0
 37 75  1  0  0  0  0
 37 82  2  0  0  0  0
 38 41  1  0  0  0  0
 39 48  1  0  0  0  0
 40 70  1  0  0  0  0
 41 43  1  0  0  0  0
 42 44  1  0  0  0  0
 42 45  1  0  0  0  0
 43 47  1  0  0  0  0
 44 49  1  0  0  0  0
 45 71  1  0  0  0  0
 46 49  1  0  0  0  0
 46 71  1  0  0  0  0
 47 74  1  0  0  0  0
 48 70  1  0  0  0  0
 49 69  1  0  0  0  0
 51 65  1  0  0  0  0
 52 66  1  0  0  0  0
 53 66  1  0  0  0  0
 54 66  1  0  0  0  0
 55 76  1  0  0  0  0
 56 61  1  0  0  0  0
 57 63  1  0  0  0  0
 58 59  1  0  0  0  0
 59 60  1  0  0  0  0
 60 62  1  0  0  0  0
 61 77  1  0  0  0  0
 62 77  1  0  0  0  0
 63 84  1  0  0  0  0
 64 66  1  0  0  0  0
 64 75  1  0  0  0  0
 65 76  1  0  0  0  0
 68 69  1  0  0  0  0
M  CHG  2  76   1  77   1
M  ISO  4  35 100  58 100  63 101  84 101
M  END
> <Batch ID>
0043

> <Smiles>
CNC(C)C(=O)NC(C(=O)N1Cc2cc([101O:1][101CH2:1]Cc3cc(C)c(CCNCCC[100CH2:0][100C:0](=O)N4CCCC(n5nc(-c6ccc(Oc7ccc(F)cc7F)cc6)c(C(N)=O)c5N)C4)cn3)ccc2CC1C(=O)NC1CCCc2ccccc21)C(C)(C)C

> <Shape>
0.262

> <Color>
0.083

> <Negative vol penalty>
0.000

$$$$

  -OEChem-04052317143D

 86 95  0     1  0  0  0  0  0999 V2000
  -20.6140  -30.8107   25.4891 C   0  0  0  0  0  0  0  0  0  0  0  0
  -21.6152  -29.8456   25.4495 C   0  0  0  0  0  0  0  0  0  0  0  0
  -23.8967   -9.5655   21.0358 C   0  0  0  0  0  0  0  0  0  0  0  0
  -24.4971  -10.3915   23.2254 C   0  0  0  0  0  0  0  0  0  0  0  0
  -19.9604  -31.1841   24.3156 C   0  0  0  0  0  0  0  0  0  0  0  0
  -21.9626  -29.2524   24.2363 C   0  0  0  0  0  0  0  0  0  0  0  0
  -27.5430  -27.4261   22.4957 C   0  0  0  0  0  0  0  0  0  0  0  0
  -23.4288   -8.3836   21.6100 C   0  0  0  0  0  0  0  0  0  0  0  0
  -24.0292   -9.2096   23.7996 C   0  0  0  0  0  0  0  0  0  0  0  0
  -28.1632  -26.1775   22.4942 C   0  0  0  0  0  0  0  0  0  0  0  0
  -20.6671   -7.3371   23.2565 C   0  0  0  0  0  0  0  0  0  0  0  0
  -19.4381   -6.8452   22.8171 C   0  0  0  0  0  0  0  0  0  0  0  0
  -27.5432  -25.8789   20.1821 C   0  0  0  0  0  0  0  0  0  0  0  0
  -20.5126   -4.8053   22.0952 C   0  0  0  0  0  0  0  0  0  0  0  0
  -24.4309  -10.5695   21.8435 C   0  0  0  0  0  0  0  0  0  0  0  0
  -24.1810  -12.9670   21.0086 C   0  0  0  0  0  0  0  0  0  0  0  0
  -20.3066  -30.6022   23.0859 C   0  0  0  0  0  0  0  0  0  0  0  0
  -26.9076  -27.9066   21.3416 C   0  0  0  0  0  0  0  0  0  0  0  0
  -21.3120  -29.6173   23.0453 C   0  0  0  0  0  0  0  0  0  0  0  0
  -26.9178  -27.1351   20.1708 C   0  0  0  0  0  0  0  0  0  0  0  0
  -23.4950   -8.2056   22.9919 C   0  0  0  0  0  0  0  0  0  0  0  0
  -28.1609  -25.4024   21.3381 C   0  0  0  0  0  0  0  0  0  0  0  0
  -21.8190   -6.5631   23.1151 C   0  0  0  0  0  0  0  0  0  0  0  0
  -19.3608   -5.5793   22.2365 C   0  0  0  0  0  0  0  0  0  0  0  0
  -21.7416   -5.2972   22.5345 C   0  0  0  0  0  0  0  0  0  0  0  0
  -24.9150  -11.7904   21.2510 C   0  0  0  0  0  0  0  0  0  0  0  0
  -25.0878  -13.8257   20.4369 C   0  0  0  0  0  0  0  0  0  0  0  0
  -30.0442  -17.6657   22.8589 C   0  0  0  0  0  0  0  0  0  0  0  0
  -30.2233  -15.6212   22.4531 C   0  0  0  0  0  0  0  0  0  0  0  0
  -30.0561  -19.0491   23.1363 C   0  0  0  0  0  0  0  0  0  0  0  0
  -28.8724  -19.6883   23.2599 C   0  0  0  0  0  0  0  0  0  0  0  0
  -27.6194  -17.8014   22.8739 C   0  0  0  0  0  0  0  0  0  0  0  0
  -22.8028  -13.2577   21.2763 C   0  0  0  0  0  0  0  0  0  0  0  0
  -23.9257  -28.7152   20.5943 C   0  0  0  0  0  0  0  0  0  0  0  0
  -25.2964  -29.6750   17.8154 C   0  0  0  0  0  0  0  0  0  0  0  0
  -31.0839  -14.1028   20.7235 C   0  0  0  0  0  0  0  0  0  0  0  0
  -27.8870  -29.3886   15.6123 C   0  0  0  0  0  0  0  0  0  0  0  0
  -19.5394  -31.0038   21.8511 C   0  0  0  0  0  0  0  0  0  0  0  0
  -26.2662  -29.2671   21.3518 C   0  0  0  0  0  0  0  0  0  0  0  0
  -26.2672  -27.6142   18.8997 C   0  0  0  0  0  0  0  0  0  0  0  0
  -20.2252  -30.5981   20.5490 C   0  0  0  0  0  0  0  0  0  0  0  0
  -29.0563  -13.8668   17.7785 C   0  0  0  0  0  0  0  0  0  0  0  0
  -20.7022  -29.1512   20.6253 C   0  0  0  0  0  0  0  0  0  0  0  0
  -27.7061  -13.3872   18.3097 C   0  0  0  0  0  0  0  0  0  0  0  0
  -30.2135  -13.2619   18.5672 C   0  0  0  0  0  0  0  0  0  0  0  0
  -28.7858  -13.0220   20.5737 C   0  0  0  0  0  0  0  0  0  0  0  0
  -21.7342  -28.9689   21.7448 C   0  0  1  0  0  0  0  0  0  0  0  0
  -25.2041  -29.4350   20.2696 C   0  0  1  0  0  0  0  0  0  0  0  0
  -27.5889  -13.6335   19.8243 C   0  0  2  0  0  0  0  0  0  0  0  0
  -26.3611  -17.0117   22.7091 C   0  0  0  0  0  0  0  0  0  0  0  0
  -28.7102  -30.2749   13.4137 C   0  0  0  0  0  0  0  0  0  0  0  0
  -23.2530  -27.9426   16.3547 C   0  0  0  0  0  0  0  0  0  0  0  0
  -24.6842  -28.1034   14.3068 C   0  0  0  0  0  0  0  0  0  0  0  0
  -23.6851  -30.1654   15.2931 C   0  0  0  0  0  0  0  0  0  0  0  0
  -30.3462  -30.4831   16.8424 C   0  0  0  0  0  0  0  0  0  0  0  0
  -28.8187  -21.1484   23.5547 C   0  0  0  0  0  0  0  0  0  0  0  0
  -28.8046  -21.9745   22.2727 C   0  0  0  0  0  0  0  0  0  0  0  0
  -28.7930  -23.4680   22.5687 C   0  0  0  0  0  0  0  0  0  1  0  0
  -25.5956  -29.0197   16.4887 C   0  0  1  0  0  0  0  0  0  0  0  0
  -28.7456  -30.4353   14.9255 C   0  0  2  0  0  0  0  0  0  0  0  0
  -30.8443  -14.3162   22.1970 C   0  0  0  0  0  0  0  0  0  0  0  0
  -24.3152  -28.7976   15.6352 C   0  0  0  0  0  0  0  0  0  0  0  0
  -26.1897  -11.8891   20.8647 N   0  0  0  0  0  0  0  0  0  0  0  0
  -30.9669  -16.7474   22.6811 N   0  0  0  0  0  0  0  0  0  0  0  0
  -28.8968  -15.7802   22.4773 N   0  0  0  0  0  0  0  0  0  0  0  0
  -27.6321  -19.0752   23.1307 N   0  0  0  0  0  0  0  0  0  0  0  0
  -26.2639  -13.1380   20.3737 N   0  0  0  0  0  0  0  0  0  0  0  0
  -28.8045  -17.0942   22.7379 N   0  0  0  0  0  0  0  0  0  0  0  0
  -25.6478  -28.9483   18.9618 N   0  0  0  0  0  0  0  0  0  0  0  0
  -30.0536  -13.4980   20.0032 N   0  0  0  0  0  0  0  0  0  0  0  0
  -24.9858  -15.0944   19.9870 N   0  0  0  0  0  0  0  0  0  0  0  0
  -22.0127  -12.2625   21.8676 N   0  0  0  0  0  0  0  0  0  0  0  0
  -23.0270  -29.4672   21.3266 N   0  0  0  0  0  0  0  0  0  0  0  0
  -26.6078  -29.8486   15.8431 N   0  0  0  0  0  0  0  0  0  0  0  0
  -30.1612  -30.3217   15.3772 N   0  3  0  0  0  0  0  0  0  0  0  0
  -22.2831  -14.3615   20.9844 O   0  0  0  0  0  0  0  0  0  0  0  0
  -23.7660  -27.5633   20.2078 O   0  0  0  0  0  0  0  0  0  0  0  0
  -24.7766  -30.7936   17.8338 O   0  0  0  0  0  0  0  0  0  0  0  0
  -32.1542  -14.4660   20.2288 O   0  0  0  0  0  0  0  0  0  0  0  0
  -28.3078  -28.2731   15.9106 O   0  0  0  0  0  0  0  0  0  0  0  0
  -23.0383   -7.0525   23.5525 O   0  0  0  0  0  0  0  0  0  0  0  0
  -28.7651  -24.1831   21.3341 O   0  0  0  0  0  0  0  0  0  1  0  0
  -18.1802   -5.1064   21.8160 F   0  0  0  0  0  0  0  0  0  0  0  0
  -22.8446   -4.5485   22.3971 F   0  0  0  0  0  0  0  0  0  0  0  0
  -32.0533  -14.1444   22.8442 F   0  0  0  0  0  0  0  0  0  0  0  0
  -30.0944  -13.2495   22.6552 F   0  0  0  0  0  0  0  0  0  0  0  0
  1  2  1  0  0  0  0
  1  5  2  0  0  0  0
  2  6  2  0  0  0  0
  3  8  2  0  0  0  0
  3 15  1  0  0  0  0
  4  9  1  0  0  0  0
  4 15  2  0  0  0  0
  5 17  1  0  0  0  0
  6 19  1  0  0  0  0
  7 10  2  0  0  0  0
  7 18  1  0  0  0  0
  8 21  1  0  0  0  0
  9 21  2  0  0  0  0
 10 22  1  0  0  0  0
 11 12  2  0  0  0  0
 11 23  1  0  0  0  0
 12 24  1  0  0  0  0
 13 20  1  0  0  0  0
 13 22  2  0  0  0  0
 14 24  2  0  0  0  0
 14 25  1  0  0  0  0
 15 26  1  0  0  0  0
 16 26  1  0  0  0  0
 16 27  2  0  0  0  0
 16 33  1  0  0  0  0
 17 19  2  0  0  0  0
 17 38  1  0  0  0  0
 18 20  2  0  0  0  0
 18 39  1  0  0  0  0
 19 47  1  0  0  0  0
 20 40  1  0  0  0  0
 21 81  1  0  0  0  0
 22 82  1  0  0  0  0
 23 25  2  0  0  0  0
 23 81  1  0  0  0  0
 24 83  1  0  0  0  0
 25 84  1  0  0  0  0
 26 63  2  0  0  0  0
 27 67  1  0  0  0  0
 27 71  1  0  0  0  0
 28 30  1  0  0  0  0
 28 64  2  0  0  0  0
 28 68  1  0  0  0  0
 29 61  1  0  0  0  0
 29 64  1  0  0  0  0
 29 65  2  0  0  0  0
 30 31  2  0  0  0  0
 31 56  1  0  0  0  0
 31 66  1  0  0  0  0
 32 50  1  0  0  0  0
 32 66  2  0  0  0  0
 32 68  1  0  0  0  0
 33 72  1  0  0  0  0
 33 76  2  0  0  0  0
 34 48  1  0  0  0  0
 34 73  1  0  0  0  0
 34 77  2  0  0  0  0
 35 59  1  0  0  0  0
 35 69  1  0  0  0  0
 35 78  2  0  0  0  0
 36 61  1  0  0  0  0
 36 70  1  0  0  0  0
 36 79  2  0  0  0  0
 37 60  1  0  0  0  0
 37 74  1  0  0  0  0
 37 80  2  0  0  0  0
 38 41  1  0  0  0  0
 39 48  1  0  0  0  0
 40 69  1  0  0  0  0
 41 43  1  0  0  0  0
 42 44  1  0  0  0  0
 42 45  1  0  0  0  0
 43 47  1  0  0  0  0
 44 49  1  0  0  0  0
 45 70  1  0  0  0  0
 46 49  1  0  0  0  0
 46 70  1  0  0  0  0
 47 73  1  0  0  0  0
 48 69  1  0  0  0  0
 49 67  1  0  0  0  0
 51 60  1  0  0  0  0
 52 62  1  0  0  0  0
 53 62  1  0  0  0  0
 54 62  1  0  0  0  0
 55 75  1  0  0  0  0
 56 57  1  0  0  0  0
 57 58  1  0  0  0  0
 58 82  1  0  0  0  0
 59 62  1  0  0  0  0
 59 74  1  0  0  0  0
 60 75  1  0  0  0  0
 61 85  1  0  0  0  0
 61 86  1  0  0  0  0
 63 67  1  0  0  0  0
 65 68  1  0  0  0  0
M  CHG  1  75   1
M  ISO  4  36 100  58 101  61 100  82 101
M  END
> <Batch ID>
0043

> <Smiles>
CNC(C)C(=O)NC(C(=O)N1Cc2cc([101O:1][101CH2:1]CCc3cc4nc([100C:0](F)(F)[100C:0](=O)N5CCCC(n6nc(-c7ccc(Oc8ccc(F)cc8F)cc7)c(C(N)=O)c6N)C5)nn4c(C)n3)ccc2CC1C(=O)NC1CCCc2ccccc21)C(C)(C)C

> <Shape>
0.258

> <Color>
0.146

> <Negative vol penalty>
0.000

$$$$

  -OEChem-04052317143D

 80 88  0     1  0  0  0  0  0999 V2000
  -18.0224  -25.4397   22.7838 C   0  0  0  0  0  0  0  0  0  0  0  0
  -19.3207  -25.4074   22.2849 C   0  0  0  0  0  0  0  0  0  0  0  0
  -26.1313  -13.6672   21.7289 C   0  0  0  0  0  0  0  0  0  0  0  0
  -26.2377  -12.4874   19.6232 C   0  0  0  0  0  0  0  0  0  0  0  0
  -17.3707  -26.6610   22.9494 C   0  0  0  0  0  0  0  0  0  0  0  0
  -19.9676  -26.5965   21.9503 C   0  0  0  0  0  0  0  0  0  0  0  0
  -24.7423  -26.7501   23.6306 C   0  0  0  0  0  0  0  0  0  0  0  0
  -24.9298  -13.0249   22.0281 C   0  0  0  0  0  0  0  0  0  0  0  0
  -25.0362  -11.8450   19.9224 C   0  0  0  0  0  0  0  0  0  0  0  0
  -25.6956  -26.0360   22.9059 C   0  0  0  0  0  0  0  0  0  0  0  0
  -24.0072   -9.2546   21.8332 C   0  0  0  0  0  0  0  0  0  0  0  0
  -23.9314   -7.8821   21.5964 C   0  0  0  0  0  0  0  0  0  0  0  0
  -26.3990  -28.0778   21.8309 C   0  0  0  0  0  0  0  0  0  0  0  0
  -22.1074   -8.2488   20.0551 C   0  0  0  0  0  0  0  0  0  0  0  0
  -31.7439  -23.1497   17.7971 C   0  0  0  0  0  0  0  0  0  0  0  0
  -26.7852  -13.3985   20.5264 C   0  0  0  0  0  0  0  0  0  0  0  0
  -29.3264  -13.6222   20.5285 C   0  0  0  0  0  0  0  0  0  0  0  0
  -18.0134  -27.8663   22.6257 C   0  0  0  0  0  0  0  0  0  0  0  0
  -24.6026  -28.1340   23.4525 C   0  0  0  0  0  0  0  0  0  0  0  0
  -19.3233  -27.8351   22.1105 C   0  0  0  0  0  0  0  0  0  0  0  0
  -25.4449  -28.8075   22.5564 C   0  0  0  0  0  0  0  0  0  0  0  0
  -24.3823  -12.1138   21.1249 C   0  0  0  0  0  0  0  0  0  0  0  0
  -26.5222  -26.6994   22.0038 C   0  0  0  0  0  0  0  0  0  0  0  0
  -23.1331  -10.1242   21.1810 C   0  0  0  0  0  0  0  0  0  0  0  0
  -22.9815   -7.3792   20.7074 C   0  0  0  0  0  0  0  0  0  0  0  0
  -22.1832   -9.6213   20.2920 C   0  0  0  0  0  0  0  0  0  0  0  0
  -28.0260  -14.0622   20.2165 C   0  0  0  0  0  0  0  0  0  0  0  0
  -30.5983  -21.5118   18.7252 C   0  0  0  0  0  0  0  0  0  0  0  0
  -29.7697  -22.4150   18.1022 C   0  0  0  0  0  0  0  0  0  0  0  0
  -30.1497  -14.5982   20.0223 C   0  0  0  0  0  0  0  0  0  0  0  0
  -29.7520  -12.4373   21.2144 C   0  0  0  0  0  0  0  0  0  0  0  0
  -30.2607  -20.2861   19.4593 C   0  0  0  0  0  0  0  0  0  0  0  0
  -22.2680  -30.0417   22.4456 C   0  0  0  0  0  0  0  0  0  0  0  0
  -24.3314  -32.3847   23.3261 C   0  0  0  0  0  0  0  0  0  0  0  0
  -27.5558  -33.3344   23.9163 C   0  0  0  0  0  0  0  0  0  0  0  0
  -17.2512  -29.1589   22.7774 C   0  0  0  0  0  0  0  0  0  0  0  0
  -23.5875  -28.8940   24.2615 C   0  0  0  0  0  0  0  0  0  0  0  0
  -25.3489  -30.2954   22.3436 C   0  0  0  0  0  0  0  0  0  0  0  0
  -18.1424  -30.3981   22.7517 C   0  0  0  0  0  0  0  0  0  0  0  0
  -29.6847  -18.1295   16.5986 C   0  0  0  0  0  0  0  0  0  0  0  0
  -19.1388  -30.3152   21.5997 C   0  0  0  0  0  0  0  0  0  0  0  0
  -29.3030  -16.8152   17.2809 C   0  0  0  0  0  0  0  0  0  0  0  0
  -29.1535  -19.3322   17.3724 C   0  0  0  0  0  0  0  0  0  0  0  0
  -29.1945  -18.0558   19.4896 C   0  0  0  0  0  0  0  0  0  0  0  0
  -20.0673  -29.1052   21.7594 C   0  0  1  0  0  0  0  0  0  0  0  0
  -23.1852  -30.2195   23.6224 C   0  0  1  0  0  0  0  0  0  0  0  0
  -29.7298  -16.8112   18.7604 C   0  0  1  0  0  0  0  0  0  0  0  0
  -28.9325  -35.3228   24.5859 C   0  0  0  0  0  0  0  0  0  0  0  0
  -24.0125  -33.5465   20.5228 C   0  0  0  0  0  0  0  0  0  0  0  0
  -26.0702  -34.9131   20.9307 C   0  0  0  0  0  0  0  0  0  0  0  0
  -24.0514  -35.2451   22.3578 C   0  0  0  0  0  0  0  0  0  0  0  0
  -33.0972  -21.4098   18.9792 C   0  0  0  0  0  0  0  0  0  0  0  0
  -28.5497  -31.9729   26.3489 C   0  0  0  0  0  0  0  0  0  0  0  0
  -28.2654  -22.3965   17.9992 C   0  0  0  0  0  0  0  0  0  0  0  0
  -27.5512  -22.8226   19.2867 C   0  0  0  0  0  0  0  0  0  0  0  0
  -27.8462  -24.2696   19.6841 C   0  0  0  0  0  0  0  0  0  0  0  0
  -27.1526  -24.6441   20.9869 C   0  0  0  0  0  0  0  0  0  1  0  0
  -25.4371  -33.1492   22.6391 C   0  0  1  0  0  0  0  0  0  0  0  0
  -28.1881  -34.0888   25.0719 C   0  0  2  0  0  0  0  0  0  0  0  0
  -24.8935  -34.1851   21.6149 C   0  0  0  0  0  0  0  0  0  0  0  0
  -30.4890  -23.4321   17.5263 N   0  0  0  0  0  0  0  0  0  0  0  0
  -28.0187  -15.2270   19.5629 N   0  0  0  0  0  0  0  0  0  0  0  0
  -31.8598  -21.9960   18.5214 N   0  0  0  0  0  0  0  0  0  0  0  0
  -29.3246  -15.5273   19.4601 N   0  0  0  0  0  0  0  0  0  0  0  0
  -29.5799  -19.2752   18.7764 N   0  0  0  0  0  0  0  0  0  0  0  0
  -24.3365  -30.9933   23.1533 N   0  0  0  0  0  0  0  0  0  0  0  0
  -31.4917  -14.7436   20.0078 N   0  0  0  0  0  0  0  0  0  0  0  0
  -28.7751  -11.5407   21.6683 N   0  0  0  0  0  0  0  0  0  0  0  0
  -21.0917  -29.3808   22.7439 N   0  0  0  0  0  0  0  0  0  0  0  0
  -26.2525  -33.7296   23.7005 N   0  0  0  0  0  0  0  0  0  0  0  0
  -29.1523  -33.2133   25.7964 N   0  3  0  0  0  0  0  0  0  0  0  0
  -30.9620  -12.1894   21.4333 O   0  0  0  0  0  0  0  0  0  0  0  0
  -30.6193  -20.2418   20.6352 O   0  0  0  0  0  0  0  0  0  0  0  0
  -22.6021  -30.4736   21.3485 O   0  0  0  0  0  0  0  0  0  0  0  0
  -23.4982  -32.9986   23.9973 O   0  0  0  0  0  0  0  0  0  0  0  0
  -28.1589  -32.4825   23.2674 O   0  0  0  0  0  0  0  0  0  0  0  0
  -23.2101  -11.4866   21.4166 O   0  0  0  0  0  0  0  0  0  0  0  0
  -27.4530  -26.0047   21.2948 O   0  0  0  0  0  0  0  0  0  1  0  0
  -22.9099   -6.0613   20.4789 F   0  0  0  0  0  0  0  0  0  0  0  0
  -21.3415  -10.4519   19.6615 F   0  0  0  0  0  0  0  0  0  0  0  0
  1  2  1  0  0  0  0
  1  5  2  0  0  0  0
  2  6  2  0  0  0  0
  3  8  2  0  0  0  0
  3 16  1  0  0  0  0
  4  9  1  0  0  0  0
  4 16  2  0  0  0  0
  5 18  1  0  0  0  0
  6 20  1  0  0  0  0
  7 10  2  0  0  0  0
  7 19  1  0  0  0  0
  8 22  1  0  0  0  0
  9 22  2  0  0  0  0
 10 23  1  0  0  0  0
 11 12  2  0  0  0  0
 11 24  1  0  0  0  0
 12 25  1  0  0  0  0
 13 21  1  0  0  0  0
 13 23  2  0  0  0  0
 14 25  2  0  0  0  0
 14 26  1  0  0  0  0
 15 61  2  0  0  0  0
 15 63  1  0  0  0  0
 16 27  1  0  0  0  0
 17 27  1  0  0  0  0
 17 30  2  0  0  0  0
 17 31  1  0  0  0  0
 18 20  2  0  0  0  0
 18 36  1  0  0  0  0
 19 21  2  0  0  0  0
 19 37  1  0  0  0  0
 20 45  1  0  0  0  0
 21 38  1  0  0  0  0
 22 77  1  0  0  0  0
 23 78  1  0  0  0  0
 24 26  2  0  0  0  0
 24 77  1  0  0  0  0
 25 79  1  0  0  0  0
 26 80  1  0  0  0  0
 27 62  2  0  0  0  0
 28 29  2  0  0  0  0
 28 32  1  0  0  0  0
 28 63  1  0  0  0  0
 29 54  1  0  0  0  0
 29 61  1  0  0  0  0
 30 64  1  0  0  0  0
 30 67  1  0  0  0  0
 31 68  1  0  0  0  0
 31 72  2  0  0  0  0
 32 65  1  0  0  0  0
 32 73  2  0  0  0  0
 33 46  1  0  0  0  0
 33 69  1  0  0  0  0
 33 74  2  0  0  0  0
 34 58  1  0  0  0  0
 34 66  1  0  0  0  0
 34 75  2  0  0  0  0
 35 59  1  0  0  0  0
 35 70  1  0  0  0  0
 35 76  2  0  0  0  0
 36 39  1  0  0  0  0
 37 46  1  0  0  0  0
 38 66  1  0  0  0  0
 39 41  1  0  0  0  0
 40 42  1  0  0  0  0
 40 43  1  0  0  0  0
 41 45  1  0  0  0  0
 42 47  1  0  0  0  0
 43 65  1  0  0  0  0
 44 47  1  0  0  0  0
 44 65  1  0  0  0  0
 45 69  1  0  0  0  0
 46 66  1  0  0  0  0
 47 64  1  0  0  0  0
 48 59  1  0  0  0  0
 49 60  1  0  0  0  0
 50 60  1  0  0  0  0
 51 60  1  0  0  0  0
 52 63  1  0  0  0  0
 53 71  1  0  0  0  0
 54 55  1  0  0  0  0
 55 56  1  0  0  0  0
 56 57  1  0  0  0  0
 57 78  1  0  0  0  0
 58 60  1  0  0  0  0
 58 70  1  0  0  0  0
 59 71  1  0  0  0  0
 62 64  1  0  0  0  0
M  CHG  1  71   1
M  ISO  4  28 100  32 100  57 101  78 101
M  END
> <Batch ID>
0043

> <Smiles>
CNC(C)C(=O)NC(C(=O)N1Cc2cc([101O:1][101CH2:1]CCCc3ncn(C)[100c:0]3[100C:0](=O)N3CCCC(n4nc(-c5ccc(Oc6ccc(F)cc6F)cc5)c(C(N)=O)c4N)C3)ccc2CC1C(=O)NC1CCCc2ccccc21)C(C)(C)C

> <Shape>
0.304

> <Color>
0.096

> <Negative vol penalty>
0.000

$$$$

  -OEChem-04052317143D

 88 96  0     1  0  0  0  0  0999 V2000
  -17.6468  -30.1423   16.6842 C   0  0  0  0  0  0  0  0  0  0  0  0
  -18.3315  -30.3358   17.8797 C   0  0  0  0  0  0  0  0  0  0  0  0
  -23.8977   -9.7316   22.0706 C   0  0  0  0  0  0  0  0  0  0  0  0
  -22.2303  -10.2934   20.4150 C   0  0  0  0  0  0  0  0  0  0  0  0
  -17.8569  -28.9810   15.9420 C   0  0  0  0  0  0  0  0  0  0  0  0
  -19.2260  -29.3675   18.3341 C   0  0  0  0  0  0  0  0  0  0  0  0
  -23.5699  -31.3655   20.0025 C   0  0  0  0  0  0  0  0  0  0  0  0
  -23.4627   -8.4063   22.0590 C   0  0  0  0  0  0  0  0  0  0  0  0
  -21.7953   -8.9682   20.4033 C   0  0  0  0  0  0  0  0  0  0  0  0
  -23.5597  -31.9415   21.2721 C   0  0  0  0  0  0  0  0  0  0  0  0
  -20.9142   -6.6102   23.3643 C   0  0  0  0  0  0  0  0  0  0  0  0
  -20.7438   -5.9740   24.5938 C   0  0  0  0  0  0  0  0  0  0  0  0
  -24.5597  -29.9428   22.1803 C   0  0  0  0  0  0  0  0  0  0  0  0
  -22.3817   -4.3141   23.9620 C   0  0  0  0  0  0  0  0  0  0  0  0
  -20.1181  -30.8972   24.0071 C   0  0  0  0  0  0  0  0  0  0  0  0
  -23.2814  -10.6751   21.2486 C   0  0  0  0  0  0  0  0  0  0  0  0
  -24.7276  -12.6192   20.4507 C   0  0  0  0  0  0  0  0  0  0  0  0
  -18.7616  -28.0023   16.3827 C   0  0  0  0  0  0  0  0  0  0  0  0
  -24.0660  -30.0675   19.8137 C   0  0  0  0  0  0  0  0  0  0  0  0
  -19.4474  -28.1913   17.5977 C   0  0  0  0  0  0  0  0  0  0  0  0
  -24.5775  -29.3537   20.9068 C   0  0  0  0  0  0  0  0  0  0  0  0
  -22.4115   -8.0246   21.2253 C   0  0  0  0  0  0  0  0  0  0  0  0
  -24.0519  -31.2290   22.3617 C   0  0  0  0  0  0  0  0  0  0  0  0
  -21.8183   -6.0983   22.4335 C   0  0  0  0  0  0  0  0  0  0  0  0
  -21.4776   -4.8260   24.8927 C   0  0  0  0  0  0  0  0  0  0  0  0
  -22.5521   -4.9503   22.7324 C   0  0  0  0  0  0  0  0  0  0  0  0
  -23.7299  -12.0444   21.2606 C   0  0  0  0  0  0  0  0  0  0  0  0
  -19.3926  -29.7564   24.2426 C   0  0  0  0  0  0  0  0  0  0  0  0
  -24.7762  -13.9335   20.8465 C   0  0  0  0  0  0  0  0  0  0  0  0
  -25.5379  -12.0189   19.4315 C   0  0  0  0  0  0  0  0  0  0  0  0
  -22.8312  -27.3198   18.7991 C   0  0  0  0  0  0  0  0  0  0  0  0
  -22.1408  -18.6052   22.0746 C   0  0  0  0  0  0  0  0  0  0  0  0
  -25.9061  -26.3088   19.0116 C   0  0  0  0  0  0  0  0  0  0  0  0
  -28.9951  -26.7014   20.4084 C   0  0  0  0  0  0  0  0  0  0  0  0
  -18.9202  -26.7417   15.5700 C   0  0  0  0  0  0  0  0  0  0  0  0
  -24.0947  -29.4706   18.4334 C   0  0  0  0  0  0  0  0  0  0  0  0
  -25.1397  -27.9648   20.7539 C   0  0  0  0  0  0  0  0  0  0  0  0
  -20.1650  -25.9358   15.9325 C   0  0  0  0  0  0  0  0  0  0  0  0
  -22.6875  -16.2688   24.8076 C   0  0  0  0  0  0  0  0  0  0  0  0
  -20.2919  -25.8017   17.4467 C   0  0  0  0  0  0  0  0  0  0  0  0
  -23.0622  -14.9954   24.0507 C   0  0  0  0  0  0  0  0  0  0  0  0
  -21.6433  -17.0852   24.0504 C   0  0  0  0  0  0  0  0  0  0  0  0
  -22.4183  -16.1534   21.8926 C   0  0  0  0  0  0  0  0  0  0  0  0
  -20.4444  -27.1752   18.1113 C   0  0  1  0  0  0  0  0  0  0  0  0
  -24.1497  -27.9461   18.4427 C   0  0  1  0  0  0  0  0  0  0  0  0
  -23.4917  -15.3167   22.6085 C   0  0  2  0  0  0  0  0  0  0  0  0
  -31.2960  -25.6998   20.4146 C   0  0  0  0  0  0  0  0  0  0  0  0
  -24.8996  -24.0135   20.7519 C   0  0  0  0  0  0  0  0  0  0  0  0
  -27.2612  -23.6290   21.4890 C   0  0  0  0  0  0  0  0  0  0  0  0
  -26.6489  -23.3692   19.0848 C   0  0  0  0  0  0  0  0  0  0  0  0
  -30.2138  -29.2052   19.4061 C   0  0  0  0  0  0  0  0  0  0  0  0
  -22.0627  -25.2707   23.9133 C   0  0  0  0  0  0  0  0  0  0  0  0
  -18.4307  -29.0750   23.3667 C   0  0  0  0  0  0  0  0  0  0  0  0
  -21.7292  -19.7800   22.9258 C   0  0  0  0  0  0  0  0  0  0  0  0
  -19.0385  -28.0005   22.4307 C   0  0  0  0  0  0  0  0  0  0  0  0
  -21.8470  -21.0875   22.1473 C   0  0  0  0  0  0  0  0  0  0  0  0
  -19.6826  -26.8452   23.2031 C   0  0  0  0  0  0  0  0  0  0  0  0
  -21.3734  -22.2977   22.9616 C   0  0  0  0  0  0  0  0  0  0  0  0
  -23.2139  -31.6407   25.8489 C   0  0  0  0  0  0  0  0  0  0  0  0
  -21.8228  -32.1550   25.4720 C   0  0  0  0  0  0  0  0  0  0  0  0
  -20.2958  -25.8292   22.2500 C   0  0  0  0  0  0  0  0  0  0  0  0
  -21.4136  -23.6052   22.1794 C   0  0  0  0  0  0  0  0  0  0  0  0
  -23.9133  -30.9027   24.7134 C   0  0  0  0  0  0  0  0  0  1  0  0
  -26.7541  -25.6850   20.0937 C   0  0  1  0  0  0  0  0  0  0  0  0
  -30.3816  -26.7431   19.7917 C   0  0  2  0  0  0  0  0  0  0  0  0
  -26.3786  -24.1996   20.3584 C   0  0  0  0  0  0  0  0  0  0  0  0
  -23.1842  -12.9216   22.1072 N   0  0  0  0  0  0  0  0  0  0  0  0
  -19.6864  -29.2740   25.4878 N   0  0  0  0  0  0  0  0  0  0  0  0
  -20.5800  -30.0872   26.0403 N   0  0  0  0  0  0  0  0  0  0  0  0
  -20.8374  -31.0599   25.1509 N   0  0  0  0  0  0  0  0  0  0  0  0
  -23.8413  -14.0610   21.8314 N   0  0  0  0  0  0  0  0  0  0  0  0
  -25.1401  -27.4220   19.3854 N   0  0  0  0  0  0  0  0  0  0  0  0
  -22.0778  -17.3466   22.6729 N   0  0  0  0  0  0  0  0  0  0  0  0
  -25.5270  -14.9811   20.4449 N   0  0  0  0  0  0  0  0  0  0  0  0
  -25.3587  -10.6574   19.1511 N   0  0  0  0  0  0  0  0  0  0  0  0
  -21.7963  -27.6666   17.9517 N   0  0  0  0  0  0  0  0  0  0  0  0
  -28.1420  -25.8882   19.6928 N   0  0  0  0  0  0  0  0  0  0  0  0
  -30.9967  -28.0859   19.9903 N   0  3  0  0  0  0  0  0  0  0  0  0
  -20.9461  -24.7549   23.0384 N   0  3  1  0  0  0  0  0  0  0  0  0
  -26.4069  -12.6666   18.8000 O   0  0  0  0  0  0  0  0  0  0  0  0
  -22.7586  -26.5759   19.7702 O   0  0  0  0  0  0  0  0  0  0  0  0
  -22.5094  -18.8027   20.9139 O   0  0  0  0  0  0  0  0  0  0  0  0
  -25.9283  -25.8304   17.8748 O   0  0  0  0  0  0  0  0  0  0  0  0
  -28.6995  -27.3247   21.4256 O   0  0  0  0  0  0  0  0  0  0  0  0
  -21.9870   -6.7315   21.2135 O   0  0  0  0  0  0  0  0  0  0  0  0
  -24.0425  -31.7886   23.6021 O   0  0  0  0  0  0  0  0  0  1  0  0
  -21.3149   -4.2161   26.0741 F   0  0  0  0  0  0  0  0  0  0  0  0
  -23.4230   -4.4545   21.8427 F   0  0  0  0  0  0  0  0  0  0  0  0
  1  2  1  0  0  0  0
  1  5  2  0  0  0  0
  2  6  2  0  0  0  0
  3  8  2  0  0  0  0
  3 16  1  0  0  0  0
  4  9  1  0  0  0  0
  4 16  2  0  0  0  0
  5 18  1  0  0  0  0
  6 20  1  0  0  0  0
  7 10  2  0  0  0  0
  7 19  1  0  0  0  0
  8 22  1  0  0  0  0
  9 22  2  0  0  0  0
 10 23  1  0  0  0  0
 11 12  2  0  0  0  0
 11 24  1  0  0  0  0
 12 25  1  0  0  0  0
 13 21  1  0  0  0  0
 13 23  2  0  0  0  0
 14 25  2  0  0  0  0
 14 26  1  0  0  0  0
 15 28  2  0  0  0  0
 15 70  1  0  0  0  0
 16 27  1  0  0  0  0
 17 27  1  0  0  0  0
 17 29  2  0  0  0  0
 17 30  1  0  0  0  0
 18 20  2  0  0  0  0
 18 35  1  0  0  0  0
 19 21  2  0  0  0  0
 19 36  1  0  0  0  0
 20 44  1  0  0  0  0
 21 37  1  0  0  0  0
 22 85  1  0  0  0  0
 23 86  1  0  0  0  0
 24 26  2  0  0  0  0
 24 85  1  0  0  0  0
 25 87  1  0  0  0  0
 26 88  1  0  0  0  0
 27 67  2  0  0  0  0
 28 53  1  0  0  0  0
 28 68  1  0  0  0  0
 29 71  1  0  0  0  0
 29 74  1  0  0  0  0
 30 75  1  0  0  0  0
 30 80  2  0  0  0  0
 31 45  1  0  0  0  0
 31 76  1  0  0  0  0
 31 81  2  0  0  0  0
 32 54  1  0  0  0  0
 32 73  1  0  0  0  0
 32 82  2  0  0  0  0
 33 64  1  0  0  0  0
 33 72  1  0  0  0  0
 33 83  2  0  0  0  0
 34 65  1  0  0  0  0
 34 77  1  0  0  0  0
 34 84  2  0  0  0  0
 35 38  1  0  0  0  0
 36 45  1  0  0  0  0
 37 72  1  0  0  0  0
 38 40  1  0  0  0  0
 39 41  1  0  0  0  0
 39 42  1  0  0  0  0
 40 44  1  0  0  0  0
 41 46  1  0  0  0  0
 42 73  1  0  0  0  0
 43 46  1  0  0  0  0
 43 73  1  0  0  0  0
 44 76  1  0  0  0  0
 45 72  1  0  0  0  0
 46 71  1  0  0  0  0
 47 65  1  0  0  0  0
 48 66  1  0  0  0  0
 49 66  1  0  0  0  0
 50 66  1  0  0  0  0
 51 78  1  0  0  0  0
 52 79  1  0  0  0  0
 53 55  1  0  0  0  0
 54 56  1  0  0  0  0
 55 57  1  0  0  0  0
 56 58  1  0  0  0  0
 57 61  1  0  0  0  0
 58 62  1  0  0  0  0
 59 60  1  0  0  0  0
 59 63  1  0  0  0  0
 60 70  1  0  0  0  0
 61 79  1  0  0  0  0
 62 79  1  0  0  0  0
 63 86  1  0  0  0  0
 64 66  1  0  0  0  0
 64 77  1  0  0  0  0
 65 78  1  0  0  0  0
 67 71  1  0  0  0  0
 68 69  2  0  0  0  0
 69 70  1  0  0  0  0
M  CHG  2  78   1  79   1
M  ISO  4  32 100  54 100  63 101  86 101
M  END
> <Batch ID>
0043

> <Smiles>
CNC(C)C(=O)NC(C(=O)N1Cc2cc([101O:1][101CH2:1]CCn3cc(CCCCN(C)CCC[100CH2:0][100C:0](=O)N4CCCC(n5nc(-c6ccc(Oc7ccc(F)cc7F)cc6)c(C(N)=O)c5N)C4)nn3)ccc2CC1C(=O)NC1CCCc2ccccc21)C(C)(C)C

> <Shape>
0.254

> <Color>
0.117

> <Negative vol penalty>
0.000

$$$$

  -OEChem-04052317143D

 84 92  0     1  0  0  0  0  0999 V2000
  -19.7903  -26.8404   24.4740 C   0  0  0  0  0  0  0  0  0  0  0  0
  -20.1830  -26.0569   23.3935 C   0  0  0  0  0  0  0  0  0  0  0  0
  -27.9031  -23.2973   20.8409 C   0  0  0  0  0  0  0  0  0  0  0  0
  -28.4205  -22.9631   18.5047 C   0  0  0  0  0  0  0  0  0  0  0  0
  -19.8804  -26.3341   25.7699 C   0  0  0  0  0  0  0  0  0  0  0  0
  -20.6669  -24.7669   23.6085 C   0  0  0  0  0  0  0  0  0  0  0  0
  -20.8075  -18.2791   20.5745 C   0  0  0  0  0  0  0  0  0  0  0  0
  -27.8638  -24.6763   20.6349 C   0  0  0  0  0  0  0  0  0  0  0  0
  -28.3812  -24.3421   18.2987 C   0  0  0  0  0  0  0  0  0  0  0  0
  -21.7093  -17.2816   20.2064 C   0  0  0  0  0  0  0  0  0  0  0  0
  -25.7002  -26.9449   19.3678 C   0  0  0  0  0  0  0  0  0  0  0  0
  -24.6411  -27.6548   19.9333 C   0  0  0  0  0  0  0  0  0  0  0  0
  -21.7459  -16.4832   22.4825 C   0  0  0  0  0  0  0  0  0  0  0  0
  -26.2088  -28.9740   21.2136 C   0  0  0  0  0  0  0  0  0  0  0  0
  -25.8485  -13.5480   21.4085 C   0  0  0  0  0  0  0  0  0  0  0  0
  -28.1816  -22.4407   19.7758 C   0  0  0  0  0  0  0  0  0  0  0  0
  -27.1517  -20.1092   19.8803 C   0  0  0  0  0  0  0  0  0  0  0  0
  -20.3566  -25.0338   26.0002 C   0  0  0  0  0  0  0  0  0  0  0  0
  -20.3759  -18.3932   21.9039 C   0  0  0  0  0  0  0  0  0  0  0  0
  -20.7647  -24.2432   24.9089 C   0  0  0  0  0  0  0  0  0  0  0  0
  -20.8367  -17.4815   22.8644 C   0  0  0  0  0  0  0  0  0  0  0  0
  -24.4839  -13.5507   21.2527 C   0  0  0  0  0  0  0  0  0  0  0  0
  -28.1028  -25.1987   19.3638 C   0  0  0  0  0  0  0  0  0  0  0  0
  -22.1809  -16.3852   21.1610 C   0  0  0  0  0  0  0  0  0  0  0  0
  -27.0137  -27.2495   19.7253 C   0  0  0  0  0  0  0  0  0  0  0  0
  -24.8953  -28.6694   20.8561 C   0  0  0  0  0  0  0  0  0  0  0  0
  -27.2679  -28.2640   20.6481 C   0  0  0  0  0  0  0  0  0  0  0  0
  -28.2229  -21.0161   19.9880 C   0  0  0  0  0  0  0  0  0  0  0  0
  -24.2214  -12.4383   20.4308 C   0  0  0  0  0  0  0  0  0  0  0  0
  -27.7050  -18.8875   20.1768 C   0  0  0  0  0  0  0  0  0  0  0  0
  -25.7792  -20.3495   19.5424 C   0  0  0  0  0  0  0  0  0  0  0  0
  -20.5988  -20.6307   24.1505 C   0  0  0  0  0  0  0  0  0  0  0  0
  -18.6624  -18.6170   25.7989 C   0  0  0  0  0  0  0  0  0  0  0  0
  -17.5190  -15.4364   26.2714 C   0  0  0  0  0  0  0  0  0  0  0  0
  -31.8159  -15.1500   19.6502 C   0  0  0  0  0  0  0  0  0  0  0  0
  -20.4802  -24.5472   27.4224 C   0  0  0  0  0  0  0  0  0  0  0  0
  -19.3823  -19.4582   22.2794 C   0  0  0  0  0  0  0  0  0  0  0  0
  -20.3885  -17.5486   24.3007 C   0  0  0  0  0  0  0  0  0  0  0  0
  -20.6516  -23.0346   27.5359 C   0  0  0  0  0  0  0  0  0  0  0  0
  -32.2319  -17.7025   22.0975 C   0  0  0  0  0  0  0  0  0  0  0  0
  -21.6991  -22.5401   26.5434 C   0  0  0  0  0  0  0  0  0  0  0  0
  -31.1422  -18.7196   21.7540 C   0  0  0  0  0  0  0  0  0  0  0  0
  -32.8296  -17.0703   20.8424 C   0  0  0  0  0  0  0  0  0  0  0  0
  -30.7556  -17.4882   19.5785 C   0  0  0  0  0  0  0  0  0  0  0  0
  -21.2715  -22.8302   25.0996 C   0  0  1  0  0  0  0  0  0  0  0  0
  -19.4068  -19.8008   23.7658 C   0  0  1  0  0  0  0  0  0  0  0  0
  -30.0839  -18.1116   20.8140 C   0  0  2  0  0  0  0  0  0  0  0  0
  -15.9688  -14.0950   27.7188 C   0  0  0  0  0  0  0  0  0  0  0  0
  -20.6980  -18.7191   28.0696 C   0  0  0  0  0  0  0  0  0  0  0  0
  -19.6103  -16.6849   29.0429 C   0  0  0  0  0  0  0  0  0  0  0  0
  -18.3092  -18.8000   28.8056 C   0  0  0  0  0  0  0  0  0  0  0  0
  -15.8613  -14.6355   23.9542 C   0  0  0  0  0  0  0  0  0  0  0  0
  -23.5037  -14.5268   21.8337 C   0  0  0  0  0  0  0  0  0  1  0  0
  -28.4378  -12.9393   19.5636 C   0  0  0  0  0  0  0  0  0  0  0  0
  -29.8832  -12.4616   19.3948 C   0  0  0  0  0  0  0  0  0  0  0  0
  -27.6781  -12.0605   20.5604 C   0  0  0  0  0  0  0  0  0  0  0  0
  -30.6750  -13.3236   18.4168 C   0  0  0  0  0  0  0  0  0  0  0  0
  -22.9144  -11.9645   19.9425 C   0  0  0  0  0  0  0  0  0  0  0  0
  -18.8793  -17.4572   26.7407 C   0  0  1  0  0  0  0  0  0  0  0  0
  -16.1136  -14.8838   26.4267 C   0  0  2  0  0  0  0  0  0  0  0  0
  -19.3843  -17.9150   28.1381 C   0  0  0  0  0  0  0  0  0  0  0  0
  -29.3700  -20.4215   20.3266 N   0  0  0  0  0  0  0  0  0  0  0  0
  -25.3302  -11.7772   20.0882 N   0  0  0  0  0  0  0  0  0  0  0  0
  -26.3027  -12.4762   20.6978 N   0  0  0  0  0  0  0  0  0  0  0  0
  -29.0226  -19.1277   20.4343 N   0  0  0  0  0  0  0  0  0  0  0  0
  -19.4210  -18.6115   24.6198 N   0  0  0  0  0  0  0  0  0  0  0  0
  -31.7738  -16.5111   19.9948 N   0  0  0  0  0  0  0  0  0  0  0  0
  -27.1881  -17.6420   20.2397 N   0  0  0  0  0  0  0  0  0  0  0  0
  -25.3793  -21.6641   19.2666 N   0  0  0  0  0  0  0  0  0  0  0  0
  -20.2775  -21.8724   24.6648 N   0  0  0  0  0  0  0  0  0  0  0  0
  -17.6227  -16.7167   26.7726 N   0  0  0  0  0  0  0  0  0  0  0  0
  -30.7736  -14.6998   18.8493 N   0  0  0  0  0  0  0  0  0  0  0  0
  -15.7822  -13.9832   25.2866 N   0  3  0  0  0  0  0  0  0  0  0  0
  -24.9289  -19.4280   19.5028 O   0  0  0  0  0  0  0  0  0  0  0  0
  -21.7265  -20.1775   23.9939 O   0  0  0  0  0  0  0  0  0  0  0  0
  -17.8447  -19.4917   26.0951 O   0  0  0  0  0  0  0  0  0  0  0  0
  -18.4342  -14.7948   25.7603 O   0  0  0  0  0  0  0  0  0  0  0  0
  -32.7129  -14.3911   20.0328 O   0  0  0  0  0  0  0  0  0  0  0  0
  -28.0642  -26.5443   19.1624 O   0  0  0  0  0  0  0  0  0  0  0  0
  -23.0616  -15.4110   20.8046 O   0  0  0  0  0  0  0  0  0  1  0  0
  -23.8781  -29.3521   21.3979 F   0  0  0  0  0  0  0  0  0  0  0  0
  -28.5277  -28.5620   20.9946 F   0  0  0  0  0  0  0  0  0  0  0  0
  -22.2756  -12.9228   19.2089 F   0  0  0  0  0  0  0  0  0  0  0  0
  -22.0722  -11.6660   20.9750 F   0  0  0  0  0  0  0  0  0  0  0  0
  1  2  1  0  0  0  0
  1  5  2  0  0  0  0
  2  6  2  0  0  0  0
  3  8  2  0  0  0  0
  3 16  1  0  0  0  0
  4  9  1  0  0  0  0
  4 16  2  0  0  0  0
  5 18  1  0  0  0  0
  6 20  1  0  0  0  0
  7 10  2  0  0  0  0
  7 19  1  0  0  0  0
  8 23  1  0  0  0  0
  9 23  2  0  0  0  0
 10 24  1  0  0  0  0
 11 12  2  0  0  0  0
 11 25  1  0  0  0  0
 12 26  1  0  0  0  0
 13 21  1  0  0  0  0
 13 24  2  0  0  0  0
 14 26  2  0  0  0  0
 14 27  1  0  0  0  0
 15 22  2  0  0  0  0
 15 64  1  0  0  0  0
 16 28  1  0  0  0  0
 17 28  1  0  0  0  0
 17 30  2  0  0  0  0
 17 31  1  0  0  0  0
 18 20  2  0  0  0  0
 18 36  1  0  0  0  0
 19 21  2  0  0  0  0
 19 37  1  0  0  0  0
 20 45  1  0  0  0  0
 21 38  1  0  0  0  0
 22 29  1  0  0  0  0
 22 53  1  0  0  0  0
 23 79  1  0  0  0  0
 24 80  1  0  0  0  0
 25 27  2  0  0  0  0
 25 79  1  0  0  0  0
 26 81  1  0  0  0  0
 27 82  1  0  0  0  0
 28 62  2  0  0  0  0
 29 58  1  0  0  0  0
 29 63  2  0  0  0  0
 30 65  1  0  0  0  0
 30 68  1  0  0  0  0
 31 69  1  0  0  0  0
 31 74  2  0  0  0  0
 32 46  1  0  0  0  0
 32 70  1  0  0  0  0
 32 75  2  0  0  0  0
 33 59  1  0  0  0  0
 33 66  1  0  0  0  0
 33 76  2  0  0  0  0
 34 60  1  0  0  0  0
 34 71  1  0  0  0  0
 34 77  2  0  0  0  0
 35 67  1  0  0  0  0
 35 72  1  0  0  0  0
 35 78  2  0  0  0  0
 36 39  1  0  0  0  0
 37 46  1  0  0  0  0
 38 66  1  0  0  0  0
 39 41  1  0  0  0  0
 40 42  1  0  0  0  0
 40 43  1  0  0  0  0
 41 45  1  0  0  0  0
 42 47  1  0  0  0  0
 43 67  1  0  0  0  0
 44 47  1  0  0  0  0
 44 67  1  0  0  0  0
 45 70  1  0  0  0  0
 46 66  1  0  0  0  0
 47 65  1  0  0  0  0
 48 60  1  0  0  0  0
 49 61  1  0  0  0  0
 50 61  1  0  0  0  0
 51 61  1  0  0  0  0
 52 73  1  0  0  0  0
 53 80  1  0  0  0  0
 54 55  1  0  0  0  0
 54 56  1  0  0  0  0
 55 57  1  0  0  0  0
 56 64  1  0  0  0  0
 57 72  1  0  0  0  0
 58 83  1  0  0  0  0
 58 84  1  0  0  0  0
 59 61  1  0  0  0  0
 59 71  1  0  0  0  0
 60 73  1  0  0  0  0
 62 65  1  0  0  0  0
 63 64  1  0  0  0  0
M  CHG  1  73   1
M  ISO  4  35 100  53 101  72 100  80 101
M  END
> <Batch ID>
0043

> <Smiles>
CNC(C)C(=O)NC(C(=O)N1Cc2cc([101O:1][101CH2:1]c3cn(CCCC[100NH:0][100C:0](=O)N4CCCC(n5nc(-c6ccc(Oc7ccc(F)cc7F)cc6)c(C(N)=O)c5N)C4)nc3C(F)F)ccc2CC1C(=O)NC1CCCc2ccccc21)C(C)(C)C

> <Shape>
0.188

> <Color>
0.087

> <Negative vol penalty>
0.000

$$$$

  -OEChem-04052317143D

 84 92  0     1  0  0  0  0  0999 V2000
  -28.4044  -25.0437   13.5769 C   0  0  0  0  0  0  0  0  0  0  0  0
  -27.3413  -25.0680   14.4740 C   0  0  0  0  0  0  0  0  0  0  0  0
  -25.7373  -14.1025   18.3974 C   0  0  0  0  0  0  0  0  0  0  0  0
  -24.3833  -14.5127   20.3559 C   0  0  0  0  0  0  0  0  0  0  0  0
  -29.7078  -25.2247   14.0374 C   0  0  0  0  0  0  0  0  0  0  0  0
  -27.5813  -25.2722   15.8323 C   0  0  0  0  0  0  0  0  0  0  0  0
  -24.3610  -28.5910   17.8964 C   0  0  0  0  0  0  0  0  0  0  0  0
  -25.9826  -12.8024   18.8392 C   0  0  0  0  0  0  0  0  0  0  0  0
  -24.6285  -13.2125   20.7976 C   0  0  0  0  0  0  0  0  0  0  0  0
  -23.0800  -28.1313   18.1992 C   0  0  0  0  0  0  0  0  0  0  0  0
  -23.5015  -10.0993   20.1206 C   0  0  0  0  0  0  0  0  0  0  0  0
  -22.4179   -9.3651   20.6025 C   0  0  0  0  0  0  0  0  0  0  0  0
  -23.7232  -27.8799   20.5106 C   0  0  0  0  0  0  0  0  0  0  0  0
  -23.5160   -9.1500   22.7438 C   0  0  0  0  0  0  0  0  0  0  0  0
  -20.6880  -24.1989   22.6735 C   0  0  0  0  0  0  0  0  0  0  0  0
  -24.9377  -14.9577   19.1558 C   0  0  0  0  0  0  0  0  0  0  0  0
  -23.6270  -16.7348   17.8785 C   0  0  0  0  0  0  0  0  0  0  0  0
  -29.9630  -25.4410   15.4008 C   0  0  0  0  0  0  0  0  0  0  0  0
  -25.3375  -28.6884   18.8981 C   0  0  0  0  0  0  0  0  0  0  0  0
  -28.8895  -25.4550   16.3117 C   0  0  0  0  0  0  0  0  0  0  0  0
  -25.0150  -28.3436   20.2184 C   0  0  0  0  0  0  0  0  0  0  0  0
  -25.4282  -12.3574   20.0393 C   0  0  0  0  0  0  0  0  0  0  0  0
  -22.7618  -27.7729   19.5059 C   0  0  0  0  0  0  0  0  0  0  0  0
  -24.5924  -10.3589   20.9502 C   0  0  0  0  0  0  0  0  0  0  0  0
  -22.4251   -8.8904   21.9141 C   0  0  0  0  0  0  0  0  0  0  0  0
  -24.5996   -9.8843   22.2618 C   0  0  0  0  0  0  0  0  0  0  0  0
  -24.6845  -16.3010   18.7003 C   0  0  0  0  0  0  0  0  0  0  0  0
  -21.7058  -23.7110   21.9034 C   0  0  0  0  0  0  0  0  0  0  0  0
  -23.8326  -18.0856   17.7388 C   0  0  0  0  0  0  0  0  0  0  0  0
  -20.3874  -24.9249   20.6039 C   0  0  0  0  0  0  0  0  0  0  0  0
  -22.5546  -15.9839   17.2939 C   0  0  0  0  0  0  0  0  0  0  0  0
  -28.1719  -27.3423   19.4062 C   0  0  0  0  0  0  0  0  0  0  0  0
  -28.2803  -29.4252   21.8906 C   0  0  0  0  0  0  0  0  0  0  0  0
  -26.5753  -31.3649   24.1216 C   0  0  0  0  0  0  0  0  0  0  0  0
  -26.6461  -22.1523   21.1147 C   0  0  0  0  0  0  0  0  0  0  0  0
  -31.3931  -25.5845   15.8578 C   0  0  0  0  0  0  0  0  0  0  0  0
  -26.7067  -29.2114   18.5602 C   0  0  0  0  0  0  0  0  0  0  0  0
  -26.0213  -28.4491   21.3340 C   0  0  0  0  0  0  0  0  0  0  0  0
  -31.5282  -26.1689   17.2615 C   0  0  0  0  0  0  0  0  0  0  0  0
  -27.3220  -21.3588   17.7103 C   0  0  0  0  0  0  0  0  0  0  0  0
  -30.5624  -25.4813   18.2213 C   0  0  0  0  0  0  0  0  0  0  0  0
  -26.6273  -20.0117   17.5038 C   0  0  0  0  0  0  0  0  0  0  0  0
  -27.9285  -21.4728   19.1072 C   0  0  0  0  0  0  0  0  0  0  0  0
  -26.2946  -19.8620   20.0069 C   0  0  0  0  0  0  0  0  0  0  0  0
  -29.1072  -25.6986   17.7893 C   0  0  1  0  0  0  0  0  0  0  0  0
  -27.7741  -28.7829   19.5623 C   0  0  1  0  0  0  0  0  0  0  0  0
  -25.6191  -19.7220   18.6320 C   0  0  2  0  0  0  0  0  0  0  0  0
  -26.9355  -32.9237   26.0549 C   0  0  0  0  0  0  0  0  0  0  0  0
  -18.4876  -26.4284   19.7043 C   0  0  0  0  0  0  0  0  0  0  0  0
  -19.4125  -24.5896   18.3111 C   0  0  0  0  0  0  0  0  0  0  0  0
  -28.8635  -27.0401   23.7020 C   0  0  0  0  0  0  0  0  0  0  0  0
  -28.2736  -28.4762   25.6660 C   0  0  0  0  0  0  0  0  0  0  0  0
  -30.2047  -29.0888   24.2105 C   0  0  0  0  0  0  0  0  0  0  0  0
  -22.3362  -23.9010   19.4782 C   0  0  0  0  0  0  0  0  0  0  0  0
  -25.3044  -33.6213   22.6891 C   0  0  0  0  0  0  0  0  0  0  0  0
  -22.8445  -22.8564   22.2612 C   0  0  0  0  0  0  0  0  0  0  0  0
  -24.1228  -23.6116   22.7107 C   0  0  0  0  0  0  0  0  0  0  0  0
  -25.2762  -22.6944   23.1119 C   0  0  0  0  0  0  0  0  0  0  0  0
  -20.8088  -26.6299   18.7743 C   0  0  0  0  0  0  0  0  0  1  0  0
  -27.8508  -29.3869   23.3373 C   0  0  1  0  0  0  0  0  0  0  0  0
  -26.7614  -32.8097   24.5484 C   0  0  2  0  0  0  0  0  0  0  0  0
  -19.7809  -25.6413   19.3828 C   0  0  0  0  0  0  0  0  0  0  0  0
  -28.7795  -28.4940   24.2078 C   0  0  0  0  0  0  0  0  0  0  0  0
  -25.5014  -17.2956   19.0574 N   0  0  0  0  0  0  0  0  0  0  0  0
  -21.4943  -24.1755   20.6276 N   0  0  0  0  0  0  0  0  0  0  0  0
  -24.9572  -18.3677   18.4571 N   0  0  0  0  0  0  0  0  0  0  0  0
  -19.8876  -24.9465   21.8437 N   0  3  0  0  0  0  0  0  0  0  0  0
  -27.3483  -28.9599   20.9521 N   0  0  0  0  0  0  0  0  0  0  0  0
  -26.9202  -21.1879   20.1309 N   0  0  0  0  0  0  0  0  0  0  0  0
  -23.1594  -19.0477   17.0728 N   0  0  0  0  0  0  0  0  0  0  0  0
  -22.4930  -14.6053   17.5390 N   0  0  0  0  0  0  0  0  0  0  0  0
  -28.6647  -27.0273   18.1542 N   0  0  0  0  0  0  0  0  0  0  0  0
  -27.7734  -30.7757   23.7771 N   0  0  0  0  0  0  0  0  0  0  0  0
  -25.6725  -21.8047   22.0432 N   0  0  0  0  0  0  0  0  0  0  0  0
  -25.5790  -33.6242   24.1491 N   0  3  0  0  0  0  0  0  0  0  0  0
  -21.6863  -16.5167   16.5619 O   0  0  0  0  0  0  0  0  0  0  0  0
  -28.0426  -26.5739   20.3519 O   0  0  0  0  0  0  0  0  0  0  0  0
  -29.3988  -29.8588   21.6031 O   0  0  0  0  0  0  0  0  0  0  0  0
  -25.4774  -30.8128   24.0998 O   0  0  0  0  0  0  0  0  0  0  0  0
  -27.2224  -23.2446   21.1590 O   0  0  0  0  0  0  0  0  0  0  0  0
  -25.6671  -11.0887   20.4705 O   0  0  0  0  0  0  0  0  0  0  0  0
  -21.5125  -27.3233   19.8041 O   0  0  0  0  0  0  0  0  0  1  0  0
  -21.3838   -8.1866   22.3773 F   0  0  0  0  0  0  0  0  0  0  0  0
  -25.6443  -10.1315   23.0640 F   0  0  0  0  0  0  0  0  0  0  0  0
  1  2  1  0  0  0  0
  1  5  2  0  0  0  0
  2  6  2  0  0  0  0
  3  8  2  0  0  0  0
  3 16  1  0  0  0  0
  4  9  1  0  0  0  0
  4 16  2  0  0  0  0
  5 18  1  0  0  0  0
  6 20  1  0  0  0  0
  7 10  2  0  0  0  0
  7 19  1  0  0  0  0
  8 22  1  0  0  0  0
  9 22  2  0  0  0  0
 10 23  1  0  0  0  0
 11 12  2  0  0  0  0
 11 24  1  0  0  0  0
 12 25  1  0  0  0  0
 13 21  1  0  0  0  0
 13 23  2  0  0  0  0
 14 25  2  0  0  0  0
 14 26  1  0  0  0  0
 15 28  2  0  0  0  0
 15 67  1  0  0  0  0
 16 27  1  0  0  0  0
 17 27  1  0  0  0  0
 17 29  2  0  0  0  0
 17 31  1  0  0  0  0
 18 20  2  0  0  0  0
 18 36  1  0  0  0  0
 19 21  2  0  0  0  0
 19 37  1  0  0  0  0
 20 45  1  0  0  0  0
 21 38  1  0  0  0  0
 22 81  1  0  0  0  0
 23 82  1  0  0  0  0
 24 26  2  0  0  0  0
 24 81  1  0  0  0  0
 25 83  1  0  0  0  0
 26 84  1  0  0  0  0
 27 64  2  0  0  0  0
 28 56  1  0  0  0  0
 28 65  1  0  0  0  0
 29 66  1  0  0  0  0
 29 70  1  0  0  0  0
 30 62  1  0  0  0  0
 30 65  1  0  0  0  0
 30 67  2  0  0  0  0
 31 71  1  0  0  0  0
 31 76  2  0  0  0  0
 32 46  1  0  0  0  0
 32 72  1  0  0  0  0
 32 77  2  0  0  0  0
 33 60  1  0  0  0  0
 33 68  1  0  0  0  0
 33 78  2  0  0  0  0
 34 61  1  0  0  0  0
 34 73  1  0  0  0  0
 34 79  2  0  0  0  0
 35 69  1  0  0  0  0
 35 74  1  0  0  0  0
 35 80  2  0  0  0  0
 36 39  1  0  0  0  0
 37 46  1  0  0  0  0
 38 68  1  0  0  0  0
 39 41  1  0  0  0  0
 40 42  1  0  0  0  0
 40 43  1  0  0  0  0
 41 45  1  0  0  0  0
 42 47  1  0  0  0  0
 43 69  1  0  0  0  0
 44 47  1  0  0  0  0
 44 69  1  0  0  0  0
 45 72  1  0  0  0  0
 46 68  1  0  0  0  0
 47 66  1  0  0  0  0
 48 61  1  0  0  0  0
 49 62  1  0  0  0  0
 50 62  1  0  0  0  0
 51 63  1  0  0  0  0
 52 63  1  0  0  0  0
 53 63  1  0  0  0  0
 54 65  1  0  0  0  0
 55 75  1  0  0  0  0
 56 57  1  0  0  0  0
 57 58  1  0  0  0  0
 58 74  1  0  0  0  0
 59 62  1  0  0  0  0
 59 82  1  0  0  0  0
 60 63  1  0  0  0  0
 60 73  1  0  0  0  0
 61 75  1  0  0  0  0
 64 66  1  0  0  0  0
M  CHG  2  67   1  75   1
M  ISO  4  35 100  59 101  74 100  82 101
M  END
> <Batch ID>
0043

> <Smiles>
CNC(C)C(=O)NC(C(=O)N1Cc2cc([101O:1][101CH2:1]C(C)(C)c3ncc(CCC[100NH:0][100C:0](=O)N4CCCC(n5nc(-c6ccc(Oc7ccc(F)cc7F)cc6)c(C(N)=O)c5N)C4)n3C)ccc2CC1C(=O)NC1CCCc2ccccc21)C(C)(C)C

> <Shape>
0.192

> <Color>
0.073

> <Negative vol penalty>
0.000

$$$$

  -OEChem-04052317143D

 84 92  0     1  0  0  0  0  0999 V2000
  -27.6184  -34.7138   21.6232 C   0  0  0  0  0  0  0  0  0  0  0  0
  -28.0288  -33.3874   21.5364 C   0  0  0  0  0  0  0  0  0  0  0  0
  -22.9068  -10.1957   19.9940 C   0  0  0  0  0  0  0  0  0  0  0  0
  -24.0231   -9.5288   22.0302 C   0  0  0  0  0  0  0  0  0  0  0  0
  -26.3179  -35.0151   22.0255 C   0  0  0  0  0  0  0  0  0  0  0  0
  -27.1392  -32.3614   21.8531 C   0  0  0  0  0  0  0  0  0  0  0  0
  -26.8065  -26.8372   19.2304 C   0  0  0  0  0  0  0  0  0  0  0  0
  -22.1242   -9.0422   20.0452 C   0  0  0  0  0  0  0  0  0  0  0  0
  -23.2405   -8.3753   22.0815 C   0  0  0  0  0  0  0  0  0  0  0  0
  -27.3024  -25.5893   19.6056 C   0  0  0  0  0  0  0  0  0  0  0  0
  -23.1758   -5.3406   20.5925 C   0  0  0  0  0  0  0  0  0  0  0  0
  -23.8159   -4.1355   20.8817 C   0  0  0  0  0  0  0  0  0  0  0  0
  -25.1707  -25.0467   20.5959 C   0  0  0  0  0  0  0  0  0  0  0  0
  -22.4294   -3.8696   22.8423 C   0  0  0  0  0  0  0  0  0  0  0  0
  -29.1509  -20.3708   22.4750 C   0  0  0  0  0  0  0  0  0  0  0  0
  -23.8562  -10.4390   20.9865 C   0  0  0  0  0  0  0  0  0  0  0  0
  -24.3721  -12.8829   21.5052 C   0  0  0  0  0  0  0  0  0  0  0  0
  -25.4089  -33.9920   22.3379 C   0  0  0  0  0  0  0  0  0  0  0  0
  -25.4902  -27.2040   19.5453 C   0  0  0  0  0  0  0  0  0  0  0  0
  -25.8257  -32.6493   22.2612 C   0  0  0  0  0  0  0  0  0  0  0  0
  -24.6598  -26.2988   20.2213 C   0  0  0  0  0  0  0  0  0  0  0  0
  -29.2453  -19.3077   21.6003 C   0  0  0  0  0  0  0  0  0  0  0  0
  -22.2910   -8.1320   21.0889 C   0  0  0  0  0  0  0  0  0  0  0  0
  -26.4854  -24.6950   20.2910 C   0  0  0  0  0  0  0  0  0  0  0  0
  -22.1625   -5.8103   21.4282 C   0  0  0  0  0  0  0  0  0  0  0  0
  -23.4427   -3.4000   22.0066 C   0  0  0  0  0  0  0  0  0  0  0  0
  -21.7893   -5.0748   22.5531 C   0  0  0  0  0  0  0  0  0  0  0  0
  -24.6653  -11.6301   20.9339 C   0  0  0  0  0  0  0  0  0  0  0  0
  -29.0139  -19.6046   20.2727 C   0  0  0  0  0  0  0  0  0  0  0  0
  -25.4473  -13.6711   21.1749 C   0  0  0  0  0  0  0  0  0  0  0  0
  -28.6504  -21.7920   20.7730 C   0  0  0  0  0  0  0  0  0  0  0  0
  -23.2299  -13.2971   22.2665 C   0  0  0  0  0  0  0  0  0  0  0  0
  -24.1591  -29.4938   21.3027 C   0  0  0  0  0  0  0  0  0  0  0  0
  -21.4065  -28.3039   20.0659 C   0  0  0  0  0  0  0  0  0  0  0  0
  -19.7602  -25.6557   18.6790 C   0  0  0  0  0  0  0  0  0  0  0  0
  -30.9532  -14.4276   20.6664 C   0  0  0  0  0  0  0  0  0  0  0  0
  -24.0280  -34.3680   22.8135 C   0  0  0  0  0  0  0  0  0  0  0  0
  -24.9621  -28.5434   19.1100 C   0  0  0  0  0  0  0  0  0  0  0  0
  -23.2328  -26.6364   20.5653 C   0  0  0  0  0  0  0  0  0  0  0  0
  -23.0329  -33.2112   22.7705 C   0  0  0  0  0  0  0  0  0  0  0  0
  -29.2631  -12.8537   17.9565 C   0  0  0  0  0  0  0  0  0  0  0  0
  -23.6511  -31.9526   23.3711 C   0  0  0  0  0  0  0  0  0  0  0  0
  -27.8952  -12.4931   18.5385 C   0  0  0  0  0  0  0  0  0  0  0  0
  -30.3756  -12.6969   18.9908 C   0  0  0  0  0  0  0  0  0  0  0  0
  -28.7846  -13.0621   20.8372 C   0  0  0  0  0  0  0  0  0  0  0  0
  -24.8823  -31.5077   22.5725 C   0  0  1  0  0  0  0  0  0  0  0  0
  -23.7670  -29.0112   19.9348 C   0  0  1  0  0  0  0  0  0  0  0  0
  -27.6234  -13.2584   19.8475 C   0  0  2  0  0  0  0  0  0  0  0  0
  -27.7751  -17.0037   17.7025 C   0  0  0  0  0  0  0  0  0  0  0  0
  -17.5079  -24.9736   17.8076 C   0  0  0  0  0  0  0  0  0  0  0  0
  -20.3825  -28.0380   22.9279 C   0  0  0  0  0  0  0  0  0  0  0  0
  -18.5897  -26.5149   22.0709 C   0  0  0  0  0  0  0  0  0  0  0  0
  -18.6920  -28.8816   21.2892 C   0  0  0  0  0  0  0  0  0  0  0  0
  -20.8351  -25.1424   15.9697 C   0  0  0  0  0  0  0  0  0  0  0  0
  -29.5754  -17.9424   22.0822 C   0  0  0  0  0  0  0  0  0  0  0  0
  -29.0891  -18.5331   19.2356 C   0  0  0  0  0  0  0  0  0  0  0  0
  -28.3188  -23.1803   20.3105 C   0  0  0  0  0  0  0  0  0  1  0  0
  -27.6965  -18.0708   18.7827 C   0  0  0  0  0  0  0  0  0  0  0  0
  -31.0465  -17.5230   21.8720 C   0  0  0  0  0  0  0  0  0  0  0  0
  -31.3858  -16.1360   22.4138 C   0  0  0  0  0  0  0  0  0  0  0  0
  -20.4262  -27.2315   20.4756 C   0  0  1  0  0  0  0  0  0  0  0  0
  -18.8689  -25.5530   17.4544 C   0  0  2  0  0  0  0  0  0  0  0  0
  -19.5500  -27.6606   21.6862 C   0  0  0  0  0  0  0  0  0  0  0  0
  -28.8543  -21.6308   22.0944 N   0  0  0  0  0  0  0  0  0  0  0  0
  -25.8351  -11.6185   20.2894 N   0  0  0  0  0  0  0  0  0  0  0  0
  -28.7128  -20.8403   19.8223 N   0  0  0  0  0  0  0  0  0  0  0  0
  -26.2864  -12.8736   20.4536 N   0  0  0  0  0  0  0  0  0  0  0  0
  -22.7646  -27.9606   20.1238 N   0  0  0  0  0  0  0  0  0  0  0  0
  -30.0571  -13.4481   20.2074 N   0  0  0  0  0  0  0  0  0  0  0  0
  -25.7474  -14.9615   21.4339 N   0  0  0  0  0  0  0  0  0  0  0  0
  -22.2168  -12.3608   22.5143 N   0  0  0  0  0  0  0  0  0  0  0  0
  -24.4795  -30.8370   21.3549 N   0  0  0  0  0  0  0  0  0  0  0  0
  -19.6655  -26.8944   19.2772 N   0  0  0  0  0  0  0  0  0  0  0  0
  -30.5719  -15.0972   21.8226 N   0  0  0  0  0  0  0  0  0  0  0  0
  -19.4999  -24.6778   16.4264 N   0  3  0  0  0  0  0  0  0  0  0  0
  -23.1035  -14.4675   22.6997 O   0  0  0  0  0  0  0  0  0  0  0  0
  -24.1687  -28.7063   22.2415 O   0  0  0  0  0  0  0  0  0  0  0  0
  -20.9825  -29.4033   19.7010 O   0  0  0  0  0  0  0  0  0  0  0  0
  -20.4668  -24.7285   19.0682 O   0  0  0  0  0  0  0  0  0  0  0  0
  -32.0118  -14.6899   20.0855 O   0  0  0  0  0  0  0  0  0  0  0  0
  -21.5274   -7.0065   21.1393 O   0  0  0  0  0  0  0  0  0  0  0  0
  -26.9671  -23.4766   20.6590 O   0  0  0  0  0  0  0  0  0  1  0  0
  -24.0564   -2.2421   22.2833 F   0  0  0  0  0  0  0  0  0  0  0  0
  -20.8158   -5.5203   23.3591 F   0  0  0  0  0  0  0  0  0  0  0  0
  1  2  1  0  0  0  0
  1  5  2  0  0  0  0
  2  6  2  0  0  0  0
  3  8  2  0  0  0  0
  3 16  1  0  0  0  0
  4  9  1  0  0  0  0
  4 16  2  0  0  0  0
  5 18  1  0  0  0  0
  6 20  1  0  0  0  0
  7 10  2  0  0  0  0
  7 19  1  0  0  0  0
  8 23  1  0  0  0  0
  9 23  2  0  0  0  0
 10 24  1  0  0  0  0
 11 12  2  0  0  0  0
 11 25  1  0  0  0  0
 12 26  1  0  0  0  0
 13 21  1  0  0  0  0
 13 24  2  0  0  0  0
 14 26  2  0  0  0  0
 14 27  1  0  0  0  0
 15 22  1  0  0  0  0
 15 64  2  0  0  0  0
 16 28  1  0  0  0  0
 17 28  1  0  0  0  0
 17 30  2  0  0  0  0
 17 32  1  0  0  0  0
 18 20  2  0  0  0  0
 18 37  1  0  0  0  0
 19 21  2  0  0  0  0
 19 38  1  0  0  0  0
 20 46  1  0  0  0  0
 21 39  1  0  0  0  0
 22 29  2  0  0  0  0
 22 55  1  0  0  0  0
 23 81  1  0  0  0  0
 24 82  1  0  0  0  0
 25 27  2  0  0  0  0
 25 81  1  0  0  0  0
 26 83  1  0  0  0  0
 27 84  1  0  0  0  0
 28 65  2  0  0  0  0
 29 56  1  0  0  0  0
 29 66  1  0  0  0  0
 30 67  1  0  0  0  0
 30 70  1  0  0  0  0
 31 57  1  0  0  0  0
 31 64  1  0  0  0  0
 31 66  2  0  0  0  0
 32 71  1  0  0  0  0
 32 76  2  0  0  0  0
 33 47  1  0  0  0  0
 33 72  1  0  0  0  0
 33 77  2  0  0  0  0
 34 61  1  0  0  0  0
 34 68  1  0  0  0  0
 34 78  2  0  0  0  0
 35 62  1  0  0  0  0
 35 73  1  0  0  0  0
 35 79  2  0  0  0  0
 36 69  1  0  0  0  0
 36 74  1  0  0  0  0
 36 80  2  0  0  0  0
 37 40  1  0  0  0  0
 38 47  1  0  0  0  0
 39 68  1  0  0  0  0
 40 42  1  0  0  0  0
 41 43  1  0  0  0  0
 41 44  1  0  0  0  0
 42 46  1  0  0  0  0
 43 48  1  0  0  0  0
 44 69  1  0  0  0  0
 45 48  1  0  0  0  0
 45 69  1  0  0  0  0
 46 72  1  0  0  0  0
 47 68  1  0  0  0  0
 48 67  1  0  0  0  0
 49 58  1  0  0  0  0
 50 62  1  0  0  0  0
 51 63  1  0  0  0  0
 52 63  1  0  0  0  0
 53 63  1  0  0  0  0
 54 75  1  0  0  0  0
 55 59  1  0  0  0  0
 56 58  1  0  0  0  0
 57 82  1  0  0  0  0
 59 60  1  0  0  0  0
 60 74  1  0  0  0  0
 61 63  1  0  0  0  0
 61 73  1  0  0  0  0
 62 75  1  0  0  0  0
 65 67  1  0  0  0  0
M  CHG  1  75   1
M  ISO  4  36 100  57 101  74 100  82 101
M  END
> <Batch ID>
0043

> <Smiles>
CCCc1nc([101CH2:1][101O:1]c2ccc3c(c2)CN(C(=O)C(NC(=O)C(C)NC)C(C)(C)C)C(C(=O)NC2CCCc4ccccc42)C3)ncc1CCC[100NH:0][100C:0](=O)N1CCCC(n2nc(-c3ccc(Oc4ccc(F)cc4F)cc3)c(C(N)=O)c2N)C1

> <Shape>
0.360

> <Color>
0.153

> <Negative vol penalty>
0.000

$$$$

  -OEChem-04052317143D

 84 92  0     1  0  0  0  0  0999 V2000
  -18.4579  -25.1697   25.1341 C   0  0  0  0  0  0  0  0  0  0  0  0
  -19.7594  -24.7855   24.8277 C   0  0  0  0  0  0  0  0  0  0  0  0
  -26.6645  -12.3061   21.8929 C   0  0  0  0  0  0  0  0  0  0  0  0
  -26.1497  -13.7607   20.0339 C   0  0  0  0  0  0  0  0  0  0  0  0
  -17.9335  -26.3433   24.5943 C   0  0  0  0  0  0  0  0  0  0  0  0
  -20.5369  -25.5742   23.9804 C   0  0  0  0  0  0  0  0  0  0  0  0
  -26.5840  -26.4825   24.3159 C   0  0  0  0  0  0  0  0  0  0  0  0
  -25.9917  -11.2603   21.2611 C   0  0  0  0  0  0  0  0  0  0  0  0
  -25.4769  -12.7149   19.4019 C   0  0  0  0  0  0  0  0  0  0  0  0
  -27.6579  -25.9088   23.6365 C   0  0  0  0  0  0  0  0  0  0  0  0
  -24.1000   -8.3072   20.2997 C   0  0  0  0  0  0  0  0  0  0  0  0
  -23.2318   -7.5335   21.0698 C   0  0  0  0  0  0  0  0  0  0  0  0
  -27.6507  -27.7523   22.0807 C   0  0  0  0  0  0  0  0  0  0  0  0
  -21.9212   -9.5009   21.5689 C   0  0  0  0  0  0  0  0  0  0  0  0
  -27.8188  -22.2528   19.1690 C   0  0  0  0  0  0  0  0  0  0  0  0
  -29.6278  -22.9568   21.0019 C   0  0  0  0  0  0  0  0  0  0  0  0
  -26.7435  -13.5563   21.2794 C   0  0  0  0  0  0  0  0  0  0  0  0
  -28.8014  -14.9667   21.8120 C   0  0  0  0  0  0  0  0  0  0  0  0
  -18.7081  -27.1518   23.7477 C   0  0  0  0  0  0  0  0  0  0  0  0
  -26.0275  -27.6920   23.8756 C   0  0  0  0  0  0  0  0  0  0  0  0
  -20.0218  -26.7590   23.4277 C   0  0  0  0  0  0  0  0  0  0  0  0
  -26.5715  -28.3406   22.7577 C   0  0  0  0  0  0  0  0  0  0  0  0
  -25.3979  -11.4647   20.0156 C   0  0  0  0  0  0  0  0  0  0  0  0
  -28.1895  -26.5422   22.5171 C   0  0  0  0  0  0  0  0  0  0  0  0
  -23.8789   -9.6778   20.1642 C   0  0  0  0  0  0  0  0  0  0  0  0
  -22.1424   -8.1303   21.7044 C   0  0  0  0  0  0  0  0  0  0  0  0
  -22.7895  -10.2746   20.7987 C   0  0  0  0  0  0  0  0  0  0  0  0
  -27.4380  -14.6371   21.9318 C   0  0  0  0  0  0  0  0  0  0  0  0
  -28.0989  -21.4354   20.2419 C   0  0  0  0  0  0  0  0  0  0  0  0
  -29.3483  -23.7739   19.9287 C   0  0  0  0  0  0  0  0  0  0  0  0
  -28.9622  -16.0628   22.6239 C   0  0  0  0  0  0  0  0  0  0  0  0
  -29.8303  -14.3384   21.0360 C   0  0  0  0  0  0  0  0  0  0  0  0
  -23.1710  -28.5901   22.8090 C   0  0  0  0  0  0  0  0  0  0  0  0
  -24.4957  -31.5494   22.9101 C   0  0  0  0  0  0  0  0  0  0  0  0
  -27.3221  -33.4614   22.8663 C   0  0  0  0  0  0  0  0  0  0  0  0
  -24.7106  -20.0326   24.5481 C   0  0  0  0  0  0  0  0  0  0  0  0
  -18.0818  -28.3871   23.1505 C   0  0  0  0  0  0  0  0  0  0  0  0
  -24.8866  -28.3114   24.6352 C   0  0  0  0  0  0  0  0  0  0  0  0
  -26.0233  -29.6508   22.2565 C   0  0  0  0  0  0  0  0  0  0  0  0
  -19.0984  -29.3609   22.5602 C   0  0  0  0  0  0  0  0  0  0  0  0
  -27.1757  -18.1266   26.5461 C   0  0  0  0  0  0  0  0  0  0  0  0
  -20.1134  -28.6160   21.6989 C   0  0  0  0  0  0  0  0  0  0  0  0
  -27.5790  -17.0025   25.5933 C   0  0  0  0  0  0  0  0  0  0  0  0
  -25.7556  -18.6156   26.2776 C   0  0  0  0  0  0  0  0  0  0  0  0
  -25.9205  -17.9046   23.9151 C   0  0  0  0  0  0  0  0  0  0  0  0
  -20.9048  -27.6009   22.5323 C   0  0  1  0  0  0  0  0  0  0  0  0
  -24.0676  -29.2855   23.7940 C   0  0  1  0  0  0  0  0  0  0  0  0
  -27.3627  -17.4209   24.1286 C   0  0  2  0  0  0  0  0  0  0  0  0
  -24.6461  -23.1852   23.6365 C   0  0  0  0  0  0  0  0  0  0  0  0
  -28.0847  -35.8515   22.9256 C   0  0  0  0  0  0  0  0  0  0  0  0
  -23.6652  -31.8841   19.9932 C   0  0  0  0  0  0  0  0  0  0  0  0
  -25.2446  -33.8206   19.8384 C   0  0  0  0  0  0  0  0  0  0  0  0
  -23.3149  -33.9103   21.4167 C   0  0  0  0  0  0  0  0  0  0  0  0
  -28.8311  -33.0391   25.3770 C   0  0  0  0  0  0  0  0  0  0  0  0
  -27.3947  -20.1339   20.4047 C   0  0  0  0  0  0  0  0  0  0  0  0
  -30.0619  -25.0936   19.7639 C   0  0  0  0  0  0  0  0  0  0  0  0
  -26.0878  -20.2103   21.2206 C   0  0  0  0  0  0  0  0  0  0  0  0
  -24.1603  -21.8885   23.0209 C   0  0  0  0  0  0  0  0  0  0  0  0
  -26.2756  -20.6703   22.6647 C   0  0  0  0  0  0  0  0  0  0  0  0
  -29.3273  -26.2398   20.4507 C   0  0  0  0  0  0  0  0  0  1  0  0
  -25.2769  -32.4046   21.9420 C   0  0  1  0  0  0  0  0  0  0  0  0
  -27.7744  -34.6109   23.7487 C   0  0  2  0  0  0  0  0  0  0  0  0
  -24.3847  -32.9792   20.8056 C   0  0  0  0  0  0  0  0  0  0  0  0
  -29.0082  -21.7728   21.1777 N   0  0  0  0  0  0  0  0  0  0  0  0
  -28.4387  -23.4366   18.9931 N   0  0  0  0  0  0  0  0  0  0  0  0
  -26.7796  -15.4572   22.7552 N   0  0  0  0  0  0  0  0  0  0  0  0
  -27.7334  -16.3131   23.1601 N   0  0  0  0  0  0  0  0  0  0  0  0
  -24.9036  -30.2132   23.0294 N   0  0  0  0  0  0  0  0  0  0  0  0
  -25.5654  -18.9655   24.8696 N   0  0  0  0  0  0  0  0  0  0  0  0
  -30.0336  -16.8272   22.9244 N   0  0  0  0  0  0  0  0  0  0  0  0
  -29.4930  -13.2228   20.2575 N   0  0  0  0  0  0  0  0  0  0  0  0
  -21.9238  -28.2712   23.3112 N   0  0  0  0  0  0  0  0  0  0  0  0
  -25.9492  -33.4201   22.7452 N   0  0  0  0  0  0  0  0  0  0  0  0
  -25.0105  -20.7656   23.3898 N   0  0  0  0  0  0  0  0  0  0  0  0
  -29.0001  -34.2310   24.5065 N   0  3  0  0  0  0  0  0  0  0  0  0
  -31.0173  -14.7439   21.0459 O   0  0  0  0  0  0  0  0  0  0  0  0
  -23.5800  -28.3611   21.6768 O   0  0  0  0  0  0  0  0  0  0  0  0
  -23.5626  -32.0502   23.5427 O   0  0  0  0  0  0  0  0  0  0  0  0
  -28.1083  -32.6806   22.3345 O   0  0  0  0  0  0  0  0  0  0  0  0
  -23.7406  -20.3201   25.2611 O   0  0  0  0  0  0  0  0  0  0  0  0
  -24.7414  -10.4444   19.3986 O   0  0  0  0  0  0  0  0  0  0  0  0
  -29.2372  -25.9841   21.8517 O   0  0  0  0  0  0  0  0  0  1  0  0
  -21.3078   -7.3869   22.4426 F   0  0  0  0  0  0  0  0  0  0  0  0
  -22.5713  -11.5907   20.6713 F   0  0  0  0  0  0  0  0  0  0  0  0
  1  2  1  0  0  0  0
  1  5  2  0  0  0  0
  2  6  2  0  0  0  0
  3  8  2  0  0  0  0
  3 17  1  0  0  0  0
  4  9  1  0  0  0  0
  4 17  2  0  0  0  0
  5 19  1  0  0  0  0
  6 21  1  0  0  0  0
  7 10  2  0  0  0  0
  7 20  1  0  0  0  0
  8 23  1  0  0  0  0
  9 23  2  0  0  0  0
 10 24  1  0  0  0  0
 11 12  2  0  0  0  0
 11 25  1  0  0  0  0
 12 26  1  0  0  0  0
 13 22  1  0  0  0  0
 13 24  2  0  0  0  0
 14 26  2  0  0  0  0
 14 27  1  0  0  0  0
 15 29  1  0  0  0  0
 15 65  2  0  0  0  0
 16 30  2  0  0  0  0
 16 64  1  0  0  0  0
 17 28  1  0  0  0  0
 18 28  1  0  0  0  0
 18 31  2  0  0  0  0
 18 32  1  0  0  0  0
 19 21  2  0  0  0  0
 19 37  1  0  0  0  0
 20 22  2  0  0  0  0
 20 38  1  0  0  0  0
 21 46  1  0  0  0  0
 22 39  1  0  0  0  0
 23 81  1  0  0  0  0
 24 82  1  0  0  0  0
 25 27  2  0  0  0  0
 25 81  1  0  0  0  0
 26 83  1  0  0  0  0
 27 84  1  0  0  0  0
 28 66  2  0  0  0  0
 29 55  1  0  0  0  0
 29 64  2  0  0  0  0
 30 56  1  0  0  0  0
 30 65  1  0  0  0  0
 31 67  1  0  0  0  0
 31 70  1  0  0  0  0
 32 71  1  0  0  0  0
 32 76  2  0  0  0  0
 33 47  1  0  0  0  0
 33 72  1  0  0  0  0
 33 77  2  0  0  0  0
 34 61  1  0  0  0  0
 34 68  1  0  0  0  0
 34 78  2  0  0  0  0
 35 62  1  0  0  0  0
 35 73  1  0  0  0  0
 35 79  2  0  0  0  0
 36 69  1  0  0  0  0
 36 74  1  0  0  0  0
 36 80  2  0  0  0  0
 37 40  1  0  0  0  0
 38 47  1  0  0  0  0
 39 68  1  0  0  0  0
 40 42  1  0  0  0  0
 41 43  1  0  0  0  0
 41 44  1  0  0  0  0
 42 46  1  0  0  0  0
 43 48  1  0  0  0  0
 44 69  1  0  0  0  0
 45 48  1  0  0  0  0
 45 69  1  0  0  0  0
 46 72  1  0  0  0  0
 47 68  1  0  0  0  0
 48 67  1  0  0  0  0
 49 58  1  0  0  0  0
 50 62  1  0  0  0  0
 51 63  1  0  0  0  0
 52 63  1  0  0  0  0
 53 63  1  0  0  0  0
 54 75  1  0  0  0  0
 55 57  1  0  0  0  0
 56 60  1  0  0  0  0
 57 59  1  0  0  0  0
 58 74  1  0  0  0  0
 59 74  1  0  0  0  0
 60 82  1  0  0  0  0
 61 63  1  0  0  0  0
 61 73  1  0  0  0  0
 62 75  1  0  0  0  0
 66 67  1  0  0  0  0
M  CHG  1  75   1
M  ISO  4  36 100  60 101  74 100  82 101
M  END
> <Batch ID>
0043

> <Smiles>
CC[100N:0](CCCc1cnc(C[101CH2:1][101O:1]c2ccc3c(c2)CN(C(=O)C(NC(=O)C(C)NC)C(C)(C)C)C(C(=O)NC2CCCc4ccccc42)C3)cn1)[100C:0](=O)N1CCCC(n2nc(-c3ccc(Oc4ccc(F)cc4F)cc3)c(C(N)=O)c2N)C1

> <Shape>
0.247

> <Color>
0.082

> <Negative vol penalty>
0.000

$$$$

  -OEChem-04052317143D

 80 88  0     1  0  0  0  0  0999 V2000
  -19.5325  -30.4560   19.7500 C   0  0  0  0  0  0  0  0  0  0  0  0
  -20.8807  -30.1578   19.9199 C   0  0  0  0  0  0  0  0  0  0  0  0
  -26.1402  -14.4895   21.6336 C   0  0  0  0  0  0  0  0  0  0  0  0
  -25.9648  -14.6877   19.2322 C   0  0  0  0  0  0  0  0  0  0  0  0
  -18.5779  -29.8521   20.5672 C   0  0  0  0  0  0  0  0  0  0  0  0
  -21.2751  -29.2564   20.9080 C   0  0  0  0  0  0  0  0  0  0  0  0
  -24.7234  -25.9401   19.2478 C   0  0  0  0  0  0  0  0  0  0  0  0
  -24.7848  -14.1683   21.7062 C   0  0  0  0  0  0  0  0  0  0  0  0
  -24.6094  -14.3664   19.3047 C   0  0  0  0  0  0  0  0  0  0  0  0
  -26.0392  -26.3888   19.1421 C   0  0  0  0  0  0  0  0  0  0  0  0
  -22.8354  -11.4573   21.1741 C   0  0  0  0  0  0  0  0  0  0  0  0
  -22.4654  -10.3882   21.9900 C   0  0  0  0  0  0  0  0  0  0  0  0
  -26.5651  -25.3224   21.2410 C   0  0  0  0  0  0  0  0  0  0  0  0
  -21.0824  -11.8702   23.3046 C   0  0  0  0  0  0  0  0  0  0  0  0
  -32.3242  -25.2026   19.8009 C   0  0  0  0  0  0  0  0  0  0  0  0
  -26.7302  -14.7493   20.3966 C   0  0  0  0  0  0  0  0  0  0  0  0
  -29.2087  -14.1899   20.1686 C   0  0  0  0  0  0  0  0  0  0  0  0
  -18.9599  -28.9355   21.5595 C   0  0  0  0  0  0  0  0  0  0  0  0
  -24.3152  -25.1871   20.3581 C   0  0  0  0  0  0  0  0  0  0  0  0
  -20.3248  -28.6408   21.7402 C   0  0  0  0  0  0  0  0  0  0  0  0
  -25.2443  -24.8631   21.3571 C   0  0  0  0  0  0  0  0  0  0  0  0
  -24.0194  -14.1067   20.5417 C   0  0  0  0  0  0  0  0  0  0  0  0
  -26.9595  -26.0824   20.1402 C   0  0  0  0  0  0  0  0  0  0  0  0
  -22.3290  -12.7329   21.4235 C   0  0  0  0  0  0  0  0  0  0  0  0
  -21.5888  -10.5946   23.0552 C   0  0  0  0  0  0  0  0  0  0  0  0
  -21.4525  -12.9393   22.4887 C   0  0  0  0  0  0  0  0  0  0  0  0
  -28.1302  -15.0817   20.3211 C   0  0  0  0  0  0  0  0  0  0  0  0
  -32.1597  -24.9950   18.4242 C   0  0  0  0  0  0  0  0  0  0  0  0
  -30.3209  -14.9956   20.1530 C   0  0  0  0  0  0  0  0  0  0  0  0
  -29.2054  -12.7609   20.0513 C   0  0  0  0  0  0  0  0  0  0  0  0
  -22.1909  -25.5954   22.6871 C   0  0  0  0  0  0  0  0  0  0  0  0
  -30.9736  -20.7015   18.6392 C   0  0  0  0  0  0  0  0  0  0  0  0
  -23.0274  -22.5564   23.4530 C   0  0  0  0  0  0  0  0  0  0  0  0
  -25.3595  -20.0691   23.3070 C   0  0  0  0  0  0  0  0  0  0  0  0
  -17.8960  -28.3441   22.4499 C   0  0  0  0  0  0  0  0  0  0  0  0
  -22.8990  -24.6878   20.4441 C   0  0  0  0  0  0  0  0  0  0  0  0
  -24.8615  -24.0405   22.5593 C   0  0  0  0  0  0  0  0  0  0  0  0
  -18.3646  -27.1157   23.2256 C   0  0  0  0  0  0  0  0  0  0  0  0
  -31.9488  -19.1767   21.7937 C   0  0  0  0  0  0  0  0  0  0  0  0
  -19.7294  -27.3716   23.8569 C   0  0  0  0  0  0  0  0  0  0  0  0
  -31.1468  -17.8763   21.7654 C   0  0  0  0  0  0  0  0  0  0  0  0
  -31.1800  -20.3246   21.1446 C   0  0  0  0  0  0  0  0  0  0  0  0
  -29.9285  -18.7357   19.7184 C   0  0  0  0  0  0  0  0  0  0  0  0
  -20.7899  -27.6493   22.7846 C   0  0  1  0  0  0  0  0  0  0  0  0
  -22.4650  -24.3643   21.8704 C   0  0  1  0  0  0  0  0  0  0  0  0
  -30.6816  -17.5458   20.3364 C   0  0  2  0  0  0  0  0  0  0  0  0
  -25.7738  -17.7106   24.0575 C   0  0  0  0  0  0  0  0  0  0  0  0
  -23.5952  -23.5579   26.2787 C   0  0  0  0  0  0  0  0  0  0  0  0
  -24.8734  -21.4458   26.6955 C   0  0  0  0  0  0  0  0  0  0  0  0
  -22.4371  -21.3440   26.1696 C   0  0  0  0  0  0  0  0  0  0  0  0
  -25.5858  -19.0990   20.5201 C   0  0  0  0  0  0  0  0  0  0  0  0
  -32.7802  -23.9838   17.5582 C   0  0  0  0  0  0  0  0  0  0  0  0
  -31.7651  -21.9742   18.8057 C   0  0  0  0  0  0  0  0  0  0  0  0
  -31.9542  -22.6788   17.4660 C   0  0  0  0  0  0  0  0  0  0  0  0
  -30.0315  -27.7477   18.9769 C   0  0  0  0  0  0  0  0  0  0  0  0
  -28.5806  -27.2878   18.8851 C   0  0  0  0  0  0  0  0  0  1  0  0
  -24.0775  -21.9269   24.3362 C   0  0  1  0  0  0  0  0  0  0  0  0
  -25.2437  -18.5998   22.9435 C   0  0  2  0  0  0  0  0  0  0  0  0
  -23.7528  -22.0858   25.8484 C   0  0  0  0  0  0  0  0  0  0  0  0
  -31.5734  -26.2344   20.1964 N   0  0  0  0  0  0  0  0  0  0  0  0
  -28.5219  -16.3564   20.3972 N   0  0  0  0  0  0  0  0  0  0  0  0
  -31.3015  -25.8918   17.9303 N   0  0  0  0  0  0  0  0  0  0  0  0
  -29.8590  -16.2713   20.2921 N   0  0  0  0  0  0  0  0  0  0  0  0
  -30.9980  -26.5899   19.0364 N   0  0  0  0  0  0  0  0  0  0  0  0
  -23.4634  -23.5809   22.6010 N   0  0  0  0  0  0  0  0  0  0  0  0
  -30.7306  -19.9601   19.7956 N   0  0  0  0  0  0  0  0  0  0  0  0
  -31.6392  -14.7302   20.0341 N   0  0  0  0  0  0  0  0  0  0  0  0
  -27.9751  -12.0905   20.0866 N   0  0  0  0  0  0  0  0  0  0  0  0
  -21.2113  -26.4144   22.1587 N   0  0  0  0  0  0  0  0  0  0  0  0
  -24.2055  -20.5422   23.8949 N   0  0  0  0  0  0  0  0  0  0  0  0
  -26.0174  -18.3105   21.7030 N   0  3  0  0  0  0  0  0  0  0  0  0
  -30.2633  -12.0969   19.9357 O   0  0  0  0  0  0  0  0  0  0  0  0
  -22.8204  -25.7873   23.7208 O   0  0  0  0  0  0  0  0  0  0  0  0
  -30.5862  -20.3765   17.5138 O   0  0  0  0  0  0  0  0  0  0  0  0
  -21.8645  -22.1490   23.5116 O   0  0  0  0  0  0  0  0  0  0  0  0
  -26.3737  -20.7299   23.0944 O   0  0  0  0  0  0  0  0  0  0  0  0
  -22.6968  -13.7931   20.6121 O   0  0  0  0  0  0  0  0  0  0  0  0
  -28.2443  -26.5198   20.0398 O   0  0  0  0  0  0  0  0  0  1  0  0
  -21.2323   -9.5676   23.8377 F   0  0  0  0  0  0  0  0  0  0  0  0
  -20.9618  -14.1622   22.7325 F   0  0  0  0  0  0  0  0  0  0  0  0
  1  2  1  0  0  0  0
  1  5  2  0  0  0  0
  2  6  2  0  0  0  0
  3  8  2  0  0  0  0
  3 16  1  0  0  0  0
  4  9  1  0  0  0  0
  4 16  2  0  0  0  0
  5 18  1  0  0  0  0
  6 20  1  0  0  0  0
  7 10  2  0  0  0  0
  7 19  1  0  0  0  0
  8 22  1  0  0  0  0
  9 22  2  0  0  0  0
 10 23  1  0  0  0  0
 11 12  2  0  0  0  0
 11 24  1  0  0  0  0
 12 25  1  0  0  0  0
 13 21  1  0  0  0  0
 13 23  2  0  0  0  0
 14 25  2  0  0  0  0
 14 26  1  0  0  0  0
 15 28  1  0  0  0  0
 15 60  2  0  0  0  0
 16 27  1  0  0  0  0
 17 27  1  0  0  0  0
 17 29  2  0  0  0  0
 17 30  1  0  0  0  0
 18 20  2  0  0  0  0
 18 35  1  0  0  0  0
 19 21  2  0  0  0  0
 19 36  1  0  0  0  0
 20 44  1  0  0  0  0
 21 37  1  0  0  0  0
 22 77  1  0  0  0  0
 23 78  1  0  0  0  0
 24 26  2  0  0  0  0
 24 77  1  0  0  0  0
 25 79  1  0  0  0  0
 26 80  1  0  0  0  0
 27 61  2  0  0  0  0
 28 52  1  0  0  0  0
 28 62  2  0  0  0  0
 29 63  1  0  0  0  0
 29 67  1  0  0  0  0
 30 68  1  0  0  0  0
 30 72  2  0  0  0  0
 31 45  1  0  0  0  0
 31 69  1  0  0  0  0
 31 73  2  0  0  0  0
 32 53  1  0  0  0  0
 32 66  1  0  0  0  0
 32 74  2  0  0  0  0
 33 57  1  0  0  0  0
 33 65  1  0  0  0  0
 33 75  2  0  0  0  0
 34 58  1  0  0  0  0
 34 70  1  0  0  0  0
 34 76  2  0  0  0  0
 35 38  1  0  0  0  0
 36 45  1  0  0  0  0
 37 65  1  0  0  0  0
 38 40  1  0  0  0  0
 39 41  1  0  0  0  0
 39 42  1  0  0  0  0
 40 44  1  0  0  0  0
 41 46  1  0  0  0  0
 42 66  1  0  0  0  0
 43 46  1  0  0  0  0
 43 66  1  0  0  0  0
 44 69  1  0  0  0  0
 45 65  1  0  0  0  0
 46 63  1  0  0  0  0
 47 58  1  0  0  0  0
 48 59  1  0  0  0  0
 49 59  1  0  0  0  0
 50 59  1  0  0  0  0
 51 71  1  0  0  0  0
 52 54  1  0  0  0  0
 53 54  1  0  0  0  0
 55 56  1  0  0  0  0
 55 64  1  0  0  0  0
 56 78  1  0  0  0  0
 57 59  1  0  0  0  0
 57 70  1  0  0  0  0
 58 71  1  0  0  0  0
 60 64  1  0  0  0  0
 61 63  1  0  0  0  0
 62 64  1  0  0  0  0
M  CHG  1  71   1
M  ISO  4  32 100  53 100  56 101  78 101
M  END
> <Batch ID>
0043

> <Smiles>
CNC(C)C(=O)NC(C(=O)N1Cc2cc([101O:1][101CH2:1]Cn3ncc(CC[100CH2:0][100C:0](=O)N4CCCC(n5nc(-c6ccc(Oc7ccc(F)cc7F)cc6)c(C(N)=O)c5N)C4)n3)ccc2CC1C(=O)NC1CCCc2ccccc21)C(C)(C)C

> <Shape>
0.206

> <Color>
0.068

> <Negative vol penalty>
0.000

$$$$

  -OEChem-04052317143D

 85 93  0     1  0  0  0  0  0999 V2000
  -33.4440  -31.5056   26.5799 C   0  0  0  0  0  0  0  0  0  0  0  0
  -33.4362  -30.4220   25.7074 C   0  0  0  0  0  0  0  0  0  0  0  0
  -22.9613   -9.8743   20.0492 C   0  0  0  0  0  0  0  0  0  0  0  0
  -23.6620  -10.0224   22.3566 C   0  0  0  0  0  0  0  0  0  0  0  0
  -32.2653  -31.8980   27.2127 C   0  0  0  0  0  0  0  0  0  0  0  0
  -32.2498  -29.7294   25.4681 C   0  0  0  0  0  0  0  0  0  0  0  0
  -30.4996  -27.1337   20.2046 C   0  0  0  0  0  0  0  0  0  0  0  0
  -22.1699   -8.7687   20.3604 C   0  0  0  0  0  0  0  0  0  0  0  0
  -22.8705   -8.9168   22.6679 C   0  0  0  0  0  0  0  0  0  0  0  0
  -30.5525  -25.8188   19.7441 C   0  0  0  0  0  0  0  0  0  0  0  0
  -23.0549   -5.5549   22.3595 C   0  0  0  0  0  0  0  0  0  0  0  0
  -23.6142   -4.5642   23.1664 C   0  0  0  0  0  0  0  0  0  0  0  0
  -28.2723  -25.4838   20.4568 C   0  0  0  0  0  0  0  0  0  0  0  0
  -21.8770   -4.9201   24.8074 C   0  0  0  0  0  0  0  0  0  0  0  0
  -28.6159  -21.3014   17.7070 C   0  0  0  0  0  0  0  0  0  0  0  0
  -23.7074  -10.5011   21.0473 C   0  0  0  0  0  0  0  0  0  0  0  0
  -24.1436  -12.9976   20.7555 C   0  0  0  0  0  0  0  0  0  0  0  0
  -31.0618  -31.2160   26.9736 C   0  0  0  0  0  0  0  0  0  0  0  0
  -29.3342  -27.6310   20.8055 C   0  0  0  0  0  0  0  0  0  0  0  0
  -31.0541  -30.1123   26.0994 C   0  0  0  0  0  0  0  0  0  0  0  0
  -28.2063  -26.8061   20.9217 C   0  0  0  0  0  0  0  0  0  0  0  0
  -22.1245   -8.2899   21.6698 C   0  0  0  0  0  0  0  0  0  0  0  0
  -29.4397  -24.9928   19.8727 C   0  0  0  0  0  0  0  0  0  0  0  0
  -21.9067   -6.2284   22.7765 C   0  0  0  0  0  0  0  0  0  0  0  0
  -23.0253   -4.2467   24.3904 C   0  0  0  0  0  0  0  0  0  0  0  0
  -21.3178   -5.9109   24.0005 C   0  0  0  0  0  0  0  0  0  0  0  0
  -24.5255  -11.6429   20.7263 C   0  0  0  0  0  0  0  0  0  0  0  0
  -28.5735  -21.5371   19.0635 C   0  0  0  0  0  0  0  0  0  0  0  0
  -29.0349  -19.0887   18.1044 C   0  0  0  0  0  0  0  0  0  0  0  0
  -28.9934  -19.3244   19.4610 C   0  0  0  0  0  0  0  0  0  0  0  0
  -25.2712  -13.6806   20.3702 C   0  0  0  0  0  0  0  0  0  0  0  0
  -22.8824  -13.5859   21.1003 C   0  0  0  0  0  0  0  0  0  0  0  0
  -28.6037  -28.7675   23.6828 C   0  0  0  0  0  0  0  0  0  0  0  0
  -25.7511  -29.4067   22.2770 C   0  0  0  0  0  0  0  0  0  0  0  0
  -23.5158  -28.6875   19.8005 C   0  0  0  0  0  0  0  0  0  0  0  0
  -30.7817  -14.5217   20.6390 C   0  0  0  0  0  0  0  0  0  0  0  0
  -29.8227  -31.6476   27.7173 C   0  0  0  0  0  0  0  0  0  0  0  0
  -29.2844  -29.0598   21.2729 C   0  0  0  0  0  0  0  0  0  0  0  0
  -26.9245  -27.2981   21.5410 C   0  0  0  0  0  0  0  0  0  0  0  0
  -28.5309  -31.0940   27.1214 C   0  0  0  0  0  0  0  0  0  0  0  0
  -29.6198  -12.0100   18.3990 C   0  0  0  0  0  0  0  0  0  0  0  0
  -28.6749  -29.6045   26.8255 C   0  0  0  0  0  0  0  0  0  0  0  0
  -28.1620  -11.7982   18.8113 C   0  0  0  0  0  0  0  0  0  0  0  0
  -30.5133  -12.2862   19.6062 C   0  0  0  0  0  0  0  0  0  0  0  0
  -28.6044  -13.1813   20.8825 C   0  0  0  0  0  0  0  0  0  0  0  0
  -29.7820  -29.3513   25.7951 C   0  0  1  0  0  0  0  0  0  0  0  0
  -28.2160  -29.3045   22.3340 C   0  0  1  0  0  0  0  0  0  0  0  0
  -27.6550  -12.9549   19.6935 C   0  0  2  0  0  0  0  0  0  0  0  0
  -26.9872  -14.9686   16.0662 C   0  0  0  0  0  0  0  0  0  0  0  0
  -21.2572  -29.3517   18.9316 C   0  0  0  0  0  0  0  0  0  0  0  0
  -24.4255  -27.8721   24.5569 C   0  0  0  0  0  0  0  0  0  0  0  0
  -22.3441  -27.7489   23.1709 C   0  0  0  0  0  0  0  0  0  0  0  0
  -23.2384  -29.9668   23.8806 C   0  0  0  0  0  0  0  0  0  0  0  0
  -24.6370  -29.5264   17.1932 C   0  0  0  0  0  0  0  0  0  0  0  0
  -29.2921  -17.7251   17.5599 C   0  0  0  0  0  0  0  0  0  0  0  0
  -29.2036  -18.2268   20.4473 C   0  0  0  0  0  0  0  0  0  0  0  0
  -28.3123  -22.9182   19.5885 C   0  0  0  0  0  0  0  0  0  1  0  0
  -28.2699  -15.6400   16.5303 C   0  0  0  0  0  0  0  0  0  0  0  0
  -28.0062  -17.0530   17.0506 C   0  0  0  0  0  0  0  0  0  0  0  0
  -30.6801  -17.8432   20.6712 C   0  0  0  0  0  0  0  0  0  0  0  0
  -30.8939  -16.7532   21.7193 C   0  0  0  0  0  0  0  0  0  0  0  0
  -24.4556  -28.6530   22.0961 C   0  0  1  0  0  0  0  0  0  0  0  0
  -22.7574  -29.5825   18.8371 C   0  0  2  0  0  0  0  0  0  0  0  0
  -23.6406  -28.5500   23.4162 C   0  0  0  0  0  0  0  0  0  0  0  0
  -28.8473  -20.0730   17.2031 N   0  0  0  0  0  0  0  0  0  0  0  0
  -25.7964  -11.4735   20.3518 N   0  0  0  0  0  0  0  0  0  0  0  0
  -28.7616  -20.5528   19.9648 N   0  0  0  0  0  0  0  0  0  0  0  0
  -26.2228  -12.7306   20.1421 N   0  0  0  0  0  0  0  0  0  0  0  0
  -26.9275  -28.7007   21.9884 N   0  0  0  0  0  0  0  0  0  0  0  0
  -29.9779  -13.3949   20.4000 N   0  0  0  0  0  0  0  0  0  0  0  0
  -25.5316  -14.9952   20.2075 N   0  0  0  0  0  0  0  0  0  0  0  0
  -21.8298  -12.7390   21.4735 N   0  0  0  0  0  0  0  0  0  0  0  0
  -29.3124  -29.6621   24.4619 N   0  0  0  0  0  0  0  0  0  0  0  0
  -23.7469  -29.3151   21.0063 N   0  0  0  0  0  0  0  0  0  0  0  0
  -30.1953  -15.5295   21.3948 N   0  0  0  0  0  0  0  0  0  0  0  0
  -23.1865  -29.3157   17.4351 N   0  3  0  0  0  0  0  0  0  0  0  0
  -22.6896  -14.8248   21.0622 O   0  0  0  0  0  0  0  0  0  0  0  0
  -28.2825  -27.6267   23.9941 O   0  0  0  0  0  0  0  0  0  0  0  0
  -25.7199  -30.5810   22.6535 O   0  0  0  0  0  0  0  0  0  0  0  0
  -23.8649  -27.5446   19.5135 O   0  0  0  0  0  0  0  0  0  0  0  0
  -31.9345  -14.6245   20.2061 O   0  0  0  0  0  0  0  0  0  0  0  0
  -21.3522   -7.2112   21.9739 O   0  0  0  0  0  0  0  0  0  0  0  0
  -29.4889  -23.7088   19.4247 O   0  0  0  0  0  0  0  0  0  1  0  0
  -23.5616   -3.2942   25.1645 F   0  0  0  0  0  0  0  0  0  0  0  0
  -20.2140   -6.5536   24.4059 F   0  0  0  0  0  0  0  0  0  0  0  0
  1  2  1  0  0  0  0
  1  5  2  0  0  0  0
  2  6  2  0  0  0  0
  3  8  2  0  0  0  0
  3 16  1  0  0  0  0
  4  9  1  0  0  0  0
  4 16  2  0  0  0  0
  5 18  1  0  0  0  0
  6 20  1  0  0  0  0
  7 10  2  0  0  0  0
  7 19  1  0  0  0  0
  8 22  1  0  0  0  0
  9 22  2  0  0  0  0
 10 23  1  0  0  0  0
 11 12  2  0  0  0  0
 11 24  1  0  0  0  0
 12 25  1  0  0  0  0
 13 21  1  0  0  0  0
 13 23  2  0  0  0  0
 14 25  2  0  0  0  0
 14 26  1  0  0  0  0
 15 28  1  0  0  0  0
 15 65  2  0  0  0  0
 16 27  1  0  0  0  0
 17 27  1  0  0  0  0
 17 31  2  0  0  0  0
 17 32  1  0  0  0  0
 18 20  2  0  0  0  0
 18 37  1  0  0  0  0
 19 21  2  0  0  0  0
 19 38  1  0  0  0  0
 20 46  1  0  0  0  0
 21 39  1  0  0  0  0
 22 82  1  0  0  0  0
 23 83  1  0  0  0  0
 24 26  2  0  0  0  0
 24 82  1  0  0  0  0
 25 84  1  0  0  0  0
 26 85  1  0  0  0  0
 27 66  2  0  0  0  0
 28 57  1  0  0  0  0
 28 67  2  0  0  0  0
 29 30  2  0  0  0  0
 29 55  1  0  0  0  0
 29 65  1  0  0  0  0
 30 56  1  0  0  0  0
 30 67  1  0  0  0  0
 31 68  1  0  0  0  0
 31 71  1  0  0  0  0
 32 72  1  0  0  0  0
 32 77  2  0  0  0  0
 33 47  1  0  0  0  0
 33 73  1  0  0  0  0
 33 78  2  0  0  0  0
 34 62  1  0  0  0  0
 34 69  1  0  0  0  0
 34 79  2  0  0  0  0
 35 63  1  0  0  0  0
 35 74  1  0  0  0  0
 35 80  2  0  0  0  0
 36 70  1  0  0  0  0
 36 75  1  0  0  0  0
 36 81  2  0  0  0  0
 37 40  1  0  0  0  0
 38 47  1  0  0  0  0
 39 69  1  0  0  0  0
 40 42  1  0  0  0  0
 41 43  1  0  0  0  0
 41 44  1  0  0  0  0
 42 46  1  0  0  0  0
 43 48  1  0  0  0  0
 44 70  1  0  0  0  0
 45 48  1  0  0  0  0
 45 70  1  0  0  0  0
 46 73  1  0  0  0  0
 47 69  1  0  0  0  0
 48 68  1  0  0  0  0
 49 58  1  0  0  0  0
 50 63  1  0  0  0  0
 51 64  1  0  0  0  0
 52 64  1  0  0  0  0
 53 64  1  0  0  0  0
 54 76  1  0  0  0  0
 55 59  1  0  0  0  0
 56 60  1  0  0  0  0
 57 83  1  0  0  0  0
 58 59  1  0  0  0  0
 60 61  1  0  0  0  0
 61 75  1  0  0  0  0
 62 64  1  0  0  0  0
 62 74  1  0  0  0  0
 63 76  1  0  0  0  0
 66 68  1  0  0  0  0
M  CHG  1  76   1
M  ISO  4  36 100  57 101  75 100  83 101
M  END
> <Batch ID>
0043

> <Smiles>
CCCCc1ncc([101CH2:1][101O:1]c2ccc3c(c2)CN(C(=O)C(NC(=O)C(C)NC)C(C)(C)C)C(C(=O)NC2CCCc4ccccc42)C3)nc1CCC[100NH:0][100C:0](=O)N1CCCC(n2nc(-c3ccc(Oc4ccc(F)cc4F)cc3)c(C(N)=O)c2N)C1

> <Shape>
0.341

> <Color>
0.215

> <Negative vol penalty>
0.000

$$$$

  -OEChem-04052317143D

 85 93  0     1  0  0  0  0  0999 V2000
  -41.5214  -25.3356   15.8916 C   0  0  0  0  0  0  0  0  0  0  0  0
  -40.1730  -25.1157   16.1539 C   0  0  0  0  0  0  0  0  0  0  0  0
  -23.2300   -9.8342   19.9237 C   0  0  0  0  0  0  0  0  0  0  0  0
  -23.7418   -9.9860   22.2800 C   0  0  0  0  0  0  0  0  0  0  0  0
  -42.0941  -24.8334   14.7238 C   0  0  0  0  0  0  0  0  0  0  0  0
  -39.3962  -24.3944   15.2479 C   0  0  0  0  0  0  0  0  0  0  0  0
  -36.4232  -20.9836   17.5224 C   0  0  0  0  0  0  0  0  0  0  0  0
  -22.5198   -8.6560   20.1538 C   0  0  0  0  0  0  0  0  0  0  0  0
  -23.0314   -8.8079   22.5102 C   0  0  0  0  0  0  0  0  0  0  0  0
  -35.2614  -21.4567   18.1308 C   0  0  0  0  0  0  0  0  0  0  0  0
  -23.5378   -5.4839   22.1559 C   0  0  0  0  0  0  0  0  0  0  0  0
  -24.1220   -4.5264   22.9850 C   0  0  0  0  0  0  0  0  0  0  0  0
  -33.9776  -20.7508   16.2144 C   0  0  0  0  0  0  0  0  0  0  0  0
  -22.2433   -4.6878   24.4954 C   0  0  0  0  0  0  0  0  0  0  0  0
  -23.8411  -10.4992   20.9867 C   0  0  0  0  0  0  0  0  0  0  0  0
  -24.0729  -13.0307   20.7741 C   0  0  0  0  0  0  0  0  0  0  0  0
  -41.3263  -24.0973   13.8077 C   0  0  0  0  0  0  0  0  0  0  0  0
  -36.3724  -20.3995   16.2486 C   0  0  0  0  0  0  0  0  0  0  0  0
  -39.9589  -23.8830   14.0661 C   0  0  0  0  0  0  0  0  0  0  0  0
  -35.1398  -20.2688   15.5931 C   0  0  0  0  0  0  0  0  0  0  0  0
  -22.4204   -8.1429   21.4471 C   0  0  0  0  0  0  0  0  0  0  0  0
  -34.0387  -21.3429   17.4756 C   0  0  0  0  0  0  0  0  0  0  0  0
  -22.3063   -6.0434   22.4966 C   0  0  0  0  0  0  0  0  0  0  0  0
  -23.4748   -4.1283   24.1547 C   0  0  0  0  0  0  0  0  0  0  0  0
  -21.6590   -5.6453   23.6663 C   0  0  0  0  0  0  0  0  0  0  0  0
  -24.5755  -11.7160   20.7495 C   0  0  0  0  0  0  0  0  0  0  0  0
  -30.5011  -18.2433   20.1927 C   0  0  0  0  0  0  0  0  0  0  0  0
  -33.0209  -17.4159   19.8874 C   0  0  0  0  0  0  0  0  0  0  0  0
  -31.5413  -19.1436   20.1226 C   0  0  0  0  0  0  0  0  0  0  0  0
  -31.9809  -16.5155   19.9583 C   0  0  0  0  0  0  0  0  0  0  0  0
  -25.1604  -13.8194   20.4880 C   0  0  0  0  0  0  0  0  0  0  0  0
  -22.7421  -13.4974   21.0326 C   0  0  0  0  0  0  0  0  0  0  0  0
  -37.6285  -21.0912   13.4119 C   0  0  0  0  0  0  0  0  0  0  0  0
  -36.3257  -18.2409   12.5749 C   0  0  0  0  0  0  0  0  0  0  0  0
  -30.7736  -13.9878   21.6192 C   0  0  0  0  0  0  0  0  0  0  0  0
  -33.9692  -15.8456   13.1717 C   0  0  0  0  0  0  0  0  0  0  0  0
  -41.9784  -23.6150   12.5362 C   0  0  0  0  0  0  0  0  0  0  0  0
  -37.6307  -19.8699   15.6174 C   0  0  0  0  0  0  0  0  0  0  0  0
  -35.0285  -19.6311   14.2331 C   0  0  0  0  0  0  0  0  0  0  0  0
  -41.1743  -22.5403   11.8090 C   0  0  0  0  0  0  0  0  0  0  0  0
  -29.5341  -13.0879   18.3206 C   0  0  0  0  0  0  0  0  0  0  0  0
  -39.7048  -22.9400   11.7227 C   0  0  0  0  0  0  0  0  0  0  0  0
  -28.0781  -12.7386   18.6260 C   0  0  0  0  0  0  0  0  0  0  0  0
  -30.4608  -12.6791   19.4625 C   0  0  0  0  0  0  0  0  0  0  0  0
  -28.6146  -12.8988   21.0957 C   0  0  0  0  0  0  0  0  0  0  0  0
  -39.0892  -23.0842   13.1198 C   0  0  1  0  0  0  0  0  0  0  0  0
  -37.5361  -19.7581   14.0988 C   0  0  1  0  0  0  0  0  0  0  0  0
  -27.6431  -13.3226   19.9815 C   0  0  2  0  0  0  0  0  0  0  0  0
  -29.0912  -18.6960   20.3625 C   0  0  0  0  0  0  0  0  0  0  0  0
  -34.4308  -16.9636   19.7173 C   0  0  0  0  0  0  0  0  0  0  0  0
  -33.1269  -13.6496   12.2967 C   0  0  0  0  0  0  0  0  0  0  0  0
  -32.8472  -15.0930   22.3173 C   0  0  0  0  0  0  0  0  0  0  0  0
  -32.9432  -12.9125   21.0988 C   0  0  0  0  0  0  0  0  0  0  0  0
  -34.9396  -19.6912   10.2760 C   0  0  0  0  0  0  0  0  0  0  0  0
  -33.4182  -17.7170   10.0399 C   0  0  0  0  0  0  0  0  0  0  0  0
  -35.8723  -17.4479    9.6829 C   0  0  0  0  0  0  0  0  0  0  0  0
  -34.5993  -14.4605   15.7100 C   0  0  0  0  0  0  0  0  0  0  0  0
  -31.3025  -20.6296   20.2147 C   0  0  0  0  0  0  0  0  0  0  0  0
  -32.2172  -15.0466   19.8686 C   0  0  0  0  0  0  0  0  0  0  0  0
  -30.7370  -21.2432   18.9320 C   0  0  0  0  0  0  0  0  0  0  0  0
  -31.6846  -21.1365   17.7429 C   0  0  0  0  0  0  0  0  0  1  0  0
  -34.9915  -17.7948   12.0272 C   0  0  1  0  0  0  0  0  0  0  0  0
  -34.0719  -14.3344   13.2719 C   0  0  2  0  0  0  0  0  0  0  0  0
  -32.2003  -14.2495   21.2067 C   0  0  0  0  0  0  0  0  0  0  0  0
  -34.8074  -18.1765   10.5313 C   0  0  0  0  0  0  0  0  0  0  0  0
  -25.8806  -11.6680   20.4697 N   0  0  0  0  0  0  0  0  0  0  0  0
  -32.8198  -18.7461   19.9683 N   0  0  0  0  0  0  0  0  0  0  0  0
  -30.7023  -16.9130   20.1122 N   0  0  0  0  0  0  0  0  0  0  0  0
  -26.2073  -12.9625   20.3157 N   0  0  0  0  0  0  0  0  0  0  0  0
  -36.2879  -19.1345   13.6547 N   0  0  0  0  0  0  0  0  0  0  0  0
  -29.9968  -13.2326   20.7402 N   0  0  0  0  0  0  0  0  0  0  0  0
  -25.3136  -15.1554   20.3693 N   0  0  0  0  0  0  0  0  0  0  0  0
  -21.7447  -12.5525   21.3094 N   0  0  0  0  0  0  0  0  0  0  0  0
  -38.7949  -21.7823   13.6792 N   0  0  0  0  0  0  0  0  0  0  0  0
  -34.8984  -16.3636   12.2945 N   0  0  0  0  0  0  0  0  0  0  0  0
  -33.7327  -13.8824   14.6509 N   0  3  0  0  0  0  0  0  0  0  0  0
  -22.4427  -14.7152   21.0024 O   0  0  0  0  0  0  0  0  0  0  0  0
  -36.7102  -21.4646   12.6914 O   0  0  0  0  0  0  0  0  0  0  0  0
  -37.3632  -17.8067   12.0681 O   0  0  0  0  0  0  0  0  0  0  0  0
  -30.3631  -14.4440   22.6894 O   0  0  0  0  0  0  0  0  0  0  0  0
  -33.1444  -16.5007   13.8051 O   0  0  0  0  0  0  0  0  0  0  0  0
  -21.7272   -6.9934   21.6721 O   0  0  0  0  0  0  0  0  0  0  0  0
  -32.9033  -21.8045   18.0670 O   0  0  0  0  0  0  0  0  0  1  0  0
  -24.0352   -3.2076   24.9500 F   0  0  0  0  0  0  0  0  0  0  0  0
  -20.4752   -6.1784   23.9982 F   0  0  0  0  0  0  0  0  0  0  0  0
  1  2  1  0  0  0  0
  1  5  2  0  0  0  0
  2  6  2  0  0  0  0
  3  8  2  0  0  0  0
  3 15  1  0  0  0  0
  4  9  1  0  0  0  0
  4 15  2  0  0  0  0
  5 17  1  0  0  0  0
  6 19  1  0  0  0  0
  7 10  2  0  0  0  0
  7 18  1  0  0  0  0
  8 21  1  0  0  0  0
  9 21  2  0  0  0  0
 10 22  1  0  0  0  0
 11 12  2  0  0  0  0
 11 23  1  0  0  0  0
 12 24  1  0  0  0  0
 13 20  1  0  0  0  0
 13 22  2  0  0  0  0
 14 24  2  0  0  0  0
 14 25  1  0  0  0  0
 15 26  1  0  0  0  0
 16 26  1  0  0  0  0
 16 31  2  0  0  0  0
 16 32  1  0  0  0  0
 17 19  2  0  0  0  0
 17 37  1  0  0  0  0
 18 20  2  0  0  0  0
 18 38  1  0  0  0  0
 19 46  1  0  0  0  0
 20 39  1  0  0  0  0
 21 82  1  0  0  0  0
 22 83  1  0  0  0  0
 23 25  2  0  0  0  0
 23 82  1  0  0  0  0
 24 84  1  0  0  0  0
 25 85  1  0  0  0  0
 26 66  2  0  0  0  0
 27 29  2  0  0  0  0
 27 49  1  0  0  0  0
 27 68  1  0  0  0  0
 28 30  1  0  0  0  0
 28 50  1  0  0  0  0
 28 67  2  0  0  0  0
 29 58  1  0  0  0  0
 29 67  1  0  0  0  0
 30 59  1  0  0  0  0
 30 68  2  0  0  0  0
 31 69  1  0  0  0  0
 31 72  1  0  0  0  0
 32 73  1  0  0  0  0
 32 77  2  0  0  0  0
 33 47  1  0  0  0  0
 33 74  1  0  0  0  0
 33 78  2  0  0  0  0
 34 62  1  0  0  0  0
 34 70  1  0  0  0  0
 34 79  2  0  0  0  0
 35 64  1  0  0  0  0
 35 71  1  0  0  0  0
 35 80  2  0  0  0  0
 36 63  1  0  0  0  0
 36 75  1  0  0  0  0
 36 81  2  0  0  0  0
 37 40  1  0  0  0  0
 38 47  1  0  0  0  0
 39 70  1  0  0  0  0
 40 42  1  0  0  0  0
 41 43  1  0  0  0  0
 41 44  1  0  0  0  0
 42 46  1  0  0  0  0
 43 48  1  0  0  0  0
 44 71  1  0  0  0  0
 45 48  1  0  0  0  0
 45 71  1  0  0  0  0
 46 74  1  0  0  0  0
 47 70  1  0  0  0  0
 48 69  1  0  0  0  0
 51 63  1  0  0  0  0
 52 64  1  0  0  0  0
 53 64  1  0  0  0  0
 54 65  1  0  0  0  0
 55 65  1  0  0  0  0
 56 65  1  0  0  0  0
 57 76  1  0  0  0  0
 58 60  1  0  0  0  0
 59 64  1  0  0  0  0
 60 61  1  0  0  0  0
 61 83  1  0  0  0  0
 62 65  1  0  0  0  0
 62 75  1  0  0  0  0
 63 76  1  0  0  0  0
 66 69  1  0  0  0  0
M  CHG  1  76   1
M  ISO  4  35 100  61 101  64 100  83 101
M  END
> <Batch ID>
0043

> <Smiles>
CNC(C)C(=O)NC(C(=O)N1Cc2cc([101O:1][101CH2:1]CCc3nc(C)c(C[100C:0](C)(C)[100C:0](=O)N4CCCC(n5nc(-c6ccc(Oc7ccc(F)cc7F)cc6)c(C(N)=O)c5N)C4)nc3C)ccc2CC1C(=O)NC1CCCc2ccccc21)C(C)(C)C

> <Shape>
0.175

> <Color>
0.188

> <Negative vol penalty>
0.000

$$$$

  -OEChem-04052317143D

 82 90  0     1  0  0  0  0  0999 V2000
  -27.6442  -35.8407   22.5256 C   0  0  0  0  0  0  0  0  0  0  0  0
  -28.4462  -34.7776   22.1232 C   0  0  0  0  0  0  0  0  0  0  0  0
  -23.7551  -10.0230   22.3080 C   0  0  0  0  0  0  0  0  0  0  0  0
  -24.3275  -11.5453   24.0946 C   0  0  0  0  0  0  0  0  0  0  0  0
  -26.4292  -35.5934   23.1633 C   0  0  0  0  0  0  0  0  0  0  0  0
  -28.0341  -33.4665   22.3592 C   0  0  0  0  0  0  0  0  0  0  0  0
  -28.3993  -26.9020   19.5147 C   0  0  0  0  0  0  0  0  0  0  0  0
  -23.2268   -9.1289   23.2391 C   0  0  0  0  0  0  0  0  0  0  0  0
  -23.7991  -10.6513   25.0257 C   0  0  0  0  0  0  0  0  0  0  0  0
  -28.7545  -25.5981   19.8571 C   0  0  0  0  0  0  0  0  0  0  0  0
  -24.3943   -6.8317   25.4264 C   0  0  0  0  0  0  0  0  0  0  0  0
  -24.7245   -5.4835   25.2890 C   0  0  0  0  0  0  0  0  0  0  0  0
  -26.5993  -25.2902   20.8960 C   0  0  0  0  0  0  0  0  0  0  0  0
  -22.3846   -4.9357   25.0404 C   0  0  0  0  0  0  0  0  0  0  0  0
  -30.0489  -20.1472   22.5948 C   0  0  0  0  0  0  0  0  0  0  0  0
  -24.3056  -11.2312   22.7357 C   0  0  0  0  0  0  0  0  0  0  0  0
  -24.1707  -13.1919   21.1094 C   0  0  0  0  0  0  0  0  0  0  0  0
  -25.9976  -34.2785   23.3986 C   0  0  0  0  0  0  0  0  0  0  0  0
  -27.1434  -27.4144   19.8705 C   0  0  0  0  0  0  0  0  0  0  0  0
  -26.8129  -33.2014   23.0018 C   0  0  0  0  0  0  0  0  0  0  0  0
  -26.2296  -26.6001   20.5547 C   0  0  0  0  0  0  0  0  0  0  0  0
  -29.9960  -19.0966   21.7015 C   0  0  0  0  0  0  0  0  0  0  0  0
  -23.2487   -9.4430   24.5980 C   0  0  0  0  0  0  0  0  0  0  0  0
  -27.8556  -24.7929   20.5504 C   0  0  0  0  0  0  0  0  0  0  0  0
  -23.0592   -7.2320   25.3710 C   0  0  0  0  0  0  0  0  0  0  0  0
  -23.7197   -4.5355   25.0959 C   0  0  0  0  0  0  0  0  0  0  0  0
  -22.0544   -6.2840   25.1780 C   0  0  0  0  0  0  0  0  0  0  0  0
  -24.8520  -12.1550   21.7744 C   0  0  0  0  0  0  0  0  0  0  0  0
  -29.7681  -19.4431   20.3854 C   0  0  0  0  0  0  0  0  0  0  0  0
  -25.1249  -13.7724   20.3101 C   0  0  0  0  0  0  0  0  0  0  0  0
  -29.6764  -21.6483   20.9290 C   0  0  0  0  0  0  0  0  0  0  0  0
  -22.7979  -13.5944   21.2056 C   0  0  0  0  0  0  0  0  0  0  0  0
  -26.1344  -29.8112   21.6982 C   0  0  0  0  0  0  0  0  0  0  0  0
  -23.2312  -28.9743   20.5179 C   0  0  0  0  0  0  0  0  0  0  0  0
  -21.2515  -26.5628   19.1351 C   0  0  0  0  0  0  0  0  0  0  0  0
  -31.0957  -14.0684   20.6467 C   0  0  0  0  0  0  0  0  0  0  0  0
  -24.6987  -34.0615   24.1338 C   0  0  0  0  0  0  0  0  0  0  0  0
  -26.7653  -28.8141   19.4703 C   0  0  0  0  0  0  0  0  0  0  0  0
  -24.8611  -27.0958   20.9422 C   0  0  0  0  0  0  0  0  0  0  0  0
  -24.1596  -32.6386   24.0108 C   0  0  0  0  0  0  0  0  0  0  0  0
  -29.1655  -12.7533   17.9594 C   0  0  0  0  0  0  0  0  0  0  0  0
  -25.2709  -31.6234   24.2580 C   0  0  0  0  0  0  0  0  0  0  0  0
  -27.7797  -12.5443   18.5724 C   0  0  0  0  0  0  0  0  0  0  0  0
  -30.2774  -12.4483   18.9609 C   0  0  0  0  0  0  0  0  0  0  0  0
  -28.7868  -12.9629   20.8548 C   0  0  0  0  0  0  0  0  0  0  0  0
  -26.3888  -31.7649   23.2179 C   0  0  1  0  0  0  0  0  0  0  0  0
  -25.6544  -29.4031   20.3342 C   0  0  1  0  0  0  0  0  0  0  0  0
  -27.6323  -13.3118   19.9000 C   0  0  2  0  0  0  0  0  0  0  0  0
  -29.6911  -18.3894   19.3302 C   0  0  0  0  0  0  0  0  0  0  0  0
  -18.9137  -26.1649   18.3143 C   0  0  0  0  0  0  0  0  0  0  0  0
  -22.2548  -28.7771   23.4020 C   0  0  0  0  0  0  0  0  0  0  0  0
  -20.2748  -27.4901   22.5702 C   0  0  0  0  0  0  0  0  0  0  0  0
  -20.6347  -29.8426   21.8226 C   0  0  0  0  0  0  0  0  0  0  0  0
  -22.1907  -25.9775   16.3903 C   0  0  0  0  0  0  0  0  0  0  0  0
  -30.1756  -17.6934   22.1533 C   0  0  0  0  0  0  0  0  0  0  0  0
  -29.4985  -23.0742   20.4971 C   0  0  0  0  0  0  0  0  0  1  0  0
  -31.5817  -17.1088   21.8971 C   0  0  0  0  0  0  0  0  0  0  0  0
  -31.7692  -15.6819   22.4080 C   0  0  0  0  0  0  0  0  0  0  0  0
  -22.1423  -28.0164   20.9373 C   0  0  1  0  0  0  0  0  0  0  0  0
  -20.3240  -26.5876   17.9336 C   0  0  2  0  0  0  0  0  0  0  0  0
  -21.3531  -28.5226   22.1776 C   0  0  0  0  0  0  0  0  0  0  0  0
  -29.8928  -21.4399   22.2417 N   0  0  0  0  0  0  0  0  0  0  0  0
  -26.1396  -12.0786   21.4276 N   0  0  0  0  0  0  0  0  0  0  0  0
  -29.6029  -20.7135   19.9624 N   0  0  0  0  0  0  0  0  0  0  0  0
  -26.2749  -13.0749   20.5359 N   0  0  0  0  0  0  0  0  0  0  0  0
  -24.5407  -28.4736   20.5339 N   0  0  0  0  0  0  0  0  0  0  0  0
  -30.0797  -13.2090   20.1970 N   0  0  0  0  0  0  0  0  0  0  0  0
  -25.0840  -14.8064   19.4431 N   0  0  0  0  0  0  0  0  0  0  0  0
  -21.9544  -12.8898   22.0753 N   0  0  0  0  0  0  0  0  0  0  0  0
  -25.9924  -31.1597   21.9645 N   0  0  0  0  0  0  0  0  0  0  0  0
  -21.3177  -27.7928   19.7547 N   0  0  0  0  0  0  0  0  0  0  0  0
  -30.8246  -14.7565   21.8231 N   0  0  0  0  0  0  0  0  0  0  0  0
  -20.8221  -25.6638   16.8756 N   0  3  0  0  0  0  0  0  0  0  0  0
  -22.3292  -14.5402   20.5278 O   0  0  0  0  0  0  0  0  0  0  0  0
  -26.5979  -28.9651   22.4539 O   0  0  0  0  0  0  0  0  0  0  0  0
  -22.9302  -30.1223   20.1815 O   0  0  0  0  0  0  0  0  0  0  0  0
  -21.8539  -25.5523   19.4908 O   0  0  0  0  0  0  0  0  0  0  0  0
  -32.1630  -14.2158   20.0417 O   0  0  0  0  0  0  0  0  0  0  0  0
  -22.7330   -8.5709   25.5069 O   0  0  0  0  0  0  0  0  0  0  0  0
  -28.2000  -23.5200   20.8864 O   0  0  0  0  0  0  0  0  0  1  0  0
  -24.0371   -3.2411   24.9624 F   0  0  0  0  0  0  0  0  0  0  0  0
  -20.7701   -6.6626   25.1226 F   0  0  0  0  0  0  0  0  0  0  0  0
  1  2  1  0  0  0  0
  1  5  2  0  0  0  0
  2  6  2  0  0  0  0
  3  8  2  0  0  0  0
  3 16  1  0  0  0  0
  4  9  1  0  0  0  0
  4 16  2  0  0  0  0
  5 18  1  0  0  0  0
  6 20  1  0  0  0  0
  7 10  2  0  0  0  0
  7 19  1  0  0  0  0
  8 23  1  0  0  0  0
  9 23  2  0  0  0  0
 10 24  1  0  0  0  0
 11 12  2  0  0  0  0
 11 25  1  0  0  0  0
 12 26  1  0  0  0  0
 13 21  1  0  0  0  0
 13 24  2  0  0  0  0
 14 26  2  0  0  0  0
 14 27  1  0  0  0  0
 15 22  1  0  0  0  0
 15 62  2  0  0  0  0
 16 28  1  0  0  0  0
 17 28  1  0  0  0  0
 17 30  2  0  0  0  0
 17 32  1  0  0  0  0
 18 20  2  0  0  0  0
 18 37  1  0  0  0  0
 19 21  2  0  0  0  0
 19 38  1  0  0  0  0
 20 46  1  0  0  0  0
 21 39  1  0  0  0  0
 22 29  2  0  0  0  0
 22 55  1  0  0  0  0
 23 79  1  0  0  0  0
 24 80  1  0  0  0  0
 25 27  2  0  0  0  0
 25 79  1  0  0  0  0
 26 81  1  0  0  0  0
 27 82  1  0  0  0  0
 28 63  2  0  0  0  0
 29 49  1  0  0  0  0
 29 64  1  0  0  0  0
 30 65  1  0  0  0  0
 30 68  1  0  0  0  0
 31 56  1  0  0  0  0
 31 62  1  0  0  0  0
 31 64  2  0  0  0  0
 32 69  1  0  0  0  0
 32 74  2  0  0  0  0
 33 47  1  0  0  0  0
 33 70  1  0  0  0  0
 33 75  2  0  0  0  0
 34 59  1  0  0  0  0
 34 66  1  0  0  0  0
 34 76  2  0  0  0  0
 35 60  1  0  0  0  0
 35 71  1  0  0  0  0
 35 77  2  0  0  0  0
 36 67  1  0  0  0  0
 36 72  1  0  0  0  0
 36 78  2  0  0  0  0
 37 40  1  0  0  0  0
 38 47  1  0  0  0  0
 39 66  1  0  0  0  0
 40 42  1  0  0  0  0
 41 43  1  0  0  0  0
 41 44  1  0  0  0  0
 42 46  1  0  0  0  0
 43 48  1  0  0  0  0
 44 67  1  0  0  0  0
 45 48  1  0  0  0  0
 45 67  1  0  0  0  0
 46 70  1  0  0  0  0
 47 66  1  0  0  0  0
 48 65  1  0  0  0  0
 50 60  1  0  0  0  0
 51 61  1  0  0  0  0
 52 61  1  0  0  0  0
 53 61  1  0  0  0  0
 54 73  1  0  0  0  0
 55 57  1  0  0  0  0
 56 80  1  0  0  0  0
 57 58  1  0  0  0  0
 58 72  1  0  0  0  0
 59 61  1  0  0  0  0
 59 71  1  0  0  0  0
 60 73  1  0  0  0  0
 63 65  1  0  0  0  0
M  CHG  1  73   1
M  ISO  4  36 100  56 101  72 100  80 101
M  END
> <Batch ID>
0043

> <Smiles>
CNC(C)C(=O)NC(C(=O)N1Cc2cc([101O:1][101CH2:1]c3ncc(CCC[100NH:0][100C:0](=O)N4CCCC(n5nc(-c6ccc(Oc7ccc(F)cc7F)cc6)c(C(N)=O)c5N)C4)c(C)n3)ccc2CC1C(=O)NC1CCCc2ccccc21)C(C)(C)C

> <Shape>
0.338

> <Color>
0.147

> <Negative vol penalty>
0.000

$$$$

  -OEChem-04052317143D

 86 94  0     1  0  0  0  0  0999 V2000
  -33.2647  -31.4716   26.7647 C   0  0  0  0  0  0  0  0  0  0  0  0
  -33.2613  -30.4097   25.8660 C   0  0  0  0  0  0  0  0  0  0  0  0
  -23.0656   -9.8285   20.0557 C   0  0  0  0  0  0  0  0  0  0  0  0
  -23.7960   -9.9711   22.3542 C   0  0  0  0  0  0  0  0  0  0  0  0
  -32.0903  -31.8262   27.4274 C   0  0  0  0  0  0  0  0  0  0  0  0
  -32.0838  -29.7011   25.6301 C   0  0  0  0  0  0  0  0  0  0  0  0
  -30.2885  -27.2024   20.3349 C   0  0  0  0  0  0  0  0  0  0  0  0
  -22.2992   -8.7059   20.3689 C   0  0  0  0  0  0  0  0  0  0  0  0
  -23.0296   -8.8485   22.6674 C   0  0  0  0  0  0  0  0  0  0  0  0
  -30.3574  -25.9004   19.8411 C   0  0  0  0  0  0  0  0  0  0  0  0
  -19.7809   -8.1432   23.2751 C   0  0  0  0  0  0  0  0  0  0  0  0
  -19.0084   -8.1910   24.4355 C   0  0  0  0  0  0  0  0  0  0  0  0
  -28.0967  -25.5053   20.5845 C   0  0  0  0  0  0  0  0  0  0  0  0
  -20.2073   -6.2854   25.3121 C   0  0  0  0  0  0  0  0  0  0  0  0
  -23.8141  -10.4610   21.0484 C   0  0  0  0  0  0  0  0  0  0  0  0
  -24.2001  -12.9674   20.7711 C   0  0  0  0  0  0  0  0  0  0  0  0
  -30.8956  -31.1278   27.1923 C   0  0  0  0  0  0  0  0  0  0  0  0
  -29.1251  -27.6629   20.9680 C   0  0  0  0  0  0  0  0  0  0  0  0
  -30.8926  -30.0459   26.2912 C   0  0  0  0  0  0  0  0  0  0  0  0
  -28.0147  -26.8144   21.0832 C   0  0  0  0  0  0  0  0  0  0  0  0
  -22.2811   -8.2160   21.6747 C   0  0  0  0  0  0  0  0  0  0  0  0
  -29.2624  -25.0507   19.9684 C   0  0  0  0  0  0  0  0  0  0  0  0
  -20.7666   -7.1664   23.1331 C   0  0  0  0  0  0  0  0  0  0  0  0
  -19.2217   -7.2621   25.4540 C   0  0  0  0  0  0  0  0  0  0  0  0
  -20.9798   -6.2376   24.1516 C   0  0  0  0  0  0  0  0  0  0  0  0
  -24.6065  -11.6203   20.7253 C   0  0  0  0  0  0  0  0  0  0  0  0
  -28.9401  -19.1693   18.1020 C   0  0  0  0  0  0  0  0  0  0  0  0
  -28.9136  -19.3929   19.4610 C   0  0  0  0  0  0  0  0  0  0  0  0
  -28.4456  -21.6002   19.0889 C   0  0  0  0  0  0  0  0  0  0  0  0
  -28.4728  -21.3769   17.7298 C   0  0  0  0  0  0  0  0  0  0  0  0
  -25.3094  -13.6742   20.3756 C   0  0  0  0  0  0  0  0  0  0  0  0
  -22.9333  -13.5295   21.1383 C   0  0  0  0  0  0  0  0  0  0  0  0
  -28.4249  -28.7148   23.8847 C   0  0  0  0  0  0  0  0  0  0  0  0
  -25.5365  -29.3345   22.5447 C   0  0  0  0  0  0  0  0  0  0  0  0
  -23.2713  -28.6342   20.0900 C   0  0  0  0  0  0  0  0  0  0  0  0
  -30.8067  -14.6151   20.5742 C   0  0  0  0  0  0  0  0  0  0  0  0
  -29.6621  -31.5177   27.9676 C   0  0  0  0  0  0  0  0  0  0  0  0
  -29.0573  -29.0786   21.4714 C   0  0  0  0  0  0  0  0  0  0  0  0
  -26.7353  -27.2668   21.7364 C   0  0  0  0  0  0  0  0  0  0  0  0
  -28.3703  -30.9546   27.3806 C   0  0  0  0  0  0  0  0  0  0  0  0
  -29.6596  -12.1002   18.3301 C   0  0  0  0  0  0  0  0  0  0  0  0
  -28.5364  -29.4758   27.0454 C   0  0  0  0  0  0  0  0  0  0  0  0
  -28.2120  -11.8582   18.7610 C   0  0  0  0  0  0  0  0  0  0  0  0
  -30.5649  -12.3833   19.5269 C   0  0  0  0  0  0  0  0  0  0  0  0
  -28.6581  -13.2327   20.8371 C   0  0  0  0  0  0  0  0  0  0  0  0
  -29.6295  -29.2687   25.9901 C   0  0  1  0  0  0  0  0  0  0  0  0
  -28.0035  -29.2771   22.5566 C   0  0  1  0  0  0  0  0  0  0  0  0
  -27.6964  -12.9982   19.6597 C   0  0  2  0  0  0  0  0  0  0  0  0
  -27.9462  -17.1222   17.0494 C   0  0  0  0  0  0  0  0  0  0  0  0
  -26.9799  -22.2318   15.8876 C   0  0  0  0  0  0  0  0  0  0  0  0
  -29.4472  -22.7479   15.8524 C   0  0  0  0  0  0  0  0  0  0  0  0
  -20.9858  -29.2768   19.2770 C   0  0  0  0  0  0  0  0  0  0  0  0
  -24.2800  -27.7199   24.8084 C   0  0  0  0  0  0  0  0  0  0  0  0
  -22.1770  -27.5915   23.4559 C   0  0  0  0  0  0  0  0  0  0  0  0
  -23.0429  -29.8079   24.2048 C   0  0  0  0  0  0  0  0  0  0  0  0
  -24.3306  -29.5575   17.4853 C   0  0  0  0  0  0  0  0  0  0  0  0
  -29.2142  -17.8153   17.5424 C   0  0  0  0  0  0  0  0  0  0  0  0
  -29.1581  -18.2917   20.4351 C   0  0  0  0  0  0  0  0  0  0  0  0
  -28.1684  -22.9628   19.6523 C   0  0  0  0  0  0  0  0  0  1  0  0
  -30.6445  -17.9338   20.6352 C   0  0  0  0  0  0  0  0  0  0  0  0
  -30.8931  -16.8396   21.6712 C   0  0  0  0  0  0  0  0  0  0  0  0
  -28.2286  -22.4784   16.7560 C   0  0  0  0  0  0  0  0  0  0  0  0
  -24.2522  -28.5611   22.3675 C   0  0  1  0  0  0  0  0  0  0  0  0
  -22.4796  -29.5380   19.1623 C   0  0  2  0  0  0  0  0  0  0  0  0
  -23.4626  -28.4107   23.6985 C   0  0  0  0  0  0  0  0  0  0  0  0
  -25.8748  -11.4774   20.3317 N   0  0  0  0  0  0  0  0  0  0  0  0
  -28.6658  -20.6123   19.9788 N   0  0  0  0  0  0  0  0  0  0  0  0
  -28.7202  -20.1573   17.2120 N   0  0  0  0  0  0  0  0  0  0  0  0
  -26.2750  -12.7438   20.1264 N   0  0  0  0  0  0  0  0  0  0  0  0
  -26.7204  -28.6579   22.2184 N   0  0  0  0  0  0  0  0  0  0  0  0
  -30.0205  -13.4755   20.3372 N   0  0  0  0  0  0  0  0  0  0  0  0
  -25.5432  -14.9947   20.2201 N   0  0  0  0  0  0  0  0  0  0  0  0
  -21.9019  -12.6603   21.5192 N   0  0  0  0  0  0  0  0  0  0  0  0
  -29.1307  -29.6032   24.6734 N   0  0  0  0  0  0  0  0  0  0  0  0
  -23.5122  -29.2363   21.3069 N   0  0  0  0  0  0  0  0  0  0  0  0
  -30.2126  -15.6058   21.3465 N   0  0  0  0  0  0  0  0  0  0  0  0
  -22.8887  -29.3136   17.7470 N   0  3  0  0  0  0  0  0  0  0  0  0
  -22.7172  -14.7648   21.1132 O   0  0  0  0  0  0  0  0  0  0  0  0
  -28.1302  -27.5608   24.1731 O   0  0  0  0  0  0  0  0  0  0  0  0
  -25.4905  -30.4984   22.9506 O   0  0  0  0  0  0  0  0  0  0  0  0
  -23.6362  -27.5054   19.7688 O   0  0  0  0  0  0  0  0  0  0  0  0
  -31.9512  -14.7427   20.1261 O   0  0  0  0  0  0  0  0  0  0  0  0
  -21.5332   -7.1208   21.9808 O   0  0  0  0  0  0  0  0  0  0  0  0
  -29.3272  -23.7792   19.4879 O   0  0  0  0  0  0  0  0  0  1  0  0
  -18.4808   -7.3091   26.5690 F   0  0  0  0  0  0  0  0  0  0  0  0
  -21.9260   -5.2976   24.0214 F   0  0  0  0  0  0  0  0  0  0  0  0
  1  2  1  0  0  0  0
  1  5  2  0  0  0  0
  2  6  2  0  0  0  0
  3  8  2  0  0  0  0
  3 15  1  0  0  0  0
  4  9  1  0  0  0  0
  4 15  2  0  0  0  0
  5 17  1  0  0  0  0
  6 19  1  0  0  0  0
  7 10  2  0  0  0  0
  7 18  1  0  0  0  0
  8 21  1  0  0  0  0
  9 21  2  0  0  0  0
 10 22  1  0  0  0  0
 11 12  2  0  0  0  0
 11 23  1  0  0  0  0
 12 24  1  0  0  0  0
 13 20  1  0  0  0  0
 13 22  2  0  0  0  0
 14 24  2  0  0  0  0
 14 25  1  0  0  0  0
 15 26  1  0  0  0  0
 16 26  1  0  0  0  0
 16 31  2  0  0  0  0
 16 32  1  0  0  0  0
 17 19  2  0  0  0  0
 17 37  1  0  0  0  0
 18 20  2  0  0  0  0
 18 38  1  0  0  0  0
 19 46  1  0  0  0  0
 20 39  1  0  0  0  0
 21 83  1  0  0  0  0
 22 84  1  0  0  0  0
 23 25  2  0  0  0  0
 23 83  1  0  0  0  0
 24 85  1  0  0  0  0
 25 86  1  0  0  0  0
 26 66  2  0  0  0  0
 27 28  2  0  0  0  0
 27 57  1  0  0  0  0
 27 68  1  0  0  0  0
 28 58  1  0  0  0  0
 28 67  1  0  0  0  0
 29 30  1  0  0  0  0
 29 59  1  0  0  0  0
 29 67  2  0  0  0  0
 30 62  1  0  0  0  0
 30 68  2  0  0  0  0
 31 69  1  0  0  0  0
 31 72  1  0  0  0  0
 32 73  1  0  0  0  0
 32 78  2  0  0  0  0
 33 47  1  0  0  0  0
 33 74  1  0  0  0  0
 33 79  2  0  0  0  0
 34 63  1  0  0  0  0
 34 70  1  0  0  0  0
 34 80  2  0  0  0  0
 35 64  1  0  0  0  0
 35 75  1  0  0  0  0
 35 81  2  0  0  0  0
 36 71  1  0  0  0  0
 36 76  1  0  0  0  0
 36 82  2  0  0  0  0
 37 40  1  0  0  0  0
 38 47  1  0  0  0  0
 39 70  1  0  0  0  0
 40 42  1  0  0  0  0
 41 43  1  0  0  0  0
 41 44  1  0  0  0  0
 42 46  1  0  0  0  0
 43 48  1  0  0  0  0
 44 71  1  0  0  0  0
 45 48  1  0  0  0  0
 45 71  1  0  0  0  0
 46 74  1  0  0  0  0
 47 70  1  0  0  0  0
 48 69  1  0  0  0  0
 49 57  1  0  0  0  0
 50 62  1  0  0  0  0
 51 62  1  0  0  0  0
 52 64  1  0  0  0  0
 53 65  1  0  0  0  0
 54 65  1  0  0  0  0
 55 65  1  0  0  0  0
 56 77  1  0  0  0  0
 58 60  1  0  0  0  0
 59 84  1  0  0  0  0
 60 61  1  0  0  0  0
 61 76  1  0  0  0  0
 63 65  1  0  0  0  0
 63 75  1  0  0  0  0
 64 77  1  0  0  0  0
 66 69  1  0  0  0  0
M  CHG  1  77   1
M  ISO  4  36 100  59 101  76 100  84 101
M  END
> <Batch ID>
0043

> <Smiles>
CCc1nc(C(C)C)c([101CH2:1][101O:1]c2ccc3c(c2)CN(C(=O)C(NC(=O)C(C)NC)C(C)(C)C)C(C(=O)NC2CCCc4ccccc42)C3)nc1CCC[100NH:0][100C:0](=O)N1CCCC(n2nc(-c3ccc(Oc4ccc(F)cc4F)cc3)c(C(N)=O)c2N)C1

> <Shape>
0.322

> <Color>
0.200

> <Negative vol penalty>
0.000

$$$$

  -OEChem-04052317143D

 87 95  0     1  0  0  0  0  0999 V2000
  -29.6344  -33.1435   15.0403 C   0  0  0  0  0  0  0  0  0  0  0  0
  -29.9234  -32.0000   15.7782 C   0  0  0  0  0  0  0  0  0  0  0  0
  -26.1986  -16.2979   22.4043 C   0  0  0  0  0  0  0  0  0  0  0  0
  -25.7853  -15.7746   20.0821 C   0  0  0  0  0  0  0  0  0  0  0  0
  -28.7647  -34.1033   15.5562 C   0  0  0  0  0  0  0  0  0  0  0  0
  -29.3436  -31.8163   17.0330 C   0  0  0  0  0  0  0  0  0  0  0  0
  -27.6029  -26.5080   19.5425 C   0  0  0  0  0  0  0  0  0  0  0  0
  -25.6378  -15.0771   22.7792 C   0  0  0  0  0  0  0  0  0  0  0  0
  -25.2245  -14.5538   20.4571 C   0  0  0  0  0  0  0  0  0  0  0  0
  -28.2156  -25.6611   20.4651 C   0  0  0  0  0  0  0  0  0  0  0  0
  -26.3164  -11.5021   21.4141 C   0  0  0  0  0  0  0  0  0  0  0  0
  -26.6938  -10.3689   20.6937 C   0  0  0  0  0  0  0  0  0  0  0  0
  -26.9640  -26.7037   22.2443 C   0  0  0  0  0  0  0  0  0  0  0  0
  -24.3914  -10.0068   20.0574 C   0  0  0  0  0  0  0  0  0  0  0  0
  -31.8977  -21.1984   23.3642 C   0  0  0  0  0  0  0  0  0  0  0  0
  -26.2724  -16.6467   21.0557 C   0  0  0  0  0  0  0  0  0  0  0  0
  -28.2021  -18.1672   20.3687 C   0  0  0  0  0  0  0  0  0  0  0  0
  -28.1664  -33.9267   16.8138 C   0  0  0  0  0  0  0  0  0  0  0  0
  -26.6727  -27.4681   19.9660 C   0  0  0  0  0  0  0  0  0  0  0  0
  -28.4661  -32.7753   17.5668 C   0  0  0  0  0  0  0  0  0  0  0  0
  -26.3390  -27.5599   21.3249 C   0  0  0  0  0  0  0  0  0  0  0  0
  -32.1181  -22.4416   22.8236 C   0  0  0  0  0  0  0  0  0  0  0  0
  -25.1507  -14.2050   21.8056 C   0  0  0  0  0  0  0  0  0  0  0  0
  -27.8983  -25.7608   21.8166 C   0  0  0  0  0  0  0  0  0  0  0  0
  -24.9765  -11.8877   21.4562 C   0  0  0  0  0  0  0  0  0  0  0  0
  -25.7313   -9.6212   20.0153 C   0  0  0  0  0  0  0  0  0  0  0  0
  -24.0140  -11.1400   20.7778 C   0  0  0  0  0  0  0  0  0  0  0  0
  -26.8511  -17.9080   20.6678 C   0  0  0  0  0  0  0  0  0  0  0  0
  -32.4715  -22.1858   21.4851 C   0  0  0  0  0  0  0  0  0  0  0  0
  -28.2348  -19.5053   20.0605 C   0  0  0  0  0  0  0  0  0  0  0  0
  -29.3268  -17.2781   20.3694 C   0  0  0  0  0  0  0  0  0  0  0  0
  -26.5273  -30.6422   19.8784 C   0  0  0  0  0  0  0  0  0  0  0  0
  -23.5381  -30.1485   21.0374 C   0  0  0  0  0  0  0  0  0  0  0  0
  -21.3862  -28.1086   22.7270 C   0  0  0  0  0  0  0  0  0  0  0  0
  -26.0958  -23.9532   17.4554 C   0  0  0  0  0  0  0  0  0  0  0  0
  -27.2697  -35.0142   17.3503 C   0  0  0  0  0  0  0  0  0  0  0  0
  -26.0007  -28.3561   18.9550 C   0  0  0  0  0  0  0  0  0  0  0  0
  -25.3317  -28.5601   21.8283 C   0  0  0  0  0  0  0  0  0  0  0  0
  -26.4048  -34.5660   18.5256 C   0  0  0  0  0  0  0  0  0  0  0  0
  -24.7231  -23.1015   20.6283 C   0  0  0  0  0  0  0  0  0  0  0  0
  -27.2427  -33.7977   19.5426 C   0  0  0  0  0  0  0  0  0  0  0  0
  -25.2606  -21.6940   20.8935 C   0  0  0  0  0  0  0  0  0  0  0  0
  -24.4053  -23.3149   19.1500 C   0  0  0  0  0  0  0  0  0  0  0  0
  -26.0531  -21.6041   18.4929 C   0  0  0  0  0  0  0  0  0  0  0  0
  -27.8375  -32.5283   18.9210 C   0  0  1  0  0  0  0  0  0  0  0  0
  -25.4506  -29.6431   19.5621 C   0  0  1  0  0  0  0  0  0  0  0  0
  -26.4407  -21.3596   19.9613 C   0  0  2  0  0  0  0  0  0  0  0  0
  -19.0186  -27.9929   23.5508 C   0  0  0  0  0  0  0  0  0  0  0  0
  -24.2366  -32.0652   23.3064 C   0  0  0  0  0  0  0  0  0  0  0  0
  -22.2572  -31.1879   24.5636 C   0  0  0  0  0  0  0  0  0  0  0  0
  -21.9315  -32.3443   22.3774 C   0  0  0  0  0  0  0  0  0  0  0  0
  -32.0178  -18.8713   22.4425 C   0  0  0  0  0  0  0  0  0  0  0  0
  -20.8088  -25.7157   21.0839 C   0  0  0  0  0  0  0  0  0  0  0  0
  -32.0039  -23.7745   23.5193 C   0  0  0  0  0  0  0  0  0  0  0  0
  -32.8158  -23.1646   20.4390 C   0  0  0  0  0  0  0  0  0  0  0  0
  -30.5610  -24.2413   23.7230 C   0  0  0  0  0  0  0  0  0  0  0  0
  -31.9505  -23.0824   19.1583 C   0  0  0  0  0  0  0  0  0  0  0  0
  -32.3958  -24.0831   18.0862 C   0  0  0  0  0  0  0  0  0  0  0  0
  -31.5930  -23.9755   16.7858 C   0  0  0  0  0  0  0  0  0  0  0  0
  -30.1066  -24.2967   16.9615 C   0  0  0  0  0  0  0  0  0  0  0  0
  -29.3484  -24.1460   15.6384 C   0  0  0  0  0  0  0  0  0  0  0  0
  -27.8596  -24.4468   15.7807 C   0  0  0  0  0  0  0  0  0  0  0  0
  -29.8163  -24.4888   22.4162 C   0  0  0  0  0  0  0  0  0  1  0  0
  -22.9327  -30.0230   22.4146 C   0  0  1  0  0  0  0  0  0  0  0  0
  -19.9711  -27.6569   22.4139 C   0  0  2  0  0  0  0  0  0  0  0  0
  -22.8599  -31.3875   23.1566 C   0  0  0  0  0  0  0  0  0  0  0  0
  -26.0814  -18.9941   20.5595 N   0  0  0  0  0  0  0  0  0  0  0  0
  -32.4768  -20.8824   21.1933 N   0  0  0  0  0  0  0  0  0  0  0  0
  -32.1240  -20.3081   22.3560 N   0  0  0  0  0  0  0  0  0  0  0  0
  -26.9515  -19.9489   20.1891 N   0  0  0  0  0  0  0  0  0  0  0  0
  -24.7066  -29.4103   20.8017 N   0  0  0  0  0  0  0  0  0  0  0  0
  -25.5659  -22.9817   18.3206 N   0  0  0  0  0  0  0  0  0  0  0  0
  -29.2359  -20.3339   19.6949 N   0  0  0  0  0  0  0  0  0  0  0  0
  -29.1165  -15.9350   20.7102 N   0  0  0  0  0  0  0  0  0  0  0  0
  -26.8326  -31.4908   18.8315 N   0  0  0  0  0  0  0  0  0  0  0  0
  -21.6400  -29.3712   22.2344 N   0  0  0  0  0  0  0  0  0  0  0  0
  -27.1995  -23.5571   16.7099 N   0  0  0  0  0  0  0  0  0  0  0  0
  -19.9351  -26.1839   22.1905 N   0  3  0  0  0  0  0  0  0  0  0  0
  -30.4868  -17.6667   20.0923 O   0  0  0  0  0  0  0  0  0  0  0  0
  -27.0420  -30.6441   20.9906 O   0  0  0  0  0  0  0  0  0  0  0  0
  -22.9904  -30.8691   20.1994 O   0  0  0  0  0  0  0  0  0  0  0  0
  -22.1851  -27.4126   23.3497 O   0  0  0  0  0  0  0  0  0  0  0  0
  -25.6238  -25.0911   17.3588 O   0  0  0  0  0  0  0  0  0  0  0  0
  -24.6036  -13.0135   22.1711 O   0  0  0  0  0  0  0  0  0  0  0  0
  -28.4954  -24.9358   22.7193 O   0  0  0  0  0  0  0  0  0  1  0  0
  -26.0940   -8.5339   19.3223 F   0  0  0  0  0  0  0  0  0  0  0  0
  -22.7254  -11.5062   20.8136 F   0  0  0  0  0  0  0  0  0  0  0  0
  1  2  1  0  0  0  0
  1  5  2  0  0  0  0
  2  6  2  0  0  0  0
  3  8  2  0  0  0  0
  3 16  1  0  0  0  0
  4  9  1  0  0  0  0
  4 16  2  0  0  0  0
  5 18  1  0  0  0  0
  6 20  1  0  0  0  0
  7 10  2  0  0  0  0
  7 19  1  0  0  0  0
  8 23  1  0  0  0  0
  9 23  2  0  0  0  0
 10 24  1  0  0  0  0
 11 12  2  0  0  0  0
 11 25  1  0  0  0  0
 12 26  1  0  0  0  0
 13 21  1  0  0  0  0
 13 24  2  0  0  0  0
 14 26  2  0  0  0  0
 14 27  1  0  0  0  0
 15 22  2  0  0  0  0
 15 69  1  0  0  0  0
 16 28  1  0  0  0  0
 17 28  1  0  0  0  0
 17 30  2  0  0  0  0
 17 31  1  0  0  0  0
 18 20  2  0  0  0  0
 18 36  1  0  0  0  0
 19 21  2  0  0  0  0
 19 37  1  0  0  0  0
 20 45  1  0  0  0  0
 21 38  1  0  0  0  0
 22 29  1  0  0  0  0
 22 54  1  0  0  0  0
 23 84  1  0  0  0  0
 24 85  1  0  0  0  0
 25 27  2  0  0  0  0
 25 84  1  0  0  0  0
 26 86  1  0  0  0  0
 27 87  1  0  0  0  0
 28 67  2  0  0  0  0
 29 55  1  0  0  0  0
 29 68  2  0  0  0  0
 30 70  1  0  0  0  0
 30 73  1  0  0  0  0
 31 74  1  0  0  0  0
 31 79  2  0  0  0  0
 32 46  1  0  0  0  0
 32 75  1  0  0  0  0
 32 80  2  0  0  0  0
 33 64  1  0  0  0  0
 33 71  1  0  0  0  0
 33 81  2  0  0  0  0
 34 65  1  0  0  0  0
 34 76  1  0  0  0  0
 34 82  2  0  0  0  0
 35 72  1  0  0  0  0
 35 77  1  0  0  0  0
 35 83  2  0  0  0  0
 36 39  1  0  0  0  0
 37 46  1  0  0  0  0
 38 71  1  0  0  0  0
 39 41  1  0  0  0  0
 40 42  1  0  0  0  0
 40 43  1  0  0  0  0
 41 45  1  0  0  0  0
 42 47  1  0  0  0  0
 43 72  1  0  0  0  0
 44 47  1  0  0  0  0
 44 72  1  0  0  0  0
 45 75  1  0  0  0  0
 46 71  1  0  0  0  0
 47 70  1  0  0  0  0
 48 65  1  0  0  0  0
 49 66  1  0  0  0  0
 50 66  1  0  0  0  0
 51 66  1  0  0  0  0
 52 69  1  0  0  0  0
 53 78  1  0  0  0  0
 54 56  1  0  0  0  0
 55 57  1  0  0  0  0
 56 63  1  0  0  0  0
 57 58  1  0  0  0  0
 58 59  1  0  0  0  0
 59 60  1  0  0  0  0
 60 61  1  0  0  0  0
 61 62  1  0  0  0  0
 62 77  1  0  0  0  0
 63 85  1  0  0  0  0
 64 66  1  0  0  0  0
 64 76  1  0  0  0  0
 65 78  1  0  0  0  0
 67 70  1  0  0  0  0
 68 69  1  0  0  0  0
M  CHG  1  78   1
M  ISO  4  35 100  63 101  77 100  85 101
M  END
> <Batch ID>
0043

> <Smiles>
CNC(C)C(=O)NC(C(=O)N1Cc2cc([101O:1][101CH2:1]CCc3cn(C)nc3CCCCCCC[100NH:0][100C:0](=O)N3CCCC(n4nc(-c5ccc(Oc6ccc(F)cc6F)cc5)c(C(N)=O)c4N)C3)ccc2CC1C(=O)NC1CCCc2ccccc21)C(C)(C)C

> <Shape>
0.207

> <Color>
0.069

> <Negative vol penalty>
0.000

$$$$

  -OEChem-04052317143D

 86 94  0     1  0  0  0  0  0999 V2000
  -26.3938  -27.0867   29.0320 C   0  0  0  0  0  0  0  0  0  0  0  0
  -26.6954  -26.7672   27.7119 C   0  0  0  0  0  0  0  0  0  0  0  0
  -26.9670  -11.7830   20.5276 C   0  0  0  0  0  0  0  0  0  0  0  0
  -25.9336  -13.8520   19.8287 C   0  0  0  0  0  0  0  0  0  0  0  0
  -25.1591  -27.6529   29.3463 C   0  0  0  0  0  0  0  0  0  0  0  0
  -25.7619  -27.0128   26.7056 C   0  0  0  0  0  0  0  0  0  0  0  0
  -27.8384  -29.1428   22.6073 C   0  0  0  0  0  0  0  0  0  0  0  0
  -25.7529  -11.1183   20.3553 C   0  0  0  0  0  0  0  0  0  0  0  0
  -24.7195  -13.1873   19.6563 C   0  0  0  0  0  0  0  0  0  0  0  0
  -28.5408  -28.3058   21.7414 C   0  0  0  0  0  0  0  0  0  0  0  0
  -22.8480  -10.7600   22.0458 C   0  0  0  0  0  0  0  0  0  0  0  0
  -22.4449   -9.8780   23.0483 C   0  0  0  0  0  0  0  0  0  0  0  0
  -26.6269  -28.2264   20.2752 C   0  0  0  0  0  0  0  0  0  0  0  0
  -22.4323   -8.0666   21.4496 C   0  0  0  0  0  0  0  0  0  0  0  0
  -26.8684  -24.0899   21.4184 C   0  0  0  0  0  0  0  0  0  0  0  0
  -27.0574  -13.1498   20.2644 C   0  0  0  0  0  0  0  0  0  0  0  0
  -29.5282  -13.5689   19.7881 C   0  0  0  0  0  0  0  0  0  0  0  0
  -24.2138  -27.9145   28.3421 C   0  0  0  0  0  0  0  0  0  0  0  0
  -26.5189  -29.5197   22.3186 C   0  0  0  0  0  0  0  0  0  0  0  0
  -24.5128  -27.5818   27.0070 C   0  0  0  0  0  0  0  0  0  0  0  0
  -25.9108  -29.0703   21.1377 C   0  0  0  0  0  0  0  0  0  0  0  0
  -27.8930  -23.5938   20.6499 C   0  0  0  0  0  0  0  0  0  0  0  0
  -24.6291  -11.8205   19.9196 C   0  0  0  0  0  0  0  0  0  0  0  0
  -27.9342  -27.8451   20.5766 C   0  0  0  0  0  0  0  0  0  0  0  0
  -23.0432  -10.2954   20.7451 C   0  0  0  0  0  0  0  0  0  0  0  0
  -22.2371   -8.5313   22.7503 C   0  0  0  0  0  0  0  0  0  0  0  0
  -22.8354   -8.9487   20.4471 C   0  0  0  0  0  0  0  0  0  0  0  0
  -28.3112  -13.8371   20.4427 C   0  0  0  0  0  0  0  0  0  0  0  0
  -28.3582  -22.4735   21.3643 C   0  0  0  0  0  0  0  0  0  0  0  0
  -30.4058  -14.4913   20.3034 C   0  0  0  0  0  0  0  0  0  0  0  0
  -29.8378  -12.5750   18.8022 C   0  0  0  0  0  0  0  0  0  0  0  0
  -23.7056  -29.1044   23.7385 C   0  0  0  0  0  0  0  0  0  0  0  0
  -22.6644  -31.0775   21.3838 C   0  0  0  0  0  0  0  0  0  0  0  0
  -23.1399  -32.3600   18.2571 C   0  0  0  0  0  0  0  0  0  0  0  0
  -29.8136  -19.8300   22.7167 C   0  0  0  0  0  0  0  0  0  0  0  0
  -22.8742  -28.4841   28.7367 C   0  0  0  0  0  0  0  0  0  0  0  0
  -25.7840  -30.4448   23.2495 C   0  0  0  0  0  0  0  0  0  0  0  0
  -24.5034  -29.4623   20.7717 C   0  0  0  0  0  0  0  0  0  0  0  0
  -22.0865  -29.0582   27.5619 C   0  0  0  0  0  0  0  0  0  0  0  0
  -31.2662  -17.0688   24.2307 C   0  0  0  0  0  0  0  0  0  0  0  0
  -22.1051  -28.0905   26.3829 C   0  0  0  0  0  0  0  0  0  0  0  0
  -30.7956  -15.8918   23.3774 C   0  0  0  0  0  0  0  0  0  0  0  0
  -30.1421  -18.0777   24.4338 C   0  0  0  0  0  0  0  0  0  0  0  0
  -29.0889  -17.4346   22.2894 C   0  0  0  0  0  0  0  0  0  0  0  0
  -23.5361  -27.8560   25.8841 C   0  0  1  0  0  0  0  0  0  0  0  0
  -24.2676  -30.3494   23.1126 C   0  0  1  0  0  0  0  0  0  0  0  0
  -30.1897  -16.3808   22.0502 C   0  0  2  0  0  0  0  0  0  0  0  0
  -28.4266  -16.6484   18.0648 C   0  0  0  0  0  0  0  0  0  0  0  0
  -24.7161  -22.3858   23.4981 C   0  0  0  0  0  0  0  0  0  0  0  0
  -22.1015  -33.9215   16.5895 C   0  0  0  0  0  0  0  0  0  0  0  0
  -20.5776  -28.9584   20.7024 C   0  0  0  0  0  0  0  0  0  0  0  0
  -20.2264  -30.1099   18.5073 C   0  0  0  0  0  0  0  0  0  0  0  0
  -19.7343  -31.3119   20.6370 C   0  0  0  0  0  0  0  0  0  0  0  0
  -25.5053  -34.1385   18.2756 C   0  0  0  0  0  0  0  0  0  0  0  0
  -28.3970  -24.1374   19.3369 C   0  0  0  0  0  0  0  0  0  0  0  0
  -29.4543  -21.5598   20.9973 C   0  0  0  0  0  0  0  0  0  0  0  0
  -27.7895  -17.6100   19.0559 C   0  0  0  0  0  0  0  0  0  0  0  0
  -29.7123  -24.9105   19.4545 C   0  0  0  0  0  0  0  0  0  0  0  0
  -28.8485  -18.4085   19.8193 C   0  0  0  0  0  0  0  0  0  0  0  0
  -25.8529  -23.3883   23.5992 C   0  0  0  0  0  0  0  0  0  0  0  0
  -28.2377  -19.4247   20.7785 C   0  0  0  0  0  0  0  0  0  0  0  0
  -29.5991  -26.1683   20.3082 C   0  0  0  0  0  0  0  0  0  1  0  0
  -22.1385  -30.8846   19.9819 C   0  0  1  0  0  0  0  0  0  0  0  0
  -23.0927  -33.7845   17.7348 C   0  0  2  0  0  0  0  0  0  0  0  0
  -20.6950  -30.3071   19.9647 C   0  0  0  0  0  0  0  0  0  0  0  0
  -28.4035  -14.8504   21.3080 N   0  0  0  0  0  0  0  0  0  0  0  0
  -27.6845  -22.2697   22.4995 N   0  0  0  0  0  0  0  0  0  0  0  0
  -26.7856  -23.2688   22.5043 N   0  0  0  0  0  0  0  0  0  0  0  0
  -29.6890  -15.2270   21.2007 N   0  0  0  0  0  0  0  0  0  0  0  0
  -23.8240  -30.3634   21.7172 N   0  0  0  0  0  0  0  0  0  0  0  0
  -29.5865  -18.5164   23.1532 N   0  0  0  0  0  0  0  0  0  0  0  0
  -31.7130  -14.7367   20.0720 N   0  0  0  0  0  0  0  0  0  0  0  0
  -29.6756  -12.9027   17.4492 N   0  0  0  0  0  0  0  0  0  0  0  0
  -23.9833  -28.9775   25.0862 N   0  0  0  0  0  0  0  0  0  0  0  0
  -22.2740  -32.1746   19.3140 N   0  0  0  0  0  0  0  0  0  0  0  0
  -29.2521  -20.2034   21.4864 N   0  0  0  0  0  0  0  0  0  0  0  0
  -24.4371  -34.2015   17.2451 N   0  3  0  0  0  0  0  0  0  0  0  0
  -30.2305  -11.4247   19.1125 O   0  0  0  0  0  0  0  0  0  0  0  0
  -23.0660  -28.3178   23.0501 O   0  0  0  0  0  0  0  0  0  0  0  0
  -22.0723  -31.8394   22.1523 O   0  0  0  0  0  0  0  0  0  0  0  0
  -23.8690  -31.4969   17.7733 O   0  0  0  0  0  0  0  0  0  0  0  0
  -30.4753  -20.6290   23.3920 O   0  0  0  0  0  0  0  0  0  0  0  0
  -23.4442  -11.1722   19.7511 O   0  0  0  0  0  0  0  0  0  0  0  0
  -28.6173  -27.0275   19.7301 O   0  0  0  0  0  0  0  0  0  1  0  0
  -21.8515   -7.6841   23.7134 F   0  0  0  0  0  0  0  0  0  0  0  0
  -23.0225   -8.4963   19.1996 F   0  0  0  0  0  0  0  0  0  0  0  0
  1  2  1  0  0  0  0
  1  5  2  0  0  0  0
  2  6  2  0  0  0  0
  3  8  2  0  0  0  0
  3 16  1  0  0  0  0
  4  9  1  0  0  0  0
  4 16  2  0  0  0  0
  5 18  1  0  0  0  0
  6 20  1  0  0  0  0
  7 10  2  0  0  0  0
  7 19  1  0  0  0  0
  8 23  1  0  0  0  0
  9 23  2  0  0  0  0
 10 24  1  0  0  0  0
 11 12  2  0  0  0  0
 11 25  1  0  0  0  0
 12 26  1  0  0  0  0
 13 21  1  0  0  0  0
 13 24  2  0  0  0  0
 14 26  2  0  0  0  0
 14 27  1  0  0  0  0
 15 22  2  0  0  0  0
 15 68  1  0  0  0  0
 16 28  1  0  0  0  0
 17 28  1  0  0  0  0
 17 30  2  0  0  0  0
 17 31  1  0  0  0  0
 18 20  2  0  0  0  0
 18 36  1  0  0  0  0
 19 21  2  0  0  0  0
 19 37  1  0  0  0  0
 20 45  1  0  0  0  0
 21 38  1  0  0  0  0
 22 29  1  0  0  0  0
 22 55  1  0  0  0  0
 23 83  1  0  0  0  0
 24 84  1  0  0  0  0
 25 27  2  0  0  0  0
 25 83  1  0  0  0  0
 26 85  1  0  0  0  0
 27 86  1  0  0  0  0
 28 66  2  0  0  0  0
 29 56  1  0  0  0  0
 29 67  2  0  0  0  0
 30 69  1  0  0  0  0
 30 72  1  0  0  0  0
 31 73  1  0  0  0  0
 31 78  2  0  0  0  0
 32 46  1  0  0  0  0
 32 74  1  0  0  0  0
 32 79  2  0  0  0  0
 33 63  1  0  0  0  0
 33 70  1  0  0  0  0
 33 80  2  0  0  0  0
 34 64  1  0  0  0  0
 34 75  1  0  0  0  0
 34 81  2  0  0  0  0
 35 71  1  0  0  0  0
 35 76  1  0  0  0  0
 35 82  2  0  0  0  0
 36 39  1  0  0  0  0
 37 46  1  0  0  0  0
 38 70  1  0  0  0  0
 39 41  1  0  0  0  0
 40 42  1  0  0  0  0
 40 43  1  0  0  0  0
 41 45  1  0  0  0  0
 42 47  1  0  0  0  0
 43 71  1  0  0  0  0
 44 47  1  0  0  0  0
 44 71  1  0  0  0  0
 45 74  1  0  0  0  0
 46 70  1  0  0  0  0
 47 69  1  0  0  0  0
 48 57  1  0  0  0  0
 49 60  1  0  0  0  0
 50 64  1  0  0  0  0
 51 65  1  0  0  0  0
 52 65  1  0  0  0  0
 53 65  1  0  0  0  0
 54 77  1  0  0  0  0
 55 58  1  0  0  0  0
 56 76  1  0  0  0  0
 57 59  1  0  0  0  0
 58 62  1  0  0  0  0
 59 61  1  0  0  0  0
 60 68  1  0  0  0  0
 61 76  1  0  0  0  0
 62 84  1  0  0  0  0
 63 65  1  0  0  0  0
 63 75  1  0  0  0  0
 64 77  1  0  0  0  0
 66 69  1  0  0  0  0
 67 68  1  0  0  0  0
M  CHG  1  77   1
M  ISO  4  35 100  62 101  76 100  84 101
M  END
> <Batch ID>
0043

> <Smiles>
CCCC[100N:0](Cc1nn(CC)cc1CC[101CH2:1][101O:1]c1ccc2c(c1)CN(C(=O)C(NC(=O)C(C)NC)C(C)(C)C)C(C(=O)NC1CCCc3ccccc31)C2)[100C:0](=O)N1CCCC(n2nc(-c3ccc(Oc4ccc(F)cc4F)cc3)c(C(N)=O)c2N)C1

> <Shape>
0.267

> <Color>
0.074

> <Negative vol penalty>
0.000

$$$$

  -OEChem-04052317143D

 81 89  0     1  0  0  0  0  0999 V2000
  -22.1546  -11.6704   19.1429 C   0  0  0  0  0  0  0  0  0  0  0  0
  -21.8648  -12.9536   19.5954 C   0  0  0  0  0  0  0  0  0  0  0  0
  -25.2479  -26.2151   20.0748 C   0  0  0  0  0  0  0  0  0  0  0  0
  -25.5667  -28.1857   21.4358 C   0  0  0  0  0  0  0  0  0  0  0  0
  -23.4252  -11.1323   19.3429 C   0  0  0  0  0  0  0  0  0  0  0  0
  -22.8451  -13.6991   20.2493 C   0  0  0  0  0  0  0  0  0  0  0  0
  -23.0476  -18.4913   18.6250 C   0  0  0  0  0  0  0  0  0  0  0  0
  -26.3904  -26.5363   19.3420 C   0  0  0  0  0  0  0  0  0  0  0  0
  -26.7093  -28.5069   20.7029 C   0  0  0  0  0  0  0  0  0  0  0  0
  -22.0734  -19.3671   19.1023 C   0  0  0  0  0  0  0  0  0  0  0  0
  -29.9409  -27.5268   20.5737 C   0  0  0  0  0  0  0  0  0  0  0  0
  -31.0740  -27.9238   21.2837 C   0  0  0  0  0  0  0  0  0  0  0  0
  -23.6495  -20.2346   20.7095 C   0  0  0  0  0  0  0  0  0  0  0  0
  -16.0251  -25.0127   21.6274 C   0  0  0  0  0  0  0  0  0  0  0  0
  -31.0484  -30.0496   20.1359 C   0  0  0  0  0  0  0  0  0  0  0  0
  -24.8360  -27.0398   21.1217 C   0  0  0  0  0  0  0  0  0  0  0  0
  -23.4270  -25.5399   22.6292 C   0  0  0  0  0  0  0  0  0  0  0  0
  -24.4245  -11.8753   19.9910 C   0  0  0  0  0  0  0  0  0  0  0  0
  -24.3289  -18.4730   19.1945 C   0  0  0  0  0  0  0  0  0  0  0  0
  -24.1299  -13.1700   20.4594 C   0  0  0  0  0  0  0  0  0  0  0  0
  -24.6388  -19.3594   20.2358 C   0  0  0  0  0  0  0  0  0  0  0  0
  -16.0570  -23.6301   21.6763 C   0  0  0  0  0  0  0  0  0  0  0  0
  -27.1211  -27.6822   19.6560 C   0  0  0  0  0  0  0  0  0  0  0  0
  -22.3734  -20.2369   20.1466 C   0  0  0  0  0  0  0  0  0  0  0  0
  -29.3615  -28.3911   19.6448 C   0  0  0  0  0  0  0  0  0  0  0  0
  -31.6277  -29.1852   21.0648 C   0  0  0  0  0  0  0  0  0  0  0  0
  -29.9153  -29.6525   19.4259 C   0  0  0  0  0  0  0  0  0  0  0  0
  -23.6556  -26.7088   21.8787 C   0  0  0  0  0  0  0  0  0  0  0  0
  -16.8157  -25.7092   22.5192 C   0  0  0  0  0  0  0  0  0  0  0  0
  -16.8775  -23.0356   22.6137 C   0  0  0  0  0  0  0  0  0  0  0  0
  -22.1680  -25.7081   23.1518 C   0  0  0  0  0  0  0  0  0  0  0  0
  -24.2767  -24.4036   22.8355 C   0  0  0  0  0  0  0  0  0  0  0  0
  -16.8333  -27.1777   22.5263 C   0  0  0  0  0  0  0  0  0  0  0  0
  -26.0678  -16.3038   20.7355 C   0  0  0  0  0  0  0  0  0  0  0  0
  -28.3709  -18.5797   20.5393 C   0  0  0  0  0  0  0  0  0  0  0  0
  -29.1583  -21.8837   20.2068 C   0  0  0  0  0  0  0  0  0  0  0  0
  -25.7689  -11.2335   20.2262 C   0  0  0  0  0  0  0  0  0  0  0  0
  -25.3765  -17.5409   18.6504 C   0  0  0  0  0  0  0  0  0  0  0  0
  -26.0055  -19.3933   20.8680 C   0  0  0  0  0  0  0  0  0  0  0  0
  -26.8638  -12.2309   20.5956 C   0  0  0  0  0  0  0  0  0  0  0  0
  -19.1619  -29.7727   23.2911 C   0  0  0  0  0  0  0  0  0  0  0  0
  -26.3652  -13.2000   21.6628 C   0  0  0  0  0  0  0  0  0  0  0  0
  -20.5214  -29.1196   23.0353 C   0  0  0  0  0  0  0  0  0  0  0  0
  -18.1069  -29.2842   22.3017 C   0  0  0  0  0  0  0  0  0  0  0  0
  -19.3229  -27.1576   21.9796 C   0  0  0  0  0  0  0  0  0  0  0  0
  -25.1742  -14.0192   21.1511 C   0  0  1  0  0  0  0  0  0  0  0  0
  -26.4932  -17.2494   19.6481 C   0  0  1  0  0  0  0  0  0  0  0  0
  -20.4026  -27.5847   22.9875 C   0  0  1  0  0  0  0  0  0  0  0  0
  -15.2227  -22.8313   20.7358 C   0  0  0  0  0  0  0  0  0  0  0  0
  -31.1240  -23.4411   20.1192 C   0  0  0  0  0  0  0  0  0  0  0  0
  -28.7029  -18.3267   23.5618 C   0  0  0  0  0  0  0  0  0  0  0  0
  -29.9398  -20.5033   23.5381 C   0  0  0  0  0  0  0  0  0  0  0  0
  -30.8462  -18.5421   22.2913 C   0  0  0  0  0  0  0  0  0  0  0  0
  -28.4691  -22.7861   17.4737 C   0  0  0  0  0  0  0  0  0  0  0  0
  -16.9645  -21.5343   22.7257 C   0  0  0  0  0  0  0  0  0  0  0  0
  -17.8042  -20.8789   21.6236 C   0  0  0  0  0  0  0  0  0  0  0  0
  -19.2721  -21.3070   21.6547 C   0  0  0  0  0  0  0  0  0  0  0  0
  -20.0650  -20.6677   20.5229 C   0  0  0  0  0  0  0  0  0  1  0  0
  -28.8043  -19.7394   21.4031 C   0  0  1  0  0  0  0  0  0  0  0  0
  -30.1530  -22.5967   19.3087 C   0  0  2  0  0  0  0  0  0  0  0  0
  -29.5469  -19.2761   22.6882 C   0  0  0  0  0  0  0  0  0  0  0  0
  -22.6245  -27.5569   21.9184 N   0  0  0  0  0  0  0  0  0  0  0  0
  -17.6093  -25.1010   23.4261 N   0  0  0  0  0  0  0  0  0  0  0  0
  -17.6407  -23.7422   23.4741 N   0  0  0  0  0  0  0  0  0  0  0  0
  -21.7358  -26.9202   22.7000 N   0  0  0  0  0  0  0  0  0  0  0  0
  -18.0489  -27.8230   22.2868 N   0  0  0  0  0  0  0  0  0  0  0  0
  -26.9938  -18.4585   20.3053 N   0  0  0  0  0  0  0  0  0  0  0  0
  -21.3996  -24.9360   23.9492 N   0  0  0  0  0  0  0  0  0  0  0  0
  -25.1578  -24.4173   23.9254 N   0  0  0  0  0  0  0  0  0  0  0  0
  -25.6280  -15.0776   20.2746 N   0  0  0  0  0  0  0  0  0  0  0  0
  -29.5897  -20.6179   20.5430 N   0  0  0  0  0  0  0  0  0  0  0  0
  -29.4398  -23.4889   18.3515 N   0  3  0  0  0  0  0  0  0  0  0  0
  -24.2670  -23.4128   22.0663 O   0  0  0  0  0  0  0  0  0  0  0  0
  -15.7605  -27.7330   22.7584 O   0  0  0  0  0  0  0  0  0  0  0  0
  -26.1350  -16.6598   21.9062 O   0  0  0  0  0  0  0  0  0  0  0  0
  -29.2234  -17.8139   20.0829 O   0  0  0  0  0  0  0  0  0  0  0  0
  -28.1057  -22.3995   20.5763 O   0  0  0  0  0  0  0  0  0  0  0  0
  -28.2362  -27.9958   18.9413 O   0  0  0  0  0  0  0  0  0  0  0  0
  -21.4243  -21.0923   20.6149 O   0  0  0  0  0  0  0  0  0  1  0  0
  -32.7149  -29.5669   21.7478 F   0  0  0  0  0  0  0  0  0  0  0  0
  -29.3624  -30.4877   18.5356 F   0  0  0  0  0  0  0  0  0  0  0  0
  1  2  1  0  0  0  0
  1  5  2  0  0  0  0
  2  6  2  0  0  0  0
  3  8  2  0  0  0  0
  3 16  1  0  0  0  0
  4  9  1  0  0  0  0
  4 16  2  0  0  0  0
  5 18  1  0  0  0  0
  6 20  1  0  0  0  0
  7 10  2  0  0  0  0
  7 19  1  0  0  0  0
  8 23  1  0  0  0  0
  9 23  2  0  0  0  0
 10 24  1  0  0  0  0
 11 12  2  0  0  0  0
 11 25  1  0  0  0  0
 12 26  1  0  0  0  0
 13 21  1  0  0  0  0
 13 24  2  0  0  0  0
 14 22  1  0  0  0  0
 14 29  2  0  0  0  0
 15 26  2  0  0  0  0
 15 27  1  0  0  0  0
 16 28  1  0  0  0  0
 17 28  1  0  0  0  0
 17 31  2  0  0  0  0
 17 32  1  0  0  0  0
 18 20  2  0  0  0  0
 18 37  1  0  0  0  0
 19 21  2  0  0  0  0
 19 38  1  0  0  0  0
 20 46  1  0  0  0  0
 21 39  1  0  0  0  0
 22 30  2  0  0  0  0
 22 49  1  0  0  0  0
 23 78  1  0  0  0  0
 24 79  1  0  0  0  0
 25 27  2  0  0  0  0
 25 78  1  0  0  0  0
 26 80  1  0  0  0  0
 27 81  1  0  0  0  0
 28 62  2  0  0  0  0
 29 33  1  0  0  0  0
 29 63  1  0  0  0  0
 30 55  1  0  0  0  0
 30 64  1  0  0  0  0
 31 65  1  0  0  0  0
 31 68  1  0  0  0  0
 32 69  1  0  0  0  0
 32 73  2  0  0  0  0
 33 66  1  0  0  0  0
 33 74  2  0  0  0  0
 34 47  1  0  0  0  0
 34 70  1  0  0  0  0
 34 75  2  0  0  0  0
 35 59  1  0  0  0  0
 35 67  1  0  0  0  0
 35 76  2  0  0  0  0
 36 60  1  0  0  0  0
 36 71  1  0  0  0  0
 36 77  2  0  0  0  0
 37 40  1  0  0  0  0
 38 47  1  0  0  0  0
 39 67  1  0  0  0  0
 40 42  1  0  0  0  0
 41 43  1  0  0  0  0
 41 44  1  0  0  0  0
 42 46  1  0  0  0  0
 43 48  1  0  0  0  0
 44 66  1  0  0  0  0
 45 48  1  0  0  0  0
 45 66  1  0  0  0  0
 46 70  1  0  0  0  0
 47 67  1  0  0  0  0
 48 65  1  0  0  0  0
 50 60  1  0  0  0  0
 51 61  1  0  0  0  0
 52 61  1  0  0  0  0
 53 61  1  0  0  0  0
 54 72  1  0  0  0  0
 55 56  1  0  0  0  0
 56 57  1  0  0  0  0
 57 58  1  0  0  0  0
 58 79  1  0  0  0  0
 59 61  1  0  0  0  0
 59 71  1  0  0  0  0
 60 72  1  0  0  0  0
 62 65  1  0  0  0  0
 63 64  2  0  0  0  0
M  CHG  1  72   1
M  ISO  4  29 100  33 100  58 101  79 101
M  END
> <Batch ID>
0043

> <Smiles>
CNC(C)C(=O)NC(C(=O)N1Cc2cc([101O:1][101CH2:1]CCCc3nn[100c:0]([100C:0](=O)N4CCCC(n5nc(-c6ccc(Oc7ccc(F)cc7F)cc6)c(C(N)=O)c5N)C4)cc3C)ccc2CC1C(=O)NC1CCCc2ccccc21)C(C)(C)C

> <Shape>
0.211

> <Color>
0.062

> <Negative vol penalty>
0.000

$$$$

  -OEChem-04052317143D

 85 93  0     1  0  0  0  0  0999 V2000
  -27.3148  -35.2457   22.9102 C   0  0  0  0  0  0  0  0  0  0  0  0
  -27.5560  -33.8764   22.9563 C   0  0  0  0  0  0  0  0  0  0  0  0
  -23.8172   -9.9696   22.1998 C   0  0  0  0  0  0  0  0  0  0  0  0
  -23.1238   -9.9255   19.8858 C   0  0  0  0  0  0  0  0  0  0  0  0
  -26.0086  -35.7256   22.9969 C   0  0  0  0  0  0  0  0  0  0  0  0
  -26.4911  -32.9861   23.0902 C   0  0  0  0  0  0  0  0  0  0  0  0
  -26.8561  -29.0336   19.9455 C   0  0  0  0  0  0  0  0  0  0  0  0
  -23.1298   -8.7776   22.4285 C   0  0  0  0  0  0  0  0  0  0  0  0
  -22.4364   -8.7335   20.1145 C   0  0  0  0  0  0  0  0  0  0  0  0
  -27.7414  -28.0168   20.3009 C   0  0  0  0  0  0  0  0  0  0  0  0
  -23.6156   -5.4770   21.8780 C   0  0  0  0  0  0  0  0  0  0  0  0
  -24.2650   -4.4850   22.6126 C   0  0  0  0  0  0  0  0  0  0  0  0
  -25.8946  -26.7092   21.1368 C   0  0  0  0  0  0  0  0  0  0  0  0
  -22.5088   -4.5625   24.2699 C   0  0  0  0  0  0  0  0  0  0  0  0
  -28.0429  -21.9934   18.2406 C   0  0  0  0  0  0  0  0  0  0  0  0
  -23.8141  -10.5436   20.9284 C   0  0  0  0  0  0  0  0  0  0  0  0
  -25.8640  -11.9198   20.2870 C   0  0  0  0  0  0  0  0  0  0  0  0
  -24.9264  -34.8404   23.1222 C   0  0  0  0  0  0  0  0  0  0  0  0
  -25.4824  -28.9001   20.1935 C   0  0  0  0  0  0  0  0  0  0  0  0
  -25.1694  -33.4547   23.1800 C   0  0  0  0  0  0  0  0  0  0  0  0
  -24.9937  -27.7246   20.7813 C   0  0  0  0  0  0  0  0  0  0  0  0
  -26.9349  -21.6026   18.9645 C   0  0  0  0  0  0  0  0  0  0  0  0
  -22.4395   -8.1595   21.3859 C   0  0  0  0  0  0  0  0  0  0  0  0
  -27.2611  -26.8557   20.8993 C   0  0  0  0  0  0  0  0  0  0  0  0
  -22.4128   -6.0119   22.3394 C   0  0  0  0  0  0  0  0  0  0  0  0
  -23.7116   -4.0276   23.8085 C   0  0  0  0  0  0  0  0  0  0  0  0
  -21.8594   -5.5546   23.5354 C   0  0  0  0  0  0  0  0  0  0  0  0
  -24.5235  -11.7752   20.6917 C   0  0  0  0  0  0  0  0  0  0  0  0
  -26.8247  -22.1469   20.2277 C   0  0  0  0  0  0  0  0  0  0  0  0
  -26.0530  -13.2777   20.2036 C   0  0  0  0  0  0  0  0  0  0  0  0
  -28.7573  -23.3109   19.9498 C   0  0  0  0  0  0  0  0  0  0  0  0
  -26.8503  -10.9164   20.0110 C   0  0  0  0  0  0  0  0  0  0  0  0
  -23.3574  -30.4766   21.9551 C   0  0  0  0  0  0  0  0  0  0  0  0
  -21.2538  -28.4770   20.5063 C   0  0  0  0  0  0  0  0  0  0  0  0
  -20.7032  -25.5070   18.9180 C   0  0  0  0  0  0  0  0  0  0  0  0
  -23.9607  -18.1142   18.2453 C   0  0  0  0  0  0  0  0  0  0  0  0
  -23.5361  -35.4084   23.2599 C   0  0  0  0  0  0  0  0  0  0  0  0
  -24.5374  -29.9948   19.7798 C   0  0  0  0  0  0  0  0  0  0  0  0
  -23.5255  -27.5236   21.0504 C   0  0  0  0  0  0  0  0  0  0  0  0
  -22.4321  -34.3809   23.0235 C   0  0  0  0  0  0  0  0  0  0  0  0
  -23.1708  -17.1176   21.7631 C   0  0  0  0  0  0  0  0  0  0  0  0
  -22.7301  -33.0926   23.7839 C   0  0  0  0  0  0  0  0  0  0  0  0
  -23.5069  -15.6275   21.7264 C   0  0  0  0  0  0  0  0  0  0  0  0
  -22.7277  -17.6172   20.3932 C   0  0  0  0  0  0  0  0  0  0  0  0
  -24.0583  -15.8661   19.2618 C   0  0  0  0  0  0  0  0  0  0  0  0
  -24.0385  -32.4562   23.2997 C   0  0  1  0  0  0  0  0  0  0  0  0
  -23.2195  -29.9683   20.5478 C   0  0  1  0  0  0  0  0  0  0  0  0
  -24.5309  -15.3216   20.6201 C   0  0  2  0  0  0  0  0  0  0  0  0
  -26.0429  -20.7916   22.1870 C   0  0  0  0  0  0  0  0  0  0  0  0
  -18.8736  -24.1355   17.8843 C   0  0  0  0  0  0  0  0  0  0  0  0
  -20.2647  -27.7048   23.2876 C   0  0  0  0  0  0  0  0  0  0  0  0
  -19.1593  -25.7055   22.2632 C   0  0  0  0  0  0  0  0  0  0  0  0
  -18.4587  -28.0011   21.5831 C   0  0  0  0  0  0  0  0  0  0  0  0
  -22.2377  -19.7312   19.1487 C   0  0  0  0  0  0  0  0  0  0  0  0
  -22.0066  -25.5590   16.2614 C   0  0  0  0  0  0  0  0  0  0  0  0
  -25.9409  -20.6560   18.3977 C   0  0  0  0  0  0  0  0  0  0  0  0
  -25.6662  -21.7961   21.1020 C   0  0  0  0  0  0  0  0  0  0  0  0
  -29.7812  -24.2717   20.5035 C   0  0  0  0  0  0  0  0  0  0  0  0
  -24.6573  -21.3191   17.8528 C   0  0  0  0  0  0  0  0  0  0  0  0
  -23.6633  -20.3413   17.2299 C   0  0  0  0  0  0  0  0  0  0  0  0
  -29.3027  -25.7188   20.4576 C   0  0  0  0  0  0  0  0  0  1  0  0
  -20.6952  -27.1084   20.8127 C   0  0  1  0  0  0  0  0  0  0  0  0
  -19.9588  -25.1721   17.6381 C   0  0  2  0  0  0  0  0  0  0  0  0
  -19.6724  -27.1342   21.9835 C   0  0  0  0  0  0  0  0  0  0  0  0
  -28.9775  -22.8490   18.7041 N   0  0  0  0  0  0  0  0  0  0  0  0
  -23.9046  -12.9476   20.8543 N   0  0  0  0  0  0  0  0  0  0  0  0
  -27.7208  -23.0072   20.7542 N   0  0  0  0  0  0  0  0  0  0  0  0
  -24.8606  -13.8419   20.5503 N   0  0  0  0  0  0  0  0  0  0  0  0
  -22.6422  -28.6253   20.6336 N   0  0  0  0  0  0  0  0  0  0  0  0
  -23.7090  -17.2858   19.3514 N   0  0  0  0  0  0  0  0  0  0  0  0
  -27.1210  -14.0322   19.8684 N   0  0  0  0  0  0  0  0  0  0  0  0
  -26.4886   -9.5691   20.1459 N   0  0  0  0  0  0  0  0  0  0  0  0
  -23.8321  -31.7714   22.0415 N   0  0  0  0  0  0  0  0  0  0  0  0
  -20.1540  -26.5981   19.5577 N   0  0  0  0  0  0  0  0  0  0  0  0
  -23.2341  -19.3118   18.1658 N   0  0  0  0  0  0  0  0  0  0  0  0
  -20.9008  -24.6329   16.6169 N   0  3  0  0  0  0  0  0  0  0  0  0
  -28.0225  -11.2064   19.6713 O   0  0  0  0  0  0  0  0  0  0  0  0
  -23.0542  -29.7485   22.8929 O   0  0  0  0  0  0  0  0  0  0  0  0
  -20.4874  -29.3793   20.1597 O   0  0  0  0  0  0  0  0  0  0  0  0
  -21.6725  -24.8628   19.3129 O   0  0  0  0  0  0  0  0  0  0  0  0
  -24.7946  -17.8060   17.3842 O   0  0  0  0  0  0  0  0  0  0  0  0
  -21.7689   -6.9963   21.6086 O   0  0  0  0  0  0  0  0  0  0  0  0
  -28.1231  -25.8620   21.2477 O   0  0  0  0  0  0  0  0  0  1  0  0
  -24.3346   -3.0738   24.5130 F   0  0  0  0  0  0  0  0  0  0  0  0
  -20.7035   -6.0638   23.9831 F   0  0  0  0  0  0  0  0  0  0  0  0
  1  2  1  0  0  0  0
  1  5  2  0  0  0  0
  2  6  2  0  0  0  0
  3  8  2  0  0  0  0
  3 16  1  0  0  0  0
  4  9  1  0  0  0  0
  4 16  2  0  0  0  0
  5 18  1  0  0  0  0
  6 20  1  0  0  0  0
  7 10  2  0  0  0  0
  7 19  1  0  0  0  0
  8 23  1  0  0  0  0
  9 23  2  0  0  0  0
 10 24  1  0  0  0  0
 11 12  2  0  0  0  0
 11 25  1  0  0  0  0
 12 26  1  0  0  0  0
 13 21  1  0  0  0  0
 13 24  2  0  0  0  0
 14 26  2  0  0  0  0
 14 27  1  0  0  0  0
 15 22  1  0  0  0  0
 15 65  2  0  0  0  0
 16 28  1  0  0  0  0
 17 28  1  0  0  0  0
 17 30  2  0  0  0  0
 17 32  1  0  0  0  0
 18 20  2  0  0  0  0
 18 37  1  0  0  0  0
 19 21  2  0  0  0  0
 19 38  1  0  0  0  0
 20 46  1  0  0  0  0
 21 39  1  0  0  0  0
 22 29  2  0  0  0  0
 22 56  1  0  0  0  0
 23 82  1  0  0  0  0
 24 83  1  0  0  0  0
 25 27  2  0  0  0  0
 25 82  1  0  0  0  0
 26 84  1  0  0  0  0
 27 85  1  0  0  0  0
 28 66  2  0  0  0  0
 29 57  1  0  0  0  0
 29 67  1  0  0  0  0
 30 68  1  0  0  0  0
 30 71  1  0  0  0  0
 31 58  1  0  0  0  0
 31 65  1  0  0  0  0
 31 67  2  0  0  0  0
 32 72  1  0  0  0  0
 32 77  2  0  0  0  0
 33 47  1  0  0  0  0
 33 73  1  0  0  0  0
 33 78  2  0  0  0  0
 34 62  1  0  0  0  0
 34 69  1  0  0  0  0
 34 79  2  0  0  0  0
 35 63  1  0  0  0  0
 35 74  1  0  0  0  0
 35 80  2  0  0  0  0
 36 70  1  0  0  0  0
 36 75  1  0  0  0  0
 36 81  2  0  0  0  0
 37 40  1  0  0  0  0
 38 47  1  0  0  0  0
 39 69  1  0  0  0  0
 40 42  1  0  0  0  0
 41 43  1  0  0  0  0
 41 44  1  0  0  0  0
 42 46  1  0  0  0  0
 43 48  1  0  0  0  0
 44 70  1  0  0  0  0
 45 48  1  0  0  0  0
 45 70  1  0  0  0  0
 46 73  1  0  0  0  0
 47 69  1  0  0  0  0
 48 68  1  0  0  0  0
 49 57  1  0  0  0  0
 50 63  1  0  0  0  0
 51 64  1  0  0  0  0
 52 64  1  0  0  0  0
 53 64  1  0  0  0  0
 54 75  1  0  0  0  0
 55 76  1  0  0  0  0
 56 59  1  0  0  0  0
 58 61  1  0  0  0  0
 59 60  1  0  0  0  0
 60 75  1  0  0  0  0
 61 83  1  0  0  0  0
 62 64  1  0  0  0  0
 62 74  1  0  0  0  0
 63 76  1  0  0  0  0
 66 68  1  0  0  0  0
M  CHG  1  76   1
M  ISO  4  36 100  61 101  75 100  83 101
M  END
> <Batch ID>
0043

> <Smiles>
CCc1nc(C[101CH2:1][101O:1]c2ccc3c(c2)CN(C(=O)C(NC(=O)C(C)NC)C(C)(C)C)C(C(=O)NC2CCCc4ccccc42)C3)ncc1CCC[100N:0](C)[100C:0](=O)N1CCCC(n2nc(-c3ccc(Oc4ccc(F)cc4F)cc3)c(C(N)=O)c2N)C1

> <Shape>
0.283

> <Color>
0.101

> <Negative vol penalty>
0.000

$$$$

  -OEChem-04052317143D

 83 91  0     1  0  0  0  0  0999 V2000
  -27.5049  -10.4331   20.8979 C   0  0  0  0  0  0  0  0  0  0  0  0
  -28.1858  -11.4912   20.3044 C   0  0  0  0  0  0  0  0  0  0  0  0
  -18.7359  -26.9508   20.6810 C   0  0  0  0  0  0  0  0  0  0  0  0
  -20.1730  -25.0087   20.6773 C   0  0  0  0  0  0  0  0  0  0  0  0
  -26.1342  -10.5322   21.1333 C   0  0  0  0  0  0  0  0  0  0  0  0
  -27.4961  -12.6487   19.9451 C   0  0  0  0  0  0  0  0  0  0  0  0
  -29.6086  -18.3946   20.1129 C   0  0  0  0  0  0  0  0  0  0  0  0
  -17.7692  -26.2369   19.9730 C   0  0  0  0  0  0  0  0  0  0  0  0
  -19.2063  -24.2947   19.9693 C   0  0  0  0  0  0  0  0  0  0  0  0
  -30.1344  -19.2298   19.1282 C   0  0  0  0  0  0  0  0  0  0  0  0
  -16.9686  -21.8499   18.4747 C   0  0  0  0  0  0  0  0  0  0  0  0
  -16.6832  -20.5509   18.8952 C   0  0  0  0  0  0  0  0  0  0  0  0
  -27.9606  -20.2308   18.8251 C   0  0  0  0  0  0  0  0  0  0  0  0
  -16.0166  -21.3975   21.0577 C   0  0  0  0  0  0  0  0  0  0  0  0
  -30.7369  -23.2361   20.2969 C   0  0  0  0  0  0  0  0  0  0  0  0
  -19.9379  -26.3368   21.0331 C   0  0  0  0  0  0  0  0  0  0  0  0
  -21.0699  -27.1693   23.1623 C   0  0  0  0  0  0  0  0  0  0  0  0
  -25.4292  -11.6952   20.7855 C   0  0  0  0  0  0  0  0  0  0  0  0
  -28.2502  -18.4638   20.4540 C   0  0  0  0  0  0  0  0  0  0  0  0
  -26.1145  -12.7629   20.1749 C   0  0  0  0  0  0  0  0  0  0  0  0
  -27.4206  -19.3972   19.8163 C   0  0  0  0  0  0  0  0  0  0  0  0
  -18.0044  -24.9088   19.6172 C   0  0  0  0  0  0  0  0  0  0  0  0
  -29.3098  -20.1461   18.4820 C   0  0  0  0  0  0  0  0  0  0  0  0
  -16.7781  -22.9227   19.3457 C   0  0  0  0  0  0  0  0  0  0  0  0
  -16.2072  -20.3247   20.1867 C   0  0  0  0  0  0  0  0  0  0  0  0
  -16.3021  -22.6964   20.6372 C   0  0  0  0  0  0  0  0  0  0  0  0
  -20.9371  -27.0739   21.7640 C   0  0  0  0  0  0  0  0  0  0  0  0
  -31.1107  -23.9418   19.1376 C   0  0  0  0  0  0  0  0  0  0  0  0
  -30.5328  -24.2117   21.2419 C   0  0  0  0  0  0  0  0  0  0  0  0
  -22.1644  -27.9778   23.3489 C   0  0  0  0  0  0  0  0  0  0  0  0
  -20.2749  -26.5797   24.1996 C   0  0  0  0  0  0  0  0  0  0  0  0
  -25.8011  -16.4411   20.3332 C   0  0  0  0  0  0  0  0  0  0  0  0
  -24.2532  -18.8327   21.8845 C   0  0  0  0  0  0  0  0  0  0  0  0
  -24.0438  -22.1633   22.5991 C   0  0  0  0  0  0  0  0  0  0  0  0
  -26.9426  -29.2183   19.9605 C   0  0  0  0  0  0  0  0  0  0  0  0
  -23.9394  -11.7374   21.0165 C   0  0  0  0  0  0  0  0  0  0  0  0
  -27.7042  -17.5744   21.5372 C   0  0  0  0  0  0  0  0  0  0  0  0
  -25.9598  -19.5252   20.1601 C   0  0  0  0  0  0  0  0  0  0  0  0
  -23.3521  -13.1448   20.9481 C   0  0  0  0  0  0  0  0  0  0  0  0
  -24.5845  -31.5428   21.2693 C   0  0  0  0  0  0  0  0  0  0  0  0
  -23.8824  -13.8857   19.7247 C   0  0  0  0  0  0  0  0  0  0  0  0
  -23.3943  -30.6697   21.6706 C   0  0  0  0  0  0  0  0  0  0  0  0
  -25.2554  -31.0317   19.9962 C   0  0  0  0  0  0  0  0  0  0  0  0
  -24.4643  -28.7392   20.4348 C   0  0  0  0  0  0  0  0  0  0  0  0
  -25.4061  -14.0446   19.7935 C   0  0  1  0  0  0  0  0  0  0  0  0
  -26.1947  -17.3751   21.4424 C   0  0  1  0  0  0  0  0  0  0  0  0
  -23.7894  -29.1825   21.7441 C   0  0  2  0  0  0  0  0  0  0  0  0
  -30.1269  -24.1201   22.6564 C   0  0  0  0  0  0  0  0  0  0  0  0
  -22.6496  -23.8227   23.8639 C   0  0  0  0  0  0  0  0  0  0  0  0
  -22.1164  -18.6904   19.7111 C   0  0  0  0  0  0  0  0  0  0  0  0
  -21.2939  -20.9299   20.4705 C   0  0  0  0  0  0  0  0  0  0  0  0
  -21.2276  -18.9842   22.0302 C   0  0  0  0  0  0  0  0  0  0  0  0
  -26.3233  -22.9429   24.3180 C   0  0  0  0  0  0  0  0  0  0  0  0
  -31.4587  -23.3704   17.7863 C   0  0  0  0  0  0  0  0  0  0  0  0
  -30.2564  -23.2245   16.8511 C   0  0  0  0  0  0  0  0  0  0  0  0
  -29.2790  -27.2678   21.2950 C   0  0  0  0  0  0  0  0  0  0  0  0
  -30.7081  -26.7179   21.1932 C   0  0  0  0  0  0  0  0  0  0  0  0
  -28.5154  -27.2985   19.9728 C   0  0  0  0  0  0  0  0  0  0  0  0
  -29.2093  -22.2420   17.3626 C   0  0  0  0  0  0  0  0  0  1  0  0
  -23.4528  -20.0402   21.4598 C   0  0  1  0  0  0  0  0  0  0  0  0
  -23.8591  -22.9020   23.9123 C   0  0  2  0  0  0  0  0  0  0  0  0
  -22.0497  -19.6577   20.9098 C   0  0  0  0  0  0  0  0  0  0  0  0
  -21.8725  -27.7667   21.1089 N   0  0  0  0  0  0  0  0  0  0  0  0
  -31.1429  -25.2636   19.3265 N   0  0  0  0  0  0  0  0  0  0  0  0
  -30.7865  -25.3963   20.6155 N   0  0  0  0  0  0  0  0  0  0  0  0
  -22.6034  -28.3051   22.0998 N   0  0  0  0  0  0  0  0  0  0  0  0
  -25.4717  -18.6292   21.2215 N   0  0  0  0  0  0  0  0  0  0  0  0
  -25.6064  -29.6160   20.1320 N   0  0  0  0  0  0  0  0  0  0  0  0
  -22.7845  -28.4336   24.4580 N   0  0  0  0  0  0  0  0  0  0  0  0
  -19.1869  -25.7761   23.8325 N   0  0  0  0  0  0  0  0  0  0  0  0
  -25.7623  -15.1108   20.7049 N   0  0  0  0  0  0  0  0  0  0  0  0
  -23.4195  -20.9339   22.6125 N   0  0  0  0  0  0  0  0  0  0  0  0
  -27.1900  -27.8594   20.1126 N   0  0  0  0  0  0  0  0  0  0  0  0
  -25.0638  -23.7243   24.2179 N   0  3  0  0  0  0  0  0  0  0  0  0
  -20.5123  -26.7733   25.4160 O   0  0  0  0  0  0  0  0  0  0  0  0
  -25.5497  -16.8941   19.2226 O   0  0  0  0  0  0  0  0  0  0  0  0
  -23.8168  -18.1012   22.7767 O   0  0  0  0  0  0  0  0  0  0  0  0
  -24.6753  -22.6316   21.6544 O   0  0  0  0  0  0  0  0  0  0  0  0
  -27.8489  -30.0159   19.6971 O   0  0  0  0  0  0  0  0  0  0  0  0
  -17.0612  -24.2118   18.9265 O   0  0  0  0  0  0  0  0  0  0  0  0
  -29.8203  -20.9620   17.5200 O   0  0  0  0  0  0  0  0  0  1  0  0
  -15.9317  -19.0774   20.5899 F   0  0  0  0  0  0  0  0  0  0  0  0
  -16.1159  -23.7231   21.4780 F   0  0  0  0  0  0  0  0  0  0  0  0
  1  2  1  0  0  0  0
  1  5  2  0  0  0  0
  2  6  2  0  0  0  0
  3  8  2  0  0  0  0
  3 16  1  0  0  0  0
  4  9  1  0  0  0  0
  4 16  2  0  0  0  0
  5 18  1  0  0  0  0
  6 20  1  0  0  0  0
  7 10  2  0  0  0  0
  7 19  1  0  0  0  0
  8 22  1  0  0  0  0
  9 22  2  0  0  0  0
 10 23  1  0  0  0  0
 11 12  2  0  0  0  0
 11 24  1  0  0  0  0
 12 25  1  0  0  0  0
 13 21  1  0  0  0  0
 13 23  2  0  0  0  0
 14 25  2  0  0  0  0
 14 26  1  0  0  0  0
 15 28  1  0  0  0  0
 15 29  2  0  0  0  0
 16 27  1  0  0  0  0
 17 27  1  0  0  0  0
 17 30  2  0  0  0  0
 17 31  1  0  0  0  0
 18 20  2  0  0  0  0
 18 36  1  0  0  0  0
 19 21  2  0  0  0  0
 19 37  1  0  0  0  0
 20 45  1  0  0  0  0
 21 38  1  0  0  0  0
 22 80  1  0  0  0  0
 23 81  1  0  0  0  0
 24 26  2  0  0  0  0
 24 80  1  0  0  0  0
 25 82  1  0  0  0  0
 26 83  1  0  0  0  0
 27 63  2  0  0  0  0
 28 54  1  0  0  0  0
 28 64  2  0  0  0  0
 29 48  1  0  0  0  0
 29 65  1  0  0  0  0
 30 66  1  0  0  0  0
 30 69  1  0  0  0  0
 31 70  1  0  0  0  0
 31 75  2  0  0  0  0
 32 46  1  0  0  0  0
 32 71  1  0  0  0  0
 32 76  2  0  0  0  0
 33 60  1  0  0  0  0
 33 67  1  0  0  0  0
 33 77  2  0  0  0  0
 34 61  1  0  0  0  0
 34 72  1  0  0  0  0
 34 78  2  0  0  0  0
 35 68  1  0  0  0  0
 35 73  1  0  0  0  0
 35 79  2  0  0  0  0
 36 39  1  0  0  0  0
 37 46  1  0  0  0  0
 38 67  1  0  0  0  0
 39 41  1  0  0  0  0
 40 42  1  0  0  0  0
 40 43  1  0  0  0  0
 41 45  1  0  0  0  0
 42 47  1  0  0  0  0
 43 68  1  0  0  0  0
 44 47  1  0  0  0  0
 44 68  1  0  0  0  0
 45 71  1  0  0  0  0
 46 67  1  0  0  0  0
 47 66  1  0  0  0  0
 49 61  1  0  0  0  0
 50 62  1  0  0  0  0
 51 62  1  0  0  0  0
 52 62  1  0  0  0  0
 53 74  1  0  0  0  0
 54 55  1  0  0  0  0
 55 59  1  0  0  0  0
 56 57  1  0  0  0  0
 56 58  1  0  0  0  0
 57 65  1  0  0  0  0
 58 73  1  0  0  0  0
 59 81  1  0  0  0  0
 60 62  1  0  0  0  0
 60 72  1  0  0  0  0
 61 74  1  0  0  0  0
 63 66  1  0  0  0  0
 64 65  1  0  0  0  0
M  CHG  1  74   1
M  ISO  4  35 100  59 101  73 100  81 101
M  END
> <Batch ID>
0043

> <Smiles>
CNC(C)C(=O)NC(C(=O)N1Cc2cc([101O:1][101CH2:1]CCc3cc(C)n(CCC[100NH:0][100C:0](=O)N4CCCC(n5nc(-c6ccc(Oc7ccc(F)cc7F)cc6)c(C(N)=O)c5N)C4)n3)ccc2CC1C(=O)NC1CCCc2ccccc21)C(C)(C)C

> <Shape>
0.228

> <Color>
0.067

> <Negative vol penalty>
0.000

$$$$

  -OEChem-04052317143D

 84 92  0     1  0  0  0  0  0999 V2000
  -24.3326  -11.9943   20.6252 C   0  0  0  0  0  0  0  0  0  0  0  0
  -24.1390  -13.2712   21.1424 C   0  0  0  0  0  0  0  0  0  0  0  0
  -26.9234  -31.0490   20.3104 C   0  0  0  0  0  0  0  0  0  0  0  0
  -25.8889  -30.1004   22.2769 C   0  0  0  0  0  0  0  0  0  0  0  0
  -25.5930  -11.6125   20.1674 C   0  0  0  0  0  0  0  0  0  0  0  0
  -25.2061  -14.1667   21.2032 C   0  0  0  0  0  0  0  0  0  0  0  0
  -23.9391  -18.8085   19.6241 C   0  0  0  0  0  0  0  0  0  0  0  0
  -27.1404  -32.2419   21.0000 C   0  0  0  0  0  0  0  0  0  0  0  0
  -26.1060  -31.2933   22.9665 C   0  0  0  0  0  0  0  0  0  0  0  0
  -23.2248  -19.6106   20.5130 C   0  0  0  0  0  0  0  0  0  0  0  0
  -24.6899  -34.3579   23.1504 C   0  0  0  0  0  0  0  0  0  0  0  0
  -23.6387  -34.8656   23.9139 C   0  0  0  0  0  0  0  0  0  0  0  0
  -25.2602  -20.7665   21.0962 C   0  0  0  0  0  0  0  0  0  0  0  0
  -25.0095  -34.7199   25.8980 C   0  0  0  0  0  0  0  0  0  0  0  0
  -18.1517  -25.8105   24.0198 C   0  0  0  0  0  0  0  0  0  0  0  0
  -20.2187  -25.9462   23.2820 C   0  0  0  0  0  0  0  0  0  0  0  0
  -26.2975  -29.9783   20.9488 C   0  0  0  0  0  0  0  0  0  0  0  0
  -26.9386  -27.6390   20.1588 C   0  0  0  0  0  0  0  0  0  0  0  0
  -26.6738  -12.5071   20.2137 C   0  0  0  0  0  0  0  0  0  0  0  0
  -25.3235  -18.9724   19.4723 C   0  0  0  0  0  0  0  0  0  0  0  0
  -26.4825  -13.7961   20.7468 C   0  0  0  0  0  0  0  0  0  0  0  0
  -25.9894  -19.9670   20.2028 C   0  0  0  0  0  0  0  0  0  0  0  0
  -18.9211  -26.1903   22.9037 C   0  0  0  0  0  0  0  0  0  0  0  0
  -26.7318  -32.3640   22.3280 C   0  0  0  0  0  0  0  0  0  0  0  0
  -23.8858  -20.5878   21.2514 C   0  0  0  0  0  0  0  0  0  0  0  0
  -25.9008  -34.0311   23.7608 C   0  0  0  0  0  0  0  0  0  0  0  0
  -23.7985  -35.0467   25.2877 C   0  0  0  0  0  0  0  0  0  0  0  0
  -26.0606  -34.2121   25.1345 C   0  0  0  0  0  0  0  0  0  0  0  0
  -26.0725  -28.7460   20.2369 C   0  0  0  0  0  0  0  0  0  0  0  0
  -26.2693  -26.7343   19.3713 C   0  0  0  0  0  0  0  0  0  0  0  0
  -28.2324  -27.4457   20.7456 C   0  0  0  0  0  0  0  0  0  0  0  0
  -27.8674  -17.1309   19.9630 C   0  0  0  0  0  0  0  0  0  0  0  0
  -29.4445  -19.6165   18.6004 C   0  0  0  0  0  0  0  0  0  0  0  0
  -29.5177  -22.9486   17.8665 C   0  0  0  0  0  0  0  0  0  0  0  0
  -20.4649  -25.8771   18.1774 C   0  0  0  0  0  0  0  0  0  0  0  0
  -28.0287  -12.0332   19.7508 C   0  0  0  0  0  0  0  0  0  0  0  0
  -26.0751  -18.1171   18.4895 C   0  0  0  0  0  0  0  0  0  0  0  0
  -27.4712  -20.1968   20.0614 C   0  0  0  0  0  0  0  0  0  0  0  0
  -29.0195  -13.1680   19.5042 C   0  0  0  0  0  0  0  0  0  0  0  0
  -23.0640  -26.5060   15.8267 C   0  0  0  0  0  0  0  0  0  0  0  0
  -28.9937  -14.1603   20.6624 C   0  0  0  0  0  0  0  0  0  0  0  0
  -24.2079  -27.0515   16.6833 C   0  0  0  0  0  0  0  0  0  0  0  0
  -21.7035  -26.9772   16.3356 C   0  0  0  0  0  0  0  0  0  0  0  0
  -22.5910  -27.2489   18.6186 C   0  0  0  0  0  0  0  0  0  0  0  0
  -27.6095  -14.8043   20.8065 C   0  0  1  0  0  0  0  0  0  0  0  0
  -27.5671  -18.0268   18.7947 C   0  0  1  0  0  0  0  0  0  0  0  0
  -23.9797  -26.7554   18.1778 C   0  0  2  0  0  0  0  0  0  0  0  0
  -30.9544  -24.6950   16.7785 C   0  0  0  0  0  0  0  0  0  0  0  0
  -31.2641  -19.6420   21.0496 C   0  0  0  0  0  0  0  0  0  0  0  0
  -32.0254  -21.9293   20.3738 C   0  0  0  0  0  0  0  0  0  0  0  0
  -32.4430  -19.9829   18.8705 C   0  0  0  0  0  0  0  0  0  0  0  0
  -27.4497  -23.5518   15.8371 C   0  0  0  0  0  0  0  0  0  0  0  0
  -18.4446  -26.7258   21.6186 C   0  0  0  0  0  0  0  0  0  0  0  0
  -18.1342  -25.6606   20.5364 C   0  0  0  0  0  0  0  0  0  0  0  0
  -21.6408  -22.9223   24.0599 C   0  0  0  0  0  0  0  0  0  0  0  0
  -21.4569  -23.5086   25.4611 C   0  0  0  0  0  0  0  0  0  0  0  0
  -21.8241  -21.4028   24.1135 C   0  0  0  0  0  0  0  0  0  0  0  0
  -21.3145  -25.0314   25.4113 C   0  0  0  0  0  0  0  0  0  0  0  0
  -19.3429  -24.8231   20.1241 C   0  0  0  0  0  0  0  0  0  0  0  0
  -22.0356  -20.7984   22.7307 C   0  0  0  0  0  0  0  0  0  1  0  0
  -30.0919  -20.8810   19.1113 C   0  0  1  0  0  0  0  0  0  0  0  0
  -29.8306  -23.6899   16.5792 C   0  0  2  0  0  0  0  0  0  0  0  0
  -31.4285  -20.6034   19.8556 C   0  0  0  0  0  0  0  0  0  0  0  0
  -18.8983  -25.3593   25.0312 N   0  0  0  0  0  0  0  0  0  0  0  0
  -24.9395  -28.5635   19.5534 N   0  0  0  0  0  0  0  0  0  0  0  0
  -20.1503  -25.4540   24.5521 N   0  0  0  0  0  0  0  0  0  0  0  0
  -25.0891  -27.3313   19.0383 N   0  0  0  0  0  0  0  0  0  0  0  0
  -28.1631  -19.3308   19.0925 N   0  0  0  0  0  0  0  0  0  0  0  0
  -21.5498  -26.6649   17.7586 N   0  0  0  0  0  0  0  0  0  0  0  0
  -26.5812  -25.4943   18.9381 N   0  0  0  0  0  0  0  0  0  0  0  0
  -28.7727  -28.4767   21.5263 N   0  0  0  0  0  0  0  0  0  0  0  0
  -27.4235  -15.8319   19.8045 N   0  0  0  0  0  0  0  0  0  0  0  0
  -30.2222  -21.7670   17.9596 N   0  0  0  0  0  0  0  0  0  0  0  0
  -20.3973  -25.6232   19.5419 N   0  0  0  0  0  0  0  0  0  0  0  0
  -28.6254  -24.4219   16.0969 N   0  3  0  0  0  0  0  0  0  0  0  0
  -28.8969  -26.3965   20.5691 O   0  0  0  0  0  0  0  0  0  0  0  0
  -28.4595  -17.5841   20.9355 O   0  0  0  0  0  0  0  0  0  0  0  0
  -30.0504  -18.9121   17.7890 O   0  0  0  0  0  0  0  0  0  0  0  0
  -28.7302  -23.3770   18.7072 O   0  0  0  0  0  0  0  0  0  0  0  0
  -19.6222  -25.4285   17.3929 O   0  0  0  0  0  0  0  0  0  0  0  0
  -26.9437  -33.5278   23.0013 O   0  0  0  0  0  0  0  0  0  0  0  0
  -23.1911  -21.3717   22.1202 O   0  0  0  0  0  0  0  0  0  1  0  0
  -22.7895  -35.5358   26.0204 F   0  0  0  0  0  0  0  0  0  0  0  0
  -27.2220  -33.9011   25.7263 F   0  0  0  0  0  0  0  0  0  0  0  0
  1  2  1  0  0  0  0
  1  5  2  0  0  0  0
  2  6  2  0  0  0  0
  3  8  2  0  0  0  0
  3 17  1  0  0  0  0
  4  9  1  0  0  0  0
  4 17  2  0  0  0  0
  5 19  1  0  0  0  0
  6 21  1  0  0  0  0
  7 10  2  0  0  0  0
  7 20  1  0  0  0  0
  8 24  1  0  0  0  0
  9 24  2  0  0  0  0
 10 25  1  0  0  0  0
 11 12  2  0  0  0  0
 11 26  1  0  0  0  0
 12 27  1  0  0  0  0
 13 22  1  0  0  0  0
 13 25  2  0  0  0  0
 14 27  2  0  0  0  0
 14 28  1  0  0  0  0
 15 23  1  0  0  0  0
 15 64  2  0  0  0  0
 16 23  2  0  0  0  0
 16 66  1  0  0  0  0
 17 29  1  0  0  0  0
 18 29  1  0  0  0  0
 18 30  2  0  0  0  0
 18 31  1  0  0  0  0
 19 21  2  0  0  0  0
 19 36  1  0  0  0  0
 20 22  2  0  0  0  0
 20 37  1  0  0  0  0
 21 45  1  0  0  0  0
 22 38  1  0  0  0  0
 23 53  1  0  0  0  0
 24 81  1  0  0  0  0
 25 82  1  0  0  0  0
 26 28  2  0  0  0  0
 26 81  1  0  0  0  0
 27 83  1  0  0  0  0
 28 84  1  0  0  0  0
 29 65  2  0  0  0  0
 30 67  1  0  0  0  0
 30 70  1  0  0  0  0
 31 71  1  0  0  0  0
 31 76  2  0  0  0  0
 32 46  1  0  0  0  0
 32 72  1  0  0  0  0
 32 77  2  0  0  0  0
 33 61  1  0  0  0  0
 33 68  1  0  0  0  0
 33 78  2  0  0  0  0
 34 62  1  0  0  0  0
 34 73  1  0  0  0  0
 34 79  2  0  0  0  0
 35 69  1  0  0  0  0
 35 74  1  0  0  0  0
 35 80  2  0  0  0  0
 36 39  1  0  0  0  0
 37 46  1  0  0  0  0
 38 68  1  0  0  0  0
 39 41  1  0  0  0  0
 40 42  1  0  0  0  0
 40 43  1  0  0  0  0
 41 45  1  0  0  0  0
 42 47  1  0  0  0  0
 43 69  1  0  0  0  0
 44 47  1  0  0  0  0
 44 69  1  0  0  0  0
 45 72  1  0  0  0  0
 46 68  1  0  0  0  0
 47 67  1  0  0  0  0
 48 62  1  0  0  0  0
 49 63  1  0  0  0  0
 50 63  1  0  0  0  0
 51 63  1  0  0  0  0
 52 75  1  0  0  0  0
 53 54  1  0  0  0  0
 54 59  1  0  0  0  0
 55 56  1  0  0  0  0
 55 57  1  0  0  0  0
 56 58  1  0  0  0  0
 57 60  1  0  0  0  0
 58 66  1  0  0  0  0
 59 74  1  0  0  0  0
 60 82  1  0  0  0  0
 61 63  1  0  0  0  0
 61 73  1  0  0  0  0
 62 75  1  0  0  0  0
 64 66  1  0  0  0  0
 65 67  1  0  0  0  0
M  CHG  1  75   1
M  ISO  4  35 100  60 101  74 100  82 101
M  END
> <Batch ID>
0043

> <Smiles>
CNC(C)C(=O)NC(C(=O)N1Cc2cc([101O:1][101CH2:1]CCCCn3cc(CCC[100NH:0][100C:0](=O)N4CCCC(n5nc(-c6ccc(Oc7ccc(F)cc7F)cc6)c(C(N)=O)c5N)C4)cn3)ccc2CC1C(=O)NC1CCCc2ccccc21)C(C)(C)C

> <Shape>
0.251

> <Color>
0.059

> <Negative vol penalty>
0.000

$$$$

  -OEChem-04052317143D

 81 89  0     1  0  0  0  0  0999 V2000
  -18.2221  -31.3825   22.4288 C   0  0  0  0  0  0  0  0  0  0  0  0
  -19.6095  -31.4097   22.3304 C   0  0  0  0  0  0  0  0  0  0  0  0
  -27.4046  -17.5596   19.8430 C   0  0  0  0  0  0  0  0  0  0  0  0
  -29.1518  -17.3463   21.4979 C   0  0  0  0  0  0  0  0  0  0  0  0
  -17.5611  -30.1688   22.6127 C   0  0  0  0  0  0  0  0  0  0  0  0
  -20.3369  -30.2232   22.4169 C   0  0  0  0  0  0  0  0  0  0  0  0
  -25.4985  -28.8427   19.4240 C   0  0  0  0  0  0  0  0  0  0  0  0
  -27.2713  -16.1717   19.8048 C   0  0  0  0  0  0  0  0  0  0  0  0
  -29.0185  -15.9584   21.4598 C   0  0  0  0  0  0  0  0  0  0  0  0
  -26.8406  -28.8854   19.7994 C   0  0  0  0  0  0  0  0  0  0  0  0
  -25.8236  -13.7559   21.6759 C   0  0  0  0  0  0  0  0  0  0  0  0
  -24.5328  -13.2278   21.6979 C   0  0  0  0  0  0  0  0  0  0  0  0
  -26.7525  -26.5405   20.3585 C   0  0  0  0  0  0  0  0  0  0  0  0
  -31.1461  -26.8946   22.8298 C   0  0  0  0  0  0  0  0  0  0  0  0
  -31.7525  -26.9626   20.5033 C   0  0  0  0  0  0  0  0  0  0  0  0
  -24.9282  -12.1723   19.5609 C   0  0  0  0  0  0  0  0  0  0  0  0
  -28.3449  -18.1469   20.6895 C   0  0  0  0  0  0  0  0  0  0  0  0
  -27.7976  -20.4781   21.5691 C   0  0  0  0  0  0  0  0  0  0  0  0
  -18.2800  -28.9657   22.6918 C   0  0  0  0  0  0  0  0  0  0  0  0
  -24.7693  -27.6492   19.5234 C   0  0  0  0  0  0  0  0  0  0  0  0
  -19.6850  -28.9923   22.6033 C   0  0  0  0  0  0  0  0  0  0  0  0
  -25.4021  -26.4847   19.9813 C   0  0  0  0  0  0  0  0  0  0  0  0
  -30.7843  -26.8113   21.4898 C   0  0  0  0  0  0  0  0  0  0  0  0
  -28.0782  -15.3710   20.6132 C   0  0  0  0  0  0  0  0  0  0  0  0
  -27.4670  -27.7349   20.2695 C   0  0  0  0  0  0  0  0  0  0  0  0
  -26.6668  -13.4923   20.5964 C   0  0  0  0  0  0  0  0  0  0  0  0
  -24.0851  -12.4360   20.6404 C   0  0  0  0  0  0  0  0  0  0  0  0
  -26.2191  -12.7005   19.5389 C   0  0  0  0  0  0  0  0  0  0  0  0
  -28.4835  -19.5806   20.7290 C   0  0  0  0  0  0  0  0  0  0  0  0
  -32.4787  -27.1288   23.1284 C   0  0  0  0  0  0  0  0  0  0  0  0
  -33.0579  -27.1939   20.9061 C   0  0  0  0  0  0  0  0  0  0  0  0
  -28.2818  -21.7147   21.2185 C   0  0  0  0  0  0  0  0  0  0  0  0
  -26.8111  -20.2174   22.5763 C   0  0  0  0  0  0  0  0  0  0  0  0
  -22.2110  -26.7134   21.1616 C   0  0  0  0  0  0  0  0  0  0  0  0
  -22.5383  -24.0214   19.3816 C   0  0  0  0  0  0  0  0  0  0  0  0
  -24.5802  -21.9859   17.5557 C   0  0  0  0  0  0  0  0  0  0  0  0
  -33.1728  -24.1864   19.6755 C   0  0  0  0  0  0  0  0  0  0  0  0
  -17.5249  -27.6836   22.9383 C   0  0  0  0  0  0  0  0  0  0  0  0
  -23.3296  -27.6133   19.0892 C   0  0  0  0  0  0  0  0  0  0  0  0
  -24.6690  -25.1733   20.0878 C   0  0  0  0  0  0  0  0  0  0  0  0
  -18.3430  -26.4287   22.6445 C   0  0  0  0  0  0  0  0  0  0  0  0
  -30.5671  -23.5641   17.2423 C   0  0  0  0  0  0  0  0  0  0  0  0
  -19.7332  -26.5410   23.2622 C   0  0  0  0  0  0  0  0  0  0  0  0
  -29.6923  -22.5527   17.9853 C   0  0  0  0  0  0  0  0  0  0  0  0
  -32.0472  -23.3326   17.5315 C   0  0  0  0  0  0  0  0  0  0  0  0
  -31.5282  -22.3329   19.7235 C   0  0  0  0  0  0  0  0  0  0  0  0
  -20.5073  -27.7236   22.6675 C   0  0  1  0  0  0  0  0  0  0  0  0
  -22.5444  -26.4661   19.7175 C   0  0  1  0  0  0  0  0  0  0  0  0
  -30.0190  -22.5283   19.4902 C   0  0  2  0  0  0  0  0  0  0  0  0
  -32.9037  -27.2227   24.5557 C   0  0  0  0  0  0  0  0  0  0  0  0
  -24.5704  -19.8391   16.2562 C   0  0  0  0  0  0  0  0  0  0  0  0
  -22.5269  -22.4435   21.9931 C   0  0  0  0  0  0  0  0  0  0  0  0
  -23.4553  -20.4883   20.7347 C   0  0  0  0  0  0  0  0  0  0  0  0
  -21.2117  -21.4013   20.1388 C   0  0  0  0  0  0  0  0  0  0  0  0
  -25.3537  -23.3624   15.0526 C   0  0  0  0  0  0  0  0  0  0  0  0
  -29.3550  -26.5581   21.1099 C   0  0  0  0  0  0  0  0  0  1  0  0
  -34.1223  -27.3630   19.8741 C   0  0  0  0  0  0  0  0  0  0  0  0
  -34.8001  -26.0483   19.4709 C   0  0  0  0  0  0  0  0  0  0  0  0
  -23.2848  -22.7189   19.5404 C   0  0  1  0  0  0  0  0  0  0  0  0
  -24.4067  -21.3495   16.1885 C   0  0  2  0  0  0  0  0  0  0  0  0
  -22.6332  -21.7880   20.6017 C   0  0  0  0  0  0  0  0  0  0  0  0
  -29.3382  -20.1947   19.9066 N   0  0  0  0  0  0  0  0  0  0  0  0
  -33.4474  -27.2812   22.1977 N   0  0  0  0  0  0  0  0  0  0  0  0
  -29.1925  -21.4915   20.2281 N   0  0  0  0  0  0  0  0  0  0  0  0
  -23.2612  -25.1907   19.6571 N   0  0  0  0  0  0  0  0  0  0  0  0
  -32.2937  -23.3393   18.9804 N   0  0  0  0  0  0  0  0  0  0  0  0
  -28.0130  -22.9605   21.6639 N   0  0  0  0  0  0  0  0  0  0  0  0
  -26.4281  -18.8893   22.8084 N   0  0  0  0  0  0  0  0  0  0  0  0
  -21.0191  -27.3848   21.3569 N   0  0  0  0  0  0  0  0  0  0  0  0
  -23.3738  -22.1342   18.2068 N   0  0  0  0  0  0  0  0  0  0  0  0
  -33.8648  -25.1064   18.8974 N   0  0  0  0  0  0  0  0  0  0  0  0
  -25.4161  -21.8893   15.2341 N   0  3  0  0  0  0  0  0  0  0  0  0
  -26.2729  -21.1363   23.2391 O   0  0  0  0  0  0  0  0  0  0  0  0
  -22.9777  -26.3227   22.0341 O   0  0  0  0  0  0  0  0  0  0  0  0
  -21.3593  -24.0024   19.0193 O   0  0  0  0  0  0  0  0  0  0  0  0
  -25.6766  -22.3147   18.0031 O   0  0  0  0  0  0  0  0  0  0  0  0
  -33.3258  -24.1307   20.9005 O   0  0  0  0  0  0  0  0  0  0  0  0
  -27.9483  -14.0167   20.5764 O   0  0  0  0  0  0  0  0  0  0  0  0
  -28.7766  -27.7740   20.6372 O   0  0  0  0  0  0  0  0  0  1  0  0
  -22.8461  -11.9277   20.6624 F   0  0  0  0  0  0  0  0  0  0  0  0
  -27.0249  -12.4428   18.4997 F   0  0  0  0  0  0  0  0  0  0  0  0
  1  2  1  0  0  0  0
  1  5  2  0  0  0  0
  2  6  2  0  0  0  0
  3  8  2  0  0  0  0
  3 17  1  0  0  0  0
  4  9  1  0  0  0  0
  4 17  2  0  0  0  0
  5 19  1  0  0  0  0
  6 21  1  0  0  0  0
  7 10  2  0  0  0  0
  7 20  1  0  0  0  0
  8 24  1  0  0  0  0
  9 24  2  0  0  0  0
 10 25  1  0  0  0  0
 11 12  2  0  0  0  0
 11 26  1  0  0  0  0
 12 27  1  0  0  0  0
 13 22  1  0  0  0  0
 13 25  2  0  0  0  0
 14 23  1  0  0  0  0
 14 30  2  0  0  0  0
 15 23  2  0  0  0  0
 15 31  1  0  0  0  0
 16 27  2  0  0  0  0
 16 28  1  0  0  0  0
 17 29  1  0  0  0  0
 18 29  1  0  0  0  0
 18 32  2  0  0  0  0
 18 33  1  0  0  0  0
 19 21  2  0  0  0  0
 19 38  1  0  0  0  0
 20 22  2  0  0  0  0
 20 39  1  0  0  0  0
 21 47  1  0  0  0  0
 22 40  1  0  0  0  0
 23 56  1  0  0  0  0
 24 78  1  0  0  0  0
 25 79  1  0  0  0  0
 26 28  2  0  0  0  0
 26 78  1  0  0  0  0
 27 80  1  0  0  0  0
 28 81  1  0  0  0  0
 29 62  2  0  0  0  0
 30 50  1  0  0  0  0
 30 63  1  0  0  0  0
 31 57  1  0  0  0  0
 31 63  2  0  0  0  0
 32 64  1  0  0  0  0
 32 67  1  0  0  0  0
 33 68  1  0  0  0  0
 33 73  2  0  0  0  0
 34 48  1  0  0  0  0
 34 69  1  0  0  0  0
 34 74  2  0  0  0  0
 35 59  1  0  0  0  0
 35 65  1  0  0  0  0
 35 75  2  0  0  0  0
 36 60  1  0  0  0  0
 36 70  1  0  0  0  0
 36 76  2  0  0  0  0
 37 66  1  0  0  0  0
 37 71  1  0  0  0  0
 37 77  2  0  0  0  0
 38 41  1  0  0  0  0
 39 48  1  0  0  0  0
 40 65  1  0  0  0  0
 41 43  1  0  0  0  0
 42 44  1  0  0  0  0
 42 45  1  0  0  0  0
 43 47  1  0  0  0  0
 44 49  1  0  0  0  0
 45 66  1  0  0  0  0
 46 49  1  0  0  0  0
 46 66  1  0  0  0  0
 47 69  1  0  0  0  0
 48 65  1  0  0  0  0
 49 64  1  0  0  0  0
 51 60  1  0  0  0  0
 52 61  1  0  0  0  0
 53 61  1  0  0  0  0
 54 61  1  0  0  0  0
 55 72  1  0  0  0  0
 56 79  1  0  0  0  0
 57 58  1  0  0  0  0
 58 71  1  0  0  0  0
 59 61  1  0  0  0  0
 59 70  1  0  0  0  0
 60 72  1  0  0  0  0
 62 64  1  0  0  0  0
M  CHG  1  72   1
M  ISO  4  37 100  56 101  71 100  79 101
M  END
> <Batch ID>
0043

> <Smiles>
CNC(C)C(=O)NC(C(=O)N1Cc2cc([101O:1][101CH2:1]c3cc(C)nc(CC[100NH:0][100C:0](=O)N4CCCC(n5nc(-c6ccc(Oc7ccc(F)cc7F)cc6)c(C(N)=O)c5N)C4)c3)ccc2CC1C(=O)NC1CCCc2ccccc21)C(C)(C)C

> <Shape>
0.227

> <Color>
0.071

> <Negative vol penalty>
0.000

$$$$

  -OEChem-04052317143D

 86 94  0     1  0  0  0  0  0999 V2000
  -25.0625  -18.0166   17.2445 C   0  0  0  0  0  0  0  0  0  0  0  0
  -24.7255  -19.3410   17.5002 C   0  0  0  0  0  0  0  0  0  0  0  0
  -24.4857  -14.3664   20.4306 C   0  0  0  0  0  0  0  0  0  0  0  0
  -24.9782  -14.5595   22.7880 C   0  0  0  0  0  0  0  0  0  0  0  0
  -26.2356  -17.4848   17.7757 C   0  0  0  0  0  0  0  0  0  0  0  0
  -25.5674  -20.1374   18.2772 C   0  0  0  0  0  0  0  0  0  0  0  0
  -24.4437  -24.9154   18.6108 C   0  0  0  0  0  0  0  0  0  0  0  0
  -25.5543  -13.4827   20.2797 C   0  0  0  0  0  0  0  0  0  0  0  0
  -26.0468  -13.6757   22.6371 C   0  0  0  0  0  0  0  0  0  0  0  0
  -23.3557  -25.3843   19.3456 C   0  0  0  0  0  0  0  0  0  0  0  0
  -28.3750  -11.4545   19.2057 C   0  0  0  0  0  0  0  0  0  0  0  0
  -29.2264  -11.6437   18.1171 C   0  0  0  0  0  0  0  0  0  0  0  0
  -24.8531  -26.0938   21.0987 C   0  0  0  0  0  0  0  0  0  0  0  0
  -29.7728  -13.8528   18.9286 C   0  0  0  0  0  0  0  0  0  0  0  0
  -24.1977  -14.9049   21.6847 C   0  0  0  0  0  0  0  0  0  0  0  0
  -21.7591  -15.4940   22.1468 C   0  0  0  0  0  0  0  0  0  0  0  0
  -27.0855  -18.2723   18.5698 C   0  0  0  0  0  0  0  0  0  0  0  0
  -25.7459  -25.0226   19.1200 C   0  0  0  0  0  0  0  0  0  0  0  0
  -26.7679  -19.6259   18.8025 C   0  0  0  0  0  0  0  0  0  0  0  0
  -25.9563  -25.6278   20.3672 C   0  0  0  0  0  0  0  0  0  0  0  0
  -26.3348  -13.1372   21.3830 C   0  0  0  0  0  0  0  0  0  0  0  0
  -23.5600  -25.9710   20.5911 C   0  0  0  0  0  0  0  0  0  0  0  0
  -28.2224  -12.4644   20.1557 C   0  0  0  0  0  0  0  0  0  0  0  0
  -29.9253  -12.8429   17.9786 C   0  0  0  0  0  0  0  0  0  0  0  0
  -28.9214  -13.6636   20.0171 C   0  0  0  0  0  0  0  0  0  0  0  0
  -23.0944  -15.8183   21.8411 C   0  0  0  0  0  0  0  0  0  0  0  0
  -19.0946  -26.3099   22.2907 C   0  0  0  0  0  0  0  0  0  0  0  0
  -20.1807  -26.8634   21.6546 C   0  0  0  0  0  0  0  0  0  0  0  0
  -21.1115  -16.7047   22.1838 C   0  0  0  0  0  0  0  0  0  0  0  0
  -19.1152  -28.3561   22.8766 C   0  0  0  0  0  0  0  0  0  0  0  0
  -21.1578  -14.2129   22.3769 C   0  0  0  0  0  0  0  0  0  0  0  0
  -28.0194  -22.9499   19.9195 C   0  0  0  0  0  0  0  0  0  0  0  0
  -29.7809  -25.6407   20.3425 C   0  0  0  0  0  0  0  0  0  0  0  0
  -29.8420  -28.9946   20.9709 C   0  0  0  0  0  0  0  0  0  0  0  0
  -20.8585  -21.9151   23.8375 C   0  0  0  0  0  0  0  0  0  0  0  0
  -28.3466  -17.6481   19.1131 C   0  0  0  0  0  0  0  0  0  0  0  0
  -26.9114  -24.5361   18.3032 C   0  0  0  0  0  0  0  0  0  0  0  0
  -27.3363  -25.7851   20.9497 C   0  0  0  0  0  0  0  0  0  0  0  0
  -28.9420  -18.4297   20.2797 C   0  0  0  0  0  0  0  0  0  0  0  0
  -22.6463  -21.3070   20.7502 C   0  0  0  0  0  0  0  0  0  0  0  0
  -29.0433  -19.9044   19.9195 C   0  0  0  0  0  0  0  0  0  0  0  0
  -22.8108  -19.7865   20.7884 C   0  0  0  0  0  0  0  0  0  0  0  0
  -22.7877  -21.9135   22.1431 C   0  0  0  0  0  0  0  0  0  0  0  0
  -22.0241  -19.8226   23.2008 C   0  0  0  0  0  0  0  0  0  0  0  0
  -27.6529  -20.5024   19.6702 C   0  0  1  0  0  0  0  0  0  0  0  0
  -28.1461  -24.2318   19.1459 C   0  0  1  0  0  0  0  0  0  0  0  0
  -21.8694  -19.1470   21.8261 C   0  0  2  0  0  0  0  0  0  0  0  0
  -18.8103  -29.6648   23.4909 C   0  0  0  0  0  0  0  0  0  0  0  0
  -31.4313  -30.9092   21.2961 C   0  0  0  0  0  0  0  0  0  0  0  0
  -24.0062  -30.1321   21.1118 C   0  0  0  0  0  0  0  0  0  0  0  0
  -24.1325  -30.8167   23.5152 C   0  0  0  0  0  0  0  0  0  0  0  0
  -30.4178  -24.6320   23.1509 C   0  0  0  0  0  0  0  0  0  0  0  0
  -31.1750  -26.9458   23.7349 C   0  0  0  0  0  0  0  0  0  0  0  0
  -32.3533  -25.6633   21.9489 C   0  0  0  0  0  0  0  0  0  0  0  0
  -28.7487  -30.4499   18.6373 C   0  0  0  0  0  0  0  0  0  0  0  0
  -18.6125  -24.9207   22.2363 C   0  0  0  0  0  0  0  0  0  0  0  0
  -21.2055  -26.2760   20.7293 C   0  0  0  0  0  0  0  0  0  1  0  0
  -18.4740  -24.2180   23.6107 C   0  0  0  0  0  0  0  0  0  0  0  0
  -22.1555  -29.4756   22.7383 C   0  0  0  0  0  0  0  0  0  0  0  0
  -21.1350  -29.1827   21.6365 C   0  0  0  0  0  0  0  0  0  0  0  0
  -19.7884  -24.0878   24.3773 C   0  0  0  0  0  0  0  0  0  0  0  0
  -30.0402  -26.5783   21.4970 C   0  0  1  0  0  0  0  0  0  0  0  0
  -30.5879  -30.1322   20.2972 C   0  0  2  0  0  0  0  0  0  0  0  0
  -23.1917  -30.5417   22.3397 C   0  0  0  0  0  0  0  0  0  0  0  0
  -30.9702  -25.9503   22.5731 C   0  0  0  0  0  0  0  0  0  0  0  0
  -23.2853  -17.1321   21.6941 N   0  0  0  0  0  0  0  0  0  0  0  0
  -18.4354  -27.2444   23.0495 N   0  0  0  0  0  0  0  0  0  0  0  0
  -20.1807  -28.1746   22.0392 N   0  0  0  0  0  0  0  0  0  0  0  0
  -22.0613  -17.6440   21.9084 N   0  0  0  0  0  0  0  0  0  0  0  0
  -28.4430  -25.2881   20.1156 N   0  0  0  0  0  0  0  0  0  0  0  0
  -21.8514  -21.2740   23.0783 N   0  0  0  0  0  0  0  0  0  0  0  0
  -19.8280  -17.0468   22.4246 N   0  0  0  0  0  0  0  0  0  0  0  0
  -21.9674  -13.0714   22.3005 N   0  0  0  0  0  0  0  0  0  0  0  0
  -27.8024  -21.8361   19.1310 N   0  0  0  0  0  0  0  0  0  0  0  0
  -30.5513  -27.8135   20.9128 N   0  0  0  0  0  0  0  0  0  0  0  0
  -20.7652  -23.2912   23.6686 N   0  0  0  0  0  0  0  0  0  0  0  0
  -29.6268  -31.0757   19.6592 N   0  3  0  0  0  0  0  0  0  0  0  0
  -19.9353  -14.0829   22.6262 O   0  0  0  0  0  0  0  0  0  0  0  0
  -28.1131  -22.9697   21.1412 O   0  0  0  0  0  0  0  0  0  0  0  0
  -30.7297  -25.2418   19.6627 O   0  0  0  0  0  0  0  0  0  0  0  0
  -28.7419  -29.1399   21.4994 O   0  0  0  0  0  0  0  0  0  0  0  0
  -20.1065  -21.3054   24.6055 O   0  0  0  0  0  0  0  0  0  0  0  0
  -27.3774  -12.2747   21.2362 O   0  0  0  0  0  0  0  0  0  0  0  0
  -22.4997  -26.4289   21.3107 O   0  0  0  0  0  0  0  0  0  1  0  0
  -30.7441  -13.0239   16.9341 F   0  0  0  0  0  0  0  0  0  0  0  0
  -28.7798  -14.6370   20.9272 F   0  0  0  0  0  0  0  0  0  0  0  0
  1  2  1  0  0  0  0
  1  5  2  0  0  0  0
  2  6  2  0  0  0  0
  3  8  2  0  0  0  0
  3 15  1  0  0  0  0
  4  9  1  0  0  0  0
  4 15  2  0  0  0  0
  5 17  1  0  0  0  0
  6 19  1  0  0  0  0
  7 10  2  0  0  0  0
  7 18  1  0  0  0  0
  8 21  1  0  0  0  0
  9 21  2  0  0  0  0
 10 22  1  0  0  0  0
 11 12  2  0  0  0  0
 11 23  1  0  0  0  0
 12 24  1  0  0  0  0
 13 20  1  0  0  0  0
 13 22  2  0  0  0  0
 14 24  2  0  0  0  0
 14 25  1  0  0  0  0
 15 26  1  0  0  0  0
 16 26  1  0  0  0  0
 16 29  2  0  0  0  0
 16 31  1  0  0  0  0
 17 19  2  0  0  0  0
 17 36  1  0  0  0  0
 18 20  2  0  0  0  0
 18 37  1  0  0  0  0
 19 45  1  0  0  0  0
 20 38  1  0  0  0  0
 21 83  1  0  0  0  0
 22 84  1  0  0  0  0
 23 25  2  0  0  0  0
 23 83  1  0  0  0  0
 24 85  1  0  0  0  0
 25 86  1  0  0  0  0
 26 66  2  0  0  0  0
 27 28  2  0  0  0  0
 27 56  1  0  0  0  0
 27 67  1  0  0  0  0
 28 57  1  0  0  0  0
 28 68  1  0  0  0  0
 29 69  1  0  0  0  0
 29 72  1  0  0  0  0
 30 48  1  0  0  0  0
 30 67  2  0  0  0  0
 30 68  1  0  0  0  0
 31 73  1  0  0  0  0
 31 78  2  0  0  0  0
 32 46  1  0  0  0  0
 32 74  1  0  0  0  0
 32 79  2  0  0  0  0
 33 62  1  0  0  0  0
 33 70  1  0  0  0  0
 33 80  2  0  0  0  0
 34 63  1  0  0  0  0
 34 75  1  0  0  0  0
 34 81  2  0  0  0  0
 35 71  1  0  0  0  0
 35 76  1  0  0  0  0
 35 82  2  0  0  0  0
 36 39  1  0  0  0  0
 37 46  1  0  0  0  0
 38 70  1  0  0  0  0
 39 41  1  0  0  0  0
 40 42  1  0  0  0  0
 40 43  1  0  0  0  0
 41 45  1  0  0  0  0
 42 47  1  0  0  0  0
 43 71  1  0  0  0  0
 44 47  1  0  0  0  0
 44 71  1  0  0  0  0
 45 74  1  0  0  0  0
 46 70  1  0  0  0  0
 47 69  1  0  0  0  0
 49 63  1  0  0  0  0
 50 64  1  0  0  0  0
 51 64  1  0  0  0  0
 52 65  1  0  0  0  0
 53 65  1  0  0  0  0
 54 65  1  0  0  0  0
 55 77  1  0  0  0  0
 56 58  1  0  0  0  0
 57 84  1  0  0  0  0
 58 61  1  0  0  0  0
 59 60  1  0  0  0  0
 59 64  1  0  0  0  0
 60 68  1  0  0  0  0
 61 76  1  0  0  0  0
 62 65  1  0  0  0  0
 62 75  1  0  0  0  0
 63 77  1  0  0  0  0
 66 69  1  0  0  0  0
M  CHG  1  77   1
M  ISO  4  35 100  57 101  76 100  84 101
M  END
> <Batch ID>
0043

> <Smiles>
CNC(C)C(=O)NC(C(=O)N1Cc2cc([101O:1][101CH2:1]c3c(CCC[100NH:0][100C:0](=O)N4CCCC(n5nc(-c6ccc(Oc7ccc(F)cc7F)cc6)c(C(N)=O)c5N)C4)nc(C)n3CCC(C)C)ccc2CC1C(=O)NC1CCCc2ccccc21)C(C)(C)C

> <Shape>
0.231

> <Color>
0.067

> <Negative vol penalty>
0.000

$$$$

  -OEChem-04052317143D

 85 93  0     1  0  0  0  0  0999 V2000
  -18.6960  -33.5894   22.1365 C   0  0  0  0  0  0  0  0  0  0  0  0
  -20.0058  -33.4578   21.6867 C   0  0  0  0  0  0  0  0  0  0  0  0
  -26.6392  -12.9542   21.8719 C   0  0  0  0  0  0  0  0  0  0  0  0
  -25.2856  -14.7452   20.9792 C   0  0  0  0  0  0  0  0  0  0  0  0
  -18.1872  -32.6885   23.0711 C   0  0  0  0  0  0  0  0  0  0  0  0
  -20.8081  -32.4257   22.1721 C   0  0  0  0  0  0  0  0  0  0  0  0
  -25.1009  -29.3364   19.0844 C   0  0  0  0  0  0  0  0  0  0  0  0
  -25.4958  -12.1726   22.0376 C   0  0  0  0  0  0  0  0  0  0  0  0
  -24.1422  -13.9636   21.1448 C   0  0  0  0  0  0  0  0  0  0  0  0
  -26.4884  -29.4606   19.0288 C   0  0  0  0  0  0  0  0  0  0  0  0
  -23.4697  -10.2807   20.1015 C   0  0  0  0  0  0  0  0  0  0  0  0
  -23.5309   -8.9480   19.6943 C   0  0  0  0  0  0  0  0  0  0  0  0
  -26.7040  -27.7326   20.6981 C   0  0  0  0  0  0  0  0  0  0  0  0
  -23.0377   -8.2363   21.9499 C   0  0  0  0  0  0  0  0  0  0  0  0
  -31.0537  -24.6512   17.8827 C   0  0  0  0  0  0  0  0  0  0  0  0
  -26.5341  -14.2405   21.3428 C   0  0  0  0  0  0  0  0  0  0  0  0
  -28.5453  -15.1109   20.0370 C   0  0  0  0  0  0  0  0  0  0  0  0
  -18.9805  -31.6391   23.5610 C   0  0  0  0  0  0  0  0  0  0  0  0
  -24.5031  -28.4155   19.9567 C   0  0  0  0  0  0  0  0  0  0  0  0
  -20.3099  -31.5107   23.1151 C   0  0  0  0  0  0  0  0  0  0  0  0
  -25.3087  -27.5969   20.7610 C   0  0  0  0  0  0  0  0  0  0  0  0
  -24.2473  -12.6773   21.6740 C   0  0  0  0  0  0  0  0  0  0  0  0
  -27.2901  -28.6607   19.8378 C   0  0  0  0  0  0  0  0  0  0  0  0
  -23.1926  -10.5912   21.4328 C   0  0  0  0  0  0  0  0  0  0  0  0
  -23.3148   -7.9258   20.6185 C   0  0  0  0  0  0  0  0  0  0  0  0
  -22.9766   -9.5690   22.3570 C   0  0  0  0  0  0  0  0  0  0  0  0
  -27.7147  -15.0486   21.1719 C   0  0  0  0  0  0  0  0  0  0  0  0
  -30.9650  -25.1598   19.1597 C   0  0  0  0  0  0  0  0  0  0  0  0
  -29.8039  -22.8437   18.5156 C   0  0  0  0  0  0  0  0  0  0  0  0
  -29.7157  -23.3519   19.7929 C   0  0  0  0  0  0  0  0  0  0  0  0
  -29.5205  -16.0173   20.3746 C   0  0  0  0  0  0  0  0  0  0  0  0
  -28.4443  -14.4120   18.7892 C   0  0  0  0  0  0  0  0  0  0  0  0
  -22.5233  -28.6315   22.4340 C   0  0  0  0  0  0  0  0  0  0  0  0
  -22.5576  -25.3933   22.2457 C   0  0  0  0  0  0  0  0  0  0  0  0
  -24.1890  -22.5663   21.2489 C   0  0  0  0  0  0  0  0  0  0  0  0
  -29.6855  -20.5727   24.2569 C   0  0  0  0  0  0  0  0  0  0  0  0
  -18.4018  -30.7182   24.6058 C   0  0  0  0  0  0  0  0  0  0  0  0
  -23.0058  -28.2749   19.9854 C   0  0  0  0  0  0  0  0  0  0  0  0
  -24.7170  -26.5785   21.6997 C   0  0  0  0  0  0  0  0  0  0  0  0
  -19.1977  -29.4286   24.7892 C   0  0  0  0  0  0  0  0  0  0  0  0
  -31.8642  -17.7582   24.1650 C   0  0  0  0  0  0  0  0  0  0  0  0
  -20.6897  -29.7312   24.8857 C   0  0  0  0  0  0  0  0  0  0  0  0
  -31.1227  -16.7502   23.2851 C   0  0  0  0  0  0  0  0  0  0  0  0
  -30.9018  -18.5608   25.0376 C   0  0  0  0  0  0  0  0  0  0  0  0
  -29.0704  -18.2224   23.4235 C   0  0  0  0  0  0  0  0  0  0  0  0
  -21.2034  -30.3894   23.5995 C   0  0  1  0  0  0  0  0  0  0  0  0
  -22.4878  -27.6649   21.2842 C   0  0  1  0  0  0  0  0  0  0  0  0
  -29.9944  -17.4280   22.4847 C   0  0  2  0  0  0  0  0  0  0  0  0
  -28.6892  -21.5294   16.6945 C   0  0  0  0  0  0  0  0  0  0  0  0
  -23.9865  -20.0651   21.2668 C   0  0  0  0  0  0  0  0  0  0  0  0
  -23.3265  -25.3547   25.1982 C   0  0  0  0  0  0  0  0  0  0  0  0
  -24.0261  -22.9677   24.9130 C   0  0  0  0  0  0  0  0  0  0  0  0
  -21.6491  -23.6227   24.5343 C   0  0  0  0  0  0  0  0  0  0  0  0
  -24.1959  -22.4286   18.2926 C   0  0  0  0  0  0  0  0  0  0  0  0
  -31.6251  -26.4697   19.5091 C   0  0  0  0  0  0  0  0  0  0  0  0
  -29.1590  -21.5514   18.1470 C   0  0  0  0  0  0  0  0  0  0  0  0
  -28.9714  -22.6330   20.8657 C   0  0  0  0  0  0  0  0  0  0  0  0
  -30.7247  -27.6888   19.2977 C   0  0  0  0  0  0  0  0  0  0  0  0
  -29.1877  -23.1996   22.2833 C   0  0  0  0  0  0  0  0  0  0  0  0
  -28.3841  -22.4917   23.3720 C   0  0  0  0  0  0  0  0  0  0  0  0
  -29.4113  -27.6101   20.0673 C   0  0  0  0  0  0  0  0  0  1  0  0
  -23.4047  -24.2965   22.8444 C   0  0  1  0  0  0  0  0  0  0  0  0
  -23.7108  -21.3424   20.4888 C   0  0  2  0  0  0  0  0  0  0  0  0
  -23.1130  -24.0808   24.3563 C   0  0  0  0  0  0  0  0  0  0  0  0
  -30.4747  -23.4840   17.5377 N   0  0  0  0  0  0  0  0  0  0  0  0
  -28.1264  -15.8513   22.1569 N   0  0  0  0  0  0  0  0  0  0  0  0
  -30.2945  -24.5193   20.1378 N   0  0  0  0  0  0  0  0  0  0  0  0
  -29.2264  -16.4265   21.6419 N   0  0  0  0  0  0  0  0  0  0  0  0
  -23.2478  -26.4831   21.6962 N   0  0  0  0  0  0  0  0  0  0  0  0
  -29.8571  -19.1791   24.2177 N   0  0  0  0  0  0  0  0  0  0  0  0
  -30.5924  -16.4960   19.7080 N   0  0  0  0  0  0  0  0  0  0  0  0
  -27.3807  -13.5172   18.6087 N   0  0  0  0  0  0  0  0  0  0  0  0
  -21.3804  -29.3980   22.5602 N   0  0  0  0  0  0  0  0  0  0  0  0
  -23.1847  -23.1141   22.0188 N   0  0  0  0  0  0  0  0  0  0  0  0
  -28.6774  -21.0777   23.4447 N   0  0  0  0  0  0  0  0  0  0  0  0
  -24.4009  -21.2485   19.1713 N   0  3  0  0  0  0  0  0  0  0  0  0
  -29.2819  -14.5638   17.8679 O   0  0  0  0  0  0  0  0  0  0  0  0
  -23.5136  -28.6774   23.1544 O   0  0  0  0  0  0  0  0  0  0  0  0
  -21.3290  -25.2838   22.2585 O   0  0  0  0  0  0  0  0  0  0  0  0
  -25.3394  -22.9916   21.1706 O   0  0  0  0  0  0  0  0  0  0  0  0
  -30.3827  -21.3126   24.9593 O   0  0  0  0  0  0  0  0  0  0  0  0
  -23.1314  -11.9149   21.8353 O   0  0  0  0  0  0  0  0  0  0  0  0
  -28.6447  -28.7804   19.7859 O   0  0  0  0  0  0  0  0  0  1  0  0
  -23.3721   -6.6461   20.2270 F   0  0  0  0  0  0  0  0  0  0  0  0
  -22.7088   -9.8612   23.6371 F   0  0  0  0  0  0  0  0  0  0  0  0
  1  2  1  0  0  0  0
  1  5  2  0  0  0  0
  2  6  2  0  0  0  0
  3  8  2  0  0  0  0
  3 16  1  0  0  0  0
  4  9  1  0  0  0  0
  4 16  2  0  0  0  0
  5 18  1  0  0  0  0
  6 20  1  0  0  0  0
  7 10  2  0  0  0  0
  7 19  1  0  0  0  0
  8 22  1  0  0  0  0
  9 22  2  0  0  0  0
 10 23  1  0  0  0  0
 11 12  2  0  0  0  0
 11 24  1  0  0  0  0
 12 25  1  0  0  0  0
 13 21  1  0  0  0  0
 13 23  2  0  0  0  0
 14 25  2  0  0  0  0
 14 26  1  0  0  0  0
 15 28  1  0  0  0  0
 15 65  2  0  0  0  0
 16 27  1  0  0  0  0
 17 27  1  0  0  0  0
 17 31  2  0  0  0  0
 17 32  1  0  0  0  0
 18 20  2  0  0  0  0
 18 37  1  0  0  0  0
 19 21  2  0  0  0  0
 19 38  1  0  0  0  0
 20 46  1  0  0  0  0
 21 39  1  0  0  0  0
 22 82  1  0  0  0  0
 23 83  1  0  0  0  0
 24 26  2  0  0  0  0
 24 82  1  0  0  0  0
 25 84  1  0  0  0  0
 26 85  1  0  0  0  0
 27 66  2  0  0  0  0
 28 55  1  0  0  0  0
 28 67  2  0  0  0  0
 29 30  2  0  0  0  0
 29 56  1  0  0  0  0
 29 65  1  0  0  0  0
 30 57  1  0  0  0  0
 30 67  1  0  0  0  0
 31 68  1  0  0  0  0
 31 71  1  0  0  0  0
 32 72  1  0  0  0  0
 32 77  2  0  0  0  0
 33 47  1  0  0  0  0
 33 73  1  0  0  0  0
 33 78  2  0  0  0  0
 34 62  1  0  0  0  0
 34 69  1  0  0  0  0
 34 79  2  0  0  0  0
 35 63  1  0  0  0  0
 35 74  1  0  0  0  0
 35 80  2  0  0  0  0
 36 70  1  0  0  0  0
 36 75  1  0  0  0  0
 36 81  2  0  0  0  0
 37 40  1  0  0  0  0
 38 47  1  0  0  0  0
 39 69  1  0  0  0  0
 40 42  1  0  0  0  0
 41 43  1  0  0  0  0
 41 44  1  0  0  0  0
 42 46  1  0  0  0  0
 43 48  1  0  0  0  0
 44 70  1  0  0  0  0
 45 48  1  0  0  0  0
 45 70  1  0  0  0  0
 46 73  1  0  0  0  0
 47 69  1  0  0  0  0
 48 68  1  0  0  0  0
 49 56  1  0  0  0  0
 50 63  1  0  0  0  0
 51 64  1  0  0  0  0
 52 64  1  0  0  0  0
 53 64  1  0  0  0  0
 54 76  1  0  0  0  0
 55 58  1  0  0  0  0
 57 59  1  0  0  0  0
 58 61  1  0  0  0  0
 59 60  1  0  0  0  0
 60 75  1  0  0  0  0
 61 83  1  0  0  0  0
 62 64  1  0  0  0  0
 62 74  1  0  0  0  0
 63 76  1  0  0  0  0
 66 68  1  0  0  0  0
M  CHG  1  76   1
M  ISO  4  36 100  61 101  75 100  83 101
M  END
> <Batch ID>
0043

> <Smiles>
CCc1ncc(CC[101CH2:1][101O:1]c2ccc3c(c2)CN(C(=O)C(NC(=O)C(C)NC)C(C)(C)C)C(C(=O)NC2CCCc4ccccc42)C3)nc1CCC[100NH:0][100C:0](=O)N1CCCC(n2nc(-c3ccc(Oc4ccc(F)cc4F)cc3)c(C(N)=O)c2N)C1

> <Shape>
0.235

> <Color>
0.086

> <Negative vol penalty>
0.000

$$$$

  -OEChem-04052317143D

 82 90  0     1  0  0  0  0  0999 V2000
  -30.8458  -31.6694   24.3288 C   0  0  0  0  0  0  0  0  0  0  0  0
  -31.0668  -30.2969   24.3825 C   0  0  0  0  0  0  0  0  0  0  0  0
  -23.1928   -9.8281   19.9357 C   0  0  0  0  0  0  0  0  0  0  0  0
  -23.5649  -10.0168   22.3154 C   0  0  0  0  0  0  0  0  0  0  0  0
  -29.6106  -32.1909   24.7110 C   0  0  0  0  0  0  0  0  0  0  0  0
  -30.0530  -29.4452   24.8196 C   0  0  0  0  0  0  0  0  0  0  0  0
  -28.8912  -23.7745   22.8197 C   0  0  0  0  0  0  0  0  0  0  0  0
  -22.4273   -8.6812   20.1463 C   0  0  0  0  0  0  0  0  0  0  0  0
  -22.7994   -8.8699   22.5261 C   0  0  0  0  0  0  0  0  0  0  0  0
  -29.2200  -22.5167   23.3230 C   0  0  0  0  0  0  0  0  0  0  0  0
  -23.2050   -5.5229   22.2741 C   0  0  0  0  0  0  0  0  0  0  0  0
  -23.7023   -4.5651   23.1577 C   0  0  0  0  0  0  0  0  0  0  0  0
  -27.0612  -22.3865   24.3916 C   0  0  0  0  0  0  0  0  0  0  0  0
  -21.7419   -4.8274   24.5453 C   0  0  0  0  0  0  0  0  0  0  0  0
  -30.3620  -17.1027   26.3700 C   0  0  0  0  0  0  0  0  0  0  0  0
  -23.7616  -10.4959   21.0203 C   0  0  0  0  0  0  0  0  0  0  0  0
  -24.0980  -13.0121   20.7690 C   0  0  0  0  0  0  0  0  0  0  0  0
  -28.5779  -31.3443   25.1439 C   0  0  0  0  0  0  0  0  0  0  0  0
  -27.6470  -24.3535   23.1081 C   0  0  0  0  0  0  0  0  0  0  0  0
  -28.8032  -29.9560   25.2093 C   0  0  0  0  0  0  0  0  0  0  0  0
  -26.7180  -23.6507   23.8886 C   0  0  0  0  0  0  0  0  0  0  0  0
  -22.2306   -8.2022   21.4415 C   0  0  0  0  0  0  0  0  0  0  0  0
  -28.3061  -21.8237   24.1115 C   0  0  0  0  0  0  0  0  0  0  0  0
  -21.9762   -6.1331   22.5261 C   0  0  0  0  0  0  0  0  0  0  0  0
  -22.9708   -4.2173   24.2933 C   0  0  0  0  0  0  0  0  0  0  0  0
  -21.2447   -5.7853   23.6616 C   0  0  0  0  0  0  0  0  0  0  0  0
  -24.5529  -11.6803   20.8033 C   0  0  0  0  0  0  0  0  0  0  0  0
  -30.1883  -16.5198   25.1464 C   0  0  0  0  0  0  0  0  0  0  0  0
  -25.2289  -13.7553   20.5341 C   0  0  0  0  0  0  0  0  0  0  0  0
  -30.0622  -18.7140   24.8820 C   0  0  0  0  0  0  0  0  0  0  0  0
  -22.7717  -13.5310   20.9348 C   0  0  0  0  0  0  0  0  0  0  0  0
  -26.6921  -26.9812   24.6205 C   0  0  0  0  0  0  0  0  0  0  0  0
  -23.7695  -26.0636   23.5534 C   0  0  0  0  0  0  0  0  0  0  0  0
  -21.7370  -23.5397   22.4832 C   0  0  0  0  0  0  0  0  0  0  0  0
  -31.0422  -12.7756   21.5813 C   0  0  0  0  0  0  0  0  0  0  0  0
  -27.2753  -31.9585   25.5918 C   0  0  0  0  0  0  0  0  0  0  0  0
  -27.2971  -25.6997   22.5354 C   0  0  0  0  0  0  0  0  0  0  0  0
  -25.3611  -24.2196   24.2104 C   0  0  0  0  0  0  0  0  0  0  0  0
  -26.1293  -30.9545   25.6870 C   0  0  0  0  0  0  0  0  0  0  0  0
  -29.5219  -13.4808   18.4399 C   0  0  0  0  0  0  0  0  0  0  0  0
  -26.5839  -29.6929   26.4140 C   0  0  0  0  0  0  0  0  0  0  0  0
  -28.0350  -13.2195   18.6863 C   0  0  0  0  0  0  0  0  0  0  0  0
  -30.4025  -12.4950   19.2046 C   0  0  0  0  0  0  0  0  0  0  0  0
  -28.6451  -12.1558   20.8988 C   0  0  0  0  0  0  0  0  0  0  0  0
  -27.7200  -28.9975   25.6543 C   0  0  1  0  0  0  0  0  0  0  0  0
  -26.2006  -26.4154   23.3182 C   0  0  1  0  0  0  0  0  0  0  0  0
  -27.7182  -13.1601   20.1928 C   0  0  2  0  0  0  0  0  0  0  0  0
  -28.3238  -17.5725   22.4403 C   0  0  0  0  0  0  0  0  0  0  0  0
  -19.3896  -23.0909   21.7180 C   0  0  0  0  0  0  0  0  0  0  0  0
  -22.7957  -26.2500   26.4391 C   0  0  0  0  0  0  0  0  0  0  0  0
  -20.7876  -24.9105   25.7746 C   0  0  0  0  0  0  0  0  0  0  0  0
  -21.1945  -27.1427   24.7381 C   0  0  0  0  0  0  0  0  0  0  0  0
  -22.6576  -22.5954   19.8337 C   0  0  0  0  0  0  0  0  0  0  0  0
  -30.1805  -15.1038   24.7593 C   0  0  0  0  0  0  0  0  0  0  0  0
  -29.9129  -20.0779   24.2746 C   0  0  0  0  0  0  0  0  0  1  0  0
  -31.5614  -14.5189   24.3625 C   0  0  0  0  0  0  0  0  0  0  0  0
  -29.7818  -17.3787   22.8200 C   0  0  0  0  0  0  0  0  0  0  0  0
  -31.5260  -13.0354   24.0015 C   0  0  0  0  0  0  0  0  0  0  0  0
  -22.6619  -25.1888   24.0892 C   0  0  1  0  0  0  0  0  0  0  0  0
  -20.8075  -23.4331   21.2877 C   0  0  2  0  0  0  0  0  0  0  0  0
  -21.8862  -25.8628   25.2560 C   0  0  0  0  0  0  0  0  0  0  0  0
  -25.8701  -11.5801   20.6058 N   0  0  0  0  0  0  0  0  0  0  0  0
  -30.0044  -17.5401   24.2447 N   0  0  0  0  0  0  0  0  0  0  0  0
  -26.2525  -12.8584   20.4451 N   0  0  0  0  0  0  0  0  0  0  0  0
  -30.2795  -18.4605   26.1766 N   0  3  0  0  0  0  0  0  0  0  0  0
  -25.0683  -25.5416   23.6325 N   0  0  0  0  0  0  0  0  0  0  0  0
  -30.0523  -12.4882   20.6271 N   0  0  0  0  0  0  0  0  0  0  0  0
  -25.4376  -15.0820   20.3970 N   0  0  0  0  0  0  0  0  0  0  0  0
  -21.7255  -12.6283   21.1692 N   0  0  0  0  0  0  0  0  0  0  0  0
  -27.1961  -28.2640   24.5221 N   0  0  0  0  0  0  0  0  0  0  0  0
  -21.8301  -24.8360   22.9437 N   0  0  0  0  0  0  0  0  0  0  0  0
  -30.6247  -12.7541   22.9064 N   0  0  0  0  0  0  0  0  0  0  0  0
  -21.2839  -22.3737   20.3540 N   0  3  0  0  0  0  0  0  0  0  0  0
  -22.5193  -14.7575   20.8604 O   0  0  0  0  0  0  0  0  0  0  0  0
  -26.6182  -26.3045   25.6395 O   0  0  0  0  0  0  0  0  0  0  0  0
  -23.4916  -27.1664   23.0756 O   0  0  0  0  0  0  0  0  0  0  0  0
  -22.3191  -22.5693   22.9630 O   0  0  0  0  0  0  0  0  0  0  0  0
  -32.2103  -13.0376   21.2747 O   0  0  0  0  0  0  0  0  0  0  0  0
  -21.4835   -7.0832   21.6474 O   0  0  0  0  0  0  0  0  0  0  0  0
  -28.6248  -20.5960   24.6045 O   0  0  0  0  0  0  0  0  0  1  0  0
  -23.4477   -3.2963   25.1410 F   0  0  0  0  0  0  0  0  0  0  0  0
  -20.0630   -6.3671   23.9084 F   0  0  0  0  0  0  0  0  0  0  0  0
  1  2  1  0  0  0  0
  1  5  2  0  0  0  0
  2  6  2  0  0  0  0
  3  8  2  0  0  0  0
  3 16  1  0  0  0  0
  4  9  1  0  0  0  0
  4 16  2  0  0  0  0
  5 18  1  0  0  0  0
  6 20  1  0  0  0  0
  7 10  2  0  0  0  0
  7 19  1  0  0  0  0
  8 22  1  0  0  0  0
  9 22  2  0  0  0  0
 10 23  1  0  0  0  0
 11 12  2  0  0  0  0
 11 24  1  0  0  0  0
 12 25  1  0  0  0  0
 13 21  1  0  0  0  0
 13 23  2  0  0  0  0
 14 25  2  0  0  0  0
 14 26  1  0  0  0  0
 15 28  2  0  0  0  0
 15 65  1  0  0  0  0
 16 27  1  0  0  0  0
 17 27  1  0  0  0  0
 17 29  2  0  0  0  0
 17 31  1  0  0  0  0
 18 20  2  0  0  0  0
 18 36  1  0  0  0  0
 19 21  2  0  0  0  0
 19 37  1  0  0  0  0
 20 45  1  0  0  0  0
 21 38  1  0  0  0  0
 22 79  1  0  0  0  0
 23 80  1  0  0  0  0
 24 26  2  0  0  0  0
 24 79  1  0  0  0  0
 25 81  1  0  0  0  0
 26 82  1  0  0  0  0
 27 62  2  0  0  0  0
 28 54  1  0  0  0  0
 28 63  1  0  0  0  0
 29 64  1  0  0  0  0
 29 68  1  0  0  0  0
 30 55  1  0  0  0  0
 30 63  1  0  0  0  0
 30 65  2  0  0  0  0
 31 69  1  0  0  0  0
 31 74  2  0  0  0  0
 32 46  1  0  0  0  0
 32 70  1  0  0  0  0
 32 75  2  0  0  0  0
 33 59  1  0  0  0  0
 33 66  1  0  0  0  0
 33 76  2  0  0  0  0
 34 60  1  0  0  0  0
 34 71  1  0  0  0  0
 34 77  2  0  0  0  0
 35 67  1  0  0  0  0
 35 72  1  0  0  0  0
 35 78  2  0  0  0  0
 36 39  1  0  0  0  0
 37 46  1  0  0  0  0
 38 66  1  0  0  0  0
 39 41  1  0  0  0  0
 40 42  1  0  0  0  0
 40 43  1  0  0  0  0
 41 45  1  0  0  0  0
 42 47  1  0  0  0  0
 43 67  1  0  0  0  0
 44 47  1  0  0  0  0
 44 67  1  0  0  0  0
 45 70  1  0  0  0  0
 46 66  1  0  0  0  0
 47 64  1  0  0  0  0
 48 57  1  0  0  0  0
 49 60  1  0  0  0  0
 50 61  1  0  0  0  0
 51 61  1  0  0  0  0
 52 61  1  0  0  0  0
 53 73  1  0  0  0  0
 54 56  1  0  0  0  0
 55 80  1  0  0  0  0
 56 58  1  0  0  0  0
 57 63  1  0  0  0  0
 58 72  1  0  0  0  0
 59 61  1  0  0  0  0
 59 71  1  0  0  0  0
 60 73  1  0  0  0  0
 62 64  1  0  0  0  0
M  CHG  2  65   1  73   1
M  ISO  4  35 100  55 101  72 100  80 101
M  END
> <Batch ID>
0043

> <Smiles>
CCn1c(CCC[100NH:0][100C:0](=O)N2CCCC(n3nc(-c4ccc(Oc5ccc(F)cc5F)cc4)c(C(N)=O)c3N)C2)cnc1[101CH2:1][101O:1]c1ccc2c(c1)CN(C(=O)C(NC(=O)C(C)NC)C(C)(C)C)C(C(=O)NC1CCCc3ccccc31)C2

> <Shape>
0.193

> <Color>
0.184

> <Negative vol penalty>
0.000

$$$$

  -OEChem-04052317143D

 81 89  0     1  0  0  0  0  0999 V2000
  -15.3039  -26.4958   21.2525 C   0  0  0  0  0  0  0  0  0  0  0  0
  -16.5186  -26.2074   21.8664 C   0  0  0  0  0  0  0  0  0  0  0  0
  -22.9994   -9.8960   19.9820 C   0  0  0  0  0  0  0  0  0  0  0  0
  -23.7305   -9.9446   22.2842 C   0  0  0  0  0  0  0  0  0  0  0  0
  -14.5562  -25.4712   20.6736 C   0  0  0  0  0  0  0  0  0  0  0  0
  -16.9857  -24.8940   21.9027 C   0  0  0  0  0  0  0  0  0  0  0  0
  -22.8170  -23.0504   21.5831 C   0  0  0  0  0  0  0  0  0  0  0  0
  -22.2342   -8.7608   20.2489 C   0  0  0  0  0  0  0  0  0  0  0  0
  -22.9652   -8.8094   22.5512 C   0  0  0  0  0  0  0  0  0  0  0  0
  -23.7371  -22.6753   22.5611 C   0  0  0  0  0  0  0  0  0  0  0  0
  -23.2101   -5.4712   22.0747 C   0  0  0  0  0  0  0  0  0  0  0  0
  -23.8001   -4.4534   22.8241 C   0  0  0  0  0  0  0  0  0  0  0  0
  -23.1747  -20.3585   22.1929 C   0  0  0  0  0  0  0  0  0  0  0  0
  -22.0804   -4.6934   24.5040 C   0  0  0  0  0  0  0  0  0  0  0  0
  -27.6895  -17.9177   22.8549 C   0  0  0  0  0  0  0  0  0  0  0  0
  -28.2494  -20.0072   22.4605 C   0  0  0  0  0  0  0  0  0  0  0  0
  -23.7476  -10.4879   20.9996 C   0  0  0  0  0  0  0  0  0  0  0  0
  -24.1312  -13.0039   20.8256 C   0  0  0  0  0  0  0  0  0  0  0  0
  -15.0190  -24.1461   20.6943 C   0  0  0  0  0  0  0  0  0  0  0  0
  -22.0598  -22.0815   20.9092 C   0  0  0  0  0  0  0  0  0  0  0  0
  -16.2428  -23.8506   21.3247 C   0  0  0  0  0  0  0  0  0  0  0  0
  -22.2476  -20.7238   21.2050 C   0  0  0  0  0  0  0  0  0  0  0  0
  -28.3757  -18.7414   21.9425 C   0  0  0  0  0  0  0  0  0  0  0  0
  -22.2171   -8.2175   21.5335 C   0  0  0  0  0  0  0  0  0  0  0  0
  -23.9140  -21.3293   22.8682 C   0  0  0  0  0  0  0  0  0  0  0  0
  -22.0552   -6.1002   22.5400 C   0  0  0  0  0  0  0  0  0  0  0  0
  -23.2352   -4.0645   24.0387 C   0  0  0  0  0  0  0  0  0  0  0  0
  -21.4904   -5.7112   23.7546 C   0  0  0  0  0  0  0  0  0  0  0  0
  -24.5388  -11.6603   20.7244 C   0  0  0  0  0  0  0  0  0  0  0  0
  -25.2396  -13.7275   20.4593 C   0  0  0  0  0  0  0  0  0  0  0  0
  -22.8639  -13.5492   21.2161 C   0  0  0  0  0  0  0  0  0  0  0  0
  -18.9578  -21.4349   20.6571 C   0  0  0  0  0  0  0  0  0  0  0  0
  -19.9877  -19.2454   18.4965 C   0  0  0  0  0  0  0  0  0  0  0  0
  -22.5265  -17.2674   17.3614 C   0  0  0  0  0  0  0  0  0  0  0  0
  -30.7361  -14.6648   20.6949 C   0  0  0  0  0  0  0  0  0  0  0  0
  -14.1531  -23.0653   20.0968 C   0  0  0  0  0  0  0  0  0  0  0  0
  -21.0907  -22.5008   19.8380 C   0  0  0  0  0  0  0  0  0  0  0  0
  -21.4739  -19.6433   20.4960 C   0  0  0  0  0  0  0  0  0  0  0  0
  -14.8975  -21.7558   19.8492 C   0  0  0  0  0  0  0  0  0  0  0  0
  -29.5907  -12.2433   18.3494 C   0  0  0  0  0  0  0  0  0  0  0  0
  -15.7315  -21.3769   21.0689 C   0  0  0  0  0  0  0  0  0  0  0  0
  -28.1434  -11.9823   18.7704 C   0  0  0  0  0  0  0  0  0  0  0  0
  -30.4961  -12.4777   19.5566 C   0  0  0  0  0  0  0  0  0  0  0  0
  -28.5890  -13.2706   20.9012 C   0  0  0  0  0  0  0  0  0  0  0  0
  -16.7948  -22.4421   21.3627 C   0  0  1  0  0  0  0  0  0  0  0  0
  -20.0025  -21.4637   19.5775 C   0  0  1  0  0  0  0  0  0  0  0  0
  -27.6270  -13.0838   19.7155 C   0  0  2  0  0  0  0  0  0  0  0  0
  -23.0564  -15.5588   15.6015 C   0  0  0  0  0  0  0  0  0  0  0  0
  -18.4330  -17.1447   20.0713 C   0  0  0  0  0  0  0  0  0  0  0  0
  -19.7394  -15.3785   18.8704 C   0  0  0  0  0  0  0  0  0  0  0  0
  -18.2613  -16.9240   17.5861 C   0  0  0  0  0  0  0  0  0  0  0  0
  -24.6430  -18.9677   16.1830 C   0  0  0  0  0  0  0  0  0  0  0  0
  -29.0744  -18.3390   20.7116 C   0  0  0  0  0  0  0  0  0  0  0  0
  -30.5707  -17.9780   20.8924 C   0  0  0  0  0  0  0  0  0  0  0  0
  -27.1149  -20.9789   24.5461 C   0  0  0  0  0  0  0  0  0  0  0  0
  -30.8207  -16.8423   21.8824 C   0  0  0  0  0  0  0  0  0  0  0  0
  -25.9510  -21.7999   24.0019 C   0  0  0  0  0  0  0  0  0  1  0  0
  -20.4223  -17.8012   18.5621 C   0  0  1  0  0  0  0  0  0  0  0  0
  -23.0755  -17.0353   15.9652 C   0  0  2  0  0  0  0  0  0  0  0  0
  -19.2273  -16.8323   18.7874 C   0  0  0  0  0  0  0  0  0  0  0  0
  -27.1662  -18.6026   23.8752 N   0  0  0  0  0  0  0  0  0  0  0  0
  -25.8071  -11.5349   20.3248 N   0  0  0  0  0  0  0  0  0  0  0  0
  -27.5237  -19.8701   23.6071 N   0  0  0  0  0  0  0  0  0  0  0  0
  -26.2060  -12.8091   20.1717 N   0  0  0  0  0  0  0  0  0  0  0  0
  -20.5338  -20.1041   19.4610 N   0  0  0  0  0  0  0  0  0  0  0  0
  -29.9509  -13.5351   20.4114 N   0  0  0  0  0  0  0  0  0  0  0  0
  -25.4721  -15.0535   20.3582 N   0  0  0  0  0  0  0  0  0  0  0  0
  -21.8335  -12.6641   21.5612 N   0  0  0  0  0  0  0  0  0  0  0  0
  -17.9088  -22.3098   20.4483 N   0  0  0  0  0  0  0  0  0  0  0  0
  -21.1763  -17.5459   17.3395 N   0  0  0  0  0  0  0  0  0  0  0  0
  -30.1413  -15.6222   21.5074 N   0  0  0  0  0  0  0  0  0  0  0  0
  -24.4804  -17.5239   15.8731 N   0  3  0  0  0  0  0  0  0  0  0  0
  -22.6466  -14.7844   21.2418 O   0  0  0  0  0  0  0  0  0  0  0  0
  -19.0927  -20.6740   21.6082 O   0  0  0  0  0  0  0  0  0  0  0  0
  -19.1985  -19.6001   17.6173 O   0  0  0  0  0  0  0  0  0  0  0  0
  -23.2249  -17.2041   18.3707 O   0  0  0  0  0  0  0  0  0  0  0  0
  -31.8803  -14.8118   20.2520 O   0  0  0  0  0  0  0  0  0  0  0  0
  -21.4702   -7.1099   21.7944 O   0  0  0  0  0  0  0  0  0  0  0  0
  -24.8110  -20.9605   23.8228 O   0  0  0  0  0  0  0  0  0  1  0  0
  -23.8010   -3.0860   24.7575 F   0  0  0  0  0  0  0  0  0  0  0  0
  -20.3803   -6.3110   24.2062 F   0  0  0  0  0  0  0  0  0  0  0  0
  1  2  1  0  0  0  0
  1  5  2  0  0  0  0
  2  6  2  0  0  0  0
  3  8  2  0  0  0  0
  3 17  1  0  0  0  0
  4  9  1  0  0  0  0
  4 17  2  0  0  0  0
  5 19  1  0  0  0  0
  6 21  1  0  0  0  0
  7 10  2  0  0  0  0
  7 20  1  0  0  0  0
  8 24  1  0  0  0  0
  9 24  2  0  0  0  0
 10 25  1  0  0  0  0
 11 12  2  0  0  0  0
 11 26  1  0  0  0  0
 12 27  1  0  0  0  0
 13 22  1  0  0  0  0
 13 25  2  0  0  0  0
 14 27  2  0  0  0  0
 14 28  1  0  0  0  0
 15 23  1  0  0  0  0
 15 61  2  0  0  0  0
 16 23  2  0  0  0  0
 16 63  1  0  0  0  0
 17 29  1  0  0  0  0
 18 29  1  0  0  0  0
 18 30  2  0  0  0  0
 18 31  1  0  0  0  0
 19 21  2  0  0  0  0
 19 36  1  0  0  0  0
 20 22  2  0  0  0  0
 20 37  1  0  0  0  0
 21 45  1  0  0  0  0
 22 38  1  0  0  0  0
 23 53  1  0  0  0  0
 24 78  1  0  0  0  0
 25 79  1  0  0  0  0
 26 28  2  0  0  0  0
 26 78  1  0  0  0  0
 27 80  1  0  0  0  0
 28 81  1  0  0  0  0
 29 62  2  0  0  0  0
 30 64  1  0  0  0  0
 30 67  1  0  0  0  0
 31 68  1  0  0  0  0
 31 73  2  0  0  0  0
 32 46  1  0  0  0  0
 32 69  1  0  0  0  0
 32 74  2  0  0  0  0
 33 58  1  0  0  0  0
 33 65  1  0  0  0  0
 33 75  2  0  0  0  0
 34 59  1  0  0  0  0
 34 70  1  0  0  0  0
 34 76  2  0  0  0  0
 35 66  1  0  0  0  0
 35 71  1  0  0  0  0
 35 77  2  0  0  0  0
 36 39  1  0  0  0  0
 37 46  1  0  0  0  0
 38 65  1  0  0  0  0
 39 41  1  0  0  0  0
 40 42  1  0  0  0  0
 40 43  1  0  0  0  0
 41 45  1  0  0  0  0
 42 47  1  0  0  0  0
 43 66  1  0  0  0  0
 44 47  1  0  0  0  0
 44 66  1  0  0  0  0
 45 69  1  0  0  0  0
 46 65  1  0  0  0  0
 47 64  1  0  0  0  0
 48 59  1  0  0  0  0
 49 60  1  0  0  0  0
 50 60  1  0  0  0  0
 51 60  1  0  0  0  0
 52 72  1  0  0  0  0
 53 54  1  0  0  0  0
 54 56  1  0  0  0  0
 55 57  1  0  0  0  0
 55 63  1  0  0  0  0
 56 71  1  0  0  0  0
 57 79  1  0  0  0  0
 58 60  1  0  0  0  0
 58 70  1  0  0  0  0
 59 72  1  0  0  0  0
 61 63  1  0  0  0  0
 62 64  1  0  0  0  0
M  CHG  1  72   1
M  ISO  4  35 100  57 101  71 100  79 101
M  END
> <Batch ID>
0043

> <Smiles>
CNC(C)C(=O)NC(C(=O)N1Cc2cc([101O:1][101CH2:1]Cn3cc(CCC[100NH:0][100C:0](=O)N4CCCC(n5nc(-c6ccc(Oc7ccc(F)cc7F)cc6)c(C(N)=O)c5N)C4)cn3)ccc2CC1C(=O)NC1CCCc2ccccc21)C(C)(C)C

> <Shape>
0.189

> <Color>
0.202

> <Negative vol penalty>
0.000

$$$$

  -OEChem-04052317143D

 85 93  0     1  0  0  0  0  0999 V2000
  -17.7523  -29.9440   23.2178 C   0  0  0  0  0  0  0  0  0  0  0  0
  -19.0604  -29.5808   23.5219 C   0  0  0  0  0  0  0  0  0  0  0  0
  -26.0488  -12.6340   21.6536 C   0  0  0  0  0  0  0  0  0  0  0  0
  -25.6474  -13.1888   19.3367 C   0  0  0  0  0  0  0  0  0  0  0  0
  -16.7981  -28.9600   22.9628 C   0  0  0  0  0  0  0  0  0  0  0  0
  -19.4147  -28.2331   23.5721 C   0  0  0  0  0  0  0  0  0  0  0  0
  -23.7945  -27.2867   21.2128 C   0  0  0  0  0  0  0  0  0  0  0  0
  -24.7098  -12.2713   21.7987 C   0  0  0  0  0  0  0  0  0  0  0  0
  -24.3084  -12.8260   19.4818 C   0  0  0  0  0  0  0  0  0  0  0  0
  -24.9673  -27.6130   21.8924 C   0  0  0  0  0  0  0  0  0  0  0  0
  -22.7498   -9.6235   21.0370 C   0  0  0  0  0  0  0  0  0  0  0  0
  -22.4696   -8.4342   21.7099 C   0  0  0  0  0  0  0  0  0  0  0  0
  -25.2356  -25.3011   22.5270 C   0  0  0  0  0  0  0  0  0  0  0  0
  -21.1990   -9.6647   23.3557 C   0  0  0  0  0  0  0  0  0  0  0  0
  -30.7888  -26.2313   20.4296 C   0  0  0  0  0  0  0  0  0  0  0  0
  -26.5176  -13.0929   20.4226 C   0  0  0  0  0  0  0  0  0  0  0  0
  -28.9700  -12.6374   19.8879 C   0  0  0  0  0  0  0  0  0  0  0  0
  -17.1432  -27.5998   23.0005 C   0  0  0  0  0  0  0  0  0  0  0  0
  -23.3269  -25.9648   21.1943 C   0  0  0  0  0  0  0  0  0  0  0  0
  -18.4639  -27.2298   23.3187 C   0  0  0  0  0  0  0  0  0  0  0  0
  -24.0580  -24.9602   21.8443 C   0  0  0  0  0  0  0  0  0  0  0  0
  -23.8396  -12.3673   20.7128 C   0  0  0  0  0  0  0  0  0  0  0  0
  -25.6865  -26.6206   22.5520 C   0  0  0  0  0  0  0  0  0  0  0  0
  -22.2546  -10.8334   21.5235 C   0  0  0  0  0  0  0  0  0  0  0  0
  -21.6942   -8.4548   22.8692 C   0  0  0  0  0  0  0  0  0  0  0  0
  -21.4792  -10.8540   22.6828 C   0  0  0  0  0  0  0  0  0  0  0  0
  -27.9006  -13.4683   20.2723 C   0  0  0  0  0  0  0  0  0  0  0  0
  -29.5883  -26.7465   20.8665 C   0  0  0  0  0  0  0  0  0  0  0  0
  -28.5585  -25.9364   18.9921 C   0  0  0  0  0  0  0  0  0  0  0  0
  -29.7592  -25.4218   18.5550 C   0  0  0  0  0  0  0  0  0  0  0  0
  -30.0668  -13.4641   19.8950 C   0  0  0  0  0  0  0  0  0  0  0  0
  -28.9718  -11.2430   19.5542 C   0  0  0  0  0  0  0  0  0  0  0  0
  -20.7006  -24.5000   22.2243 C   0  0  0  0  0  0  0  0  0  0  0  0
  -21.9990  -21.9456   20.7038 C   0  0  0  0  0  0  0  0  0  0  0  0
  -24.7977  -20.3980   19.5126 C   0  0  0  0  0  0  0  0  0  0  0  0
  -30.5982  -19.3001   19.1775 C   0  0  0  0  0  0  0  0  0  0  0  0
  -16.0662  -26.5708   22.7642 C   0  0  0  0  0  0  0  0  0  0  0  0
  -22.0743  -25.6246   20.4342 C   0  0  0  0  0  0  0  0  0  0  0  0
  -23.6095  -23.5225   21.8375 C   0  0  0  0  0  0  0  0  0  0  0  0
  -16.6110  -25.1755   22.4695 C   0  0  0  0  0  0  0  0  0  0  0  0
  -31.7787  -17.3963   22.0199 C   0  0  0  0  0  0  0  0  0  0  0  0
  -17.7089  -24.8102   23.4634 C   0  0  0  0  0  0  0  0  0  0  0  0
  -31.0092  -16.0853   21.8487 C   0  0  0  0  0  0  0  0  0  0  0  0
  -30.9221  -18.5957   21.6252 C   0  0  0  0  0  0  0  0  0  0  0  0
  -29.5950  -17.2177   20.0717 C   0  0  0  0  0  0  0  0  0  0  0  0
  -18.8928  -25.7791   23.3585 C   0  0  1  0  0  0  0  0  0  0  0  0
  -21.4164  -24.3343   20.9136 C   0  0  1  0  0  0  0  0  0  0  0  0
  -30.4144  -15.9655   20.4330 C   0  0  2  0  0  0  0  0  0  0  0  0
  -27.3085  -25.7759   18.1963 C   0  0  0  0  0  0  0  0  0  0  0  0
  -25.5475  -18.3029   18.3525 C   0  0  0  0  0  0  0  0  0  0  0  0
  -21.6856  -20.3924   23.3114 C   0  0  0  0  0  0  0  0  0  0  0  0
  -23.2752  -18.6843   22.4038 C   0  0  0  0  0  0  0  0  0  0  0  0
  -21.1025  -19.1004   21.2510 C   0  0  0  0  0  0  0  0  0  0  0  0
  -25.8492  -21.9164   17.2001 C   0  0  0  0  0  0  0  0  0  0  0  0
  -29.5067  -27.4934   22.1738 C   0  0  0  0  0  0  0  0  0  0  0  0
  -29.8641  -24.6807   17.2659 C   0  0  0  0  0  0  0  0  0  0  0  0
  -29.2011  -26.5981   23.3766 C   0  0  0  0  0  0  0  0  0  0  0  0
  -30.9360  -23.5802   17.3123 C   0  0  0  0  0  0  0  0  0  0  0  0
  -30.6169  -22.5215   18.3720 C   0  0  0  0  0  0  0  0  0  0  0  0
  -31.6621  -21.4120   18.4259 C   0  0  0  0  0  0  0  0  0  0  0  0
  -27.8354  -25.9258   23.2974 C   0  0  0  0  0  0  0  0  0  1  0  0
  -22.9387  -20.8315   21.0971 C   0  0  1  0  0  0  0  0  0  0  0  0
  -25.0952  -19.7440   18.1753 C   0  0  2  0  0  0  0  0  0  0  0  0
  -22.2582  -19.7795   22.0177 C   0  0  0  0  0  0  0  0  0  0  0  0
  -30.8958  -25.5598   19.2660 N   0  0  0  0  0  0  0  0  0  0  0  0
  -28.2834  -14.7263   20.5066 N   0  0  0  0  0  0  0  0  0  0  0  0
  -28.4516  -26.6082   20.1556 N   0  0  0  0  0  0  0  0  0  0  0  0
  -29.6057  -14.6920   20.2690 N   0  0  0  0  0  0  0  0  0  0  0  0
  -22.3752  -23.2411   21.0858 N   0  0  0  0  0  0  0  0  0  0  0  0
  -30.4021  -18.4277   20.2609 N   0  0  0  0  0  0  0  0  0  0  0  0
  -31.3711  -13.2533   19.6178 N   0  0  0  0  0  0  0  0  0  0  0  0
  -27.7578  -10.5440   19.5978 N   0  0  0  0  0  0  0  0  0  0  0  0
  -19.7067  -25.4597   22.2052 N   0  0  0  0  0  0  0  0  0  0  0  0
  -23.4662  -20.2838   19.8520 N   0  0  0  0  0  0  0  0  0  0  0  0
  -31.3684  -20.4259   19.4420 N   0  0  0  0  0  0  0  0  0  0  0  0
  -26.1703  -20.4897   17.4618 N   0  3  0  0  0  0  0  0  0  0  0  0
  -30.0217  -10.6312   19.2428 O   0  0  0  0  0  0  0  0  0  0  0  0
  -21.0251  -23.8072   23.1816 O   0  0  0  0  0  0  0  0  0  0  0  0
  -20.9726  -21.6771   20.0744 O   0  0  0  0  0  0  0  0  0  0  0  0
  -25.6610  -20.9514   20.1902 O   0  0  0  0  0  0  0  0  0  0  0  0
  -30.1261  -19.0886   18.0552 O   0  0  0  0  0  0  0  0  0  0  0  0
  -22.5330  -12.0131   20.8540 O   0  0  0  0  0  0  0  0  0  0  0  0
  -26.8312  -26.9365   23.2167 O   0  0  0  0  0  0  0  0  0  1  0  0
  -21.4239   -7.3125   23.5143 F   0  0  0  0  0  0  0  0  0  0  0  0
  -20.9997  -12.0131   23.1544 F   0  0  0  0  0  0  0  0  0  0  0  0
  1  2  1  0  0  0  0
  1  5  2  0  0  0  0
  2  6  2  0  0  0  0
  3  8  2  0  0  0  0
  3 16  1  0  0  0  0
  4  9  1  0  0  0  0
  4 16  2  0  0  0  0
  5 18  1  0  0  0  0
  6 20  1  0  0  0  0
  7 10  2  0  0  0  0
  7 19  1  0  0  0  0
  8 22  1  0  0  0  0
  9 22  2  0  0  0  0
 10 23  1  0  0  0  0
 11 12  2  0  0  0  0
 11 24  1  0  0  0  0
 12 25  1  0  0  0  0
 13 21  1  0  0  0  0
 13 23  2  0  0  0  0
 14 25  2  0  0  0  0
 14 26  1  0  0  0  0
 15 28  1  0  0  0  0
 15 65  2  0  0  0  0
 16 27  1  0  0  0  0
 17 27  1  0  0  0  0
 17 31  2  0  0  0  0
 17 32  1  0  0  0  0
 18 20  2  0  0  0  0
 18 37  1  0  0  0  0
 19 21  2  0  0  0  0
 19 38  1  0  0  0  0
 20 46  1  0  0  0  0
 21 39  1  0  0  0  0
 22 82  1  0  0  0  0
 23 83  1  0  0  0  0
 24 26  2  0  0  0  0
 24 82  1  0  0  0  0
 25 84  1  0  0  0  0
 26 85  1  0  0  0  0
 27 66  2  0  0  0  0
 28 55  1  0  0  0  0
 28 67  2  0  0  0  0
 29 30  2  0  0  0  0
 29 49  1  0  0  0  0
 29 67  1  0  0  0  0
 30 56  1  0  0  0  0
 30 65  1  0  0  0  0
 31 68  1  0  0  0  0
 31 71  1  0  0  0  0
 32 72  1  0  0  0  0
 32 77  2  0  0  0  0
 33 47  1  0  0  0  0
 33 73  1  0  0  0  0
 33 78  2  0  0  0  0
 34 62  1  0  0  0  0
 34 69  1  0  0  0  0
 34 79  2  0  0  0  0
 35 63  1  0  0  0  0
 35 74  1  0  0  0  0
 35 80  2  0  0  0  0
 36 70  1  0  0  0  0
 36 75  1  0  0  0  0
 36 81  2  0  0  0  0
 37 40  1  0  0  0  0
 38 47  1  0  0  0  0
 39 69  1  0  0  0  0
 40 42  1  0  0  0  0
 41 43  1  0  0  0  0
 41 44  1  0  0  0  0
 42 46  1  0  0  0  0
 43 48  1  0  0  0  0
 44 70  1  0  0  0  0
 45 48  1  0  0  0  0
 45 70  1  0  0  0  0
 46 73  1  0  0  0  0
 47 69  1  0  0  0  0
 48 68  1  0  0  0  0
 50 63  1  0  0  0  0
 51 64  1  0  0  0  0
 52 64  1  0  0  0  0
 53 64  1  0  0  0  0
 54 76  1  0  0  0  0
 55 57  1  0  0  0  0
 56 58  1  0  0  0  0
 57 61  1  0  0  0  0
 58 59  1  0  0  0  0
 59 60  1  0  0  0  0
 60 75  1  0  0  0  0
 61 83  1  0  0  0  0
 62 64  1  0  0  0  0
 62 74  1  0  0  0  0
 63 76  1  0  0  0  0
 66 68  1  0  0  0  0
M  CHG  1  76   1
M  ISO  4  36 100  61 101  75 100  83 101
M  END
> <Batch ID>
0043

> <Smiles>
CNC(C)C(=O)NC(C(=O)N1Cc2cc([101O:1][101CH2:1]CCc3cnc(CCCC[100NH:0][100C:0](=O)N4CCCC(n5nc(-c6ccc(Oc7ccc(F)cc7F)cc6)c(C(N)=O)c5N)C4)c(C)n3)ccc2CC1C(=O)NC1CCCc2ccccc21)C(C)(C)C

> <Shape>
0.247

> <Color>
0.072

> <Negative vol penalty>
0.000

$$$$

  -OEChem-04052317143D

 88 96  0     1  0  0  0  0  0999 V2000
  -30.8626  -30.4011   23.6505 C   0  0  0  0  0  0  0  0  0  0  0  0
  -31.2386  -29.2207   23.0175 C   0  0  0  0  0  0  0  0  0  0  0  0
  -23.0598   -9.9060   19.9408 C   0  0  0  0  0  0  0  0  0  0  0  0
  -23.8332   -9.8908   22.2296 C   0  0  0  0  0  0  0  0  0  0  0  0
  -29.5127  -30.7310   23.7630 C   0  0  0  0  0  0  0  0  0  0  0  0
  -30.2647  -28.3689   22.4976 C   0  0  0  0  0  0  0  0  0  0  0  0
  -30.6972  -24.9291   17.4492 C   0  0  0  0  0  0  0  0  0  0  0  0
  -22.3080   -8.7572   20.1871 C   0  0  0  0  0  0  0  0  0  0  0  0
  -23.0814   -8.7420   22.4760 C   0  0  0  0  0  0  0  0  0  0  0  0
  -30.9960  -23.5811   17.2554 C   0  0  0  0  0  0  0  0  0  0  0  0
  -19.8505   -7.9662   23.0921 C   0  0  0  0  0  0  0  0  0  0  0  0
  -19.1001   -7.9242   24.2672 C   0  0  0  0  0  0  0  0  0  0  0  0
  -28.6385  -23.0759   17.1779 C   0  0  0  0  0  0  0  0  0  0  0  0
  -20.3300   -5.9716   24.9828 C   0  0  0  0  0  0  0  0  0  0  0  0
  -28.4450  -18.7334   22.0108 C   0  0  0  0  0  0  0  0  0  0  0  0
  -23.8224  -10.4728   20.9620 C   0  0  0  0  0  0  0  0  0  0  0  0
  -24.1841  -12.9959   20.8575 C   0  0  0  0  0  0  0  0  0  0  0  0
  -28.5221  -29.8875   23.2357 C   0  0  0  0  0  0  0  0  0  0  0  0
  -29.3645  -25.3597   17.5199 C   0  0  0  0  0  0  0  0  0  0  0  0
  -28.9001  -28.6871   22.6044 C   0  0  0  0  0  0  0  0  0  0  0  0
  -28.3254  -24.4302   17.3702 C   0  0  0  0  0  0  0  0  0  0  0  0
  -29.1391  -18.3843   20.8635 C   0  0  0  0  0  0  0  0  0  0  0  0
  -28.4480  -18.3924   19.6570 C   0  0  0  0  0  0  0  0  0  0  0  0
  -27.1030  -18.7443   19.6350 C   0  0  0  0  0  0  0  0  0  0  0  0
  -22.3188   -8.1752   21.4547 C   0  0  0  0  0  0  0  0  0  0  0  0
  -29.9666  -22.6539   17.1226 C   0  0  0  0  0  0  0  0  0  0  0  0
  -20.8405   -7.0108   22.8623 C   0  0  0  0  0  0  0  0  0  0  0  0
  -19.3399   -6.9269   25.2125 C   0  0  0  0  0  0  0  0  0  0  0  0
  -21.0803   -6.0136   23.8076 C   0  0  0  0  0  0  0  0  0  0  0  0
  -24.5997  -11.6591   20.7080 C   0  0  0  0  0  0  0  0  0  0  0  0
  -26.5001  -19.0771   20.8373 C   0  0  0  0  0  0  0  0  0  0  0  0
  -25.2802  -13.7390   20.4930 C   0  0  0  0  0  0  0  0  0  0  0  0
  -22.9204  -13.5190   21.2876 C   0  0  0  0  0  0  0  0  0  0  0  0
  -27.5758  -26.7641   19.7406 C   0  0  0  0  0  0  0  0  0  0  0  0
  -25.3866  -26.8780   17.3496 C   0  0  0  0  0  0  0  0  0  0  0  0
  -24.2443  -25.5885   14.4036 C   0  0  0  0  0  0  0  0  0  0  0  0
  -30.7731  -14.7121   20.6558 C   0  0  0  0  0  0  0  0  0  0  0  0
  -27.0736  -30.2631   23.4233 C   0  0  0  0  0  0  0  0  0  0  0  0
  -29.0589  -26.8210   17.7027 C   0  0  0  0  0  0  0  0  0  0  0  0
  -26.8781  -24.8442   17.4183 C   0  0  0  0  0  0  0  0  0  0  0  0
  -26.1212  -29.4897   22.5150 C   0  0  0  0  0  0  0  0  0  0  0  0
  -29.6020  -12.3537   18.2593 C   0  0  0  0  0  0  0  0  0  0  0  0
  -26.4566  -28.0018   22.5331 C   0  0  0  0  0  0  0  0  0  0  0  0
  -28.1648  -12.0686   18.6987 C   0  0  0  0  0  0  0  0  0  0  0  0
  -30.5280  -12.5587   19.4562 C   0  0  0  0  0  0  0  0  0  0  0  0
  -28.6405  -13.2954   20.8591 C   0  0  0  0  0  0  0  0  0  0  0  0
  -27.8742  -27.7494   22.0058 C   0  0  1  0  0  0  0  0  0  0  0  0
  -27.6666  -27.0735   18.2731 C   0  0  1  0  0  0  0  0  0  0  0  0
  -27.6580  -13.1370   19.6861 C   0  0  2  0  0  0  0  0  0  0  0  0
  -25.4275  -17.5460   18.2055 C   0  0  0  0  0  0  0  0  0  0  0  0
  -25.4586  -21.9698   20.5403 C   0  0  0  0  0  0  0  0  0  0  0  0
  -24.2300  -18.4600   21.7071 C   0  0  0  0  0  0  0  0  0  0  0  0
  -22.4130  -25.8657   12.7104 C   0  0  0  0  0  0  0  0  0  0  0  0
  -23.4292  -25.5053   19.2455 C   0  0  0  0  0  0  0  0  0  0  0  0
  -21.9993  -24.9614   17.2637 C   0  0  0  0  0  0  0  0  0  0  0  0
  -22.4349  -27.3417   17.8695 C   0  0  0  0  0  0  0  0  0  0  0  0
  -26.1737  -26.2098   12.2471 C   0  0  0  0  0  0  0  0  0  0  0  0
  -30.5800  -18.0158   20.9471 C   0  0  0  0  0  0  0  0  0  0  0  0
  -29.1565  -18.0205   18.3790 C   0  0  0  0  0  0  0  0  0  0  0  0
  -26.3346  -18.7643   18.3564 C   0  0  0  0  0  0  0  0  0  0  0  0
  -24.8019  -20.9001   21.4044 C   0  0  0  0  0  0  0  0  0  0  0  0
  -30.0694  -19.1228   17.8377 C   0  0  0  0  0  0  0  0  0  0  0  0
  -30.8638  -16.8534   21.9072 C   0  0  0  0  0  0  0  0  0  0  0  0
  -29.3181  -20.3879   17.4398 C   0  0  0  0  0  0  0  0  0  1  0  0
  -25.0574  -19.4626   20.8766 C   0  0  1  0  0  0  0  0  0  0  0  0
  -24.2941  -25.9606   16.8558 C   0  0  1  0  0  0  0  0  0  0  0  0
  -23.8285  -26.2567   13.1055 C   0  0  2  0  0  0  0  0  0  0  0  0
  -23.0665  -25.9338   17.8096 C   0  0  0  0  0  0  0  0  0  0  0  0
  -27.1387  -19.0809   22.0288 N   0  0  0  0  0  0  0  0  0  0  0  0
  -25.8612  -11.5560   20.2815 N   0  0  0  0  0  0  0  0  0  0  0  0
  -26.2478  -12.8373   20.1599 N   0  0  0  0  0  0  0  0  0  0  0  0
  -26.6304  -26.2834   17.6052 N   0  0  0  0  0  0  0  0  0  0  0  0
  -29.9911  -13.5854   20.3526 N   0  0  0  0  0  0  0  0  0  0  0  0
  -25.5010  -15.0692   20.4280 N   0  0  0  0  0  0  0  0  0  0  0  0
  -21.9031  -12.6157   21.6245 N   0  0  0  0  0  0  0  0  0  0  0  0
  -27.8977  -27.8285   20.5610 N   0  0  0  0  0  0  0  0  0  0  0  0
  -23.9850  -26.3890   15.4959 N   0  0  0  0  0  0  0  0  0  0  0  0
  -30.1865  -15.6399   21.5078 N   0  0  0  0  0  0  0  0  0  0  0  0
  -24.7500  -25.8634   12.0022 N   0  3  0  0  0  0  0  0  0  0  0  0
  -22.6945  -14.7511   21.3549 O   0  0  0  0  0  0  0  0  0  0  0  0
  -27.2372  -25.6432   20.1020 O   0  0  0  0  0  0  0  0  0  0  0  0
  -25.1473  -28.0792   17.4961 O   0  0  0  0  0  0  0  0  0  0  0  0
  -24.7453  -24.4670   14.4448 O   0  0  0  0  0  0  0  0  0  0  0  0
  -31.9077  -14.8815   20.1966 O   0  0  0  0  0  0  0  0  0  0  0  0
  -21.5851   -7.0543   21.6955 O   0  0  0  0  0  0  0  0  0  0  0  0
  -30.2555  -21.3375   16.9339 O   0  0  0  0  0  0  0  0  0  1  0  0
  -18.6203   -6.8877   26.3416 F   0  0  0  0  0  0  0  0  0  0  0  0
  -22.0309   -5.0938   23.5930 F   0  0  0  0  0  0  0  0  0  0  0  0
  1  2  1  0  0  0  0
  1  5  2  0  0  0  0
  2  6  2  0  0  0  0
  3  8  2  0  0  0  0
  3 16  1  0  0  0  0
  4  9  1  0  0  0  0
  4 16  2  0  0  0  0
  5 18  1  0  0  0  0
  6 20  1  0  0  0  0
  7 10  2  0  0  0  0
  7 19  1  0  0  0  0
  8 25  1  0  0  0  0
  9 25  2  0  0  0  0
 10 26  1  0  0  0  0
 11 12  2  0  0  0  0
 11 27  1  0  0  0  0
 12 28  1  0  0  0  0
 13 21  1  0  0  0  0
 13 26  2  0  0  0  0
 14 28  2  0  0  0  0
 14 29  1  0  0  0  0
 15 22  2  0  0  0  0
 15 69  1  0  0  0  0
 16 30  1  0  0  0  0
 17 30  1  0  0  0  0
 17 32  2  0  0  0  0
 17 33  1  0  0  0  0
 18 20  2  0  0  0  0
 18 38  1  0  0  0  0
 19 21  2  0  0  0  0
 19 39  1  0  0  0  0
 20 47  1  0  0  0  0
 21 40  1  0  0  0  0
 22 23  1  0  0  0  0
 22 58  1  0  0  0  0
 23 24  2  0  0  0  0
 23 59  1  0  0  0  0
 24 31  1  0  0  0  0
 24 60  1  0  0  0  0
 25 85  1  0  0  0  0
 26 86  1  0  0  0  0
 27 29  2  0  0  0  0
 27 85  1  0  0  0  0
 28 87  1  0  0  0  0
 29 88  1  0  0  0  0
 30 70  2  0  0  0  0
 31 65  1  0  0  0  0
 31 69  2  0  0  0  0
 32 71  1  0  0  0  0
 32 74  1  0  0  0  0
 33 75  1  0  0  0  0
 33 80  2  0  0  0  0
 34 48  1  0  0  0  0
 34 76  1  0  0  0  0
 34 81  2  0  0  0  0
 35 66  1  0  0  0  0
 35 72  1  0  0  0  0
 35 82  2  0  0  0  0
 36 67  1  0  0  0  0
 36 77  1  0  0  0  0
 36 83  2  0  0  0  0
 37 73  1  0  0  0  0
 37 78  1  0  0  0  0
 37 84  2  0  0  0  0
 38 41  1  0  0  0  0
 39 48  1  0  0  0  0
 40 72  1  0  0  0  0
 41 43  1  0  0  0  0
 42 44  1  0  0  0  0
 42 45  1  0  0  0  0
 43 47  1  0  0  0  0
 44 49  1  0  0  0  0
 45 73  1  0  0  0  0
 46 49  1  0  0  0  0
 46 73  1  0  0  0  0
 47 76  1  0  0  0  0
 48 72  1  0  0  0  0
 49 71  1  0  0  0  0
 50 60  1  0  0  0  0
 51 61  1  0  0  0  0
 52 65  1  0  0  0  0
 53 67  1  0  0  0  0
 54 68  1  0  0  0  0
 55 68  1  0  0  0  0
 56 68  1  0  0  0  0
 57 79  1  0  0  0  0
 58 63  1  0  0  0  0
 59 62  1  0  0  0  0
 61 65  1  0  0  0  0
 62 64  1  0  0  0  0
 63 78  1  0  0  0  0
 64 86  1  0  0  0  0
 66 68  1  0  0  0  0
 66 77  1  0  0  0  0
 67 79  1  0  0  0  0
 70 71  1  0  0  0  0
M  CHG  1  79   1
M  ISO  4  37 100  64 101  78 100  86 101
M  END
> <Batch ID>
0043

> <Smiles>
CCc1c(C(C)CC)ncc(CC[100NH:0][100C:0](=O)N2CCCC(n3nc(-c4ccc(Oc5ccc(F)cc5F)cc4)c(C(N)=O)c3N)C2)c1CC[101CH2:1][101O:1]c1ccc2c(c1)CN(C(=O)C(NC(=O)C(C)NC)C(C)(C)C)C(C(=O)NC1CCCc3ccccc31)C2

> <Shape>
0.278

> <Color>
0.185

> <Negative vol penalty>
0.000

$$$$

  -OEChem-04052317143D

 85 93  0     1  0  0  0  0  0999 V2000
  -27.1160  -34.6917   22.2802 C   0  0  0  0  0  0  0  0  0  0  0  0
  -27.5555  -33.3781   22.1512 C   0  0  0  0  0  0  0  0  0  0  0  0
  -22.9485  -10.1218   20.0750 C   0  0  0  0  0  0  0  0  0  0  0  0
  -24.1499   -9.4078   22.0457 C   0  0  0  0  0  0  0  0  0  0  0  0
  -25.8200  -34.9516   22.7238 C   0  0  0  0  0  0  0  0  0  0  0  0
  -26.6996  -32.3235   22.4668 C   0  0  0  0  0  0  0  0  0  0  0  0
  -26.4284  -26.8547   19.7236 C   0  0  0  0  0  0  0  0  0  0  0  0
  -22.1986   -8.9461   20.1062 C   0  0  0  0  0  0  0  0  0  0  0  0
  -23.4000   -8.2321   22.0770 C   0  0  0  0  0  0  0  0  0  0  0  0
  -26.9640  -25.6111   20.0559 C   0  0  0  0  0  0  0  0  0  0  0  0
  -21.5540   -5.2064   22.8865 C   0  0  0  0  0  0  0  0  0  0  0  0
  -21.0456   -4.7931   24.1179 C   0  0  0  0  0  0  0  0  0  0  0  0
  -24.8734  -24.9936   21.0891 C   0  0  0  0  0  0  0  0  0  0  0  0
  -19.8042   -6.8580   24.2984 C   0  0  0  0  0  0  0  0  0  0  0  0
  -23.9242  -10.3526   21.0447 C   0  0  0  0  0  0  0  0  0  0  0  0
  -24.3932  -12.7879   21.6422 C   0  0  0  0  0  0  0  0  0  0  0  0
  -24.9445  -33.8995   23.0358 C   0  0  0  0  0  0  0  0  0  0  0  0
  -25.1127  -27.1818   20.0818 C   0  0  0  0  0  0  0  0  0  0  0  0
  -25.3911  -32.5695   22.9163 C   0  0  0  0  0  0  0  0  0  0  0  0
  -24.3227  -26.2411   20.7580 C   0  0  0  0  0  0  0  0  0  0  0  0
  -22.4243   -8.0013   21.1072 C   0  0  0  0  0  0  0  0  0  0  0  0
  -26.1874  -24.6814   20.7413 C   0  0  0  0  0  0  0  0  0  0  0  0
  -21.1875   -6.4455   22.3611 C   0  0  0  0  0  0  0  0  0  0  0  0
  -20.1707   -5.6189   24.8238 C   0  0  0  0  0  0  0  0  0  0  0  0
  -20.3127   -7.2713   23.0670 C   0  0  0  0  0  0  0  0  0  0  0  0
  -24.6996  -11.5666   21.0127 C   0  0  0  0  0  0  0  0  0  0  0  0
  -28.7039  -21.5184   22.4129 C   0  0  0  0  0  0  0  0  0  0  0  0
  -29.1054  -19.3443   21.8288 C   0  0  0  0  0  0  0  0  0  0  0  0
  -28.8343  -19.6477   20.5127 C   0  0  0  0  0  0  0  0  0  0  0  0
  -28.4336  -21.8222   21.0968 C   0  0  0  0  0  0  0  0  0  0  0  0
  -25.4357  -13.6175   21.3082 C   0  0  0  0  0  0  0  0  0  0  0  0
  -23.2669  -13.1410   22.4562 C   0  0  0  0  0  0  0  0  0  0  0  0
  -23.7752  -29.3971   21.9277 C   0  0  0  0  0  0  0  0  0  0  0  0
  -21.0194  -28.1688   20.7364 C   0  0  0  0  0  0  0  0  0  0  0  0
  -19.4001  -25.5136   19.3311 C   0  0  0  0  0  0  0  0  0  0  0  0
  -30.8996  -14.5439   20.6501 C   0  0  0  0  0  0  0  0  0  0  0  0
  -23.5684  -34.2304   23.5567 C   0  0  0  0  0  0  0  0  0  0  0  0
  -24.5410  -28.5175   19.6926 C   0  0  0  0  0  0  0  0  0  0  0  0
  -22.8979  -26.5356   21.1476 C   0  0  0  0  0  0  0  0  0  0  0  0
  -22.6005  -33.0508   23.5126 C   0  0  0  0  0  0  0  0  0  0  0  0
  -29.1608  -13.0298   17.9370 C   0  0  0  0  0  0  0  0  0  0  0  0
  -23.2646  -31.7943   24.0665 C   0  0  0  0  0  0  0  0  0  0  0  0
  -27.8232  -12.6097   18.5487 C   0  0  0  0  0  0  0  0  0  0  0  0
  -30.3113  -12.8638   18.9274 C   0  0  0  0  0  0  0  0  0  0  0  0
  -28.7745  -13.1138   20.8378 C   0  0  0  0  0  0  0  0  0  0  0  0
  -24.4840  -31.3983   23.2253 C   0  0  1  0  0  0  0  0  0  0  0  0
  -23.3579  -28.9367   20.5596 C   0  0  1  0  0  0  0  0  0  0  0  0
  -27.5758  -13.3162   19.8952 C   0  0  2  0  0  0  0  0  0  0  0  0
  -28.6341  -22.5560   23.4805 C   0  0  0  0  0  0  0  0  0  0  0  0
  -27.5817  -17.0924   17.9038 C   0  0  0  0  0  0  0  0  0  0  0  0
  -17.1420  -24.7967   18.5037 C   0  0  0  0  0  0  0  0  0  0  0  0
  -20.0798  -27.8119   23.6173 C   0  0  0  0  0  0  0  0  0  0  0  0
  -18.3015  -26.2654   22.7722 C   0  0  0  0  0  0  0  0  0  0  0  0
  -18.3260  -28.6512   22.0444 C   0  0  0  0  0  0  0  0  0  0  0  0
  -20.4132  -25.0895   16.5829 C   0  0  0  0  0  0  0  0  0  0  0  0
  -29.4814  -17.9637   22.2465 C   0  0  0  0  0  0  0  0  0  0  0  0
  -28.9040  -18.6097   19.4453 C   0  0  0  0  0  0  0  0  0  0  0  0
  -28.0564  -23.2122   20.6762 C   0  0  0  0  0  0  0  0  0  1  0  0
  -27.5099  -18.1260   19.0166 C   0  0  0  0  0  0  0  0  0  0  0  0
  -30.9526  -17.5919   21.9732 C   0  0  0  0  0  0  0  0  0  0  0  0
  -31.3461  -16.1949   22.4484 C   0  0  0  0  0  0  0  0  0  0  0  0
  -20.0764  -27.0634   21.1463 C   0  0  1  0  0  0  0  0  0  0  0  0
  -18.4787  -25.4174   18.1285 C   0  0  2  0  0  0  0  0  0  0  0  0
  -19.2234  -27.4428   22.3896 C   0  0  0  0  0  0  0  0  0  0  0  0
  -25.8469  -11.6119   20.3302 N   0  0  0  0  0  0  0  0  0  0  0  0
  -29.0448  -20.2741   22.8025 N   0  0  0  0  0  0  0  0  0  0  0  0
  -28.4939  -20.8922   20.1231 N   0  0  0  0  0  0  0  0  0  0  0  0
  -26.2705  -12.8718   20.5290 N   0  0  0  0  0  0  0  0  0  0  0  0
  -22.3864  -27.8577   20.7501 N   0  0  0  0  0  0  0  0  0  0  0  0
  -30.0144  -13.5586   20.1824 N   0  0  0  0  0  0  0  0  0  0  0  0
  -25.7105  -14.9047   21.6079 N   0  0  0  0  0  0  0  0  0  0  0  0
  -22.2876  -12.1684   22.6999 N   0  0  0  0  0  0  0  0  0  0  0  0
  -24.0647  -30.7462   22.0032 N   0  0  0  0  0  0  0  0  0  0  0  0
  -19.2919  -26.7355   19.9608 N   0  0  0  0  0  0  0  0  0  0  0  0
  -30.5402  -15.1577   21.8437 N   0  0  0  0  0  0  0  0  0  0  0  0
  -19.1024  -24.5819   17.0636 N   0  3  0  0  0  0  0  0  0  0  0  0
  -23.1247  -14.2899   22.9391 O   0  0  0  0  0  0  0  0  0  0  0  0
  -23.8290  -28.5886   22.8470 O   0  0  0  0  0  0  0  0  0  0  0  0
  -20.5595  -29.2655   20.4089 O   0  0  0  0  0  0  0  0  0  0  0  0
  -20.1389  -24.5953   19.6794 O   0  0  0  0  0  0  0  0  0  0  0  0
  -31.9308  -14.8573   20.0457 O   0  0  0  0  0  0  0  0  0  0  0  0
  -21.6925   -6.8541   21.1381 O   0  0  0  0  0  0  0  0  0  0  0  0
  -26.7079  -23.4671   21.0673 O   0  0  0  0  0  0  0  0  0  1  0  0
  -19.6813   -5.2212   26.0056 F   0  0  0  0  0  0  0  0  0  0  0  0
  -19.9561   -8.4623   22.5668 F   0  0  0  0  0  0  0  0  0  0  0  0
  1  2  1  0  0  0  0
  1  5  2  0  0  0  0
  2  6  2  0  0  0  0
  3  8  2  0  0  0  0
  3 15  1  0  0  0  0
  4  9  1  0  0  0  0
  4 15  2  0  0  0  0
  5 17  1  0  0  0  0
  6 19  1  0  0  0  0
  7 10  2  0  0  0  0
  7 18  1  0  0  0  0
  8 21  1  0  0  0  0
  9 21  2  0  0  0  0
 10 22  1  0  0  0  0
 11 12  2  0  0  0  0
 11 23  1  0  0  0  0
 12 24  1  0  0  0  0
 13 20  1  0  0  0  0
 13 22  2  0  0  0  0
 14 24  2  0  0  0  0
 14 25  1  0  0  0  0
 15 26  1  0  0  0  0
 16 26  1  0  0  0  0
 16 31  2  0  0  0  0
 16 32  1  0  0  0  0
 17 19  2  0  0  0  0
 17 37  1  0  0  0  0
 18 20  2  0  0  0  0
 18 38  1  0  0  0  0
 19 46  1  0  0  0  0
 20 39  1  0  0  0  0
 21 82  1  0  0  0  0
 22 83  1  0  0  0  0
 23 25  2  0  0  0  0
 23 82  1  0  0  0  0
 24 84  1  0  0  0  0
 25 85  1  0  0  0  0
 26 65  2  0  0  0  0
 27 30  1  0  0  0  0
 27 49  1  0  0  0  0
 27 66  2  0  0  0  0
 28 29  2  0  0  0  0
 28 56  1  0  0  0  0
 28 66  1  0  0  0  0
 29 57  1  0  0  0  0
 29 67  1  0  0  0  0
 30 58  1  0  0  0  0
 30 67  2  0  0  0  0
 31 68  1  0  0  0  0
 31 71  1  0  0  0  0
 32 72  1  0  0  0  0
 32 77  2  0  0  0  0
 33 47  1  0  0  0  0
 33 73  1  0  0  0  0
 33 78  2  0  0  0  0
 34 62  1  0  0  0  0
 34 69  1  0  0  0  0
 34 79  2  0  0  0  0
 35 63  1  0  0  0  0
 35 74  1  0  0  0  0
 35 80  2  0  0  0  0
 36 70  1  0  0  0  0
 36 75  1  0  0  0  0
 36 81  2  0  0  0  0
 37 40  1  0  0  0  0
 38 47  1  0  0  0  0
 39 69  1  0  0  0  0
 40 42  1  0  0  0  0
 41 43  1  0  0  0  0
 41 44  1  0  0  0  0
 42 46  1  0  0  0  0
 43 48  1  0  0  0  0
 44 70  1  0  0  0  0
 45 48  1  0  0  0  0
 45 70  1  0  0  0  0
 46 73  1  0  0  0  0
 47 69  1  0  0  0  0
 48 68  1  0  0  0  0
 50 59  1  0  0  0  0
 51 63  1  0  0  0  0
 52 64  1  0  0  0  0
 53 64  1  0  0  0  0
 54 64  1  0  0  0  0
 55 76  1  0  0  0  0
 56 60  1  0  0  0  0
 57 59  1  0  0  0  0
 58 83  1  0  0  0  0
 60 61  1  0  0  0  0
 61 75  1  0  0  0  0
 62 64  1  0  0  0  0
 62 74  1  0  0  0  0
 63 76  1  0  0  0  0
 65 68  1  0  0  0  0
M  CHG  1  76   1
M  ISO  4  36 100  58 101  75 100  83 101
M  END
> <Batch ID>
0043

> <Smiles>
CCCc1nc([101CH2:1][101O:1]c2ccc3c(c2)CN(C(=O)C(NC(=O)C(C)NC)C(C)(C)C)C(C(=O)NC2CCCc4ccccc42)C3)c(C)nc1CCC[100NH:0][100C:0](=O)N1CCCC(n2nc(-c3ccc(Oc4ccc(F)cc4F)cc3)c(C(N)=O)c2N)C1

> <Shape>
0.367

> <Color>
0.153

> <Negative vol penalty>
0.000

$$$$

  -OEChem-04052317143D

 82 90  0     1  0  0  0  0  0999 V2000
  -27.7563  -35.1870   21.5444 C   0  0  0  0  0  0  0  0  0  0  0  0
  -28.0903  -34.2439   20.5778 C   0  0  0  0  0  0  0  0  0  0  0  0
  -22.4092  -14.9191   21.3141 C   0  0  0  0  0  0  0  0  0  0  0  0
  -23.2630  -17.1643   21.5733 C   0  0  0  0  0  0  0  0  0  0  0  0
  -27.5158  -34.7832   22.8570 C   0  0  0  0  0  0  0  0  0  0  0  0
  -28.1851  -32.8963   20.9236 C   0  0  0  0  0  0  0  0  0  0  0  0
  -27.0936  -26.3503   18.2264 C   0  0  0  0  0  0  0  0  0  0  0  0
  -21.4527  -15.1692   22.2981 C   0  0  0  0  0  0  0  0  0  0  0  0
  -22.3064  -17.4145   22.5572 C   0  0  0  0  0  0  0  0  0  0  0  0
  -27.7505  -25.1326   18.0553 C   0  0  0  0  0  0  0  0  0  0  0  0
  -19.0155  -18.1704   22.6945 C   0  0  0  0  0  0  0  0  0  0  0  0
  -18.3242  -19.3803   22.6314 C   0  0  0  0  0  0  0  0  0  0  0  0
  -27.2359  -24.5413   20.3367 C   0  0  0  0  0  0  0  0  0  0  0  0
  -19.1651  -19.9746   24.8170 C   0  0  0  0  0  0  0  0  0  0  0  0
  -30.5417  -20.5224   20.0365 C   0  0  0  0  0  0  0  0  0  0  0  0
  -23.3144  -15.9167   20.9518 C   0  0  0  0  0  0  0  0  0  0  0  0
  -24.1726  -15.8685   18.5499 C   0  0  0  0  0  0  0  0  0  0  0  0
  -27.5983  -33.4289   23.2170 C   0  0  0  0  0  0  0  0  0  0  0  0
  -26.5113  -26.6779   19.4593 C   0  0  0  0  0  0  0  0  0  0  0  0
  -27.9468  -32.4741   22.2426 C   0  0  0  0  0  0  0  0  0  0  0  0
  -26.5699  -25.7627   20.5201 C   0  0  0  0  0  0  0  0  0  0  0  0
  -21.4013  -16.4169   22.9196 C   0  0  0  0  0  0  0  0  0  0  0  0
  -27.8243  -24.2291   19.1114 C   0  0  0  0  0  0  0  0  0  0  0  0
  -19.7815  -17.8626   23.8188 C   0  0  0  0  0  0  0  0  0  0  0  0
  -18.3990  -20.2824   23.6927 C   0  0  0  0  0  0  0  0  0  0  0  0
  -19.8564  -18.7648   24.8801 C   0  0  0  0  0  0  0  0  0  0  0  0
  -24.3030  -15.6587   19.9358 C   0  0  0  0  0  0  0  0  0  0  0  0
  -30.6968  -19.2820   19.3891 C   0  0  0  0  0  0  0  0  0  0  0  0
  -29.2725  -20.9276   19.7028 C   0  0  0  0  0  0  0  0  0  0  0  0
  -25.3790  -15.4709   18.0274 C   0  0  0  0  0  0  0  0  0  0  0  0
  -23.0603  -16.3773   17.8018 C   0  0  0  0  0  0  0  0  0  0  0  0
  -26.9660  -28.9671   21.6172 C   0  0  0  0  0  0  0  0  0  0  0  0
  -24.3483  -27.6429   23.0016 C   0  0  0  0  0  0  0  0  0  0  0  0
  -22.3616  -24.8979   23.4080 C   0  0  0  0  0  0  0  0  0  0  0  0
  -30.8947  -15.0990   20.3274 C   0  0  0  0  0  0  0  0  0  0  0  0
  -27.3759  -33.0461   24.6587 C   0  0  0  0  0  0  0  0  0  0  0  0
  -25.7830  -27.9842   19.6196 C   0  0  0  0  0  0  0  0  0  0  0  0
  -25.9435  -26.0579   21.8576 C   0  0  0  0  0  0  0  0  0  0  0  0
  -27.1302  -31.5532   24.8617 C   0  0  0  0  0  0  0  0  0  0  0  0
  -29.0083  -12.4644   18.8518 C   0  0  0  0  0  0  0  0  0  0  0  0
  -28.1506  -30.7329   24.0790 C   0  0  0  0  0  0  0  0  0  0  0  0
  -27.5768  -13.0033   18.8372 C   0  0  0  0  0  0  0  0  0  0  0  0
  -29.7649  -12.9060   20.1027 C   0  0  0  0  0  0  0  0  0  0  0  0
  -28.3341  -14.8997   20.3301 C   0  0  0  0  0  0  0  0  0  0  0  0
  -28.0352  -31.0001   22.5734 C   0  0  1  0  0  0  0  0  0  0  0  0
  -25.6715  -28.4316   21.0738 C   0  0  1  0  0  0  0  0  0  0  0  0
  -27.5489  -14.5272   19.0608 C   0  0  2  0  0  0  0  0  0  0  0  0
  -20.3170  -24.1097   24.6310 C   0  0  0  0  0  0  0  0  0  0  0  0
  -26.6160  -18.7359   18.8169 C   0  0  0  0  0  0  0  0  0  0  0  0
  -27.5291  -19.9167   16.7729 C   0  0  0  0  0  0  0  0  0  0  0  0
  -25.9749  -27.4218   25.5737 C   0  0  0  0  0  0  0  0  0  0  0  0
  -24.2633  -25.8106   26.4353 C   0  0  0  0  0  0  0  0  0  0  0  0
  -23.6063  -28.1561   25.8972 C   0  0  0  0  0  0  0  0  0  0  0  0
  -20.9213  -24.3468   20.8820 C   0  0  0  0  0  0  0  0  0  0  0  0
  -31.8777  -18.4024   19.4060 C   0  0  0  0  0  0  0  0  0  0  0  0
  -28.5030  -22.1618   20.0714 C   0  0  0  0  0  0  0  0  0  1  0  0
  -31.8792  -17.3665   20.5469 C   0  0  0  0  0  0  0  0  0  0  0  0
  -24.1127  -26.5476   24.0135 C   0  0  1  0  0  0  0  0  0  0  0  0
  -20.8542  -24.7279   23.3496 C   0  0  2  0  0  0  0  0  0  0  0  0
  -27.4535  -19.9076   18.3009 C   0  0  0  0  0  0  0  0  0  0  0  0
  -24.5029  -26.9790   25.4554 C   0  0  0  0  0  0  0  0  0  0  0  0
  -25.4980  -15.1660   20.2725 N   0  0  0  0  0  0  0  0  0  0  0  0
  -29.6126  -18.9227   18.6966 N   0  0  0  0  0  0  0  0  0  0  0  0
  -28.7641  -19.9434   18.9070 N   0  0  0  0  0  0  0  0  0  0  0  0
  -26.1294  -15.0628   19.0907 N   0  0  0  0  0  0  0  0  0  0  0  0
  -25.2481  -27.3510   21.9667 N   0  0  0  0  0  0  0  0  0  0  0  0
  -29.7014  -14.3615   20.2558 N   0  0  0  0  0  0  0  0  0  0  0  0
  -25.8605  -15.4341   16.7668 N   0  0  0  0  0  0  0  0  0  0  0  0
  -21.8975  -16.7385   18.4957 N   0  0  0  0  0  0  0  0  0  0  0  0
  -26.9041  -30.2878   22.0189 N   0  0  0  0  0  0  0  0  0  0  0  0
  -22.7171  -26.1490   23.8661 N   0  0  0  0  0  0  0  0  0  0  0  0
  -30.7449  -16.4735   20.4658 N   0  0  0  0  0  0  0  0  0  0  0  0
  -20.4761  -23.8472   22.2084 N   0  3  0  0  0  0  0  0  0  0  0  0
  -23.0907  -16.4922   16.5530 O   0  0  0  0  0  0  0  0  0  0  0  0
  -27.9479  -28.2357   21.6696 O   0  0  0  0  0  0  0  0  0  0  0  0
  -23.7505  -28.7152   23.1210 O   0  0  0  0  0  0  0  0  0  0  0  0
  -23.1453  -24.0085   23.0836 O   0  0  0  0  0  0  0  0  0  0  0  0
  -32.0108  -14.5722   20.2666 O   0  0  0  0  0  0  0  0  0  0  0  0
  -20.4679  -16.6614   23.8796 O   0  0  0  0  0  0  0  0  0  0  0  0
  -28.4655  -23.0401   18.9473 O   0  0  0  0  0  0  0  0  0  1  0  0
  -17.7364  -21.4448   23.6313 F   0  0  0  0  0  0  0  0  0  0  0  0
  -20.5917  -18.4751   25.9623 F   0  0  0  0  0  0  0  0  0  0  0  0
  1  2  1  0  0  0  0
  1  5  2  0  0  0  0
  2  6  2  0  0  0  0
  3  8  2  0  0  0  0
  3 16  1  0  0  0  0
  4  9  1  0  0  0  0
  4 16  2  0  0  0  0
  5 18  1  0  0  0  0
  6 20  1  0  0  0  0
  7 10  2  0  0  0  0
  7 19  1  0  0  0  0
  8 22  1  0  0  0  0
  9 22  2  0  0  0  0
 10 23  1  0  0  0  0
 11 12  2  0  0  0  0
 11 24  1  0  0  0  0
 12 25  1  0  0  0  0
 13 21  1  0  0  0  0
 13 23  2  0  0  0  0
 14 25  2  0  0  0  0
 14 26  1  0  0  0  0
 15 28  1  0  0  0  0
 15 29  2  0  0  0  0
 16 27  1  0  0  0  0
 17 27  1  0  0  0  0
 17 30  2  0  0  0  0
 17 31  1  0  0  0  0
 18 20  2  0  0  0  0
 18 36  1  0  0  0  0
 19 21  2  0  0  0  0
 19 37  1  0  0  0  0
 20 45  1  0  0  0  0
 21 38  1  0  0  0  0
 22 79  1  0  0  0  0
 23 80  1  0  0  0  0
 24 26  2  0  0  0  0
 24 79  1  0  0  0  0
 25 81  1  0  0  0  0
 26 82  1  0  0  0  0
 27 62  2  0  0  0  0
 28 55  1  0  0  0  0
 28 63  2  0  0  0  0
 29 56  1  0  0  0  0
 29 64  1  0  0  0  0
 30 65  1  0  0  0  0
 30 68  1  0  0  0  0
 31 69  1  0  0  0  0
 31 74  2  0  0  0  0
 32 46  1  0  0  0  0
 32 70  1  0  0  0  0
 32 75  2  0  0  0  0
 33 58  1  0  0  0  0
 33 66  1  0  0  0  0
 33 76  2  0  0  0  0
 34 59  1  0  0  0  0
 34 71  1  0  0  0  0
 34 77  2  0  0  0  0
 35 67  1  0  0  0  0
 35 72  1  0  0  0  0
 35 78  2  0  0  0  0
 36 39  1  0  0  0  0
 37 46  1  0  0  0  0
 38 66  1  0  0  0  0
 39 41  1  0  0  0  0
 40 42  1  0  0  0  0
 40 43  1  0  0  0  0
 41 45  1  0  0  0  0
 42 47  1  0  0  0  0
 43 67  1  0  0  0  0
 44 47  1  0  0  0  0
 44 67  1  0  0  0  0
 45 70  1  0  0  0  0
 46 66  1  0  0  0  0
 47 65  1  0  0  0  0
 48 59  1  0  0  0  0
 49 60  1  0  0  0  0
 50 60  1  0  0  0  0
 51 61  1  0  0  0  0
 52 61  1  0  0  0  0
 53 61  1  0  0  0  0
 54 73  1  0  0  0  0
 55 57  1  0  0  0  0
 56 80  1  0  0  0  0
 57 72  1  0  0  0  0
 58 61  1  0  0  0  0
 58 71  1  0  0  0  0
 59 73  1  0  0  0  0
 60 64  1  0  0  0  0
 62 65  1  0  0  0  0
 63 64  1  0  0  0  0
M  CHG  1  73   1
M  ISO  4  35 100  56 101  72 100  80 101
M  END
> <Batch ID>
0043

> <Smiles>
CNC(C)C(=O)NC(C(=O)N1Cc2cc([101O:1][101CH2:1]c3cc(CC[100NH:0][100C:0](=O)N4CCCC(n5nc(-c6ccc(Oc7ccc(F)cc7F)cc6)c(C(N)=O)c5N)C4)nn3C(C)C)ccc2CC1C(=O)NC1CCCc2ccccc21)C(C)(C)C

> <Shape>
0.178

> <Color>
0.078

> <Negative vol penalty>
0.000

$$$$

  -OEChem-04052317143D

 89 98  0     1  0  0  0  0  0999 V2000
  -17.2262  -24.3311   22.6090 C   0  0  0  0  0  0  0  0  0  0  0  0
  -18.3322  -23.4984   22.7464 C   0  0  0  0  0  0  0  0  0  0  0  0
  -24.8456  -13.3885   21.9198 C   0  0  0  0  0  0  0  0  0  0  0  0
  -25.9611  -13.6004   19.7872 C   0  0  0  0  0  0  0  0  0  0  0  0
  -17.3386  -25.5260   21.8993 C   0  0  0  0  0  0  0  0  0  0  0  0
  -19.5510  -23.8596   22.1732 C   0  0  0  0  0  0  0  0  0  0  0  0
  -26.6108  -23.3071   23.2550 C   0  0  0  0  0  0  0  0  0  0  0  0
  -24.8370  -12.0010   21.7774 C   0  0  0  0  0  0  0  0  0  0  0  0
  -25.9524  -12.2129   19.6448 C   0  0  0  0  0  0  0  0  0  0  0  0
  -27.7722  -22.9001   22.5999 C   0  0  0  0  0  0  0  0  0  0  0  0
  -23.0397   -9.6807   20.1009 C   0  0  0  0  0  0  0  0  0  0  0  0
  -21.8571   -9.0062   20.4042 C   0  0  0  0  0  0  0  0  0  0  0  0
  -27.8689  -25.0258   21.4636 C   0  0  0  0  0  0  0  0  0  0  0  0
  -23.0134   -7.7467   22.1112 C   0  0  0  0  0  0  0  0  0  0  0  0
  -29.2558  -23.6206   16.5741 C   0  0  0  0  0  0  0  0  0  0  0  0
  -25.4076  -14.1883   20.9246 C   0  0  0  0  0  0  0  0  0  0  0  0
  -26.4167  -16.4088   21.6721 C   0  0  0  0  0  0  0  0  0  0  0  0
  -18.5619  -25.9066   21.3253 C   0  0  0  0  0  0  0  0  0  0  0  0
  -26.0627  -24.5745   23.0107 C   0  0  0  0  0  0  0  0  0  0  0  0
  -19.6795  -25.0600   21.4540 C   0  0  0  0  0  0  0  0  0  0  0  0
  -26.7019  -25.4475   22.1188 C   0  0  0  0  0  0  0  0  0  0  0  0
  -25.3904  -11.4132   20.6399 C   0  0  0  0  0  0  0  0  0  0  0  0
  -28.3999  -23.7584   21.7018 C   0  0  0  0  0  0  0  0  0  0  0  0
  -24.2092   -9.3882   20.8026 C   0  0  0  0  0  0  0  0  0  0  0  0
  -21.8439   -8.0392   21.4094 C   0  0  0  0  0  0  0  0  0  0  0  0
  -24.1960   -8.4212   21.8078 C   0  0  0  0  0  0  0  0  0  0  0  0
  -25.4163  -15.6217   21.0709 C   0  0  0  0  0  0  0  0  0  0  0  0
  -28.1961  -22.7738   16.9508 C   0  0  0  0  0  0  0  0  0  0  0  0
  -30.2486  -23.3543   17.4851 C   0  0  0  0  0  0  0  0  0  0  0  0
  -25.9550  -17.6972   21.5577 C   0  0  0  0  0  0  0  0  0  0  0  0
  -31.7465  -24.9509   18.7348 C   0  0  0  0  0  0  0  0  0  0  0  0
  -27.6530  -16.0108   22.2797 C   0  0  0  0  0  0  0  0  0  0  0  0
  -23.3094  -25.6384   21.8313 C   0  0  0  0  0  0  0  0  0  0  0  0
  -24.5082  -28.5287   22.6862 C   0  0  0  0  0  0  0  0  0  0  0  0
  -27.2522  -30.4435   23.3576 C   0  0  0  0  0  0  0  0  0  0  0  0
  -23.5903  -21.7719   18.5659 C   0  0  0  0  0  0  0  0  0  0  0  0
  -18.6227  -27.1848   20.5270 C   0  0  0  0  0  0  0  0  0  0  0  0
  -24.8242  -25.0087   23.7456 C   0  0  0  0  0  0  0  0  0  0  0  0
  -26.1651  -26.8262   21.8369 C   0  0  0  0  0  0  0  0  0  0  0  0
  -20.0452  -27.6748   20.2692 C   0  0  0  0  0  0  0  0  0  0  0  0
  -21.4178  -19.4582   20.1795 C   0  0  0  0  0  0  0  0  0  0  0  0
  -20.9291  -26.5241   19.7985 C   0  0  0  0  0  0  0  0  0  0  0  0
  -22.3456  -18.3166   20.5990 C   0  0  0  0  0  0  0  0  0  0  0  0
  -21.8270  -20.0526   18.8337 C   0  0  0  0  0  0  0  0  0  0  0  0
  -24.1629  -19.3419   19.1690 C   0  0  0  0  0  0  0  0  0  0  0  0
  -21.0249  -25.4290   20.8678 C   0  0  1  0  0  0  0  0  0  0  0  0
  -24.0676  -26.1257   23.0335 C   0  0  1  0  0  0  0  0  0  0  0  0
  -23.8237  -18.7474   20.5466 C   0  0  2  0  0  0  0  0  0  0  0  0
  -34.8491  -26.1819   17.8103 C   0  0  0  0  0  0  0  0  0  0  0  0
  -27.9176  -32.7787   23.9911 C   0  0  0  0  0  0  0  0  0  0  0  0
  -23.9897  -29.4504   19.8241 C   0  0  0  0  0  0  0  0  0  0  0  0
  -25.5061  -31.3965   20.2500 C   0  0  0  0  0  0  0  0  0  0  0  0
  -23.4137  -31.1330   21.5824 C   0  0  0  0  0  0  0  0  0  0  0  0
  -28.4922  -29.5289   25.8844 C   0  0  0  0  0  0  0  0  0  0  0  0
  -26.8750  -22.6510   16.3120 C   0  0  0  0  0  0  0  0  0  0  0  0
  -31.6053  -23.9130   17.6300 C   0  0  0  0  0  0  0  0  0  0  0  0
  -25.7852  -23.6011   16.8689 C   0  0  0  0  0  0  0  0  0  0  0  0
  -34.2693  -25.1089   18.7158 C   0  0  0  0  0  0  0  0  0  0  0  0
  -30.4408  -21.7632   19.4961 C   0  0  0  0  0  0  0  0  0  0  0  0
  -25.4655  -23.3825   18.3461 C   0  0  0  0  0  0  0  0  0  0  0  0
  -29.6803  -21.9678   20.8017 C   0  0  0  0  0  0  0  0  0  1  0  0
  -25.3592  -29.5758   22.0092 C   0  0  1  0  0  0  0  0  0  0  0  0
  -27.5640  -31.3907   24.5021 C   0  0  2  0  0  0  0  0  0  0  0  0
  -24.5765  -30.3623   20.9200 C   0  0  0  0  0  0  0  0  0  0  0  0
  -24.3959  -16.3493   20.6089 N   0  0  0  0  0  0  0  0  0  0  0  0
  -28.4885  -22.0255   18.0179 N   0  0  0  0  0  0  0  0  0  0  0  0
  -30.7899  -25.5269   19.4259 N   0  0  0  0  0  0  0  0  0  0  0  0
  -31.4251  -26.3827   20.2973 N   0  0  0  0  0  0  0  0  0  0  0  0
  -32.7424  -26.3300   20.1424 N   0  0  0  0  0  0  0  0  0  0  0  0
  -29.7431  -22.4011   18.3194 N   0  0  0  0  0  0  0  0  0  0  0  0
  -24.7527  -17.6070   20.9200 N   0  0  0  0  0  0  0  0  0  0  0  0
  -32.9408  -25.4345   19.1651 N   0  0  0  0  0  0  0  0  0  0  0  0
  -24.9482  -27.2021   22.5754 N   0  0  0  0  0  0  0  0  0  0  0  0
  -23.2391  -20.4421   18.8510 N   0  0  0  0  0  0  0  0  0  0  0  0
  -26.4640  -18.8872   21.9414 N   0  0  0  0  0  0  0  0  0  0  0  0
  -27.9727  -14.6466   22.3122 N   0  0  0  0  0  0  0  0  0  0  0  0
  -21.9426  -25.8240   21.9148 N   0  0  0  0  0  0  0  0  0  0  0  0
  -25.9031  -30.4111   23.0745 N   0  0  0  0  0  0  0  0  0  0  0  0
  -24.9493  -22.0579   18.6101 N   0  0  0  0  0  0  0  0  0  0  0  0
  -28.7124  -30.8773   25.3012 N   0  3  0  0  0  0  0  0  0  0  0  0
  -28.4427  -16.8389   22.7935 O   0  0  0  0  0  0  0  0  0  0  0  0
  -23.9194  -25.1328   20.8964 O   0  0  0  0  0  0  0  0  0  0  0  0
  -23.4943  -28.8759   23.2970 O   0  0  0  0  0  0  0  0  0  0  0  0
  -28.1192  -29.7998   22.7707 O   0  0  0  0  0  0  0  0  0  0  0  0
  -22.7541  -22.6412   18.2974 O   0  0  0  0  0  0  0  0  0  0  0  0
  -25.3823  -10.0592   20.5008 O   0  0  0  0  0  0  0  0  0  0  0  0
  -29.5333  -23.3634   21.0605 O   0  0  0  0  0  0  0  0  0  1  0  0
  -20.7078   -7.3927   21.7017 F   0  0  0  0  0  0  0  0  0  0  0  0
  -25.3161   -8.1366   22.4862 F   0  0  0  0  0  0  0  0  0  0  0  0
  1  2  1  0  0  0  0
  1  5  2  0  0  0  0
  2  6  2  0  0  0  0
  3  8  2  0  0  0  0
  3 16  1  0  0  0  0
  4  9  1  0  0  0  0
  4 16  2  0  0  0  0
  5 18  1  0  0  0  0
  6 20  1  0  0  0  0
  7 10  2  0  0  0  0
  7 19  1  0  0  0  0
  8 22  1  0  0  0  0
  9 22  2  0  0  0  0
 10 23  1  0  0  0  0
 11 12  2  0  0  0  0
 11 24  1  0  0  0  0
 12 25  1  0  0  0  0
 13 21  1  0  0  0  0
 13 23  2  0  0  0  0
 14 25  2  0  0  0  0
 14 26  1  0  0  0  0
 15 28  1  0  0  0  0
 15 29  2  0  0  0  0
 16 27  1  0  0  0  0
 17 27  1  0  0  0  0
 17 30  2  0  0  0  0
 17 32  1  0  0  0  0
 18 20  2  0  0  0  0
 18 37  1  0  0  0  0
 19 21  2  0  0  0  0
 19 38  1  0  0  0  0
 20 46  1  0  0  0  0
 21 39  1  0  0  0  0
 22 86  1  0  0  0  0
 23 87  1  0  0  0  0
 24 26  2  0  0  0  0
 24 86  1  0  0  0  0
 25 88  1  0  0  0  0
 26 89  1  0  0  0  0
 27 65  2  0  0  0  0
 28 55  1  0  0  0  0
 28 66  2  0  0  0  0
 29 56  1  0  0  0  0
 29 70  1  0  0  0  0
 30 71  1  0  0  0  0
 30 75  1  0  0  0  0
 31 56  1  0  0  0  0
 31 67  2  0  0  0  0
 31 72  1  0  0  0  0
 32 76  1  0  0  0  0
 32 81  2  0  0  0  0
 33 47  1  0  0  0  0
 33 77  1  0  0  0  0
 33 82  2  0  0  0  0
 34 62  1  0  0  0  0
 34 73  1  0  0  0  0
 34 83  2  0  0  0  0
 35 63  1  0  0  0  0
 35 78  1  0  0  0  0
 35 84  2  0  0  0  0
 36 74  1  0  0  0  0
 36 79  1  0  0  0  0
 36 85  2  0  0  0  0
 37 40  1  0  0  0  0
 38 47  1  0  0  0  0
 39 73  1  0  0  0  0
 40 42  1  0  0  0  0
 41 43  1  0  0  0  0
 41 44  1  0  0  0  0
 42 46  1  0  0  0  0
 43 48  1  0  0  0  0
 44 74  1  0  0  0  0
 45 48  1  0  0  0  0
 45 74  1  0  0  0  0
 46 77  1  0  0  0  0
 47 73  1  0  0  0  0
 48 71  1  0  0  0  0
 49 58  1  0  0  0  0
 50 63  1  0  0  0  0
 51 64  1  0  0  0  0
 52 64  1  0  0  0  0
 53 64  1  0  0  0  0
 54 80  1  0  0  0  0
 55 57  1  0  0  0  0
 57 60  1  0  0  0  0
 58 72  1  0  0  0  0
 59 61  1  0  0  0  0
 59 70  1  0  0  0  0
 60 79  1  0  0  0  0
 61 87  1  0  0  0  0
 62 64  1  0  0  0  0
 62 78  1  0  0  0  0
 63 80  1  0  0  0  0
 65 71  1  0  0  0  0
 66 70  1  0  0  0  0
 67 68  1  0  0  0  0
 68 69  2  0  0  0  0
 69 72  1  0  0  0  0
M  CHG  1  80   1
M  ISO  4  36 100  61 101  79 100  87 101
M  END
> <Batch ID>
0043

> <Smiles>
CCn1nnnc1Cc1cc(CCC[100NH:0][100C:0](=O)N2CCCC(n3nc(-c4ccc(Oc5ccc(F)cc5F)cc4)c(C(N)=O)c3N)C2)nn1C[101CH2:1][101O:1]c1ccc2c(c1)CN(C(=O)C(NC(=O)C(C)NC)C(C)(C)C)C(C(=O)NC1CCCc3ccccc31)C2

> <Shape>
0.226

> <Color>
0.073

> <Negative vol penalty>
0.000

$$$$

  -OEChem-04052317143D

 87 96  0     1  0  0  0  0  0999 V2000
  -30.7490  -22.7235   18.2100 C   0  0  0  0  0  0  0  0  0  0  0  0
  -29.3935  -23.0068   18.3432 C   0  0  0  0  0  0  0  0  0  0  0  0
  -23.4565   -9.4849   19.7238 C   0  0  0  0  0  0  0  0  0  0  0  0
  -23.9013   -9.8403   22.0717 C   0  0  0  0  0  0  0  0  0  0  0  0
  -31.6594  -23.2246   19.1396 C   0  0  0  0  0  0  0  0  0  0  0  0
  -28.9474  -23.7906   19.4068 C   0  0  0  0  0  0  0  0  0  0  0  0
  -25.5866  -27.2929   17.9632 C   0  0  0  0  0  0  0  0  0  0  0  0
  -22.4943   -8.5294   20.0507 C   0  0  0  0  0  0  0  0  0  0  0  0
  -22.9391   -8.8848   22.3987 C   0  0  0  0  0  0  0  0  0  0  0  0
  -24.2786  -26.8658   17.7387 C   0  0  0  0  0  0  0  0  0  0  0  0
  -22.7078   -5.5130   22.4927 C   0  0  0  0  0  0  0  0  0  0  0  0
  -23.0338   -4.5733   23.4706 C   0  0  0  0  0  0  0  0  0  0  0  0
  -23.6433  -27.6865   19.9164 C   0  0  0  0  0  0  0  0  0  0  0  0
  -21.1830   -5.3379   24.8223 C   0  0  0  0  0  0  0  0  0  0  0  0
  -20.0994  -24.5739   21.6961 C   0  0  0  0  0  0  0  0  0  0  0  0
  -24.1600  -10.1403   20.7343 C   0  0  0  0  0  0  0  0  0  0  0  0
  -26.3183  -10.9332   19.6294 C   0  0  0  0  0  0  0  0  0  0  0  0
  -31.2254  -24.0229   20.2096 C   0  0  0  0  0  0  0  0  0  0  0  0
  -25.9359  -27.9112   19.1724 C   0  0  0  0  0  0  0  0  0  0  0  0
  -29.8527  -24.3018   20.3522 C   0  0  0  0  0  0  0  0  0  0  0  0
  -24.9559  -28.1228   20.1527 C   0  0  0  0  0  0  0  0  0  0  0  0
  -21.5822  -22.7541   21.2086 C   0  0  0  0  0  0  0  0  0  0  0  0
  -21.5352  -23.1257   19.8592 C   0  0  0  0  0  0  0  0  0  0  0  0
  -20.8464  -23.4957   22.1412 C   0  0  0  0  0  0  0  0  0  0  0  0
  -22.2356   -8.2293   21.3881 C   0  0  0  0  0  0  0  0  0  0  0  0
  -23.3073  -27.0600   18.7165 C   0  0  0  0  0  0  0  0  0  0  0  0
  -21.6195   -6.3653   22.6796 C   0  0  0  0  0  0  0  0  0  0  0  0
  -22.2713   -4.4857   24.6353 C   0  0  0  0  0  0  0  0  0  0  0  0
  -20.8570   -6.2777   23.8444 C   0  0  0  0  0  0  0  0  0  0  0  0
  -25.1544  -11.1270   20.3973 C   0  0  0  0  0  0  0  0  0  0  0  0
  -20.7460  -24.2269   19.5253 C   0  0  0  0  0  0  0  0  0  0  0  0
  -26.9206  -12.1672   19.6012 C   0  0  0  0  0  0  0  0  0  0  0  0
  -26.8109   -9.7439   18.9979 C   0  0  0  0  0  0  0  0  0  0  0  0
  -27.9369  -27.2273   21.5455 C   0  0  0  0  0  0  0  0  0  0  0  0
  -24.6475  -17.6228   20.1879 C   0  0  0  0  0  0  0  0  0  0  0  0
  -27.0587  -30.1622   22.6119 C   0  0  0  0  0  0  0  0  0  0  0  0
  -24.0064  -32.0704   22.8566 C   0  0  0  0  0  0  0  0  0  0  0  0
  -32.2411  -24.5028   21.2159 C   0  0  0  0  0  0  0  0  0  0  0  0
  -27.3453  -28.3902   19.3883 C   0  0  0  0  0  0  0  0  0  0  0  0
  -22.3911  -21.5720   21.6759 C   0  0  0  0  0  0  0  0  0  0  0  0
  -22.2825  -22.3796   18.7900 C   0  0  0  0  0  0  0  0  0  0  0  0
  -25.2749  -28.7998   21.4597 C   0  0  0  0  0  0  0  0  0  0  0  0
  -31.7316  -25.6362   22.1025 C   0  0  0  0  0  0  0  0  0  0  0  0
  -23.8958  -21.7452   21.4521 C   0  0  0  0  0  0  0  0  0  0  0  0
  -23.8024  -22.4397   18.9642 C   0  0  0  0  0  0  0  0  0  0  0  0
  -27.3575  -16.1883   22.1437 C   0  0  0  0  0  0  0  0  0  0  0  0
  -30.3361  -25.3162   22.6288 C   0  0  0  0  0  0  0  0  0  0  0  0
  -27.1807  -14.6967   21.8628 C   0  0  0  0  0  0  0  0  0  0  0  0
  -26.0141  -16.9101   22.2094 C   0  0  0  0  0  0  0  0  0  0  0  0
  -24.9896  -15.2288   20.7101 C   0  0  0  0  0  0  0  0  0  0  0  0
  -29.3330  -25.1688   21.4784 C   0  0  1  0  0  0  0  0  0  0  0  0
  -27.7042  -28.5454   20.8629 C   0  0  1  0  0  0  0  0  0  0  0  0
  -26.3229  -14.4696   20.6057 C   0  0  2  0  0  0  0  0  0  0  0  0
  -24.4223  -21.4866   20.0174 C   0  0  1  0  0  0  0  0  0  0  0  0
  -20.8288  -23.1886   23.6018 C   0  0  0  0  0  0  0  0  0  0  0  0
  -25.9487  -21.7435   20.0318 C   0  0  0  0  0  0  0  0  0  0  0  0
  -23.6310  -34.5515   22.8819 C   0  0  0  0  0  0  0  0  0  0  0  0
  -27.1389  -29.8516   25.6462 C   0  0  0  0  0  0  0  0  0  0  0  0
  -25.3114  -31.5560   25.7992 C   0  0  0  0  0  0  0  0  0  0  0  0
  -27.5209  -32.1830   24.8258 C   0  0  0  0  0  0  0  0  0  0  0  0
  -22.1276  -31.9263   20.5745 C   0  0  0  0  0  0  0  0  0  0  0  0
  -20.6293  -24.7072   18.1140 C   0  0  0  0  0  0  0  0  0  0  0  0
  -24.8843  -19.0585   20.5839 C   0  0  0  0  0  0  0  0  0  0  0  0
  -24.2144  -20.0128   19.6139 C   0  0  0  0  0  0  0  0  0  0  0  0
  -21.8503  -25.5079   17.6563 C   0  0  0  0  0  0  0  0  0  1  0  0
  -25.9635  -30.6912   23.5062 C   0  0  1  0  0  0  0  0  0  0  0  0
  -23.6280  -33.2889   22.0341 C   0  0  2  0  0  0  0  0  0  0  0  0
  -26.4802  -31.0468   24.9289 C   0  0  0  0  0  0  0  0  0  0  0  0
  -20.0301  -24.9598   20.4070 N   0  0  0  0  0  0  0  0  0  0  0  0
  -25.0233  -12.3852   20.8261 N   0  0  0  0  0  0  0  0  0  0  0  0
  -26.1126  -12.9930   20.3260 N   0  0  0  0  0  0  0  0  0  0  0  0
  -26.6685  -29.2446   21.6262 N   0  0  0  0  0  0  0  0  0  0  0  0
  -25.2160  -16.6463   21.0061 N   0  0  0  0  0  0  0  0  0  0  0  0
  -28.0574  -12.6157   19.0275 N   0  0  0  0  0  0  0  0  0  0  0  0
  -27.6676   -8.9068   19.7256 N   0  0  0  0  0  0  0  0  0  0  0  0
  -28.9434  -26.4696   20.9778 N   0  0  0  0  0  0  0  0  0  0  0  0
  -25.3592  -31.8111   22.7927 N   0  0  0  0  0  0  0  0  0  0  0  0
  -22.2674  -33.1179   21.4506 N   0  3  0  0  0  0  0  0  0  0  0  0
  -26.5136   -9.4412   17.8174 O   0  0  0  0  0  0  0  0  0  0  0  0
  -27.2548  -26.9209   22.5164 O   0  0  0  0  0  0  0  0  0  0  0  0
  -23.9794  -17.3788   19.1799 O   0  0  0  0  0  0  0  0  0  0  0  0
  -28.2165  -30.5544   22.7769 O   0  0  0  0  0  0  0  0  0  0  0  0
  -23.1848  -31.4164   23.4951 O   0  0  0  0  0  0  0  0  0  0  0  0
  -21.2967   -7.2972   21.7075 O   0  0  0  0  0  0  0  0  0  0  0  0
  -22.0210  -26.6406   18.4987 O   0  0  0  0  0  0  0  0  0  1  0  0
  -22.5835   -3.5823   25.5736 F   0  0  0  0  0  0  0  0  0  0  0  0
  -19.8096   -7.0929   24.0290 F   0  0  0  0  0  0  0  0  0  0  0  0
  1  2  1  0  0  0  0
  1  5  2  0  0  0  0
  2  6  2  0  0  0  0
  3  8  2  0  0  0  0
  3 16  1  0  0  0  0
  4  9  1  0  0  0  0
  4 16  2  0  0  0  0
  5 18  1  0  0  0  0
  6 20  1  0  0  0  0
  7 10  2  0  0  0  0
  7 19  1  0  0  0  0
  8 25  1  0  0  0  0
  9 25  2  0  0  0  0
 10 26  1  0  0  0  0
 11 12  2  0  0  0  0
 11 27  1  0  0  0  0
 12 28  1  0  0  0  0
 13 21  1  0  0  0  0
 13 26  2  0  0  0  0
 14 28  2  0  0  0  0
 14 29  1  0  0  0  0
 15 24  1  0  0  0  0
 15 69  2  0  0  0  0
 16 30  1  0  0  0  0
 17 30  1  0  0  0  0
 17 32  2  0  0  0  0
 17 33  1  0  0  0  0
 18 20  2  0  0  0  0
 18 38  1  0  0  0  0
 19 21  2  0  0  0  0
 19 39  1  0  0  0  0
 20 51  1  0  0  0  0
 21 42  1  0  0  0  0
 22 23  1  0  0  0  0
 22 24  2  0  0  0  0
 22 40  1  0  0  0  0
 23 31  2  0  0  0  0
 23 41  1  0  0  0  0
 24 55  1  0  0  0  0
 25 84  1  0  0  0  0
 26 85  1  0  0  0  0
 27 29  2  0  0  0  0
 27 84  1  0  0  0  0
 28 86  1  0  0  0  0
 29 87  1  0  0  0  0
 30 70  2  0  0  0  0
 31 62  1  0  0  0  0
 31 69  1  0  0  0  0
 32 71  1  0  0  0  0
 32 74  1  0  0  0  0
 33 75  1  0  0  0  0
 33 79  2  0  0  0  0
 34 52  1  0  0  0  0
 34 76  1  0  0  0  0
 34 80  2  0  0  0  0
 35 63  1  0  0  0  0
 35 73  1  0  0  0  0
 35 81  2  0  0  0  0
 36 66  1  0  0  0  0
 36 72  1  0  0  0  0
 36 82  2  0  0  0  0
 37 67  1  0  0  0  0
 37 77  1  0  0  0  0
 37 83  2  0  0  0  0
 38 43  1  0  0  0  0
 39 52  1  0  0  0  0
 40 44  1  0  0  0  0
 41 45  1  0  0  0  0
 42 72  1  0  0  0  0
 43 47  1  0  0  0  0
 44 54  1  0  0  0  0
 45 54  1  0  0  0  0
 46 48  1  0  0  0  0
 46 49  1  0  0  0  0
 47 51  1  0  0  0  0
 48 53  1  0  0  0  0
 49 73  1  0  0  0  0
 50 53  1  0  0  0  0
 50 73  1  0  0  0  0
 51 76  1  0  0  0  0
 52 72  1  0  0  0  0
 53 71  1  0  0  0  0
 54 56  1  0  0  0  0
 54 64  1  0  0  0  0
 57 67  1  0  0  0  0
 58 68  1  0  0  0  0
 59 68  1  0  0  0  0
 60 68  1  0  0  0  0
 61 78  1  0  0  0  0
 62 65  1  0  0  0  0
 63 64  1  0  0  0  0
 65 85  1  0  0  0  0
 66 68  1  0  0  0  0
 66 77  1  0  0  0  0
 67 78  1  0  0  0  0
 70 71  1  0  0  0  0
M  CHG  1  78   1
M  ISO  4  35 100  63 100  65 101  85 101
M  END
> <Batch ID>
0043

> <Smiles>
CNC(C)C(=O)NC(C(=O)N1Cc2cc([101O:1][101CH2:1]Cc3ncc(C)c4c3CCC(C)(C[100CH2:0][100C:0](=O)N3CCCC(n5nc(-c6ccc(Oc7ccc(F)cc7F)cc6)c(C(N)=O)c5N)C3)CC4)ccc2CC1C(=O)NC1CCCc2ccccc21)C(C)(C)C

> <Shape>
0.263

> <Color>
0.107

> <Negative vol penalty>
0.000

$$$$

  -OEChem-04052317143D

 86 94  0     1  0  0  0  0  0999 V2000
  -29.8318  -18.1725   18.7684 C   0  0  0  0  0  0  0  0  0  0  0  0
  -28.6781  -18.4556   19.4924 C   0  0  0  0  0  0  0  0  0  0  0  0
  -23.8846  -14.6265   22.4170 C   0  0  0  0  0  0  0  0  0  0  0  0
  -24.9092  -15.9493   20.6741 C   0  0  0  0  0  0  0  0  0  0  0  0
  -30.9268  -19.0326   18.8397 C   0  0  0  0  0  0  0  0  0  0  0  0
  -28.6191  -19.5985   20.2890 C   0  0  0  0  0  0  0  0  0  0  0  0
  -23.7087  -23.1043   21.3398 C   0  0  0  0  0  0  0  0  0  0  0  0
  -24.5535  -13.4946   21.9511 C   0  0  0  0  0  0  0  0  0  0  0  0
  -25.5781  -14.8174   20.2082 C   0  0  0  0  0  0  0  0  0  0  0  0
  -22.8035  -23.1576   22.3988 C   0  0  0  0  0  0  0  0  0  0  0  0
  -27.8354  -12.3508   18.7806 C   0  0  0  0  0  0  0  0  0  0  0  0
  -29.1873  -12.4805   18.4625 C   0  0  0  0  0  0  0  0  0  0  0  0
  -24.0728  -24.9562   23.3853 C   0  0  0  0  0  0  0  0  0  0  0  0
  -29.6595  -13.1400   20.7383 C   0  0  0  0  0  0  0  0  0  0  0  0
  -20.3065  -27.3317   22.7965 C   0  0  0  0  0  0  0  0  0  0  0  0
  -24.0624  -15.8539   21.7785 C   0  0  0  0  0  0  0  0  0  0  0  0
  -23.8254  -17.9428   23.2235 C   0  0  0  0  0  0  0  0  0  0  0  0
  -30.8777  -20.1917   19.6301 C   0  0  0  0  0  0  0  0  0  0  0  0
  -24.8107  -23.9707   21.3011 C   0  0  0  0  0  0  0  0  0  0  0  0
  -29.7150  -20.4743   20.3720 C   0  0  0  0  0  0  0  0  0  0  0  0
  -24.9891  -24.9136   22.3234 C   0  0  0  0  0  0  0  0  0  0  0  0
  -19.5191  -27.5762   21.6980 C   0  0  0  0  0  0  0  0  0  0  0  0
  -25.4002  -13.5901   20.8467 C   0  0  0  0  0  0  0  0  0  0  0  0
  -22.9871  -24.0816   23.4233 C   0  0  0  0  0  0  0  0  0  0  0  0
  -27.3955  -12.6158   20.0775 C   0  0  0  0  0  0  0  0  0  0  0  0
  -30.0994  -12.8751   19.4414 C   0  0  0  0  0  0  0  0  0  0  0  0
  -28.3076  -13.0104   21.0564 C   0  0  0  0  0  0  0  0  0  0  0  0
  -23.3714  -17.0233   22.2589 C   0  0  0  0  0  0  0  0  0  0  0  0
  -18.3034  -26.9269   21.9849 C   0  0  0  0  0  0  0  0  0  0  0  0
  -22.8111  -18.8632   23.3247 C   0  0  0  0  0  0  0  0  0  0  0  0
  -25.0543  -17.9630   23.9619 C   0  0  0  0  0  0  0  0  0  0  0  0
  -27.9662  -23.5885   21.3187 C   0  0  0  0  0  0  0  0  0  0  0  0
  -27.9662  -26.7957   20.8324 C   0  0  0  0  0  0  0  0  0  0  0  0
  -26.3253  -29.7724   21.1382 C   0  0  0  0  0  0  0  0  0  0  0  0
  -19.0405  -21.5527   20.0138 C   0  0  0  0  0  0  0  0  0  0  0  0
  -32.1035  -21.0665   19.7126 C   0  0  0  0  0  0  0  0  0  0  0  0
  -25.7632  -23.9186   20.1381 C   0  0  0  0  0  0  0  0  0  0  0  0
  -26.1447  -25.8796   22.3184 C   0  0  0  0  0  0  0  0  0  0  0  0
  -31.8246  -22.4533   20.2864 C   0  0  0  0  0  0  0  0  0  0  0  0
  -17.9926  -18.8764   22.2130 C   0  0  0  0  0  0  0  0  0  0  0  0
  -30.9653  -22.3485   21.5423 C   0  0  0  0  0  0  0  0  0  0  0  0
  -19.3307  -18.2128   22.5436 C   0  0  0  0  0  0  0  0  0  0  0  0
  -17.9539  -19.3504   20.7632 C   0  0  0  0  0  0  0  0  0  0  0  0
  -20.4046  -19.6056   20.7142 C   0  0  0  0  0  0  0  0  0  0  0  0
  -29.6036  -21.7173   21.2280 C   0  0  1  0  0  0  0  0  0  0  0  0
  -27.1350  -24.5018   20.4627 C   0  0  1  0  0  0  0  0  0  0  0  0
  -20.5152  -19.1247   22.1725 C   0  0  2  0  0  0  0  0  0  0  0  0
  -21.0592  -27.7287   19.7085 C   0  0  0  0  0  0  0  0  0  0  0  0
  -20.1936  -29.8315   20.7966 C   0  0  0  0  0  0  0  0  0  0  0  0
  -26.5948  -32.2259   20.6856 C   0  0  0  0  0  0  0  0  0  0  0  0
  -29.8147  -27.0359   23.2481 C   0  0  0  0  0  0  0  0  0  0  0  0
  -29.2842  -29.4815   23.3232 C   0  0  0  0  0  0  0  0  0  0  0  0
  -30.4170  -28.5137   21.3225 C   0  0  0  0  0  0  0  0  0  0  0  0
  -24.0049  -29.8066   19.3015 C   0  0  0  0  0  0  0  0  0  0  0  0
  -17.0937  -26.8630   21.1460 C   0  0  0  0  0  0  0  0  0  0  0  0
  -17.2217  -25.8535   19.9853 C   0  0  0  0  0  0  0  0  0  0  0  0
  -17.4317  -24.4198   20.4813 C   0  0  0  0  0  0  0  0  0  0  0  0
  -19.8348  -24.5326   25.1238 C   0  0  0  0  0  0  0  0  0  0  0  0
  -19.9606  -26.0519   24.9912 C   0  0  0  0  0  0  0  0  0  0  0  0
  -17.5458  -23.4150   19.3395 C   0  0  0  0  0  0  0  0  0  0  0  0
  -20.7552  -23.7657   24.1815 C   0  0  0  0  0  0  0  0  0  1  0  0
  -19.8783  -28.3465   20.4954 C   0  0  0  0  0  0  0  0  0  0  0  0
  -27.9720  -28.0125   21.7260 C   0  0  1  0  0  0  0  0  0  0  0  0
  -26.0866  -30.8974   20.1474 C   0  0  2  0  0  0  0  0  0  0  0  0
  -29.3512  -28.2415   22.4063 C   0  0  0  0  0  0  0  0  0  0  0  0
  -22.1626  -17.3316   21.7816 N   0  0  0  0  0  0  0  0  0  0  0  0
  -18.3129  -26.3158   23.1725 N   0  0  0  0  0  0  0  0  0  0  0  0
  -19.5443  -26.5798   23.6415 N   0  0  0  0  0  0  0  0  0  0  0  0
  -21.8484  -18.4549   22.4490 N   0  0  0  0  0  0  0  0  0  0  0  0
  -27.0522  -25.7852   21.1630 N   0  0  0  0  0  0  0  0  0  0  0  0
  -19.0977  -20.2289   20.4803 N   0  0  0  0  0  0  0  0  0  0  0  0
  -22.6575  -19.9739   24.0765 N   0  0  0  0  0  0  0  0  0  0  0  0
  -25.9866  -16.9413   23.7355 N   0  0  0  0  0  0  0  0  0  0  0  0
  -28.7296  -22.6864   20.6025 N   0  0  0  0  0  0  0  0  0  0  0  0
  -27.5205  -29.1273   20.9003 N   0  0  0  0  0  0  0  0  0  0  0  0
  -17.7652  -22.0659   19.8113 N   0  0  0  0  0  0  0  0  0  0  0  0
  -24.6308  -31.0332   19.8588 N   0  3  0  0  0  0  0  0  0  0  0  0
  -25.3107  -18.8514   24.8095 O   0  0  0  0  0  0  0  0  0  0  0  0
  -27.9197  -23.6954   22.5386 O   0  0  0  0  0  0  0  0  0  0  0  0
  -28.7390  -26.7468   19.8722 O   0  0  0  0  0  0  0  0  0  0  0  0
  -25.5326  -29.4960   22.0359 O   0  0  0  0  0  0  0  0  0  0  0  0
  -20.0516  -22.2298   19.7987 O   0  0  0  0  0  0  0  0  0  0  0  0
  -26.0532  -12.4858   20.3920 O   0  0  0  0  0  0  0  0  0  0  0  0
  -22.1054  -24.1353   24.4585 O   0  0  0  0  0  0  0  0  0  1  0  0
  -31.3978  -12.9981   19.1361 F   0  0  0  0  0  0  0  0  0  0  0  0
  -27.8911  -13.2652   22.3044 F   0  0  0  0  0  0  0  0  0  0  0  0
  1  2  1  0  0  0  0
  1  5  2  0  0  0  0
  2  6  2  0  0  0  0
  3  8  2  0  0  0  0
  3 16  1  0  0  0  0
  4  9  1  0  0  0  0
  4 16  2  0  0  0  0
  5 18  1  0  0  0  0
  6 20  1  0  0  0  0
  7 10  2  0  0  0  0
  7 19  1  0  0  0  0
  8 23  1  0  0  0  0
  9 23  2  0  0  0  0
 10 24  1  0  0  0  0
 11 12  2  0  0  0  0
 11 25  1  0  0  0  0
 12 26  1  0  0  0  0
 13 21  1  0  0  0  0
 13 24  2  0  0  0  0
 14 26  2  0  0  0  0
 14 27  1  0  0  0  0
 15 22  2  0  0  0  0
 15 68  1  0  0  0  0
 16 28  1  0  0  0  0
 17 28  1  0  0  0  0
 17 30  2  0  0  0  0
 17 31  1  0  0  0  0
 18 20  2  0  0  0  0
 18 36  1  0  0  0  0
 19 21  2  0  0  0  0
 19 37  1  0  0  0  0
 20 45  1  0  0  0  0
 21 38  1  0  0  0  0
 22 29  1  0  0  0  0
 22 62  1  0  0  0  0
 23 83  1  0  0  0  0
 24 84  1  0  0  0  0
 25 27  2  0  0  0  0
 25 83  1  0  0  0  0
 26 85  1  0  0  0  0
 27 86  1  0  0  0  0
 28 66  2  0  0  0  0
 29 55  1  0  0  0  0
 29 67  2  0  0  0  0
 30 69  1  0  0  0  0
 30 72  1  0  0  0  0
 31 73  1  0  0  0  0
 31 78  2  0  0  0  0
 32 46  1  0  0  0  0
 32 74  1  0  0  0  0
 32 79  2  0  0  0  0
 33 63  1  0  0  0  0
 33 70  1  0  0  0  0
 33 80  2  0  0  0  0
 34 64  1  0  0  0  0
 34 75  1  0  0  0  0
 34 81  2  0  0  0  0
 35 71  1  0  0  0  0
 35 76  1  0  0  0  0
 35 82  2  0  0  0  0
 36 39  1  0  0  0  0
 37 46  1  0  0  0  0
 38 70  1  0  0  0  0
 39 41  1  0  0  0  0
 40 42  1  0  0  0  0
 40 43  1  0  0  0  0
 41 45  1  0  0  0  0
 42 47  1  0  0  0  0
 43 71  1  0  0  0  0
 44 47  1  0  0  0  0
 44 71  1  0  0  0  0
 45 74  1  0  0  0  0
 46 70  1  0  0  0  0
 47 69  1  0  0  0  0
 48 62  1  0  0  0  0
 49 62  1  0  0  0  0
 50 64  1  0  0  0  0
 51 65  1  0  0  0  0
 52 65  1  0  0  0  0
 53 65  1  0  0  0  0
 54 77  1  0  0  0  0
 55 56  1  0  0  0  0
 56 57  1  0  0  0  0
 57 60  1  0  0  0  0
 58 59  1  0  0  0  0
 58 61  1  0  0  0  0
 59 68  1  0  0  0  0
 60 76  1  0  0  0  0
 61 84  1  0  0  0  0
 63 65  1  0  0  0  0
 63 75  1  0  0  0  0
 64 77  1  0  0  0  0
 66 69  1  0  0  0  0
 67 68  1  0  0  0  0
M  CHG  1  77   1
M  ISO  4  35 100  61 101  76 100  84 101
M  END
> <Batch ID>
0043

> <Smiles>
CNC(C)C(=O)NC(C(=O)N1Cc2cc([101O:1][101CH2:1]CCn3cc(C(C)C)c(CCCC[100NH:0][100C:0](=O)N4CCCC(n5nc(-c6ccc(Oc7ccc(F)cc7F)cc6)c(C(N)=O)c5N)C4)n3)ccc2CC1C(=O)NC1CCCc2ccccc21)C(C)(C)C

> <Shape>
0.216

> <Color>
0.054

> <Negative vol penalty>
0.000

$$$$

  -OEChem-04052317143D

 82 90  0     1  0  0  0  0  0999 V2000
  -25.9006  -17.0434   17.2782 C   0  0  0  0  0  0  0  0  0  0  0  0
  -25.3698  -18.2853   17.6083 C   0  0  0  0  0  0  0  0  0  0  0  0
  -24.7752  -14.5007   22.8577 C   0  0  0  0  0  0  0  0  0  0  0  0
  -25.2368  -15.4367   20.6788 C   0  0  0  0  0  0  0  0  0  0  0  0
  -27.1841  -16.7037   17.7008 C   0  0  0  0  0  0  0  0  0  0  0  0
  -26.1265  -19.1924   18.3508 C   0  0  0  0  0  0  0  0  0  0  0  0
  -24.2550  -23.7028   18.9478 C   0  0  0  0  0  0  0  0  0  0  0  0
  -25.0129  -13.2203   22.3581 C   0  0  0  0  0  0  0  0  0  0  0  0
  -25.4746  -14.1562   20.1791 C   0  0  0  0  0  0  0  0  0  0  0  0
  -23.1658  -23.9630   19.7783 C   0  0  0  0  0  0  0  0  0  0  0  0
  -25.1475   -9.6734   21.5673 C   0  0  0  0  0  0  0  0  0  0  0  0
  -24.2486   -8.6640   21.9117 C   0  0  0  0  0  0  0  0  0  0  0  0
  -24.6586  -24.8704   21.4418 C   0  0  0  0  0  0  0  0  0  0  0  0
  -22.4569   -9.9033   20.8672 C   0  0  0  0  0  0  0  0  0  0  0  0
  -20.4625  -27.9848   22.9369 C   0  0  0  0  0  0  0  0  0  0  0  0
  -24.8870  -15.6089   22.0180 C   0  0  0  0  0  0  0  0  0  0  0  0
  -25.5805  -17.8082   23.1087 C   0  0  0  0  0  0  0  0  0  0  0  0
  -27.9515  -17.6029   18.4594 C   0  0  0  0  0  0  0  0  0  0  0  0
  -25.5574  -24.0150   19.3634 C   0  0  0  0  0  0  0  0  0  0  0  0
  -27.4330  -18.8774   18.7662 C   0  0  0  0  0  0  0  0  0  0  0  0
  -25.7624  -24.6155   20.6138 C   0  0  0  0  0  0  0  0  0  0  0  0
  -20.3648  -26.5868   23.0712 C   0  0  0  0  0  0  0  0  0  0  0  0
  -25.3626  -13.0480   21.0188 C   0  0  0  0  0  0  0  0  0  0  0  0
  -23.3677  -24.5443   21.0267 C   0  0  0  0  0  0  0  0  0  0  0  0
  -24.7011  -10.7978   20.8729 C   0  0  0  0  0  0  0  0  0  0  0  0
  -22.9033   -8.7789   21.5616 C   0  0  0  0  0  0  0  0  0  0  0  0
  -23.3558  -10.9127   20.5229 C   0  0  0  0  0  0  0  0  0  0  0  0
  -24.6410  -16.9317   22.5334 C   0  0  0  0  0  0  0  0  0  0  0  0
  -19.2513  -26.2488   22.3415 C   0  0  0  0  0  0  0  0  0  0  0  0
  -24.8524  -18.9266   23.4339 C   0  0  0  0  0  0  0  0  0  0  0  0
  -26.9856  -17.6277   23.3294 C   0  0  0  0  0  0  0  0  0  0  0  0
  -28.1995  -22.3356   19.9135 C   0  0  0  0  0  0  0  0  0  0  0  0
  -29.5177  -25.2732   20.3075 C   0  0  0  0  0  0  0  0  0  0  0  0
  -29.0705  -28.5725   21.0568 C   0  0  0  0  0  0  0  0  0  0  0  0
  -19.8724  -21.1677   21.1906 C   0  0  0  0  0  0  0  0  0  0  0  0
  -29.3378  -17.1866   18.8840 C   0  0  0  0  0  0  0  0  0  0  0  0
  -26.7192  -23.7525   18.4448 C   0  0  0  0  0  0  0  0  0  0  0  0
  -27.1388  -24.9884   21.0984 C   0  0  0  0  0  0  0  0  0  0  0  0
  -29.8855  -18.0278   20.0324 C   0  0  0  0  0  0  0  0  0  0  0  0
  -20.4312  -20.2918   24.6573 C   0  0  0  0  0  0  0  0  0  0  0  0
  -29.7117  -19.5070   19.7221 C   0  0  0  0  0  0  0  0  0  0  0  0
  -21.6749  -19.4074   24.5509 C   0  0  0  0  0  0  0  0  0  0  0  0
  -19.4897  -20.0658   23.4780 C   0  0  0  0  0  0  0  0  0  0  0  0
  -21.3627  -19.3753   22.0327 C   0  0  0  0  0  0  0  0  0  0  0  0
  -28.2260  -19.8683   19.5990 C   0  0  1  0  0  0  0  0  0  0  0  0
  -28.0501  -23.6395   19.1820 C   0  0  1  0  0  0  0  0  0  0  0  0
  -22.3652  -19.5734   23.1841 C   0  0  2  0  0  0  0  0  0  0  0  0
  -30.3405  -30.7187   21.3364 C   0  0  0  0  0  0  0  0  0  0  0  0
  -30.5333  -24.3159   23.0208 C   0  0  0  0  0  0  0  0  0  0  0  0
  -30.9397  -26.7088   23.6349 C   0  0  0  0  0  0  0  0  0  0  0  0
  -32.1695  -25.6884   21.7194 C   0  0  0  0  0  0  0  0  0  0  0  0
  -17.6043  -27.5876   20.9959 C   0  0  0  0  0  0  0  0  0  0  0  0
  -27.5697  -29.8810   18.8673 C   0  0  0  0  0  0  0  0  0  0  0  0
  -21.2812  -25.6704   23.8448 C   0  0  0  0  0  0  0  0  0  0  0  0
  -18.6139  -24.9432   22.0861 C   0  0  0  0  0  0  0  0  0  0  0  0
  -18.9334  -24.3179   20.7062 C   0  0  0  0  0  0  0  0  0  0  0  0
  -18.2967  -22.9482   20.4808 C   0  0  0  0  0  0  0  0  0  0  0  0
  -22.5860  -25.3957   23.1051 C   0  0  0  0  0  0  0  0  0  1  0  0
  -29.7082  -26.2117   21.4745 C   0  0  1  0  0  0  0  0  0  0  0  0
  -29.5615  -29.8361   20.3737 C   0  0  2  0  0  0  0  0  0  0  0  0
  -30.8118  -25.7225   22.4544 C   0  0  0  0  0  0  0  0  0  0  0  0
  -19.4889  -28.4995   22.1812 N   0  0  0  0  0  0  0  0  0  0  0  0
  -23.4101  -17.4487   22.4941 N   0  0  0  0  0  0  0  0  0  0  0  0
  -18.7688  -27.4192   21.8340 N   0  0  0  0  0  0  0  0  0  0  0  0
  -23.5710  -18.6621   23.0490 N   0  0  0  0  0  0  0  0  0  0  0  0
  -28.2432  -24.7060   20.1666 N   0  0  0  0  0  0  0  0  0  0  0  0
  -20.2039  -20.2573   22.2078 N   0  0  0  0  0  0  0  0  0  0  0  0
  -25.1897  -20.1005   24.0089 N   0  0  0  0  0  0  0  0  0  0  0  0
  -27.5738  -16.4182   22.9353 N   0  0  0  0  0  0  0  0  0  0  0  0
  -28.1088  -21.2213   19.1013 N   0  0  0  0  0  0  0  0  0  0  0  0
  -29.9592  -27.5297   20.9016 N   0  0  0  0  0  0  0  0  0  0  0  0
  -18.7574  -21.9610   21.4317 N   0  0  0  0  0  0  0  0  0  0  0  0
  -28.4097  -30.6199   19.8447 N   0  3  0  0  0  0  0  0  0  0  0  0
  -27.6952  -18.5063   23.8752 O   0  0  0  0  0  0  0  0  0  0  0  0
  -28.3850  -22.3401   21.1248 O   0  0  0  0  0  0  0  0  0  0  0  0
  -30.4627  -25.0570   19.5448 O   0  0  0  0  0  0  0  0  0  0  0  0
  -28.0069  -28.5171   21.6702 O   0  0  0  0  0  0  0  0  0  0  0  0
  -20.5253  -21.2699   20.1464 O   0  0  0  0  0  0  0  0  0  0  0  0
  -25.5949  -11.7988   20.5310 O   0  0  0  0  0  0  0  0  0  0  0  0
  -22.3064  -24.7987   21.8395 O   0  0  0  0  0  0  0  0  0  1  0  0
  -22.0405   -7.8087   21.8911 F   0  0  0  0  0  0  0  0  0  0  0  0
  -22.9212  -11.9900   19.8547 F   0  0  0  0  0  0  0  0  0  0  0  0
  1  2  1  0  0  0  0
  1  5  2  0  0  0  0
  2  6  2  0  0  0  0
  3  8  2  0  0  0  0
  3 16  1  0  0  0  0
  4  9  1  0  0  0  0
  4 16  2  0  0  0  0
  5 18  1  0  0  0  0
  6 20  1  0  0  0  0
  7 10  2  0  0  0  0
  7 19  1  0  0  0  0
  8 23  1  0  0  0  0
  9 23  2  0  0  0  0
 10 24  1  0  0  0  0
 11 12  2  0  0  0  0
 11 25  1  0  0  0  0
 12 26  1  0  0  0  0
 13 21  1  0  0  0  0
 13 24  2  0  0  0  0
 14 26  2  0  0  0  0
 14 27  1  0  0  0  0
 15 22  1  0  0  0  0
 15 62  2  0  0  0  0
 16 28  1  0  0  0  0
 17 28  1  0  0  0  0
 17 30  2  0  0  0  0
 17 31  1  0  0  0  0
 18 20  2  0  0  0  0
 18 36  1  0  0  0  0
 19 21  2  0  0  0  0
 19 37  1  0  0  0  0
 20 45  1  0  0  0  0
 21 38  1  0  0  0  0
 22 29  2  0  0  0  0
 22 54  1  0  0  0  0
 23 79  1  0  0  0  0
 24 80  1  0  0  0  0
 25 27  2  0  0  0  0
 25 79  1  0  0  0  0
 26 81  1  0  0  0  0
 27 82  1  0  0  0  0
 28 63  2  0  0  0  0
 29 55  1  0  0  0  0
 29 64  1  0  0  0  0
 30 65  1  0  0  0  0
 30 68  1  0  0  0  0
 31 69  1  0  0  0  0
 31 74  2  0  0  0  0
 32 46  1  0  0  0  0
 32 70  1  0  0  0  0
 32 75  2  0  0  0  0
 33 59  1  0  0  0  0
 33 66  1  0  0  0  0
 33 76  2  0  0  0  0
 34 60  1  0  0  0  0
 34 71  1  0  0  0  0
 34 77  2  0  0  0  0
 35 67  1  0  0  0  0
 35 72  1  0  0  0  0
 35 78  2  0  0  0  0
 36 39  1  0  0  0  0
 37 46  1  0  0  0  0
 38 66  1  0  0  0  0
 39 41  1  0  0  0  0
 40 42  1  0  0  0  0
 40 43  1  0  0  0  0
 41 45  1  0  0  0  0
 42 47  1  0  0  0  0
 43 67  1  0  0  0  0
 44 47  1  0  0  0  0
 44 67  1  0  0  0  0
 45 70  1  0  0  0  0
 46 66  1  0  0  0  0
 47 65  1  0  0  0  0
 48 60  1  0  0  0  0
 49 61  1  0  0  0  0
 50 61  1  0  0  0  0
 51 61  1  0  0  0  0
 52 64  1  0  0  0  0
 53 73  1  0  0  0  0
 54 58  1  0  0  0  0
 55 56  1  0  0  0  0
 56 57  1  0  0  0  0
 57 72  1  0  0  0  0
 58 80  1  0  0  0  0
 59 61  1  0  0  0  0
 59 71  1  0  0  0  0
 60 73  1  0  0  0  0
 62 64  1  0  0  0  0
 63 65  1  0  0  0  0
M  CHG  1  73   1
M  ISO  4  35 100  58 101  72 100  80 101
M  END
> <Batch ID>
0043

> <Smiles>
CNC(C)C(=O)NC(C(=O)N1Cc2cc([101O:1][101CH2:1]Cc3cnn(C)c3CCC[100NH:0][100C:0](=O)N3CCCC(n4nc(-c5ccc(Oc6ccc(F)cc6F)cc5)c(C(N)=O)c4N)C3)ccc2CC1C(=O)NC1CCCc2ccccc21)C(C)(C)C

> <Shape>
0.194

> <Color>
0.059

> <Negative vol penalty>
0.000

$$$$

  -OEChem-04052317143D

 81 89  0     1  0  0  0  0  0999 V2000
  -31.2562  -29.3852   24.4528 C   0  0  0  0  0  0  0  0  0  0  0  0
  -31.1202  -28.1552   23.8172 C   0  0  0  0  0  0  0  0  0  0  0  0
  -23.0697   -9.8788   19.9399 C   0  0  0  0  0  0  0  0  0  0  0  0
  -23.8373   -9.8763   22.2307 C   0  0  0  0  0  0  0  0  0  0  0  0
  -30.1234  -30.1330   24.7713 C   0  0  0  0  0  0  0  0  0  0  0  0
  -29.8512  -27.6717   23.5008 C   0  0  0  0  0  0  0  0  0  0  0  0
  -28.2955  -24.3447   18.6001 C   0  0  0  0  0  0  0  0  0  0  0  0
  -22.3254   -8.7255   20.1880 C   0  0  0  0  0  0  0  0  0  0  0  0
  -23.0930   -8.7229   22.4788 C   0  0  0  0  0  0  0  0  0  0  0  0
  -28.1080  -22.9753   18.4171 C   0  0  0  0  0  0  0  0  0  0  0  0
  -19.3812   -7.9265   21.6461 C   0  0  0  0  0  0  0  0  0  0  0  0
  -18.0727   -7.8835   21.1651 C   0  0  0  0  0  0  0  0  0  0  0  0
  -25.7359  -23.2619   18.7492 C   0  0  0  0  0  0  0  0  0  0  0  0
  -18.6259   -5.9449   19.8336 C   0  0  0  0  0  0  0  0  0  0  0  0
  -28.2347  -18.7849   21.8735 C   0  0  0  0  0  0  0  0  0  0  0  0
  -23.8257  -10.4542   20.9613 C   0  0  0  0  0  0  0  0  0  0  0  0
  -24.1698  -12.9794   20.8498 C   0  0  0  0  0  0  0  0  0  0  0  0
  -28.8403  -29.6629   24.4500 C   0  0  0  0  0  0  0  0  0  0  0  0
  -27.2041  -25.1827   18.8703 C   0  0  0  0  0  0  0  0  0  0  0  0
  -28.7000  -28.4133   23.8166 C   0  0  0  0  0  0  0  0  0  0  0  0
  -25.9119  -24.6419   18.9327 C   0  0  0  0  0  0  0  0  0  0  0  0
  -29.1004  -18.4041   20.8307 C   0  0  0  0  0  0  0  0  0  0  0  0
  -22.3371   -8.1476   21.4574 C   0  0  0  0  0  0  0  0  0  0  0  0
  -26.8284  -22.4333   18.4945 C   0  0  0  0  0  0  0  0  0  0  0  0
  -20.3122   -6.9788   21.2208 C   0  0  0  0  0  0  0  0  0  0  0  0
  -17.6950   -6.8927   20.2589 C   0  0  0  0  0  0  0  0  0  0  0  0
  -19.9345   -5.9880   20.3146 C   0  0  0  0  0  0  0  0  0  0  0  0
  -24.5952  -11.6452   20.7055 C   0  0  0  0  0  0  0  0  0  0  0  0
  -28.3172  -18.4421   19.7031 C   0  0  0  0  0  0  0  0  0  0  0  0
  -25.2615  -13.7291   20.4857 C   0  0  0  0  0  0  0  0  0  0  0  0
  -22.9013  -13.4950   21.2749 C   0  0  0  0  0  0  0  0  0  0  0  0
  -26.3641  -27.0611   21.2931 C   0  0  0  0  0  0  0  0  0  0  0  0
  -23.9568  -27.9095   19.2912 C   0  0  0  0  0  0  0  0  0  0  0  0
  -21.9802  -27.0988   16.6299 C   0  0  0  0  0  0  0  0  0  0  0  0
  -30.7470  -14.7416   20.6595 C   0  0  0  0  0  0  0  0  0  0  0  0
  -27.6430  -30.4849   24.8568 C   0  0  0  0  0  0  0  0  0  0  0  0
  -27.4198  -26.6617   19.0388 C   0  0  0  0  0  0  0  0  0  0  0  0
  -24.7045  -25.5016   19.2001 C   0  0  0  0  0  0  0  0  0  0  0  0
  -26.3535  -30.0738   24.1506 C   0  0  0  0  0  0  0  0  0  0  0  0
  -29.5988  -12.3675   18.2675 C   0  0  0  0  0  0  0  0  0  0  0  0
  -26.1909  -28.5573   24.1764 C   0  0  0  0  0  0  0  0  0  0  0  0
  -28.1625  -12.0736   18.7041 C   0  0  0  0  0  0  0  0  0  0  0  0
  -30.5202  -12.5827   19.4661 C   0  0  0  0  0  0  0  0  0  0  0  0
  -28.6239  -13.3105   20.8619 C   0  0  0  0  0  0  0  0  0  0  0  0
  -27.3416  -27.8664   23.4348 C   0  0  1  0  0  0  0  0  0  0  0  0
  -26.3002  -27.3439   19.8187 C   0  0  1  0  0  0  0  0  0  0  0  0
  -27.6456  -13.1415   19.6869 C   0  0  2  0  0  0  0  0  0  0  0  0
  -28.6287  -18.1508   18.2909 C   0  0  0  0  0  0  0  0  0  0  0  0
  -20.0768  -27.9766   15.2501 C   0  0  0  0  0  0  0  0  0  0  0  0
  -22.0123  -27.2197   21.5391 C   0  0  0  0  0  0  0  0  0  0  0  0
  -20.1702  -27.1946   19.8437 C   0  0  0  0  0  0  0  0  0  0  0  0
  -21.4434  -29.2973   20.2685 C   0  0  0  0  0  0  0  0  0  0  0  0
  -23.6132  -27.0904   14.1617 C   0  0  0  0  0  0  0  0  0  0  0  0
  -30.5250  -18.0464   20.9322 C   0  0  0  0  0  0  0  0  0  0  0  0
  -25.8503  -19.0229   19.2667 C   0  0  0  0  0  0  0  0  0  0  0  0
  -30.8193  -16.8874   21.9044 C   0  0  0  0  0  0  0  0  0  0  0  0
  -25.5496  -20.4954   19.0095 C   0  0  0  0  0  0  0  0  0  1  0  0
  -22.5606  -27.4021   19.0227 C   0  0  1  0  0  0  0  0  0  0  0  0
  -21.5881  -27.8829   15.3905 C   0  0  2  0  0  0  0  0  0  0  0  0
  -21.5694  -27.7617   20.1654 C   0  0  0  0  0  0  0  0  0  0  0  0
  -26.9964  -19.0459   21.4463 N   0  0  0  0  0  0  0  0  0  0  0  0
  -25.8585  -11.5497   20.2826 N   0  0  0  0  0  0  0  0  0  0  0  0
  -27.0783  -18.8288   20.1226 N   0  0  0  0  0  0  0  0  0  0  0  0
  -26.2364  -12.8333   20.1579 N   0  0  0  0  0  0  0  0  0  0  0  0
  -24.9678  -26.9408   19.3641 N   0  0  0  0  0  0  0  0  0  0  0  0
  -29.9737  -13.6085   20.3579 N   0  0  0  0  0  0  0  0  0  0  0  0
  -25.4731  -15.0606   20.4170 N   0  0  0  0  0  0  0  0  0  0  0  0
  -21.8895  -12.5856   21.6121 N   0  0  0  0  0  0  0  0  0  0  0  0
  -27.1447  -27.9529   22.0036 N   0  0  0  0  0  0  0  0  0  0  0  0
  -22.1804  -27.9256   17.7151 N   0  0  0  0  0  0  0  0  0  0  0  0
  -30.1516  -15.6679   21.5071 N   0  0  0  0  0  0  0  0  0  0  0  0
  -22.1339  -27.2271   14.1686 N   0  3  0  0  0  0  0  0  0  0  0  0
  -22.6665  -14.7256   21.3377 O   0  0  0  0  0  0  0  0  0  0  0  0
  -25.7495  -26.1055   21.7522 O   0  0  0  0  0  0  0  0  0  0  0  0
  -24.1447  -29.1215   19.4240 O   0  0  0  0  0  0  0  0  0  0  0  0
  -22.0935  -25.8750   16.6358 O   0  0  0  0  0  0  0  0  0  0  0  0
  -31.8816  -14.9176   20.2027 O   0  0  0  0  0  0  0  0  0  0  0  0
  -21.6107   -7.0223   21.6999 O   0  0  0  0  0  0  0  0  0  0  0  0
  -26.6427  -21.0969   18.3169 O   0  0  0  0  0  0  0  0  0  1  0  0
  -16.4379   -6.8506   19.7982 F   0  0  0  0  0  0  0  0  0  0  0  0
  -20.8241   -5.0740   19.9033 F   0  0  0  0  0  0  0  0  0  0  0  0
  1  2  1  0  0  0  0
  1  5  2  0  0  0  0
  2  6  2  0  0  0  0
  3  8  2  0  0  0  0
  3 16  1  0  0  0  0
  4  9  1  0  0  0  0
  4 16  2  0  0  0  0
  5 18  1  0  0  0  0
  6 20  1  0  0  0  0
  7 10  2  0  0  0  0
  7 19  1  0  0  0  0
  8 23  1  0  0  0  0
  9 23  2  0  0  0  0
 10 24  1  0  0  0  0
 11 12  2  0  0  0  0
 11 25  1  0  0  0  0
 12 26  1  0  0  0  0
 13 21  1  0  0  0  0
 13 24  2  0  0  0  0
 14 26  2  0  0  0  0
 14 27  1  0  0  0  0
 15 22  1  0  0  0  0
 15 61  2  0  0  0  0
 16 28  1  0  0  0  0
 17 28  1  0  0  0  0
 17 30  2  0  0  0  0
 17 31  1  0  0  0  0
 18 20  2  0  0  0  0
 18 36  1  0  0  0  0
 19 21  2  0  0  0  0
 19 37  1  0  0  0  0
 20 45  1  0  0  0  0
 21 38  1  0  0  0  0
 22 29  2  0  0  0  0
 22 54  1  0  0  0  0
 23 78  1  0  0  0  0
 24 79  1  0  0  0  0
 25 27  2  0  0  0  0
 25 78  1  0  0  0  0
 26 80  1  0  0  0  0
 27 81  1  0  0  0  0
 28 62  2  0  0  0  0
 29 48  1  0  0  0  0
 29 63  1  0  0  0  0
 30 64  1  0  0  0  0
 30 67  1  0  0  0  0
 31 68  1  0  0  0  0
 31 73  2  0  0  0  0
 32 46  1  0  0  0  0
 32 69  1  0  0  0  0
 32 74  2  0  0  0  0
 33 58  1  0  0  0  0
 33 65  1  0  0  0  0
 33 75  2  0  0  0  0
 34 59  1  0  0  0  0
 34 70  1  0  0  0  0
 34 76  2  0  0  0  0
 35 66  1  0  0  0  0
 35 71  1  0  0  0  0
 35 77  2  0  0  0  0
 36 39  1  0  0  0  0
 37 46  1  0  0  0  0
 38 65  1  0  0  0  0
 39 41  1  0  0  0  0
 40 42  1  0  0  0  0
 40 43  1  0  0  0  0
 41 45  1  0  0  0  0
 42 47  1  0  0  0  0
 43 66  1  0  0  0  0
 44 47  1  0  0  0  0
 44 66  1  0  0  0  0
 45 69  1  0  0  0  0
 46 65  1  0  0  0  0
 47 64  1  0  0  0  0
 49 59  1  0  0  0  0
 50 60  1  0  0  0  0
 51 60  1  0  0  0  0
 52 60  1  0  0  0  0
 53 72  1  0  0  0  0
 54 56  1  0  0  0  0
 55 57  1  0  0  0  0
 55 63  1  0  0  0  0
 56 71  1  0  0  0  0
 57 79  1  0  0  0  0
 58 60  1  0  0  0  0
 58 70  1  0  0  0  0
 59 72  1  0  0  0  0
 61 63  1  0  0  0  0
 62 64  1  0  0  0  0
M  CHG  1  72   1
M  ISO  4  35 100  57 101  71 100  79 101
M  END
> <Batch ID>
0043

> <Smiles>
CNC(C)C(=O)NC(C(=O)N1Cc2cc([101O:1][101CH2:1]Cn3ncc(CC[100NH:0][100C:0](=O)N4CCCC(n5nc(-c6ccc(Oc7ccc(F)cc7F)cc6)c(C(N)=O)c5N)C4)c3C)ccc2CC1C(=O)NC1CCCc2ccccc21)C(C)(C)C

> <Shape>
0.263

> <Color>
0.196

> <Negative vol penalty>
0.000

$$$$

  -OEChem-04052317143D

 84 92  0     1  0  0  0  0  0999 V2000
  -30.2971  -33.7182   25.3198 C   0  0  0  0  0  0  0  0  0  0  0  0
  -30.2647  -32.5793   24.5216 C   0  0  0  0  0  0  0  0  0  0  0  0
  -23.0224  -10.0154   19.9807 C   0  0  0  0  0  0  0  0  0  0  0  0
  -23.7936  -10.0210   22.2703 C   0  0  0  0  0  0  0  0  0  0  0  0
  -29.1887  -34.0567   26.0949 C   0  0  0  0  0  0  0  0  0  0  0  0
  -29.1241  -31.7774   24.4989 C   0  0  0  0  0  0  0  0  0  0  0  0
  -26.8918  -28.6861   19.7065 C   0  0  0  0  0  0  0  0  0  0  0  0
  -22.2478   -8.8858   20.2443 C   0  0  0  0  0  0  0  0  0  0  0  0
  -23.0189   -8.8914   22.5339 C   0  0  0  0  0  0  0  0  0  0  0  0
  -26.9983  -27.3510   19.3195 C   0  0  0  0  0  0  0  0  0  0  0  0
  -19.7727   -8.1897   23.1587 C   0  0  0  0  0  0  0  0  0  0  0  0
  -19.0208   -8.1812   24.3335 C   0  0  0  0  0  0  0  0  0  0  0  0
  -24.8812  -26.8821   20.3766 C   0  0  0  0  0  0  0  0  0  0  0  0
  -20.2111   -6.2162   25.0811 C   0  0  0  0  0  0  0  0  0  0  0  0
  -27.4042  -22.3679   19.1789 C   0  0  0  0  0  0  0  0  0  0  0  0
  -23.7954  -10.5830   20.9936 C   0  0  0  0  0  0  0  0  0  0  0  0
  -24.2072  -13.0964   20.8497 C   0  0  0  0  0  0  0  0  0  0  0  0
  -28.0304  -33.2639   26.0743 C   0  0  0  0  0  0  0  0  0  0  0  0
  -25.7826  -29.1278   20.4421 C   0  0  0  0  0  0  0  0  0  0  0  0
  -27.9996  -32.1049   25.2755 C   0  0  0  0  0  0  0  0  0  0  0  0
  -24.7618  -28.2239   20.7695 C   0  0  0  0  0  0  0  0  0  0  0  0
  -22.2460   -8.3238   21.5209 C   0  0  0  0  0  0  0  0  0  0  0  0
  -25.9943  -26.4481   19.6571 C   0  0  0  0  0  0  0  0  0  0  0  0
  -20.7438   -7.2114   22.9451 C   0  0  0  0  0  0  0  0  0  0  0  0
  -19.2400   -7.1945   25.2947 C   0  0  0  0  0  0  0  0  0  0  0  0
  -20.9630   -6.2247   23.9063 C   0  0  0  0  0  0  0  0  0  0  0  0
  -24.5962  -11.7495   20.7218 C   0  0  0  0  0  0  0  0  0  0  0  0
  -27.3018  -21.0520   18.7761 C   0  0  0  0  0  0  0  0  0  0  0  0
  -27.1716  -23.3118   18.1995 C   0  0  0  0  0  0  0  0  0  0  0  0
  -25.3181  -13.8118   20.4747 C   0  0  0  0  0  0  0  0  0  0  0  0
  -26.7919  -21.6884   16.6543 C   0  0  0  0  0  0  0  0  0  0  0  0
  -22.9538  -13.6513   21.2701 C   0  0  0  0  0  0  0  0  0  0  0  0
  -25.3651  -30.3994   23.3252 C   0  0  0  0  0  0  0  0  0  0  0  0
  -22.2966  -30.7044   22.3182 C   0  0  0  0  0  0  0  0  0  0  0  0
  -19.8091  -29.6342   20.2413 C   0  0  0  0  0  0  0  0  0  0  0  0
  -30.8291  -14.6782   20.6281 C   0  0  0  0  0  0  0  0  0  0  0  0
  -26.8745  -33.6442   26.9654 C   0  0  0  0  0  0  0  0  0  0  0  0
  -25.6699  -30.5769   20.8289 C   0  0  0  0  0  0  0  0  0  0  0  0
  -23.5409  -28.6520   21.5406 C   0  0  0  0  0  0  0  0  0  0  0  0
  -25.5672  -32.9469   26.5980 C   0  0  0  0  0  0  0  0  0  0  0  0
  -29.6133  -12.3058   18.2679 C   0  0  0  0  0  0  0  0  0  0  0  0
  -25.8024  -31.4571   26.3702 C   0  0  0  0  0  0  0  0  0  0  0  0
  -28.1704  -12.0563   18.7102 C   0  0  0  0  0  0  0  0  0  0  0  0
  -30.5422  -12.5113   19.4624 C   0  0  0  0  0  0  0  0  0  0  0  0
  -28.6686  -13.3075   20.8515 C   0  0  0  0  0  0  0  0  0  0  0  0
  -26.7715  -31.2234   25.2050 C   0  0  1  0  0  0  0  0  0  0  0  0
  -24.7440  -30.8074   22.0193 C   0  0  1  0  0  0  0  0  0  0  0  0
  -27.6841  -13.1500   19.6801 C   0  0  2  0  0  0  0  0  0  0  0  0
  -26.4483  -21.3117   15.2529 C   0  0  0  0  0  0  0  0  0  0  0  0
  -17.3997  -30.0499   19.6761 C   0  0  0  0  0  0  0  0  0  0  0  0
  -21.4504  -29.2301   24.8520 C   0  0  0  0  0  0  0  0  0  0  0  0
  -19.2142  -28.8413   23.7954 C   0  0  0  0  0  0  0  0  0  0  0  0
  -19.9949  -31.1688   24.2377 C   0  0  0  0  0  0  0  0  0  0  0  0
  -20.4708  -30.3772   17.4541 C   0  0  0  0  0  0  0  0  0  0  0  0
  -27.5356  -19.9599   19.7656 C   0  0  0  0  0  0  0  0  0  0  0  0
  -27.2583  -24.7699   18.5428 C   0  0  0  0  0  0  0  0  0  1  0  0
  -29.0088  -19.5285   19.8173 C   0  0  0  0  0  0  0  0  0  0  0  0
  -29.2299  -18.3819   20.8060 C   0  0  0  0  0  0  0  0  0  0  0  0
  -30.7081  -17.9875   20.8774 C   0  0  0  0  0  0  0  0  0  0  0  0
  -30.9614  -16.8367   21.8456 C   0  0  0  0  0  0  0  0  0  0  0  0
  -21.0624  -29.8369   22.3727 C   0  0  1  0  0  0  0  0  0  0  0  0
  -18.8444  -30.3949   19.3496 C   0  0  2  0  0  0  0  0  0  0  0  0
  -20.4543  -29.7605   23.8016 C   0  0  0  0  0  0  0  0  0  0  0  0
  -25.8558  -11.6146   20.2984 N   0  0  0  0  0  0  0  0  0  0  0  0
  -26.9963  -20.6750   17.5172 N   0  0  0  0  0  0  0  0  0  0  0  0
  -26.8622  -23.0063   16.9223 N   0  0  0  0  0  0  0  0  0  0  0  0
  -26.2679  -12.8860   20.1569 N   0  0  0  0  0  0  0  0  0  0  0  0
  -23.4797  -30.0780   21.9014 N   0  0  0  0  0  0  0  0  0  0  0  0
  -30.0251  -13.5625   20.3419 N   0  0  0  0  0  0  0  0  0  0  0  0
  -25.5654  -15.1361   20.3889 N   0  0  0  0  0  0  0  0  0  0  0  0
  -21.9185  -12.7739   21.6201 N   0  0  0  0  0  0  0  0  0  0  0  0
  -26.0924  -31.4010   23.9394 N   0  0  0  0  0  0  0  0  0  0  0  0
  -20.1500  -30.3613   21.3622 N   0  0  0  0  0  0  0  0  0  0  0  0
  -30.2604  -15.6307   21.4647 N   0  0  0  0  0  0  0  0  0  0  0  0
  -19.0940  -30.0665   17.9176 N   0  3  0  0  0  0  0  0  0  0  0  0
  -22.7524  -14.8885   21.3176 O   0  0  0  0  0  0  0  0  0  0  0  0
  -25.1956  -29.2608   23.7453 O   0  0  0  0  0  0  0  0  0  0  0  0
  -22.2126  -31.8957   22.6271 O   0  0  0  0  0  0  0  0  0  0  0  0
  -20.2163  -28.5062   19.9724 O   0  0  0  0  0  0  0  0  0  0  0  0
  -31.9673  -14.8177   20.1676 O   0  0  0  0  0  0  0  0  0  0  0  0
  -21.4900   -7.2217   21.7786 O   0  0  0  0  0  0  0  0  0  0  0  0
  -26.0960  -25.1442   19.2812 O   0  0  0  0  0  0  0  0  0  1  0  0
  -18.5189   -7.1874   26.4235 F   0  0  0  0  0  0  0  0  0  0  0  0
  -21.8953   -5.2829   23.7072 F   0  0  0  0  0  0  0  0  0  0  0  0
  1  2  1  0  0  0  0
  1  5  2  0  0  0  0
  2  6  2  0  0  0  0
  3  8  2  0  0  0  0
  3 16  1  0  0  0  0
  4  9  1  0  0  0  0
  4 16  2  0  0  0  0
  5 18  1  0  0  0  0
  6 20  1  0  0  0  0
  7 10  2  0  0  0  0
  7 19  1  0  0  0  0
  8 22  1  0  0  0  0
  9 22  2  0  0  0  0
 10 23  1  0  0  0  0
 11 12  2  0  0  0  0
 11 24  1  0  0  0  0
 12 25  1  0  0  0  0
 13 21  1  0  0  0  0
 13 23  2  0  0  0  0
 14 25  2  0  0  0  0
 14 26  1  0  0  0  0
 15 28  2  0  0  0  0
 15 29  1  0  0  0  0
 16 27  1  0  0  0  0
 17 27  1  0  0  0  0
 17 30  2  0  0  0  0
 17 32  1  0  0  0  0
 18 20  2  0  0  0  0
 18 37  1  0  0  0  0
 19 21  2  0  0  0  0
 19 38  1  0  0  0  0
 20 46  1  0  0  0  0
 21 39  1  0  0  0  0
 22 81  1  0  0  0  0
 23 82  1  0  0  0  0
 24 26  2  0  0  0  0
 24 81  1  0  0  0  0
 25 83  1  0  0  0  0
 26 84  1  0  0  0  0
 27 64  2  0  0  0  0
 28 55  1  0  0  0  0
 28 65  1  0  0  0  0
 29 56  1  0  0  0  0
 29 66  2  0  0  0  0
 30 67  1  0  0  0  0
 30 70  1  0  0  0  0
 31 49  1  0  0  0  0
 31 65  2  0  0  0  0
 31 66  1  0  0  0  0
 32 71  1  0  0  0  0
 32 76  2  0  0  0  0
 33 47  1  0  0  0  0
 33 72  1  0  0  0  0
 33 77  2  0  0  0  0
 34 61  1  0  0  0  0
 34 68  1  0  0  0  0
 34 78  2  0  0  0  0
 35 62  1  0  0  0  0
 35 73  1  0  0  0  0
 35 79  2  0  0  0  0
 36 69  1  0  0  0  0
 36 74  1  0  0  0  0
 36 80  2  0  0  0  0
 37 40  1  0  0  0  0
 38 47  1  0  0  0  0
 39 68  1  0  0  0  0
 40 42  1  0  0  0  0
 41 43  1  0  0  0  0
 41 44  1  0  0  0  0
 42 46  1  0  0  0  0
 43 48  1  0  0  0  0
 44 69  1  0  0  0  0
 45 48  1  0  0  0  0
 45 69  1  0  0  0  0
 46 72  1  0  0  0  0
 47 68  1  0  0  0  0
 48 67  1  0  0  0  0
 50 62  1  0  0  0  0
 51 63  1  0  0  0  0
 52 63  1  0  0  0  0
 53 63  1  0  0  0  0
 54 75  1  0  0  0  0
 55 57  1  0  0  0  0
 56 82  1  0  0  0  0
 57 58  1  0  0  0  0
 58 59  1  0  0  0  0
 59 60  1  0  0  0  0
 60 74  1  0  0  0  0
 61 63  1  0  0  0  0
 61 73  1  0  0  0  0
 62 75  1  0  0  0  0
 64 67  1  0  0  0  0
M  CHG  1  75   1
M  ISO  4  36 100  56 101  74 100  82 101
M  END
> <Batch ID>
0043

> <Smiles>
CNC(C)C(=O)NC(C(=O)N1Cc2cc([101O:1][101CH2:1]c3cc(CCCCC[100NH:0][100C:0](=O)N4CCCC(n5nc(-c6ccc(Oc7ccc(F)cc7F)cc6)c(C(N)=O)c5N)C4)nc(C)n3)ccc2CC1C(=O)NC1CCCc2ccccc21)C(C)(C)C

> <Shape>
0.368

> <Color>
0.224

> <Negative vol penalty>
0.000

$$$$

  -OEChem-04052317143D

 91 99  0     1  0  0  0  0  0999 V2000
  -19.1531  -24.1983   22.1009 C   0  0  0  0  0  0  0  0  0  0  0  0
  -20.3744  -24.4747   21.4946 C   0  0  0  0  0  0  0  0  0  0  0  0
  -25.1939  -17.5551   21.1706 C   0  0  0  0  0  0  0  0  0  0  0  0
  -27.3288  -18.1919   20.2358 C   0  0  0  0  0  0  0  0  0  0  0  0
  -18.3434  -25.2437   22.5431 C   0  0  0  0  0  0  0  0  0  0  0  0
  -20.7861  -25.7966   21.3292 C   0  0  0  0  0  0  0  0  0  0  0  0
  -25.6408  -26.4917   22.5915 C   0  0  0  0  0  0  0  0  0  0  0  0
  -25.7233  -16.3177   21.5368 C   0  0  0  0  0  0  0  0  0  0  0  0
  -27.8582  -16.9544   20.6020 C   0  0  0  0  0  0  0  0  0  0  0  0
  -26.6033  -26.0841   21.6689 C   0  0  0  0  0  0  0  0  0  0  0  0
  -29.6731  -13.8269   20.9686 C   0  0  0  0  0  0  0  0  0  0  0  0
  -30.4532  -13.1519   20.0297 C   0  0  0  0  0  0  0  0  0  0  0  0
  -26.8529  -28.3668   20.9298 C   0  0  0  0  0  0  0  0  0  0  0  0
  -28.5776  -13.1017   18.5076 C   0  0  0  0  0  0  0  0  0  0  0  0
  -25.9966  -18.4922   20.5200 C   0  0  0  0  0  0  0  0  0  0  0  0
  -25.4350  -20.9500   20.9092 C   0  0  0  0  0  0  0  0  0  0  0  0
  -18.7498  -26.5788   22.3918 C   0  0  0  0  0  0  0  0  0  0  0  0
  -25.2687  -27.8407   22.6829 C   0  0  0  0  0  0  0  0  0  0  0  0
  -19.9804  -26.8608   21.7686 C   0  0  0  0  0  0  0  0  0  0  0  0
  -25.8873  -28.7894   21.8562 C   0  0  0  0  0  0  0  0  0  0  0  0
  -27.0554  -16.0174   21.2526 C   0  0  0  0  0  0  0  0  0  0  0  0
  -27.2074  -27.0212   20.8358 C   0  0  0  0  0  0  0  0  0  0  0  0
  -28.3453  -14.1392   20.6771 C   0  0  0  0  0  0  0  0  0  0  0  0
  -29.9054  -12.7894   18.7992 C   0  0  0  0  0  0  0  0  0  0  0  0
  -27.7975  -13.7767   19.4466 C   0  0  0  0  0  0  0  0  0  0  0  0
  -25.4502  -19.7704   20.1410 C   0  0  0  0  0  0  0  0  0  0  0  0
  -30.4033  -23.3699   15.6708 C   0  0  0  0  0  0  0  0  0  0  0  0
  -30.5825  -23.5182   14.3244 C   0  0  0  0  0  0  0  0  0  0  0  0
  -24.8096  -21.8736   20.1078 C   0  0  0  0  0  0  0  0  0  0  0  0
  -28.5778  -24.3045   14.8375 C   0  0  0  0  0  0  0  0  0  0  0  0
  -25.9411  -21.1895   22.2291 C   0  0  0  0  0  0  0  0  0  0  0  0
  -22.5662  -29.4564   22.2476 C   0  0  0  0  0  0  0  0  0  0  0  0
  -24.3290  -31.9412   23.3616 C   0  0  0  0  0  0  0  0  0  0  0  0
  -27.4134  -33.3225   23.8359 C   0  0  0  0  0  0  0  0  0  0  0  0
  -24.1629  -22.3509   14.1744 C   0  0  0  0  0  0  0  0  0  0  0  0
  -17.8191  -27.6765   22.8429 C   0  0  0  0  0  0  0  0  0  0  0  0
  -24.2482  -28.2681   23.7018 C   0  0  0  0  0  0  0  0  0  0  0  0
  -25.5379  -30.2526   21.9288 C   0  0  0  0  0  0  0  0  0  0  0  0
  -18.4983  -29.0378   22.9681 C   0  0  0  0  0  0  0  0  0  0  0  0
  -21.5663  -22.2075   16.6063 C   0  0  0  0  0  0  0  0  0  0  0  0
  -19.3560  -29.3215   21.7389 C   0  0  0  0  0  0  0  0  0  0  0  0
  -22.2659  -21.6731   17.8572 C   0  0  0  0  0  0  0  0  0  0  0  0
  -22.1187  -21.5682   15.3342 C   0  0  0  0  0  0  0  0  0  0  0  0
  -24.2819  -21.1281   16.4298 C   0  0  0  0  0  0  0  0  0  0  0  0
  -20.4730  -28.2810   21.5936 C   0  0  1  0  0  0  0  0  0  0  0  0
  -23.5742  -29.5917   23.3536 C   0  0  1  0  0  0  0  0  0  0  0  0
  -23.7975  -21.7845   17.7340 C   0  0  2  0  0  0  0  0  0  0  0  0
  -31.4695  -21.8994   12.6276 C   0  0  0  0  0  0  0  0  0  0  0  0
  -30.3844  -20.4116   16.5255 C   0  0  0  0  0  0  0  0  0  0  0  0
  -28.5331  -35.3794   24.7376 C   0  0  0  0  0  0  0  0  0  0  0  0
  -32.1308  -24.5598   19.1484 C   0  0  0  0  0  0  0  0  0  0  0  0
  -33.9559  -25.5323   17.7421 C   0  0  0  0  0  0  0  0  0  0  0  0
  -23.5127  -33.4806   20.8568 C   0  0  0  0  0  0  0  0  0  0  0  0
  -25.3667  -35.0953   21.3295 C   0  0  0  0  0  0  0  0  0  0  0  0
  -23.4991  -34.8307   22.9619 C   0  0  0  0  0  0  0  0  0  0  0  0
  -28.8803  -31.7677   25.8828 C   0  0  0  0  0  0  0  0  0  0  0  0
  -31.7078  -23.1754   13.4492 C   0  0  0  0  0  0  0  0  0  0  0  0
  -27.2306  -24.9128   14.7062 C   0  0  0  0  0  0  0  0  0  0  0  0
  -31.6258  -21.2949   16.4809 C   0  0  0  0  0  0  0  0  0  0  0  0
  -26.4981  -24.5805   13.3875 C   0  0  0  0  0  0  0  0  0  0  0  0
  -28.5825  -25.2898   17.9894 C   0  0  0  0  0  0  0  0  0  0  0  0
  -32.6537  -23.5766   16.8488 C   0  0  0  0  0  0  0  0  0  0  0  0
  -28.5239  -23.9104   17.3295 C   0  0  0  0  0  0  0  0  0  0  0  0
  -26.2968  -23.0866   13.1428 C   0  0  0  0  0  0  0  0  0  0  0  0
  -28.0273  -25.3044   19.4089 C   0  0  0  0  0  0  0  0  0  1  0  0
  -31.2917  -22.8106   16.6982 C   0  0  1  0  0  0  0  0  0  0  0  0
  -25.2160  -32.9890   22.7338 C   0  0  1  0  0  0  0  0  0  0  0  0
  -28.0502  -33.9719   25.0514 C   0  0  2  0  0  0  0  0  0  0  0  0
  -32.5838  -24.8519   17.7172 C   0  0  0  0  0  0  0  0  0  0  0  0
  -24.4040  -34.0711   21.9675 C   0  0  0  0  0  0  0  0  0  0  0  0
  -24.8796  -19.9275   18.9436 N   0  0  0  0  0  0  0  0  0  0  0  0
  -29.1548  -23.8652   15.9607 N   0  0  0  0  0  0  0  0  0  0  0  0
  -24.4999  -21.2166   18.9534 N   0  0  0  0  0  0  0  0  0  0  0  0
  -29.4374  -24.0986   13.8346 N   0  3  0  0  0  0  0  0  0  0  0  0
  -24.5298  -30.6201   22.9369 N   0  0  0  0  0  0  0  0  0  0  0  0
  -23.5756  -21.7098   15.2776 N   0  0  0  0  0  0  0  0  0  0  0  0
  -24.4997  -23.1756   20.2850 N   0  0  0  0  0  0  0  0  0  0  0  0
  -26.5549  -20.1304   22.9116 N   0  0  0  0  0  0  0  0  0  0  0  0
  -21.5489  -28.5617   22.5199 N   0  0  0  0  0  0  0  0  0  0  0  0
  -26.0485  -33.5167   23.8093 N   0  0  0  0  0  0  0  0  0  0  0  0
  -25.5487  -22.4485   14.2029 N   0  0  0  0  0  0  0  0  0  0  0  0
  -29.2154  -33.1681   25.5173 N   0  3  0  0  0  0  0  0  0  0  0  0
  -25.8369  -22.3050   22.7932 O   0  0  0  0  0  0  0  0  0  0  0  0
  -22.7005  -30.1161   21.2236 O   0  0  0  0  0  0  0  0  0  0  0  0
  -23.4937  -32.2812   24.2032 O   0  0  0  0  0  0  0  0  0  0  0  0
  -28.0624  -32.7079   22.9924 O   0  0  0  0  0  0  0  0  0  0  0  0
  -23.5009  -22.8076   13.2362 O   0  0  0  0  0  0  0  0  0  0  0  0
  -27.5724  -14.8101   21.6100 O   0  0  0  0  0  0  0  0  0  0  0  0
  -28.1466  -26.6259   19.9339 O   0  0  0  0  0  0  0  0  0  1  0  0
  -30.6550  -12.1426   17.8971 F   0  0  0  0  0  0  0  0  0  0  0  0
  -26.5228  -14.0751   19.1603 F   0  0  0  0  0  0  0  0  0  0  0  0
  1  2  1  0  0  0  0
  1  5  2  0  0  0  0
  2  6  2  0  0  0  0
  3  8  2  0  0  0  0
  3 15  1  0  0  0  0
  4  9  1  0  0  0  0
  4 15  2  0  0  0  0
  5 17  1  0  0  0  0
  6 19  1  0  0  0  0
  7 10  2  0  0  0  0
  7 18  1  0  0  0  0
  8 21  1  0  0  0  0
  9 21  2  0  0  0  0
 10 22  1  0  0  0  0
 11 12  2  0  0  0  0
 11 23  1  0  0  0  0
 12 24  1  0  0  0  0
 13 20  1  0  0  0  0
 13 22  2  0  0  0  0
 14 24  2  0  0  0  0
 14 25  1  0  0  0  0
 15 26  1  0  0  0  0
 16 26  1  0  0  0  0
 16 29  2  0  0  0  0
 16 31  1  0  0  0  0
 17 19  2  0  0  0  0
 17 36  1  0  0  0  0
 18 20  2  0  0  0  0
 18 37  1  0  0  0  0
 19 45  1  0  0  0  0
 20 38  1  0  0  0  0
 21 88  1  0  0  0  0
 22 89  1  0  0  0  0
 23 25  2  0  0  0  0
 23 88  1  0  0  0  0
 24 90  1  0  0  0  0
 25 91  1  0  0  0  0
 26 71  2  0  0  0  0
 27 28  2  0  0  0  0
 27 66  1  0  0  0  0
 27 72  1  0  0  0  0
 28 57  1  0  0  0  0
 28 74  1  0  0  0  0
 29 73  1  0  0  0  0
 29 77  1  0  0  0  0
 30 58  1  0  0  0  0
 30 72  1  0  0  0  0
 30 74  2  0  0  0  0
 31 78  1  0  0  0  0
 31 83  2  0  0  0  0
 32 46  1  0  0  0  0
 32 79  1  0  0  0  0
 32 84  2  0  0  0  0
 33 67  1  0  0  0  0
 33 75  1  0  0  0  0
 33 85  2  0  0  0  0
 34 68  1  0  0  0  0
 34 80  1  0  0  0  0
 34 86  2  0  0  0  0
 35 76  1  0  0  0  0
 35 81  1  0  0  0  0
 35 87  2  0  0  0  0
 36 39  1  0  0  0  0
 37 46  1  0  0  0  0
 38 75  1  0  0  0  0
 39 41  1  0  0  0  0
 40 42  1  0  0  0  0
 40 43  1  0  0  0  0
 41 45  1  0  0  0  0
 42 47  1  0  0  0  0
 43 76  1  0  0  0  0
 44 47  1  0  0  0  0
 44 76  1  0  0  0  0
 45 79  1  0  0  0  0
 46 75  1  0  0  0  0
 47 73  1  0  0  0  0
 48 57  1  0  0  0  0
 49 59  1  0  0  0  0
 50 68  1  0  0  0  0
 51 69  1  0  0  0  0
 52 69  1  0  0  0  0
 53 70  1  0  0  0  0
 54 70  1  0  0  0  0
 55 70  1  0  0  0  0
 56 82  1  0  0  0  0
 58 60  1  0  0  0  0
 59 66  1  0  0  0  0
 60 64  1  0  0  0  0
 61 63  1  0  0  0  0
 61 65  1  0  0  0  0
 62 66  1  0  0  0  0
 62 69  1  0  0  0  0
 63 72  1  0  0  0  0
 64 81  1  0  0  0  0
 65 89  1  0  0  0  0
 67 70  1  0  0  0  0
 67 80  1  0  0  0  0
 68 82  1  0  0  0  0
 71 73  1  0  0  0  0
M  CHG  2  74   1  82   1
M  ISO  4  35 100  65 101  81 100  89 101
M  END
> <Batch ID>
0043

> <Smiles>
CCc1nc(CCC[100NH:0][100C:0](=O)N2CCCC(n3nc(-c4ccc(Oc5ccc(F)cc5F)cc4)c(C(N)=O)c3N)C2)n(CC[101CH2:1][101O:1]c2ccc3c(c2)CN(C(=O)C(NC(=O)C(C)NC)C(C)(C)C)C(C(=O)NC2CCCc4ccccc42)C3)c1C(CC)CC(C)C

> <Shape>
0.214

> <Color>
0.077

> <Negative vol penalty>
0.000

$$$$

  -OEChem-04052317143D

 87 95  0     1  0  0  0  0  0999 V2000
  -22.0114   -8.8139   20.5490 C   0  0  0  0  0  0  0  0  0  0  0  0
  -21.9273  -10.1939   20.7032 C   0  0  0  0  0  0  0  0  0  0  0  0
  -25.7568  -28.4214   21.4651 C   0  0  0  0  0  0  0  0  0  0  0  0
  -25.1249  -27.8352   19.2080 C   0  0  0  0  0  0  0  0  0  0  0  0
  -23.1407   -8.1309   20.9987 C   0  0  0  0  0  0  0  0  0  0  0  0
  -22.9720  -10.8917   21.3082 C   0  0  0  0  0  0  0  0  0  0  0  0
  -24.1847  -15.1256   18.8086 C   0  0  0  0  0  0  0  0  0  0  0  0
  -27.0595  -27.9918   21.2119 C   0  0  0  0  0  0  0  0  0  0  0  0
  -26.4276  -27.4056   18.9549 C   0  0  0  0  0  0  0  0  0  0  0  0
  -23.3533  -16.2305   18.9866 C   0  0  0  0  0  0  0  0  0  0  0  0
  -29.4966  -25.8202   17.8248 C   0  0  0  0  0  0  0  0  0  0  0  0
  -29.6609  -24.6062   17.1578 C   0  0  0  0  0  0  0  0  0  0  0  0
  -24.9268  -17.1526   20.5655 C   0  0  0  0  0  0  0  0  0  0  0  0
  -28.4895  -23.4692   18.9389 C   0  0  0  0  0  0  0  0  0  0  0  0
  -24.7895  -28.3431   20.4631 C   0  0  0  0  0  0  0  0  0  0  0  0
  -22.9225  -30.0800   20.5338 C   0  0  0  0  0  0  0  0  0  0  0  0
  -24.2040   -8.8219   21.6008 C   0  0  0  0  0  0  0  0  0  0  0  0
  -25.3904  -15.0206   19.5170 C   0  0  0  0  0  0  0  0  0  0  0  0
  -24.1160  -10.2172   21.7676 C   0  0  0  0  0  0  0  0  0  0  0  0
  -25.7730  -16.0466   20.3927 C   0  0  0  0  0  0  0  0  0  0  0  0
  -27.3949  -27.4839   19.9569 C   0  0  0  0  0  0  0  0  0  0  0  0
  -23.7229  -17.2428   19.8674 C   0  0  0  0  0  0  0  0  0  0  0  0
  -28.8289  -25.8587   19.0489 C   0  0  0  0  0  0  0  0  0  0  0  0
  -29.1573  -23.4307   17.7148 C   0  0  0  0  0  0  0  0  0  0  0  0
  -28.3253  -24.6832   19.6059 C   0  0  0  0  0  0  0  0  0  0  0  0
  -23.4435  -28.7862   20.7242 C   0  0  0  0  0  0  0  0  0  0  0  0
  -22.9511  -23.1328   18.8464 C   0  0  0  0  0  0  0  0  0  0  0  0
  -23.2561  -22.3709   19.9526 C   0  0  0  0  0  0  0  0  0  0  0  0
  -21.3266  -21.6334   18.2613 C   0  0  0  0  0  0  0  0  0  0  0  0
  -21.6320  -20.8710   19.3671 C   0  0  0  0  0  0  0  0  0  0  0  0
  -21.6098  -29.9827   20.9257 C   0  0  0  0  0  0  0  0  0  0  0  0
  -23.5675  -31.2641   20.0462 C   0  0  0  0  0  0  0  0  0  0  0  0
  -26.5693  -12.9776   21.6477 C   0  0  0  0  0  0  0  0  0  0  0  0
  -29.2605  -14.7508   21.2796 C   0  0  0  0  0  0  0  0  0  0  0  0
  -30.6674  -17.7326   20.3987 C   0  0  0  0  0  0  0  0  0  0  0  0
  -17.7690  -25.3981   21.2113 C   0  0  0  0  0  0  0  0  0  0  0  0
  -25.3836   -8.0345   22.1138 C   0  0  0  0  0  0  0  0  0  0  0  0
  -26.2889  -13.8352   19.2936 C   0  0  0  0  0  0  0  0  0  0  0  0
  -27.0668  -15.9914   21.1619 C   0  0  0  0  0  0  0  0  0  0  0  0
  -26.6100   -8.8953   22.4058 C   0  0  0  0  0  0  0  0  0  0  0  0
  -18.7571  -27.5328   23.8840 C   0  0  0  0  0  0  0  0  0  0  0  0
  -26.2137  -10.1386   23.1956 C   0  0  0  0  0  0  0  0  0  0  0  0
  -20.0232  -28.2129   23.3601 C   0  0  0  0  0  0  0  0  0  0  0  0
  -18.6621  -26.0815   23.4185 C   0  0  0  0  0  0  0  0  0  0  0  0
  -20.0433  -26.5700   21.4367 C   0  0  0  0  0  0  0  0  0  0  0  0
  -25.2394  -11.0125   22.3965 C   0  0  1  0  0  0  0  0  0  0  0  0
  -27.2483  -13.5857   20.4532 C   0  0  1  0  0  0  0  0  0  0  0  0
  -20.1555  -28.0519   21.8337 C   0  0  2  0  0  0  0  0  0  0  0  0
  -23.6817  -24.3971   18.5475 C   0  0  0  0  0  0  0  0  0  0  0  0
  -24.7137  -21.6504   21.8612 C   0  0  0  0  0  0  0  0  0  0  0  0
  -32.8870  -18.8925   20.2381 C   0  0  0  0  0  0  0  0  0  0  0  0
  -29.2945  -15.1005   24.3106 C   0  0  0  0  0  0  0  0  0  0  0  0
  -30.9090  -16.9894   24.0047 C   0  0  0  0  0  0  0  0  0  0  0  0
  -31.5365  -14.6854   23.2831 C   0  0  0  0  0  0  0  0  0  0  0  0
  -30.3799  -18.1287   17.4799 C   0  0  0  0  0  0  0  0  0  0  0  0
  -24.3309  -22.7756   20.9027 C   0  0  0  0  0  0  0  0  0  0  0  0
  -20.2509  -21.2295   17.3118 C   0  0  0  0  0  0  0  0  0  0  0  0
  -20.8922  -19.5905   19.6693 C   0  0  0  0  0  0  0  0  0  0  0  0
  -18.8472  -21.5275   17.8611 C   0  0  0  0  0  0  0  0  0  0  0  0
  -18.6376  -23.0235   18.1046 C   0  0  0  0  0  0  0  0  0  0  0  0
  -17.2494  -23.3019   18.6885 C   0  0  0  0  0  0  0  0  0  0  0  0
  -17.0029  -24.7873   18.9311 C   0  0  0  0  0  0  0  0  0  0  0  0
  -21.6990  -18.3523   19.2939 C   0  0  0  0  0  0  0  0  0  1  0  0
  -29.8288  -15.9819   21.9433 C   0  0  1  0  0  0  0  0  0  0  0  0
  -31.8459  -18.0643   19.5012 C   0  0  2  0  0  0  0  0  0  0  0  0
  -30.3668  -15.6897   23.3725 C   0  0  0  0  0  0  0  0  0  0  0  0
  -22.5358  -27.9297   21.2002 N   0  0  0  0  0  0  0  0  0  0  0  0
  -21.9809  -22.7779   17.9808 N   0  0  0  0  0  0  0  0  0  0  0  0
  -22.6020  -21.2262   20.2329 N   0  0  0  0  0  0  0  0  0  0  0  0
  -21.4313  -28.6870   21.3123 N   0  0  0  0  0  0  0  0  0  0  0  0
  -27.9082  -14.8090   20.9140 N   0  0  0  0  0  0  0  0  0  0  0  0
  -18.7934  -25.9984   21.9619 N   0  0  0  0  0  0  0  0  0  0  0  0
  -20.6022  -30.8799   20.9740 N   0  0  0  0  0  0  0  0  0  0  0  0
  -24.9204  -31.1885   19.6878 N   0  0  0  0  0  0  0  0  0  0  0  0
  -25.9500  -11.7698   21.3885 N   0  0  0  0  0  0  0  0  0  0  0  0
  -30.8296  -16.5153   21.0256 N   0  0  0  0  0  0  0  0  0  0  0  0
  -17.9700  -25.3664   19.8367 N   0  0  0  0  0  0  0  0  0  0  0  0
  -31.3892  -18.8350   18.3102 N   0  3  0  0  0  0  0  0  0  0  0  0
  -22.9665  -32.3606   19.9471 O   0  0  0  0  0  0  0  0  0  0  0  0
  -26.6060  -13.5602   22.7252 O   0  0  0  0  0  0  0  0  0  0  0  0
  -29.9915  -13.7762   21.0861 O   0  0  0  0  0  0  0  0  0  0  0  0
  -29.7015  -18.4805   20.5334 O   0  0  0  0  0  0  0  0  0  0  0  0
  -16.7484  -24.9302   21.7274 O   0  0  0  0  0  0  0  0  0  0  0  0
  -28.6660  -27.0648   19.7094 O   0  0  0  0  0  0  0  0  0  0  0  0
  -22.9128  -18.3220   20.0435 O   0  0  0  0  0  0  0  0  0  1  0  0
  -29.3137  -22.2652   17.0734 F   0  0  0  0  0  0  0  0  0  0  0  0
  -27.6819  -24.7140   20.7810 F   0  0  0  0  0  0  0  0  0  0  0  0
  1  2  1  0  0  0  0
  1  5  2  0  0  0  0
  2  6  2  0  0  0  0
  3  8  2  0  0  0  0
  3 15  1  0  0  0  0
  4  9  1  0  0  0  0
  4 15  2  0  0  0  0
  5 17  1  0  0  0  0
  6 19  1  0  0  0  0
  7 10  2  0  0  0  0
  7 18  1  0  0  0  0
  8 21  1  0  0  0  0
  9 21  2  0  0  0  0
 10 22  1  0  0  0  0
 11 12  2  0  0  0  0
 11 23  1  0  0  0  0
 12 24  1  0  0  0  0
 13 20  1  0  0  0  0
 13 22  2  0  0  0  0
 14 24  2  0  0  0  0
 14 25  1  0  0  0  0
 15 26  1  0  0  0  0
 16 26  1  0  0  0  0
 16 31  2  0  0  0  0
 16 32  1  0  0  0  0
 17 19  2  0  0  0  0
 17 37  1  0  0  0  0
 18 20  2  0  0  0  0
 18 38  1  0  0  0  0
 19 46  1  0  0  0  0
 20 39  1  0  0  0  0
 21 84  1  0  0  0  0
 22 85  1  0  0  0  0
 23 25  2  0  0  0  0
 23 84  1  0  0  0  0
 24 86  1  0  0  0  0
 25 87  1  0  0  0  0
 26 67  2  0  0  0  0
 27 28  2  0  0  0  0
 27 49  1  0  0  0  0
 27 68  1  0  0  0  0
 28 56  1  0  0  0  0
 28 69  1  0  0  0  0
 29 30  1  0  0  0  0
 29 57  1  0  0  0  0
 29 68  2  0  0  0  0
 30 58  1  0  0  0  0
 30 69  2  0  0  0  0
 31 70  1  0  0  0  0
 31 73  1  0  0  0  0
 32 74  1  0  0  0  0
 32 79  2  0  0  0  0
 33 47  1  0  0  0  0
 33 75  1  0  0  0  0
 33 80  2  0  0  0  0
 34 64  1  0  0  0  0
 34 71  1  0  0  0  0
 34 81  2  0  0  0  0
 35 65  1  0  0  0  0
 35 76  1  0  0  0  0
 35 82  2  0  0  0  0
 36 72  1  0  0  0  0
 36 77  1  0  0  0  0
 36 83  2  0  0  0  0
 37 40  1  0  0  0  0
 38 47  1  0  0  0  0
 39 71  1  0  0  0  0
 40 42  1  0  0  0  0
 41 43  1  0  0  0  0
 41 44  1  0  0  0  0
 42 46  1  0  0  0  0
 43 48  1  0  0  0  0
 44 72  1  0  0  0  0
 45 48  1  0  0  0  0
 45 72  1  0  0  0  0
 46 75  1  0  0  0  0
 47 71  1  0  0  0  0
 48 70  1  0  0  0  0
 50 56  1  0  0  0  0
 51 65  1  0  0  0  0
 52 66  1  0  0  0  0
 53 66  1  0  0  0  0
 54 66  1  0  0  0  0
 55 78  1  0  0  0  0
 57 59  1  0  0  0  0
 58 63  1  0  0  0  0
 59 60  1  0  0  0  0
 60 61  1  0  0  0  0
 61 62  1  0  0  0  0
 62 77  1  0  0  0  0
 63 85  1  0  0  0  0
 64 66  1  0  0  0  0
 64 76  1  0  0  0  0
 65 78  1  0  0  0  0
 67 70  1  0  0  0  0
M  CHG  1  78   1
M  ISO  4  36 100  63 101  77 100  85 101
M  END
> <Batch ID>
0043

> <Smiles>
CCc1nc(C[101CH2:1][101O:1]c2ccc3c(c2)CN(C(=O)C(NC(=O)C(C)NC)C(C)(C)C)C(C(=O)NC2CCCc4ccccc42)C3)c(CCCCC[100NH:0][100C:0](=O)N2CCCC(n3nc(-c4ccc(Oc5ccc(F)cc5F)cc4)c(C(N)=O)c3N)C2)nc1C

> <Shape>
0.258

> <Color>
0.066

> <Negative vol penalty>
0.000

$$$$

  -OEChem-04052317143D

 84 92  0     1  0  0  0  0  0999 V2000
  -17.1083  -24.6961   23.9846 C   0  0  0  0  0  0  0  0  0  0  0  0
  -17.8334  -24.0328   22.9999 C   0  0  0  0  0  0  0  0  0  0  0  0
  -25.6720  -15.1176   21.7458 C   0  0  0  0  0  0  0  0  0  0  0  0
  -25.2881  -16.2298   19.6356 C   0  0  0  0  0  0  0  0  0  0  0  0
  -17.3089  -26.0593   24.1974 C   0  0  0  0  0  0  0  0  0  0  0  0
  -18.7590  -24.7327   22.2267 C   0  0  0  0  0  0  0  0  0  0  0  0
  -24.0691  -22.6167   20.0287 C   0  0  0  0  0  0  0  0  0  0  0  0
  -24.3623  -14.6380   21.7313 C   0  0  0  0  0  0  0  0  0  0  0  0
  -23.9784  -15.7501   19.6211 C   0  0  0  0  0  0  0  0  0  0  0  0
  -24.4355  -22.1199   18.7786 C   0  0  0  0  0  0  0  0  0  0  0  0
  -22.6363  -12.1526   20.2224 C   0  0  0  0  0  0  0  0  0  0  0  0
  -22.4331  -10.8124   20.5512 C   0  0  0  0  0  0  0  0  0  0  0  0
  -25.2573  -24.3016   18.1590 C   0  0  0  0  0  0  0  0  0  0  0  0
  -21.0280  -11.4790   22.4001 C   0  0  0  0  0  0  0  0  0  0  0  0
  -26.1349  -15.9136   20.6980 C   0  0  0  0  0  0  0  0  0  0  0  0
  -28.6284  -15.7843   20.1752 C   0  0  0  0  0  0  0  0  0  0  0  0
  -18.2444  -26.7742   23.4329 C   0  0  0  0  0  0  0  0  0  0  0  0
  -24.2845  -23.9646   20.3499 C   0  0  0  0  0  0  0  0  0  0  0  0
  -18.9714  -26.1070   22.4286 C   0  0  0  0  0  0  0  0  0  0  0  0
  -24.8951  -24.8125   19.4148 C   0  0  0  0  0  0  0  0  0  0  0  0
  -23.5155  -14.9542   20.6690 C   0  0  0  0  0  0  0  0  0  0  0  0
  -25.0270  -22.9630   17.8425 C   0  0  0  0  0  0  0  0  0  0  0  0
  -22.0354  -13.1560   20.9825 C   0  0  0  0  0  0  0  0  0  0  0  0
  -21.6289  -10.4755   21.6400 C   0  0  0  0  0  0  0  0  0  0  0  0
  -21.2312  -12.8192   22.0713 C   0  0  0  0  0  0  0  0  0  0  0  0
  -27.4875  -16.4098   20.7127 C   0  0  0  0  0  0  0  0  0  0  0  0
  -28.5838  -22.6235   14.7443 C   0  0  0  0  0  0  0  0  0  0  0  0
  -27.9946  -21.6874   15.5464 C   0  0  0  0  0  0  0  0  0  0  0  0
  -29.6564  -16.6541   20.4456 C   0  0  0  0  0  0  0  0  0  0  0  0
  -29.8573  -22.3598   16.5356 C   0  0  0  0  0  0  0  0  0  0  0  0
  -28.7482  -14.5292   19.4925 C   0  0  0  0  0  0  0  0  0  0  0  0
  -22.4103  -26.4160   21.1126 C   0  0  0  0  0  0  0  0  0  0  0  0
  -25.2401  -27.9183   21.6201 C   0  0  0  0  0  0  0  0  0  0  0  0
  -28.5811  -28.1071   20.9500 C   0  0  0  0  0  0  0  0  0  0  0  0
  -29.8539  -22.5611   21.4046 C   0  0  0  0  0  0  0  0  0  0  0  0
  -18.3925  -28.2566   23.6675 C   0  0  0  0  0  0  0  0  0  0  0  0
  -23.9080  -24.4788   21.7124 C   0  0  0  0  0  0  0  0  0  0  0  0
  -25.1666  -26.2626   19.7178 C   0  0  0  0  0  0  0  0  0  0  0  0
  -19.6622  -28.8458   23.0583 C   0  0  0  0  0  0  0  0  0  0  0  0
  -31.0026  -19.9975   23.5921 C   0  0  0  0  0  0  0  0  0  0  0  0
  -19.8467  -28.3514   21.6271 C   0  0  0  0  0  0  0  0  0  0  0  0
  -30.3349  -18.7309   23.0537 C   0  0  0  0  0  0  0  0  0  0  0  0
  -30.0870  -21.2135   23.4701 C   0  0  0  0  0  0  0  0  0  0  0  0
  -28.8870  -20.1880   21.5776 C   0  0  0  0  0  0  0  0  0  0  0  0
  -20.0023  -26.8264   21.5860 C   0  0  1  0  0  0  0  0  0  0  0  0
  -23.7049  -25.9904   21.7455 C   0  0  1  0  0  0  0  0  0  0  0  0
  -29.7927  -18.9456   21.6278 C   0  0  2  0  0  0  0  0  0  0  0  0
  -27.5523  -24.5738   13.5531 C   0  0  0  0  0  0  0  0  0  0  0  0
  -30.9524  -28.9061   21.1394 C   0  0  0  0  0  0  0  0  0  0  0  0
  -24.2665  -30.1175   19.7424 C   0  0  0  0  0  0  0  0  0  0  0  0
  -26.6322  -30.9176   19.5657 C   0  0  0  0  0  0  0  0  0  0  0  0
  -25.4721  -30.9384   21.7739 C   0  0  0  0  0  0  0  0  0  0  0  0
  -30.6757  -24.0093   14.8856 C   0  0  0  0  0  0  0  0  0  0  0  0
  -29.1822  -26.1745   23.1093 C   0  0  0  0  0  0  0  0  0  0  0  0
  -28.1662  -23.1707   13.4467 C   0  0  0  0  0  0  0  0  0  0  0  0
  -26.7218  -20.8916   15.3887 C   0  0  0  0  0  0  0  0  0  0  0  0
  -30.9544  -22.4909   17.5264 C   0  0  0  0  0  0  0  0  0  0  0  0
  -30.8441  -23.7221   18.4525 C   0  0  0  0  0  0  0  0  0  0  0  0
  -29.5519  -23.7807   19.2644 C   0  0  0  0  0  0  0  0  0  0  0  0
  -25.7569  -21.1049   16.5499 C   0  0  0  0  0  0  0  0  0  1  0  0
  -26.1867  -28.7308   20.7699 C   0  0  1  0  0  0  0  0  0  0  0  0
  -29.7849  -28.2536   21.8632 C   0  0  2  0  0  0  0  0  0  0  0  0
  -25.6326  -30.1493   20.4563 C   0  0  0  0  0  0  0  0  0  0  0  0
  -27.7643  -17.5861   21.2817 N   0  0  0  0  0  0  0  0  0  0  0  0
  -29.7341  -23.0227   15.3811 N   0  0  0  0  0  0  0  0  0  0  0  0
  -29.0908  -17.7066   21.1033 N   0  0  0  0  0  0  0  0  0  0  0  0
  -28.8042  -21.5439   16.6473 N   0  3  0  0  0  0  0  0  0  0  0  0
  -24.7746  -26.7196   21.0613 N   0  0  0  0  0  0  0  0  0  0  0  0
  -29.6086  -21.3617   22.0935 N   0  0  0  0  0  0  0  0  0  0  0  0
  -30.9799  -16.6136   20.1827 N   0  0  0  0  0  0  0  0  0  0  0  0
  -27.5921  -13.7610   19.2987 N   0  0  0  0  0  0  0  0  0  0  0  0
  -21.3396  -26.4438   21.9857 N   0  0  0  0  0  0  0  0  0  0  0  0
  -27.4666  -28.7306   21.4701 N   0  0  0  0  0  0  0  0  0  0  0  0
  -29.3722  -22.6161   20.1024 N   0  0  0  0  0  0  0  0  0  0  0  0
  -30.2254  -26.9185   22.3577 N   0  3  0  0  0  0  0  0  0  0  0  0
  -29.8505  -14.0941   19.0813 O   0  0  0  0  0  0  0  0  0  0  0  0
  -22.3850  -26.6997   19.9207 O   0  0  0  0  0  0  0  0  0  0  0  0
  -24.9308  -28.3285   22.7416 O   0  0  0  0  0  0  0  0  0  0  0  0
  -28.6259  -27.5034   19.8804 O   0  0  0  0  0  0  0  0  0  0  0  0
  -30.4620  -23.5103   21.9106 O   0  0  0  0  0  0  0  0  0  0  0  0
  -22.2375  -14.4861   20.6544 O   0  0  0  0  0  0  0  0  0  0  0  0
  -25.3850  -22.4808   16.6214 O   0  0  0  0  0  0  0  0  0  1  0  0
  -21.4326   -9.1884   21.9547 F   0  0  0  0  0  0  0  0  0  0  0  0
  -20.6503  -13.7788   22.8045 F   0  0  0  0  0  0  0  0  0  0  0  0
  1  2  1  0  0  0  0
  1  5  2  0  0  0  0
  2  6  2  0  0  0  0
  3  8  2  0  0  0  0
  3 15  1  0  0  0  0
  4  9  1  0  0  0  0
  4 15  2  0  0  0  0
  5 17  1  0  0  0  0
  6 19  1  0  0  0  0
  7 10  2  0  0  0  0
  7 18  1  0  0  0  0
  8 21  1  0  0  0  0
  9 21  2  0  0  0  0
 10 22  1  0  0  0  0
 11 12  2  0  0  0  0
 11 23  1  0  0  0  0
 12 24  1  0  0  0  0
 13 20  1  0  0  0  0
 13 22  2  0  0  0  0
 14 24  2  0  0  0  0
 14 25  1  0  0  0  0
 15 26  1  0  0  0  0
 16 26  1  0  0  0  0
 16 29  2  0  0  0  0
 16 31  1  0  0  0  0
 17 19  2  0  0  0  0
 17 36  1  0  0  0  0
 18 20  2  0  0  0  0
 18 37  1  0  0  0  0
 19 45  1  0  0  0  0
 20 38  1  0  0  0  0
 21 81  1  0  0  0  0
 22 82  1  0  0  0  0
 23 25  2  0  0  0  0
 23 81  1  0  0  0  0
 24 83  1  0  0  0  0
 25 84  1  0  0  0  0
 26 64  2  0  0  0  0
 27 28  2  0  0  0  0
 27 55  1  0  0  0  0
 27 65  1  0  0  0  0
 28 56  1  0  0  0  0
 28 67  1  0  0  0  0
 29 66  1  0  0  0  0
 29 70  1  0  0  0  0
 30 57  1  0  0  0  0
 30 65  1  0  0  0  0
 30 67  2  0  0  0  0
 31 71  1  0  0  0  0
 31 76  2  0  0  0  0
 32 46  1  0  0  0  0
 32 72  1  0  0  0  0
 32 77  2  0  0  0  0
 33 61  1  0  0  0  0
 33 68  1  0  0  0  0
 33 78  2  0  0  0  0
 34 62  1  0  0  0  0
 34 73  1  0  0  0  0
 34 79  2  0  0  0  0
 35 69  1  0  0  0  0
 35 74  1  0  0  0  0
 35 80  2  0  0  0  0
 36 39  1  0  0  0  0
 37 46  1  0  0  0  0
 38 68  1  0  0  0  0
 39 41  1  0  0  0  0
 40 42  1  0  0  0  0
 40 43  1  0  0  0  0
 41 45  1  0  0  0  0
 42 47  1  0  0  0  0
 43 69  1  0  0  0  0
 44 47  1  0  0  0  0
 44 69  1  0  0  0  0
 45 72  1  0  0  0  0
 46 68  1  0  0  0  0
 47 66  1  0  0  0  0
 48 55  1  0  0  0  0
 49 62  1  0  0  0  0
 50 63  1  0  0  0  0
 51 63  1  0  0  0  0
 52 63  1  0  0  0  0
 53 65  1  0  0  0  0
 54 75  1  0  0  0  0
 56 60  1  0  0  0  0
 57 58  1  0  0  0  0
 58 59  1  0  0  0  0
 59 74  1  0  0  0  0
 60 82  1  0  0  0  0
 61 63  1  0  0  0  0
 61 73  1  0  0  0  0
 62 75  1  0  0  0  0
 64 66  1  0  0  0  0
M  CHG  2  67   1  75   1
M  ISO  4  35 100  60 101  74 100  82 101
M  END
> <Batch ID>
0043

> <Smiles>
CCc1c(C[101CH2:1][101O:1]c2ccc3c(c2)CN(C(=O)C(NC(=O)C(C)NC)C(C)(C)C)C(C(=O)NC2CCCc4ccccc42)C3)nc(CCC[100NH:0][100C:0](=O)N2CCCC(n3nc(-c4ccc(Oc5ccc(F)cc5F)cc4)c(C(N)=O)c3N)C2)n1C

> <Shape>
0.239

> <Color>
0.050

> <Negative vol penalty>
0.000

$$$$

  -OEChem-04052317143D

 83 91  0     1  0  0  0  0  0999 V2000
  -21.3381   -7.6264   22.9110 C   0  0  0  0  0  0  0  0  0  0  0  0
  -22.1290   -8.2345   21.9415 C   0  0  0  0  0  0  0  0  0  0  0  0
  -24.3135  -26.7099   19.3667 C   0  0  0  0  0  0  0  0  0  0  0  0
  -24.2882  -26.2154   21.7314 C   0  0  0  0  0  0  0  0  0  0  0  0
  -20.2997   -8.3388   23.5095 C   0  0  0  0  0  0  0  0  0  0  0  0
  -21.8813   -9.5553   21.5691 C   0  0  0  0  0  0  0  0  0  0  0  0
  -26.1202  -12.3050   21.2281 C   0  0  0  0  0  0  0  0  0  0  0  0
  -22.9195  -26.6666   19.3427 C   0  0  0  0  0  0  0  0  0  0  0  0
  -22.8942  -26.1722   21.7075 C   0  0  0  0  0  0  0  0  0  0  0  0
  -26.8985  -12.1359   20.0838 C   0  0  0  0  0  0  0  0  0  0  0  0
  -19.3165  -26.2878   22.3437 C   0  0  0  0  0  0  0  0  0  0  0  0
  -18.6289  -26.9420   23.3659 C   0  0  0  0  0  0  0  0  0  0  0  0
  -25.9561  -14.1517   19.1523 C   0  0  0  0  0  0  0  0  0  0  0  0
  -19.6449  -29.0338   22.7105 C   0  0  0  0  0  0  0  0  0  0  0  0
  -30.1886  -15.6464   19.2677 C   0  0  0  0  0  0  0  0  0  0  0  0
  -31.8730  -14.2809   18.8742 C   0  0  0  0  0  0  0  0  0  0  0  0
  -24.9978  -26.4842   20.5611 C   0  0  0  0  0  0  0  0  0  0  0  0
  -27.2498  -27.6520   20.8303 C   0  0  0  0  0  0  0  0  0  0  0  0
  -20.0454   -9.6721   23.1512 C   0  0  0  0  0  0  0  0  0  0  0  0
  -25.2444  -13.3947   21.3386 C   0  0  0  0  0  0  0  0  0  0  0  0
  -20.8378  -10.2859   22.1624 C   0  0  0  0  0  0  0  0  0  0  0  0
  -25.1696  -14.3338   20.3001 C   0  0  0  0  0  0  0  0  0  0  0  0
  -22.2099  -26.3978   20.5131 C   0  0  0  0  0  0  0  0  0  0  0  0
  -26.8144  -13.0578   19.0444 C   0  0  0  0  0  0  0  0  0  0  0  0
  -20.1683  -27.0066   21.5049 C   0  0  0  0  0  0  0  0  0  0  0  0
  -18.7931  -28.3150   23.5492 C   0  0  0  0  0  0  0  0  0  0  0  0
  -20.3325  -28.3795   21.6883 C   0  0  0  0  0  0  0  0  0  0  0  0
  -26.4378  -26.5282   20.5864 C   0  0  0  0  0  0  0  0  0  0  0  0
  -31.1324  -15.7114   20.2655 C   0  0  0  0  0  0  0  0  0  0  0  0
  -28.5341  -27.1728   20.7447 C   0  0  0  0  0  0  0  0  0  0  0  0
  -26.8765  -29.0079   21.1094 C   0  0  0  0  0  0  0  0  0  0  0  0
  -22.0978  -13.7211   21.6478 C   0  0  0  0  0  0  0  0  0  0  0  0
  -22.8495  -16.8573   21.9963 C   0  0  0  0  0  0  0  0  0  0  0  0
  -25.0595  -19.3898   21.4056 C   0  0  0  0  0  0  0  0  0  0  0  0
  -30.7899  -21.7883   21.6248 C   0  0  0  0  0  0  0  0  0  0  0  0
  -18.8818  -10.3866   23.7918 C   0  0  0  0  0  0  0  0  0  0  0  0
  -24.4314  -13.5774   22.5908 C   0  0  0  0  0  0  0  0  0  0  0  0
  -24.2601  -15.5317   20.3781 C   0  0  0  0  0  0  0  0  0  0  0  0
  -18.9228  -11.9017   23.6103 C   0  0  0  0  0  0  0  0  0  0  0  0
  -31.1233  -23.7608   18.6089 C   0  0  0  0  0  0  0  0  0  0  0  0
  -19.2383  -12.2575   22.1609 C   0  0  0  0  0  0  0  0  0  0  0  0
  -30.0249  -24.8070   18.8067 C   0  0  0  0  0  0  0  0  0  0  0  0
  -30.6870  -22.3955   19.1321 C   0  0  0  0  0  0  0  0  0  0  0  0
  -29.1550  -23.4368   20.7576 C   0  0  0  0  0  0  0  0  0  0  0  0
  -20.6161  -11.7248   21.7494 C   0  0  1  0  0  0  0  0  0  0  0  0
  -23.1938  -14.4438   22.3786 C   0  0  1  0  0  0  0  0  0  0  0  0
  -29.5434  -24.8442   20.2692 C   0  0  2  0  0  0  0  0  0  0  0  0
  -25.3816  -21.8503   21.7790 C   0  0  0  0  0  0  0  0  0  0  0  0
  -20.8543  -17.4544   19.7664 C   0  0  0  0  0  0  0  0  0  0  0  0
  -21.8953  -19.7198   19.5366 C   0  0  0  0  0  0  0  0  0  0  0  0
  -20.7955  -19.0659   21.6780 C   0  0  0  0  0  0  0  0  0  0  0  0
  -27.5114  -18.9444   23.0019 C   0  0  0  0  0  0  0  0  0  0  0  0
  -31.1206  -16.5460   21.4766 C   0  0  0  0  0  0  0  0  0  0  0  0
  -31.7891  -17.9224   21.2660 C   0  0  0  0  0  0  0  0  0  0  0  0
  -31.8081  -18.7646   22.5451 C   0  0  0  0  0  0  0  0  0  0  0  0
  -29.7921  -12.7660   17.0244 C   0  0  0  0  0  0  0  0  0  0  0  0
  -30.0159  -14.2777   17.1048 C   0  0  0  0  0  0  0  0  0  0  0  0
  -32.4791  -20.1196   22.3452 C   0  0  0  0  0  0  0  0  0  0  0  0
  -28.8308  -12.2405   18.0842 C   0  0  0  0  0  0  0  0  0  1  0  0
  -23.0156  -18.0276   21.0573 C   0  0  1  0  0  0  0  0  0  0  0  0
  -25.6411  -20.4529   22.3199 C   0  0  2  0  0  0  0  0  0  0  0  0
  -21.6560  -18.5434   20.5070 C   0  0  0  0  0  0  0  0  0  0  0  0
  -32.1786  -14.8593   20.0145 N   0  0  0  0  0  0  0  0  0  0  0  0
  -27.1468  -25.4186   20.3625 N   0  0  0  0  0  0  0  0  0  0  0  0
  -30.6771  -14.7262   18.3835 N   0  0  0  0  0  0  0  0  0  0  0  0
  -28.4178  -25.8429   20.4652 N   0  0  0  0  0  0  0  0  0  0  0  0
  -23.4807  -15.6631   21.6202 N   0  0  0  0  0  0  0  0  0  0  0  0
  -30.2585  -22.4968   20.5343 N   0  0  0  0  0  0  0  0  0  0  0  0
  -29.7402  -27.7634   20.8819 N   0  0  0  0  0  0  0  0  0  0  0  0
  -25.5131  -29.3284   21.1611 N   0  0  0  0  0  0  0  0  0  0  0  0
  -21.6639  -12.5710   22.2790 N   0  0  0  0  0  0  0  0  0  0  0  0
  -23.7840  -19.0304   21.7869 N   0  0  0  0  0  0  0  0  0  0  0  0
  -31.8275  -20.9134   21.3272 N   0  0  0  0  0  0  0  0  0  0  0  0
  -27.1135  -20.2683   22.4579 N   0  3  0  0  0  0  0  0  0  0  0  0
  -27.7270  -29.9120   21.2909 O   0  0  0  0  0  0  0  0  0  0  0  0
  -21.6758  -14.1742   20.5902 O   0  0  0  0  0  0  0  0  0  0  0  0
  -22.1902  -16.9994   23.0291 O   0  0  0  0  0  0  0  0  0  0  0  0
  -25.6736  -18.9274   20.4466 O   0  0  0  0  0  0  0  0  0  0  0  0
  -30.3740  -21.9291   22.7799 O   0  0  0  0  0  0  0  0  0  0  0  0
  -20.8496  -26.3557   20.4901 O   0  0  0  0  0  0  0  0  0  0  0  0
  -27.5725  -12.8947   17.9261 O   0  0  0  0  0  0  0  0  0  1  0  0
  -18.1316  -28.9434   24.5299 F   0  0  0  0  0  0  0  0  0  0  0  0
  -21.1486  -29.0756   20.8849 F   0  0  0  0  0  0  0  0  0  0  0  0
  1  2  1  0  0  0  0
  1  5  2  0  0  0  0
  2  6  2  0  0  0  0
  3  8  2  0  0  0  0
  3 17  1  0  0  0  0
  4  9  1  0  0  0  0
  4 17  2  0  0  0  0
  5 19  1  0  0  0  0
  6 21  1  0  0  0  0
  7 10  2  0  0  0  0
  7 20  1  0  0  0  0
  8 23  1  0  0  0  0
  9 23  2  0  0  0  0
 10 24  1  0  0  0  0
 11 12  2  0  0  0  0
 11 25  1  0  0  0  0
 12 26  1  0  0  0  0
 13 22  1  0  0  0  0
 13 24  2  0  0  0  0
 14 26  2  0  0  0  0
 14 27  1  0  0  0  0
 15 29  2  0  0  0  0
 15 65  1  0  0  0  0
 16 63  2  0  0  0  0
 16 65  1  0  0  0  0
 17 28  1  0  0  0  0
 18 28  1  0  0  0  0
 18 30  2  0  0  0  0
 18 31  1  0  0  0  0
 19 21  2  0  0  0  0
 19 36  1  0  0  0  0
 20 22  2  0  0  0  0
 20 37  1  0  0  0  0
 21 45  1  0  0  0  0
 22 38  1  0  0  0  0
 23 80  1  0  0  0  0
 24 81  1  0  0  0  0
 25 27  2  0  0  0  0
 25 80  1  0  0  0  0
 26 82  1  0  0  0  0
 27 83  1  0  0  0  0
 28 64  2  0  0  0  0
 29 53  1  0  0  0  0
 29 63  1  0  0  0  0
 30 66  1  0  0  0  0
 30 69  1  0  0  0  0
 31 70  1  0  0  0  0
 31 75  2  0  0  0  0
 32 46  1  0  0  0  0
 32 71  1  0  0  0  0
 32 76  2  0  0  0  0
 33 60  1  0  0  0  0
 33 67  1  0  0  0  0
 33 77  2  0  0  0  0
 34 61  1  0  0  0  0
 34 72  1  0  0  0  0
 34 78  2  0  0  0  0
 35 68  1  0  0  0  0
 35 73  1  0  0  0  0
 35 79  2  0  0  0  0
 36 39  1  0  0  0  0
 37 46  1  0  0  0  0
 38 67  1  0  0  0  0
 39 41  1  0  0  0  0
 40 42  1  0  0  0  0
 40 43  1  0  0  0  0
 41 45  1  0  0  0  0
 42 47  1  0  0  0  0
 43 68  1  0  0  0  0
 44 47  1  0  0  0  0
 44 68  1  0  0  0  0
 45 71  1  0  0  0  0
 46 67  1  0  0  0  0
 47 66  1  0  0  0  0
 48 61  1  0  0  0  0
 49 62  1  0  0  0  0
 50 62  1  0  0  0  0
 51 62  1  0  0  0  0
 52 74  1  0  0  0  0
 53 54  1  0  0  0  0
 54 55  1  0  0  0  0
 55 58  1  0  0  0  0
 56 57  1  0  0  0  0
 56 59  1  0  0  0  0
 57 65  1  0  0  0  0
 58 73  1  0  0  0  0
 59 81  1  0  0  0  0
 60 62  1  0  0  0  0
 60 72  1  0  0  0  0
 61 74  1  0  0  0  0
 64 66  1  0  0  0  0
M  CHG  1  74   1
M  ISO  4  35 100  59 101  73 100  81 101
M  END
> <Batch ID>
0043

> <Smiles>
CNC(C)C(=O)NC(C(=O)N1Cc2cc([101O:1][101CH2:1]CCn3cnc(CCCC[100NH:0][100C:0](=O)N4CCCC(n5nc(-c6ccc(Oc7ccc(F)cc7F)cc6)c(C(N)=O)c5N)C4)c3)ccc2CC1C(=O)NC1CCCc2ccccc21)C(C)(C)C

> <Shape>
0.245

> <Color>
0.066

> <Negative vol penalty>
0.000

$$$$

  -OEChem-04052317143D

 87 95  0     1  0  0  0  0  0999 V2000
  -30.3815  -24.8209   17.2633 C   0  0  0  0  0  0  0  0  0  0  0  0
  -29.0380  -24.6456   17.5791 C   0  0  0  0  0  0  0  0  0  0  0  0
  -29.6776  -14.9479   19.5184 C   0  0  0  0  0  0  0  0  0  0  0  0
  -28.7738  -15.7811   21.5983 C   0  0  0  0  0  0  0  0  0  0  0  0
  -31.2115  -25.5362   18.1255 C   0  0  0  0  0  0  0  0  0  0  0  0
  -28.5241  -25.1845   18.7580 C   0  0  0  0  0  0  0  0  0  0  0  0
  -22.9069  -27.4670   19.6201 C   0  0  0  0  0  0  0  0  0  0  0  0
  -30.3623  -16.1491   19.3347 C   0  0  0  0  0  0  0  0  0  0  0  0
  -29.4586  -16.9823   21.4147 C   0  0  0  0  0  0  0  0  0  0  0  0
  -21.7491  -26.9244   20.1760 C   0  0  0  0  0  0  0  0  0  0  0  0
  -30.6816  -20.4035   21.3163 C   0  0  0  0  0  0  0  0  0  0  0  0
  -29.9867  -21.5890   21.5554 C   0  0  0  0  0  0  0  0  0  0  0  0
  -22.2923  -27.9482   22.2916 C   0  0  0  0  0  0  0  0  0  0  0  0
  -28.3895  -20.9985   19.8415 C   0  0  0  0  0  0  0  0  0  0  0  0
  -28.8833  -14.7639   20.6502 C   0  0  0  0  0  0  0  0  0  0  0  0
  -28.6402  -12.3722   21.5037 C   0  0  0  0  0  0  0  0  0  0  0  0
  -30.7053  -26.0924   19.3108 C   0  0  0  0  0  0  0  0  0  0  0  0
  -23.7731  -28.2465   20.4001 C   0  0  0  0  0  0  0  0  0  0  0  0
  -29.3484  -25.9067   19.6376 C   0  0  0  0  0  0  0  0  0  0  0  0
  -23.4591  -28.5016   21.7427 C   0  0  0  0  0  0  0  0  0  0  0  0
  -30.2529  -17.1663   20.2828 C   0  0  0  0  0  0  0  0  0  0  0  0
  -21.4431  -27.1626   21.5127 C   0  0  0  0  0  0  0  0  0  0  0  0
  -30.2305  -19.5155   20.3397 C   0  0  0  0  0  0  0  0  0  0  0  0
  -28.8406  -21.8865   20.8180 C   0  0  0  0  0  0  0  0  0  0  0  0
  -29.0844  -19.8130   19.6024 C   0  0  0  0  0  0  0  0  0  0  0  0
  -28.1752  -13.5234   20.8403 C   0  0  0  0  0  0  0  0  0  0  0  0
  -21.6773  -23.5599   23.1863 C   0  0  0  0  0  0  0  0  0  0  0  0
  -20.5757  -22.9620   23.7578 C   0  0  0  0  0  0  0  0  0  0  0  0
  -19.3037  -24.7815   23.2092 C   0  0  0  0  0  0  0  0  0  0  0  0
  -20.4054  -25.3795   22.6379 C   0  0  0  0  0  0  0  0  0  1  0  0
  -27.6009  -11.4790   21.4109 C   0  0  0  0  0  0  0  0  0  0  0  0
  -29.8991  -12.1317   22.1466 C   0  0  0  0  0  0  0  0  0  0  0  0
  -26.8043  -27.9905   21.3222 C   0  0  0  0  0  0  0  0  0  0  0  0
  -26.2840  -30.9605   22.5185 C   0  0  0  0  0  0  0  0  0  0  0  0
  -24.0498  -33.2729   23.6619 C   0  0  0  0  0  0  0  0  0  0  0  0
  -21.6919  -12.1564   20.7210 C   0  0  0  0  0  0  0  0  0  0  0  0
  -31.6518  -26.8172   20.2346 C   0  0  0  0  0  0  0  0  0  0  0  0
  -25.0043  -28.8466   19.7785 C   0  0  0  0  0  0  0  0  0  0  0  0
  -24.3457  -29.3485   22.6174 C   0  0  0  0  0  0  0  0  0  0  0  0
  -30.9445  -27.6759   21.2799 C   0  0  0  0  0  0  0  0  0  0  0  0
  -23.8971  -10.3216   18.6121 C   0  0  0  0  0  0  0  0  0  0  0  0
  -29.8066  -26.8957   21.9305 C   0  0  0  0  0  0  0  0  0  0  0  0
  -25.2856  -10.8303   19.0039 C   0  0  0  0  0  0  0  0  0  0  0  0
  -22.8546  -11.4366   18.6555 C   0  0  0  0  0  0  0  0  0  0  0  0
  -24.1748  -12.6800   20.3242 C   0  0  0  0  0  0  0  0  0  0  0  0
  -28.7481  -26.4972   20.8949 C   0  0  1  0  0  0  0  0  0  0  0  0
  -26.0792  -29.1993   20.8021 C   0  0  1  0  0  0  0  0  0  0  0  0
  -25.2492  -11.5794   20.3495 C   0  0  2  0  0  0  0  0  0  0  0  0
  -23.0062  -22.8850   23.1688 C   0  0  0  0  0  0  0  0  0  0  0  0
  -17.9769  -25.4600   23.2236 C   0  0  0  0  0  0  0  0  0  0  0  0
  -23.9271  -35.5946   24.6064 C   0  0  0  0  0  0  0  0  0  0  0  0
  -27.2868  -29.9179   25.2050 C   0  0  0  0  0  0  0  0  0  0  0  0
  -26.2672  -31.9316   26.2883 C   0  0  0  0  0  0  0  0  0  0  0  0
  -28.0911  -32.2098   24.6094 C   0  0  0  0  0  0  0  0  0  0  0  0
  -22.3853  -34.2267   21.4083 C   0  0  0  0  0  0  0  0  0  0  0  0
  -20.6612  -21.6125   24.3848 C   0  0  0  0  0  0  0  0  0  0  0  0
  -20.6540  -20.4430   23.3829 C   0  0  0  0  0  0  0  0  0  0  0  0
  -20.6755  -19.0733   24.0681 C   0  0  0  0  0  0  0  0  0  0  0  0
  -20.7469  -14.1962   23.6945 C   0  0  0  0  0  0  0  0  0  0  0  0
  -20.6709  -12.9314   22.8461 C   0  0  0  0  0  0  0  0  0  0  0  0
  -20.7008  -17.9515   23.0398 C   0  0  0  0  0  0  0  0  0  0  0  0
  -20.7403  -15.4615   22.8463 C   0  0  0  0  0  0  0  0  0  0  0  0
  -25.7884  -31.5116   23.8336 C   0  0  1  0  0  0  0  0  0  0  0  0
  -23.8746  -34.7471   23.3448 C   0  0  2  0  0  0  0  0  0  0  0  0
  -26.8425  -31.3751   24.9684 C   0  0  0  0  0  0  0  0  0  0  0  0
  -26.9370  -13.3777   20.3612 N   0  0  0  0  0  0  0  0  0  0  0  0
  -19.3690  -23.5621   23.7795 N   0  0  0  0  0  0  0  0  0  0  0  0
  -21.6121  -24.7794   22.6162 N   0  0  0  0  0  0  0  0  0  0  0  0
  -26.6151  -12.1243   20.7239 N   0  0  0  0  0  0  0  0  0  0  0  0
  -25.5412  -29.9079   21.9652 N   0  0  0  0  0  0  0  0  0  0  0  0
  -22.8705  -12.1059   19.9585 N   0  0  0  0  0  0  0  0  0  0  0  0
  -27.4433  -10.2125   21.8506 N   0  0  0  0  0  0  0  0  0  0  0  0
  -30.8543  -13.1573   22.1499 N   0  0  0  0  0  0  0  0  0  0  0  0
  -27.9065  -27.6292   20.5712 N   0  0  0  0  0  0  0  0  0  0  0  0
  -25.3693  -32.8838   23.5692 N   0  0  0  0  0  0  0  0  0  0  0  0
  -21.7955  -12.8036   21.9462 N   0  0  0  0  0  0  0  0  0  0  0  0
  -22.5636  -34.9808   22.6758 N   0  3  0  0  0  0  0  0  0  0  0  0
  -20.7672  -16.6486   23.7444 N   0  3  0  0  0  0  0  0  0  0  0  0
  -30.1750  -11.0340   22.6873 O   0  0  0  0  0  0  0  0  0  0  0  0
  -26.3950  -27.4281   22.3312 O   0  0  0  0  0  0  0  0  0  0  0  0
  -27.2890  -31.4507   21.9976 O   0  0  0  0  0  0  0  0  0  0  0  0
  -23.1105  -32.5407   23.9655 O   0  0  0  0  0  0  0  0  0  0  0  0
  -20.6277  -11.6567   20.3407 O   0  0  0  0  0  0  0  0  0  0  0  0
  -30.9211  -18.3385   20.1040 O   0  0  0  0  0  0  0  0  0  0  0  0
  -20.3140  -26.6337   22.0578 O   0  0  0  0  0  0  0  0  0  1  0  0
  -28.1725  -23.0243   21.0488 F   0  0  0  0  0  0  0  0  0  0  0  0
  -28.6456  -18.9632   18.6637 F   0  0  0  0  0  0  0  0  0  0  0  0
  1  2  1  0  0  0  0
  1  5  2  0  0  0  0
  2  6  2  0  0  0  0
  3  8  2  0  0  0  0
  3 15  1  0  0  0  0
  4  9  1  0  0  0  0
  4 15  2  0  0  0  0
  5 17  1  0  0  0  0
  6 19  1  0  0  0  0
  7 10  2  0  0  0  0
  7 18  1  0  0  0  0
  8 21  1  0  0  0  0
  9 21  2  0  0  0  0
 10 22  1  0  0  0  0
 11 12  2  0  0  0  0
 11 23  1  0  0  0  0
 12 24  1  0  0  0  0
 13 20  1  0  0  0  0
 13 22  2  0  0  0  0
 14 24  2  0  0  0  0
 14 25  1  0  0  0  0
 15 26  1  0  0  0  0
 16 26  1  0  0  0  0
 16 31  2  0  0  0  0
 16 32  1  0  0  0  0
 17 19  2  0  0  0  0
 17 37  1  0  0  0  0
 18 20  2  0  0  0  0
 18 38  1  0  0  0  0
 19 46  1  0  0  0  0
 20 39  1  0  0  0  0
 21 84  1  0  0  0  0
 22 85  1  0  0  0  0
 23 25  2  0  0  0  0
 23 84  1  0  0  0  0
 24 86  1  0  0  0  0
 25 87  1  0  0  0  0
 26 66  2  0  0  0  0
 27 28  1  0  0  0  0
 27 49  1  0  0  0  0
 27 68  2  0  0  0  0
 28 56  1  0  0  0  0
 28 67  2  0  0  0  0
 29 30  2  0  0  0  0
 29 50  1  0  0  0  0
 29 67  1  0  0  0  0
 30 68  1  0  0  0  0
 30 85  1  0  0  0  0
 31 69  1  0  0  0  0
 31 72  1  0  0  0  0
 32 73  1  0  0  0  0
 32 79  2  0  0  0  0
 33 47  1  0  0  0  0
 33 74  1  0  0  0  0
 33 80  2  0  0  0  0
 34 63  1  0  0  0  0
 34 70  1  0  0  0  0
 34 81  2  0  0  0  0
 35 64  1  0  0  0  0
 35 75  1  0  0  0  0
 35 82  2  0  0  0  0
 36 71  1  0  0  0  0
 36 76  1  0  0  0  0
 36 83  2  0  0  0  0
 37 40  1  0  0  0  0
 38 47  1  0  0  0  0
 39 70  1  0  0  0  0
 40 42  1  0  0  0  0
 41 43  1  0  0  0  0
 41 44  1  0  0  0  0
 42 46  1  0  0  0  0
 43 48  1  0  0  0  0
 44 71  1  0  0  0  0
 45 48  1  0  0  0  0
 45 71  1  0  0  0  0
 46 74  1  0  0  0  0
 47 70  1  0  0  0  0
 48 69  1  0  0  0  0
 51 64  1  0  0  0  0
 52 65  1  0  0  0  0
 53 65  1  0  0  0  0
 54 65  1  0  0  0  0
 55 77  1  0  0  0  0
 56 57  1  0  0  0  0
 57 58  1  0  0  0  0
 58 61  1  0  0  0  0
 59 60  1  0  0  0  0
 59 62  1  0  0  0  0
 60 76  1  0  0  0  0
 61 78  1  0  0  0  0
 62 78  1  0  0  0  0
 63 65  1  0  0  0  0
 63 75  1  0  0  0  0
 64 77  1  0  0  0  0
 66 69  1  0  0  0  0
M  CHG  2  77   1  78   1
M  ISO  4  30 101  36 100  76 100  85 101
M  END
> <Batch ID>
0043

> <Smiles>
CNC(C)C(=O)NC(C(=O)N1Cc2cc([101O:1][101c:1]3nc(C)c(CCCCNCCC[100NH:0][100C:0](=O)N4CCCC(n5nc(-c6ccc(Oc7ccc(F)cc7F)cc6)c(C(N)=O)c5N)C4)nc3C)ccc2CC1C(=O)NC1CCCc2ccccc21)C(C)(C)C

> <Shape>
0.325

> <Color>
0.063

> <Negative vol penalty>
0.000

$$$$

  -OEChem-04052317143D

 83 91  0     1  0  0  0  0  0999 V2000
  -21.0782  -27.4066   25.2443 C   0  0  0  0  0  0  0  0  0  0  0  0
  -21.3177  -26.0468   25.0735 C   0  0  0  0  0  0  0  0  0  0  0  0
  -26.3086  -25.4099   18.1633 C   0  0  0  0  0  0  0  0  0  0  0  0
  -26.4546  -25.3115   20.5729 C   0  0  0  0  0  0  0  0  0  0  0  0
  -20.3760  -28.1170   24.2716 C   0  0  0  0  0  0  0  0  0  0  0  0
  -20.8542  -25.3965   23.9305 C   0  0  0  0  0  0  0  0  0  0  0  0
  -23.5846  -20.7958   20.9497 C   0  0  0  0  0  0  0  0  0  0  0  0
  -25.3663  -26.4335   18.2622 C   0  0  0  0  0  0  0  0  0  0  0  0
  -25.5123  -26.3352   20.6718 C   0  0  0  0  0  0  0  0  0  0  0  0
  -23.3907  -19.4154   20.9756 C   0  0  0  0  0  0  0  0  0  0  0  0
  -25.4512  -29.7002   20.3659 C   0  0  0  0  0  0  0  0  0  0  0  0
  -25.7099  -30.7322   21.2680 C   0  0  0  0  0  0  0  0  0  0  0  0
  -21.9660  -19.5852   19.0364 C   0  0  0  0  0  0  0  0  0  0  0  0
  -23.6739  -30.2036   22.4566 C   0  0  0  0  0  0  0  0  0  0  0  0
  -24.6909  -13.9092   21.2784 C   0  0  0  0  0  0  0  0  0  0  0  0
  -26.8527  -24.8488   19.3187 C   0  0  0  0  0  0  0  0  0  0  0  0
  -29.2247  -23.9274   19.1383 C   0  0  0  0  0  0  0  0  0  0  0  0
  -19.9120  -27.4771   23.1115 C   0  0  0  0  0  0  0  0  0  0  0  0
  -22.9608  -21.5839   19.9719 C   0  0  0  0  0  0  0  0  0  0  0  0
  -20.1439  -26.0988   22.9420 C   0  0  0  0  0  0  0  0  0  0  0  0
  -22.1556  -20.9750   18.9987 C   0  0  0  0  0  0  0  0  0  0  0  0
  -24.9682  -26.8962   19.5164 C   0  0  0  0  0  0  0  0  0  0  0  0
  -22.5791  -18.8102   20.0206 C   0  0  0  0  0  0  0  0  0  0  0  0
  -24.3039  -28.9199   20.5091 C   0  0  0  0  0  0  0  0  0  0  0  0
  -24.8213  -30.9839   22.3133 C   0  0  0  0  0  0  0  0  0  0  0  0
  -23.4153  -29.1716   21.5545 C   0  0  0  0  0  0  0  0  0  0  0  0
  -27.8258  -23.7910   19.2173 C   0  0  0  0  0  0  0  0  0  0  0  0
  -25.9581  -13.2967   21.3068 C   0  0  0  0  0  0  0  0  0  0  0  0
  -23.9215  -13.0709   20.5092 C   0  0  0  0  0  0  0  0  0  0  0  0
  -29.6914  -22.6381   19.0582 C   0  0  0  0  0  0  0  0  0  0  0  0
  -30.0302  -25.1135   19.1374 C   0  0  0  0  0  0  0  0  0  0  0  0
  -20.8417  -23.9527   20.0161 C   0  0  0  0  0  0  0  0  0  0  0  0
  -27.3266  -17.5190   20.9230 C   0  0  0  0  0  0  0  0  0  0  0  0
  -21.4708  -24.0540   16.8355 C   0  0  0  0  0  0  0  0  0  0  0  0
  -22.5663  -22.4223   14.0455 C   0  0  0  0  0  0  0  0  0  0  0  0
  -19.1166  -28.2767   22.1101 C   0  0  0  0  0  0  0  0  0  0  0  0
  -23.2014  -23.0684   19.9415 C   0  0  0  0  0  0  0  0  0  0  0  0
  -21.4795  -21.7739   17.9156 C   0  0  0  0  0  0  0  0  0  0  0  0
  -18.9847  -27.5932   20.7516 C   0  0  0  0  0  0  0  0  0  0  0  0
  -28.4414  -18.2820   17.5464 C   0  0  0  0  0  0  0  0  0  0  0  0
  -18.6003  -26.1274   20.9266 C   0  0  0  0  0  0  0  0  0  0  0  0
  -28.5085  -19.8082   17.5842 C   0  0  0  0  0  0  0  0  0  0  0  0
  -27.2873  -17.7498   18.3918 C   0  0  0  0  0  0  0  0  0  0  0  0
  -27.3785  -19.7476   19.8496 C   0  0  0  0  0  0  0  0  0  0  0  0
  -19.6787  -25.3632   21.7040 C   0  0  1  0  0  0  0  0  0  0  0  0
  -22.1047  -23.8366   19.2105 C   0  0  1  0  0  0  0  0  0  0  0  0
  -28.5480  -20.3231   19.0337 C   0  0  2  0  0  0  0  0  0  0  0  0
  -23.2704  -22.1084   11.6574 C   0  0  0  0  0  0  0  0  0  0  0  0
  -18.4661  -23.8165   16.3607 C   0  0  0  0  0  0  0  0  0  0  0  0
  -18.9606  -23.2026   13.9844 C   0  0  0  0  0  0  0  0  0  0  0  0
  -19.6345  -25.4395   14.8590 C   0  0  0  0  0  0  0  0  0  0  0  0
  -24.3950  -10.9085   19.3199 C   0  0  0  0  0  0  0  0  0  0  0  0
  -25.3716  -23.1402   14.6567 C   0  0  0  0  0  0  0  0  0  0  0  0
  -27.1707  -13.7748   21.9920 C   0  0  0  0  0  0  0  0  0  0  0  0
  -22.4741  -13.1566   20.0950 C   0  0  0  0  0  0  0  0  0  0  0  0
  -27.2432  -16.0236   20.7481 C   0  0  0  0  0  0  0  0  0  0  0  0
  -27.2312  -15.3156   22.0994 C   0  0  0  0  0  0  0  0  0  0  0  0
  -21.9521  -14.5915   19.9618 C   0  0  0  0  0  0  0  0  0  0  0  0
  -22.6654  -15.3890   18.8691 C   0  0  0  0  0  0  0  0  0  0  0  0
  -22.1485  -16.8193   18.7932 C   0  0  0  0  0  0  0  0  0  1  0  0
  -20.8982  -23.3827   15.6106 C   0  0  1  0  0  0  0  0  0  0  0  0
  -23.5583  -22.8230   12.9686 C   0  0  2  0  0  0  0  0  0  0  0  0
  -19.5009  -23.9453   15.2251 C   0  0  0  0  0  0  0  0  0  0  0  0
  -27.4297  -22.5157   19.1897 N   0  0  0  0  0  0  0  0  0  0  0  0
  -25.9957  -12.1571   20.6111 N   0  0  0  0  0  0  0  0  0  0  0  0
  -24.7425  -12.0469   20.1384 N   0  0  0  0  0  0  0  0  0  0  0  0
  -28.5867  -21.8390   19.0924 N   0  0  0  0  0  0  0  0  0  0  0  0
  -21.7406  -23.2227   17.9319 N   0  0  0  0  0  0  0  0  0  0  0  0
  -27.3452  -18.2851   19.7573 N   0  0  0  0  0  0  0  0  0  0  0  0
  -30.9349  -22.1214   18.9625 N   0  0  0  0  0  0  0  0  0  0  0  0
  -29.3891  -26.3566   19.2263 N   0  0  0  0  0  0  0  0  0  0  0  0
  -20.8018  -25.0587   20.8436 N   0  0  0  0  0  0  0  0  0  0  0  0
  -21.9055  -23.5160   14.5637 N   0  0  0  0  0  0  0  0  0  0  0  0
  -24.9469  -22.4863   13.3922 N   0  3  0  0  0  0  0  0  0  0  0  0
  -31.2804  -25.0728   19.0437 O   0  0  0  0  0  0  0  0  0  0  0  0
  -19.9674  -23.1027   19.8948 O   0  0  0  0  0  0  0  0  0  0  0  0
  -27.3763  -17.9900   22.0623 O   0  0  0  0  0  0  0  0  0  0  0  0
  -21.6780  -25.2699   16.8177 O   0  0  0  0  0  0  0  0  0  0  0  0
  -22.3921  -21.2554   14.3898 O   0  0  0  0  0  0  0  0  0  0  0  0
  -24.0489  -27.8953   19.6132 O   0  0  0  0  0  0  0  0  0  0  0  0
  -22.3877  -17.4631   20.0440 O   0  0  0  0  0  0  0  0  0  1  0  0
  -25.0706  -31.9739   23.1804 F   0  0  0  0  0  0  0  0  0  0  0  0
  -22.3120  -28.4246   21.6979 F   0  0  0  0  0  0  0  0  0  0  0  0
  1  2  1  0  0  0  0
  1  5  2  0  0  0  0
  2  6  2  0  0  0  0
  3  8  2  0  0  0  0
  3 16  1  0  0  0  0
  4  9  1  0  0  0  0
  4 16  2  0  0  0  0
  5 18  1  0  0  0  0
  6 20  1  0  0  0  0
  7 10  2  0  0  0  0
  7 19  1  0  0  0  0
  8 22  1  0  0  0  0
  9 22  2  0  0  0  0
 10 23  1  0  0  0  0
 11 12  2  0  0  0  0
 11 24  1  0  0  0  0
 12 25  1  0  0  0  0
 13 21  1  0  0  0  0
 13 23  2  0  0  0  0
 14 25  2  0  0  0  0
 14 26  1  0  0  0  0
 15 28  1  0  0  0  0
 15 29  2  0  0  0  0
 16 27  1  0  0  0  0
 17 27  1  0  0  0  0
 17 30  2  0  0  0  0
 17 31  1  0  0  0  0
 18 20  2  0  0  0  0
 18 36  1  0  0  0  0
 19 21  2  0  0  0  0
 19 37  1  0  0  0  0
 20 45  1  0  0  0  0
 21 38  1  0  0  0  0
 22 80  1  0  0  0  0
 23 81  1  0  0  0  0
 24 26  2  0  0  0  0
 24 80  1  0  0  0  0
 25 82  1  0  0  0  0
 26 83  1  0  0  0  0
 27 64  2  0  0  0  0
 28 54  1  0  0  0  0
 28 65  2  0  0  0  0
 29 55  1  0  0  0  0
 29 66  1  0  0  0  0
 30 67  1  0  0  0  0
 30 70  1  0  0  0  0
 31 71  1  0  0  0  0
 31 75  2  0  0  0  0
 32 46  1  0  0  0  0
 32 72  1  0  0  0  0
 32 76  2  0  0  0  0
 33 56  1  0  0  0  0
 33 69  1  0  0  0  0
 33 77  2  0  0  0  0
 34 61  1  0  0  0  0
 34 68  1  0  0  0  0
 34 78  2  0  0  0  0
 35 62  1  0  0  0  0
 35 73  1  0  0  0  0
 35 79  2  0  0  0  0
 36 39  1  0  0  0  0
 37 46  1  0  0  0  0
 38 68  1  0  0  0  0
 39 41  1  0  0  0  0
 40 42  1  0  0  0  0
 40 43  1  0  0  0  0
 41 45  1  0  0  0  0
 42 47  1  0  0  0  0
 43 69  1  0  0  0  0
 44 47  1  0  0  0  0
 44 69  1  0  0  0  0
 45 72  1  0  0  0  0
 46 68  1  0  0  0  0
 47 67  1  0  0  0  0
 48 62  1  0  0  0  0
 49 63  1  0  0  0  0
 50 63  1  0  0  0  0
 51 63  1  0  0  0  0
 52 66  1  0  0  0  0
 53 74  1  0  0  0  0
 54 57  1  0  0  0  0
 55 58  1  0  0  0  0
 56 57  1  0  0  0  0
 58 59  1  0  0  0  0
 59 60  1  0  0  0  0
 60 81  1  0  0  0  0
 61 63  1  0  0  0  0
 61 73  1  0  0  0  0
 62 74  1  0  0  0  0
 64 67  1  0  0  0  0
 65 66  1  0  0  0  0
M  CHG  1  74   1
M  ISO  4  33 100  56 100  60 101  81 101
M  END
> <Batch ID>
0043

> <Smiles>
CNC(C)C(=O)NC(C(=O)N1Cc2cc([101O:1][101CH2:1]CCCc3cc(CC[100CH2:0][100C:0](=O)N4CCCC(n5nc(-c6ccc(Oc7ccc(F)cc7F)cc6)c(C(N)=O)c5N)C4)nn3C)ccc2CC1C(=O)NC1CCCc2ccccc21)C(C)(C)C

> <Shape>
0.207

> <Color>
0.070

> <Negative vol penalty>
0.000

$$$$

  -OEChem-04052317143D

 81 89  0     1  0  0  0  0  0999 V2000
  -18.2267  -33.0782   21.3791 C   0  0  0  0  0  0  0  0  0  0  0  0
  -19.5302  -32.9564   20.9083 C   0  0  0  0  0  0  0  0  0  0  0  0
  -28.0307  -14.0160   21.9000 C   0  0  0  0  0  0  0  0  0  0  0  0
  -27.5920  -14.5855   19.5934 C   0  0  0  0  0  0  0  0  0  0  0  0
  -17.8253  -32.3659   22.5084 C   0  0  0  0  0  0  0  0  0  0  0  0
  -20.4333  -32.1231   21.5674 C   0  0  0  0  0  0  0  0  0  0  0  0
  -24.8945  -28.7862   19.0239 C   0  0  0  0  0  0  0  0  0  0  0  0
  -27.1163  -12.9662   21.8147 C   0  0  0  0  0  0  0  0  0  0  0  0
  -26.6776  -13.5357   19.5081 C   0  0  0  0  0  0  0  0  0  0  0  0
  -26.2636  -29.0058   18.8788 C   0  0  0  0  0  0  0  0  0  0  0  0
  -24.6300  -10.3589   22.3091 C   0  0  0  0  0  0  0  0  0  0  0  0
  -23.7234  -10.1999   23.3571 C   0  0  0  0  0  0  0  0  0  0  0  0
  -26.6765  -27.7078   20.8698 C   0  0  0  0  0  0  0  0  0  0  0  0
  -22.8512  -12.4137   22.9386 C   0  0  0  0  0  0  0  0  0  0  0  0
  -31.0666  -26.3146   19.7236 C   0  0  0  0  0  0  0  0  0  0  0  0
  -28.2686  -14.8257   20.7893 C   0  0  0  0  0  0  0  0  0  0  0  0
  -30.5924  -15.8612   20.6021 C   0  0  0  0  0  0  0  0  0  0  0  0
  -18.7212  -31.5159   23.1759 C   0  0  0  0  0  0  0  0  0  0  0  0
  -24.4044  -28.0337   20.1009 C   0  0  0  0  0  0  0  0  0  0  0  0
  -20.0438  -31.3998   22.7075 C   0  0  0  0  0  0  0  0  0  0  0  0
  -25.3009  -27.4780   21.0248 C   0  0  0  0  0  0  0  0  0  0  0  0
  -26.4397  -12.7260   20.6188 C   0  0  0  0  0  0  0  0  0  0  0  0
  -27.1547  -28.4689   19.8035 C   0  0  0  0  0  0  0  0  0  0  0  0
  -24.6473  -11.5455   21.5759 C   0  0  0  0  0  0  0  0  0  0  0  0
  -22.8340  -11.2272   23.6718 C   0  0  0  0  0  0  0  0  0  0  0  0
  -23.7579  -12.5728   21.8906 C   0  0  0  0  0  0  0  0  0  0  0  0
  -29.2127  -15.9107   20.8769 C   0  0  0  0  0  0  0  0  0  0  0  0
  -31.0347  -17.1409   20.8330 C   0  0  0  0  0  0  0  0  0  0  0  0
  -30.6132  -24.7356   18.4358 C   0  0  0  0  0  0  0  0  0  0  0  0
  -31.4020  -14.7572   20.1760 C   0  0  0  0  0  0  0  0  0  0  0  0
  -22.4825  -28.6276   22.5620 C   0  0  0  0  0  0  0  0  0  0  0  0
  -22.7966  -25.4401   23.0751 C   0  0  0  0  0  0  0  0  0  0  0  0
  -24.6423  -22.6031   22.6372 C   0  0  0  0  0  0  0  0  0  0  0  0
  -28.3169  -22.4751   20.7289 C   0  0  0  0  0  0  0  0  0  0  0  0
  -18.2548  -30.8027   24.4203 C   0  0  0  0  0  0  0  0  0  0  0  0
  -22.9267  -27.7836   20.2283 C   0  0  0  0  0  0  0  0  0  0  0  0
  -24.8273  -26.6457   22.1873 C   0  0  0  0  0  0  0  0  0  0  0  0
  -19.1659  -29.6523   24.8407 C   0  0  0  0  0  0  0  0  0  0  0  0
  -30.0695  -21.0184   23.4644 C   0  0  0  0  0  0  0  0  0  0  0  0
  -20.6276  -30.0870   24.8007 C   0  0  0  0  0  0  0  0  0  0  0  0
  -30.1732  -19.5397   23.0867 C   0  0  0  0  0  0  0  0  0  0  0  0
  -28.7411  -21.6236   23.0162 C   0  0  0  0  0  0  0  0  0  0  0  0
  -28.5314  -19.9611   21.2090 C   0  0  0  0  0  0  0  0  0  0  0  0
  -21.0456  -30.4867   23.3805 C   0  0  1  0  0  0  0  0  0  0  0  0
  -22.5004  -27.4332   21.6506 C   0  0  1  0  0  0  0  0  0  0  0  0
  -29.8771  -19.3210   21.5908 C   0  0  2  0  0  0  0  0  0  0  0  0
  -24.6615  -20.1585   23.2034 C   0  0  0  0  0  0  0  0  0  0  0  0
  -23.6472  -26.1099   25.9278 C   0  0  0  0  0  0  0  0  0  0  0  0
  -24.5461  -23.7822   26.1321 C   0  0  0  0  0  0  0  0  0  0  0  0
  -22.1110  -24.1462   25.7311 C   0  0  0  0  0  0  0  0  0  0  0  0
  -24.5798  -21.8229   19.7831 C   0  0  0  0  0  0  0  0  0  0  0  0
  -30.4116  -23.4302   17.8132 C   0  0  0  0  0  0  0  0  0  0  0  0
  -28.9736  -23.1523   17.2918 C   0  0  0  0  0  0  0  0  0  0  0  0
  -30.4479  -28.4099   18.2753 C   0  0  0  0  0  0  0  0  0  0  0  0
  -27.9059  -23.1746   18.3835 C   0  0  0  0  0  0  0  0  0  0  0  0
  -28.9884  -28.8472   18.3371 C   0  0  0  0  0  0  0  0  0  1  0  0
  -23.7532  -24.5722   23.8565 C   0  0  1  0  0  0  0  0  0  0  0  0
  -24.2529  -21.2083   22.1819 C   0  0  2  0  0  0  0  0  0  0  0  0
  -23.5235  -24.6699   25.3912 C   0  0  0  0  0  0  0  0  0  0  0  0
  -31.0758  -24.9513   19.6453 N   0  0  0  0  0  0  0  0  0  0  0  0
  -28.8052  -17.1256   21.2538 N   0  0  0  0  0  0  0  0  0  0  0  0
  -30.3439  -25.9233   17.8302 N   0  0  0  0  0  0  0  0  0  0  0  0
  -30.6274  -26.9559   18.6386 N   0  0  0  0  0  0  0  0  0  0  0  0
  -29.9357  -17.8513   21.2175 N   0  0  0  0  0  0  0  0  0  0  0  0
  -23.3727  -26.4348   22.2723 N   0  0  0  0  0  0  0  0  0  0  0  0
  -28.5215  -21.3828   21.5880 N   0  0  0  0  0  0  0  0  0  0  0  0
  -32.2524  -17.7164   20.7428 N   0  0  0  0  0  0  0  0  0  0  0  0
  -30.7874  -13.5120   19.9863 N   0  0  0  0  0  0  0  0  0  0  0  0
  -21.2805  -29.3093   22.5725 N   0  0  0  0  0  0  0  0  0  0  0  0
  -23.6154  -23.2240   23.3164 N   0  0  0  0  0  0  0  0  0  0  0  0
  -28.1229  -22.1591   19.3898 N   0  0  0  0  0  0  0  0  0  0  0  0
  -24.9121  -20.8839   20.8852 N   0  3  0  0  0  0  0  0  0  0  0  0
  -32.6369  -14.8677   19.9855 O   0  0  0  0  0  0  0  0  0  0  0  0
  -23.4844  -28.9090   23.2090 O   0  0  0  0  0  0  0  0  0  0  0  0
  -21.5832  -25.2381   23.1679 O   0  0  0  0  0  0  0  0  0  0  0  0
  -25.7483  -23.0916   22.4161 O   0  0  0  0  0  0  0  0  0  0  0  0
  -28.3132  -23.6456   21.1251 O   0  0  0  0  0  0  0  0  0  0  0  0
  -25.5475  -11.7016   20.5352 O   0  0  0  0  0  0  0  0  0  0  0  0
  -28.4915  -28.6822   19.6646 O   0  0  0  0  0  0  0  0  0  1  0  0
  -21.9624  -11.0737   24.6773 F   0  0  0  0  0  0  0  0  0  0  0  0
  -23.7690  -13.7145   21.1890 F   0  0  0  0  0  0  0  0  0  0  0  0
  1  2  1  0  0  0  0
  1  5  2  0  0  0  0
  2  6  2  0  0  0  0
  3  8  2  0  0  0  0
  3 16  1  0  0  0  0
  4  9  1  0  0  0  0
  4 16  2  0  0  0  0
  5 18  1  0  0  0  0
  6 20  1  0  0  0  0
  7 10  2  0  0  0  0
  7 19  1  0  0  0  0
  8 22  1  0  0  0  0
  9 22  2  0  0  0  0
 10 23  1  0  0  0  0
 11 12  2  0  0  0  0
 11 24  1  0  0  0  0
 12 25  1  0  0  0  0
 13 21  1  0  0  0  0
 13 23  2  0  0  0  0
 14 25  2  0  0  0  0
 14 26  1  0  0  0  0
 15 60  2  0  0  0  0
 15 63  1  0  0  0  0
 16 27  1  0  0  0  0
 17 27  1  0  0  0  0
 17 28  2  0  0  0  0
 17 30  1  0  0  0  0
 18 20  2  0  0  0  0
 18 35  1  0  0  0  0
 19 21  2  0  0  0  0
 19 36  1  0  0  0  0
 20 44  1  0  0  0  0
 21 37  1  0  0  0  0
 22 78  1  0  0  0  0
 23 79  1  0  0  0  0
 24 26  2  0  0  0  0
 24 78  1  0  0  0  0
 25 80  1  0  0  0  0
 26 81  1  0  0  0  0
 27 61  2  0  0  0  0
 28 64  1  0  0  0  0
 28 67  1  0  0  0  0
 29 52  1  0  0  0  0
 29 60  1  0  0  0  0
 29 62  2  0  0  0  0
 30 68  1  0  0  0  0
 30 73  2  0  0  0  0
 31 45  1  0  0  0  0
 31 69  1  0  0  0  0
 31 74  2  0  0  0  0
 32 57  1  0  0  0  0
 32 65  1  0  0  0  0
 32 75  2  0  0  0  0
 33 58  1  0  0  0  0
 33 70  1  0  0  0  0
 33 76  2  0  0  0  0
 34 66  1  0  0  0  0
 34 71  1  0  0  0  0
 34 77  2  0  0  0  0
 35 38  1  0  0  0  0
 36 45  1  0  0  0  0
 37 65  1  0  0  0  0
 38 40  1  0  0  0  0
 39 41  1  0  0  0  0
 39 42  1  0  0  0  0
 40 44  1  0  0  0  0
 41 46  1  0  0  0  0
 42 66  1  0  0  0  0
 43 46  1  0  0  0  0
 43 66  1  0  0  0  0
 44 69  1  0  0  0  0
 45 65  1  0  0  0  0
 46 64  1  0  0  0  0
 47 58  1  0  0  0  0
 48 59  1  0  0  0  0
 49 59  1  0  0  0  0
 50 59  1  0  0  0  0
 51 72  1  0  0  0  0
 52 53  1  0  0  0  0
 53 55  1  0  0  0  0
 54 56  1  0  0  0  0
 54 63  1  0  0  0  0
 55 71  1  0  0  0  0
 56 79  1  0  0  0  0
 57 59  1  0  0  0  0
 57 70  1  0  0  0  0
 58 72  1  0  0  0  0
 61 64  1  0  0  0  0
 62 63  1  0  0  0  0
M  CHG  1  72   1
M  ISO  4  34 100  56 101  71 100  79 101
M  END
> <Batch ID>
0043

> <Smiles>
CNC(C)C(=O)NC(C(=O)N1Cc2cc([101O:1][101CH2:1]Cn3cnc(CCC[100NH:0][100C:0](=O)N4CCCC(n5nc(-c6ccc(Oc7ccc(F)cc7F)cc6)c(C(N)=O)c5N)C4)n3)ccc2CC1C(=O)NC1CCCc2ccccc21)C(C)(C)C

> <Shape>
0.244

> <Color>
0.099

> <Negative vol penalty>
0.000

$$$$

  -OEChem-04052317143D

 82 90  0     1  0  0  0  0  0999 V2000
  -16.7417  -28.4620   20.2012 C   0  0  0  0  0  0  0  0  0  0  0  0
  -18.0281  -28.6271   19.6978 C   0  0  0  0  0  0  0  0  0  0  0  0
  -29.0408  -17.7332   18.7854 C   0  0  0  0  0  0  0  0  0  0  0  0
  -30.2249  -18.4135   20.7784 C   0  0  0  0  0  0  0  0  0  0  0  0
  -16.5279  -28.4640   21.5789 C   0  0  0  0  0  0  0  0  0  0  0  0
  -19.1013  -28.7954   20.5720 C   0  0  0  0  0  0  0  0  0  0  0  0
  -23.1179  -25.9955   19.2788 C   0  0  0  0  0  0  0  0  0  0  0  0
  -29.5634  -16.4463   18.9142 C   0  0  0  0  0  0  0  0  0  0  0  0
  -30.7474  -17.1267   20.9072 C   0  0  0  0  0  0  0  0  0  0  0  0
  -23.9085  -26.4626   18.2297 C   0  0  0  0  0  0  0  0  0  0  0  0
  -30.2986  -12.8862   18.9214 C   0  0  0  0  0  0  0  0  0  0  0  0
  -29.4267  -11.8117   18.7464 C   0  0  0  0  0  0  0  0  0  0  0  0
  -25.4952  -27.3367   19.8227 C   0  0  0  0  0  0  0  0  0  0  0  0
  -28.0781  -12.6062   20.5869 C   0  0  0  0  0  0  0  0  0  0  0  0
  -25.9116  -31.5275   15.2348 C   0  0  0  0  0  0  0  0  0  0  0  0
  -29.3716  -18.7168   19.7174 C   0  0  0  0  0  0  0  0  0  0  0  0
  -27.6311  -20.5352   20.1318 C   0  0  0  0  0  0  0  0  0  0  0  0
  -17.6003  -28.6227   22.4707 C   0  0  0  0  0  0  0  0  0  0  0  0
  -23.5052  -26.2054   20.6101 C   0  0  0  0  0  0  0  0  0  0  0  0
  -18.9015  -28.8009   21.9630 C   0  0  0  0  0  0  0  0  0  0  0  0
  -24.7091  -26.8690   20.8868 C   0  0  0  0  0  0  0  0  0  0  0  0
  -30.4166  -16.1431   19.9751 C   0  0  0  0  0  0  0  0  0  0  0  0
  -25.0959  -27.1358   18.5016 C   0  0  0  0  0  0  0  0  0  0  0  0
  -30.0604  -13.8207   19.9292 C   0  0  0  0  0  0  0  0  0  0  0  0
  -28.3164  -11.6717   19.5791 C   0  0  0  0  0  0  0  0  0  0  0  0
  -28.9501  -13.6807   20.7619 C   0  0  0  0  0  0  0  0  0  0  0  0
  -28.8325  -20.0464   19.5846 C   0  0  0  0  0  0  0  0  0  0  0  0
  -26.4813  -29.4797   15.3462 C   0  0  0  0  0  0  0  0  0  0  0  0
  -27.5059  -30.1790   15.9394 C   0  0  0  0  0  0  0  0  0  0  0  0
  -27.5738  -21.8443   19.7199 C   0  0  0  0  0  0  0  0  0  0  0  0
  -26.6542  -19.8659   20.9401 C   0  0  0  0  0  0  0  0  0  0  0  0
  -22.2626  -27.7585   23.0895 C   0  0  0  0  0  0  0  0  0  0  0  0
  -24.7422  -26.4039   24.6830 C   0  0  0  0  0  0  0  0  0  0  0  0
  -27.8692  -25.0428   24.5578 C   0  0  0  0  0  0  0  0  0  0  0  0
  -29.9534  -26.7248   19.0382 C   0  0  0  0  0  0  0  0  0  0  0  0
  -17.3136  -28.6655   23.9507 C   0  0  0  0  0  0  0  0  0  0  0  0
  -22.6547  -25.6719   21.7300 C   0  0  0  0  0  0  0  0  0  0  0  0
  -25.1798  -27.1022   22.2984 C   0  0  0  0  0  0  0  0  0  0  0  0
  -18.5555  -28.4746   24.8176 C   0  0  0  0  0  0  0  0  0  0  0  0
  -30.3664  -24.3575   16.3322 C   0  0  0  0  0  0  0  0  0  0  0  0
  -19.6996  -29.3467   24.3105 C   0  0  0  0  0  0  0  0  0  0  0  0
  -29.9005  -23.0579   16.9912 C   0  0  0  0  0  0  0  0  0  0  0  0
  -31.1370  -25.2315   17.3173 C   0  0  0  0  0  0  0  0  0  0  0  0
  -29.9277  -24.2539   19.2293 C   0  0  0  0  0  0  0  0  0  0  0  0
  -20.0947  -28.9615   22.8798 C   0  0  1  0  0  0  0  0  0  0  0  0
  -22.8887  -26.3931   23.0538 C   0  0  1  0  0  0  0  0  0  0  0  0
  -29.1227  -23.3364   18.2911 C   0  0  2  0  0  0  0  0  0  0  0  0
  -29.9385  -23.8833   25.3769 C   0  0  0  0  0  0  0  0  0  0  0  0
  -25.4934  -29.2023   25.6393 C   0  0  0  0  0  0  0  0  0  0  0  0
  -27.7422  -28.3052   26.2767 C   0  0  0  0  0  0  0  0  0  0  0  0
  -25.6886  -27.4176   27.3802 C   0  0  0  0  0  0  0  0  0  0  0  0
  -27.8598  -32.6352   16.3444 C   0  0  0  0  0  0  0  0  0  0  0  0
  -26.7449  -22.3695   23.9680 C   0  0  0  0  0  0  0  0  0  0  0  0
  -26.3538  -27.9890   15.1470 C   0  0  0  0  0  0  0  0  0  0  0  0
  -28.7697  -29.7376   16.5558 C   0  0  0  0  0  0  0  0  0  0  0  0
  -28.7598  -29.6816   18.1036 C   0  0  0  0  0  0  0  0  0  0  0  0
  -30.0666  -29.1826   18.7165 C   0  0  0  0  0  0  0  0  0  0  0  0
  -25.4035  -27.3488   16.1530 C   0  0  0  0  0  0  0  0  0  1  0  0
  -26.1690  -26.8003   24.9760 C   0  0  1  0  0  0  0  0  0  0  0  0
  -28.4381  -23.7691   25.1565 C   0  0  2  0  0  0  0  0  0  0  0  0
  -26.2637  -27.9288   26.0414 C   0  0  0  0  0  0  0  0  0  0  0  0
  -25.4922  -30.3250   14.9094 N   0  0  0  0  0  0  0  0  0  0  0  0
  -29.4909  -20.9697   18.8788 N   0  0  0  0  0  0  0  0  0  0  0  0
  -27.1269  -31.4894   15.8601 N   0  0  0  0  0  0  0  0  0  0  0  0
  -28.7004  -22.0518   18.9797 N   0  0  0  0  0  0  0  0  0  0  0  0
  -24.3103  -26.5671   23.3591 N   0  0  0  0  0  0  0  0  0  0  0  0
  -30.3342  -25.4741   18.5242 N   0  0  0  0  0  0  0  0  0  0  0  0
  -26.6701  -22.8265   19.9223 N   0  0  0  0  0  0  0  0  0  0  0  0
  -26.8688  -18.5209   21.2708 N   0  0  0  0  0  0  0  0  0  0  0  0
  -20.8962  -27.7564   22.8839 N   0  0  0  0  0  0  0  0  0  0  0  0
  -26.8668  -25.5726   25.3424 N   0  0  0  0  0  0  0  0  0  0  0  0
  -30.3846  -27.8303   18.3152 N   0  0  0  0  0  0  0  0  0  0  0  0
  -28.1826  -22.6125   24.2521 N   0  3  0  0  0  0  0  0  0  0  0  0
  -25.6135  -20.4387   21.3430 O   0  0  0  0  0  0  0  0  0  0  0  0
  -22.9669  -28.7411   23.2903 O   0  0  0  0  0  0  0  0  0  0  0  0
  -24.0390  -25.9589   25.5936 O   0  0  0  0  0  0  0  0  0  0  0  0
  -28.2762  -25.5221   23.5017 O   0  0  0  0  0  0  0  0  0  0  0  0
  -29.2743  -26.8474   20.0634 O   0  0  0  0  0  0  0  0  0  0  0  0
  -30.9266  -14.8874   20.1012 O   0  0  0  0  0  0  0  0  0  0  0  0
  -25.8691  -27.5933   17.4795 O   0  0  0  0  0  0  0  0  0  1  0  0
  -27.4784  -10.6406   19.4099 F   0  0  0  0  0  0  0  0  0  0  0  0
  -28.7154  -14.5760   21.7311 F   0  0  0  0  0  0  0  0  0  0  0  0
  1  2  1  0  0  0  0
  1  5  2  0  0  0  0
  2  6  2  0  0  0  0
  3  8  2  0  0  0  0
  3 16  1  0  0  0  0
  4  9  1  0  0  0  0
  4 16  2  0  0  0  0
  5 18  1  0  0  0  0
  6 20  1  0  0  0  0
  7 10  2  0  0  0  0
  7 19  1  0  0  0  0
  8 22  1  0  0  0  0
  9 22  2  0  0  0  0
 10 23  1  0  0  0  0
 11 12  2  0  0  0  0
 11 24  1  0  0  0  0
 12 25  1  0  0  0  0
 13 21  1  0  0  0  0
 13 23  2  0  0  0  0
 14 25  2  0  0  0  0
 14 26  1  0  0  0  0
 15 62  2  0  0  0  0
 15 64  1  0  0  0  0
 16 27  1  0  0  0  0
 17 27  1  0  0  0  0
 17 30  2  0  0  0  0
 17 31  1  0  0  0  0
 18 20  2  0  0  0  0
 18 36  1  0  0  0  0
 19 21  2  0  0  0  0
 19 37  1  0  0  0  0
 20 45  1  0  0  0  0
 21 38  1  0  0  0  0
 22 79  1  0  0  0  0
 23 80  1  0  0  0  0
 24 26  2  0  0  0  0
 24 79  1  0  0  0  0
 25 81  1  0  0  0  0
 26 82  1  0  0  0  0
 27 63  2  0  0  0  0
 28 29  2  0  0  0  0
 28 54  1  0  0  0  0
 28 62  1  0  0  0  0
 29 55  1  0  0  0  0
 29 64  1  0  0  0  0
 30 65  1  0  0  0  0
 30 68  1  0  0  0  0
 31 69  1  0  0  0  0
 31 74  2  0  0  0  0
 32 46  1  0  0  0  0
 32 70  1  0  0  0  0
 32 75  2  0  0  0  0
 33 59  1  0  0  0  0
 33 66  1  0  0  0  0
 33 76  2  0  0  0  0
 34 60  1  0  0  0  0
 34 71  1  0  0  0  0
 34 77  2  0  0  0  0
 35 67  1  0  0  0  0
 35 72  1  0  0  0  0
 35 78  2  0  0  0  0
 36 39  1  0  0  0  0
 37 46  1  0  0  0  0
 38 66  1  0  0  0  0
 39 41  1  0  0  0  0
 40 42  1  0  0  0  0
 40 43  1  0  0  0  0
 41 45  1  0  0  0  0
 42 47  1  0  0  0  0
 43 67  1  0  0  0  0
 44 47  1  0  0  0  0
 44 67  1  0  0  0  0
 45 70  1  0  0  0  0
 46 66  1  0  0  0  0
 47 65  1  0  0  0  0
 48 60  1  0  0  0  0
 49 61  1  0  0  0  0
 50 61  1  0  0  0  0
 51 61  1  0  0  0  0
 52 64  1  0  0  0  0
 53 73  1  0  0  0  0
 54 58  1  0  0  0  0
 55 56  1  0  0  0  0
 56 57  1  0  0  0  0
 57 72  1  0  0  0  0
 58 80  1  0  0  0  0
 59 61  1  0  0  0  0
 59 71  1  0  0  0  0
 60 73  1  0  0  0  0
 63 65  1  0  0  0  0
M  CHG  1  73   1
M  ISO  4  35 100  58 101  72 100  80 101
M  END
> <Batch ID>
0043

> <Smiles>
CNC(C)C(=O)NC(C(=O)N1Cc2cc([101O:1][101CH2:1]Cc3ncn(C)c3CCC[100NH:0][100C:0](=O)N3CCCC(n4nc(-c5ccc(Oc6ccc(F)cc6F)cc5)c(C(N)=O)c4N)C3)ccc2CC1C(=O)NC1CCCc2ccccc21)C(C)(C)C

> <Shape>
0.222

> <Color>
0.065

> <Negative vol penalty>
0.000

$$$$
