
  -OEChem-04052317173D

 85 93  0     1  0  0  0  0  0999 V2000
  -26.5228  -21.6503   19.2460 C   0  0  0  0  0  0  0  0  0  0  0  0
  -25.4493  -22.1950   19.9433 C   0  0  0  0  0  0  0  0  0  0  0  0
  -25.9514  -13.9201   19.6549 C   0  0  0  0  0  0  0  0  0  0  0  0
  -25.3967  -13.5343   21.9745 C   0  0  0  0  0  0  0  0  0  0  0  0
  -27.8097  -22.1455   19.4519 C   0  0  0  0  0  0  0  0  0  0  0  0
  -25.6624  -23.2346   20.8480 C   0  0  0  0  0  0  0  0  0  0  0  0
  -22.2524  -26.9489   20.3775 C   0  0  0  0  0  0  0  0  0  0  0  0
  -25.7912  -12.5600   19.3903 C   0  0  0  0  0  0  0  0  0  0  0  0
  -25.2364  -12.1741   21.7099 C   0  0  0  0  0  0  0  0  0  0  0  0
  -20.9932  -26.7315   20.9349 C   0  0  0  0  0  0  0  0  0  0  0  0
  -24.3291   -8.6562   21.5708 C   0  0  0  0  0  0  0  0  0  0  0  0
  -23.2111   -8.0177   22.1073 C   0  0  0  0  0  0  0  0  0  0  0  0
  -21.6208  -28.0530   22.8530 C   0  0  0  0  0  0  0  0  0  0  0  0
  -21.7667   -9.5215   20.8868 C   0  0  0  0  0  0  0  0  0  0  0  0
  -19.5273  -22.8060   25.1427 C   0  0  0  0  0  0  0  0  0  0  0  0
  -25.7542  -14.4073   20.9470 C   0  0  0  0  0  0  0  0  0  0  0  0
  -24.9336  -16.8139   21.1520 C   0  0  0  0  0  0  0  0  0  0  0  0
  -28.0373  -23.1981   20.3524 C   0  0  0  0  0  0  0  0  0  0  0  0
  -23.2107  -27.7122   21.0597 C   0  0  0  0  0  0  0  0  0  0  0  0
  -26.9538  -23.7434   21.0672 C   0  0  0  0  0  0  0  0  0  0  0  0
  -22.8906  -28.2807   22.3008 C   0  0  0  0  0  0  0  0  0  0  0  0
  -25.4337  -11.6870   20.4178 C   0  0  0  0  0  0  0  0  0  0  0  0
  -20.6782  -27.2812   22.1741 C   0  0  0  0  0  0  0  0  0  0  0  0
  -24.1660   -9.7274   20.6923 C   0  0  0  0  0  0  0  0  0  0  0  0
  -21.9299   -8.4503   21.7653 C   0  0  0  0  0  0  0  0  0  0  0  0
  -22.8848  -10.1601   20.3503 C   0  0  0  0  0  0  0  0  0  0  0  0
  -25.9201  -15.8121   21.2211 C   0  0  0  0  0  0  0  0  0  0  0  0
  -19.6496  -24.1330   24.8409 C   0  0  0  0  0  0  0  0  0  0  0  0
  -25.5910  -17.9679   21.5021 C   0  0  0  0  0  0  0  0  0  0  0  0
  -21.6204  -23.1758   24.5241 C   0  0  0  0  0  0  0  0  0  0  0  0
  -23.5468  -16.7107   20.8028 C   0  0  0  0  0  0  0  0  0  0  0  0
  -26.1040  -27.1407   22.2456 C   0  0  0  0  0  0  0  0  0  0  0  0
  -26.0763  -30.3347   22.8114 C   0  0  0  0  0  0  0  0  0  0  0  0
  -24.2481  -33.1716   23.3177 C   0  0  0  0  0  0  0  0  0  0  0  0
  -29.1429  -20.7369   24.7979 C   0  0  0  0  0  0  0  0  0  0  0  0
  -29.4527  -23.6682   20.5768 C   0  0  0  0  0  0  0  0  0  0  0  0
  -24.5553  -27.9596   20.4326 C   0  0  0  0  0  0  0  0  0  0  0  0
  -23.8770  -29.1247   23.0645 C   0  0  0  0  0  0  0  0  0  0  0  0
  -29.5411  -25.0229   21.2748 C   0  0  0  0  0  0  0  0  0  0  0  0
  -30.5293  -18.8965   22.0836 C   0  0  0  0  0  0  0  0  0  0  0  0
  -28.6003  -25.0676   22.4747 C   0  0  0  0  0  0  0  0  0  0  0  0
  -29.3746  -18.0087   21.6161 C   0  0  0  0  0  0  0  0  0  0  0  0
  -30.5296  -19.0694   23.6009 C   0  0  0  0  0  0  0  0  0  0  0  0
  -28.1013  -18.6606   23.7023 C   0  0  0  0  0  0  0  0  0  0  0  0
  -27.1411  -24.8886   22.0386 C   0  0  1  0  0  0  0  0  0  0  0  0
  -25.6313  -28.3248   21.4506 C   0  0  1  0  0  0  0  0  0  0  0  0
  -28.0262  -18.5023   22.1741 C   0  0  2  0  0  0  0  0  0  0  0  0
  -24.5053  -35.6226   23.7911 C   0  0  0  0  0  0  0  0  0  0  0  0
  -26.7591  -29.6994   25.7166 C   0  0  0  0  0  0  0  0  0  0  0  0
  -26.0734  -32.0318   26.3149 C   0  0  0  0  0  0  0  0  0  0  0  0
  -27.9877  -31.6565   24.7602 C   0  0  0  0  0  0  0  0  0  0  0  0
  -21.0788  -20.8382   25.1387 C   0  0  0  0  0  0  0  0  0  0  0  0
  -22.8806  -33.9194   20.8018 C   0  0  0  0  0  0  0  0  0  0  0  0
  -18.6466  -25.2584   24.8721 C   0  0  0  0  0  0  0  0  0  0  0  0
  -23.0542  -22.9871   24.1901 C   0  0  0  0  0  0  0  0  0  0  0  0
  -17.8917  -25.4473   23.5545 C   0  0  0  0  0  0  0  0  0  0  0  0
  -26.1425  -22.5238   26.2661 C   0  0  0  0  0  0  0  0  0  0  0  0
  -27.6215  -22.3242   25.9491 C   0  0  0  0  0  0  0  0  0  0  0  0
  -25.2858  -22.6453   25.0047 C   0  0  0  0  0  0  0  0  0  0  0  0
  -18.7949  -25.8454   22.3929 C   0  0  0  0  0  0  0  0  0  1  0  0
  -25.6322  -31.2140   23.9553 C   0  0  1  0  0  0  0  0  0  0  0  0
  -24.3551  -34.5601   22.7135 C   0  0  2  0  0  0  0  0  0  0  0  0
  -26.5950  -31.1330   25.1735 C   0  0  0  0  0  0  0  0  0  0  0  0
  -27.1135  -16.2879   21.5862 N   0  0  0  0  0  0  0  0  0  0  0  0
  -20.7616  -22.2382   24.9374 N   0  0  0  0  0  0  0  0  0  0  0  0
  -26.8812  -17.6014   21.7496 N   0  0  0  0  0  0  0  0  0  0  0  0
  -20.9550  -24.3336   24.4615 N   0  3  0  0  0  0  0  0  0  0  0  0
  -25.1805  -29.3326   22.4125 N   0  0  0  0  0  0  0  0  0  0  0  0
  -29.2228  -19.5410   24.0656 N   0  0  0  0  0  0  0  0  0  0  0  0
  -25.1856  -19.2502   21.6192 N   0  0  0  0  0  0  0  0  0  0  0  0
  -23.0338  -15.4497   20.4696 N   0  0  0  0  0  0  0  0  0  0  0  0
  -26.6271  -26.1190   21.4763 N   0  0  0  0  0  0  0  0  0  0  0  0
  -25.4788  -32.5557   23.4031 N   0  0  0  0  0  0  0  0  0  0  0  0
  -27.8660  -21.1152   25.1945 N   0  0  0  0  0  0  0  0  0  0  0  0
  -23.8825  -22.8394   25.3632 N   0  0  0  0  0  0  0  0  0  0  0  0
  -23.1374  -34.8717   21.9127 N   0  3  0  0  0  0  0  0  0  0  0  0
  -22.7890  -17.7098   20.7707 O   0  0  0  0  0  0  0  0  0  0  0  0
  -26.0030  -27.1537   23.4668 O   0  0  0  0  0  0  0  0  0  0  0  0
  -27.1745  -30.5343   22.2862 O   0  0  0  0  0  0  0  0  0  0  0  0
  -23.1802  -32.6838   23.6812 O   0  0  0  0  0  0  0  0  0  0  0  0
  -30.1352  -21.4199   25.0730 O   0  0  0  0  0  0  0  0  0  0  0  0
  -25.2770  -10.3598   20.1599 O   0  0  0  0  0  0  0  0  0  0  0  0
  -19.4500  -27.0701   22.7208 O   0  0  0  0  0  0  0  0  0  1  0  0
  -20.8563   -7.8361   22.2793 F   0  0  0  0  0  0  0  0  0  0  0  0
  -22.7218  -11.1878   19.5060 F   0  0  0  0  0  0  0  0  0  0  0  0
  1  2  1  0  0  0  0
  1  5  2  0  0  0  0
  2  6  2  0  0  0  0
  3  8  2  0  0  0  0
  3 16  1  0  0  0  0
  4  9  1  0  0  0  0
  4 16  2  0  0  0  0
  5 18  1  0  0  0  0
  6 20  1  0  0  0  0
  7 10  2  0  0  0  0
  7 19  1  0  0  0  0
  8 22  1  0  0  0  0
  9 22  2  0  0  0  0
 10 23  1  0  0  0  0
 11 12  2  0  0  0  0
 11 24  1  0  0  0  0
 12 25  1  0  0  0  0
 13 21  1  0  0  0  0
 13 23  2  0  0  0  0
 14 25  2  0  0  0  0
 14 26  1  0  0  0  0
 15 28  2  0  0  0  0
 15 65  1  0  0  0  0
 16 27  1  0  0  0  0
 17 27  1  0  0  0  0
 17 29  2  0  0  0  0
 17 31  1  0  0  0  0
 18 20  2  0  0  0  0
 18 36  1  0  0  0  0
 19 21  2  0  0  0  0
 19 37  1  0  0  0  0
 20 45  1  0  0  0  0
 21 38  1  0  0  0  0
 22 82  1  0  0  0  0
 23 83  1  0  0  0  0
 24 26  2  0  0  0  0
 24 82  1  0  0  0  0
 25 84  1  0  0  0  0
 26 85  1  0  0  0  0
 27 64  2  0  0  0  0
 28 54  1  0  0  0  0
 28 67  1  0  0  0  0
 29 66  1  0  0  0  0
 29 70  1  0  0  0  0
 30 55  1  0  0  0  0
 30 65  1  0  0  0  0
 30 67  2  0  0  0  0
 31 71  1  0  0  0  0
 31 77  2  0  0  0  0
 32 46  1  0  0  0  0
 32 72  1  0  0  0  0
 32 78  2  0  0  0  0
 33 61  1  0  0  0  0
 33 68  1  0  0  0  0
 33 79  2  0  0  0  0
 34 62  1  0  0  0  0
 34 73  1  0  0  0  0
 34 80  2  0  0  0  0
 35 69  1  0  0  0  0
 35 74  1  0  0  0  0
 35 81  2  0  0  0  0
 36 39  1  0  0  0  0
 37 46  1  0  0  0  0
 38 68  1  0  0  0  0
 39 41  1  0  0  0  0
 40 42  1  0  0  0  0
 40 43  1  0  0  0  0
 41 45  1  0  0  0  0
 42 47  1  0  0  0  0
 43 69  1  0  0  0  0
 44 47  1  0  0  0  0
 44 69  1  0  0  0  0
 45 72  1  0  0  0  0
 46 68  1  0  0  0  0
 47 66  1  0  0  0  0
 48 62  1  0  0  0  0
 49 63  1  0  0  0  0
 50 63  1  0  0  0  0
 51 63  1  0  0  0  0
 52 65  1  0  0  0  0
 53 76  1  0  0  0  0
 54 56  1  0  0  0  0
 55 75  1  0  0  0  0
 56 60  1  0  0  0  0
 57 58  1  0  0  0  0
 57 59  1  0  0  0  0
 58 74  1  0  0  0  0
 59 75  1  0  0  0  0
 60 83  1  0  0  0  0
 61 63  1  0  0  0  0
 61 73  1  0  0  0  0
 62 76  1  0  0  0  0
 64 66  1  0  0  0  0
M  CHG  2  67   1  76   1
M  ISO  4  35 100  60 101  74 100  83 101
M  END
> <Batch ID>
0044

> <Smiles>
CNC(C)C(=O)NC(C(=O)N1Cc2cc([101O:1][101CH2:1]CCc3cn(C)c(CNCCC[100NH:0][100C:0](=O)N4CCCC(n5nc(-c6ccc(Oc7ccc(F)cc7F)cc6)c(C(N)=O)c5N)C4)n3)ccc2CC1C(=O)NC1CCCc2ccccc21)C(C)(C)C

> <Shape>
0.228

> <Color>
0.063

> <Negative vol penalty>
0.000

$$$$

  -OEChem-04052317173D

 83 91  0     1  0  0  0  0  0999 V2000
  -24.8976  -34.9504   23.5764 C   0  0  0  0  0  0  0  0  0  0  0  0
  -25.6413  -33.8130   23.2786 C   0  0  0  0  0  0  0  0  0  0  0  0
  -23.1802  -12.4927   21.0580 C   0  0  0  0  0  0  0  0  0  0  0  0
  -24.7297  -12.0702   19.2532 C   0  0  0  0  0  0  0  0  0  0  0  0
  -23.5979  -34.8238   24.0650 C   0  0  0  0  0  0  0  0  0  0  0  0
  -25.0861  -32.5483   23.4702 C   0  0  0  0  0  0  0  0  0  0  0  0
  -25.9615  -29.4318   19.5759 C   0  0  0  0  0  0  0  0  0  0  0  0
  -22.3197  -11.5213   20.5466 C   0  0  0  0  0  0  0  0  0  0  0  0
  -23.8692  -11.0988   18.7418 C   0  0  0  0  0  0  0  0  0  0  0  0
  -27.2283  -28.8553   19.4940 C   0  0  0  0  0  0  0  0  0  0  0  0
  -19.8813   -8.8993   19.9186 C   0  0  0  0  0  0  0  0  0  0  0  0
  -19.3182   -7.9936   20.8176 C   0  0  0  0  0  0  0  0  0  0  0  0
  -26.3567  -26.8187   20.4488 C   0  0  0  0  0  0  0  0  0  0  0  0
  -21.5273   -7.2413   21.4431 C   0  0  0  0  0  0  0  0  0  0  0  0
  -24.3852  -12.7672   20.4113 C   0  0  0  0  0  0  0  0  0  0  0  0
  -26.3108  -13.5824   21.8726 C   0  0  0  0  0  0  0  0  0  0  0  0
  -23.0230  -33.5571   24.2537 C   0  0  0  0  0  0  0  0  0  0  0  0
  -24.8833  -28.7086   20.1058 C   0  0  0  0  0  0  0  0  0  0  0  0
  -23.7780  -32.4047   23.9631 C   0  0  0  0  0  0  0  0  0  0  0  0
  -25.0766  -27.3874   20.5339 C   0  0  0  0  0  0  0  0  0  0  0  0
  -22.6642  -10.8244   19.3886 C   0  0  0  0  0  0  0  0  0  0  0  0
  -27.4267  -27.5496   19.9332 C   0  0  0  0  0  0  0  0  0  0  0  0
  -21.2674   -8.9760   19.7818 C   0  0  0  0  0  0  0  0  0  0  0  0
  -20.1412   -7.1646   21.5799 C   0  0  0  0  0  0  0  0  0  0  0  0
  -22.0903   -8.1470   20.5441 C   0  0  0  0  0  0  0  0  0  0  0  0
  -25.2743  -13.7709   20.9388 C   0  0  0  0  0  0  0  0  0  0  0  0
  -33.2218  -25.5396   19.2333 C   0  0  0  0  0  0  0  0  0  0  0  0
  -32.2035  -27.5826   19.0971 C   0  0  0  0  0  0  0  0  0  0  0  0
  -31.9955  -24.9408   19.4203 C   0  0  0  0  0  0  0  0  0  0  0  0
  -30.9770  -26.9838   19.2834 C   0  0  0  0  0  0  0  0  0  0  0  0
  -26.8513  -14.8336   22.0427 C   0  0  0  0  0  0  0  0  0  0  0  0
  -26.7461  -12.3836   22.5275 C   0  0  0  0  0  0  0  0  0  0  0  0
  -22.9527  -29.0689   22.6051 C   0  0  0  0  0  0  0  0  0  0  0  0
  -28.7764  -19.4950   19.8419 C   0  0  0  0  0  0  0  0  0  0  0  0
  -21.4342  -26.5133   21.3068 C   0  0  0  0  0  0  0  0  0  0  0  0
  -21.6016  -23.7511   19.3095 C   0  0  0  0  0  0  0  0  0  0  0  0
  -21.6316  -33.4697   24.8288 C   0  0  0  0  0  0  0  0  0  0  0  0
  -23.5173  -29.3355   20.1626 C   0  0  0  0  0  0  0  0  0  0  0  0
  -23.9476  -26.5614   21.0921 C   0  0  0  0  0  0  0  0  0  0  0  0
  -20.9832  -32.0994   24.6494 C   0  0  0  0  0  0  0  0  0  0  0  0
  -25.2112  -19.3708   20.5495 C   0  0  0  0  0  0  0  0  0  0  0  0
  -21.9599  -30.9924   25.0334 C   0  0  0  0  0  0  0  0  0  0  0  0
  -24.9937  -17.8732   20.7616 C   0  0  0  0  0  0  0  0  0  0  0  0
  -26.2647  -19.6387   19.4779 C   0  0  0  0  0  0  0  0  0  0  0  0
  -27.3589  -17.4701   19.9515 C   0  0  0  0  0  0  0  0  0  0  0  0
  -23.2018  -31.0159   24.1342 C   0  0  1  0  0  0  0  0  0  0  0  0
  -22.6031  -28.6837   21.1955 C   0  0  1  0  0  0  0  0  0  0  0  0
  -26.3254  -17.1569   21.0464 C   0  0  2  0  0  0  0  0  0  0  0  0
  -34.4804  -24.7418   19.2042 C   0  0  0  0  0  0  0  0  0  0  0  0
  -32.3290  -29.0568   18.9161 C   0  0  0  0  0  0  0  0  0  0  0  0
  -20.2094  -21.8387   18.4717 C   0  0  0  0  0  0  0  0  0  0  0  0
  -21.6932  -25.1397   24.0190 C   0  0  0  0  0  0  0  0  0  0  0  0
  -21.1758  -22.9661   22.8895 C   0  0  0  0  0  0  0  0  0  0  0  0
  -19.4892  -24.8040   22.8858 C   0  0  0  0  0  0  0  0  0  0  0  0
  -21.9280  -24.5961   16.4920 C   0  0  0  0  0  0  0  0  0  0  0  0
  -31.8702  -23.4668   19.6027 C   0  0  0  0  0  0  0  0  0  0  0  0
  -29.7101  -27.7872   19.3123 C   0  0  0  0  0  0  0  0  0  1  0  0
  -28.8567  -20.9809   19.5979 C   0  0  0  0  0  0  0  0  0  0  0  0
  -30.4153  -22.9861   19.4800 C   0  0  0  0  0  0  0  0  0  0  0  0
  -30.2955  -21.4757   19.7057 C   0  0  0  0  0  0  0  0  0  0  0  0
  -21.5552  -25.0148   21.4439 C   0  0  1  0  0  0  0  0  0  0  0  0
  -20.6934  -23.2544   18.1992 C   0  0  2  0  0  0  0  0  0  0  0  0
  -21.0003  -24.4971   22.8009 C   0  0  0  0  0  0  0  0  0  0  0  0
  -25.1611  -15.0417   20.5435 N   0  0  0  0  0  0  0  0  0  0  0  0
  -33.3478  -26.8713   19.0684 N   0  0  0  0  0  0  0  0  0  0  0  0
  -30.8510  -25.6521   19.4486 N   0  0  0  0  0  0  0  0  0  0  0  0
  -26.1335  -15.6631   21.2323 N   0  0  0  0  0  0  0  0  0  0  0  0
  -22.6320  -27.2210   21.1328 N   0  0  0  0  0  0  0  0  0  0  0  0
  -27.5087  -18.9170   19.7713 N   0  0  0  0  0  0  0  0  0  0  0  0
  -27.8659  -15.2940   22.8050 N   0  0  0  0  0  0  0  0  0  0  0  0
  -26.0806  -11.1846   22.2378 N   0  0  0  0  0  0  0  0  0  0  0  0
  -22.9038  -30.4288   22.8454 N   0  0  0  0  0  0  0  0  0  0  0  0
  -20.8988  -24.4435   20.2729 N   0  0  0  0  0  0  0  0  0  0  0  0
  -21.4168  -23.2611   16.8963 N   0  3  0  0  0  0  0  0  0  0  0  0
  -27.6864  -12.3787   23.3578 O   0  0  0  0  0  0  0  0  0  0  0  0
  -23.2437  -28.1967   23.4152 O   0  0  0  0  0  0  0  0  0  0  0  0
  -29.8101  -18.8690   20.0903 O   0  0  0  0  0  0  0  0  0  0  0  0
  -20.3175  -27.0359   21.3453 O   0  0  0  0  0  0  0  0  0  0  0  0
  -22.8127  -23.5423   19.3230 O   0  0  0  0  0  0  0  0  0  0  0  0
  -21.8249   -9.8763   18.8894 O   0  0  0  0  0  0  0  0  0  0  0  0
  -28.6623  -26.9848   19.8550 O   0  0  0  0  0  0  0  0  0  1  0  0
  -19.6004   -6.2959   22.4443 F   0  0  0  0  0  0  0  0  0  0  0  0
  -23.4226   -8.2169   20.4179 F   0  0  0  0  0  0  0  0  0  0  0  0
  1  2  1  0  0  0  0
  1  5  2  0  0  0  0
  2  6  2  0  0  0  0
  3  8  2  0  0  0  0
  3 15  1  0  0  0  0
  4  9  1  0  0  0  0
  4 15  2  0  0  0  0
  5 17  1  0  0  0  0
  6 19  1  0  0  0  0
  7 10  2  0  0  0  0
  7 18  1  0  0  0  0
  8 21  1  0  0  0  0
  9 21  2  0  0  0  0
 10 22  1  0  0  0  0
 11 12  2  0  0  0  0
 11 23  1  0  0  0  0
 12 24  1  0  0  0  0
 13 20  1  0  0  0  0
 13 22  2  0  0  0  0
 14 24  2  0  0  0  0
 14 25  1  0  0  0  0
 15 26  1  0  0  0  0
 16 26  1  0  0  0  0
 16 31  2  0  0  0  0
 16 32  1  0  0  0  0
 17 19  2  0  0  0  0
 17 37  1  0  0  0  0
 18 20  2  0  0  0  0
 18 38  1  0  0  0  0
 19 46  1  0  0  0  0
 20 39  1  0  0  0  0
 21 80  1  0  0  0  0
 22 81  1  0  0  0  0
 23 25  2  0  0  0  0
 23 80  1  0  0  0  0
 24 82  1  0  0  0  0
 25 83  1  0  0  0  0
 26 64  2  0  0  0  0
 27 29  1  0  0  0  0
 27 49  1  0  0  0  0
 27 65  2  0  0  0  0
 28 30  2  0  0  0  0
 28 50  1  0  0  0  0
 28 65  1  0  0  0  0
 29 56  1  0  0  0  0
 29 66  2  0  0  0  0
 30 57  1  0  0  0  0
 30 66  1  0  0  0  0
 31 67  1  0  0  0  0
 31 70  1  0  0  0  0
 32 71  1  0  0  0  0
 32 75  2  0  0  0  0
 33 47  1  0  0  0  0
 33 72  1  0  0  0  0
 33 76  2  0  0  0  0
 34 58  1  0  0  0  0
 34 69  1  0  0  0  0
 34 77  2  0  0  0  0
 35 61  1  0  0  0  0
 35 68  1  0  0  0  0
 35 78  2  0  0  0  0
 36 62  1  0  0  0  0
 36 73  1  0  0  0  0
 36 79  2  0  0  0  0
 37 40  1  0  0  0  0
 38 47  1  0  0  0  0
 39 68  1  0  0  0  0
 40 42  1  0  0  0  0
 41 43  1  0  0  0  0
 41 44  1  0  0  0  0
 42 46  1  0  0  0  0
 43 48  1  0  0  0  0
 44 69  1  0  0  0  0
 45 48  1  0  0  0  0
 45 69  1  0  0  0  0
 46 72  1  0  0  0  0
 47 68  1  0  0  0  0
 48 67  1  0  0  0  0
 51 62  1  0  0  0  0
 52 63  1  0  0  0  0
 53 63  1  0  0  0  0
 54 63  1  0  0  0  0
 55 74  1  0  0  0  0
 56 59  1  0  0  0  0
 57 81  1  0  0  0  0
 58 60  1  0  0  0  0
 59 60  1  0  0  0  0
 61 63  1  0  0  0  0
 61 73  1  0  0  0  0
 62 74  1  0  0  0  0
 64 67  1  0  0  0  0
M  CHG  1  74   1
M  ISO  4  34 100  57 101  58 100  81 101
M  END
> <Batch ID>
0044

> <Smiles>
CNC(C)C(=O)NC(C(=O)N1Cc2cc([101O:1][101CH2:1]c3nc(CCC[100CH2:0][100C:0](=O)N4CCCC(n5nc(-c6ccc(Oc7ccc(F)cc7F)cc6)c(C(N)=O)c5N)C4)c(C)nc3C)ccc2CC1C(=O)NC1CCCc2ccccc21)C(C)(C)C

> <Shape>
0.243

> <Color>
0.089

> <Negative vol penalty>
0.000

$$$$

  -OEChem-04052317173D

 81 89  0     1  0  0  0  0  0999 V2000
  -18.5342  -28.4859   22.7158 C   0  0  0  0  0  0  0  0  0  0  0  0
  -18.1198  -27.1721   22.5218 C   0  0  0  0  0  0  0  0  0  0  0  0
  -30.1211  -23.5847   19.9122 C   0  0  0  0  0  0  0  0  0  0  0  0
  -28.0400  -23.4825   21.1352 C   0  0  0  0  0  0  0  0  0  0  0  0
  -19.8931  -28.7781   22.8255 C   0  0  0  0  0  0  0  0  0  0  0  0
  -19.0643  -26.1497   22.4364 C   0  0  0  0  0  0  0  0  0  0  0  0
  -19.9565  -19.2253   24.0404 C   0  0  0  0  0  0  0  0  0  0  0  0
  -29.7912  -24.8614   19.4575 C   0  0  0  0  0  0  0  0  0  0  0  0
  -27.7101  -24.7592   20.6805 C   0  0  0  0  0  0  0  0  0  0  0  0
  -20.3430  -18.0237   23.4483 C   0  0  0  0  0  0  0  0  0  0  0  0
  -26.4833  -28.1376   20.1328 C   0  0  0  0  0  0  0  0  0  0  0  0
  -25.9691  -29.0441   21.0598 C   0  0  0  0  0  0  0  0  0  0  0  0
  -22.6590  -18.6363   23.7313 C   0  0  0  0  0  0  0  0  0  0  0  0
  -27.9968  -28.8637   22.3610 C   0  0  0  0  0  0  0  0  0  0  0  0
  -21.7374  -13.1629   22.3025 C   0  0  0  0  0  0  0  0  0  0  0  0
  -29.2455  -22.8952   20.7510 C   0  0  0  0  0  0  0  0  0  0  0  0
  -30.2907  -21.2469   22.3936 C   0  0  0  0  0  0  0  0  0  0  0  0
  -20.8541  -27.7575   22.7511 C   0  0  0  0  0  0  0  0  0  0  0  0
  -20.9199  -20.1478   24.4732 C   0  0  0  0  0  0  0  0  0  0  0  0
  -20.4373  -26.4287   22.5439 C   0  0  0  0  0  0  0  0  0  0  0  0
  -22.2822  -19.8477   24.3309 C   0  0  0  0  0  0  0  0  0  0  0  0
  -28.5858  -25.4487   19.8417 C   0  0  0  0  0  0  0  0  0  0  0  0
  -21.6944  -17.7303   23.2911 C   0  0  0  0  0  0  0  0  0  0  0  0
  -27.7542  -27.5939   20.3200 C   0  0  0  0  0  0  0  0  0  0  0  0
  -26.7258  -29.4072   22.1739 C   0  0  0  0  0  0  0  0  0  0  0  0
  -28.5109  -27.9570   21.4340 C   0  0  0  0  0  0  0  0  0  0  0  0
  -29.5855  -21.5761   21.2206 C   0  0  0  0  0  0  0  0  0  0  0  0
  -21.6521  -14.4371   21.7100 C   0  0  0  0  0  0  0  0  0  0  0  0
  -22.3827  -12.3917   21.3668 C   0  0  0  0  0  0  0  0  0  0  0  0
  -30.3515  -19.8748   22.3840 C   0  0  0  0  0  0  0  0  0  0  0  0
  -30.8416  -22.1046   23.4018 C   0  0  0  0  0  0  0  0  0  0  0  0
  -21.6617  -23.1423   23.7074 C   0  0  0  0  0  0  0  0  0  0  0  0
  -23.7150  -22.8597   26.2026 C   0  0  0  0  0  0  0  0  0  0  0  0
  -25.5509  -20.8153   28.2266 C   0  0  0  0  0  0  0  0  0  0  0  0
  -26.8563  -15.7998   19.9278 C   0  0  0  0  0  0  0  0  0  0  0  0
  -22.3140  -28.1282   22.8280 C   0  0  0  0  0  0  0  0  0  0  0  0
  -20.4868  -21.4277   25.1341 C   0  0  0  0  0  0  0  0  0  0  0  0
  -23.3559  -20.7954   24.7972 C   0  0  0  0  0  0  0  0  0  0  0  0
  -23.2309  -26.9387   23.1015 C   0  0  0  0  0  0  0  0  0  0  0  0
  -30.4163  -16.1501   19.3790 C   0  0  0  0  0  0  0  0  0  0  0  0
  -22.8634  -25.7633   22.2013 C   0  0  0  0  0  0  0  0  0  0  0  0
  -30.6679  -17.5634   19.9075 C   0  0  0  0  0  0  0  0  0  0  0  0
  -29.0737  -16.0597   18.6597 C   0  0  0  0  0  0  0  0  0  0  0  0
  -28.1557  -17.9088   20.0057 C   0  0  0  0  0  0  0  0  0  0  0  0
  -21.4303  -25.2890   22.4708 C   0  0  1  0  0  0  0  0  0  0  0  0
  -21.5483  -22.5216   25.0710 C   0  0  1  0  0  0  0  0  0  0  0  0
  -29.4874  -18.0601   20.7631 C   0  0  2  0  0  0  0  0  0  0  0  0
  -22.7722  -10.9699   21.3856 C   0  0  0  0  0  0  0  0  0  0  0  0
  -27.1595  -20.8774   30.1517 C   0  0  0  0  0  0  0  0  0  0  0  0
  -25.9368  -23.7578   24.3140 C   0  0  0  0  0  0  0  0  0  0  0  0
  -27.6011  -22.8999   25.9760 C   0  0  0  0  0  0  0  0  0  0  0  0
  -26.0517  -24.7505   26.6065 C   0  0  0  0  0  0  0  0  0  0  0  0
  -23.7272  -19.2480   29.9518 C   0  0  0  0  0  0  0  0  0  0  0  0
  -21.0358  -15.6758   22.2906 C   0  0  0  0  0  0  0  0  0  1  0  0
  -24.5157  -13.7519   18.7578 C   0  0  0  0  0  0  0  0  0  0  0  0
  -23.2994  -12.8724   19.0770 C   0  0  0  0  0  0  0  0  0  0  0  0
  -25.6665  -13.6292   19.7543 C   0  0  0  0  0  0  0  0  0  0  0  0
  -25.1448  -22.4030   26.3641 C   0  0  1  0  0  0  0  0  0  0  0  0
  -25.7010  -20.7633   29.7363 C   0  0  2  0  0  0  0  0  0  0  0  0
  -26.1636  -23.4356   25.8045 C   0  0  0  0  0  0  0  0  0  0  0  0
  -29.2242  -20.4998   20.5169 N   0  0  0  0  0  0  0  0  0  0  0  0
  -22.1995  -14.4773   20.4924 N   0  0  0  0  0  0  0  0  0  0  0  0
  -22.6351  -13.2187   20.3120 N   0  0  0  0  0  0  0  0  0  0  0  0
  -29.7045  -19.4809   21.2498 N   0  0  0  0  0  0  0  0  0  0  0  0
  -22.8820  -22.0366   25.4316 N   0  0  0  0  0  0  0  0  0  0  0  0
  -27.9905  -16.5296   19.5348 N   0  0  0  0  0  0  0  0  0  0  0  0
  -30.8949  -18.9788   23.2352 N   0  0  0  0  0  0  0  0  0  0  0  0
  -30.6889  -23.4903   23.2565 N   0  0  0  0  0  0  0  0  0  0  0  0
  -21.3797  -24.4948   23.6796 N   0  0  0  0  0  0  0  0  0  0  0  0
  -25.3187  -22.0992   27.7804 N   0  0  0  0  0  0  0  0  0  0  0  0
  -26.7720  -14.5041   19.4329 N   0  0  0  0  0  0  0  0  0  0  0  0
  -25.1604  -19.4798   30.2667 N   0  3  0  0  0  0  0  0  0  0  0  0
  -31.4653  -21.6564   24.3936 O   0  0  0  0  0  0  0  0  0  0  0  0
  -21.9828  -22.4461   22.7514 O   0  0  0  0  0  0  0  0  0  0  0  0
  -23.3488  -23.9045   26.7466 O   0  0  0  0  0  0  0  0  0  0  0  0
  -25.6353  -19.8175   27.5141 O   0  0  0  0  0  0  0  0  0  0  0  0
  -25.9852  -16.2666   20.6697 O   0  0  0  0  0  0  0  0  0  0  0  0
  -28.2636  -26.6946   19.3983 O   0  0  0  0  0  0  0  0  0  0  0  0
  -22.0744  -16.5585   22.7129 O   0  0  0  0  0  0  0  0  0  1  0  0
  -26.2326  -30.2790   23.0631 F   0  0  0  0  0  0  0  0  0  0  0  0
  -29.7330  -27.4390   21.6186 F   0  0  0  0  0  0  0  0  0  0  0  0
  1  2  1  0  0  0  0
  1  5  2  0  0  0  0
  2  6  2  0  0  0  0
  3  8  2  0  0  0  0
  3 16  1  0  0  0  0
  4  9  1  0  0  0  0
  4 16  2  0  0  0  0
  5 18  1  0  0  0  0
  6 20  1  0  0  0  0
  7 10  2  0  0  0  0
  7 19  1  0  0  0  0
  8 22  1  0  0  0  0
  9 22  2  0  0  0  0
 10 23  1  0  0  0  0
 11 12  2  0  0  0  0
 11 24  1  0  0  0  0
 12 25  1  0  0  0  0
 13 21  1  0  0  0  0
 13 23  2  0  0  0  0
 14 25  2  0  0  0  0
 14 26  1  0  0  0  0
 15 28  1  0  0  0  0
 15 29  2  0  0  0  0
 16 27  1  0  0  0  0
 17 27  1  0  0  0  0
 17 30  2  0  0  0  0
 17 31  1  0  0  0  0
 18 20  2  0  0  0  0
 18 36  1  0  0  0  0
 19 21  2  0  0  0  0
 19 37  1  0  0  0  0
 20 45  1  0  0  0  0
 21 38  1  0  0  0  0
 22 78  1  0  0  0  0
 23 79  1  0  0  0  0
 24 26  2  0  0  0  0
 24 78  1  0  0  0  0
 25 80  1  0  0  0  0
 26 81  1  0  0  0  0
 27 61  2  0  0  0  0
 28 54  1  0  0  0  0
 28 62  2  0  0  0  0
 29 48  1  0  0  0  0
 29 63  1  0  0  0  0
 30 64  1  0  0  0  0
 30 67  1  0  0  0  0
 31 68  1  0  0  0  0
 31 73  2  0  0  0  0
 32 46  1  0  0  0  0
 32 69  1  0  0  0  0
 32 74  2  0  0  0  0
 33 58  1  0  0  0  0
 33 65  1  0  0  0  0
 33 75  2  0  0  0  0
 34 59  1  0  0  0  0
 34 70  1  0  0  0  0
 34 76  2  0  0  0  0
 35 66  1  0  0  0  0
 35 71  1  0  0  0  0
 35 77  2  0  0  0  0
 36 39  1  0  0  0  0
 37 46  1  0  0  0  0
 38 65  1  0  0  0  0
 39 41  1  0  0  0  0
 40 42  1  0  0  0  0
 40 43  1  0  0  0  0
 41 45  1  0  0  0  0
 42 47  1  0  0  0  0
 43 66  1  0  0  0  0
 44 47  1  0  0  0  0
 44 66  1  0  0  0  0
 45 69  1  0  0  0  0
 46 65  1  0  0  0  0
 47 64  1  0  0  0  0
 49 59  1  0  0  0  0
 50 60  1  0  0  0  0
 51 60  1  0  0  0  0
 52 60  1  0  0  0  0
 53 72  1  0  0  0  0
 54 79  1  0  0  0  0
 55 56  1  0  0  0  0
 55 57  1  0  0  0  0
 56 63  1  0  0  0  0
 57 71  1  0  0  0  0
 58 60  1  0  0  0  0
 58 70  1  0  0  0  0
 59 72  1  0  0  0  0
 61 64  1  0  0  0  0
 62 63  1  0  0  0  0
M  CHG  1  72   1
M  ISO  4  35 100  54 101  71 100  79 101
M  END
> <Batch ID>
0044

> <Smiles>
CNC(C)C(=O)NC(C(=O)N1Cc2cc([101O:1][101CH2:1]c3cc(C)n(CCC[100NH:0][100C:0](=O)N4CCCC(n5nc(-c6ccc(Oc7ccc(F)cc7F)cc6)c(C(N)=O)c5N)C4)n3)ccc2CC1C(=O)NC1CCCc2ccccc21)C(C)(C)C

> <Shape>
0.198

> <Color>
0.070

> <Negative vol penalty>
0.000

$$$$

  -OEChem-04052317173D

 84 92  0     1  0  0  0  0  0999 V2000
  -18.2469  -33.0694   23.0018 C   0  0  0  0  0  0  0  0  0  0  0  0
  -19.5504  -33.1921   22.5315 C   0  0  0  0  0  0  0  0  0  0  0  0
  -25.6767  -13.0432   22.1641 C   0  0  0  0  0  0  0  0  0  0  0  0
  -26.4344  -13.4664   19.9094 C   0  0  0  0  0  0  0  0  0  0  0  0
  -17.8750  -31.9442   23.7362 C   0  0  0  0  0  0  0  0  0  0  0  0
  -20.4832  -32.1900   22.7964 C   0  0  0  0  0  0  0  0  0  0  0  0
  -25.0293  -30.3317   19.1379 C   0  0  0  0  0  0  0  0  0  0  0  0
  -24.6368  -12.2575   21.6672 C   0  0  0  0  0  0  0  0  0  0  0  0
  -25.3945  -12.6806   19.4125 C   0  0  0  0  0  0  0  0  0  0  0  0
  -26.3900  -30.6337   19.1052 C   0  0  0  0  0  0  0  0  0  0  0  0
  -24.2389   -9.1223   20.4651 C   0  0  0  0  0  0  0  0  0  0  0  0
  -23.9967   -7.8981   21.0881 C   0  0  0  0  0  0  0  0  0  0  0  0
  -26.8559  -28.6461   20.3904 C   0  0  0  0  0  0  0  0  0  0  0  0
  -21.7558   -8.6184   21.6325 C   0  0  0  0  0  0  0  0  0  0  0  0
  -26.5755  -13.6477   21.2852 C   0  0  0  0  0  0  0  0  0  0  0  0
  -28.9434  -14.0333   22.1524 C   0  0  0  0  0  0  0  0  0  0  0  0
  -18.8011  -30.9233   24.0021 C   0  0  0  0  0  0  0  0  0  0  0  0
  -24.5699  -29.1885   19.8075 C   0  0  0  0  0  0  0  0  0  0  0  0
  -20.1237  -31.0507   23.5363 C   0  0  0  0  0  0  0  0  0  0  0  0
  -25.4891  -28.3305   20.4280 C   0  0  0  0  0  0  0  0  0  0  0  0
  -24.4957  -12.0762   20.2914 C   0  0  0  0  0  0  0  0  0  0  0  0
  -27.3033  -29.7924   19.7340 C   0  0  0  0  0  0  0  0  0  0  0  0
  -23.2396  -10.0947   20.4258 C   0  0  0  0  0  0  0  0  0  0  0  0
  -22.7552   -7.6461   21.6717 C   0  0  0  0  0  0  0  0  0  0  0  0
  -21.9980   -9.8427   21.0095 C   0  0  0  0  0  0  0  0  0  0  0  0
  -27.6495  -14.4599   21.7978 C   0  0  0  0  0  0  0  0  0  0  0  0
  -30.7315  -26.6830   19.1234 C   0  0  0  0  0  0  0  0  0  0  0  0
  -30.1466  -27.3838   21.6322 C   0  0  0  0  0  0  0  0  0  0  0  0
  -30.9196  -25.8058   20.1687 C   0  0  0  0  0  0  0  0  0  0  0  0
  -29.9592  -28.2613   20.5871 C   0  0  0  0  0  0  0  0  0  0  0  0
  -29.5767  -15.1751   22.5786 C   0  0  0  0  0  0  0  0  0  0  0  0
  -29.5211  -12.7221   22.1009 C   0  0  0  0  0  0  0  0  0  0  0  0
  -22.6463  -28.6597   22.2822 C   0  0  0  0  0  0  0  0  0  0  0  0
  -23.0625  -25.5540   21.4434 C   0  0  0  0  0  0  0  0  0  0  0  0
  -24.9926  -23.2056   19.8920 C   0  0  0  0  0  0  0  0  0  0  0  0
  -28.7152  -20.8694   21.2791 C   0  0  0  0  0  0  0  0  0  0  0  0
  -18.3652  -29.7479   24.8406 C   0  0  0  0  0  0  0  0  0  0  0  0
  -23.1015  -28.8625   19.8108 C   0  0  0  0  0  0  0  0  0  0  0  0
  -25.0490  -27.0801   21.1430 C   0  0  0  0  0  0  0  0  0  0  0  0
  -19.3143  -28.5552   24.7578 C   0  0  0  0  0  0  0  0  0  0  0  0
  -28.6830  -19.4223   24.5961 C   0  0  0  0  0  0  0  0  0  0  0  0
  -20.7614  -29.0129   24.9099 C   0  0  0  0  0  0  0  0  0  0  0  0
  -28.5362  -17.9334   24.2770 C   0  0  0  0  0  0  0  0  0  0  0  0
  -27.8688  -20.2777   23.6299 C   0  0  0  0  0  0  0  0  0  0  0  0
  -28.0344  -18.5607   21.8698 C   0  0  0  0  0  0  0  0  0  0  0  0
  -21.1577  -29.9733   23.7820 C   0  0  1  0  0  0  0  0  0  0  0  0
  -22.6955  -27.9460   20.9609 C   0  0  1  0  0  0  0  0  0  0  0  0
  -28.8519  -17.6436   22.7976 C   0  0  2  0  0  0  0  0  0  0  0  0
  -31.0546  -26.3003   17.7196 C   0  0  0  0  0  0  0  0  0  0  0  0
  -29.8233  -27.7660   23.0361 C   0  0  0  0  0  0  0  0  0  0  0  0
  -30.5266  -30.6716   21.0474 C   0  0  0  0  0  0  0  0  0  0  0  0
  -25.0913  -20.7459   19.4046 C   0  0  0  0  0  0  0  0  0  0  0  0
  -23.9102  -25.0194   24.3253 C   0  0  0  0  0  0  0  0  0  0  0  0
  -24.8823  -22.8421   23.5620 C   0  0  0  0  0  0  0  0  0  0  0  0
  -22.4346  -23.2631   23.3291 C   0  0  0  0  0  0  0  0  0  0  0  0
  -24.9359  -23.6646   16.9688 C   0  0  0  0  0  0  0  0  0  0  0  0
  -31.4554  -24.4331   19.9444 C   0  0  0  0  0  0  0  0  0  0  0  0
  -30.8799  -23.3601   20.8904 C   0  0  0  0  0  0  0  0  0  0  0  0
  -29.3598  -23.2240   20.8351 C   0  0  0  0  0  0  0  0  0  0  0  0
  -29.4171  -29.6539   20.8149 C   0  0  1  0  0  0  0  0  0  1  0  0
  -24.0506  -24.4718   21.8061 C   0  0  1  0  0  0  0  0  0  0  0  0
  -24.6438  -22.1095   18.9014 C   0  0  2  0  0  0  0  0  0  0  0  0
  -23.8279  -23.9236   23.2439 C   0  0  0  0  0  0  0  0  0  0  0  0
  -27.4699  -15.7705   21.9829 N   0  0  0  0  0  0  0  0  0  0  0  0
  -30.6302  -26.1403   21.4418 N   0  0  0  0  0  0  0  0  0  0  0  0
  -30.2483  -27.9267   19.3139 N   0  0  0  0  0  0  0  0  0  0  0  0
  -28.6593  -16.1772   22.4584 N   0  0  0  0  0  0  0  0  0  0  0  0
  -23.6023  -26.8079   21.1238 N   0  0  0  0  0  0  0  0  0  0  0  0
  -28.2305  -19.9663   22.2398 N   0  0  0  0  0  0  0  0  0  0  0  0
  -30.8232  -15.4097   23.0407 N   0  0  0  0  0  0  0  0  0  0  0  0
  -28.7310  -11.6615   21.6371 N   0  0  0  0  0  0  0  0  0  0  0  0
  -21.4238  -29.2394   22.5634 N   0  0  0  0  0  0  0  0  0  0  0  0
  -23.9513  -23.4608   20.7591 N   0  0  0  0  0  0  0  0  0  0  0  0
  -28.8658  -22.1824   21.7080 N   0  0  0  0  0  0  0  0  0  0  0  0
  -25.3043  -22.3666   17.5905 N   0  3  0  0  0  0  0  0  0  0  0  0
  -30.6979  -12.4948   22.4712 O   0  0  0  0  0  0  0  0  0  0  0  0
  -23.6431  -28.6815   22.9946 O   0  0  0  0  0  0  0  0  0  0  0  0
  -21.8566  -25.2943   21.4367 O   0  0  0  0  0  0  0  0  0  0  0  0
  -26.0814  -23.7758   19.8985 O   0  0  0  0  0  0  0  0  0  0  0  0
  -28.9984  -20.5295   20.1253 O   0  0  0  0  0  0  0  0  0  0  0  0
  -23.4813  -11.3093   19.8062 O   0  0  0  0  0  0  0  0  0  0  0  0
  -28.6319  -30.0852   19.7041 O   0  0  0  0  0  0  0  0  0  1  0  0
  -22.5222   -6.4698   22.2686 F   0  0  0  0  0  0  0  0  0  0  0  0
  -21.0336  -10.7725   20.9739 F   0  0  0  0  0  0  0  0  0  0  0  0
  1  2  1  0  0  0  0
  1  5  2  0  0  0  0
  2  6  2  0  0  0  0
  3  8  2  0  0  0  0
  3 15  1  0  0  0  0
  4  9  1  0  0  0  0
  4 15  2  0  0  0  0
  5 17  1  0  0  0  0
  6 19  1  0  0  0  0
  7 10  2  0  0  0  0
  7 18  1  0  0  0  0
  8 21  1  0  0  0  0
  9 21  2  0  0  0  0
 10 22  1  0  0  0  0
 11 12  2  0  0  0  0
 11 23  1  0  0  0  0
 12 24  1  0  0  0  0
 13 20  1  0  0  0  0
 13 22  2  0  0  0  0
 14 24  2  0  0  0  0
 14 25  1  0  0  0  0
 15 26  1  0  0  0  0
 16 26  1  0  0  0  0
 16 31  2  0  0  0  0
 16 32  1  0  0  0  0
 17 19  2  0  0  0  0
 17 37  1  0  0  0  0
 18 20  2  0  0  0  0
 18 38  1  0  0  0  0
 19 46  1  0  0  0  0
 20 39  1  0  0  0  0
 21 81  1  0  0  0  0
 22 82  1  0  0  0  0
 23 25  2  0  0  0  0
 23 81  1  0  0  0  0
 24 83  1  0  0  0  0
 25 84  1  0  0  0  0
 26 64  2  0  0  0  0
 27 29  1  0  0  0  0
 27 49  1  0  0  0  0
 27 66  2  0  0  0  0
 28 30  2  0  0  0  0
 28 50  1  0  0  0  0
 28 65  1  0  0  0  0
 29 57  1  0  0  0  0
 29 65  2  0  0  0  0
 30 60  1  0  0  0  0
 30 66  1  0  0  0  0
 31 67  1  0  0  0  0
 31 70  1  0  0  0  0
 32 71  1  0  0  0  0
 32 76  2  0  0  0  0
 33 47  1  0  0  0  0
 33 72  1  0  0  0  0
 33 77  2  0  0  0  0
 34 61  1  0  0  0  0
 34 68  1  0  0  0  0
 34 78  2  0  0  0  0
 35 62  1  0  0  0  0
 35 73  1  0  0  0  0
 35 79  2  0  0  0  0
 36 69  1  0  0  0  0
 36 74  1  0  0  0  0
 36 80  2  0  0  0  0
 37 40  1  0  0  0  0
 38 47  1  0  0  0  0
 39 68  1  0  0  0  0
 40 42  1  0  0  0  0
 41 43  1  0  0  0  0
 41 44  1  0  0  0  0
 42 46  1  0  0  0  0
 43 48  1  0  0  0  0
 44 69  1  0  0  0  0
 45 48  1  0  0  0  0
 45 69  1  0  0  0  0
 46 72  1  0  0  0  0
 47 68  1  0  0  0  0
 48 67  1  0  0  0  0
 51 60  1  0  0  0  0
 52 62  1  0  0  0  0
 53 63  1  0  0  0  0
 54 63  1  0  0  0  0
 55 63  1  0  0  0  0
 56 75  1  0  0  0  0
 57 58  1  0  0  0  0
 58 59  1  0  0  0  0
 59 74  1  0  0  0  0
 60 82  1  0  0  0  0
 61 63  1  0  0  0  0
 61 73  1  0  0  0  0
 62 75  1  0  0  0  0
 64 67  1  0  0  0  0
M  CHG  1  75   1
M  ISO  4  36 100  60 101  74 100  82 101
M  END
> <Batch ID>
0044

> <Smiles>
CNC(C)C(=O)NC(C(=O)N1Cc2cc([101O:1][101CH:1](C)c3nc(C)c(CCC[100NH:0][100C:0](=O)N4CCCC(n5nc(-c6ccc(Oc7ccc(F)cc7F)cc6)c(C(N)=O)c5N)C4)nc3C)ccc2CC1C(=O)NC1CCCc2ccccc21)C(C)(C)C

> <Shape>
0.240

> <Color>
0.090

> <Negative vol penalty>
0.000

$$$$

  -OEChem-04052317173D

 82 90  0     1  0  0  0  0  0999 V2000
  -31.2336  -23.7146   16.4986 C   0  0  0  0  0  0  0  0  0  0  0  0
  -29.8639  -23.9586   16.5033 C   0  0  0  0  0  0  0  0  0  0  0  0
  -26.4015  -13.2298   19.1770 C   0  0  0  0  0  0  0  0  0  0  0  0
  -24.3866  -13.7788   20.3919 C   0  0  0  0  0  0  0  0  0  0  0  0
  -31.9588  -23.7950   17.6867 C   0  0  0  0  0  0  0  0  0  0  0  0
  -29.2185  -24.2821   17.6963 C   0  0  0  0  0  0  0  0  0  0  0  0
  -24.4851  -28.1033   18.4026 C   0  0  0  0  0  0  0  0  0  0  0  0
  -26.4276  -11.9757   19.7870 C   0  0  0  0  0  0  0  0  0  0  0  0
  -24.4127  -12.5246   21.0019 C   0  0  0  0  0  0  0  0  0  0  0  0
  -23.1133  -27.8851   18.5226 C   0  0  0  0  0  0  0  0  0  0  0  0
  -23.5946   -9.3466   20.1948 C   0  0  0  0  0  0  0  0  0  0  0  0
  -22.3961   -8.6365   20.2646 C   0  0  0  0  0  0  0  0  0  0  0  0
  -23.3144  -27.9805   20.9246 C   0  0  0  0  0  0  0  0  0  0  0  0
  -22.5460   -8.6205   22.6759 C   0  0  0  0  0  0  0  0  0  0  0  0
  -22.2803  -22.7593   19.7665 C   0  0  0  0  0  0  0  0  0  0  0  0
  -20.5212  -23.1750   21.0186 C   0  0  0  0  0  0  0  0  0  0  0  0
  -25.3810  -14.1314   19.4795 C   0  0  0  0  0  0  0  0  0  0  0  0
  -24.7190  -15.7723   17.6419 C   0  0  0  0  0  0  0  0  0  0  0  0
  -31.3237  -24.1291   18.8932 C   0  0  0  0  0  0  0  0  0  0  0  0
  -25.2849  -28.2511   19.5449 C   0  0  0  0  0  0  0  0  0  0  0  0
  -29.9357  -24.3657   18.9018 C   0  0  0  0  0  0  0  0  0  0  0  0
  -24.6957  -28.2030   20.8163 C   0  0  0  0  0  0  0  0  0  0  0  0
  -21.6028  -22.3337   20.9248 C   0  0  0  0  0  0  0  0  0  0  0  0
  -25.4332  -11.6231   20.6994 C   0  0  0  0  0  0  0  0  0  0  0  0
  -22.5282  -27.8209   19.7838 C   0  0  0  0  0  0  0  0  0  0  0  0
  -24.2689   -9.6936   21.3656 C   0  0  0  0  0  0  0  0  0  0  0  0
  -21.8718   -8.2734   21.5051 C   0  0  0  0  0  0  0  0  0  0  0  0
  -23.7446   -9.3306   22.6061 C   0  0  0  0  0  0  0  0  0  0  0  0
  -25.3538  -15.4272   18.8502 C   0  0  0  0  0  0  0  0  0  0  0  0
  -24.9868  -17.1101   17.4833 C   0  0  0  0  0  0  0  0  0  0  0  0
  -23.9556  -14.9566   16.7434 C   0  0  0  0  0  0  0  0  0  0  0  0
  -27.7320  -26.6510   20.7922 C   0  0  0  0  0  0  0  0  0  0  0  0
  -27.7734  -29.1229   22.8923 C   0  0  0  0  0  0  0  0  0  0  0  0
  -26.0702  -31.6541   24.4217 C   0  0  0  0  0  0  0  0  0  0  0  0
  -26.2926  -21.4933   21.3476 C   0  0  0  0  0  0  0  0  0  0  0  0
  -32.1411  -24.1576   20.1603 C   0  0  0  0  0  0  0  0  0  0  0  0
  -26.7589  -28.5124   19.3978 C   0  0  0  0  0  0  0  0  0  0  0  0
  -25.5070  -28.3757   22.0734 C   0  0  0  0  0  0  0  0  0  0  0  0
  -31.4476  -24.8733   21.3166 C   0  0  0  0  0  0  0  0  0  0  0  0
  -28.2552  -20.4296   18.5739 C   0  0  0  0  0  0  0  0  0  0  0  0
  -29.9995  -24.4102   21.4395 C   0  0  0  0  0  0  0  0  0  0  0  0
  -27.6769  -19.0581   18.2211 C   0  0  0  0  0  0  0  0  0  0  0  0
  -28.2567  -20.6706   20.0818 C   0  0  0  0  0  0  0  0  0  0  0  0
  -26.3717  -19.1126   20.3873 C   0  0  0  0  0  0  0  0  0  0  0  0
  -29.2041  -24.7436   20.1715 C   0  0  1  0  0  0  0  0  0  0  0  0
  -27.5594  -28.1360   20.6407 C   0  0  1  0  0  0  0  0  0  0  0  0
  -26.2977  -18.8463   18.8741 C   0  0  2  0  0  0  0  0  0  0  0  0
  -26.3603  -33.4800   26.1185 C   0  0  0  0  0  0  0  0  0  0  0  0
  -27.6436  -27.0570   25.1339 C   0  0  0  0  0  0  0  0  0  0  0  0
  -26.9846  -28.8978   26.6978 C   0  0  0  0  0  0  0  0  0  0  0  0
  -29.2044  -28.9637   25.5616 C   0  0  0  0  0  0  0  0  0  0  0  0
  -25.4474  -33.7578   22.4354 C   0  0  0  0  0  0  0  0  0  0  0  0
  -21.9675  -21.2334   21.8313 C   0  0  0  0  0  0  0  0  0  0  0  0
  -22.8901  -21.6315   23.0113 C   0  0  0  0  0  0  0  0  0  0  0  0
  -19.4696  -26.1547   20.7331 C   0  0  0  0  0  0  0  0  0  0  0  0
  -19.6561  -25.1338   19.6084 C   0  0  0  0  0  0  0  0  0  0  0  0
  -24.2500  -22.1767   22.5803 C   0  0  0  0  0  0  0  0  0  0  0  0
  -20.7437  -26.9196   21.0719 C   0  0  0  0  0  0  0  0  0  1  0  0
  -27.1103  -29.4111   24.2175 C   0  0  1  0  0  0  0  0  0  0  0  0
  -26.4211  -33.1142   24.6437 C   0  0  2  0  0  0  0  0  0  0  0  0
  -27.7205  -28.5772   25.3793 C   0  0  0  0  0  0  0  0  0  0  0  0
  -21.6794  -23.7908   19.1674 N   0  0  0  0  0  0  0  0  0  0  0  0
  -25.9779  -16.4623   19.4186 N   0  0  0  0  0  0  0  0  0  0  0  0
  -20.6129  -24.0203   19.9521 N   0  0  0  0  0  0  0  0  0  0  0  0
  -25.7368  -17.4708   18.5638 N   0  0  0  0  0  0  0  0  0  0  0  0
  -26.9451  -28.6228   21.8776 N   0  0  0  0  0  0  0  0  0  0  0  0
  -26.9191  -20.4549   20.6389 N   0  0  0  0  0  0  0  0  0  0  0  0
  -24.6517  -18.0012   16.5262 N   0  0  0  0  0  0  0  0  0  0  0  0
  -23.7773  -13.6025   17.0580 N   0  0  0  0  0  0  0  0  0  0  0  0
  -28.8480  -26.1462   20.1525 N   0  0  0  0  0  0  0  0  0  0  0  0
  -27.1937  -30.8548   24.4103 N   0  0  0  0  0  0  0  0  0  0  0  0
  -25.0238  -21.2078   21.8367 N   0  0  0  0  0  0  0  0  0  0  0  0
  -25.4734  -33.9933   23.9020 N   0  3  0  0  0  0  0  0  0  0  0  0
  -23.4604  -15.4111   15.6843 O   0  0  0  0  0  0  0  0  0  0  0  0
  -26.9140  -26.0110   21.4425 O   0  0  0  0  0  0  0  0  0  0  0  0
  -28.9804  -29.3405   22.7600 O   0  0  0  0  0  0  0  0  0  0  0  0
  -24.9147  -31.2613   24.2769 O   0  0  0  0  0  0  0  0  0  0  0  0
  -26.8225  -22.5953   21.5263 O   0  0  0  0  0  0  0  0  0  0  0  0
  -25.4583  -10.3993   21.2946 O   0  0  0  0  0  0  0  0  0  0  0  0
  -21.1896  -27.6074   19.9038 O   0  0  0  0  0  0  0  0  0  1  0  0
  -20.7200   -7.5929   21.5720 F   0  0  0  0  0  0  0  0  0  0  0  0
  -24.3872   -9.6622   23.7343 F   0  0  0  0  0  0  0  0  0  0  0  0
  1  2  1  0  0  0  0
  1  5  2  0  0  0  0
  2  6  2  0  0  0  0
  3  8  2  0  0  0  0
  3 17  1  0  0  0  0
  4  9  1  0  0  0  0
  4 17  2  0  0  0  0
  5 19  1  0  0  0  0
  6 21  1  0  0  0  0
  7 10  2  0  0  0  0
  7 20  1  0  0  0  0
  8 24  1  0  0  0  0
  9 24  2  0  0  0  0
 10 25  1  0  0  0  0
 11 12  2  0  0  0  0
 11 26  1  0  0  0  0
 12 27  1  0  0  0  0
 13 22  1  0  0  0  0
 13 25  2  0  0  0  0
 14 27  2  0  0  0  0
 14 28  1  0  0  0  0
 15 23  1  0  0  0  0
 15 62  2  0  0  0  0
 16 23  2  0  0  0  0
 16 64  1  0  0  0  0
 17 29  1  0  0  0  0
 18 29  1  0  0  0  0
 18 30  2  0  0  0  0
 18 31  1  0  0  0  0
 19 21  2  0  0  0  0
 19 36  1  0  0  0  0
 20 22  2  0  0  0  0
 20 37  1  0  0  0  0
 21 45  1  0  0  0  0
 22 38  1  0  0  0  0
 23 53  1  0  0  0  0
 24 79  1  0  0  0  0
 25 80  1  0  0  0  0
 26 28  2  0  0  0  0
 26 79  1  0  0  0  0
 27 81  1  0  0  0  0
 28 82  1  0  0  0  0
 29 63  2  0  0  0  0
 30 65  1  0  0  0  0
 30 68  1  0  0  0  0
 31 69  1  0  0  0  0
 31 74  2  0  0  0  0
 32 46  1  0  0  0  0
 32 70  1  0  0  0  0
 32 75  2  0  0  0  0
 33 59  1  0  0  0  0
 33 66  1  0  0  0  0
 33 76  2  0  0  0  0
 34 60  1  0  0  0  0
 34 71  1  0  0  0  0
 34 77  2  0  0  0  0
 35 67  1  0  0  0  0
 35 72  1  0  0  0  0
 35 78  2  0  0  0  0
 36 39  1  0  0  0  0
 37 46  1  0  0  0  0
 38 66  1  0  0  0  0
 39 41  1  0  0  0  0
 40 42  1  0  0  0  0
 40 43  1  0  0  0  0
 41 45  1  0  0  0  0
 42 47  1  0  0  0  0
 43 67  1  0  0  0  0
 44 47  1  0  0  0  0
 44 67  1  0  0  0  0
 45 70  1  0  0  0  0
 46 66  1  0  0  0  0
 47 65  1  0  0  0  0
 48 60  1  0  0  0  0
 49 61  1  0  0  0  0
 50 61  1  0  0  0  0
 51 61  1  0  0  0  0
 52 73  1  0  0  0  0
 53 54  1  0  0  0  0
 54 57  1  0  0  0  0
 55 56  1  0  0  0  0
 55 58  1  0  0  0  0
 56 64  1  0  0  0  0
 57 72  1  0  0  0  0
 58 80  1  0  0  0  0
 59 61  1  0  0  0  0
 59 71  1  0  0  0  0
 60 73  1  0  0  0  0
 62 64  1  0  0  0  0
 63 65  1  0  0  0  0
M  CHG  1  73   1
M  ISO  4  35 100  58 101  72 100  80 101
M  END
> <Batch ID>
0044

> <Smiles>
CNC(C)C(=O)NC(C(=O)N1Cc2cc([101O:1][101CH2:1]CCn3cc(CCC[100NH:0][100C:0](=O)N4CCCC(n5nc(-c6ccc(Oc7ccc(F)cc7F)cc6)c(C(N)=O)c5N)C4)cn3)ccc2CC1C(=O)NC1CCCc2ccccc21)C(C)(C)C

> <Shape>
0.238

> <Color>
0.065

> <Negative vol penalty>
0.000

$$$$

  -OEChem-04052317173D

 83 91  0     1  0  0  0  0  0999 V2000
  -33.3182  -26.2639   20.7153 C   0  0  0  0  0  0  0  0  0  0  0  0
  -32.2586  -25.3677   20.8132 C   0  0  0  0  0  0  0  0  0  0  0  0
  -23.0637   -9.9284   19.8985 C   0  0  0  0  0  0  0  0  0  0  0  0
  -23.9231   -9.7864   22.1520 C   0  0  0  0  0  0  0  0  0  0  0  0
  -33.2274  -27.5175   21.3187 C   0  0  0  0  0  0  0  0  0  0  0  0
  -31.1079  -25.7243   21.5155 C   0  0  0  0  0  0  0  0  0  0  0  0
  -26.8631  -24.4969   19.0416 C   0  0  0  0  0  0  0  0  0  0  0  0
  -22.3492   -8.7469   20.0965 C   0  0  0  0  0  0  0  0  0  0  0  0
  -23.2086   -8.6049   22.3500 C   0  0  0  0  0  0  0  0  0  0  0  0
  -26.4657  -23.1612   19.0829 C   0  0  0  0  0  0  0  0  0  0  0  0
  -20.0225   -7.7071   23.0306 C   0  0  0  0  0  0  0  0  0  0  0  0
  -19.3182   -7.5701   24.2268 C   0  0  0  0  0  0  0  0  0  0  0  0
  -24.8662  -23.6968   20.8074 C   0  0  0  0  0  0  0  0  0  0  0  0
  -26.8849  -18.8712   20.0180 C   0  0  0  0  0  0  0  0  0  0  0  0
  -20.6202   -5.6084   24.7687 C   0  0  0  0  0  0  0  0  0  0  0  0
  -28.3101  -18.7429   22.3414 C   0  0  0  0  0  0  0  0  0  0  0  0
  -23.8507  -10.4481   20.9263 C   0  0  0  0  0  0  0  0  0  0  0  0
  -24.1483  -12.9813   20.9734 C   0  0  0  0  0  0  0  0  0  0  0  0
  -32.0712  -27.8933   22.0206 C   0  0  0  0  0  0  0  0  0  0  0  0
  -26.2717  -25.4421   19.8920 C   0  0  0  0  0  0  0  0  0  0  0  0
  -31.0021  -26.9836   22.1300 C   0  0  0  0  0  0  0  0  0  0  0  0
  -25.2561  -25.0443   20.7732 C   0  0  0  0  0  0  0  0  0  0  0  0
  -28.2377  -18.5533   19.9717 C   0  0  0  0  0  0  0  0  0  0  0  0
  -28.9711  -18.4858   21.1510 C   0  0  0  0  0  0  0  0  0  0  0  0
  -22.4216   -8.0852   21.3222 C   0  0  0  0  0  0  0  0  0  0  0  0
  -25.4691  -22.7604   19.9679 C   0  0  0  0  0  0  0  0  0  0  0  0
  -21.0255   -6.7946   22.7034 C   0  0  0  0  0  0  0  0  0  0  0  0
  -19.6170   -6.5208   25.0958 C   0  0  0  0  0  0  0  0  0  0  0  0
  -21.3244   -5.7453   23.5725 C   0  0  0  0  0  0  0  0  0  0  0  0
  -24.5895  -11.6683   20.7222 C   0  0  0  0  0  0  0  0  0  0  0  0
  -26.3173  -19.1108   21.2590 C   0  0  0  0  0  0  0  0  0  0  0  0
  -25.2119  -13.7746   20.6187 C   0  0  0  0  0  0  0  0  0  0  0  0
  -22.8896  -13.4426   21.4820 C   0  0  0  0  0  0  0  0  0  0  0  0
  -27.3253  -27.3402   22.2139 C   0  0  0  0  0  0  0  0  0  0  0  0
  -24.2962  -28.4960   22.1121 C   0  0  0  0  0  0  0  0  0  0  0  0
  -21.0209  -27.9725   21.3086 C   0  0  0  0  0  0  0  0  0  0  0  0
  -30.6824  -14.8784   20.6461 C   0  0  0  0  0  0  0  0  0  0  0  0
  -32.0382  -29.2413   22.6962 C   0  0  0  0  0  0  0  0  0  0  0  0
  -26.6930  -26.8841   19.8164 C   0  0  0  0  0  0  0  0  0  0  0  0
  -24.5754  -26.0239   21.6927 C   0  0  0  0  0  0  0  0  0  0  0  0
  -30.6353  -29.6838   23.1043 C   0  0  0  0  0  0  0  0  0  0  0  0
  -29.4780  -12.6490   18.1449 C   0  0  0  0  0  0  0  0  0  0  0  0
  -29.8974  -28.5444   23.8001 C   0  0  0  0  0  0  0  0  0  0  0  0
  -28.0656  -12.2989   18.6164 C   0  0  0  0  0  0  0  0  0  0  0  0
  -30.4434  -12.8007   19.3184 C   0  0  0  0  0  0  0  0  0  0  0  0
  -28.5932  -13.3963   20.8336 C   0  0  0  0  0  0  0  0  0  0  0  0
  -29.7275  -27.3432   22.8623 C   0  0  1  0  0  0  0  0  0  0  0  0
  -26.3827  -27.6648   21.0898 C   0  0  1  0  0  0  0  0  0  0  0  0
  -27.5712  -13.2880   19.6890 C   0  0  2  0  0  0  0  0  0  0  0  0
  -29.7161  -19.4698   18.1659 C   0  0  0  0  0  0  0  0  0  0  0  0
  -18.7736  -29.0870   21.3763 C   0  0  0  0  0  0  0  0  0  0  0  0
  -24.1269  -27.9670   25.1123 C   0  0  0  0  0  0  0  0  0  0  0  0
  -21.6388  -28.1854   24.9399 C   0  0  0  0  0  0  0  0  0  0  0  0
  -23.1015  -30.1252   24.3741 C   0  0  0  0  0  0  0  0  0  0  0  0
  -20.7410  -27.8472   18.3650 C   0  0  0  0  0  0  0  0  0  0  0  0
  -28.8794  -18.2891   18.6499 C   0  0  0  0  0  0  0  0  0  0  0  0
  -30.4221  -18.1504   21.1587 C   0  0  0  0  0  0  0  0  0  0  0  0
  -24.8513  -19.4591   21.3478 C   0  0  0  0  0  0  0  0  0  0  0  0
  -30.7694  -16.9365   22.0302 C   0  0  0  0  0  0  0  0  0  0  0  0
  -24.6061  -20.9616   21.2623 C   0  0  0  0  0  0  0  0  0  1  0  0
  -22.9966  -28.1509   22.7983 C   0  0  1  0  0  0  0  0  0  0  0  0
  -20.0217  -28.8252   20.5478 C   0  0  2  0  0  0  0  0  0  0  0  0
  -22.9799  -28.5881   24.2903 C   0  0  0  0  0  0  0  0  0  0  0  0
  -26.9974  -19.0547   22.4260 N   0  0  0  0  0  0  0  0  0  0  0  0
  -25.8361  -11.6257   20.2446 N   0  0  0  0  0  0  0  0  0  0  0  0
  -26.1874  -12.9218   20.1928 N   0  0  0  0  0  0  0  0  0  0  0  0
  -25.0266  -27.4212   21.5858 N   0  0  0  0  0  0  0  0  0  0  0  0
  -29.9164  -13.7534   20.2986 N   0  0  0  0  0  0  0  0  0  0  0  0
  -25.3985  -15.1116   20.6325 N   0  0  0  0  0  0  0  0  0  0  0  0
  -21.9075  -12.4933   21.7959 N   0  0  0  0  0  0  0  0  0  0  0  0
  -28.6539  -27.5838   21.9222 N   0  0  0  0  0  0  0  0  0  0  0  0
  -21.9376  -28.7451   21.9897 N   0  0  0  0  0  0  0  0  0  0  0  0
  -30.1065  -15.7338   21.5774 N   0  0  0  0  0  0  0  0  0  0  0  0
  -19.6141  -28.1444   19.2863 N   0  3  0  0  0  0  0  0  0  0  0  0
  -22.6373  -14.6615   21.6375 O   0  0  0  0  0  0  0  0  0  0  0  0
  -26.8802  -26.9025   23.2684 O   0  0  0  0  0  0  0  0  0  0  0  0
  -24.6466  -29.6765   22.0391 O   0  0  0  0  0  0  0  0  0  0  0  0
  -20.9890  -26.7439   21.3024 O   0  0  0  0  0  0  0  0  0  0  0  0
  -31.7946  -15.1065   20.1583 O   0  0  0  0  0  0  0  0  0  0  0  0
  -21.7244   -6.9324   21.5158 O   0  0  0  0  0  0  0  0  0  0  0  0
  -25.0797  -21.4572   20.0108 O   0  0  0  0  0  0  0  0  0  1  0  0
  -18.9417   -6.3903   26.2452 F   0  0  0  0  0  0  0  0  0  0  0  0
  -22.2878   -4.8663   23.2642 F   0  0  0  0  0  0  0  0  0  0  0  0
  1  2  1  0  0  0  0
  1  5  2  0  0  0  0
  2  6  2  0  0  0  0
  3  8  2  0  0  0  0
  3 17  1  0  0  0  0
  4  9  1  0  0  0  0
  4 17  2  0  0  0  0
  5 19  1  0  0  0  0
  6 21  1  0  0  0  0
  7 10  2  0  0  0  0
  7 20  1  0  0  0  0
  8 25  1  0  0  0  0
  9 25  2  0  0  0  0
 10 26  1  0  0  0  0
 11 12  2  0  0  0  0
 11 27  1  0  0  0  0
 12 28  1  0  0  0  0
 13 22  1  0  0  0  0
 13 26  2  0  0  0  0
 14 23  1  0  0  0  0
 14 31  2  0  0  0  0
 15 28  2  0  0  0  0
 15 29  1  0  0  0  0
 16 24  1  0  0  0  0
 16 64  2  0  0  0  0
 17 30  1  0  0  0  0
 18 30  1  0  0  0  0
 18 32  2  0  0  0  0
 18 33  1  0  0  0  0
 19 21  2  0  0  0  0
 19 38  1  0  0  0  0
 20 22  2  0  0  0  0
 20 39  1  0  0  0  0
 21 47  1  0  0  0  0
 22 40  1  0  0  0  0
 23 24  2  0  0  0  0
 23 56  1  0  0  0  0
 24 57  1  0  0  0  0
 25 80  1  0  0  0  0
 26 81  1  0  0  0  0
 27 29  2  0  0  0  0
 27 80  1  0  0  0  0
 28 82  1  0  0  0  0
 29 83  1  0  0  0  0
 30 65  2  0  0  0  0
 31 58  1  0  0  0  0
 31 64  1  0  0  0  0
 32 66  1  0  0  0  0
 32 69  1  0  0  0  0
 33 70  1  0  0  0  0
 33 75  2  0  0  0  0
 34 48  1  0  0  0  0
 34 71  1  0  0  0  0
 34 76  2  0  0  0  0
 35 61  1  0  0  0  0
 35 67  1  0  0  0  0
 35 77  2  0  0  0  0
 36 62  1  0  0  0  0
 36 72  1  0  0  0  0
 36 78  2  0  0  0  0
 37 68  1  0  0  0  0
 37 73  1  0  0  0  0
 37 79  2  0  0  0  0
 38 41  1  0  0  0  0
 39 48  1  0  0  0  0
 40 67  1  0  0  0  0
 41 43  1  0  0  0  0
 42 44  1  0  0  0  0
 42 45  1  0  0  0  0
 43 47  1  0  0  0  0
 44 49  1  0  0  0  0
 45 68  1  0  0  0  0
 46 49  1  0  0  0  0
 46 68  1  0  0  0  0
 47 71  1  0  0  0  0
 48 67  1  0  0  0  0
 49 66  1  0  0  0  0
 50 56  1  0  0  0  0
 51 62  1  0  0  0  0
 52 63  1  0  0  0  0
 53 63  1  0  0  0  0
 54 63  1  0  0  0  0
 55 74  1  0  0  0  0
 57 59  1  0  0  0  0
 58 60  1  0  0  0  0
 59 73  1  0  0  0  0
 60 81  1  0  0  0  0
 61 63  1  0  0  0  0
 61 72  1  0  0  0  0
 62 74  1  0  0  0  0
 65 66  1  0  0  0  0
M  CHG  1  74   1
M  ISO  4  37 100  60 101  73 100  81 101
M  END
> <Batch ID>
0044

> <Smiles>
CCc1cc(C[101CH2:1][101O:1]c2ccc3c(c2)CN(C(=O)C(NC(=O)C(C)NC)C(C)(C)C)C(C(=O)NC2CCCc4ccccc42)C3)ncc1CC[100NH:0][100C:0](=O)N1CCCC(n2nc(-c3ccc(Oc4ccc(F)cc4F)cc3)c(C(N)=O)c2N)C1

> <Shape>
0.283

> <Color>
0.197

> <Negative vol penalty>
0.000

$$$$

  -OEChem-04052317173D

 81 89  0     1  0  0  0  0  0999 V2000
  -27.6520  -11.0773   22.7493 C   0  0  0  0  0  0  0  0  0  0  0  0
  -28.1378  -12.3649   22.5517 C   0  0  0  0  0  0  0  0  0  0  0  0
  -22.5160  -29.8027   21.2862 C   0  0  0  0  0  0  0  0  0  0  0  0
  -23.7756  -28.8851   23.1325 C   0  0  0  0  0  0  0  0  0  0  0  0
  -26.4701  -10.6795   22.1278 C   0  0  0  0  0  0  0  0  0  0  0  0
  -27.4359  -13.2588   21.7424 C   0  0  0  0  0  0  0  0  0  0  0  0
  -28.8186  -18.9219   19.9689 C   0  0  0  0  0  0  0  0  0  0  0  0
  -21.4378  -30.0386   22.1391 C   0  0  0  0  0  0  0  0  0  0  0  0
  -22.6974  -29.1211   23.9854 C   0  0  0  0  0  0  0  0  0  0  0  0
  -29.4660  -19.5355   18.8974 C   0  0  0  0  0  0  0  0  0  0  0  0
  -18.2219  -30.5521   23.7572 C   0  0  0  0  0  0  0  0  0  0  0  0
  -16.9489  -30.2008   23.3082 C   0  0  0  0  0  0  0  0  0  0  0  0
  -27.3340  -19.9170   17.8354 C   0  0  0  0  0  0  0  0  0  0  0  0
  -17.6590  -27.9015   23.0940 C   0  0  0  0  0  0  0  0  0  0  0  0
  -30.6348  -23.3829   15.5778 C   0  0  0  0  0  0  0  0  0  0  0  0
  -29.1279  -24.8316   14.8802 C   0  0  0  0  0  0  0  0  0  0  0  0
  -23.6849  -29.2259   21.7829 C   0  0  0  0  0  0  0  0  0  0  0  0
  -25.8619  -29.8576   20.6127 C   0  0  0  0  0  0  0  0  0  0  0  0
  -25.7605  -11.5656   21.3007 C   0  0  0  0  0  0  0  0  0  0  0  0
  -27.4224  -18.7913   19.9766 C   0  0  0  0  0  0  0  0  0  0  0  0
  -26.2286  -12.8838   21.1257 C   0  0  0  0  0  0  0  0  0  0  0  0
  -26.6710  -19.3037   18.9094 C   0  0  0  0  0  0  0  0  0  0  0  0
  -21.5285  -29.6979   23.4887 C   0  0  0  0  0  0  0  0  0  0  0  0
  -28.7240  -20.0306   17.8291 C   0  0  0  0  0  0  0  0  0  0  0  0
  -19.2135  -29.5781   23.8746 C   0  0  0  0  0  0  0  0  0  0  0  0
  -16.6674  -28.8755   22.9766 C   0  0  0  0  0  0  0  0  0  0  0  0
  -18.9320  -28.2528   23.5429 C   0  0  0  0  0  0  0  0  0  0  0  0
  -24.7988  -28.9813   20.9023 C   0  0  0  0  0  0  0  0  0  0  0  0
  -29.6567  -22.7705   14.8303 C   0  0  0  0  0  0  0  0  0  0  0  0
  -26.6502  -29.1610   19.7297 C   0  0  0  0  0  0  0  0  0  0  0  0
  -26.1142  -31.1827   21.0986 C   0  0  0  0  0  0  0  0  0  0  0  0
  -25.3989  -16.3402   20.0177 C   0  0  0  0  0  0  0  0  0  0  0  0
  -23.1780  -18.6827   20.3382 C   0  0  0  0  0  0  0  0  0  0  0  0
  -22.3260  -21.9524   19.8593 C   0  0  0  0  0  0  0  0  0  0  0  0
  -29.1686  -24.1873   18.6174 C   0  0  0  0  0  0  0  0  0  0  0  0
  -24.4828  -11.0852   20.6590 C   0  0  0  0  0  0  0  0  0  0  0  0
  -26.7371  -18.1507   21.1524 C   0  0  0  0  0  0  0  0  0  0  0  0
  -25.1683  -19.2067   18.8789 C   0  0  0  0  0  0  0  0  0  0  0  0
  -24.0506  -11.9467   19.4769 C   0  0  0  0  0  0  0  0  0  0  0  0
  -25.8075  -24.8610   17.2208 C   0  0  0  0  0  0  0  0  0  0  0  0
  -24.0747  -13.4166   19.8688 C   0  0  0  0  0  0  0  0  0  0  0  0
  -25.3139  -26.0201   18.0850 C   0  0  0  0  0  0  0  0  0  0  0  0
  -26.7959  -23.9743   17.9721 C   0  0  0  0  0  0  0  0  0  0  0  0
  -27.4591  -25.8730   19.4105 C   0  0  0  0  0  0  0  0  0  0  0  0
  -25.4981  -13.8636   20.2252 C   0  0  1  0  0  0  0  0  0  0  0  0
  -25.3499  -17.6128   20.8151 C   0  0  1  0  0  0  0  0  0  0  0  0
  -26.4971  -26.8124   18.6679 C   0  0  2  0  0  0  0  0  0  0  0  0
  -20.4294  -23.5625   20.1884 C   0  0  0  0  0  0  0  0  0  0  0  0
  -21.7369  -17.4724   17.9364 C   0  0  0  0  0  0  0  0  0  0  0  0
  -20.4396  -19.6036   17.7290 C   0  0  0  0  0  0  0  0  0  0  0  0
  -20.2319  -18.2147   19.7906 C   0  0  0  0  0  0  0  0  0  0  0  0
  -31.5058  -24.7087   19.2050 C   0  0  0  0  0  0  0  0  0  0  0  0
  -23.9354  -23.6598   21.6631 C   0  0  0  0  0  0  0  0  0  0  0  0
  -29.5325  -21.3097   14.4715 C   0  0  0  0  0  0  0  0  0  0  0  0
  -30.9942  -25.7656   16.2681 C   0  0  0  0  0  0  0  0  0  0  0  0
  -30.3517  -26.1746   17.5910 C   0  0  0  0  0  0  0  0  0  0  0  0
  -28.7286  -20.5255   15.5030 C   0  0  0  0  0  0  0  0  0  1  0  0
  -22.3597  -19.5180   19.3834 C   0  0  1  0  0  0  0  0  0  0  0  0
  -21.6981  -22.9762   20.7879 C   0  0  2  0  0  0  0  0  0  0  0  0
  -21.2205  -18.7024   18.7092 C   0  0  0  0  0  0  0  0  0  0  0  0
  -28.7218  -23.6778   14.3988 N   0  0  0  0  0  0  0  0  0  0  0  0
  -24.8995  -27.8170   20.2555 N   0  0  0  0  0  0  0  0  0  0  0  0
  -30.2827  -24.7030   15.6006 N   0  0  0  0  0  0  0  0  0  0  0  0
  -26.0352  -27.9569   19.5508 N   0  0  0  0  0  0  0  0  0  0  0  0
  -24.5449  -18.5662   20.0488 N   0  0  0  0  0  0  0  0  0  0  0  0
  -27.8869  -24.7580   18.5523 N   0  0  0  0  0  0  0  0  0  0  0  0
  -27.8026  -29.4671   19.0966 N   0  0  0  0  0  0  0  0  0  0  0  0
  -25.2028  -31.7485   22.0006 N   0  0  0  0  0  0  0  0  0  0  0  0
  -25.4478  -15.1946   20.7888 N   0  0  0  0  0  0  0  0  0  0  0  0
  -21.8975  -20.6733   20.1448 N   0  0  0  0  0  0  0  0  0  0  0  0
  -30.2630  -25.0614   18.5335 N   0  0  0  0  0  0  0  0  0  0  0  0
  -22.6520  -24.0905   21.0512 N   0  3  0  0  0  0  0  0  0  0  0  0
  -27.1095  -31.8517   20.7306 O   0  0  0  0  0  0  0  0  0  0  0  0
  -25.3914  -16.3938   18.7934 O   0  0  0  0  0  0  0  0  0  0  0  0
  -22.6260  -18.1589   21.3091 O   0  0  0  0  0  0  0  0  0  0  0  0
  -23.1145  -22.2574   18.9673 O   0  0  0  0  0  0  0  0  0  0  0  0
  -29.3258  -22.9651   18.7338 O   0  0  0  0  0  0  0  0  0  0  0  0
  -20.4767  -29.9283   24.3212 O   0  0  0  0  0  0  0  0  0  0  0  0
  -29.3535  -20.6294   16.7817 O   0  0  0  0  0  0  0  0  0  1  0  0
  -15.4445  -28.5381   22.5469 F   0  0  0  0  0  0  0  0  0  0  0  0
  -19.8802  -27.3124   23.6547 F   0  0  0  0  0  0  0  0  0  0  0  0
  1  2  1  0  0  0  0
  1  5  2  0  0  0  0
  2  6  2  0  0  0  0
  3  8  2  0  0  0  0
  3 17  1  0  0  0  0
  4  9  1  0  0  0  0
  4 17  2  0  0  0  0
  5 19  1  0  0  0  0
  6 21  1  0  0  0  0
  7 10  2  0  0  0  0
  7 20  1  0  0  0  0
  8 23  1  0  0  0  0
  9 23  2  0  0  0  0
 10 24  1  0  0  0  0
 11 12  2  0  0  0  0
 11 25  1  0  0  0  0
 12 26  1  0  0  0  0
 13 22  1  0  0  0  0
 13 24  2  0  0  0  0
 14 26  2  0  0  0  0
 14 27  1  0  0  0  0
 15 29  2  0  0  0  0
 15 63  1  0  0  0  0
 16 61  2  0  0  0  0
 16 63  1  0  0  0  0
 17 28  1  0  0  0  0
 18 28  1  0  0  0  0
 18 30  2  0  0  0  0
 18 31  1  0  0  0  0
 19 21  2  0  0  0  0
 19 36  1  0  0  0  0
 20 22  2  0  0  0  0
 20 37  1  0  0  0  0
 21 45  1  0  0  0  0
 22 38  1  0  0  0  0
 23 78  1  0  0  0  0
 24 79  1  0  0  0  0
 25 27  2  0  0  0  0
 25 78  1  0  0  0  0
 26 80  1  0  0  0  0
 27 81  1  0  0  0  0
 28 62  2  0  0  0  0
 29 54  1  0  0  0  0
 29 61  1  0  0  0  0
 30 64  1  0  0  0  0
 30 67  1  0  0  0  0
 31 68  1  0  0  0  0
 31 73  2  0  0  0  0
 32 46  1  0  0  0  0
 32 69  1  0  0  0  0
 32 74  2  0  0  0  0
 33 58  1  0  0  0  0
 33 65  1  0  0  0  0
 33 75  2  0  0  0  0
 34 59  1  0  0  0  0
 34 70  1  0  0  0  0
 34 76  2  0  0  0  0
 35 66  1  0  0  0  0
 35 71  1  0  0  0  0
 35 77  2  0  0  0  0
 36 39  1  0  0  0  0
 37 46  1  0  0  0  0
 38 65  1  0  0  0  0
 39 41  1  0  0  0  0
 40 42  1  0  0  0  0
 40 43  1  0  0  0  0
 41 45  1  0  0  0  0
 42 47  1  0  0  0  0
 43 66  1  0  0  0  0
 44 47  1  0  0  0  0
 44 66  1  0  0  0  0
 45 69  1  0  0  0  0
 46 65  1  0  0  0  0
 47 64  1  0  0  0  0
 48 59  1  0  0  0  0
 49 60  1  0  0  0  0
 50 60  1  0  0  0  0
 51 60  1  0  0  0  0
 52 71  1  0  0  0  0
 53 72  1  0  0  0  0
 54 57  1  0  0  0  0
 55 56  1  0  0  0  0
 55 63  1  0  0  0  0
 56 71  1  0  0  0  0
 57 79  1  0  0  0  0
 58 60  1  0  0  0  0
 58 70  1  0  0  0  0
 59 72  1  0  0  0  0
 62 64  1  0  0  0  0
M  CHG  1  72   1
M  ISO  4  35 100  57 101  71 100  79 101
M  END
> <Batch ID>
0044

> <Smiles>
CNC(C)C(=O)NC(C(=O)N1Cc2cc([101O:1][101CH2:1]Cc3cn(CC[100N:0](C)[100C:0](=O)N4CCCC(n5nc(-c6ccc(Oc7ccc(F)cc7F)cc6)c(C(N)=O)c5N)C4)cn3)ccc2CC1C(=O)NC1CCCc2ccccc21)C(C)(C)C

> <Shape>
0.232

> <Color>
0.085

> <Negative vol penalty>
0.000

$$$$

  -OEChem-04052317173D

 82 90  0     1  0  0  0  0  0999 V2000
  -25.9006  -17.0434   17.2782 C   0  0  0  0  0  0  0  0  0  0  0  0
  -25.3698  -18.2853   17.6083 C   0  0  0  0  0  0  0  0  0  0  0  0
  -24.7752  -14.5007   22.8577 C   0  0  0  0  0  0  0  0  0  0  0  0
  -25.2368  -15.4367   20.6788 C   0  0  0  0  0  0  0  0  0  0  0  0
  -27.1841  -16.7037   17.7008 C   0  0  0  0  0  0  0  0  0  0  0  0
  -26.1265  -19.1924   18.3508 C   0  0  0  0  0  0  0  0  0  0  0  0
  -24.2550  -23.7028   18.9478 C   0  0  0  0  0  0  0  0  0  0  0  0
  -25.0129  -13.2203   22.3581 C   0  0  0  0  0  0  0  0  0  0  0  0
  -25.4746  -14.1562   20.1791 C   0  0  0  0  0  0  0  0  0  0  0  0
  -23.1658  -23.9630   19.7783 C   0  0  0  0  0  0  0  0  0  0  0  0
  -25.1475   -9.6734   21.5673 C   0  0  0  0  0  0  0  0  0  0  0  0
  -24.2486   -8.6640   21.9117 C   0  0  0  0  0  0  0  0  0  0  0  0
  -24.6586  -24.8704   21.4418 C   0  0  0  0  0  0  0  0  0  0  0  0
  -22.4569   -9.9033   20.8672 C   0  0  0  0  0  0  0  0  0  0  0  0
  -20.4625  -27.9848   22.9369 C   0  0  0  0  0  0  0  0  0  0  0  0
  -24.8870  -15.6089   22.0180 C   0  0  0  0  0  0  0  0  0  0  0  0
  -25.5805  -17.8082   23.1087 C   0  0  0  0  0  0  0  0  0  0  0  0
  -27.9515  -17.6029   18.4594 C   0  0  0  0  0  0  0  0  0  0  0  0
  -25.5574  -24.0150   19.3634 C   0  0  0  0  0  0  0  0  0  0  0  0
  -27.4330  -18.8774   18.7662 C   0  0  0  0  0  0  0  0  0  0  0  0
  -25.7624  -24.6155   20.6138 C   0  0  0  0  0  0  0  0  0  0  0  0
  -20.3648  -26.5868   23.0712 C   0  0  0  0  0  0  0  0  0  0  0  0
  -25.3626  -13.0480   21.0188 C   0  0  0  0  0  0  0  0  0  0  0  0
  -23.3677  -24.5443   21.0267 C   0  0  0  0  0  0  0  0  0  0  0  0
  -24.7011  -10.7978   20.8729 C   0  0  0  0  0  0  0  0  0  0  0  0
  -22.9033   -8.7789   21.5616 C   0  0  0  0  0  0  0  0  0  0  0  0
  -23.3558  -10.9127   20.5229 C   0  0  0  0  0  0  0  0  0  0  0  0
  -24.6410  -16.9317   22.5334 C   0  0  0  0  0  0  0  0  0  0  0  0
  -19.2513  -26.2488   22.3415 C   0  0  0  0  0  0  0  0  0  0  0  0
  -24.8524  -18.9266   23.4339 C   0  0  0  0  0  0  0  0  0  0  0  0
  -26.9856  -17.6277   23.3294 C   0  0  0  0  0  0  0  0  0  0  0  0
  -28.1995  -22.3356   19.9135 C   0  0  0  0  0  0  0  0  0  0  0  0
  -29.5177  -25.2732   20.3075 C   0  0  0  0  0  0  0  0  0  0  0  0
  -29.0705  -28.5725   21.0568 C   0  0  0  0  0  0  0  0  0  0  0  0
  -19.8724  -21.1677   21.1906 C   0  0  0  0  0  0  0  0  0  0  0  0
  -29.3378  -17.1866   18.8840 C   0  0  0  0  0  0  0  0  0  0  0  0
  -26.7192  -23.7525   18.4448 C   0  0  0  0  0  0  0  0  0  0  0  0
  -27.1388  -24.9884   21.0984 C   0  0  0  0  0  0  0  0  0  0  0  0
  -29.8855  -18.0278   20.0324 C   0  0  0  0  0  0  0  0  0  0  0  0
  -20.4312  -20.2918   24.6573 C   0  0  0  0  0  0  0  0  0  0  0  0
  -29.7117  -19.5070   19.7221 C   0  0  0  0  0  0  0  0  0  0  0  0
  -21.6749  -19.4074   24.5509 C   0  0  0  0  0  0  0  0  0  0  0  0
  -19.4897  -20.0658   23.4780 C   0  0  0  0  0  0  0  0  0  0  0  0
  -21.3627  -19.3753   22.0327 C   0  0  0  0  0  0  0  0  0  0  0  0
  -28.2260  -19.8683   19.5990 C   0  0  1  0  0  0  0  0  0  0  0  0
  -28.0501  -23.6395   19.1820 C   0  0  1  0  0  0  0  0  0  0  0  0
  -22.3652  -19.5734   23.1841 C   0  0  2  0  0  0  0  0  0  0  0  0
  -30.3405  -30.7187   21.3364 C   0  0  0  0  0  0  0  0  0  0  0  0
  -30.5333  -24.3159   23.0208 C   0  0  0  0  0  0  0  0  0  0  0  0
  -30.9397  -26.7088   23.6349 C   0  0  0  0  0  0  0  0  0  0  0  0
  -32.1695  -25.6884   21.7194 C   0  0  0  0  0  0  0  0  0  0  0  0
  -17.6043  -27.5876   20.9959 C   0  0  0  0  0  0  0  0  0  0  0  0
  -27.5697  -29.8810   18.8673 C   0  0  0  0  0  0  0  0  0  0  0  0
  -21.2812  -25.6704   23.8448 C   0  0  0  0  0  0  0  0  0  0  0  0
  -18.6139  -24.9432   22.0861 C   0  0  0  0  0  0  0  0  0  0  0  0
  -18.9334  -24.3179   20.7062 C   0  0  0  0  0  0  0  0  0  0  0  0
  -18.2967  -22.9482   20.4808 C   0  0  0  0  0  0  0  0  0  0  0  0
  -22.5860  -25.3957   23.1051 C   0  0  0  0  0  0  0  0  0  1  0  0
  -29.7082  -26.2117   21.4745 C   0  0  1  0  0  0  0  0  0  0  0  0
  -29.5615  -29.8361   20.3737 C   0  0  2  0  0  0  0  0  0  0  0  0
  -30.8118  -25.7225   22.4544 C   0  0  0  0  0  0  0  0  0  0  0  0
  -19.4889  -28.4995   22.1812 N   0  0  0  0  0  0  0  0  0  0  0  0
  -23.4101  -17.4487   22.4941 N   0  0  0  0  0  0  0  0  0  0  0  0
  -18.7688  -27.4192   21.8340 N   0  0  0  0  0  0  0  0  0  0  0  0
  -23.5710  -18.6621   23.0490 N   0  0  0  0  0  0  0  0  0  0  0  0
  -28.2432  -24.7060   20.1666 N   0  0  0  0  0  0  0  0  0  0  0  0
  -20.2039  -20.2573   22.2078 N   0  0  0  0  0  0  0  0  0  0  0  0
  -25.1897  -20.1005   24.0089 N   0  0  0  0  0  0  0  0  0  0  0  0
  -27.5738  -16.4182   22.9353 N   0  0  0  0  0  0  0  0  0  0  0  0
  -28.1088  -21.2213   19.1013 N   0  0  0  0  0  0  0  0  0  0  0  0
  -29.9592  -27.5297   20.9016 N   0  0  0  0  0  0  0  0  0  0  0  0
  -18.7574  -21.9610   21.4317 N   0  0  0  0  0  0  0  0  0  0  0  0
  -28.4097  -30.6199   19.8447 N   0  3  0  0  0  0  0  0  0  0  0  0
  -27.6952  -18.5063   23.8752 O   0  0  0  0  0  0  0  0  0  0  0  0
  -28.3850  -22.3401   21.1248 O   0  0  0  0  0  0  0  0  0  0  0  0
  -30.4627  -25.0570   19.5448 O   0  0  0  0  0  0  0  0  0  0  0  0
  -28.0069  -28.5171   21.6702 O   0  0  0  0  0  0  0  0  0  0  0  0
  -20.5253  -21.2699   20.1464 O   0  0  0  0  0  0  0  0  0  0  0  0
  -25.5949  -11.7988   20.5310 O   0  0  0  0  0  0  0  0  0  0  0  0
  -22.3064  -24.7987   21.8395 O   0  0  0  0  0  0  0  0  0  1  0  0
  -22.0405   -7.8087   21.8911 F   0  0  0  0  0  0  0  0  0  0  0  0
  -22.9212  -11.9900   19.8547 F   0  0  0  0  0  0  0  0  0  0  0  0
  1  2  1  0  0  0  0
  1  5  2  0  0  0  0
  2  6  2  0  0  0  0
  3  8  2  0  0  0  0
  3 16  1  0  0  0  0
  4  9  1  0  0  0  0
  4 16  2  0  0  0  0
  5 18  1  0  0  0  0
  6 20  1  0  0  0  0
  7 10  2  0  0  0  0
  7 19  1  0  0  0  0
  8 23  1  0  0  0  0
  9 23  2  0  0  0  0
 10 24  1  0  0  0  0
 11 12  2  0  0  0  0
 11 25  1  0  0  0  0
 12 26  1  0  0  0  0
 13 21  1  0  0  0  0
 13 24  2  0  0  0  0
 14 26  2  0  0  0  0
 14 27  1  0  0  0  0
 15 22  1  0  0  0  0
 15 62  2  0  0  0  0
 16 28  1  0  0  0  0
 17 28  1  0  0  0  0
 17 30  2  0  0  0  0
 17 31  1  0  0  0  0
 18 20  2  0  0  0  0
 18 36  1  0  0  0  0
 19 21  2  0  0  0  0
 19 37  1  0  0  0  0
 20 45  1  0  0  0  0
 21 38  1  0  0  0  0
 22 29  2  0  0  0  0
 22 54  1  0  0  0  0
 23 79  1  0  0  0  0
 24 80  1  0  0  0  0
 25 27  2  0  0  0  0
 25 79  1  0  0  0  0
 26 81  1  0  0  0  0
 27 82  1  0  0  0  0
 28 63  2  0  0  0  0
 29 55  1  0  0  0  0
 29 64  1  0  0  0  0
 30 65  1  0  0  0  0
 30 68  1  0  0  0  0
 31 69  1  0  0  0  0
 31 74  2  0  0  0  0
 32 46  1  0  0  0  0
 32 70  1  0  0  0  0
 32 75  2  0  0  0  0
 33 59  1  0  0  0  0
 33 66  1  0  0  0  0
 33 76  2  0  0  0  0
 34 60  1  0  0  0  0
 34 71  1  0  0  0  0
 34 77  2  0  0  0  0
 35 67  1  0  0  0  0
 35 72  1  0  0  0  0
 35 78  2  0  0  0  0
 36 39  1  0  0  0  0
 37 46  1  0  0  0  0
 38 66  1  0  0  0  0
 39 41  1  0  0  0  0
 40 42  1  0  0  0  0
 40 43  1  0  0  0  0
 41 45  1  0  0  0  0
 42 47  1  0  0  0  0
 43 67  1  0  0  0  0
 44 47  1  0  0  0  0
 44 67  1  0  0  0  0
 45 70  1  0  0  0  0
 46 66  1  0  0  0  0
 47 65  1  0  0  0  0
 48 60  1  0  0  0  0
 49 61  1  0  0  0  0
 50 61  1  0  0  0  0
 51 61  1  0  0  0  0
 52 64  1  0  0  0  0
 53 73  1  0  0  0  0
 54 58  1  0  0  0  0
 55 56  1  0  0  0  0
 56 57  1  0  0  0  0
 57 72  1  0  0  0  0
 58 80  1  0  0  0  0
 59 61  1  0  0  0  0
 59 71  1  0  0  0  0
 60 73  1  0  0  0  0
 62 64  1  0  0  0  0
 63 65  1  0  0  0  0
M  CHG  1  73   1
M  ISO  4  35 100  58 101  72 100  80 101
M  END
> <Batch ID>
0044

> <Smiles>
CNC(C)C(=O)NC(C(=O)N1Cc2cc([101O:1][101CH2:1]Cc3cnn(C)c3CCC[100NH:0][100C:0](=O)N3CCCC(n4nc(-c5ccc(Oc6ccc(F)cc6F)cc5)c(C(N)=O)c4N)C3)ccc2CC1C(=O)NC1CCCc2ccccc21)C(C)(C)C

> <Shape>
0.194

> <Color>
0.059

> <Negative vol penalty>
0.000

$$$$

  -OEChem-04052317173D

 84 91  0     1  0  0  0  0  0999 V2000
  -27.0133  -35.6939   22.3219 C   0  0  0  0  0  0  0  0  0  0  0  0
  -27.3800  -34.3592   22.1822 C   0  0  0  0  0  0  0  0  0  0  0  0
  -24.4724   -9.3288   22.0412 C   0  0  0  0  0  0  0  0  0  0  0  0
  -23.1416   -9.9769   20.1318 C   0  0  0  0  0  0  0  0  0  0  0  0
  -25.8002  -36.0229   22.9253 C   0  0  0  0  0  0  0  0  0  0  0  0
  -26.5342  -33.3527   22.6469 C   0  0  0  0  0  0  0  0  0  0  0  0
  -26.0391  -29.5503   19.3391 C   0  0  0  0  0  0  0  0  0  0  0  0
  -23.7634   -8.1308   22.1288 C   0  0  0  0  0  0  0  0  0  0  0  0
  -22.4326   -8.7788   20.2193 C   0  0  0  0  0  0  0  0  0  0  0  0
  -27.0834  -28.6294   19.2666 C   0  0  0  0  0  0  0  0  0  0  0  0
  -20.7679   -7.0894   23.2980 C   0  0  0  0  0  0  0  0  0  0  0  0
  -20.3409   -6.6808   24.5614 C   0  0  0  0  0  0  0  0  0  0  0  0
  -25.8246  -27.1025   20.6462 C   0  0  0  0  0  0  0  0  0  0  0  0
  -21.6341   -4.6518   24.3422 C   0  0  0  0  0  0  0  0  0  0  0  0
  -24.1615  -10.2519   21.0427 C   0  0  0  0  0  0  0  0  0  0  0  0
  -26.0679  -11.7310   20.2150 C   0  0  0  0  0  0  0  0  0  0  0  0
  -24.9347  -35.0196   23.3889 C   0  0  0  0  0  0  0  0  0  0  0  0
  -24.8823  -29.2581   20.0759 C   0  0  0  0  0  0  0  0  0  0  0  0
  -25.3090  -33.6686   23.2583 C   0  0  0  0  0  0  0  0  0  0  0  0
  -24.7660  -28.0203   20.7243 C   0  0  0  0  0  0  0  0  0  0  0  0
  -22.7435   -7.8557   21.2178 C   0  0  0  0  0  0  0  0  0  0  0  0
  -26.9774  -27.4065   19.9226 C   0  0  0  0  0  0  0  0  0  0  0  0
  -21.6280   -6.2792   22.5566 C   0  0  0  0  0  0  0  0  0  0  0  0
  -20.7740   -5.4620   25.0835 C   0  0  0  0  0  0  0  0  0  0  0  0
  -22.0611   -5.0605   23.0787 C   0  0  0  0  0  0  0  0  0  0  0  0
  -24.8931  -11.4898   20.9522 C   0  0  0  0  0  0  0  0  0  0  0  0
  -26.3608  -13.0508   20.4578 C   0  0  0  0  0  0  0  0  0  0  0  0
  -26.8266  -10.8416   19.3849 C   0  0  0  0  0  0  0  0  0  0  0  0
  -23.4523  -30.5408   22.6085 C   0  0  0  0  0  0  0  0  0  0  0  0
  -24.6650  -18.3624   20.9056 C   0  0  0  0  0  0  0  0  0  0  0  0
  -21.1511  -28.3585   21.9269 C   0  0  0  0  0  0  0  0  0  0  0  0
  -20.3154  -25.3890   20.4675 C   0  0  0  0  0  0  0  0  0  0  0  0
  -23.6555  -35.4254   24.0770 C   0  0  0  0  0  0  0  0  0  0  0  0
  -23.7537  -30.2513   20.1222 C   0  0  0  0  0  0  0  0  0  0  0  0
  -23.5367  -27.6500   21.5117 C   0  0  0  0  0  0  0  0  0  0  0  0
  -22.6454  -34.2880   24.2049 C   0  0  0  0  0  0  0  0  0  0  0  0
  -24.4433  -16.2928   23.8224 C   0  0  0  0  0  0  0  0  0  0  0  0
  -23.3290  -33.0212   24.7095 C   0  0  0  0  0  0  0  0  0  0  0  0
  -24.6067  -14.8769   23.2712 C   0  0  0  0  0  0  0  0  0  0  0  0
  -23.6840  -17.1873   22.8475 C   0  0  0  0  0  0  0  0  0  0  0  0
  -24.4486  -15.8278   20.9269 C   0  0  0  0  0  0  0  0  0  0  0  0
  -24.4072  -32.5475   23.7274 C   0  0  1  0  0  0  0  0  0  0  0  0
  -22.8365  -30.0578   21.3258 C   0  0  1  0  0  0  0  0  0  0  0  0
  -25.2372  -14.8996   21.8675 C   0  0  2  0  0  0  0  0  0  0  0  0
  -24.1519  -18.2020   18.5308 C   0  0  0  0  0  0  0  0  0  0  0  0
  -18.3660  -23.8501   20.1085 C   0  0  0  0  0  0  0  0  0  0  0  0
  -28.5121  -20.2553   16.1435 C   0  0  0  0  0  0  0  0  0  0  0  0
  -21.3727  -27.4073   24.8176 C   0  0  0  0  0  0  0  0  0  0  0  0
  -20.1514  -25.3253   24.1529 C   0  0  0  0  0  0  0  0  0  0  0  0
  -19.0345  -27.5458   23.9413 C   0  0  0  0  0  0  0  0  0  0  0  0
  -20.4973  -25.6563   17.5256 C   0  0  0  0  0  0  0  0  0  0  0  0
  -28.2093  -24.0944   18.2630 C   0  0  0  0  0  0  0  0  0  0  0  0
  -29.3348  -25.1133   18.4254 C   0  0  0  0  0  0  0  0  0  0  0  0
  -27.3650  -19.5123   20.4153 C   0  0  0  0  0  0  0  0  0  0  0  0
  -26.8929  -19.3854   17.8801 C   0  0  0  0  0  0  0  0  0  0  0  0
  -28.7658  -22.6932   18.0595 C   0  0  0  0  0  0  0  0  0  0  0  0
  -28.7935  -26.5143   18.6729 C   0  0  0  0  0  0  0  0  0  1  0  0
  -28.3866  -18.3802   20.4106 C   0  0  0  0  0  0  0  0  0  0  0  0
  -25.2983  -18.2578   19.5411 C   0  0  1  0  0  0  0  0  0  0  0  0
  -20.8812  -26.9286   22.3286 C   0  0  1  0  0  0  0  0  0  0  0  0
  -19.1741  -25.0073   19.5422 C   0  0  2  0  0  0  0  0  0  0  0  0
  -26.2849  -19.4373   19.3068 C   0  0  1  0  0  0  0  0  0  0  0  0
  -28.0607  -20.3421   17.5969 C   0  0  2  0  0  0  0  0  0  0  0  0
  -20.3840  -26.8092   23.7970 C   0  0  0  0  0  0  0  0  0  0  0  0
  -24.4687  -12.5697   21.6138 N   0  0  0  0  0  0  0  0  0  0  0  0
  -25.3819  -13.5022   21.2933 N   0  0  0  0  0  0  0  0  0  0  0  0
  -22.4630  -28.6571   21.5324 N   0  0  0  0  0  0  0  0  0  0  0  0
  -24.3010  -17.1641   21.5201 N   0  0  0  0  0  0  0  0  0  0  0  0
  -27.3576  -13.8575   20.0359 N   0  0  0  0  0  0  0  0  0  0  0  0
  -26.3851   -9.5188   19.2446 N   0  0  0  0  0  0  0  0  0  0  0  0
  -23.8016  -31.8777   22.5965 N   0  0  0  0  0  0  0  0  0  0  0  0
  -19.9526  -26.3947   21.3381 N   0  0  0  0  0  0  0  0  0  0  0  0
  -19.7016  -24.6037   18.2081 N   0  3  0  0  0  0  0  0  0  0  0  0
  -27.6384  -21.7457   17.8614 N   0  3  0  0  0  0  0  0  0  0  0  0
  -27.8744  -11.2045   18.7985 O   0  0  0  0  0  0  0  0  0  0  0  0
  -23.5984  -29.7587   23.5406 O   0  0  0  0  0  0  0  0  0  0  0  0
  -24.5023  -19.4766   21.4100 O   0  0  0  0  0  0  0  0  0  0  0  0
  -20.2302  -29.1787   21.9552 O   0  0  0  0  0  0  0  0  0  0  0  0
  -21.4174  -24.8464   20.4248 O   0  0  0  0  0  0  0  0  0  0  0  0
  -29.3164  -18.6069   21.4639 O   0  0  0  0  0  0  0  0  0  0  0  0
  -22.0517   -6.6867   21.3028 O   0  0  0  0  0  0  0  0  0  0  0  0
  -28.0030  -26.4994   19.8535 O   0  0  0  0  0  0  0  0  0  1  0  0
  -20.3650   -5.0704   26.2974 F   0  0  0  0  0  0  0  0  0  0  0  0
  -22.8883   -4.2784   22.3717 F   0  0  0  0  0  0  0  0  0  0  0  0
  1  2  1  0  0  0  0
  1  5  2  0  0  0  0
  2  6  2  0  0  0  0
  3  8  2  0  0  0  0
  3 15  1  0  0  0  0
  4  9  1  0  0  0  0
  4 15  2  0  0  0  0
  5 17  1  0  0  0  0
  6 19  1  0  0  0  0
  7 10  2  0  0  0  0
  7 18  1  0  0  0  0
  8 21  1  0  0  0  0
  9 21  2  0  0  0  0
 10 22  1  0  0  0  0
 11 12  2  0  0  0  0
 11 23  1  0  0  0  0
 12 24  1  0  0  0  0
 13 20  1  0  0  0  0
 13 22  2  0  0  0  0
 14 24  2  0  0  0  0
 14 25  1  0  0  0  0
 15 26  1  0  0  0  0
 16 26  1  0  0  0  0
 16 27  2  0  0  0  0
 16 28  1  0  0  0  0
 17 19  2  0  0  0  0
 17 33  1  0  0  0  0
 18 20  2  0  0  0  0
 18 34  1  0  0  0  0
 19 42  1  0  0  0  0
 20 35  1  0  0  0  0
 21 81  1  0  0  0  0
 22 82  1  0  0  0  0
 23 25  2  0  0  0  0
 23 81  1  0  0  0  0
 24 83  1  0  0  0  0
 25 84  1  0  0  0  0
 26 65  2  0  0  0  0
 27 66  1  0  0  0  0
 27 69  1  0  0  0  0
 28 70  1  0  0  0  0
 28 75  2  0  0  0  0
 29 43  1  0  0  0  0
 29 71  1  0  0  0  0
 29 76  2  0  0  0  0
 30 59  1  0  0  0  0
 30 68  1  0  0  0  0
 30 77  2  0  0  0  0
 31 60  1  0  0  0  0
 31 67  1  0  0  0  0
 31 78  2  0  0  0  0
 32 61  1  0  0  0  0
 32 72  1  0  0  0  0
 32 79  2  0  0  0  0
 33 36  1  0  0  0  0
 34 43  1  0  0  0  0
 35 67  1  0  0  0  0
 36 38  1  0  0  0  0
 37 39  1  0  0  0  0
 37 40  1  0  0  0  0
 38 42  1  0  0  0  0
 39 44  1  0  0  0  0
 40 68  1  0  0  0  0
 41 44  1  0  0  0  0
 41 68  1  0  0  0  0
 42 71  1  0  0  0  0
 43 67  1  0  0  0  0
 44 66  1  0  0  0  0
 45 59  1  0  0  0  0
 46 61  1  0  0  0  0
 47 63  1  0  0  0  0
 48 64  1  0  0  0  0
 49 64  1  0  0  0  0
 50 64  1  0  0  0  0
 51 73  1  0  0  0  0
 52 53  1  0  0  0  0
 52 56  1  0  0  0  0
 53 57  1  0  0  0  0
 54 58  1  0  0  0  0
 54 62  1  0  0  0  0
 55 62  1  0  0  0  0
 55 63  1  0  0  0  0
 56 74  1  0  0  0  0
 57 82  1  0  0  0  0
 58 80  1  0  0  0  0
 59 62  1  0  0  0  0
 60 64  1  0  0  0  0
 60 72  1  0  0  0  0
 61 73  1  0  0  0  0
 63 74  1  0  0  0  0
 65 66  1  0  0  0  0
M  CHG  2  73   1  74   1
M  ISO  4  30 100  57 101  59 100  82 101
M  END
> <Batch ID>
0044

> <Smiles>
CNC(C)C(=O)NC(C(=O)N1Cc2cc([101O:1][101CH2:1]CCCNC(C)CC(CCO)[100CH:0](C)[100C:0](=O)N3CCCC(n4nc(-c5ccc(Oc6ccc(F)cc6F)cc5)c(C(N)=O)c4N)C3)ccc2CC1C(=O)NC1CCCc2ccccc21)C(C)(C)C

> <Shape>
0.319

> <Color>
0.102

> <Negative vol penalty>
0.000

$$$$

  -OEChem-04052317173D

 82 90  0     1  0  0  0  0  0999 V2000
  -20.4175  -34.1926   21.9122 C   0  0  0  0  0  0  0  0  0  0  0  0
  -21.4938  -33.5885   21.2703 C   0  0  0  0  0  0  0  0  0  0  0  0
  -24.3987  -14.4749   20.8980 C   0  0  0  0  0  0  0  0  0  0  0  0
  -26.3136  -14.3206   22.3631 C   0  0  0  0  0  0  0  0  0  0  0  0
  -19.8593  -33.5987   23.0434 C   0  0  0  0  0  0  0  0  0  0  0  0
  -22.0134  -32.3907   21.7600 C   0  0  0  0  0  0  0  0  0  0  0  0
  -24.3646  -27.7840   18.4804 C   0  0  0  0  0  0  0  0  0  0  0  0
  -24.5117  -13.1154   20.6072 C   0  0  0  0  0  0  0  0  0  0  0  0
  -26.4265  -12.9611   22.0724 C   0  0  0  0  0  0  0  0  0  0  0  0
  -25.6763  -27.4267   18.1711 C   0  0  0  0  0  0  0  0  0  0  0  0
  -23.7134  -10.1783   22.0800 C   0  0  0  0  0  0  0  0  0  0  0  0
  -22.5462   -9.4146   22.0875 C   0  0  0  0  0  0  0  0  0  0  0  0
  -25.6825  -25.8745   20.0176 C   0  0  0  0  0  0  0  0  0  0  0  0
  -22.9062   -8.8419   19.7681 C   0  0  0  0  0  0  0  0  0  0  0  0
  -31.9460  -27.1508   20.7867 C   0  0  0  0  0  0  0  0  0  0  0  0
  -31.1631  -27.8016   18.7391 C   0  0  0  0  0  0  0  0  0  0  0  0
  -25.2997  -15.0775   21.7759 C   0  0  0  0  0  0  0  0  0  0  0  0
  -24.4372  -17.0705   23.1145 C   0  0  0  0  0  0  0  0  0  0  0  0
  -20.3661  -32.3880   23.5415 C   0  0  0  0  0  0  0  0  0  0  0  0
  -23.7047  -27.1962   19.5691 C   0  0  0  0  0  0  0  0  0  0  0  0
  -21.4623  -31.7808   22.8997 C   0  0  0  0  0  0  0  0  0  0  0  0
  -24.3616  -26.2242   20.3371 C   0  0  0  0  0  0  0  0  0  0  0  0
  -25.5256  -12.3585   21.1944 C   0  0  0  0  0  0  0  0  0  0  0  0
  -26.3364  -26.4739   18.9415 C   0  0  0  0  0  0  0  0  0  0  0  0
  -24.4770  -10.2738   20.9166 C   0  0  0  0  0  0  0  0  0  0  0  0
  -22.1426   -8.7464   20.9315 C   0  0  0  0  0  0  0  0  0  0  0  0
  -24.0734   -9.6056   19.7606 C   0  0  0  0  0  0  0  0  0  0  0  0
  -25.1839  -16.4820   22.0763 C   0  0  0  0  0  0  0  0  0  0  0  0
  -31.2718  -25.9558   20.6648 C   0  0  0  0  0  0  0  0  0  0  0  0
  -30.4894  -26.6063   18.6167 C   0  0  0  0  0  0  0  0  0  0  0  0
  -24.6554  -18.4191   22.9726 C   0  0  0  0  0  0  0  0  0  0  0  0
  -23.6194  -16.4533   24.1175 C   0  0  0  0  0  0  0  0  0  0  0  0
  -22.4610  -28.2764   22.2876 C   0  0  0  0  0  0  0  0  0  0  0  0
  -21.4334  -25.2136   22.5805 C   0  0  0  0  0  0  0  0  0  0  0  0
  -21.8435  -21.9284   21.7524 C   0  0  0  0  0  0  0  0  0  0  0  0
  -28.0656  -22.6326   22.2216 C   0  0  0  0  0  0  0  0  0  0  0  0
  -19.7600  -31.8083   24.7951 C   0  0  0  0  0  0  0  0  0  0  0  0
  -22.2806  -27.5730   19.8733 C   0  0  0  0  0  0  0  0  0  0  0  0
  -23.6905  -25.5486   21.5040 C   0  0  0  0  0  0  0  0  0  0  0  0
  -20.1291  -30.3459   25.0301 C   0  0  0  0  0  0  0  0  0  0  0  0
  -26.8286  -21.0282   19.2228 C   0  0  0  0  0  0  0  0  0  0  0  0
  -21.6255  -30.1333   24.8245 C   0  0  0  0  0  0  0  0  0  0  0  0
  -26.2254  -19.7428   19.7922 C   0  0  0  0  0  0  0  0  0  0  0  0
  -28.1065  -21.4139   19.9620 C   0  0  0  0  0  0  0  0  0  0  0  0
  -27.3438  -20.2713   22.0080 C   0  0  0  0  0  0  0  0  0  0  0  0
  -22.0379  -30.4684   23.3861 C   0  0  1  0  0  0  0  0  0  0  0  0
  -21.8820  -27.2856   21.3176 C   0  0  1  0  0  0  0  0  0  0  0  0
  -26.0370  -19.8402   21.3177 C   0  0  2  0  0  0  0  0  0  0  0  0
  -21.3255  -19.4761   21.6285 C   0  0  0  0  0  0  0  0  0  0  0  0
  -22.7535  -25.1658   25.3310 C   0  0  0  0  0  0  0  0  0  0  0  0
  -22.5894  -22.6679   25.2894 C   0  0  0  0  0  0  0  0  0  0  0  0
  -20.5159  -24.0535   25.2283 C   0  0  0  0  0  0  0  0  0  0  0  0
  -20.2057  -22.2792   19.3124 C   0  0  0  0  0  0  0  0  0  0  0  0
  -31.3408  -24.9350   21.7461 C   0  0  0  0  0  0  0  0  0  0  0  0
  -29.6698  -26.3109   17.3841 C   0  0  0  0  0  0  0  0  0  0  0  0
  -30.2449  -25.0676   22.8236 C   0  0  0  0  0  0  0  0  0  0  0  0
  -28.8192  -24.9960   22.2806 C   0  0  0  0  0  0  0  0  0  0  0  0
  -28.2234  -26.7725   17.5251 C   0  0  0  0  0  0  0  0  0  1  0  0
  -21.9979  -23.9495   23.1826 C   0  0  1  0  0  0  0  0  0  0  0  0
  -20.8557  -20.8788   21.2758 C   0  0  2  0  0  0  0  0  0  0  0  0
  -21.9778  -23.9731   24.7371 C   0  0  0  0  0  0  0  0  0  0  0  0
  -31.9037  -28.0952   19.8261 N   0  0  0  0  0  0  0  0  0  0  0  0
  -25.8282  -17.3829   21.3299 N   0  0  0  0  0  0  0  0  0  0  0  0
  -30.5314  -25.6621   19.5776 N   0  0  0  0  0  0  0  0  0  0  0  0
  -25.4870  -18.5512   21.8996 N   0  0  0  0  0  0  0  0  0  0  0  0
  -22.2999  -25.9555   21.7653 N   0  0  0  0  0  0  0  0  0  0  0  0
  -27.8544  -21.5079   21.4069 N   0  0  0  0  0  0  0  0  0  0  0  0
  -24.2152  -19.4929   23.6622 N   0  0  0  0  0  0  0  0  0  0  0  0
  -23.5045  -15.0565   24.1194 N   0  0  0  0  0  0  0  0  0  0  0  0
  -21.6712  -29.3918   22.4913 N   0  0  0  0  0  0  0  0  0  0  0  0
  -21.2483  -22.8460   22.5919 N   0  0  0  0  0  0  0  0  0  0  0  0
  -28.5572  -23.7606   21.5762 N   0  0  0  0  0  0  0  0  0  0  0  0
  -20.6867  -20.9600   19.7974 N   0  3  0  0  0  0  0  0  0  0  0  0
  -22.9956  -17.1218   24.9763 O   0  0  0  0  0  0  0  0  0  0  0  0
  -23.5435  -28.0452   22.8135 O   0  0  0  0  0  0  0  0  0  0  0  0
  -20.2645  -25.5273   22.8188 O   0  0  0  0  0  0  0  0  0  0  0  0
  -23.0258  -21.9315   21.4166 O   0  0  0  0  0  0  0  0  0  0  0  0
  -27.8283  -22.6334   23.4344 O   0  0  0  0  0  0  0  0  0  0  0  0
  -25.6359  -11.0318   20.9110 O   0  0  0  0  0  0  0  0  0  0  0  0
  -27.6169  -26.1238   18.6422 O   0  0  0  0  0  0  0  0  0  1  0  0
  -21.0226   -8.0118   20.9392 F   0  0  0  0  0  0  0  0  0  0  0  0
  -24.8034   -9.6927   18.6403 F   0  0  0  0  0  0  0  0  0  0  0  0
  1  2  1  0  0  0  0
  1  5  2  0  0  0  0
  2  6  2  0  0  0  0
  3  8  2  0  0  0  0
  3 17  1  0  0  0  0
  4  9  1  0  0  0  0
  4 17  2  0  0  0  0
  5 19  1  0  0  0  0
  6 21  1  0  0  0  0
  7 10  2  0  0  0  0
  7 20  1  0  0  0  0
  8 23  1  0  0  0  0
  9 23  2  0  0  0  0
 10 24  1  0  0  0  0
 11 12  2  0  0  0  0
 11 25  1  0  0  0  0
 12 26  1  0  0  0  0
 13 22  1  0  0  0  0
 13 24  2  0  0  0  0
 14 26  2  0  0  0  0
 14 27  1  0  0  0  0
 15 29  2  0  0  0  0
 15 62  1  0  0  0  0
 16 30  1  0  0  0  0
 16 62  2  0  0  0  0
 17 28  1  0  0  0  0
 18 28  1  0  0  0  0
 18 31  2  0  0  0  0
 18 32  1  0  0  0  0
 19 21  2  0  0  0  0
 19 37  1  0  0  0  0
 20 22  2  0  0  0  0
 20 38  1  0  0  0  0
 21 46  1  0  0  0  0
 22 39  1  0  0  0  0
 23 79  1  0  0  0  0
 24 80  1  0  0  0  0
 25 27  2  0  0  0  0
 25 79  1  0  0  0  0
 26 81  1  0  0  0  0
 27 82  1  0  0  0  0
 28 63  2  0  0  0  0
 29 54  1  0  0  0  0
 29 64  1  0  0  0  0
 30 55  1  0  0  0  0
 30 64  2  0  0  0  0
 31 65  1  0  0  0  0
 31 68  1  0  0  0  0
 32 69  1  0  0  0  0
 32 74  2  0  0  0  0
 33 47  1  0  0  0  0
 33 70  1  0  0  0  0
 33 75  2  0  0  0  0
 34 59  1  0  0  0  0
 34 66  1  0  0  0  0
 34 76  2  0  0  0  0
 35 60  1  0  0  0  0
 35 71  1  0  0  0  0
 35 77  2  0  0  0  0
 36 67  1  0  0  0  0
 36 72  1  0  0  0  0
 36 78  2  0  0  0  0
 37 40  1  0  0  0  0
 38 47  1  0  0  0  0
 39 66  1  0  0  0  0
 40 42  1  0  0  0  0
 41 43  1  0  0  0  0
 41 44  1  0  0  0  0
 42 46  1  0  0  0  0
 43 48  1  0  0  0  0
 44 67  1  0  0  0  0
 45 48  1  0  0  0  0
 45 67  1  0  0  0  0
 46 70  1  0  0  0  0
 47 66  1  0  0  0  0
 48 65  1  0  0  0  0
 49 60  1  0  0  0  0
 50 61  1  0  0  0  0
 51 61  1  0  0  0  0
 52 61  1  0  0  0  0
 53 73  1  0  0  0  0
 54 56  1  0  0  0  0
 55 58  1  0  0  0  0
 56 57  1  0  0  0  0
 57 72  1  0  0  0  0
 58 80  1  0  0  0  0
 59 61  1  0  0  0  0
 59 71  1  0  0  0  0
 60 73  1  0  0  0  0
 63 65  1  0  0  0  0
M  CHG  1  73   1
M  ISO  4  36 100  58 101  72 100  80 101
M  END
> <Batch ID>
0044

> <Smiles>
CNC(C)C(=O)NC(C(=O)N1Cc2cc([101O:1][101CH2:1]Cc3cncc(CCC[100NH:0][100C:0](=O)N4CCCC(n5nc(-c6ccc(Oc7ccc(F)cc7F)cc6)c(C(N)=O)c5N)C4)n3)ccc2CC1C(=O)NC1CCCc2ccccc21)C(C)(C)C

> <Shape>
0.165

> <Color>
0.073

> <Negative vol penalty>
0.000

$$$$

  -OEChem-04052317173D

 87 95  0     1  0  0  0  0  0999 V2000
  -21.0140   -7.7271   18.4827 C   0  0  0  0  0  0  0  0  0  0  0  0
  -20.5609   -9.0222   18.2527 C   0  0  0  0  0  0  0  0  0  0  0  0
  -28.4297  -28.5392   20.4857 C   0  0  0  0  0  0  0  0  0  0  0  0
  -26.8690  -26.8041   19.8606 C   0  0  0  0  0  0  0  0  0  0  0  0
  -21.9521   -7.4859   19.4855 C   0  0  0  0  0  0  0  0  0  0  0  0
  -21.0449  -10.0767   19.0261 C   0  0  0  0  0  0  0  0  0  0  0  0
  -22.6227  -17.0510   18.5950 C   0  0  0  0  0  0  0  0  0  0  0  0
  -29.4930  -27.6679   20.2495 C   0  0  0  0  0  0  0  0  0  0  0  0
  -27.9324  -25.9328   19.6243 C   0  0  0  0  0  0  0  0  0  0  0  0
  -22.3577  -18.2572   19.2420 C   0  0  0  0  0  0  0  0  0  0  0  0
  -30.0308  -24.0103   21.4496 C   0  0  0  0  0  0  0  0  0  0  0  0
  -29.9265  -22.7109   21.9459 C   0  0  0  0  0  0  0  0  0  0  0  0
  -24.0358  -17.7329   20.8938 C   0  0  0  0  0  0  0  0  0  0  0  0
  -30.1158  -21.8383   19.7009 C   0  0  0  0  0  0  0  0  0  0  0  0
  -20.6336  -22.3993   21.9646 C   0  0  0  0  0  0  0  0  0  0  0  0
  -27.1177  -28.1072   20.2914 C   0  0  0  0  0  0  0  0  0  0  0  0
  -25.4152  -29.8818   19.6130 C   0  0  0  0  0  0  0  0  0  0  0  0
  -22.4551   -8.5393   20.2652 C   0  0  0  0  0  0  0  0  0  0  0  0
  -23.5902  -16.1702   19.0996 C   0  0  0  0  0  0  0  0  0  0  0  0
  -21.9897   -9.8491   20.0411 C   0  0  0  0  0  0  0  0  0  0  0  0
  -24.3130  -16.5173   20.2499 C   0  0  0  0  0  0  0  0  0  0  0  0
  -29.2444  -26.3647   19.8187 C   0  0  0  0  0  0  0  0  0  0  0  0
  -23.0623  -18.5970   20.3932 C   0  0  0  0  0  0  0  0  0  0  0  0
  -30.1775  -24.2237   20.0789 C   0  0  0  0  0  0  0  0  0  0  0  0
  -29.9690  -21.6249   21.0716 C   0  0  0  0  0  0  0  0  0  0  0  0
  -30.2200  -23.1377   19.2046 C   0  0  0  0  0  0  0  0  0  0  0  0
  -26.0188  -29.0066   20.5358 C   0  0  0  0  0  0  0  0  0  0  0  0
  -21.6858  -21.8637   21.2770 C   0  0  0  0  0  0  0  0  0  0  0  0
  -24.4275  -30.5102   20.3314 C   0  0  0  0  0  0  0  0  0  0  0  0
  -22.3724  -23.7453   22.2197 C   0  0  0  0  0  0  0  0  0  0  0  0
  -25.7199  -30.1065   18.2302 C   0  0  0  0  0  0  0  0  0  0  0  0
  -23.5502  -13.1939   20.2147 C   0  0  0  0  0  0  0  0  0  0  0  0
  -26.7698  -13.5861   20.2703 C   0  0  0  0  0  0  0  0  0  0  0  0
  -29.4259  -15.7241   20.4136 C   0  0  0  0  0  0  0  0  0  0  0  0
  -21.3255  -28.9651   25.2141 C   0  0  0  0  0  0  0  0  0  0  0  0
  -23.4328   -8.2228   21.3691 C   0  0  0  0  0  0  0  0  0  0  0  0
  -23.8830  -14.8851   18.3749 C   0  0  0  0  0  0  0  0  0  0  0  0
  -25.3760  -15.6158   20.8207 C   0  0  0  0  0  0  0  0  0  0  0  0
  -24.1755   -9.4485   21.8948 C   0  0  0  0  0  0  0  0  0  0  0  0
  -23.3276  -31.8774   24.7824 C   0  0  0  0  0  0  0  0  0  0  0  0
  -23.2025  -10.5968   22.1425 C   0  0  0  0  0  0  0  0  0  0  0  0
  -24.1899  -31.5509   23.5619 C   0  0  0  0  0  0  0  0  0  0  0  0
  -23.0922  -30.6452   25.6531 C   0  0  0  0  0  0  0  0  0  0  0  0
  -23.4047  -29.1513   23.7180 C   0  0  0  0  0  0  0  0  0  0  0  0
  -22.5095  -11.0228   20.8426 C   0  0  1  0  0  0  0  0  0  0  0  0
  -24.5282  -13.8294   19.2675 C   0  0  1  0  0  0  0  0  0  0  0  0
  -23.6232  -30.3507   22.7798 C   0  0  2  0  0  0  0  0  0  0  0  0
  -26.0001  -25.2734   25.3546 C   0  0  0  0  0  0  0  0  0  0  0  0
  -31.9343  -15.7477   20.4811 C   0  0  0  0  0  0  0  0  0  0  0  0
  -26.6964  -12.7421   23.2016 C   0  0  0  0  0  0  0  0  0  0  0  0
  -29.0022  -13.6832   23.4580 C   0  0  0  0  0  0  0  0  0  0  0  0
  -28.5984  -11.7870   21.8882 C   0  0  0  0  0  0  0  0  0  0  0  0
  -17.6409  -25.9830   23.7368 C   0  0  0  0  0  0  0  0  0  0  0  0
  -18.5972  -27.8994   22.4602 C   0  0  0  0  0  0  0  0  0  0  0  0
  -29.5953  -17.2490   17.8828 C   0  0  0  0  0  0  0  0  0  0  0  0
  -21.8005  -20.6119   20.4577 C   0  0  0  0  0  0  0  0  0  1  0  0
  -23.2418  -24.8751   22.6325 C   0  0  0  0  0  0  0  0  0  0  0  0
  -25.0760  -25.6632   24.2120 C   0  0  0  0  0  0  0  0  0  0  0  0
  -24.2122  -24.4846   23.7629 C   0  0  0  0  0  0  0  0  0  0  0  0
  -19.8450  -25.6912   22.5758 C   0  0  0  0  0  0  0  0  0  0  0  0
  -20.2908  -24.4511   23.3618 C   0  0  0  0  0  0  0  0  0  0  0  0
  -19.6358  -27.2411   24.6380 C   0  0  0  0  0  0  0  0  0  0  0  0
  -27.7673  -14.0965   21.2820 C   0  0  1  0  0  0  0  0  0  0  0  0
  -30.7008  -15.8031   19.5933 C   0  0  2  0  0  0  0  0  0  0  0  0
  -27.9947  -13.0935   22.4480 C   0  0  0  0  0  0  0  0  0  0  0  0
  -18.9560  -26.6985   23.3589 C   0  0  0  0  0  0  0  0  0  0  0  0
  -25.4614  -29.0707   21.7479 N   0  0  0  0  0  0  0  0  0  0  0  0
  -21.0869  -23.5626   22.5385 N   0  0  0  0  0  0  0  0  0  0  0  0
  -24.4971  -29.9936   21.5917 N   0  0  0  0  0  0  0  0  0  0  0  0
  -22.7482  -22.7173   21.4520 N   0  3  0  0  0  0  0  0  0  0  0  0
  -25.6213  -14.3675   20.0798 N   0  0  0  0  0  0  0  0  0  0  0  0
  -22.5529  -29.5439   24.8516 N   0  0  0  0  0  0  0  0  0  0  0  0
  -23.5150  -31.4488   20.0016 N   0  0  0  0  0  0  0  0  0  0  0  0
  -26.7656  -29.3762   17.6492 N   0  0  0  0  0  0  0  0  0  0  0  0
  -23.3991  -11.8318   20.0373 N   0  0  0  0  0  0  0  0  0  0  0  0
  -28.9753  -14.4265   20.5335 N   0  0  0  0  0  0  0  0  0  0  0  0
  -20.8833  -27.9315   24.3975 N   0  0  0  0  0  0  0  0  0  0  0  0
  -30.7383  -17.0737   18.8153 N   0  3  0  0  0  0  0  0  0  0  0  0
  -25.0945  -30.9423   17.5347 O   0  0  0  0  0  0  0  0  0  0  0  0
  -22.9764  -13.8876   21.0461 O   0  0  0  0  0  0  0  0  0  0  0  0
  -27.0044  -12.5366   19.6660 O   0  0  0  0  0  0  0  0  0  0  0  0
  -28.8859  -16.7141   20.9024 O   0  0  0  0  0  0  0  0  0  0  0  0
  -20.6696  -29.3451   26.1900 O   0  0  0  0  0  0  0  0  0  0  0  0
  -30.2817  -25.5143   19.5879 O   0  0  0  0  0  0  0  0  0  0  0  0
  -22.8051  -19.7735   21.0270 O   0  0  0  0  0  0  0  0  0  1  0  0
  -29.8704  -20.3771   21.5485 F   0  0  0  0  0  0  0  0  0  0  0  0
  -30.3620  -23.3364   17.8870 F   0  0  0  0  0  0  0  0  0  0  0  0
  1  2  1  0  0  0  0
  1  5  2  0  0  0  0
  2  6  2  0  0  0  0
  3  8  2  0  0  0  0
  3 16  1  0  0  0  0
  4  9  1  0  0  0  0
  4 16  2  0  0  0  0
  5 18  1  0  0  0  0
  6 20  1  0  0  0  0
  7 10  2  0  0  0  0
  7 19  1  0  0  0  0
  8 22  1  0  0  0  0
  9 22  2  0  0  0  0
 10 23  1  0  0  0  0
 11 12  2  0  0  0  0
 11 24  1  0  0  0  0
 12 25  1  0  0  0  0
 13 21  1  0  0  0  0
 13 23  2  0  0  0  0
 14 25  2  0  0  0  0
 14 26  1  0  0  0  0
 15 28  2  0  0  0  0
 15 68  1  0  0  0  0
 16 27  1  0  0  0  0
 17 27  1  0  0  0  0
 17 29  2  0  0  0  0
 17 31  1  0  0  0  0
 18 20  2  0  0  0  0
 18 36  1  0  0  0  0
 19 21  2  0  0  0  0
 19 37  1  0  0  0  0
 20 45  1  0  0  0  0
 21 38  1  0  0  0  0
 22 84  1  0  0  0  0
 23 85  1  0  0  0  0
 24 26  2  0  0  0  0
 24 84  1  0  0  0  0
 25 86  1  0  0  0  0
 26 87  1  0  0  0  0
 27 67  2  0  0  0  0
 28 56  1  0  0  0  0
 28 70  1  0  0  0  0
 29 69  1  0  0  0  0
 29 73  1  0  0  0  0
 30 57  1  0  0  0  0
 30 68  1  0  0  0  0
 30 70  2  0  0  0  0
 31 74  1  0  0  0  0
 31 79  2  0  0  0  0
 32 46  1  0  0  0  0
 32 75  1  0  0  0  0
 32 80  2  0  0  0  0
 33 63  1  0  0  0  0
 33 71  1  0  0  0  0
 33 81  2  0  0  0  0
 34 64  1  0  0  0  0
 34 76  1  0  0  0  0
 34 82  2  0  0  0  0
 35 72  1  0  0  0  0
 35 77  1  0  0  0  0
 35 83  2  0  0  0  0
 36 39  1  0  0  0  0
 37 46  1  0  0  0  0
 38 71  1  0  0  0  0
 39 41  1  0  0  0  0
 40 42  1  0  0  0  0
 40 43  1  0  0  0  0
 41 45  1  0  0  0  0
 42 47  1  0  0  0  0
 43 72  1  0  0  0  0
 44 47  1  0  0  0  0
 44 72  1  0  0  0  0
 45 75  1  0  0  0  0
 46 71  1  0  0  0  0
 47 69  1  0  0  0  0
 48 58  1  0  0  0  0
 49 64  1  0  0  0  0
 50 65  1  0  0  0  0
 51 65  1  0  0  0  0
 52 65  1  0  0  0  0
 53 66  1  0  0  0  0
 54 66  1  0  0  0  0
 55 78  1  0  0  0  0
 56 85  1  0  0  0  0
 57 59  1  0  0  0  0
 58 59  1  0  0  0  0
 60 61  1  0  0  0  0
 60 66  1  0  0  0  0
 61 68  1  0  0  0  0
 62 66  1  0  0  0  0
 62 77  1  0  0  0  0
 63 65  1  0  0  0  0
 63 76  1  0  0  0  0
 64 78  1  0  0  0  0
 67 69  1  0  0  0  0
M  CHG  2  70   1  78   1
M  ISO  4  35 100  56 101  77 100  85 101
M  END
> <Batch ID>
0044

> <Smiles>
CCCCc1nc([101CH2:1][101O:1]c2ccc3c(c2)CN(C(=O)C(NC(=O)C(C)NC)C(C)(C)C)C(C(=O)NC2CCCc4ccccc42)C3)cn1CCC(C)(C)C[100NH:0][100C:0](=O)N1CCCC(n2nc(-c3ccc(Oc4ccc(F)cc4F)cc3)c(C(N)=O)c2N)C1

> <Shape>
0.270

> <Color>
0.049

> <Negative vol penalty>
0.000

$$$$

  -OEChem-04052317173D

 83 91  0     1  0  0  0  0  0999 V2000
  -17.4655  -29.7969   24.5803 C   0  0  0  0  0  0  0  0  0  0  0  0
  -18.2432  -28.6875   24.8965 C   0  0  0  0  0  0  0  0  0  0  0  0
  -23.9391  -10.5299   23.2581 C   0  0  0  0  0  0  0  0  0  0  0  0
  -23.9914  -12.7569   24.1934 C   0  0  0  0  0  0  0  0  0  0  0  0
  -17.4646  -30.2981   23.2792 C   0  0  0  0  0  0  0  0  0  0  0  0
  -19.0196  -28.0780   23.9115 C   0  0  0  0  0  0  0  0  0  0  0  0
  -25.2176  -24.5909   23.0514 C   0  0  0  0  0  0  0  0  0  0  0  0
  -23.4210  -10.0388   24.4564 C   0  0  0  0  0  0  0  0  0  0  0  0
  -23.4733  -12.2658   25.3918 C   0  0  0  0  0  0  0  0  0  0  0  0
  -25.7224  -23.4086   22.5117 C   0  0  0  0  0  0  0  0  0  0  0  0
  -20.4581  -11.3427   26.6072 C   0  0  0  0  0  0  0  0  0  0  0  0
  -19.4251  -12.0621   27.2079 C   0  0  0  0  0  0  0  0  0  0  0  0
  -25.7034  -24.4096   20.3169 C   0  0  0  0  0  0  0  0  0  0  0  0
  -26.4339  -19.1485   19.9541 C   0  0  0  0  0  0  0  0  0  0  0  0
  -28.6187  -19.6225   20.8409 C   0  0  0  0  0  0  0  0  0  0  0  0
  -20.7904  -12.3795   29.1757 C   0  0  0  0  0  0  0  0  0  0  0  0
  -24.2243  -11.8890   23.1266 C   0  0  0  0  0  0  0  0  0  0  0  0
  -24.0348  -12.8786   20.7831 C   0  0  0  0  0  0  0  0  0  0  0  0
  -18.2488  -29.7003   22.2801 C   0  0  0  0  0  0  0  0  0  0  0  0
  -24.9412  -25.6895   22.2250 C   0  0  0  0  0  0  0  0  0  0  0  0
  -19.0281  -28.5709   22.5956 C   0  0  0  0  0  0  0  0  0  0  0  0
  -25.1975  -25.6055   20.8490 C   0  0  0  0  0  0  0  0  0  0  0  0
  -27.2645  -19.9257   20.7536 C   0  0  0  0  0  0  0  0  0  0  0  0
  -23.1880  -10.9067   25.5233 C   0  0  0  0  0  0  0  0  0  0  0  0
  -25.9627  -23.3169   21.1438 C   0  0  0  0  0  0  0  0  0  0  0  0
  -21.6573  -11.1416   27.2907 C   0  0  0  0  0  0  0  0  0  0  0  0
  -19.5912  -12.5805   28.4922 C   0  0  0  0  0  0  0  0  0  0  0  0
  -21.8234  -11.6600   28.5750 C   0  0  0  0  0  0  0  0  0  0  0  0
  -24.7601  -12.3968   21.8892 C   0  0  0  0  0  0  0  0  0  0  0  0
  -27.0019  -18.0874   19.2676 C   0  0  0  0  0  0  0  0  0  0  0  0
  -29.0889  -18.5401   20.1148 C   0  0  0  0  0  0  0  0  0  0  0  0
  -24.9973  -13.2395   19.8721 C   0  0  0  0  0  0  0  0  0  0  0  0
  -22.6177  -12.9901   20.5958 C   0  0  0  0  0  0  0  0  0  0  0  0
  -22.3242  -27.3312   21.4768 C   0  0  0  0  0  0  0  0  0  0  0  0
  -24.4367  -29.2362   19.9175 C   0  0  0  0  0  0  0  0  0  0  0  0
  -27.4816  -29.5597   18.4108 C   0  0  0  0  0  0  0  0  0  0  0  0
  -30.7294  -14.8776   20.4300 C   0  0  0  0  0  0  0  0  0  0  0  0
  -18.1788  -30.2490   20.8769 C   0  0  0  0  0  0  0  0  0  0  0  0
  -24.4221  -26.9667   22.8265 C   0  0  0  0  0  0  0  0  0  0  0  0
  -24.9368  -26.7633   19.9216 C   0  0  0  0  0  0  0  0  0  0  0  0
  -19.3184  -29.7736   19.9795 C   0  0  0  0  0  0  0  0  0  0  0  0
  -29.4558  -12.1626   18.5108 C   0  0  0  0  0  0  0  0  0  0  0  0
  -19.5186  -28.2682   20.1230 C   0  0  0  0  0  0  0  0  0  0  0  0
  -28.0425  -11.9582   19.0592 C   0  0  0  0  0  0  0  0  0  0  0  0
  -30.4369  -12.5576   19.6123 C   0  0  0  0  0  0  0  0  0  0  0  0
  -28.6153  -13.5206   20.9644 C   0  0  0  0  0  0  0  0  0  0  0  0
  -19.9028  -27.8974   21.5605 C   0  0  1  0  0  0  0  0  0  0  0  0
  -23.6929  -27.8490   21.8180 C   0  0  1  0  0  0  0  0  0  0  0  0
  -27.5786  -13.1756   19.8815 C   0  0  2  0  0  0  0  0  0  0  0  0
  -25.2219  -16.8687   16.0658 C   0  0  0  0  0  0  0  0  0  0  0  0
  -28.9109  -31.2262   17.1954 C   0  0  0  0  0  0  0  0  0  0  0  0
  -22.7196  -28.8838   17.4201 C   0  0  0  0  0  0  0  0  0  0  0  0
  -24.6412  -29.7402   16.0628 C   0  0  0  0  0  0  0  0  0  0  0  0
  -23.5765  -31.2059   17.7777 C   0  0  0  0  0  0  0  0  0  0  0  0
  -29.6116  -29.4010   20.4594 C   0  0  0  0  0  0  0  0  0  0  0  0
  -26.7020  -21.0877   21.5182 C   0  0  0  0  0  0  0  0  0  1  0  0
  -26.1412  -17.2326   18.3987 C   0  0  0  0  0  0  0  0  0  0  0  0
  -30.5364  -18.1849   20.1866 C   0  0  0  0  0  0  0  0  0  0  0  0
  -26.0718  -17.7598   16.9577 C   0  0  0  0  0  0  0  0  0  0  0  0
  -30.8702  -17.1945   21.3082 C   0  0  0  0  0  0  0  0  0  0  0  0
  -25.0205  -29.2700   18.5258 C   0  0  1  0  0  0  0  0  0  0  0  0
  -28.5645  -30.6152   18.5442 C   0  0  2  0  0  0  0  0  0  0  0  0
  -23.9926  -29.7523   17.4635 C   0  0  0  0  0  0  0  0  0  0  0  0
  -26.0814  -12.4456   21.7003 N   0  0  0  0  0  0  0  0  0  0  0  0
  -28.3127  -17.7621   19.3276 N   0  0  0  0  0  0  0  0  0  0  0  0
  -26.1940  -12.9623   20.4648 N   0  0  0  0  0  0  0  0  0  0  0  0
  -24.4234  -27.9883   20.5567 N   0  0  0  0  0  0  0  0  0  0  0  0
  -29.9388  -13.7191   20.3531 N   0  0  0  0  0  0  0  0  0  0  0  0
  -24.9283  -13.7636   18.6300 N   0  0  0  0  0  0  0  0  0  0  0  0
  -21.7719  -12.5737   21.6328 N   0  0  0  0  0  0  0  0  0  0  0  0
  -21.2977  -28.1965   21.8040 N   0  0  0  0  0  0  0  0  0  0  0  0
  -26.2242  -30.0901   18.6079 N   0  0  0  0  0  0  0  0  0  0  0  0
  -30.1800  -15.9343   21.1457 N   0  0  0  0  0  0  0  0  0  0  0  0
  -29.8018  -30.0179   19.1214 N   0  3  0  0  0  0  0  0  0  0  0  0
  -22.1160  -13.4303   19.5336 O   0  0  0  0  0  0  0  0  0  0  0  0
  -22.2082  -26.2291   20.9539 O   0  0  0  0  0  0  0  0  0  0  0  0
  -24.0146  -30.2798   20.4218 O   0  0  0  0  0  0  0  0  0  0  0  0
  -27.7264  -28.3831   18.1534 O   0  0  0  0  0  0  0  0  0  0  0  0
  -31.8401  -14.9657   19.8956 O   0  0  0  0  0  0  0  0  0  0  0  0
  -22.6822  -10.4279   26.6926 O   0  0  0  0  0  0  0  0  0  0  0  0
  -26.4547  -22.1639   20.6143 O   0  0  0  0  0  0  0  0  0  1  0  0
  -18.5997  -13.2726   29.0683 F   0  0  0  0  0  0  0  0  0  0  0  0
  -22.9737  -11.4711   29.2361 F   0  0  0  0  0  0  0  0  0  0  0  0
  1  2  1  0  0  0  0
  1  5  2  0  0  0  0
  2  6  2  0  0  0  0
  3  8  2  0  0  0  0
  3 17  1  0  0  0  0
  4  9  1  0  0  0  0
  4 17  2  0  0  0  0
  5 19  1  0  0  0  0
  6 21  1  0  0  0  0
  7 10  2  0  0  0  0
  7 20  1  0  0  0  0
  8 24  1  0  0  0  0
  9 24  2  0  0  0  0
 10 25  1  0  0  0  0
 11 12  2  0  0  0  0
 11 26  1  0  0  0  0
 12 27  1  0  0  0  0
 13 22  1  0  0  0  0
 13 25  2  0  0  0  0
 14 23  2  0  0  0  0
 14 30  1  0  0  0  0
 15 23  1  0  0  0  0
 15 31  2  0  0  0  0
 16 27  2  0  0  0  0
 16 28  1  0  0  0  0
 17 29  1  0  0  0  0
 18 29  1  0  0  0  0
 18 32  2  0  0  0  0
 18 33  1  0  0  0  0
 19 21  2  0  0  0  0
 19 38  1  0  0  0  0
 20 22  2  0  0  0  0
 20 39  1  0  0  0  0
 21 47  1  0  0  0  0
 22 40  1  0  0  0  0
 23 56  1  0  0  0  0
 24 80  1  0  0  0  0
 25 81  1  0  0  0  0
 26 28  2  0  0  0  0
 26 80  1  0  0  0  0
 27 82  1  0  0  0  0
 28 83  1  0  0  0  0
 29 64  2  0  0  0  0
 30 57  1  0  0  0  0
 30 65  2  0  0  0  0
 31 58  1  0  0  0  0
 31 65  1  0  0  0  0
 32 66  1  0  0  0  0
 32 69  1  0  0  0  0
 33 70  1  0  0  0  0
 33 75  2  0  0  0  0
 34 48  1  0  0  0  0
 34 71  1  0  0  0  0
 34 76  2  0  0  0  0
 35 61  1  0  0  0  0
 35 67  1  0  0  0  0
 35 77  2  0  0  0  0
 36 62  1  0  0  0  0
 36 72  1  0  0  0  0
 36 78  2  0  0  0  0
 37 68  1  0  0  0  0
 37 73  1  0  0  0  0
 37 79  2  0  0  0  0
 38 41  1  0  0  0  0
 39 48  1  0  0  0  0
 40 67  1  0  0  0  0
 41 43  1  0  0  0  0
 42 44  1  0  0  0  0
 42 45  1  0  0  0  0
 43 47  1  0  0  0  0
 44 49  1  0  0  0  0
 45 68  1  0  0  0  0
 46 49  1  0  0  0  0
 46 68  1  0  0  0  0
 47 71  1  0  0  0  0
 48 67  1  0  0  0  0
 49 66  1  0  0  0  0
 50 59  1  0  0  0  0
 51 62  1  0  0  0  0
 52 63  1  0  0  0  0
 53 63  1  0  0  0  0
 54 63  1  0  0  0  0
 55 74  1  0  0  0  0
 56 81  1  0  0  0  0
 57 59  1  0  0  0  0
 58 60  1  0  0  0  0
 60 73  1  0  0  0  0
 61 63  1  0  0  0  0
 61 72  1  0  0  0  0
 62 74  1  0  0  0  0
 64 66  1  0  0  0  0
M  CHG  1  74   1
M  ISO  4  37 100  56 101  73 100  81 101
M  END
> <Batch ID>
0044

> <Smiles>
CCCc1cc([101CH2:1][101O:1]c2ccc3c(c2)CN(C(=O)C(NC(=O)C(C)NC)C(C)(C)C)C(C(=O)NC2CCCc4ccccc42)C3)cc(CC[100NH:0][100C:0](=O)N2CCCC(n3nc(-c4ccc(Oc5ccc(F)cc5F)cc4)c(C(N)=O)c3N)C2)n1

> <Shape>
0.208

> <Color>
0.094

> <Negative vol penalty>
0.000

$$$$

  -OEChem-04052317173D

 82 90  0     1  0  0  0  0  0999 V2000
  -27.3672  -25.1339   13.3045 C   0  0  0  0  0  0  0  0  0  0  0  0
  -26.5959  -24.9682   14.4504 C   0  0  0  0  0  0  0  0  0  0  0  0
  -25.1931  -14.4123   19.1021 C   0  0  0  0  0  0  0  0  0  0  0  0
  -23.3687  -14.2760   20.6801 C   0  0  0  0  0  0  0  0  0  0  0  0
  -28.6679  -25.6257   13.4062 C   0  0  0  0  0  0  0  0  0  0  0  0
  -27.1253  -25.2933   15.6988 C   0  0  0  0  0  0  0  0  0  0  0  0
  -23.8754  -27.9149   18.5642 C   0  0  0  0  0  0  0  0  0  0  0  0
  -25.6423  -13.1573   19.5130 C   0  0  0  0  0  0  0  0  0  0  0  0
  -23.8179  -13.0210   21.0910 C   0  0  0  0  0  0  0  0  0  0  0  0
  -22.8571  -27.1978   19.1907 C   0  0  0  0  0  0  0  0  0  0  0  0
  -23.6758   -9.8363   19.9693 C   0  0  0  0  0  0  0  0  0  0  0  0
  -22.7252   -8.8268   20.1200 C   0  0  0  0  0  0  0  0  0  0  0  0
  -24.1157  -27.2204   21.2486 C   0  0  0  0  0  0  0  0  0  0  0  0
  -18.7094  -25.7034   21.6561 C   0  0  0  0  0  0  0  0  0  0  0  0
  -20.0973  -23.7413   21.5644 C   0  0  0  0  0  0  0  0  0  0  0  0
  -23.3222   -8.6127   22.4513 C   0  0  0  0  0  0  0  0  0  0  0  0
  -24.0563  -14.9717   19.6857 C   0  0  0  0  0  0  0  0  0  0  0  0
  -22.6775  -16.5480   18.2291 C   0  0  0  0  0  0  0  0  0  0  0  0
  -29.2101  -25.9661   14.6555 C   0  0  0  0  0  0  0  0  0  0  0  0
  -25.0283  -28.2814   19.2734 C   0  0  0  0  0  0  0  0  0  0  0  0
  -28.4349  -25.7889   15.8174 C   0  0  0  0  0  0  0  0  0  0  0  0
  -25.1460  -27.9444   20.6294 C   0  0  0  0  0  0  0  0  0  0  0  0
  -19.8625  -25.0658   21.2122 C   0  0  0  0  0  0  0  0  0  0  0  0
  -24.9547  -12.4617   20.5074 C   0  0  0  0  0  0  0  0  0  0  0  0
  -22.9784  -26.8479   20.5324 C   0  0  0  0  0  0  0  0  0  0  0  0
  -24.4497  -10.2340   21.0596 C   0  0  0  0  0  0  0  0  0  0  0  0
  -22.5483   -8.2150   21.3610 C   0  0  0  0  0  0  0  0  0  0  0  0
  -24.2729   -9.6222   22.3006 C   0  0  0  0  0  0  0  0  0  0  0  0
  -23.5921  -16.2683   19.2620 C   0  0  0  0  0  0  0  0  0  0  0  0
  -17.8297  -24.9783   22.4436 C   0  0  0  0  0  0  0  0  0  0  0  0
  -19.1555  -23.1042   22.3561 C   0  0  0  0  0  0  0  0  0  0  0  0
  -22.5714  -17.9174   18.2259 C   0  0  0  0  0  0  0  0  0  0  0  0
  -21.9856  -15.6503   17.3509 C   0  0  0  0  0  0  0  0  0  0  0  0
  -28.1282  -27.6312   19.0056 C   0  0  0  0  0  0  0  0  0  0  0  0
  -28.3941  -29.8156   21.3889 C   0  0  0  0  0  0  0  0  0  0  0  0
  -26.9257  -31.4423   24.0051 C   0  0  0  0  0  0  0  0  0  0  0  0
  -23.4501  -22.0847   22.4345 C   0  0  0  0  0  0  0  0  0  0  0  0
  -30.6372  -26.4495   14.7201 C   0  0  0  0  0  0  0  0  0  0  0  0
  -26.1057  -29.0780   18.5902 C   0  0  0  0  0  0  0  0  0  0  0  0
  -26.3544  -28.3315   21.4407 C   0  0  0  0  0  0  0  0  0  0  0  0
  -30.9927  -27.1236   16.0428 C   0  0  0  0  0  0  0  0  0  0  0  0
  -25.0609  -21.8683   19.2667 C   0  0  0  0  0  0  0  0  0  0  0  0
  -30.4922  -26.2901   17.2182 C   0  0  0  0  0  0  0  0  0  0  0  0
  -24.7846  -20.4338   18.8131 C   0  0  0  0  0  0  0  0  0  0  0  0
  -25.2844  -21.9501   20.7751 C   0  0  0  0  0  0  0  0  0  0  0  0
  -23.9351  -19.9203   21.1397 C   0  0  0  0  0  0  0  0  0  0  0  0
  -28.9651  -26.1536   17.1871 C   0  0  1  0  0  0  0  0  0  0  0  0
  -27.4648  -28.9528   19.2720 C   0  0  1  0  0  0  0  0  0  0  0  0
  -23.6478  -19.7954   19.6337 C   0  0  2  0  0  0  0  0  0  0  0  0
  -16.5810  -25.6297   22.9367 C   0  0  0  0  0  0  0  0  0  0  0  0
  -27.4057  -33.1434   25.7865 C   0  0  0  0  0  0  0  0  0  0  0  0
  -29.9568  -27.7213   22.9644 C   0  0  0  0  0  0  0  0  0  0  0  0
  -29.5813  -29.0926   25.0252 C   0  0  0  0  0  0  0  0  0  0  0  0
  -30.8766  -30.0419   23.1163 C   0  0  0  0  0  0  0  0  0  0  0  0
  -24.8451  -33.2780   22.9756 C   0  0  0  0  0  0  0  0  0  0  0  0
  -20.8490  -25.8037   20.3557 C   0  0  0  0  0  0  0  0  0  1  0  0
  -19.3763  -21.6832   22.7547 C   0  0  0  0  0  0  0  0  0  0  0  0
  -20.1500  -21.5046   24.0755 C   0  0  0  0  0  0  0  0  0  0  0  0
  -21.5694  -22.0680   24.0537 C   0  0  0  0  0  0  0  0  0  0  0  0
  -28.3737  -29.7599   22.8974 C   0  0  1  0  0  0  0  0  0  0  0  0
  -26.8791  -32.9129   24.3785 C   0  0  2  0  0  0  0  0  0  0  0  0
  -29.6751  -29.1448   23.4853 C   0  0  0  0  0  0  0  0  0  0  0  0
  -24.0356  -17.3713   19.8708 N   0  0  0  0  0  0  0  0  0  0  0  0
  -18.0237  -23.6906   22.8063 N   0  0  0  0  0  0  0  0  0  0  0  0
  -23.3970  -18.3575   19.2183 N   0  0  0  0  0  0  0  0  0  0  0  0
  -27.3837  -29.1045   20.7262 N   0  0  0  0  0  0  0  0  0  0  0  0
  -24.1703  -21.3286   21.4951 N   0  0  0  0  0  0  0  0  0  0  0  0
  -21.8534  -18.7759   17.4711 N   0  0  0  0  0  0  0  0  0  0  0  0
  -22.2100  -14.2739   17.4903 N   0  0  0  0  0  0  0  0  0  0  0  0
  -28.3394  -27.3676   17.6657 N   0  0  0  0  0  0  0  0  0  0  0  0
  -28.0961  -31.1179   23.3523 N   0  0  0  0  0  0  0  0  0  0  0  0
  -22.4058  -21.4215   23.0673 N   0  0  0  0  0  0  0  0  0  0  0  0
  -25.4795  -33.4203   24.3114 N   0  3  0  0  0  0  0  0  0  0  0  0
  -21.2045  -16.0576   16.4580 O   0  0  0  0  0  0  0  0  0  0  0  0
  -28.4276  -26.9051   19.9462 O   0  0  0  0  0  0  0  0  0  0  0  0
  -29.2698  -30.4719   20.8198 O   0  0  0  0  0  0  0  0  0  0  0  0
  -26.0165  -30.6587   24.2697 O   0  0  0  0  0  0  0  0  0  0  0  0
  -23.7145  -23.2652   22.6866 O   0  0  0  0  0  0  0  0  0  0  0  0
  -25.3926  -11.2369   20.9085 O   0  0  0  0  0  0  0  0  0  0  0  0
  -21.9863  -26.1474   21.1462 O   0  0  0  0  0  0  0  0  0  1  0  0
  -21.6343   -7.2467   21.5060 F   0  0  0  0  0  0  0  0  0  0  0  0
  -25.0125  -10.0008   23.3519 F   0  0  0  0  0  0  0  0  0  0  0  0
  1  2  1  0  0  0  0
  1  5  2  0  0  0  0
  2  6  2  0  0  0  0
  3  8  2  0  0  0  0
  3 17  1  0  0  0  0
  4  9  1  0  0  0  0
  4 17  2  0  0  0  0
  5 19  1  0  0  0  0
  6 21  1  0  0  0  0
  7 10  2  0  0  0  0
  7 20  1  0  0  0  0
  8 24  1  0  0  0  0
  9 24  2  0  0  0  0
 10 25  1  0  0  0  0
 11 12  2  0  0  0  0
 11 26  1  0  0  0  0
 12 27  1  0  0  0  0
 13 22  1  0  0  0  0
 13 25  2  0  0  0  0
 14 23  1  0  0  0  0
 14 30  2  0  0  0  0
 15 23  2  0  0  0  0
 15 31  1  0  0  0  0
 16 27  2  0  0  0  0
 16 28  1  0  0  0  0
 17 29  1  0  0  0  0
 18 29  1  0  0  0  0
 18 32  2  0  0  0  0
 18 33  1  0  0  0  0
 19 21  2  0  0  0  0
 19 38  1  0  0  0  0
 20 22  2  0  0  0  0
 20 39  1  0  0  0  0
 21 47  1  0  0  0  0
 22 40  1  0  0  0  0
 23 56  1  0  0  0  0
 24 79  1  0  0  0  0
 25 80  1  0  0  0  0
 26 28  2  0  0  0  0
 26 79  1  0  0  0  0
 27 81  1  0  0  0  0
 28 82  1  0  0  0  0
 29 63  2  0  0  0  0
 30 50  1  0  0  0  0
 30 64  1  0  0  0  0
 31 57  1  0  0  0  0
 31 64  2  0  0  0  0
 32 65  1  0  0  0  0
 32 68  1  0  0  0  0
 33 69  1  0  0  0  0
 33 74  2  0  0  0  0
 34 48  1  0  0  0  0
 34 70  1  0  0  0  0
 34 75  2  0  0  0  0
 35 60  1  0  0  0  0
 35 66  1  0  0  0  0
 35 76  2  0  0  0  0
 36 61  1  0  0  0  0
 36 71  1  0  0  0  0
 36 77  2  0  0  0  0
 37 67  1  0  0  0  0
 37 72  1  0  0  0  0
 37 78  2  0  0  0  0
 38 41  1  0  0  0  0
 39 48  1  0  0  0  0
 40 66  1  0  0  0  0
 41 43  1  0  0  0  0
 42 44  1  0  0  0  0
 42 45  1  0  0  0  0
 43 47  1  0  0  0  0
 44 49  1  0  0  0  0
 45 67  1  0  0  0  0
 46 49  1  0  0  0  0
 46 67  1  0  0  0  0
 47 70  1  0  0  0  0
 48 66  1  0  0  0  0
 49 65  1  0  0  0  0
 51 61  1  0  0  0  0
 52 62  1  0  0  0  0
 53 62  1  0  0  0  0
 54 62  1  0  0  0  0
 55 73  1  0  0  0  0
 56 80  1  0  0  0  0
 57 58  1  0  0  0  0
 58 59  1  0  0  0  0
 59 72  1  0  0  0  0
 60 62  1  0  0  0  0
 60 71  1  0  0  0  0
 61 73  1  0  0  0  0
 63 65  1  0  0  0  0
M  CHG  1  73   1
M  ISO  4  37 100  56 101  72 100  80 101
M  END
> <Batch ID>
0044

> <Smiles>
CNC(C)C(=O)NC(C(=O)N1Cc2cc([101O:1][101CH2:1]c3cc(C)nc(CCC[100NH:0][100C:0](=O)N4CCCC(n5nc(-c6ccc(Oc7ccc(F)cc7F)cc6)c(C(N)=O)c5N)C4)c3)ccc2CC1C(=O)NC1CCCc2ccccc21)C(C)(C)C

> <Shape>
0.177

> <Color>
0.082

> <Negative vol penalty>
0.000

$$$$

  -OEChem-04052317173D

 79 87  0     1  0  0  0  0  0999 V2000
  -27.0857  -23.7050   26.4451 C   0  0  0  0  0  0  0  0  0  0  0  0
  -27.5679  -23.8598   25.1493 C   0  0  0  0  0  0  0  0  0  0  0  0
  -26.5685  -12.4677   21.4723 C   0  0  0  0  0  0  0  0  0  0  0  0
  -25.9517  -13.5161   19.3848 C   0  0  0  0  0  0  0  0  0  0  0  0
  -25.7696  -24.0548   26.7443 C   0  0  0  0  0  0  0  0  0  0  0  0
  -26.7339  -24.3635   24.1518 C   0  0  0  0  0  0  0  0  0  0  0  0
  -29.0219  -27.8571   21.2873 C   0  0  0  0  0  0  0  0  0  0  0  0
  -25.3101  -11.8703   21.5442 C   0  0  0  0  0  0  0  0  0  0  0  0
  -24.6933  -12.9187   19.4567 C   0  0  0  0  0  0  0  0  0  0  0  0
  -29.9040  -27.4002   20.3091 C   0  0  0  0  0  0  0  0  0  0  0  0
  -22.3869   -9.7806   22.0947 C   0  0  0  0  0  0  0  0  0  0  0  0
  -22.3283   -8.4322   22.4468 C   0  0  0  0  0  0  0  0  0  0  0  0
  -28.1888  -27.6868   18.6372 C   0  0  0  0  0  0  0  0  0  0  0  0
  -23.6689   -7.8700   20.5171 C   0  0  0  0  0  0  0  0  0  0  0  0
  -30.2079  -21.9612   17.8887 C   0  0  0  0  0  0  0  0  0  0  0  0
  -26.8893  -13.2906   20.3927 C   0  0  0  0  0  0  0  0  0  0  0  0
  -29.3462  -13.3835   19.7124 C   0  0  0  0  0  0  0  0  0  0  0  0
  -24.9220  -24.5721   25.7521 C   0  0  0  0  0  0  0  0  0  0  0  0
  -27.7110  -28.2225   20.9490 C   0  0  0  0  0  0  0  0  0  0  0  0
  -25.4048  -24.7193   24.4377 C   0  0  0  0  0  0  0  0  0  0  0  0
  -27.2928  -28.1504   19.6126 C   0  0  0  0  0  0  0  0  0  0  0  0
  -24.3725  -12.0958   20.5364 C   0  0  0  0  0  0  0  0  0  0  0  0
  -29.4866  -27.3123   18.9843 C   0  0  0  0  0  0  0  0  0  0  0  0
  -23.0865  -10.1737   20.9538 C   0  0  0  0  0  0  0  0  0  0  0  0
  -22.9693   -7.4769   21.6580 C   0  0  0  0  0  0  0  0  0  0  0  0
  -23.7276   -9.2185   20.1650 C   0  0  0  0  0  0  0  0  0  0  0  0
  -28.1889  -13.9084   20.3181 C   0  0  0  0  0  0  0  0  0  0  0  0
  -29.8942  -23.2823   17.6906 C   0  0  0  0  0  0  0  0  0  0  0  0
  -30.3050  -14.3465   19.9117 C   0  0  0  0  0  0  0  0  0  0  0  0
  -29.5374  -12.1369   19.0303 C   0  0  0  0  0  0  0  0  0  0  0  0
  -24.8155  -27.1811   21.7460 C   0  0  0  0  0  0  0  0  0  0  0  0
  -29.9085  -20.2662   20.8670 C   0  0  0  0  0  0  0  0  0  0  0  0
  -23.8428  -29.7502   20.0209 C   0  0  0  0  0  0  0  0  0  0  0  0
  -24.5301  -32.0215   17.5683 C   0  0  0  0  0  0  0  0  0  0  0  0
  -23.4928  -24.8919   26.1127 C   0  0  0  0  0  0  0  0  0  0  0  0
  -26.7800  -28.7386   22.0117 C   0  0  0  0  0  0  0  0  0  0  0  0
  -25.9022  -28.5498   19.1941 C   0  0  0  0  0  0  0  0  0  0  0  0
  -22.7867  -25.7700   25.0829 C   0  0  0  0  0  0  0  0  0  0  0  0
  -31.5480  -17.8361   22.9278 C   0  0  0  0  0  0  0  0  0  0  0  0
  -23.0430  -25.2496   23.6721 C   0  0  0  0  0  0  0  0  0  0  0  0
  -30.9565  -16.5082   22.4566 C   0  0  0  0  0  0  0  0  0  0  0  0
  -30.5150  -18.9573   22.8753 C   0  0  0  0  0  0  0  0  0  0  0  0
  -29.2856  -17.8075   21.0620 C   0  0  0  0  0  0  0  0  0  0  0  0
  -24.5382  -25.2857   23.3339 C   0  0  1  0  0  0  0  0  0  0  0  0
  -25.3080  -28.5964   21.6369 C   0  0  1  0  0  0  0  0  0  0  0  0
  -30.3047  -16.6543   21.0701 C   0  0  2  0  0  0  0  0  0  0  0  0
  -23.5263  -33.9761   16.3561 C   0  0  0  0  0  0  0  0  0  0  0  0
  -22.0867  -27.8456   18.4090 C   0  0  0  0  0  0  0  0  0  0  0  0
  -21.8656  -29.6327   16.6696 C   0  0  0  0  0  0  0  0  0  0  0  0
  -21.0084  -30.0290   18.9785 C   0  0  0  0  0  0  0  0  0  0  0  0
  -26.6733  -33.8424   18.4901 C   0  0  0  0  0  0  0  0  0  0  0  0
  -30.4829  -24.2605   16.7056 C   0  0  0  0  0  0  0  0  0  0  0  0
  -29.2626  -20.2815   19.5044 C   0  0  0  0  0  0  0  0  0  0  0  0
  -31.6856  -25.0343   17.2500 C   0  0  0  0  0  0  0  0  0  0  0  0
  -31.3417  -25.9292   18.4350 C   0  0  0  0  0  0  0  0  0  1  0  0
  -23.5034  -29.9979   18.5709 C   0  0  1  0  0  0  0  0  0  0  0  0
  -24.3898  -33.5325   17.5267 C   0  0  2  0  0  0  0  0  0  0  0  0
  -22.1417  -29.3669   18.1649 C   0  0  0  0  0  0  0  0  0  0  0  0
  -28.3918  -15.1114   20.8618 N   0  0  0  0  0  0  0  0  0  0  0  0
  -28.9008  -23.6531   18.5538 N   0  0  0  0  0  0  0  0  0  0  0  0
  -28.5840  -22.5940   19.2908 N   0  0  0  0  0  0  0  0  0  0  0  0
  -29.3690  -21.5807   18.8905 N   0  0  0  0  0  0  0  0  0  0  0  0
  -29.6878  -15.3504   20.5984 N   0  0  0  0  0  0  0  0  0  0  0  0
  -25.0270  -29.0422   20.2707 N   0  0  0  0  0  0  0  0  0  0  0  0
  -29.9028  -19.0491   21.5486 N   0  0  0  0  0  0  0  0  0  0  0  0
  -31.6073  -14.4241   19.5650 N   0  0  0  0  0  0  0  0  0  0  0  0
  -28.4468  -11.2642   18.9151 N   0  0  0  0  0  0  0  0  0  0  0  0
  -24.9503  -26.6341   23.0078 N   0  0  0  0  0  0  0  0  0  0  0  0
  -23.5746  -31.4420   18.3760 N   0  0  0  0  0  0  0  0  0  0  0  0
  -25.7285  -34.1735   17.3926 N   0  3  0  0  0  0  0  0  0  0  0  0
  -30.6468  -11.7996   18.5519 O   0  0  0  0  0  0  0  0  0  0  0  0
  -24.3464  -26.6268   20.7589 O   0  0  0  0  0  0  0  0  0  0  0  0
  -30.4054  -21.3053   21.3093 O   0  0  0  0  0  0  0  0  0  0  0  0
  -23.0889  -30.1756   20.8997 O   0  0  0  0  0  0  0  0  0  0  0  0
  -25.3979  -31.4157   16.9435 O   0  0  0  0  0  0  0  0  0  0  0  0
  -23.1445  -11.5129   20.6060 O   0  0  0  0  0  0  0  0  0  0  0  0
  -30.3454  -26.8661   18.0276 O   0  0  0  0  0  0  0  0  0  1  0  0
  -22.9142   -6.1822   21.9971 F   0  0  0  0  0  0  0  0  0  0  0  0
  -24.4022   -9.5902   19.0685 F   0  0  0  0  0  0  0  0  0  0  0  0
  1  2  1  0  0  0  0
  1  5  2  0  0  0  0
  2  6  2  0  0  0  0
  3  8  2  0  0  0  0
  3 16  1  0  0  0  0
  4  9  1  0  0  0  0
  4 16  2  0  0  0  0
  5 18  1  0  0  0  0
  6 20  1  0  0  0  0
  7 10  2  0  0  0  0
  7 19  1  0  0  0  0
  8 22  1  0  0  0  0
  9 22  2  0  0  0  0
 10 23  1  0  0  0  0
 11 12  2  0  0  0  0
 11 24  1  0  0  0  0
 12 25  1  0  0  0  0
 13 21  1  0  0  0  0
 13 23  2  0  0  0  0
 14 25  2  0  0  0  0
 14 26  1  0  0  0  0
 15 28  2  0  0  0  0
 15 62  1  0  0  0  0
 16 27  1  0  0  0  0
 17 27  1  0  0  0  0
 17 29  2  0  0  0  0
 17 30  1  0  0  0  0
 18 20  2  0  0  0  0
 18 35  1  0  0  0  0
 19 21  2  0  0  0  0
 19 36  1  0  0  0  0
 20 44  1  0  0  0  0
 21 37  1  0  0  0  0
 22 76  1  0  0  0  0
 23 77  1  0  0  0  0
 24 26  2  0  0  0  0
 24 76  1  0  0  0  0
 25 78  1  0  0  0  0
 26 79  1  0  0  0  0
 27 59  2  0  0  0  0
 28 52  1  0  0  0  0
 28 60  1  0  0  0  0
 29 63  1  0  0  0  0
 29 66  1  0  0  0  0
 30 67  1  0  0  0  0
 30 71  2  0  0  0  0
 31 45  1  0  0  0  0
 31 68  1  0  0  0  0
 31 72  2  0  0  0  0
 32 53  1  0  0  0  0
 32 65  1  0  0  0  0
 32 73  2  0  0  0  0
 33 56  1  0  0  0  0
 33 64  1  0  0  0  0
 33 74  2  0  0  0  0
 34 57  1  0  0  0  0
 34 69  1  0  0  0  0
 34 75  2  0  0  0  0
 35 38  1  0  0  0  0
 36 45  1  0  0  0  0
 37 64  1  0  0  0  0
 38 40  1  0  0  0  0
 39 41  1  0  0  0  0
 39 42  1  0  0  0  0
 40 44  1  0  0  0  0
 41 46  1  0  0  0  0
 42 65  1  0  0  0  0
 43 46  1  0  0  0  0
 43 65  1  0  0  0  0
 44 68  1  0  0  0  0
 45 64  1  0  0  0  0
 46 63  1  0  0  0  0
 47 57  1  0  0  0  0
 48 58  1  0  0  0  0
 49 58  1  0  0  0  0
 50 58  1  0  0  0  0
 51 70  1  0  0  0  0
 52 54  1  0  0  0  0
 53 62  1  0  0  0  0
 54 55  1  0  0  0  0
 55 77  1  0  0  0  0
 56 58  1  0  0  0  0
 56 69  1  0  0  0  0
 57 70  1  0  0  0  0
 59 63  1  0  0  0  0
 60 61  2  0  0  0  0
 61 62  1  0  0  0  0
M  CHG  1  70   1
M  ISO  4  32 100  53 100  55 101  77 101
M  END
> <Batch ID>
0044

> <Smiles>
CNC(C)C(=O)NC(C(=O)N1Cc2cc([101O:1][101CH2:1]CCc3cn([100CH2:0][100C:0](=O)N4CCCC(n5nc(-c6ccc(Oc7ccc(F)cc7F)cc6)c(C(N)=O)c5N)C4)nn3)ccc2CC1C(=O)NC1CCCc2ccccc21)C(C)(C)C

> <Shape>
0.264

> <Color>
0.084

> <Negative vol penalty>
0.000

$$$$

  -OEChem-04052317173D

 81 89  0     1  0  0  0  0  0999 V2000
  -30.3620  -10.8415   18.8027 C   0  0  0  0  0  0  0  0  0  0  0  0
  -30.2370  -12.2176   18.6407 C   0  0  0  0  0  0  0  0  0  0  0  0
  -22.1829  -24.0821   21.7585 C   0  0  0  0  0  0  0  0  0  0  0  0
  -20.2920  -25.4650   22.3497 C   0  0  0  0  0  0  0  0  0  0  0  0
  -29.2827  -10.0954   19.2742 C   0  0  0  0  0  0  0  0  0  0  0  0
  -29.0321  -12.8481   18.9490 C   0  0  0  0  0  0  0  0  0  0  0  0
  -29.6937  -17.1123   21.5993 C   0  0  0  0  0  0  0  0  0  0  0  0
  -21.7239  -23.0860   22.6203 C   0  0  0  0  0  0  0  0  0  0  0  0
  -19.8330  -24.4688   23.2115 C   0  0  0  0  0  0  0  0  0  0  0  0
  -30.0973  -18.2447   20.8932 C   0  0  0  0  0  0  0  0  0  0  0  0
  -17.9704  -22.1433   25.2950 C   0  0  0  0  0  0  0  0  0  0  0  0
  -16.6121  -21.8283   25.2582 C   0  0  0  0  0  0  0  0  0  0  0  0
  -28.0826  -28.5595   19.4037 C   0  0  0  0  0  0  0  0  0  0  0  0
  -27.8207  -19.0421   20.8825 C   0  0  0  0  0  0  0  0  0  0  0  0
  -16.8170  -21.2165   22.9299 C   0  0  0  0  0  0  0  0  0  0  0  0
  -28.4239  -28.0548   21.7028 C   0  0  0  0  0  0  0  0  0  0  0  0
  -21.4670  -25.2717   21.6233 C   0  0  0  0  0  0  0  0  0  0  0  0
  -27.9320  -28.9196   20.7384 C   0  0  0  0  0  0  0  0  0  0  0  0
  -21.6280  -26.4567   19.3700 C   0  0  0  0  0  0  0  0  0  0  0  0
  -28.0671  -10.7185   19.5976 C   0  0  0  0  0  0  0  0  0  0  0  0
  -28.3465  -16.9308   21.9433 C   0  0  0  0  0  0  0  0  0  0  0  0
  -27.9351  -12.1094   19.4240 C   0  0  0  0  0  0  0  0  0  0  0  0
  -27.4029  -17.9078   21.5952 C   0  0  0  0  0  0  0  0  0  0  0  0
  -28.7116  -27.3626   19.0790 C   0  0  0  0  0  0  0  0  0  0  0  0
  -20.5489  -23.2793   23.3467 C   0  0  0  0  0  0  0  0  0  0  0  0
  -29.1603  -19.2084   20.5321 C   0  0  0  0  0  0  0  0  0  0  0  0
  -18.7521  -21.9950   24.1492 C   0  0  0  0  0  0  0  0  0  0  0  0
  -16.0354  -21.3648   24.0757 C   0  0  0  0  0  0  0  0  0  0  0  0
  -18.1754  -21.5315   22.9667 C   0  0  0  0  0  0  0  0  0  0  0  0
  -21.9409  -26.3013   20.7337 C   0  0  0  0  0  0  0  0  0  0  0  0
  -29.1687  -26.5675   20.1177 C   0  0  0  0  0  0  0  0  0  0  0  0
  -22.3243  -27.5757   18.9833 C   0  0  0  0  0  0  0  0  0  0  0  0
  -27.2732  -30.1770   21.1149 C   0  0  0  0  0  0  0  0  0  0  0  0
  -20.7833  -25.6609   18.5281 C   0  0  0  0  0  0  0  0  0  0  0  0
  -26.1261  -14.7650   21.2484 C   0  0  0  0  0  0  0  0  0  0  0  0
  -24.3773  -16.4334   23.4119 C   0  0  0  0  0  0  0  0  0  0  0  0
  -23.8331  -19.3818   25.0422 C   0  0  0  0  0  0  0  0  0  0  0  0
  -26.9134   -9.8636   20.0590 C   0  0  0  0  0  0  0  0  0  0  0  0
  -27.9316  -15.7167   22.7284 C   0  0  0  0  0  0  0  0  0  0  0  0
  -25.9477  -17.7700   21.9584 C   0  0  0  0  0  0  0  0  0  0  0  0
  -25.7905  -10.6603   20.7184 C   0  0  0  0  0  0  0  0  0  0  0  0
  -24.0678  -31.6908   20.6959 C   0  0  0  0  0  0  0  0  0  0  0  0
  -25.4479  -11.8907   19.8843 C   0  0  0  0  0  0  0  0  0  0  0  0
  -23.1246  -30.4954   20.5494 C   0  0  0  0  0  0  0  0  0  0  0  0
  -25.1995  -31.3987   21.6780 C   0  0  0  0  0  0  0  0  0  0  0  0
  -25.0285  -28.9748   21.2303 C   0  0  0  0  0  0  0  0  0  0  0  0
  -26.6522  -12.8332   19.7711 C   0  0  1  0  0  0  0  0  0  0  0  0
  -26.4500  -15.3855   22.5780 C   0  0  1  0  0  0  0  0  0  0  0  0
  -23.9021  -29.2096   20.2105 C   0  0  1  0  0  0  0  0  0  0  0  0
  -28.8759  -26.9711   17.6515 C   0  0  0  0  0  0  0  0  0  0  0  0
  -22.3072  -20.4506   26.7234 C   0  0  0  0  0  0  0  0  0  0  0  0
  -22.2044  -16.6736   21.2833 C   0  0  0  0  0  0  0  0  0  0  0  0
  -21.1694  -18.5014   22.6457 C   0  0  0  0  0  0  0  0  0  0  0  0
  -21.3587  -16.1997   23.5887 C   0  0  0  0  0  0  0  0  0  0  0  0
  -26.0659  -19.8931   26.9162 C   0  0  0  0  0  0  0  0  0  0  0  0
  -29.8580  -25.2586   19.8254 C   0  0  0  0  0  0  0  0  0  0  0  0
  -28.9780  -24.0275   20.0689 C   0  0  0  0  0  0  0  0  0  0  0  0
  -29.7177  -22.7084   19.8413 C   0  0  0  0  0  0  0  0  0  0  0  0
  -28.8023  -21.5103   20.0536 C   0  0  0  0  0  0  0  0  0  1  0  0
  -23.4397  -17.6147   23.3459 C   0  0  1  0  0  0  0  0  0  0  0  0
  -23.6093  -19.6944   26.5107 C   0  0  2  0  0  0  0  0  0  0  0  0
  -22.0701  -17.2493   22.7072 C   0  0  0  0  0  0  0  0  0  0  0  0
  -29.0406  -26.8839   21.4259 N   0  0  0  0  0  0  0  0  0  0  0  0
  -22.7716  -27.2458   21.1830 N   0  0  0  0  0  0  0  0  0  0  0  0
  -22.9865  -28.0055   20.0955 N   0  0  0  0  0  0  0  0  0  0  0  0
  -25.8911  -30.1616   21.3174 N   0  0  0  0  0  0  0  0  0  0  0  0
  -25.5904  -16.5623   22.7207 N   0  0  0  0  0  0  0  0  0  0  0  0
  -22.4287  -28.2240   17.8038 N   0  0  0  0  0  0  0  0  0  0  0  0
  -20.1434  -24.5459   19.0863 N   0  0  0  0  0  0  0  0  0  0  0  0
  -26.8144  -13.5947   20.9911 N   0  0  0  0  0  0  0  0  0  0  0  0
  -23.3450  -18.1371   24.7048 N   0  0  0  0  0  0  0  0  0  0  0  0
  -24.7274  -20.5257   27.0396 N   0  3  0  0  0  0  0  0  0  0  0  0
  -28.0010  -31.1639   21.2121 O   0  0  0  0  0  0  0  0  0  0  0  0
  -20.6144  -25.9210   17.3126 O   0  0  0  0  0  0  0  0  0  0  0  0
  -25.3108  -15.3069   20.5113 O   0  0  0  0  0  0  0  0  0  0  0  0
  -24.0487  -15.4359   24.0589 O   0  0  0  0  0  0  0  0  0  0  0  0
  -24.3823  -20.1650   24.2706 O   0  0  0  0  0  0  0  0  0  0  0  0
  -20.1006  -22.3074   24.1875 O   0  0  0  0  0  0  0  0  0  0  0  0
  -29.5515  -20.3143   19.8423 O   0  0  0  0  0  0  0  0  0  1  0  0
  -14.7314  -21.0609   24.0410 F   0  0  0  0  0  0  0  0  0  0  0  0
  -18.9214  -21.3859   21.8631 F   0  0  0  0  0  0  0  0  0  0  0  0
  1  2  1  0  0  0  0
  1  5  2  0  0  0  0
  2  6  2  0  0  0  0
  3  8  2  0  0  0  0
  3 17  1  0  0  0  0
  4  9  1  0  0  0  0
  4 17  2  0  0  0  0
  5 20  1  0  0  0  0
  6 22  1  0  0  0  0
  7 10  2  0  0  0  0
  7 21  1  0  0  0  0
  8 25  1  0  0  0  0
  9 25  2  0  0  0  0
 10 26  1  0  0  0  0
 11 12  2  0  0  0  0
 11 27  1  0  0  0  0
 12 28  1  0  0  0  0
 13 18  2  0  0  0  0
 13 24  1  0  0  0  0
 14 23  1  0  0  0  0
 14 26  2  0  0  0  0
 15 28  2  0  0  0  0
 15 29  1  0  0  0  0
 16 18  1  0  0  0  0
 16 63  2  0  0  0  0
 17 30  1  0  0  0  0
 18 33  1  0  0  0  0
 19 30  1  0  0  0  0
 19 32  2  0  0  0  0
 19 34  1  0  0  0  0
 20 22  2  0  0  0  0
 20 38  1  0  0  0  0
 21 23  2  0  0  0  0
 21 39  1  0  0  0  0
 22 47  1  0  0  0  0
 23 40  1  0  0  0  0
 24 31  2  0  0  0  0
 24 50  1  0  0  0  0
 25 78  1  0  0  0  0
 26 79  1  0  0  0  0
 27 29  2  0  0  0  0
 27 78  1  0  0  0  0
 28 80  1  0  0  0  0
 29 81  1  0  0  0  0
 30 64  2  0  0  0  0
 31 56  1  0  0  0  0
 31 63  1  0  0  0  0
 32 65  1  0  0  0  0
 32 68  1  0  0  0  0
 33 66  1  0  0  0  0
 33 73  2  0  0  0  0
 34 69  1  0  0  0  0
 34 74  2  0  0  0  0
 35 48  1  0  0  0  0
 35 70  1  0  0  0  0
 35 75  2  0  0  0  0
 36 60  1  0  0  0  0
 36 67  1  0  0  0  0
 36 76  2  0  0  0  0
 37 61  1  0  0  0  0
 37 71  1  0  0  0  0
 37 77  2  0  0  0  0
 38 41  1  0  0  0  0
 39 48  1  0  0  0  0
 40 67  1  0  0  0  0
 41 43  1  0  0  0  0
 42 44  1  0  0  0  0
 42 45  1  0  0  0  0
 43 47  1  0  0  0  0
 44 49  1  0  0  0  0
 45 66  1  0  0  0  0
 46 49  1  0  0  0  0
 46 66  1  0  0  0  0
 47 70  1  0  0  0  0
 48 67  1  0  0  0  0
 49 65  1  0  0  0  0
 51 61  1  0  0  0  0
 52 62  1  0  0  0  0
 53 62  1  0  0  0  0
 54 62  1  0  0  0  0
 55 72  1  0  0  0  0
 56 57  1  0  0  0  0
 57 58  1  0  0  0  0
 58 59  1  0  0  0  0
 59 79  1  0  0  0  0
 60 62  1  0  0  0  0
 60 71  1  0  0  0  0
 61 72  1  0  0  0  0
 64 65  1  0  0  0  0
M  CHG  1  72   1
M  ISO  4  18 100  33 100  59 101  79 101
M  END
> <Batch ID>
0044

> <Smiles>
CNC(C)C(=O)NC(C(=O)N1Cc2cc([101O:1][101CH2:1]CCCc3nc[100c:0]([100C:0](=O)N4CCCC(n5nc(-c6ccc(Oc7ccc(F)cc7F)cc6)c(C(N)=O)c5N)C4)cc3C)ccc2CC1C(=O)NC1CCCc2ccccc21)C(C)(C)C

> <Shape>
0.199

> <Color>
0.061

> <Negative vol penalty>
0.000

$$$$

  -OEChem-04052317173D

 82 90  0     1  0  0  0  0  0999 V2000
  -30.1397  -32.0274   11.1497 C   0  0  0  0  0  0  0  0  0  0  0  0
  -29.9669  -30.7741   11.7285 C   0  0  0  0  0  0  0  0  0  0  0  0
  -23.1346   -9.7735   19.8662 C   0  0  0  0  0  0  0  0  0  0  0  0
  -23.9632   -9.6641   22.1330 C   0  0  0  0  0  0  0  0  0  0  0  0
  -30.2748  -33.1549   11.9587 C   0  0  0  0  0  0  0  0  0  0  0  0
  -29.9302  -30.6475   13.1166 C   0  0  0  0  0  0  0  0  0  0  0  0
  -26.5678  -26.6917   16.3649 C   0  0  0  0  0  0  0  0  0  0  0  0
  -22.4489   -8.5742   20.0589 C   0  0  0  0  0  0  0  0  0  0  0  0
  -23.2774   -8.4648   22.3258 C   0  0  0  0  0  0  0  0  0  0  0  0
  -26.8706  -25.4635   16.9510 C   0  0  0  0  0  0  0  0  0  0  0  0
  -20.1064   -7.4851   22.9625 C   0  0  0  0  0  0  0  0  0  0  0  0
  -19.3880   -7.3345   24.1485 C   0  0  0  0  0  0  0  0  0  0  0  0
  -27.2689  -26.5728   19.0558 C   0  0  0  0  0  0  0  0  0  0  0  0
  -20.7333   -5.4106   24.7192 C   0  0  0  0  0  0  0  0  0  0  0  0
  -29.0827  -21.5704   19.2142 C   0  0  0  0  0  0  0  0  0  0  0  0
  -23.8918  -10.3184   20.9032 C   0  0  0  0  0  0  0  0  0  0  0  0
  -24.1210  -12.8588   20.9430 C   0  0  0  0  0  0  0  0  0  0  0  0
  -30.2300  -33.0433   13.3573 C   0  0  0  0  0  0  0  0  0  0  0  0
  -26.6239  -27.8730   17.1184 C   0  0  0  0  0  0  0  0  0  0  0  0
  -30.0661  -31.7744   13.9451 C   0  0  0  0  0  0  0  0  0  0  0  0
  -26.9638  -27.8144   18.4775 C   0  0  0  0  0  0  0  0  0  0  0  0
  -22.5203   -7.9199   21.2887 C   0  0  0  0  0  0  0  0  0  0  0  0
  -27.2240  -25.4042   18.2959 C   0  0  0  0  0  0  0  0  0  0  0  0
  -21.1383   -6.5984   22.6547 C   0  0  0  0  0  0  0  0  0  0  0  0
  -19.7014   -6.2973   25.0269 C   0  0  0  0  0  0  0  0  0  0  0  0
  -21.4518   -5.5612   23.5331 C   0  0  0  0  0  0  0  0  0  0  0  0
  -24.6008  -11.5570   20.7046 C   0  0  0  0  0  0  0  0  0  0  0  0
  -27.7803  -21.8367   18.8533 C   0  0  0  0  0  0  0  0  0  0  0  0
  -27.0919  -19.9487   19.9449 C   0  0  0  0  0  0  0  0  0  0  0  0
  -28.3945  -19.6821   20.3051 C   0  0  0  0  0  0  0  0  0  0  0  0
  -25.1684  -13.6788   20.6007 C   0  0  0  0  0  0  0  0  0  0  0  0
  -22.8430  -13.2885   21.4304 C   0  0  0  0  0  0  0  0  0  0  0  0
  -28.3318  -30.5497   16.9692 C   0  0  0  0  0  0  0  0  0  0  0  0
  -26.3531  -31.4846   19.3636 C   0  0  0  0  0  0  0  0  0  0  0  0
  -24.2798  -30.5928   21.9234 C   0  0  0  0  0  0  0  0  0  0  0  0
  -30.6065  -14.9283   20.7053 C   0  0  0  0  0  0  0  0  0  0  0  0
  -30.4279  -34.2843   14.1913 C   0  0  0  0  0  0  0  0  0  0  0  0
  -26.2685  -29.1868   16.4781 C   0  0  0  0  0  0  0  0  0  0  0  0
  -27.0191  -29.0513   19.3352 C   0  0  0  0  0  0  0  0  0  0  0  0
  -30.0026  -34.1139   15.6474 C   0  0  0  0  0  0  0  0  0  0  0  0
  -29.5000  -12.6569   18.1967 C   0  0  0  0  0  0  0  0  0  0  0  0
  -30.5489  -32.8071   16.2137 C   0  0  0  0  0  0  0  0  0  0  0  0
  -28.0904  -12.2712   18.6485 C   0  0  0  0  0  0  0  0  0  0  0  0
  -30.4431  -12.8394   19.3839 C   0  0  0  0  0  0  0  0  0  0  0  0
  -28.5549  -13.3918   20.8683 C   0  0  0  0  0  0  0  0  0  0  0  0
  -29.9962  -31.5997   15.4467 C   0  0  1  0  0  0  0  0  0  0  0  0
  -26.8577  -30.3878   17.2115 C   0  0  1  0  0  0  0  0  0  0  0  0
  -27.5536  -13.2513   19.7089 C   0  0  2  0  0  0  0  0  0  0  0  0
  -25.9742  -19.0491   20.3490 C   0  0  0  0  0  0  0  0  0  0  0  0
  -22.8363  -31.5786   23.7240 C   0  0  0  0  0  0  0  0  0  0  0  0
  -28.8449  -32.1466   20.9954 C   0  0  0  0  0  0  0  0  0  0  0  0
  -27.4039  -32.2060   23.0419 C   0  0  0  0  0  0  0  0  0  0  0  0
  -26.9979  -33.8220   21.1855 C   0  0  0  0  0  0  0  0  0  0  0  0
  -21.8398  -29.3355   20.8169 C   0  0  0  0  0  0  0  0  0  0  0  0
  -28.7467  -18.4818   21.1157 C   0  0  0  0  0  0  0  0  0  0  0  0
  -27.4497  -23.0510   18.0362 C   0  0  0  0  0  0  0  0  0  1  0  0
  -30.2587  -18.1947   21.2085 C   0  0  0  0  0  0  0  0  0  0  0  0
  -30.6177  -16.9938   22.0810 C   0  0  0  0  0  0  0  0  0  0  0  0
  -26.3792  -31.3910   20.8701 C   0  0  1  0  0  0  0  0  0  0  0  0
  -22.8831  -31.0561   22.2966 C   0  0  2  0  0  0  0  0  0  0  0  0
  -27.4074  -32.3681   21.5068 C   0  0  0  0  0  0  0  0  0  0  0  0
  -29.4132  -20.4883   19.9465 N   0  0  0  0  0  0  0  0  0  0  0  0
  -25.8552  -11.5456   20.2461 N   0  0  0  0  0  0  0  0  0  0  0  0
  -26.7615  -21.0306   19.2122 N   0  0  0  0  0  0  0  0  0  0  0  0
  -26.1726  -12.8505   20.1936 N   0  0  0  0  0  0  0  0  0  0  0  0
  -26.6691  -30.3128   18.6616 N   0  0  0  0  0  0  0  0  0  0  0  0
  -29.8762  -13.7818   20.3515 N   0  0  0  0  0  0  0  0  0  0  0  0
  -25.3191  -15.0203   20.6111 N   0  0  0  0  0  0  0  0  0  0  0  0
  -21.8818  -12.3147   21.7339 N   0  0  0  0  0  0  0  0  0  0  0  0
  -28.6389  -31.3159   15.8610 N   0  0  0  0  0  0  0  0  0  0  0  0
  -25.0052  -31.5956   21.3157 N   0  0  0  0  0  0  0  0  0  0  0  0
  -29.9940  -15.7720   21.6238 N   0  0  0  0  0  0  0  0  0  0  0  0
  -21.9144  -29.9301   22.1762 N   0  3  0  0  0  0  0  0  0  0  0  0
  -22.5559  -14.5009   21.5764 O   0  0  0  0  0  0  0  0  0  0  0  0
  -29.1312  -30.0201   17.7321 O   0  0  0  0  0  0  0  0  0  0  0  0
  -26.0561  -32.5561   18.8294 O   0  0  0  0  0  0  0  0  0  0  0  0
  -24.6877  -29.4562   22.1519 O   0  0  0  0  0  0  0  0  0  0  0  0
  -31.7195  -15.1839   20.2332 O   0  0  0  0  0  0  0  0  0  0  0  0
  -21.8511   -6.7497   21.4772 O   0  0  0  0  0  0  0  0  0  0  0  0
  -27.5206  -24.2067   18.8703 O   0  0  0  0  0  0  0  0  0  1  0  0
  -19.0124   -6.1537   26.1666 F   0  0  0  0  0  0  0  0  0  0  0  0
  -22.4428   -4.7069   23.2434 F   0  0  0  0  0  0  0  0  0  0  0  0
  1  2  1  0  0  0  0
  1  5  2  0  0  0  0
  2  6  2  0  0  0  0
  3  8  2  0  0  0  0
  3 16  1  0  0  0  0
  4  9  1  0  0  0  0
  4 16  2  0  0  0  0
  5 18  1  0  0  0  0
  6 20  1  0  0  0  0
  7 10  2  0  0  0  0
  7 19  1  0  0  0  0
  8 22  1  0  0  0  0
  9 22  2  0  0  0  0
 10 23  1  0  0  0  0
 11 12  2  0  0  0  0
 11 24  1  0  0  0  0
 12 25  1  0  0  0  0
 13 21  1  0  0  0  0
 13 23  2  0  0  0  0
 14 25  2  0  0  0  0
 14 26  1  0  0  0  0
 15 28  1  0  0  0  0
 15 62  2  0  0  0  0
 16 27  1  0  0  0  0
 17 27  1  0  0  0  0
 17 31  2  0  0  0  0
 17 32  1  0  0  0  0
 18 20  2  0  0  0  0
 18 37  1  0  0  0  0
 19 21  2  0  0  0  0
 19 38  1  0  0  0  0
 20 46  1  0  0  0  0
 21 39  1  0  0  0  0
 22 79  1  0  0  0  0
 23 80  1  0  0  0  0
 24 26  2  0  0  0  0
 24 79  1  0  0  0  0
 25 81  1  0  0  0  0
 26 82  1  0  0  0  0
 27 63  2  0  0  0  0
 28 56  1  0  0  0  0
 28 64  2  0  0  0  0
 29 30  2  0  0  0  0
 29 49  1  0  0  0  0
 29 64  1  0  0  0  0
 30 55  1  0  0  0  0
 30 62  1  0  0  0  0
 31 65  1  0  0  0  0
 31 68  1  0  0  0  0
 32 69  1  0  0  0  0
 32 74  2  0  0  0  0
 33 47  1  0  0  0  0
 33 70  1  0  0  0  0
 33 75  2  0  0  0  0
 34 59  1  0  0  0  0
 34 66  1  0  0  0  0
 34 76  2  0  0  0  0
 35 60  1  0  0  0  0
 35 71  1  0  0  0  0
 35 77  2  0  0  0  0
 36 67  1  0  0  0  0
 36 72  1  0  0  0  0
 36 78  2  0  0  0  0
 37 40  1  0  0  0  0
 38 47  1  0  0  0  0
 39 66  1  0  0  0  0
 40 42  1  0  0  0  0
 41 43  1  0  0  0  0
 41 44  1  0  0  0  0
 42 46  1  0  0  0  0
 43 48  1  0  0  0  0
 44 67  1  0  0  0  0
 45 48  1  0  0  0  0
 45 67  1  0  0  0  0
 46 70  1  0  0  0  0
 47 66  1  0  0  0  0
 48 65  1  0  0  0  0
 50 60  1  0  0  0  0
 51 61  1  0  0  0  0
 52 61  1  0  0  0  0
 53 61  1  0  0  0  0
 54 73  1  0  0  0  0
 55 57  1  0  0  0  0
 56 80  1  0  0  0  0
 57 58  1  0  0  0  0
 58 72  1  0  0  0  0
 59 61  1  0  0  0  0
 59 71  1  0  0  0  0
 60 73  1  0  0  0  0
 63 65  1  0  0  0  0
M  CHG  1  73   1
M  ISO  4  36 100  56 101  72 100  80 101
M  END
> <Batch ID>
0044

> <Smiles>
CNC(C)C(=O)NC(C(=O)N1Cc2cc([101O:1][101CH2:1]c3cnc(CCC[100NH:0][100C:0](=O)N4CCCC(n5nc(-c6ccc(Oc7ccc(F)cc7F)cc6)c(C(N)=O)c5N)C4)c(C)n3)ccc2CC1C(=O)NC1CCCc2ccccc21)C(C)(C)C

> <Shape>
0.286

> <Color>
0.218

> <Negative vol penalty>
0.000

$$$$

  -OEChem-04052317173D

 83 91  0     1  0  0  0  0  0999 V2000
  -30.1308  -24.9078   13.8943 C   0  0  0  0  0  0  0  0  0  0  0  0
  -29.6220  -24.3924   15.0820 C   0  0  0  0  0  0  0  0  0  0  0  0
  -23.1937   -9.6893   21.0054 C   0  0  0  0  0  0  0  0  0  0  0  0
  -23.8236  -10.4916   23.1955 C   0  0  0  0  0  0  0  0  0  0  0  0
  -30.5489  -26.2366   13.8348 C   0  0  0  0  0  0  0  0  0  0  0  0
  -29.5318  -25.2052   16.2115 C   0  0  0  0  0  0  0  0  0  0  0  0
  -25.0978  -24.7159   18.6083 C   0  0  0  0  0  0  0  0  0  0  0  0
  -22.4706   -8.6517   21.5935 C   0  0  0  0  0  0  0  0  0  0  0  0
  -23.1004   -9.4540   23.7837 C   0  0  0  0  0  0  0  0  0  0  0  0
  -24.9303  -23.5904   19.4139 C   0  0  0  0  0  0  0  0  0  0  0  0
  -19.4699   -8.2476   23.0988 C   0  0  0  0  0  0  0  0  0  0  0  0
  -18.1941   -7.9832   22.6008 C   0  0  0  0  0  0  0  0  0  0  0  0
  -25.4175  -24.9220   21.3654 C   0  0  0  0  0  0  0  0  0  0  0  0
  -18.8826   -5.7393   22.0282 C   0  0  0  0  0  0  0  0  0  0  0  0
  -27.9759  -20.3743   20.2255 C   0  0  0  0  0  0  0  0  0  0  0  0
  -23.8703  -10.6093   21.8064 C   0  0  0  0  0  0  0  0  0  0  0  0
  -24.1455  -12.9644   20.8655 C   0  0  0  0  0  0  0  0  0  0  0  0
  -30.4548  -27.0688   14.9614 C   0  0  0  0  0  0  0  0  0  0  0  0
  -25.4377  -25.9527   19.1752 C   0  0  0  0  0  0  0  0  0  0  0  0
  -29.9502  -26.5460   16.1674 C   0  0  0  0  0  0  0  0  0  0  0  0
  -25.5862  -26.0623   20.5652 C   0  0  0  0  0  0  0  0  0  0  0  0
  -22.4239   -8.5340   22.9826 C   0  0  0  0  0  0  0  0  0  0  0  0
  -25.0929  -23.6927   20.7924 C   0  0  0  0  0  0  0  0  0  0  0  0
  -20.4521   -7.2579   23.0614 C   0  0  0  0  0  0  0  0  0  0  0  0
  -17.9004   -6.7291   22.0656 C   0  0  0  0  0  0  0  0  0  0  0  0
  -20.1585   -6.0037   22.5262 C   0  0  0  0  0  0  0  0  0  0  0  0
  -24.6180  -11.6811   21.1995 C   0  0  0  0  0  0  0  0  0  0  0  0
  -28.0799  -19.0012   20.2623 C   0  0  0  0  0  0  0  0  0  0  0  0
  -26.8116  -18.9562   22.1648 C   0  0  0  0  0  0  0  0  0  0  0  0
  -26.7083  -20.3294   22.1283 C   0  0  0  0  0  0  0  0  0  0  0  0
  -25.2342  -13.6001   20.3204 C   0  0  0  0  0  0  0  0  0  0  0  0
  -22.8392  -13.5313   21.0330 C   0  0  0  0  0  0  0  0  0  0  0  0
  -27.9068  -27.9373   18.9136 C   0  0  0  0  0  0  0  0  0  0  0  0
  -26.0664  -29.8508   20.7773 C   0  0  0  0  0  0  0  0  0  0  0  0
  -23.5428  -30.1118   23.0600 C   0  0  0  0  0  0  0  0  0  0  0  0
  -30.6672  -14.8738   20.3944 C   0  0  0  0  0  0  0  0  0  0  0  0
  -30.9633  -28.4852   14.8620 C   0  0  0  0  0  0  0  0  0  0  0  0
  -25.5886  -27.1631   18.2952 C   0  0  0  0  0  0  0  0  0  0  0  0
  -25.9310  -27.3716   21.2250 C   0  0  0  0  0  0  0  0  0  0  0  0
  -30.4859  -29.3849   15.9991 C   0  0  0  0  0  0  0  0  0  0  0  0
  -29.7340  -11.7830   18.8935 C   0  0  0  0  0  0  0  0  0  0  0  0
  -30.6560  -28.6829   17.3427 C   0  0  0  0  0  0  0  0  0  0  0  0
  -28.2837  -11.5841   19.3371 C   0  0  0  0  0  0  0  0  0  0  0  0
  -30.5758  -12.4315   19.9902 C   0  0  0  0  0  0  0  0  0  0  0  0
  -28.5792  -13.4934   20.9699 C   0  0  0  0  0  0  0  0  0  0  0  0
  -29.8136  -27.4032   17.4070 C   0  0  1  0  0  0  0  0  0  0  0  0
  -26.4394  -28.2598   18.9283 C   0  0  1  0  0  0  0  0  0  0  0  0
  -27.6779  -12.8935   19.8772 C   0  0  2  0  0  0  0  0  0  0  0  0
  -26.1642  -18.1566   23.2433 C   0  0  0  0  0  0  0  0  0  0  0  0
  -22.2898  -31.8029   24.4265 C   0  0  0  0  0  0  0  0  0  0  0  0
  -28.4390  -30.0645   22.6839 C   0  0  0  0  0  0  0  0  0  0  0  0
  -26.8688  -30.9343   24.4293 C   0  0  0  0  0  0  0  0  0  0  0  0
  -27.2045  -32.2072   22.3104 C   0  0  0  0  0  0  0  0  0  0  0  0
  -20.9723  -29.4267   21.7631 C   0  0  0  0  0  0  0  0  0  0  0  0
  -28.8487  -18.2736   19.2157 C   0  0  0  0  0  0  0  0  0  0  0  0
  -25.9348  -21.0887   23.1788 C   0  0  0  0  0  0  0  0  0  0  0  0
  -30.3423  -18.0697   19.5431 C   0  0  0  0  0  0  0  0  0  0  0  0
  -30.6018  -17.3136   20.8444 C   0  0  0  0  0  0  0  0  0  0  0  0
  -25.6950  -22.5421   22.7847 C   0  0  0  0  0  0  0  0  0  1  0  0
  -25.8915  -30.0471   22.2639 C   0  0  1  0  0  0  0  0  0  0  0  0
  -22.3304  -31.0232   23.1214 C   0  0  2  0  0  0  0  0  0  0  0  0
  -27.0963  -30.7881   22.9096 C   0  0  0  0  0  0  0  0  0  0  0  0
  -27.2883  -21.0630   21.1579 N   0  0  0  0  0  0  0  0  0  0  0  0
  -25.9065  -11.5099   20.8922 N   0  0  0  0  0  0  0  0  0  0  0  0
  -27.4995  -18.2675   21.2326 N   0  0  0  0  0  0  0  0  0  0  0  0
  -26.2529  -12.6940   20.3593 N   0  0  0  0  0  0  0  0  0  0  0  0
  -26.0744  -28.5250   20.3214 N   0  0  0  0  0  0  0  0  0  0  0  0
  -29.9472  -13.6694   20.4575 N   0  0  0  0  0  0  0  0  0  0  0  0
  -25.4099  -14.8400   19.8164 N   0  0  0  0  0  0  0  0  0  0  0  0
  -21.8366  -12.7402   21.6104 N   0  0  0  0  0  0  0  0  0  0  0  0
  -28.4236  -27.7248   17.6498 N   0  0  0  0  0  0  0  0  0  0  0  0
  -24.6108  -30.7236   22.4385 N   0  0  0  0  0  0  0  0  0  0  0  0
  -29.9954  -16.0009   20.8516 N   0  0  0  0  0  0  0  0  0  0  0  0
  -21.0765  -30.2255   23.0113 N   0  3  0  0  0  0  0  0  0  0  0  0
  -22.5648  -14.6990   20.6662 O   0  0  0  0  0  0  0  0  0  0  0  0
  -28.5248  -27.8864   19.9706 O   0  0  0  0  0  0  0  0  0  0  0  0
  -26.1841  -30.8377   20.0468 O   0  0  0  0  0  0  0  0  0  0  0  0
  -23.5436  -28.9724   23.5208 O   0  0  0  0  0  0  0  0  0  0  0  0
  -31.8212  -14.9406   19.9577 O   0  0  0  0  0  0  0  0  0  0  0  0
  -21.7181   -7.5217   23.5568 O   0  0  0  0  0  0  0  0  0  0  0  0
  -24.9306  -22.5955   21.5809 O   0  0  0  0  0  0  0  0  0  1  0  0
  -16.6748   -6.4748   21.5889 F   0  0  0  0  0  0  0  0  0  0  0  0
  -21.0976   -5.0485   22.4886 F   0  0  0  0  0  0  0  0  0  0  0  0
  1  2  1  0  0  0  0
  1  5  2  0  0  0  0
  2  6  2  0  0  0  0
  3  8  2  0  0  0  0
  3 16  1  0  0  0  0
  4  9  1  0  0  0  0
  4 16  2  0  0  0  0
  5 18  1  0  0  0  0
  6 20  1  0  0  0  0
  7 10  2  0  0  0  0
  7 19  1  0  0  0  0
  8 22  1  0  0  0  0
  9 22  2  0  0  0  0
 10 23  1  0  0  0  0
 11 12  2  0  0  0  0
 11 24  1  0  0  0  0
 12 25  1  0  0  0  0
 13 21  1  0  0  0  0
 13 23  2  0  0  0  0
 14 25  2  0  0  0  0
 14 26  1  0  0  0  0
 15 28  1  0  0  0  0
 15 63  2  0  0  0  0
 16 27  1  0  0  0  0
 17 27  1  0  0  0  0
 17 31  2  0  0  0  0
 17 32  1  0  0  0  0
 18 20  2  0  0  0  0
 18 37  1  0  0  0  0
 19 21  2  0  0  0  0
 19 38  1  0  0  0  0
 20 46  1  0  0  0  0
 21 39  1  0  0  0  0
 22 80  1  0  0  0  0
 23 81  1  0  0  0  0
 24 26  2  0  0  0  0
 24 80  1  0  0  0  0
 25 82  1  0  0  0  0
 26 83  1  0  0  0  0
 27 64  2  0  0  0  0
 28 55  1  0  0  0  0
 28 65  2  0  0  0  0
 29 30  2  0  0  0  0
 29 49  1  0  0  0  0
 29 65  1  0  0  0  0
 30 56  1  0  0  0  0
 30 63  1  0  0  0  0
 31 66  1  0  0  0  0
 31 69  1  0  0  0  0
 32 70  1  0  0  0  0
 32 75  2  0  0  0  0
 33 47  1  0  0  0  0
 33 71  1  0  0  0  0
 33 76  2  0  0  0  0
 34 60  1  0  0  0  0
 34 67  1  0  0  0  0
 34 77  2  0  0  0  0
 35 61  1  0  0  0  0
 35 72  1  0  0  0  0
 35 78  2  0  0  0  0
 36 68  1  0  0  0  0
 36 73  1  0  0  0  0
 36 79  2  0  0  0  0
 37 40  1  0  0  0  0
 38 47  1  0  0  0  0
 39 67  1  0  0  0  0
 40 42  1  0  0  0  0
 41 43  1  0  0  0  0
 41 44  1  0  0  0  0
 42 46  1  0  0  0  0
 43 48  1  0  0  0  0
 44 68  1  0  0  0  0
 45 48  1  0  0  0  0
 45 68  1  0  0  0  0
 46 71  1  0  0  0  0
 47 67  1  0  0  0  0
 48 66  1  0  0  0  0
 50 61  1  0  0  0  0
 51 62  1  0  0  0  0
 52 62  1  0  0  0  0
 53 62  1  0  0  0  0
 54 74  1  0  0  0  0
 55 57  1  0  0  0  0
 56 59  1  0  0  0  0
 57 58  1  0  0  0  0
 58 73  1  0  0  0  0
 59 81  1  0  0  0  0
 60 62  1  0  0  0  0
 60 72  1  0  0  0  0
 61 74  1  0  0  0  0
 64 66  1  0  0  0  0
M  CHG  1  74   1
M  ISO  4  36 100  59 101  73 100  81 101
M  END
> <Batch ID>
0044

> <Smiles>
CNC(C)C(=O)NC(C(=O)N1Cc2cc([101O:1][101CH2:1]Cc3ncc(CCC[100NH:0][100C:0](=O)N4CCCC(n5nc(-c6ccc(Oc7ccc(F)cc7F)cc6)c(C(N)=O)c5N)C4)nc3C)ccc2CC1C(=O)NC1CCCc2ccccc21)C(C)(C)C

> <Shape>
0.283

> <Color>
0.183

> <Negative vol penalty>
0.000

$$$$

  -OEChem-04052317173D

 84 92  0     1  0  0  0  0  0999 V2000
  -29.9439  -30.9947   22.5079 C   0  0  0  0  0  0  0  0  0  0  0  0
  -29.3635  -29.7348   22.4021 C   0  0  0  0  0  0  0  0  0  0  0  0
  -23.8346  -12.2661   20.3998 C   0  0  0  0  0  0  0  0  0  0  0  0
  -24.4969  -12.9198   22.6294 C   0  0  0  0  0  0  0  0  0  0  0  0
  -29.1910  -32.0706   22.9765 C   0  0  0  0  0  0  0  0  0  0  0  0
  -28.0301  -29.5498   22.7659 C   0  0  0  0  0  0  0  0  0  0  0  0
  -25.4678  -26.7618   19.4034 C   0  0  0  0  0  0  0  0  0  0  0  0
  -23.7164  -10.9423   20.8230 C   0  0  0  0  0  0  0  0  0  0  0  0
  -24.3787  -11.5960   23.0526 C   0  0  0  0  0  0  0  0  0  0  0  0
  -25.6619  -25.3817   19.4409 C   0  0  0  0  0  0  0  0  0  0  0  0
  -21.4802   -9.0613   22.5242 C   0  0  0  0  0  0  0  0  0  0  0  0
  -20.3483   -8.3514   22.1239 C   0  0  0  0  0  0  0  0  0  0  0  0
  -23.5990  -25.1309   20.6659 C   0  0  0  0  0  0  0  0  0  0  0  0
  -21.7558   -6.7390   21.0031 C   0  0  0  0  0  0  0  0  0  0  0  0
  -28.1776  -24.0080   24.7119 C   0  0  0  0  0  0  0  0  0  0  0  0
  -24.2249  -13.2549   21.3029 C   0  0  0  0  0  0  0  0  0  0  0  0
  -23.3453  -15.6108   20.8745 C   0  0  0  0  0  0  0  0  0  0  0  0
  -27.8450  -31.9008   23.3370 C   0  0  0  0  0  0  0  0  0  0  0  0
  -24.3414  -27.3388   20.0074 C   0  0  0  0  0  0  0  0  0  0  0  0
  -27.2589  -30.6242   23.2410 C   0  0  0  0  0  0  0  0  0  0  0  0
  -23.3916  -26.5183   20.6325 C   0  0  0  0  0  0  0  0  0  0  0  0
  -23.9884  -10.6072   22.1494 C   0  0  0  0  0  0  0  0  0  0  0  0
  -24.7289  -24.5663   20.0747 C   0  0  0  0  0  0  0  0  0  0  0  0
  -22.7500   -8.6101   22.1639 C   0  0  0  0  0  0  0  0  0  0  0  0
  -20.4860   -7.1902   21.3633 C   0  0  0  0  0  0  0  0  0  0  0  0
  -22.8878   -7.4489   21.4034 C   0  0  0  0  0  0  0  0  0  0  0  0
  -24.3478  -14.6225   20.8662 C   0  0  0  0  0  0  0  0  0  0  0  0
  -26.9539  -24.4236   24.2352 C   0  0  0  0  0  0  0  0  0  0  0  0
  -27.9077  -21.9988   23.6537 C   0  0  0  0  0  0  0  0  0  0  0  0
  -26.6836  -22.4140   23.1775 C   0  0  0  0  0  0  0  0  0  0  0  0
  -23.9605  -16.7281   20.3650 C   0  0  0  0  0  0  0  0  0  0  0  0
  -21.9801  -15.5264   21.3042 C   0  0  0  0  0  0  0  0  0  0  0  0
  -23.8788  -29.4089   22.3748 C   0  0  0  0  0  0  0  0  0  0  0  0
  -20.7818  -29.1970   21.4335 C   0  0  0  0  0  0  0  0  0  0  0  0
  -18.3447  -27.3861   19.8753 C   0  0  0  0  0  0  0  0  0  0  0  0
  -29.6772  -18.4961   20.1534 C   0  0  0  0  0  0  0  0  0  0  0  0
  -27.0849  -33.0836   23.8829 C   0  0  0  0  0  0  0  0  0  0  0  0
  -24.1330  -28.8267   19.9350 C   0  0  0  0  0  0  0  0  0  0  0  0
  -22.1553  -27.0864   21.2785 C   0  0  0  0  0  0  0  0  0  0  0  0
  -25.5717  -32.8831   23.8933 C   0  0  0  0  0  0  0  0  0  0  0  0
  -27.4731  -18.0425   17.3943 C   0  0  0  0  0  0  0  0  0  0  0  0
  -25.2186  -31.5128   24.4629 C   0  0  0  0  0  0  0  0  0  0  0  0
  -26.3317  -17.2037   17.9720 C   0  0  0  0  0  0  0  0  0  0  0  0
  -28.8223  -17.6457   17.9895 C   0  0  0  0  0  0  0  0  0  0  0  0
  -27.7352  -16.8191   20.0410 C   0  0  0  0  0  0  0  0  0  0  0  0
  -25.8084  -30.3889   23.6024 C   0  0  1  0  0  0  0  0  0  0  0  0
  -23.2111  -29.3548   21.0298 C   0  0  1  0  0  0  0  0  0  0  0  0
  -26.3475  -17.2205   19.5123 C   0  0  2  0  0  0  0  0  0  0  0  0
  -26.4347  -25.7787   24.5666 C   0  0  0  0  0  0  0  0  0  0  0  0
  -15.9039  -27.4564   19.2966 C   0  0  0  0  0  0  0  0  0  0  0  0
  -20.0791  -28.5261   24.3259 C   0  0  0  0  0  0  0  0  0  0  0  0
  -17.8602  -27.6921   23.5202 C   0  0  0  0  0  0  0  0  0  0  0  0
  -18.4820  -30.0865   23.1994 C   0  0  0  0  0  0  0  0  0  0  0  0
  -18.9108  -27.2731   16.9726 C   0  0  0  0  0  0  0  0  0  0  0  0
  -28.4481  -20.6468   23.3343 C   0  0  0  0  0  0  0  0  0  0  0  0
  -25.8329  -21.5202   22.3109 C   0  0  0  0  0  0  0  0  0  0  0  0
  -29.8414  -20.6553   22.6742 C   0  0  0  0  0  0  0  0  0  0  0  0
  -26.3186  -21.4224   20.8632 C   0  0  0  0  0  0  0  0  0  0  0  0
  -30.4126  -19.2667   22.3949 C   0  0  0  0  0  0  0  0  0  0  0  0
  -26.2642  -22.7505   20.1171 C   0  0  0  0  0  0  0  0  0  1  0  0
  -19.6124  -28.3135   21.7955 C   0  0  1  0  0  0  0  0  0  0  0  0
  -17.3157  -27.7732   18.8285 C   0  0  2  0  0  0  0  0  0  0  0  0
  -19.0326  -28.6438   23.1998 C   0  0  0  0  0  0  0  0  0  0  0  0
  -28.6765  -22.7882   24.4296 N   0  0  0  0  0  0  0  0  0  0  0  0
  -25.5114  -15.0723   20.3892 N   0  0  0  0  0  0  0  0  0  0  0  0
  -26.1848  -23.6339   23.4595 N   0  0  0  0  0  0  0  0  0  0  0  0
  -25.2440  -16.3556   20.0929 N   0  0  0  0  0  0  0  0  0  0  0  0
  -21.9995  -28.5475   21.1867 N   0  0  0  0  0  0  0  0  0  0  0  0
  -28.7704  -17.6836   19.4530 N   0  0  0  0  0  0  0  0  0  0  0  0
  -23.5234  -17.9831   20.1277 N   0  0  0  0  0  0  0  0  0  0  0  0
  -21.5106  -14.3031   21.8016 N   0  0  0  0  0  0  0  0  0  0  0  0
  -25.0136  -30.1966   22.4083 N   0  0  0  0  0  0  0  0  0  0  0  0
  -18.6504  -28.4430   20.7063 N   0  0  0  0  0  0  0  0  0  0  0  0
  -29.5557  -18.4786   21.5375 N   0  0  0  0  0  0  0  0  0  0  0  0
  -17.5663  -27.0354   17.5581 N   0  3  0  0  0  0  0  0  0  0  0  0
  -21.1951  -16.5023   21.2336 O   0  0  0  0  0  0  0  0  0  0  0  0
  -23.3990  -28.7835   23.3131 O   0  0  0  0  0  0  0  0  0  0  0  0
  -20.6189  -30.4179   21.3650 O   0  0  0  0  0  0  0  0  0  0  0  0
  -18.8261  -26.2578   19.9508 O   0  0  0  0  0  0  0  0  0  0  0  0
  -30.5284  -19.1901   19.5870 O   0  0  0  0  0  0  0  0  0  0  0  0
  -23.8729   -9.3156   22.5628 O   0  0  0  0  0  0  0  0  0  0  0  0
  -24.9163  -23.2190   20.1133 O   0  0  0  0  0  0  0  0  0  1  0  0
  -19.3990   -6.5077   20.9803 F   0  0  0  0  0  0  0  0  0  0  0  0
  -24.1051   -7.0099   21.0552 F   0  0  0  0  0  0  0  0  0  0  0  0
  1  2  1  0  0  0  0
  1  5  2  0  0  0  0
  2  6  2  0  0  0  0
  3  8  2  0  0  0  0
  3 16  1  0  0  0  0
  4  9  1  0  0  0  0
  4 16  2  0  0  0  0
  5 18  1  0  0  0  0
  6 20  1  0  0  0  0
  7 10  2  0  0  0  0
  7 19  1  0  0  0  0
  8 22  1  0  0  0  0
  9 22  2  0  0  0  0
 10 23  1  0  0  0  0
 11 12  2  0  0  0  0
 11 24  1  0  0  0  0
 12 25  1  0  0  0  0
 13 21  1  0  0  0  0
 13 23  2  0  0  0  0
 14 25  2  0  0  0  0
 14 26  1  0  0  0  0
 15 28  1  0  0  0  0
 15 64  2  0  0  0  0
 16 27  1  0  0  0  0
 17 27  1  0  0  0  0
 17 31  2  0  0  0  0
 17 32  1  0  0  0  0
 18 20  2  0  0  0  0
 18 37  1  0  0  0  0
 19 21  2  0  0  0  0
 19 38  1  0  0  0  0
 20 46  1  0  0  0  0
 21 39  1  0  0  0  0
 22 81  1  0  0  0  0
 23 82  1  0  0  0  0
 24 26  2  0  0  0  0
 24 81  1  0  0  0  0
 25 83  1  0  0  0  0
 26 84  1  0  0  0  0
 27 65  2  0  0  0  0
 28 49  1  0  0  0  0
 28 66  2  0  0  0  0
 29 30  2  0  0  0  0
 29 55  1  0  0  0  0
 29 64  1  0  0  0  0
 30 56  1  0  0  0  0
 30 66  1  0  0  0  0
 31 67  1  0  0  0  0
 31 70  1  0  0  0  0
 32 71  1  0  0  0  0
 32 76  2  0  0  0  0
 33 47  1  0  0  0  0
 33 72  1  0  0  0  0
 33 77  2  0  0  0  0
 34 61  1  0  0  0  0
 34 68  1  0  0  0  0
 34 78  2  0  0  0  0
 35 62  1  0  0  0  0
 35 73  1  0  0  0  0
 35 79  2  0  0  0  0
 36 69  1  0  0  0  0
 36 74  1  0  0  0  0
 36 80  2  0  0  0  0
 37 40  1  0  0  0  0
 38 47  1  0  0  0  0
 39 68  1  0  0  0  0
 40 42  1  0  0  0  0
 41 43  1  0  0  0  0
 41 44  1  0  0  0  0
 42 46  1  0  0  0  0
 43 48  1  0  0  0  0
 44 69  1  0  0  0  0
 45 48  1  0  0  0  0
 45 69  1  0  0  0  0
 46 72  1  0  0  0  0
 47 68  1  0  0  0  0
 48 67  1  0  0  0  0
 50 62  1  0  0  0  0
 51 63  1  0  0  0  0
 52 63  1  0  0  0  0
 53 63  1  0  0  0  0
 54 75  1  0  0  0  0
 55 57  1  0  0  0  0
 56 58  1  0  0  0  0
 57 59  1  0  0  0  0
 58 60  1  0  0  0  0
 59 74  1  0  0  0  0
 60 82  1  0  0  0  0
 61 63  1  0  0  0  0
 61 73  1  0  0  0  0
 62 75  1  0  0  0  0
 65 67  1  0  0  0  0
M  CHG  1  75   1
M  ISO  4  36 100  60 101  74 100  82 101
M  END
> <Batch ID>
0044

> <Smiles>
CNC(C)C(=O)NC(C(=O)N1Cc2cc([101O:1][101CH2:1]CCc3nc(C)cnc3CCC[100NH:0][100C:0](=O)N3CCCC(n4nc(-c5ccc(Oc6ccc(F)cc6F)cc5)c(C(N)=O)c4N)C3)ccc2CC1C(=O)NC1CCCc2ccccc21)C(C)(C)C

> <Shape>
0.232

> <Color>
0.042

> <Negative vol penalty>
0.000

$$$$

  -OEChem-04052317173D

 82 90  0     1  0  0  0  0  0999 V2000
  -32.2633  -13.4584   21.4057 C   0  0  0  0  0  0  0  0  0  0  0  0
  -31.4060  -14.3282   22.0721 C   0  0  0  0  0  0  0  0  0  0  0  0
  -26.5769  -28.6198   18.8746 C   0  0  0  0  0  0  0  0  0  0  0  0
  -26.0966  -27.5644   20.9942 C   0  0  0  0  0  0  0  0  0  0  0  0
  -31.8115  -12.7548   20.2901 C   0  0  0  0  0  0  0  0  0  0  0  0
  -30.0968  -14.4957   21.6225 C   0  0  0  0  0  0  0  0  0  0  0  0
  -26.7231  -14.4351   25.3986 C   0  0  0  0  0  0  0  0  0  0  0  0
  -25.5656  -29.5513   19.1092 C   0  0  0  0  0  0  0  0  0  0  0  0
  -25.0853  -28.4960   21.2288 C   0  0  0  0  0  0  0  0  0  0  0  0
  -26.6015  -15.5950   26.1625 C   0  0  0  0  0  0  0  0  0  0  0  0
  -24.8474  -31.7041   22.2642 C   0  0  0  0  0  0  0  0  0  0  0  0
  -24.7817  -32.2815   23.5322 C   0  0  0  0  0  0  0  0  0  0  0  0
  -24.6338  -16.2073   24.9085 C   0  0  0  0  0  0  0  0  0  0  0  0
  -22.5532  -31.3940   23.8209 C   0  0  0  0  0  0  0  0  0  0  0  0
  -28.3087  -19.4099   24.4458 C   0  0  0  0  0  0  0  0  0  0  0  0
  -26.8424  -27.6263   19.8170 C   0  0  0  0  0  0  0  0  0  0  0  0
  -29.2429  -26.7713   19.9363 C   0  0  0  0  0  0  0  0  0  0  0  0
  -30.4931  -12.9064   19.8323 C   0  0  0  0  0  0  0  0  0  0  0  0
  -25.8057  -14.1575   24.3750 C   0  0  0  0  0  0  0  0  0  0  0  0
  -29.6273  -13.7944   20.4988 C   0  0  0  0  0  0  0  0  0  0  0  0
  -24.7445  -15.0419   24.1348 C   0  0  0  0  0  0  0  0  0  0  0  0
  -24.8198  -29.4894   20.2863 C   0  0  0  0  0  0  0  0  0  0  0  0
  -25.5584  -16.4828   25.9156 C   0  0  0  0  0  0  0  0  0  0  0  0
  -23.7660  -30.9717   21.7745 C   0  0  0  0  0  0  0  0  0  0  0  0
  -23.6347  -32.1264   24.3106 C   0  0  0  0  0  0  0  0  0  0  0  0
  -22.6189  -30.8167   22.5528 C   0  0  0  0  0  0  0  0  0  0  0  0
  -27.8866  -26.6633   19.5750 C   0  0  0  0  0  0  0  0  0  0  0  0
  -28.3806  -19.9458   23.1846 C   0  0  0  0  0  0  0  0  0  0  0  0
  -29.8121  -25.6053   19.4857 C   0  0  0  0  0  0  0  0  0  0  0  0
  -29.9271  -27.8307   20.6183 C   0  0  0  0  0  0  0  0  0  0  0  0
  -26.0042  -13.7894   21.2240 C   0  0  0  0  0  0  0  0  0  0  0  0
  -22.8780  -12.9740   21.5140 C   0  0  0  0  0  0  0  0  0  0  0  0
  -19.9834  -13.1846   23.3096 C   0  0  0  0  0  0  0  0  0  0  0  0
  -27.6027  -20.1515   18.3784 C   0  0  0  0  0  0  0  0  0  0  0  0
  -30.0644  -12.1603   18.5937 C   0  0  0  0  0  0  0  0  0  0  0  0
  -25.9352  -12.8886   23.5777 C   0  0  0  0  0  0  0  0  0  0  0  0
  -23.7214  -14.7798   23.0609 C   0  0  0  0  0  0  0  0  0  0  0  0
  -28.5503  -12.1109   18.4058 C   0  0  0  0  0  0  0  0  0  0  0  0
  -29.3252  -22.2684   16.0918 C   0  0  0  0  0  0  0  0  0  0  0  0
  -27.9397  -13.4912   18.6265 C   0  0  0  0  0  0  0  0  0  0  0  0
  -29.2742  -23.6445   16.7578 C   0  0  0  0  0  0  0  0  0  0  0  0
  -28.0414  -21.4771   16.3322 C   0  0  0  0  0  0  0  0  0  0  0  0
  -27.6014  -22.7196   18.4146 C   0  0  0  0  0  0  0  0  0  0  0  0
  -28.1927  -13.9843   20.0563 C   0  0  1  0  0  0  0  0  0  0  0  0
  -25.2423  -12.9623   22.2206 C   0  0  1  0  0  0  0  0  0  0  0  0
  -28.8962  -23.5330   18.2471 C   0  0  2  0  0  0  0  0  0  0  0  0
  -17.5857  -12.4450   23.2751 C   0  0  0  0  0  0  0  0  0  0  0  0
  -22.2615  -15.0797   19.3936 C   0  0  0  0  0  0  0  0  0  0  0  0
  -19.8570  -14.9689   20.0825 C   0  0  0  0  0  0  0  0  0  0  0  0
  -20.9796  -12.9463   19.1489 C   0  0  0  0  0  0  0  0  0  0  0  0
  -20.2888  -11.6842   25.8422 C   0  0  0  0  0  0  0  0  0  0  0  0
  -29.1757  -19.4985   22.0338 C   0  0  0  0  0  0  0  0  0  0  0  0
  -28.4768  -18.4690   21.1077 C   0  0  0  0  0  0  0  0  0  0  0  0
  -25.4254  -20.0152   26.6480 C   0  0  0  0  0  0  0  0  0  0  0  0
  -26.9463  -20.1182   26.5138 C   0  0  0  0  0  0  0  0  0  0  0  0
  -27.1604  -18.9638   20.5122 C   0  0  0  0  0  0  0  0  0  0  0  0
  -24.8482  -18.7499   26.0243 C   0  0  0  0  0  0  0  0  0  1  0  0
  -21.5694  -13.7261   21.4804 C   0  0  1  0  0  0  0  0  0  0  0  0
  -18.9932  -12.1226   23.7523 C   0  0  2  0  0  0  0  0  0  0  0  0
  -21.1871  -14.1865   20.0454 C   0  0  0  0  0  0  0  0  0  0  0  0
  -27.6107  -25.5193   18.9434 N   0  0  0  0  0  0  0  0  0  0  0  0
  -27.5590  -21.0355   23.1009 N   0  0  0  0  0  0  0  0  0  0  0  0
  -26.9731  -21.1967   24.2823 N   0  0  0  0  0  0  0  0  0  0  0  0
  -27.4240  -20.2211   25.0874 N   0  0  0  0  0  0  0  0  0  0  0  0
  -28.8015  -24.8976   18.9042 N   0  0  0  0  0  0  0  0  0  0  0  0
  -23.8946  -13.5289   22.3041 N   0  0  0  0  0  0  0  0  0  0  0  0
  -27.7403  -21.4072   17.7641 N   0  0  0  0  0  0  0  0  0  0  0  0
  -31.0734  -25.1267   19.5340 N   0  0  0  0  0  0  0  0  0  0  0  0
  -29.1913  -28.9569   21.0115 N   0  0  0  0  0  0  0  0  0  0  0  0
  -27.2873  -13.3373   20.9816 N   0  0  0  0  0  0  0  0  0  0  0  0
  -20.5826  -12.8566   22.1118 N   0  0  0  0  0  0  0  0  0  0  0  0
  -27.3237  -20.1750   19.7394 N   0  0  0  0  0  0  0  0  0  0  0  0
  -18.9735  -12.0203   25.2389 N   0  3  0  0  0  0  0  0  0  0  0  0
  -31.1578  -27.7874   20.8571 O   0  0  0  0  0  0  0  0  0  0  0  0
  -25.4672  -14.7645   20.7117 O   0  0  0  0  0  0  0  0  0  0  0  0
  -22.9915  -11.9288   20.8687 O   0  0  0  0  0  0  0  0  0  0  0  0
  -20.2008  -14.2050   23.9593 O   0  0  0  0  0  0  0  0  0  0  0  0
  -27.7250  -19.0882   17.7609 O   0  0  0  0  0  0  0  0  0  0  0  0
  -23.8330  -30.3984   20.5157 O   0  0  0  0  0  0  0  0  0  0  0  0
  -25.4378  -17.6161   26.6592 O   0  0  0  0  0  0  0  0  0  1  0  0
  -23.5723  -32.6797   25.5289 F   0  0  0  0  0  0  0  0  0  0  0  0
  -21.5772  -30.1132   22.0882 F   0  0  0  0  0  0  0  0  0  0  0  0
  1  2  1  0  0  0  0
  1  5  2  0  0  0  0
  2  6  2  0  0  0  0
  3  8  2  0  0  0  0
  3 16  1  0  0  0  0
  4  9  1  0  0  0  0
  4 16  2  0  0  0  0
  5 18  1  0  0  0  0
  6 20  1  0  0  0  0
  7 10  2  0  0  0  0
  7 19  1  0  0  0  0
  8 22  1  0  0  0  0
  9 22  2  0  0  0  0
 10 23  1  0  0  0  0
 11 12  2  0  0  0  0
 11 24  1  0  0  0  0
 12 25  1  0  0  0  0
 13 21  1  0  0  0  0
 13 23  2  0  0  0  0
 14 25  2  0  0  0  0
 14 26  1  0  0  0  0
 15 28  2  0  0  0  0
 15 64  1  0  0  0  0
 16 27  1  0  0  0  0
 17 27  1  0  0  0  0
 17 29  2  0  0  0  0
 17 30  1  0  0  0  0
 18 20  2  0  0  0  0
 18 35  1  0  0  0  0
 19 21  2  0  0  0  0
 19 36  1  0  0  0  0
 20 44  1  0  0  0  0
 21 37  1  0  0  0  0
 22 79  1  0  0  0  0
 23 80  1  0  0  0  0
 24 26  2  0  0  0  0
 24 79  1  0  0  0  0
 25 81  1  0  0  0  0
 26 82  1  0  0  0  0
 27 61  2  0  0  0  0
 28 52  1  0  0  0  0
 28 62  1  0  0  0  0
 29 65  1  0  0  0  0
 29 68  1  0  0  0  0
 30 69  1  0  0  0  0
 30 74  2  0  0  0  0
 31 45  1  0  0  0  0
 31 70  1  0  0  0  0
 31 75  2  0  0  0  0
 32 58  1  0  0  0  0
 32 66  1  0  0  0  0
 32 76  2  0  0  0  0
 33 59  1  0  0  0  0
 33 71  1  0  0  0  0
 33 77  2  0  0  0  0
 34 67  1  0  0  0  0
 34 72  1  0  0  0  0
 34 78  2  0  0  0  0
 35 38  1  0  0  0  0
 36 45  1  0  0  0  0
 37 66  1  0  0  0  0
 38 40  1  0  0  0  0
 39 41  1  0  0  0  0
 39 42  1  0  0  0  0
 40 44  1  0  0  0  0
 41 46  1  0  0  0  0
 42 67  1  0  0  0  0
 43 46  1  0  0  0  0
 43 67  1  0  0  0  0
 44 70  1  0  0  0  0
 45 66  1  0  0  0  0
 46 65  1  0  0  0  0
 47 59  1  0  0  0  0
 48 60  1  0  0  0  0
 49 60  1  0  0  0  0
 50 60  1  0  0  0  0
 51 73  1  0  0  0  0
 52 53  1  0  0  0  0
 53 56  1  0  0  0  0
 54 55  1  0  0  0  0
 54 57  1  0  0  0  0
 55 64  1  0  0  0  0
 56 72  1  0  0  0  0
 57 80  1  0  0  0  0
 58 60  1  0  0  0  0
 58 71  1  0  0  0  0
 59 73  1  0  0  0  0
 61 65  1  0  0  0  0
 62 63  2  0  0  0  0
 63 64  1  0  0  0  0
M  CHG  1  73   1
M  ISO  4  34 100  57 101  72 100  80 101
M  END
> <Batch ID>
0044

> <Smiles>
CNC(C)C(=O)NC(C(=O)N1Cc2cc([101O:1][101CH2:1]CCn3cc(CCC[100NH:0][100C:0](=O)N4CCCC(n5nc(-c6ccc(Oc7ccc(F)cc7F)cc6)c(C(N)=O)c5N)C4)nn3)ccc2CC1C(=O)NC1CCCc2ccccc21)C(C)(C)C

> <Shape>
0.242

> <Color>
0.066

> <Negative vol penalty>
0.000

$$$$

  -OEChem-04052317173D

 84 92  0     1  0  0  0  0  0999 V2000
  -18.7713  -33.0295   22.1266 C   0  0  0  0  0  0  0  0  0  0  0  0
  -20.1213  -32.9396   21.8031 C   0  0  0  0  0  0  0  0  0  0  0  0
  -26.1472  -13.3125   21.5917 C   0  0  0  0  0  0  0  0  0  0  0  0
  -25.8214  -14.0188   19.3043 C   0  0  0  0  0  0  0  0  0  0  0  0
  -18.1739  -32.0368   22.9023 C   0  0  0  0  0  0  0  0  0  0  0  0
  -20.8751  -31.8574   22.2559 C   0  0  0  0  0  0  0  0  0  0  0  0
  -25.4815  -29.0921   19.3164 C   0  0  0  0  0  0  0  0  0  0  0  0
  -24.9525  -12.5944   21.5401 C   0  0  0  0  0  0  0  0  0  0  0  0
  -24.6268  -13.3007   19.2527 C   0  0  0  0  0  0  0  0  0  0  0  0
  -26.8666  -29.2142   19.4180 C   0  0  0  0  0  0  0  0  0  0  0  0
  -23.8758   -9.6360   20.3067 C   0  0  0  0  0  0  0  0  0  0  0  0
  -23.8740   -8.3423   20.8283 C   0  0  0  0  0  0  0  0  0  0  0  0
  -26.9185  -27.3169   20.9069 C   0  0  0  0  0  0  0  0  0  0  0  0
  -22.1691   -8.9845   22.4151 C   0  0  0  0  0  0  0  0  0  0  0  0
  -28.9585  -26.5906   17.1895 C   0  0  0  0  0  0  0  0  0  0  0  0
  -26.5816  -14.0248   20.4738 C   0  0  0  0  0  0  0  0  0  0  0  0
  -29.1027  -14.3012   20.1992 C   0  0  0  0  0  0  0  0  0  0  0  0
  -18.9185  -30.9369   23.3568 C   0  0  0  0  0  0  0  0  0  0  0  0
  -24.8021  -28.0866   20.0192 C   0  0  0  0  0  0  0  0  0  0  0  0
  -20.2874  -30.8497   23.0395 C   0  0  0  0  0  0  0  0  0  0  0  0
  -25.5251  -27.1826   20.8106 C   0  0  0  0  0  0  0  0  0  0  0  0
  -28.7018  -25.3783   16.5971 C   0  0  0  0  0  0  0  0  0  0  0  0
  -24.1923  -12.5884   20.3706 C   0  0  0  0  0  0  0  0  0  0  0  0
  -27.5850  -28.3283   20.2156 C   0  0  0  0  0  0  0  0  0  0  0  0
  -23.0243  -10.6039   20.8393 C   0  0  0  0  0  0  0  0  0  0  0  0
  -23.0207   -8.0166   21.8825 C   0  0  0  0  0  0  0  0  0  0  0  0
  -22.1709  -10.2782   21.8935 C   0  0  0  0  0  0  0  0  0  0  0  0
  -27.8153  -14.7673   20.5267 C   0  0  0  0  0  0  0  0  0  0  0  0
  -29.8926  -24.6461   16.7636 C   0  0  0  0  0  0  0  0  0  0  0  0
  -29.9239  -15.3809   20.4148 C   0  0  0  0  0  0  0  0  0  0  0  0
  -29.5190  -13.0080   19.7411 C   0  0  0  0  0  0  0  0  0  0  0  0
  -22.5758  -28.0478   22.2876 C   0  0  0  0  0  0  0  0  0  0  0  0
  -22.6481  -24.8480   21.7598 C   0  0  0  0  0  0  0  0  0  0  0  0
  -24.3898  -22.1348   20.6411 C   0  0  0  0  0  0  0  0  0  0  0  0
  -28.9700  -21.2920   20.4217 C   0  0  0  0  0  0  0  0  0  0  0  0
  -18.2402  -29.9130   24.2321 C   0  0  0  0  0  0  0  0  0  0  0  0
  -23.3107  -27.9517   19.8779 C   0  0  0  0  0  0  0  0  0  0  0  0
  -24.8454  -26.0731   21.5692 C   0  0  0  0  0  0  0  0  0  0  0  0
  -19.0203  -28.6069   24.3582 C   0  0  0  0  0  0  0  0  0  0  0  0
  -30.2891  -19.3332   23.0863 C   0  0  0  0  0  0  0  0  0  0  0  0
  -20.4926  -28.8896   24.6400 C   0  0  0  0  0  0  0  0  0  0  0  0
  -29.9208  -17.8988   22.7029 C   0  0  0  0  0  0  0  0  0  0  0  0
  -29.1948  -20.3219   22.6899 C   0  0  0  0  0  0  0  0  0  0  0  0
  -28.4208  -18.8271   20.8899 C   0  0  0  0  0  0  0  0  0  0  0  0
  -21.1325  -29.6785   23.4912 C   0  0  1  0  0  0  0  0  0  0  0  0
  -22.6648  -27.2095   21.0438 C   0  0  1  0  0  0  0  0  0  0  0  0
  -29.5183  -17.8008   21.2191 C   0  0  2  0  0  0  0  0  0  0  0  0
  -27.5461  -24.9829   14.4074 C   0  0  0  0  0  0  0  0  0  0  0  0
  -24.2010  -19.6471   20.3713 C   0  0  0  0  0  0  0  0  0  0  0  0
  -23.1082  -24.4907   24.7549 C   0  0  0  0  0  0  0  0  0  0  0  0
  -23.8472  -22.1441   24.2907 C   0  0  0  0  0  0  0  0  0  0  0  0
  -21.5182  -22.8483   23.7404 C   0  0  0  0  0  0  0  0  0  0  0  0
  -24.7028  -22.3130   17.7036 C   0  0  0  0  0  0  0  0  0  0  0  0
  -27.4556  -24.9524   15.9382 C   0  0  0  0  0  0  0  0  0  0  0  0
  -30.1777  -23.2715   16.3163 C   0  0  0  0  0  0  0  0  0  0  0  0
  -30.0767  -22.1884   17.4192 C   0  0  0  0  0  0  0  0  0  0  0  0
  -31.0504  -27.3879   19.9032 C   0  0  0  0  0  0  0  0  0  0  0  0
  -30.9892  -27.5970   18.3885 C   0  0  0  0  0  0  0  0  0  0  0  0
  -28.7090  -22.1140   18.0946 C   0  0  0  0  0  0  0  0  0  0  0  0
  -29.6772  -27.2479   20.5497 C   0  0  0  0  0  0  0  0  0  1  0  0
  -23.4351  -23.6892   22.3224 C   0  0  1  0  0  0  0  0  0  0  0  0
  -23.9997  -21.0014   19.7096 C   0  0  2  0  0  0  0  0  0  0  0  0
  -22.9901  -23.3151   23.7645 C   0  0  0  0  0  0  0  0  0  0  0  0
  -27.8137  -16.0436   20.9205 N   0  0  0  0  0  0  0  0  0  0  0  0
  -30.8357  -25.3358   17.4110 N   0  0  0  0  0  0  0  0  0  0  0  0
  -30.2377  -26.5140   17.6563 N   0  0  0  0  0  0  0  0  0  0  0  0
  -29.1102  -16.3887   20.8420 N   0  0  0  0  0  0  0  0  0  0  0  0
  -23.3850  -25.9865   21.4038 N   0  0  0  0  0  0  0  0  0  0  0  0
  -28.8607  -20.1784   21.2709 N   0  0  0  0  0  0  0  0  0  0  0  0
  -31.2554  -15.5570   20.2788 N   0  0  0  0  0  0  0  0  0  0  0  0
  -28.5459  -12.0134   19.5733 N   0  0  0  0  0  0  0  0  0  0  0  0
  -21.4217  -28.8025   22.3761 N   0  0  0  0  0  0  0  0  0  0  0  0
  -23.3083  -22.6026   21.3572 N   0  0  0  0  0  0  0  0  0  0  0  0
  -28.6404  -21.0680   19.0906 N   0  0  0  0  0  0  0  0  0  0  0  0
  -24.8228  -21.0449   18.4680 N   0  3  0  0  0  0  0  0  0  0  0  0
  -30.7207  -12.7374   19.5037 O   0  0  0  0  0  0  0  0  0  0  0  0
  -23.4862  -28.0114   23.1072 O   0  0  0  0  0  0  0  0  0  0  0  0
  -21.4254  -24.7443   21.6339 O   0  0  0  0  0  0  0  0  0  0  0  0
  -25.5398  -22.5599   20.7279 O   0  0  0  0  0  0  0  0  0  0  0  0
  -29.3395  -22.4021   20.8193 O   0  0  0  0  0  0  0  0  0  0  0  0
  -23.0266  -11.8876   20.3198 O   0  0  0  0  0  0  0  0  0  0  0  0
  -28.9370  -28.4456   20.3170 O   0  0  0  0  0  0  0  0  0  1  0  0
  -23.0180   -6.7739   22.3823 F   0  0  0  0  0  0  0  0  0  0  0  0
  -21.3497  -11.2035   22.4085 F   0  0  0  0  0  0  0  0  0  0  0  0
  1  2  1  0  0  0  0
  1  5  2  0  0  0  0
  2  6  2  0  0  0  0
  3  8  2  0  0  0  0
  3 16  1  0  0  0  0
  4  9  1  0  0  0  0
  4 16  2  0  0  0  0
  5 18  1  0  0  0  0
  6 20  1  0  0  0  0
  7 10  2  0  0  0  0
  7 19  1  0  0  0  0
  8 23  1  0  0  0  0
  9 23  2  0  0  0  0
 10 24  1  0  0  0  0
 11 12  2  0  0  0  0
 11 25  1  0  0  0  0
 12 26  1  0  0  0  0
 13 21  1  0  0  0  0
 13 24  2  0  0  0  0
 14 26  2  0  0  0  0
 14 27  1  0  0  0  0
 15 22  2  0  0  0  0
 15 66  1  0  0  0  0
 16 28  1  0  0  0  0
 17 28  1  0  0  0  0
 17 30  2  0  0  0  0
 17 31  1  0  0  0  0
 18 20  2  0  0  0  0
 18 36  1  0  0  0  0
 19 21  2  0  0  0  0
 19 37  1  0  0  0  0
 20 45  1  0  0  0  0
 21 38  1  0  0  0  0
 22 29  1  0  0  0  0
 22 54  1  0  0  0  0
 23 81  1  0  0  0  0
 24 82  1  0  0  0  0
 25 27  2  0  0  0  0
 25 81  1  0  0  0  0
 26 83  1  0  0  0  0
 27 84  1  0  0  0  0
 28 64  2  0  0  0  0
 29 55  1  0  0  0  0
 29 65  2  0  0  0  0
 30 67  1  0  0  0  0
 30 70  1  0  0  0  0
 31 71  1  0  0  0  0
 31 76  2  0  0  0  0
 32 46  1  0  0  0  0
 32 72  1  0  0  0  0
 32 77  2  0  0  0  0
 33 61  1  0  0  0  0
 33 68  1  0  0  0  0
 33 78  2  0  0  0  0
 34 62  1  0  0  0  0
 34 73  1  0  0  0  0
 34 79  2  0  0  0  0
 35 69  1  0  0  0  0
 35 74  1  0  0  0  0
 35 80  2  0  0  0  0
 36 39  1  0  0  0  0
 37 46  1  0  0  0  0
 38 68  1  0  0  0  0
 39 41  1  0  0  0  0
 40 42  1  0  0  0  0
 40 43  1  0  0  0  0
 41 45  1  0  0  0  0
 42 47  1  0  0  0  0
 43 69  1  0  0  0  0
 44 47  1  0  0  0  0
 44 69  1  0  0  0  0
 45 72  1  0  0  0  0
 46 68  1  0  0  0  0
 47 67  1  0  0  0  0
 48 54  1  0  0  0  0
 49 62  1  0  0  0  0
 50 63  1  0  0  0  0
 51 63  1  0  0  0  0
 52 63  1  0  0  0  0
 53 75  1  0  0  0  0
 55 56  1  0  0  0  0
 56 59  1  0  0  0  0
 57 58  1  0  0  0  0
 57 60  1  0  0  0  0
 58 66  1  0  0  0  0
 59 74  1  0  0  0  0
 60 82  1  0  0  0  0
 61 63  1  0  0  0  0
 61 73  1  0  0  0  0
 62 75  1  0  0  0  0
 64 67  1  0  0  0  0
 65 66  1  0  0  0  0
M  CHG  1  75   1
M  ISO  4  35 100  60 101  74 100  82 101
M  END
> <Batch ID>
0044

> <Smiles>
CCc1cn(CC[101CH2:1][101O:1]c2ccc3c(c2)CN(C(=O)C(NC(=O)C(C)NC)C(C)(C)C)C(C(=O)NC2CCCc4ccccc42)C3)nc1CCC[100NH:0][100C:0](=O)N1CCCC(n2nc(-c3ccc(Oc4ccc(F)cc4F)cc3)c(C(N)=O)c2N)C1

> <Shape>
0.275

> <Color>
0.081

> <Negative vol penalty>
0.000

$$$$

  -OEChem-04052317173D

 83 91  0     1  0  0  0  0  0999 V2000
  -31.2228  -22.8419   22.5310 C   0  0  0  0  0  0  0  0  0  0  0  0
  -29.9217  -23.2370   22.8251 C   0  0  0  0  0  0  0  0  0  0  0  0
  -26.1797  -28.1922   21.5159 C   0  0  0  0  0  0  0  0  0  0  0  0
  -25.1347  -29.2644   19.6197 C   0  0  0  0  0  0  0  0  0  0  0  0
  -31.4588  -21.9409   21.4935 C   0  0  0  0  0  0  0  0  0  0  0  0
  -28.8559  -22.7320   22.0811 C   0  0  0  0  0  0  0  0  0  0  0  0
  -21.9712  -20.8675   22.7457 C   0  0  0  0  0  0  0  0  0  0  0  0
  -27.3869  -28.1371   20.8194 C   0  0  0  0  0  0  0  0  0  0  0  0
  -26.3420  -29.2093   18.9232 C   0  0  0  0  0  0  0  0  0  0  0  0
  -20.7302  -21.1014   22.1551 C   0  0  0  0  0  0  0  0  0  0  0  0
  -28.7832  -26.2305   18.4028 C   0  0  0  0  0  0  0  0  0  0  0  0
  -29.5001  -25.0347   18.4438 C   0  0  0  0  0  0  0  0  0  0  0  0
  -21.2508  -19.4897   20.4373 C   0  0  0  0  0  0  0  0  0  0  0  0
  -15.9109  -23.5781   17.9413 C   0  0  0  0  0  0  0  0  0  0  0  0
  -31.3698  -26.1901   19.4472 C   0  0  0  0  0  0  0  0  0  0  0  0
  -18.2829  -23.7203   18.0413 C   0  0  0  0  0  0  0  0  0  0  0  0
  -25.0535  -28.7558   20.9160 C   0  0  0  0  0  0  0  0  0  0  0  0
  -23.3531  -29.8504   22.4709 C   0  0  0  0  0  0  0  0  0  0  0  0
  -30.3945  -21.4172   20.7427 C   0  0  0  0  0  0  0  0  0  0  0  0
  -22.8673  -19.9494   22.1795 C   0  0  0  0  0  0  0  0  0  0  0  0
  -29.0780  -21.8242   21.0317 C   0  0  0  0  0  0  0  0  0  0  0  0
  -22.5016  -19.2441   21.0242 C   0  0  0  0  0  0  0  0  0  0  0  0
  -17.0645  -24.3467   17.8338 C   0  0  0  0  0  0  0  0  0  0  0  0
  -16.0093  -22.2257   18.2486 C   0  0  0  0  0  0  0  0  0  0  0  0
  -27.4681  -28.6457   19.5231 C   0  0  0  0  0  0  0  0  0  0  0  0
  -20.3710  -20.4146   20.9990 C   0  0  0  0  0  0  0  0  0  0  0  0
  -29.3595  -27.4061   18.8840 C   0  0  0  0  0  0  0  0  0  0  0  0
  -30.7934  -25.0145   18.9660 C   0  0  0  0  0  0  0  0  0  0  0  0
  -30.6528  -27.3859   19.4062 C   0  0  0  0  0  0  0  0  0  0  0  0
  -23.8060  -28.8124   21.6347 C   0  0  0  0  0  0  0  0  0  0  0  0
  -17.2749  -21.6941   18.4373 C   0  0  0  0  0  0  0  0  0  0  0  0
  -22.1221  -29.4264   22.9085 C   0  0  0  0  0  0  0  0  0  0  0  0
  -23.9882  -31.0872   22.8209 C   0  0  0  0  0  0  0  0  0  0  0  0
  -25.7917  -20.1371   20.9481 C   0  0  0  0  0  0  0  0  0  0  0  0
  -25.5222  -16.9071   20.8181 C   0  0  0  0  0  0  0  0  0  0  0  0
  -23.4843  -14.1729   20.6859 C   0  0  0  0  0  0  0  0  0  0  0  0
  -18.0709  -25.6432   20.6445 C   0  0  0  0  0  0  0  0  0  0  0  0
  -30.7030  -20.4824   19.6001 C   0  0  0  0  0  0  0  0  0  0  0  0
  -24.1914  -19.6889   22.8439 C   0  0  0  0  0  0  0  0  0  0  0  0
  -23.4193  -18.2332   20.3883 C   0  0  0  0  0  0  0  0  0  0  0  0
  -29.4865  -19.7057   19.1030 C   0  0  0  0  0  0  0  0  0  0  0  0
  -19.6458  -25.4380   23.8311 C   0  0  0  0  0  0  0  0  0  0  0  0
  -28.2923  -20.6386   18.9287 C   0  0  0  0  0  0  0  0  0  0  0  0
  -20.8497  -26.3732   23.7050 C   0  0  0  0  0  0  0  0  0  0  0  0
  -19.3710  -24.6928   22.5268 C   0  0  0  0  0  0  0  0  0  0  0  0
  -20.4276  -26.4909   21.2136 C   0  0  0  0  0  0  0  0  0  0  0  0
  -27.8934  -21.2795   20.2635 C   0  0  1  0  0  0  0  0  0  0  0  0
  -25.2337  -19.1100   21.8922 C   0  0  1  0  0  0  0  0  0  0  0  0
  -20.7098  -27.3062   22.4871 C   0  0  2  0  0  0  0  0  0  0  0  0
  -14.0451  -21.6272   19.6874 C   0  0  0  0  0  0  0  0  0  0  0  0
  -23.5549  -11.6681   20.5492 C   0  0  0  0  0  0  0  0  0  0  0  0
  -26.2420  -17.0914   17.8587 C   0  0  0  0  0  0  0  0  0  0  0  0
  -25.3809  -14.7576   17.5755 C   0  0  0  0  0  0  0  0  0  0  0  0
  -27.3228  -15.1948   19.0791 C   0  0  0  0  0  0  0  0  0  0  0  0
  -22.0721  -13.8762   23.2698 C   0  0  0  0  0  0  0  0  0  0  0  0
  -16.9934  -25.7956   17.5055 C   0  0  0  0  0  0  0  0  0  0  0  0
  -14.7771  -21.3968   18.3671 C   0  0  0  0  0  0  0  0  0  0  0  0
  -17.4433  -20.2320   18.7722 C   0  0  0  0  0  0  0  0  0  0  0  0
  -16.8883  -26.7044   18.7381 C   0  0  0  0  0  0  0  0  0  0  0  0
  -18.8576  -19.9028   19.2373 C   0  0  0  0  0  0  0  0  0  1  0  0
  -25.0097  -15.9172   19.8000 C   0  0  1  0  0  0  0  0  0  0  0  0
  -23.4883  -12.8746   21.4726 C   0  0  2  0  0  0  0  0  0  0  0  0
  -25.9721  -15.7606   18.5890 C   0  0  0  0  0  0  0  0  0  0  0  0
  -18.4183  -22.4091   18.3413 N   0  0  0  0  0  0  0  0  0  0  0  0
  -22.9338  -27.8048   21.5449 N   0  0  0  0  0  0  0  0  0  0  0  0
  -21.9205  -28.2076   22.3305 N   0  0  0  0  0  0  0  0  0  0  0  0
  -24.7055  -18.0182   21.0717 N   0  0  0  0  0  0  0  0  0  0  0  0
  -19.2474  -25.6349   21.4118 N   0  0  0  0  0  0  0  0  0  0  0  0
  -21.2033  -29.9809   23.7275 N   0  0  0  0  0  0  0  0  0  0  0  0
  -25.2520  -31.3651   22.2824 N   0  0  0  0  0  0  0  0  0  0  0  0
  -27.1530  -20.3375   21.0752 N   0  0  0  0  0  0  0  0  0  0  0  0
  -24.7575  -14.6777   20.5270 N   0  0  0  0  0  0  0  0  0  0  0  0
  -18.0333  -26.5712   19.6110 N   0  0  0  0  0  0  0  0  0  0  0  0
  -22.2531  -12.7661   22.2993 N   0  3  0  0  0  0  0  0  0  0  0  0
  -23.4582  -31.9140   23.6013 O   0  0  0  0  0  0  0  0  0  0  0  0
  -25.0429  -20.7047   20.1615 O   0  0  0  0  0  0  0  0  0  0  0  0
  -26.6039  -16.6985   21.3732 O   0  0  0  0  0  0  0  0  0  0  0  0
  -22.4550  -14.6858   20.2523 O   0  0  0  0  0  0  0  0  0  0  0  0
  -17.1219  -24.8837   20.8676 O   0  0  0  0  0  0  0  0  0  0  0  0
  -28.6461  -28.5923   18.8433 O   0  0  0  0  0  0  0  0  0  0  0  0
  -19.1605  -20.6414   20.4201 O   0  0  0  0  0  0  0  0  0  1  0  0
  -31.4812  -23.8659   19.0067 F   0  0  0  0  0  0  0  0  0  0  0  0
  -31.2113  -28.5119   19.8709 F   0  0  0  0  0  0  0  0  0  0  0  0
  1  2  1  0  0  0  0
  1  5  2  0  0  0  0
  2  6  2  0  0  0  0
  3  8  2  0  0  0  0
  3 17  1  0  0  0  0
  4  9  1  0  0  0  0
  4 17  2  0  0  0  0
  5 19  1  0  0  0  0
  6 21  1  0  0  0  0
  7 10  2  0  0  0  0
  7 20  1  0  0  0  0
  8 25  1  0  0  0  0
  9 25  2  0  0  0  0
 10 26  1  0  0  0  0
 11 12  2  0  0  0  0
 11 27  1  0  0  0  0
 12 28  1  0  0  0  0
 13 22  1  0  0  0  0
 13 26  2  0  0  0  0
 14 23  2  0  0  0  0
 14 24  1  0  0  0  0
 15 28  2  0  0  0  0
 15 29  1  0  0  0  0
 16 23  1  0  0  0  0
 16 64  2  0  0  0  0
 17 30  1  0  0  0  0
 18 30  1  0  0  0  0
 18 32  2  0  0  0  0
 18 33  1  0  0  0  0
 19 21  2  0  0  0  0
 19 38  1  0  0  0  0
 20 22  2  0  0  0  0
 20 39  1  0  0  0  0
 21 47  1  0  0  0  0
 22 40  1  0  0  0  0
 23 56  1  0  0  0  0
 24 31  2  0  0  0  0
 24 57  1  0  0  0  0
 25 80  1  0  0  0  0
 26 81  1  0  0  0  0
 27 29  2  0  0  0  0
 27 80  1  0  0  0  0
 28 82  1  0  0  0  0
 29 83  1  0  0  0  0
 30 65  2  0  0  0  0
 31 58  1  0  0  0  0
 31 64  1  0  0  0  0
 32 66  1  0  0  0  0
 32 69  1  0  0  0  0
 33 70  1  0  0  0  0
 33 75  2  0  0  0  0
 34 48  1  0  0  0  0
 34 71  1  0  0  0  0
 34 76  2  0  0  0  0
 35 61  1  0  0  0  0
 35 67  1  0  0  0  0
 35 77  2  0  0  0  0
 36 62  1  0  0  0  0
 36 72  1  0  0  0  0
 36 78  2  0  0  0  0
 37 68  1  0  0  0  0
 37 73  1  0  0  0  0
 37 79  2  0  0  0  0
 38 41  1  0  0  0  0
 39 48  1  0  0  0  0
 40 67  1  0  0  0  0
 41 43  1  0  0  0  0
 42 44  1  0  0  0  0
 42 45  1  0  0  0  0
 43 47  1  0  0  0  0
 44 49  1  0  0  0  0
 45 68  1  0  0  0  0
 46 49  1  0  0  0  0
 46 68  1  0  0  0  0
 47 71  1  0  0  0  0
 48 67  1  0  0  0  0
 49 66  1  0  0  0  0
 50 57  1  0  0  0  0
 51 62  1  0  0  0  0
 52 63  1  0  0  0  0
 53 63  1  0  0  0  0
 54 63  1  0  0  0  0
 55 74  1  0  0  0  0
 56 59  1  0  0  0  0
 58 60  1  0  0  0  0
 59 73  1  0  0  0  0
 60 81  1  0  0  0  0
 61 63  1  0  0  0  0
 61 72  1  0  0  0  0
 62 74  1  0  0  0  0
 65 66  1  0  0  0  0
M  CHG  1  74   1
M  ISO  4  37 100  60 101  73 100  81 101
M  END
> <Batch ID>
0044

> <Smiles>
CCc1cc(CC[100NH:0][100C:0](=O)N2CCCC(n3nc(-c4ccc(Oc5ccc(F)cc5F)cc4)c(C(N)=O)c3N)C2)cnc1C[101CH2:1][101O:1]c1ccc2c(c1)CN(C(=O)C(NC(=O)C(C)NC)C(C)(C)C)C(C(=O)NC1CCCc3ccccc31)C2

> <Shape>
0.212

> <Color>
0.079

> <Negative vol penalty>
0.000

$$$$

  -OEChem-04052317173D

 84 92  0     1  0  0  0  0  0999 V2000
  -18.4974  -29.0708   18.4669 C   0  0  0  0  0  0  0  0  0  0  0  0
  -19.8437  -28.7223   18.4265 C   0  0  0  0  0  0  0  0  0  0  0  0
  -26.7648  -14.1158   21.1391 C   0  0  0  0  0  0  0  0  0  0  0  0
  -27.1503  -13.5328   18.8264 C   0  0  0  0  0  0  0  0  0  0  0  0
  -17.9915  -29.7673   19.5636 C   0  0  0  0  0  0  0  0  0  0  0  0
  -20.6850  -29.0711   19.4824 C   0  0  0  0  0  0  0  0  0  0  0  0
  -23.7209  -25.2684   20.8853 C   0  0  0  0  0  0  0  0  0  0  0  0
  -26.0445  -12.9347   21.3168 C   0  0  0  0  0  0  0  0  0  0  0  0
  -26.4300  -12.3516   19.0041 C   0  0  0  0  0  0  0  0  0  0  0  0
  -24.8370  -25.0176   20.0884 C   0  0  0  0  0  0  0  0  0  0  0  0
  -22.9440  -11.7804   20.6245 C   0  0  0  0  0  0  0  0  0  0  0  0
  -21.7348  -11.8574   21.3154 C   0  0  0  0  0  0  0  0  0  0  0  0
  -26.2214  -26.2125   21.6616 C   0  0  0  0  0  0  0  0  0  0  0  0
  -22.5860  -10.3227   22.9760 C   0  0  0  0  0  0  0  0  0  0  0  0
  -31.4554  -24.3762   18.6801 C   0  0  0  0  0  0  0  0  0  0  0  0
  -27.3177  -14.4149   19.8939 C   0  0  0  0  0  0  0  0  0  0  0  0
  -29.4445  -15.8236   19.8923 C   0  0  0  0  0  0  0  0  0  0  0  0
  -18.8249  -30.1164   20.6379 C   0  0  0  0  0  0  0  0  0  0  0  0
  -23.8450  -26.0038   22.0728 C   0  0  0  0  0  0  0  0  0  0  0  0
  -20.1900  -29.7741   20.5939 C   0  0  0  0  0  0  0  0  0  0  0  0
  -25.1057  -26.4691   22.4731 C   0  0  0  0  0  0  0  0  0  0  0  0
  -25.8771  -12.0525   20.2494 C   0  0  0  0  0  0  0  0  0  0  0  0
  -26.0870  -25.4921   20.4750 C   0  0  0  0  0  0  0  0  0  0  0  0
  -23.9742  -10.9745   21.1092 C   0  0  0  0  0  0  0  0  0  0  0  0
  -21.5558  -11.1286   22.4912 C   0  0  0  0  0  0  0  0  0  0  0  0
  -23.7952  -10.2457   22.2850 C   0  0  0  0  0  0  0  0  0  0  0  0
  -31.3983  -24.8010   17.3684 C   0  0  0  0  0  0  0  0  0  0  0  0
  -28.0614  -15.6352   19.7095 C   0  0  0  0  0  0  0  0  0  0  0  0
  -30.2984  -25.5649   17.0356 C   0  0  0  0  0  0  0  0  0  0  0  0
  -29.6532  -17.1476   19.5924 C   0  0  0  0  0  0  0  0  0  0  0  0
  -29.4934  -25.4206   19.1565 C   0  0  0  0  0  0  0  0  0  0  0  0
  -30.4506  -14.8857   20.2970 C   0  0  0  0  0  0  0  0  0  0  0  0
  -22.6654  -28.7554   23.1410 C   0  0  0  0  0  0  0  0  0  0  0  0
  -24.1244  -27.8625   25.8971 C   0  0  0  0  0  0  0  0  0  0  0  0
  -26.5618  -26.0227   27.4207 C   0  0  0  0  0  0  0  0  0  0  0  0
  -26.7034  -20.9079   16.1262 C   0  0  0  0  0  0  0  0  0  0  0  0
  -18.2426  -30.9107   21.7802 C   0  0  0  0  0  0  0  0  0  0  0  0
  -22.6358  -26.2429   22.9349 C   0  0  0  0  0  0  0  0  0  0  0  0
  -25.2957  -27.2462   23.7492 C   0  0  0  0  0  0  0  0  0  0  0  0
  -19.1204  -30.9146   23.0291 C   0  0  0  0  0  0  0  0  0  0  0  0
  -27.4401  -21.3912   19.6363 C   0  0  0  0  0  0  0  0  0  0  0  0
  -20.5728  -31.1992   22.6600 C   0  0  0  0  0  0  0  0  0  0  0  0
  -27.8167  -19.9722   20.0662 C   0  0  0  0  0  0  0  0  0  0  0  0
  -26.3033  -21.3771   18.6186 C   0  0  0  0  0  0  0  0  0  0  0  0
  -26.9463  -19.1303   17.8361 C   0  0  0  0  0  0  0  0  0  0  0  0
  -21.1290  -30.1130   21.7313 C   0  0  1  0  0  0  0  0  0  0  0  0
  -22.7916  -27.4437   23.8629 C   0  0  1  0  0  0  0  0  0  0  0  0
  -28.1055  -19.0756   18.8477 C   0  0  2  0  0  0  0  0  0  0  0  0
  -27.5332  -25.5273   29.6808 C   0  0  0  0  0  0  0  0  0  0  0  0
  -25.5287  -30.5713   25.8847 C   0  0  0  0  0  0  0  0  0  0  0  0
  -27.1445  -29.6631   27.5677 C   0  0  0  0  0  0  0  0  0  0  0  0
  -24.7198  -29.8259   28.1307 C   0  0  0  0  0  0  0  0  0  0  0  0
  -25.9003  -23.1463   27.2027 C   0  0  0  0  0  0  0  0  0  0  0  0
  -30.1176  -26.0868   15.6474 C   0  0  0  0  0  0  0  0  0  0  0  0
  -28.4278  -25.7649   20.1551 C   0  0  0  0  0  0  0  0  0  1  0  0
  -29.6218  -25.0018   14.6811 C   0  0  0  0  0  0  0  0  0  0  0  0
  -28.2551  -24.4545   15.0980 C   0  0  0  0  0  0  0  0  0  0  0  0
  -27.7882  -23.3459   14.1501 C   0  0  0  0  0  0  0  0  0  0  0  0
  -26.4211  -22.7870   14.5305 C   0  0  0  0  0  0  0  0  0  0  0  0
  -25.4965  -28.0625   26.4938 C   0  0  1  0  0  0  0  0  0  0  0  0
  -26.5230  -25.1016   28.6267 C   0  0  2  0  0  0  0  0  0  0  0  0
  -25.7188  -29.5178   26.9941 C   0  0  0  0  0  0  0  0  0  0  0  0
  -30.5169  -24.6686   19.6043 N   0  0  0  0  0  0  0  0  0  0  0  0
  -27.4356  -16.7503   19.3235 N   0  0  0  0  0  0  0  0  0  0  0  0
  -29.3231  -25.8948   17.9076 N   0  0  0  0  0  0  0  0  0  0  0  0
  -28.4300  -17.6522   19.2614 N   0  0  0  0  0  0  0  0  0  0  0  0
  -24.0821  -27.4597   24.5548 N   0  0  0  0  0  0  0  0  0  0  0  0
  -26.6492  -20.5206   17.4754 N   0  0  0  0  0  0  0  0  0  0  0  0
  -30.7618  -17.9179   19.5823 N   0  0  0  0  0  0  0  0  0  0  0  0
  -30.0640  -13.5657   20.5661 N   0  0  0  0  0  0  0  0  0  0  0  0
  -21.4602  -28.9236   22.4862 N   0  0  0  0  0  0  0  0  0  0  0  0
  -25.6435  -27.0456   27.5295 N   0  0  0  0  0  0  0  0  0  0  0  0
  -26.4017  -22.2396   15.8687 N   0  0  0  0  0  0  0  0  0  0  0  0
  -26.8306  -23.7015   28.2192 N   0  3  0  0  0  0  0  0  0  0  0  0
  -31.6541  -15.2126   20.4322 O   0  0  0  0  0  0  0  0  0  0  0  0
  -23.5922  -29.5563   23.1766 O   0  0  0  0  0  0  0  0  0  0  0  0
  -23.1269  -28.0496   26.5983 O   0  0  0  0  0  0  0  0  0  0  0  0
  -27.3323  -25.8541   26.4782 O   0  0  0  0  0  0  0  0  0  0  0  0
  -27.0040  -20.1256   15.2179 O   0  0  0  0  0  0  0  0  0  0  0  0
  -25.1744  -10.8998   20.4225 O   0  0  0  0  0  0  0  0  0  0  0  0
  -27.1780  -25.2492   19.6986 O   0  0  0  0  0  0  0  0  0  1  0  0
  -20.3950  -11.2038   23.1554 F   0  0  0  0  0  0  0  0  0  0  0  0
  -24.7817   -9.4707   22.7562 F   0  0  0  0  0  0  0  0  0  0  0  0
  -32.6337  -24.3853   16.2559 Cl  0  0  0  0  0  0  0  0  0  0  0  0
  1  2  1  0  0  0  0
  1  5  2  0  0  0  0
  2  6  2  0  0  0  0
  3  8  2  0  0  0  0
  3 16  1  0  0  0  0
  4  9  1  0  0  0  0
  4 16  2  0  0  0  0
  5 18  1  0  0  0  0
  6 20  1  0  0  0  0
  7 10  2  0  0  0  0
  7 19  1  0  0  0  0
  8 22  1  0  0  0  0
  9 22  2  0  0  0  0
 10 23  1  0  0  0  0
 11 12  2  0  0  0  0
 11 24  1  0  0  0  0
 12 25  1  0  0  0  0
 13 21  1  0  0  0  0
 13 23  2  0  0  0  0
 14 25  2  0  0  0  0
 14 26  1  0  0  0  0
 15 27  1  0  0  0  0
 15 63  2  0  0  0  0
 16 28  1  0  0  0  0
 17 28  1  0  0  0  0
 17 30  2  0  0  0  0
 17 32  1  0  0  0  0
 18 20  2  0  0  0  0
 18 37  1  0  0  0  0
 19 21  2  0  0  0  0
 19 38  1  0  0  0  0
 20 46  1  0  0  0  0
 21 39  1  0  0  0  0
 22 80  1  0  0  0  0
 23 81  1  0  0  0  0
 24 26  2  0  0  0  0
 24 80  1  0  0  0  0
 25 82  1  0  0  0  0
 26 83  1  0  0  0  0
 27 29  2  0  0  0  0
 27 84  1  0  0  0  0
 28 64  2  0  0  0  0
 29 54  1  0  0  0  0
 29 65  1  0  0  0  0
 30 66  1  0  0  0  0
 30 69  1  0  0  0  0
 31 55  1  0  0  0  0
 31 63  1  0  0  0  0
 31 65  2  0  0  0  0
 32 70  1  0  0  0  0
 32 75  2  0  0  0  0
 33 47  1  0  0  0  0
 33 71  1  0  0  0  0
 33 76  2  0  0  0  0
 34 60  1  0  0  0  0
 34 67  1  0  0  0  0
 34 77  2  0  0  0  0
 35 61  1  0  0  0  0
 35 72  1  0  0  0  0
 35 78  2  0  0  0  0
 36 68  1  0  0  0  0
 36 73  1  0  0  0  0
 36 79  2  0  0  0  0
 37 40  1  0  0  0  0
 38 47  1  0  0  0  0
 39 67  1  0  0  0  0
 40 42  1  0  0  0  0
 41 43  1  0  0  0  0
 41 44  1  0  0  0  0
 42 46  1  0  0  0  0
 43 48  1  0  0  0  0
 44 68  1  0  0  0  0
 45 48  1  0  0  0  0
 45 68  1  0  0  0  0
 46 71  1  0  0  0  0
 47 67  1  0  0  0  0
 48 66  1  0  0  0  0
 49 61  1  0  0  0  0
 50 62  1  0  0  0  0
 51 62  1  0  0  0  0
 52 62  1  0  0  0  0
 53 74  1  0  0  0  0
 54 56  1  0  0  0  0
 55 81  1  0  0  0  0
 56 57  1  0  0  0  0
 57 58  1  0  0  0  0
 58 59  1  0  0  0  0
 59 73  1  0  0  0  0
 60 62  1  0  0  0  0
 60 72  1  0  0  0  0
 61 74  1  0  0  0  0
 64 66  1  0  0  0  0
M  CHG  1  74   1
M  ISO  4  36 100  55 101  73 100  81 101
M  END
> <Batch ID>
0044

> <Smiles>
CNC(C)C(=O)NC(C(=O)N1Cc2cc([101O:1][101CH2:1]c3ncc(Cl)c(CCCCC[100NH:0][100C:0](=O)N4CCCC(n5nc(-c6ccc(Oc7ccc(F)cc7F)cc6)c(C(N)=O)c5N)C4)n3)ccc2CC1C(=O)NC1CCCc2ccccc21)C(C)(C)C

> <Shape>
0.190

> <Color>
0.071

> <Negative vol penalty>
0.000

$$$$

  -OEChem-04052317173D

 82 90  0     1  0  0  0  0  0999 V2000
  -37.0195  -23.4135   21.0617 C   0  0  0  0  0  0  0  0  0  0  0  0
  -35.8222  -22.7671   20.7721 C   0  0  0  0  0  0  0  0  0  0  0  0
  -23.0800   -9.8518   19.9671 C   0  0  0  0  0  0  0  0  0  0  0  0
  -23.8349   -9.8961   22.2617 C   0  0  0  0  0  0  0  0  0  0  0  0
  -37.0036  -24.6972   21.6055 C   0  0  0  0  0  0  0  0  0  0  0  0
  -34.6080  -23.4037   21.0272 C   0  0  0  0  0  0  0  0  0  0  0  0
  -31.3206  -22.9201   17.2057 C   0  0  0  0  0  0  0  0  0  0  0  0
  -22.3379   -8.7012   20.2334 C   0  0  0  0  0  0  0  0  0  0  0  0
  -23.0927   -8.7455   22.5281 C   0  0  0  0  0  0  0  0  0  0  0  0
  -30.6503  -21.7029   17.0926 C   0  0  0  0  0  0  0  0  0  0  0  0
  -21.1101   -6.0256   23.9029 C   0  0  0  0  0  0  0  0  0  0  0  0
  -20.3514   -5.9988   25.0730 C   0  0  0  0  0  0  0  0  0  0  0  0
  -28.7128  -22.6786   18.1476 C   0  0  0  0  0  0  0  0  0  0  0  0
  -19.1047   -7.9220   24.3086 C   0  0  0  0  0  0  0  0  0  0  0  0
  -23.8286  -10.4492   20.9812 C   0  0  0  0  0  0  0  0  0  0  0  0
  -24.1658  -12.9729   20.8226 C   0  0  0  0  0  0  0  0  0  0  0  0
  -35.7888  -25.3537   21.8583 C   0  0  0  0  0  0  0  0  0  0  0  0
  -30.6948  -24.0246   17.8015 C   0  0  0  0  0  0  0  0  0  0  0  0
  -34.5758  -24.6969   21.5761 C   0  0  0  0  0  0  0  0  0  0  0  0
  -29.3763  -23.9095   18.2648 C   0  0  0  0  0  0  0  0  0  0  0  0
  -28.2845  -18.4245   19.5648 C   0  0  0  0  0  0  0  0  0  0  0  0
  -22.3442   -8.1481   21.5139 C   0  0  0  0  0  0  0  0  0  0  0  0
  -29.3472  -21.5811   17.5662 C   0  0  0  0  0  0  0  0  0  0  0  0
  -20.8662   -7.0007   22.9356 C   0  0  0  0  0  0  0  0  0  0  0  0
  -19.3486   -6.9469   25.2758 C   0  0  0  0  0  0  0  0  0  0  0  0
  -19.8635   -7.9488   23.1385 C   0  0  0  0  0  0  0  0  0  0  0  0
  -24.5959  -11.6375   20.7066 C   0  0  0  0  0  0  0  0  0  0  0  0
  -29.0791  -18.4114   20.7268 C   0  0  0  0  0  0  0  0  0  0  0  0
  -27.0437  -18.8193   20.0019 C   0  0  0  0  0  0  0  0  0  0  0  0
  -25.2573  -13.7188   20.4501 C   0  0  0  0  0  0  0  0  0  0  0  0
  -22.8934  -13.4926   21.2307 C   0  0  0  0  0  0  0  0  0  0  0  0
  -31.2706  -25.8175   20.3623 C   0  0  0  0  0  0  0  0  0  0  0  0
  -28.7960  -27.5698   19.2100 C   0  0  0  0  0  0  0  0  0  0  0  0
  -25.9705  -27.6866   17.2995 C   0  0  0  0  0  0  0  0  0  0  0  0
  -30.7386  -14.7515   20.6344 C   0  0  0  0  0  0  0  0  0  0  0  0
  -35.8212  -26.7225   22.4908 C   0  0  0  0  0  0  0  0  0  0  0  0
  -31.4219  -25.3382   17.8918 C   0  0  0  0  0  0  0  0  0  0  0  0
  -28.6527  -25.0708   18.8942 C   0  0  0  0  0  0  0  0  0  0  0  0
  -34.4975  -27.4751   22.3824 C   0  0  0  0  0  0  0  0  0  0  0  0
  -29.6109  -12.3278   18.2826 C   0  0  0  0  0  0  0  0  0  0  0  0
  -33.3336  -26.5658   22.7636 C   0  0  0  0  0  0  0  0  0  0  0  0
  -28.1731  -12.0380   18.7170 C   0  0  0  0  0  0  0  0  0  0  0  0
  -30.5249  -12.5691   19.4819 C   0  0  0  0  0  0  0  0  0  0  0  0
  -28.6187  -13.3180   20.8528 C   0  0  0  0  0  0  0  0  0  0  0  0
  -33.2388  -25.3643   21.8154 C   0  0  1  0  0  0  0  0  0  0  0  0
  -30.8703  -26.2528   18.9811 C   0  0  1  0  0  0  0  0  0  0  0  0
  -27.6475  -13.1231   19.6759 C   0  0  2  0  0  0  0  0  0  0  0  0
  -25.7760  -19.0267   19.2765 C   0  0  0  0  0  0  0  0  0  0  0  0
  -24.1416  -29.2473   16.5810 C   0  0  0  0  0  0  0  0  0  0  0  0
  -27.4888  -27.2971   21.9535 C   0  0  0  0  0  0  0  0  0  0  0  0
  -25.3263  -28.0172   20.9174 C   0  0  0  0  0  0  0  0  0  0  0  0
  -27.2824  -29.5653   20.9204 C   0  0  0  0  0  0  0  0  0  0  0  0
  -26.1298  -19.4315   22.2614 C   0  0  0  0  0  0  0  0  0  0  0  0
  -26.7047  -27.4186   14.4450 C   0  0  0  0  0  0  0  0  0  0  0  0
  -28.6990  -18.0817   18.1545 C   0  0  0  0  0  0  0  0  0  0  0  0
  -30.5055  -18.0601   20.8422 C   0  0  0  0  0  0  0  0  0  0  0  0
  -30.7975  -16.9212   21.8377 C   0  0  0  0  0  0  0  0  0  0  0  0
  -29.4839  -19.2080   17.4909 C   0  0  0  0  0  0  0  0  0  1  0  0
  -27.2974  -27.5518   19.3913 C   0  0  1  0  0  0  0  0  0  0  0  0
  -25.5090  -28.6741   16.2430 C   0  0  2  0  0  0  0  0  0  0  0  0
  -26.8627  -28.0852   20.7856 C   0  0  0  0  0  0  0  0  0  0  0  0
  -25.8619  -11.5376   20.2926 N   0  0  0  0  0  0  0  0  0  0  0  0
  -28.4002  -18.7696   21.8198 N   0  0  0  0  0  0  0  0  0  0  0  0
  -27.1659  -19.0116   21.3466 N   0  0  0  0  0  0  0  0  0  0  0  0
  -26.2366  -12.8198   20.1451 N   0  0  0  0  0  0  0  0  0  0  0  0
  -29.4082  -26.3324   18.9654 N   0  0  0  0  0  0  0  0  0  0  0  0
  -29.9704  -13.6102   20.3505 N   0  0  0  0  0  0  0  0  0  0  0  0
  -25.4652  -15.0493   20.3567 N   0  0  0  0  0  0  0  0  0  0  0  0
  -21.8825  -12.5868   21.5799 N   0  0  0  0  0  0  0  0  0  0  0  0
  -32.6370  -25.7578   20.5595 N   0  0  0  0  0  0  0  0  0  0  0  0
  -26.7412  -28.2964   18.2667 N   0  0  0  0  0  0  0  0  0  0  0  0
  -30.1358  -15.6921   21.4605 N   0  0  0  0  0  0  0  0  0  0  0  0
  -25.4236  -28.0075   14.9129 N   0  3  0  0  0  0  0  0  0  0  0  0
  -22.6546  -14.7235   21.2683 O   0  0  0  0  0  0  0  0  0  0  0  0
  -30.4040  -25.5564   21.1885 O   0  0  0  0  0  0  0  0  0  0  0  0
  -29.4003  -28.6432   19.2756 O   0  0  0  0  0  0  0  0  0  0  0  0
  -25.6737  -26.4942   17.2717 O   0  0  0  0  0  0  0  0  0  0  0  0
  -31.8752  -14.9221   20.1805 O   0  0  0  0  0  0  0  0  0  0  0  0
  -21.6199   -7.0255   21.7741 O   0  0  0  0  0  0  0  0  0  0  0  0
  -28.6910  -20.3940   17.4576 O   0  0  0  0  0  0  0  0  0  1  0  0
  -18.6190   -6.9201   26.3988 F   0  0  0  0  0  0  0  0  0  0  0  0
  -19.6237   -8.8872   22.2123 F   0  0  0  0  0  0  0  0  0  0  0  0
  1  2  1  0  0  0  0
  1  5  2  0  0  0  0
  2  6  2  0  0  0  0
  3  8  2  0  0  0  0
  3 15  1  0  0  0  0
  4  9  1  0  0  0  0
  4 15  2  0  0  0  0
  5 17  1  0  0  0  0
  6 19  1  0  0  0  0
  7 10  2  0  0  0  0
  7 18  1  0  0  0  0
  8 22  1  0  0  0  0
  9 22  2  0  0  0  0
 10 23  1  0  0  0  0
 11 12  2  0  0  0  0
 11 24  1  0  0  0  0
 12 25  1  0  0  0  0
 13 20  1  0  0  0  0
 13 23  2  0  0  0  0
 14 25  2  0  0  0  0
 14 26  1  0  0  0  0
 15 27  1  0  0  0  0
 16 27  1  0  0  0  0
 16 30  2  0  0  0  0
 16 31  1  0  0  0  0
 17 19  2  0  0  0  0
 17 36  1  0  0  0  0
 18 20  2  0  0  0  0
 18 37  1  0  0  0  0
 19 45  1  0  0  0  0
 20 38  1  0  0  0  0
 21 28  1  0  0  0  0
 21 29  2  0  0  0  0
 21 55  1  0  0  0  0
 22 79  1  0  0  0  0
 23 80  1  0  0  0  0
 24 26  2  0  0  0  0
 24 79  1  0  0  0  0
 25 81  1  0  0  0  0
 26 82  1  0  0  0  0
 27 62  2  0  0  0  0
 28 56  1  0  0  0  0
 28 63  2  0  0  0  0
 29 48  1  0  0  0  0
 29 64  1  0  0  0  0
 30 65  1  0  0  0  0
 30 68  1  0  0  0  0
 31 69  1  0  0  0  0
 31 74  2  0  0  0  0
 32 46  1  0  0  0  0
 32 70  1  0  0  0  0
 32 75  2  0  0  0  0
 33 59  1  0  0  0  0
 33 66  1  0  0  0  0
 33 76  2  0  0  0  0
 34 60  1  0  0  0  0
 34 71  1  0  0  0  0
 34 77  2  0  0  0  0
 35 67  1  0  0  0  0
 35 72  1  0  0  0  0
 35 78  2  0  0  0  0
 36 39  1  0  0  0  0
 37 46  1  0  0  0  0
 38 66  1  0  0  0  0
 39 41  1  0  0  0  0
 40 42  1  0  0  0  0
 40 43  1  0  0  0  0
 41 45  1  0  0  0  0
 42 47  1  0  0  0  0
 43 67  1  0  0  0  0
 44 47  1  0  0  0  0
 44 67  1  0  0  0  0
 45 70  1  0  0  0  0
 46 66  1  0  0  0  0
 47 65  1  0  0  0  0
 49 60  1  0  0  0  0
 50 61  1  0  0  0  0
 51 61  1  0  0  0  0
 52 61  1  0  0  0  0
 53 64  1  0  0  0  0
 54 73  1  0  0  0  0
 55 58  1  0  0  0  0
 56 57  1  0  0  0  0
 57 72  1  0  0  0  0
 58 80  1  0  0  0  0
 59 61  1  0  0  0  0
 59 71  1  0  0  0  0
 60 73  1  0  0  0  0
 62 65  1  0  0  0  0
 63 64  1  0  0  0  0
M  CHG  1  73   1
M  ISO  4  35 100  58 101  72 100  80 101
M  END
> <Batch ID>
0044

> <Smiles>
CNC(C)C(=O)NC(C(=O)N1Cc2cc([101O:1][101CH2:1]Cc3c(CC[100NH:0][100C:0](=O)N4CCCC(n5nc(-c6ccc(Oc7ccc(F)cc7F)cc6)c(C(N)=O)c5N)C4)nn(C)c3C)ccc2CC1C(=O)NC1CCCc2ccccc21)C(C)(C)C

> <Shape>
0.294

> <Color>
0.197

> <Negative vol penalty>
0.000

$$$$

  -OEChem-04052317173D

 89 97  0     1  0  0  0  0  0999 V2000
  -21.2565  -26.0642   17.1608 C   0  0  0  0  0  0  0  0  0  0  0  0
  -21.9762  -25.5118   18.2154 C   0  0  0  0  0  0  0  0  0  0  0  0
  -23.4023   -9.6625   19.9466 C   0  0  0  0  0  0  0  0  0  0  0  0
  -23.8290   -9.9604   22.3058 C   0  0  0  0  0  0  0  0  0  0  0  0
  -21.3648  -27.4260   16.8821 C   0  0  0  0  0  0  0  0  0  0  0  0
  -22.8055  -26.3209   18.9914 C   0  0  0  0  0  0  0  0  0  0  0  0
  -22.2975  -25.4331   23.9511 C   0  0  0  0  0  0  0  0  0  0  0  0
  -22.7501   -8.4594   20.2164 C   0  0  0  0  0  0  0  0  0  0  0  0
  -23.1768   -8.7573   22.5757 C   0  0  0  0  0  0  0  0  0  0  0  0
  -22.9324  -24.3028   24.4640 C   0  0  0  0  0  0  0  0  0  0  0  0
  -19.9925   -7.6555   22.8343 C   0  0  0  0  0  0  0  0  0  0  0  0
  -19.0869   -7.6348   23.8950 C   0  0  0  0  0  0  0  0  0  0  0  0
  -24.7335  -25.6889   25.2727 C   0  0  0  0  0  0  0  0  0  0  0  0
  -26.8504  -23.3599   22.6112 C   0  0  0  0  0  0  0  0  0  0  0  0
  -20.4009   -5.9242   24.9834 C   0  0  0  0  0  0  0  0  0  0  0  0
  -23.9418  -10.4130   20.9913 C   0  0  0  0  0  0  0  0  0  0  0  0
  -24.0421  -12.9397   20.6549 C   0  0  0  0  0  0  0  0  0  0  0  0
  -22.1884  -28.2539   17.6610 C   0  0  0  0  0  0  0  0  0  0  0  0
  -22.8821  -26.7006   24.0859 C   0  0  0  0  0  0  0  0  0  0  0  0
  -22.9260  -27.6948   18.7220 C   0  0  0  0  0  0  0  0  0  0  0  0
  -24.1027  -26.8340   24.7630 C   0  0  0  0  0  0  0  0  0  0  0  0
  -27.0501  -22.0711   23.0934 C   0  0  0  0  0  0  0  0  0  0  0  0
  -27.2267  -21.0202   22.2003 C   0  0  0  0  0  0  0  0  0  0  0  0
  -22.6373   -8.0068   21.5310 C   0  0  0  0  0  0  0  0  0  0  0  0
  -24.1520  -24.4302   25.1223 C   0  0  0  0  0  0  0  0  0  0  0  0
  -21.1022   -6.8106   22.8481 C   0  0  0  0  0  0  0  0  0  0  0  0
  -19.2911   -6.7691   24.9695 C   0  0  0  0  0  0  0  0  0  0  0  0
  -21.3064   -5.9449   23.9226 C   0  0  0  0  0  0  0  0  0  0  0  0
  -24.6160  -11.6556   20.7131 C   0  0  0  0  0  0  0  0  0  0  0  0
  -26.8361  -23.5435   21.2379 C   0  0  0  0  0  0  0  0  0  0  0  0
  -27.1953  -21.3085   20.8454 C   0  0  0  0  0  0  0  0  0  0  0  0
  -25.0937  -13.7727   20.3604 C   0  0  0  0  0  0  0  0  0  0  0  0
  -22.6802  -13.3435   20.8498 C   0  0  0  0  0  0  0  0  0  0  0  0
  -23.9454  -28.9073   22.0602 C   0  0  0  0  0  0  0  0  0  0  0  0
  -24.3227  -30.6524   24.7684 C   0  0  0  0  0  0  0  0  0  0  0  0
  -24.7567  -30.6910   28.1533 C   0  0  0  0  0  0  0  0  0  0  0  0
  -30.7374  -14.4132   21.4795 C   0  0  0  0  0  0  0  0  0  0  0  0
  -22.3097  -29.7112   17.2920 C   0  0  0  0  0  0  0  0  0  0  0  0
  -22.1715  -27.9134   23.5505 C   0  0  0  0  0  0  0  0  0  0  0  0
  -24.7623  -28.1748   24.9520 C   0  0  0  0  0  0  0  0  0  0  0  0
  -22.9211  -30.5702   18.3959 C   0  0  0  0  0  0  0  0  0  0  0  0
  -29.5721  -13.1565   18.3587 C   0  0  0  0  0  0  0  0  0  0  0  0
  -24.1642  -29.8974   18.9692 C   0  0  0  0  0  0  0  0  0  0  0  0
  -28.1219  -12.7607   18.6423 C   0  0  0  0  0  0  0  0  0  0  0  0
  -30.4782  -12.8749   19.5552 C   0  0  0  0  0  0  0  0  0  0  0  0
  -28.5771  -13.0740   21.1108 C   0  0  0  0  0  0  0  0  0  0  0  0
  -23.8170  -28.5444   19.6020 C   0  0  1  0  0  0  0  0  0  0  0  0
  -23.1080  -29.0901   23.2943 C   0  0  1  0  0  0  0  0  0  0  0  0
  -27.6148  -13.3911   19.9533 C   0  0  2  0  0  0  0  0  0  0  0  0
  -27.3805  -20.2215   19.8376 C   0  0  0  0  0  0  0  0  0  0  0  0
  -27.7364  -27.0478   19.8910 C   0  0  0  0  0  0  0  0  0  0  0  0
  -25.0707  -32.2664   30.0812 C   0  0  0  0  0  0  0  0  0  0  0  0
  -27.2202  -31.1031   23.9251 C   0  0  0  0  0  0  0  0  0  0  0  0
  -27.7154  -31.8337   26.2680 C   0  0  0  0  0  0  0  0  0  0  0  0
  -26.0867  -33.1169   24.8812 C   0  0  0  0  0  0  0  0  0  0  0  0
  -22.2767  -29.7569   29.4709 C   0  0  0  0  0  0  0  0  0  0  0  0
  -27.0678  -21.8406   24.5835 C   0  0  0  0  0  0  0  0  0  0  0  0
  -27.4453  -19.6277   22.6887 C   0  0  0  0  0  0  0  0  0  0  0  0
  -26.6257  -24.9133   20.6845 C   0  0  0  0  0  0  0  0  0  0  0  0
  -27.9502  -25.6653   20.4867 C   0  0  0  0  0  0  0  0  0  0  0  0
  -25.7830  -21.2096   25.1244 C   0  0  0  0  0  0  0  0  0  0  0  0
  -28.9186  -19.2033   22.5945 C   0  0  0  0  0  0  0  0  0  0  0  0
  -29.1247  -17.7606   23.0608 C   0  0  0  0  0  0  0  0  0  0  0  0
  -30.6024  -17.3629   22.9992 C   0  0  0  0  0  0  0  0  0  0  0  0
  -30.8411  -15.9242   23.4455 C   0  0  0  0  0  0  0  0  0  0  0  0
  -24.5540  -22.0930   24.9440 C   0  0  0  0  0  0  0  0  0  1  0  0
  -25.4346  -30.8423   25.7717 C   0  0  1  0  0  0  0  0  0  0  0  0
  -24.0669  -31.4844   29.2483 C   0  0  2  0  0  0  0  0  0  0  0  0
  -26.6030  -31.6983   25.2064 C   0  0  0  0  0  0  0  0  0  0  0  0
  -25.9302  -11.6668   20.4745 N   0  0  0  0  0  0  0  0  0  0  0  0
  -27.0040  -22.5475   20.3394 N   0  0  0  0  0  0  0  0  0  0  0  0
  -26.1907  -12.9682   20.2635 N   0  0  0  0  0  0  0  0  0  0  0  0
  -24.0313  -29.3299   24.4052 N   0  0  0  0  0  0  0  0  0  0  0  0
  -29.9420  -13.5016   20.7659 N   0  0  0  0  0  0  0  0  0  0  0  0
  -25.1777  -15.1076   20.1774 N   0  0  0  0  0  0  0  0  0  0  0  0
  -21.7274  -12.3592   21.1457 N   0  0  0  0  0  0  0  0  0  0  0  0
  -23.2111  -28.7352   20.9024 N   0  0  0  0  0  0  0  0  0  0  0  0
  -24.8132  -31.3962   26.9698 N   0  0  0  0  0  0  0  0  0  0  0  0
  -30.1507  -14.9660   22.6113 N   0  0  0  0  0  0  0  0  0  0  0  0
  -23.3145  -30.5711   30.1542 N   0  3  0  0  0  0  0  0  0  0  0  0
  -22.3161  -14.5395   20.7479 O   0  0  0  0  0  0  0  0  0  0  0  0
  -25.1673  -28.9228   22.1514 O   0  0  0  0  0  0  0  0  0  0  0  0
  -23.7295  -31.6406   24.3288 O   0  0  0  0  0  0  0  0  0  0  0  0
  -25.2041  -29.5602   28.3311 O   0  0  0  0  0  0  0  0  0  0  0  0
  -31.8835  -14.7163   21.1308 O   0  0  0  0  0  0  0  0  0  0  0  0
  -22.0008   -6.8329   21.7947 O   0  0  0  0  0  0  0  0  0  0  0  0
  -24.7742  -23.3284   25.6233 O   0  0  0  0  0  0  0  0  0  1  0  0
  -18.4222   -6.7504   25.9888 F   0  0  0  0  0  0  0  0  0  0  0  0
  -22.3714   -5.1317   23.9421 F   0  0  0  0  0  0  0  0  0  0  0  0
  1  2  1  0  0  0  0
  1  5  2  0  0  0  0
  2  6  2  0  0  0  0
  3  8  2  0  0  0  0
  3 16  1  0  0  0  0
  4  9  1  0  0  0  0
  4 16  2  0  0  0  0
  5 18  1  0  0  0  0
  6 20  1  0  0  0  0
  7 10  2  0  0  0  0
  7 19  1  0  0  0  0
  8 24  1  0  0  0  0
  9 24  2  0  0  0  0
 10 25  1  0  0  0  0
 11 12  2  0  0  0  0
 11 26  1  0  0  0  0
 12 27  1  0  0  0  0
 13 21  1  0  0  0  0
 13 25  2  0  0  0  0
 14 22  2  0  0  0  0
 14 30  1  0  0  0  0
 15 27  2  0  0  0  0
 15 28  1  0  0  0  0
 16 29  1  0  0  0  0
 17 29  1  0  0  0  0
 17 32  2  0  0  0  0
 17 33  1  0  0  0  0
 18 20  2  0  0  0  0
 18 38  1  0  0  0  0
 19 21  2  0  0  0  0
 19 39  1  0  0  0  0
 20 47  1  0  0  0  0
 21 40  1  0  0  0  0
 22 23  1  0  0  0  0
 22 57  1  0  0  0  0
 23 31  2  0  0  0  0
 23 58  1  0  0  0  0
 24 86  1  0  0  0  0
 25 87  1  0  0  0  0
 26 28  2  0  0  0  0
 26 86  1  0  0  0  0
 27 88  1  0  0  0  0
 28 89  1  0  0  0  0
 29 70  2  0  0  0  0
 30 59  1  0  0  0  0
 30 71  2  0  0  0  0
 31 50  1  0  0  0  0
 31 71  1  0  0  0  0
 32 72  1  0  0  0  0
 32 75  1  0  0  0  0
 33 76  1  0  0  0  0
 33 81  2  0  0  0  0
 34 48  1  0  0  0  0
 34 77  1  0  0  0  0
 34 82  2  0  0  0  0
 35 67  1  0  0  0  0
 35 73  1  0  0  0  0
 35 83  2  0  0  0  0
 36 68  1  0  0  0  0
 36 78  1  0  0  0  0
 36 84  2  0  0  0  0
 37 74  1  0  0  0  0
 37 79  1  0  0  0  0
 37 85  2  0  0  0  0
 38 41  1  0  0  0  0
 39 48  1  0  0  0  0
 40 73  1  0  0  0  0
 41 43  1  0  0  0  0
 42 44  1  0  0  0  0
 42 45  1  0  0  0  0
 43 47  1  0  0  0  0
 44 49  1  0  0  0  0
 45 74  1  0  0  0  0
 46 49  1  0  0  0  0
 46 74  1  0  0  0  0
 47 77  1  0  0  0  0
 48 73  1  0  0  0  0
 49 72  1  0  0  0  0
 51 60  1  0  0  0  0
 52 68  1  0  0  0  0
 53 69  1  0  0  0  0
 54 69  1  0  0  0  0
 55 69  1  0  0  0  0
 56 80  1  0  0  0  0
 57 61  1  0  0  0  0
 58 62  1  0  0  0  0
 59 60  1  0  0  0  0
 61 66  1  0  0  0  0
 62 63  1  0  0  0  0
 63 64  1  0  0  0  0
 64 65  1  0  0  0  0
 65 79  1  0  0  0  0
 66 87  1  0  0  0  0
 67 69  1  0  0  0  0
 67 78  1  0  0  0  0
 68 80  1  0  0  0  0
 70 72  1  0  0  0  0
M  CHG  1  80   1
M  ISO  4  37 100  66 101  79 100  87 101
M  END
> <Batch ID>
0044

> <Smiles>
CCCc1cc(CC[101CH2:1][101O:1]c2ccc3c(c2)CN(C(=O)C(NC(=O)C(C)NC)C(C)(C)C)C(C(=O)NC2CCCc4ccccc42)C3)c(CCCCC[100NH:0][100C:0](=O)N2CCCC(n3nc(-c4ccc(Oc5ccc(F)cc5F)cc4)c(C(N)=O)c3N)C2)c(C)n1

> <Shape>
0.281

> <Color>
0.194

> <Negative vol penalty>
0.000

$$$$

  -OEChem-04052317173D

 85 93  0     1  0  0  0  0  0999 V2000
  -19.8255  -12.3699   21.3148 C   0  0  0  0  0  0  0  0  0  0  0  0
  -20.1958  -13.4876   20.5739 C   0  0  0  0  0  0  0  0  0  0  0  0
  -22.6527  -24.6719   21.0807 C   0  0  0  0  0  0  0  0  0  0  0  0
  -22.9879  -24.7949   23.4701 C   0  0  0  0  0  0  0  0  0  0  0  0
  -20.6617  -11.8962   22.3250 C   0  0  0  0  0  0  0  0  0  0  0  0
  -21.4021  -14.1330   20.8434 C   0  0  0  0  0  0  0  0  0  0  0  0
  -26.6448  -17.7603   17.5763 C   0  0  0  0  0  0  0  0  0  0  0  0
  -31.3283  -23.9319   17.3563 C   0  0  0  0  0  0  0  0  0  0  0  0
  -22.9361  -23.3065   21.1111 C   0  0  0  0  0  0  0  0  0  0  0  0
  -23.2713  -23.4295   23.5006 C   0  0  0  0  0  0  0  0  0  0  0  0
  -27.3428  -18.9634   17.6707 C   0  0  0  0  0  0  0  0  0  0  0  0
  -21.3312  -20.4471   21.9365 C   0  0  0  0  0  0  0  0  0  0  0  0
  -20.4940  -19.5951   21.2163 C   0  0  0  0  0  0  0  0  0  0  0  0
  -30.5233  -22.8251   17.1107 C   0  0  0  0  0  0  0  0  0  0  0  0
  -28.7443  -18.0087   19.3864 C   0  0  0  0  0  0  0  0  0  0  0  0
  -22.3780  -18.8625   19.8930 C   0  0  0  0  0  0  0  0  0  0  0  0
  -22.6787  -25.4161   22.2601 C   0  0  0  0  0  0  0  0  0  0  0  0
  -21.1264  -27.4373   22.3748 C   0  0  0  0  0  0  0  0  0  0  0  0
  -21.8833  -12.5304   22.6006 C   0  0  0  0  0  0  0  0  0  0  0  0
  -26.9847  -16.6740   18.3953 C   0  0  0  0  0  0  0  0  0  0  0  0
  -22.2548  -13.6682   21.8591 C   0  0  0  0  0  0  0  0  0  0  0  0
  -28.0507  -16.7920   19.2986 C   0  0  0  0  0  0  0  0  0  0  0  0
  -31.1363  -24.6817   18.5114 C   0  0  0  0  0  0  0  0  0  0  0  0
  -23.2454  -22.6853   22.3211 C   0  0  0  0  0  0  0  0  0  0  0  0
  -28.3909  -19.0887   18.5779 C   0  0  0  0  0  0  0  0  0  0  0  0
  -22.6918  -20.5070   21.6349 C   0  0  0  0  0  0  0  0  0  0  0  0
  -21.0174  -18.8027   20.1946 C   0  0  0  0  0  0  0  0  0  0  0  0
  -23.2152  -19.7147   20.6131 C   0  0  0  0  0  0  0  0  0  0  0  0
  -22.3865  -26.8267   22.2292 C   0  0  0  0  0  0  0  0  0  0  0  0
  -29.5482  -22.5126   18.0441 C   0  0  0  0  0  0  0  0  0  0  0  0
  -30.1336  -24.2862   19.3819 C   0  0  0  0  0  0  0  0  0  0  0  0
  -21.3827  -28.7826   22.2704 C   0  0  0  0  0  0  0  0  0  0  0  0
  -19.8394  -26.8416   22.5855 C   0  0  0  0  0  0  0  0  0  0  0  0
  -25.4786  -14.9965   20.6362 C   0  0  0  0  0  0  0  0  0  0  0  0
  -28.1547  -13.1673   20.5149 C   0  0  0  0  0  0  0  0  0  0  0  0
  -31.4743  -12.9363   19.7571 C   0  0  0  0  0  0  0  0  0  0  0  0
  -26.7780  -28.5010   22.0937 C   0  0  0  0  0  0  0  0  0  0  0  0
  -22.7319  -12.0101   23.7337 C   0  0  0  0  0  0  0  0  0  0  0  0
  -26.2392  -15.3743   18.2625 C   0  0  0  0  0  0  0  0  0  0  0  0
  -28.4683  -15.6491   20.1862 C   0  0  0  0  0  0  0  0  0  0  0  0
  -24.1680  -12.5269   23.7063 C   0  0  0  0  0  0  0  0  0  0  0  0
  -24.5913  -29.9860   19.5800 C   0  0  0  0  0  0  0  0  0  0  0  0
  -24.1890  -14.0326   23.4629 C   0  0  0  0  0  0  0  0  0  0  0  0
  -23.5364  -30.6683   20.4436 C   0  0  0  0  0  0  0  0  0  0  0  0
  -25.9751  -30.0338   20.2223 C   0  0  0  0  0  0  0  0  0  0  0  0
  -24.9528  -30.1248   22.4869 C   0  0  0  0  0  0  0  0  0  0  0  0
  -23.5671  -14.3807   22.1051 C   0  0  1  0  0  0  0  0  0  0  0  0
  -26.3375  -14.4991   19.5082 C   0  0  1  0  0  0  0  0  0  0  0  0
  -23.5318  -30.1719   21.8980 C   0  0  2  0  0  0  0  0  0  0  0  0
  -31.9947  -25.8692   18.7792 C   0  0  0  0  0  0  0  0  0  0  0  0
  -30.5373  -31.2457   21.3592 C   0  0  0  0  0  0  0  0  0  0  0  0
  -33.3972  -11.3245   19.8006 C   0  0  0  0  0  0  0  0  0  0  0  0
  -28.3939  -13.5379   23.5340 C   0  0  0  0  0  0  0  0  0  0  0  0
  -30.7644  -12.7487   23.3730 C   0  0  0  0  0  0  0  0  0  0  0  0
  -28.8980  -11.2263   22.7236 C   0  0  0  0  0  0  0  0  0  0  0  0
  -31.8238  -13.0942   16.8225 C   0  0  0  0  0  0  0  0  0  0  0  0
  -29.8839  -25.0518   20.6398 C   0  0  0  0  0  0  0  0  0  0  0  0
  -28.6626  -21.3237   17.8120 C   0  0  0  0  0  0  0  0  0  1  0  0
  -29.7404  -30.0892   21.9465 C   0  0  0  0  0  0  0  0  0  0  0  0
  -29.0731  -26.3473   20.4454 C   0  0  0  0  0  0  0  0  0  0  0  0
  -28.8192  -29.4306   20.9266 C   0  0  0  0  0  0  0  0  0  0  0  0
  -28.7738  -27.1023   21.7387 C   0  0  0  0  0  0  0  0  0  0  0  0
  -29.4876  -13.1744   21.2237 C   0  0  1  0  0  0  0  0  0  0  0  0
  -32.2586  -11.9000   18.9727 C   0  0  2  0  0  0  0  0  0  0  0  0
  -29.3771  -12.6942   22.6984 C   0  0  0  0  0  0  0  0  0  0  0  0
  -23.3702  -27.7116   22.0462 N   0  0  0  0  0  0  0  0  0  0  0  0
  -29.3318  -23.2171   19.1774 N   0  0  0  0  0  0  0  0  0  0  0  0
  -22.7282  -28.8918   22.0759 N   0  0  0  0  0  0  0  0  0  0  0  0
  -27.7046  -14.4009   20.0236 N   0  0  0  0  0  0  0  0  0  0  0  0
  -25.9582  -29.5307   21.6018 N   0  0  0  0  0  0  0  0  0  0  0  0
  -20.5860  -29.8710   22.3269 N   0  0  0  0  0  0  0  0  0  0  0  0
  -19.7551  -25.4451   22.6685 N   0  0  0  0  0  0  0  0  0  0  0  0
  -24.5018  -14.1044   21.0353 N   0  0  0  0  0  0  0  0  0  0  0  0
  -30.3913  -12.3769   20.4017 N   0  0  0  0  0  0  0  0  0  0  0  0
  -28.0400  -28.3381   21.5049 N   0  0  0  0  0  0  0  0  0  0  0  0
  -32.8347  -12.5095   17.7409 N   0  3  0  0  0  0  0  0  0  0  0  0
  -18.7929  -27.5266   22.6806 O   0  0  0  0  0  0  0  0  0  0  0  0
  -25.6877  -16.1070   21.1105 O   0  0  0  0  0  0  0  0  0  0  0  0
  -27.5391  -12.1051   20.3951 O   0  0  0  0  0  0  0  0  0  0  0  0
  -31.7927  -14.1227   19.7972 O   0  0  0  0  0  0  0  0  0  0  0  0
  -26.4028  -27.7579   23.0104 O   0  0  0  0  0  0  0  0  0  0  0  0
  -23.5218  -21.3529   22.3513 O   0  0  0  0  0  0  0  0  0  0  0  0
  -29.0735  -20.2621   18.6725 O   0  0  0  0  0  0  0  0  0  1  0  0
  -20.2136  -17.9834   19.5041 F   0  0  0  0  0  0  0  0  0  0  0  0
  -24.5217  -19.7670   20.3196 F   0  0  0  0  0  0  0  0  0  0  0  0
  1  2  1  0  0  0  0
  1  5  2  0  0  0  0
  2  6  2  0  0  0  0
  3  9  2  0  0  0  0
  3 17  1  0  0  0  0
  4 10  1  0  0  0  0
  4 17  2  0  0  0  0
  5 19  1  0  0  0  0
  6 21  1  0  0  0  0
  7 11  2  0  0  0  0
  7 20  1  0  0  0  0
  8 14  2  0  0  0  0
  8 23  1  0  0  0  0
  9 24  1  0  0  0  0
 10 24  2  0  0  0  0
 11 25  1  0  0  0  0
 12 13  2  0  0  0  0
 12 26  1  0  0  0  0
 13 27  1  0  0  0  0
 14 30  1  0  0  0  0
 15 22  1  0  0  0  0
 15 25  2  0  0  0  0
 16 27  2  0  0  0  0
 16 28  1  0  0  0  0
 17 29  1  0  0  0  0
 18 29  1  0  0  0  0
 18 32  2  0  0  0  0
 18 33  1  0  0  0  0
 19 21  2  0  0  0  0
 19 38  1  0  0  0  0
 20 22  2  0  0  0  0
 20 39  1  0  0  0  0
 21 47  1  0  0  0  0
 22 40  1  0  0  0  0
 23 31  2  0  0  0  0
 23 50  1  0  0  0  0
 24 82  1  0  0  0  0
 25 83  1  0  0  0  0
 26 28  2  0  0  0  0
 26 82  1  0  0  0  0
 27 84  1  0  0  0  0
 28 85  1  0  0  0  0
 29 66  2  0  0  0  0
 30 58  1  0  0  0  0
 30 67  2  0  0  0  0
 31 57  1  0  0  0  0
 31 67  1  0  0  0  0
 32 68  1  0  0  0  0
 32 71  1  0  0  0  0
 33 72  1  0  0  0  0
 33 77  2  0  0  0  0
 34 48  1  0  0  0  0
 34 73  1  0  0  0  0
 34 78  2  0  0  0  0
 35 63  1  0  0  0  0
 35 69  1  0  0  0  0
 35 79  2  0  0  0  0
 36 64  1  0  0  0  0
 36 74  1  0  0  0  0
 36 80  2  0  0  0  0
 37 70  1  0  0  0  0
 37 75  1  0  0  0  0
 37 81  2  0  0  0  0
 38 41  1  0  0  0  0
 39 48  1  0  0  0  0
 40 69  1  0  0  0  0
 41 43  1  0  0  0  0
 42 44  1  0  0  0  0
 42 45  1  0  0  0  0
 43 47  1  0  0  0  0
 44 49  1  0  0  0  0
 45 70  1  0  0  0  0
 46 49  1  0  0  0  0
 46 70  1  0  0  0  0
 47 73  1  0  0  0  0
 48 69  1  0  0  0  0
 49 68  1  0  0  0  0
 51 59  1  0  0  0  0
 52 64  1  0  0  0  0
 53 65  1  0  0  0  0
 54 65  1  0  0  0  0
 55 65  1  0  0  0  0
 56 76  1  0  0  0  0
 57 60  1  0  0  0  0
 58 83  1  0  0  0  0
 59 61  1  0  0  0  0
 60 62  1  0  0  0  0
 61 75  1  0  0  0  0
 62 75  1  0  0  0  0
 63 65  1  0  0  0  0
 63 74  1  0  0  0  0
 64 76  1  0  0  0  0
 66 68  1  0  0  0  0
M  CHG  1  76   1
M  ISO  4  37 100  58 101  75 100  83 101
M  END
> <Batch ID>
0044

> <Smiles>
CCC[100N:0](CCCc1nc([101CH2:1][101O:1]c2ccc3c(c2)CN(C(=O)C(NC(=O)C(C)NC)C(C)(C)C)C(C(=O)NC2CCCc4ccccc42)C3)ccc1C)[100C:0](=O)N1CCCC(n2nc(-c3ccc(Oc4ccc(F)cc4F)cc3)c(C(N)=O)c2N)C1

> <Shape>
0.254

> <Color>
0.067

> <Negative vol penalty>
0.000

$$$$

  -OEChem-04052317173D

 81 89  0     1  0  0  0  0  0999 V2000
  -23.5364  -31.2096   20.9196 C   0  0  0  0  0  0  0  0  0  0  0  0
  -23.8015  -30.2929   19.9074 C   0  0  0  0  0  0  0  0  0  0  0  0
  -25.7423  -14.6886   20.9753 C   0  0  0  0  0  0  0  0  0  0  0  0
  -24.8098  -13.7146   18.9706 C   0  0  0  0  0  0  0  0  0  0  0  0
  -24.4371  -31.3634   21.9727 C   0  0  0  0  0  0  0  0  0  0  0  0
  -24.9681  -29.5301   19.9470 C   0  0  0  0  0  0  0  0  0  0  0  0
  -24.1399  -24.6552   18.8544 C   0  0  0  0  0  0  0  0  0  0  0  0
  -25.8835  -13.4158   21.5281 C   0  0  0  0  0  0  0  0  0  0  0  0
  -24.9509  -12.4417   19.5234 C   0  0  0  0  0  0  0  0  0  0  0  0
  -23.9768  -24.3227   17.5103 C   0  0  0  0  0  0  0  0  0  0  0  0
  -24.7318   -8.9614   20.5479 C   0  0  0  0  0  0  0  0  0  0  0  0
  -23.6603   -8.0773   20.4218 C   0  0  0  0  0  0  0  0  0  0  0  0
  -26.2671  -23.5700   17.4248 C   0  0  0  0  0  0  0  0  0  0  0  0
  -22.2474   -9.6167   21.6347 C   0  0  0  0  0  0  0  0  0  0  0  0
  -24.0923  -23.3398   11.3956 C   0  0  0  0  0  0  0  0  0  0  0  0
  -25.2054  -14.8380   19.6965 C   0  0  0  0  0  0  0  0  0  0  0  0
  -26.0013  -16.8512   18.3471 C   0  0  0  0  0  0  0  0  0  0  0  0
  -25.6106  -30.5952   22.0303 C   0  0  0  0  0  0  0  0  0  0  0  0
  -25.3731  -24.4573   19.4920 C   0  0  0  0  0  0  0  0  0  0  0  0
  -25.8860  -29.6747   21.0011 C   0  0  0  0  0  0  0  0  0  0  0  0
  -26.4425  -23.8984   18.7777 C   0  0  0  0  0  0  0  0  0  0  0  0
  -25.4878  -12.2923   20.8022 C   0  0  0  0  0  0  0  0  0  0  0  0
  -25.0413  -23.7827   16.7945 C   0  0  0  0  0  0  0  0  0  0  0  0
  -24.5611  -10.1731   21.2175 C   0  0  0  0  0  0  0  0  0  0  0  0
  -22.4181   -8.4050   20.9651 C   0  0  0  0  0  0  0  0  0  0  0  0
  -23.3189  -10.5008   21.7608 C   0  0  0  0  0  0  0  0  0  0  0  0
  -25.0588  -16.1526   19.1252 C   0  0  0  0  0  0  0  0  0  0  0  0
  -23.6233  -23.2504   13.4699 C   0  0  0  0  0  0  0  0  0  0  0  0
  -23.0617  -22.1236   12.9173 C   0  0  0  0  0  0  0  0  0  0  0  0
  -25.3869  -18.0438   18.0524 C   0  0  0  0  0  0  0  0  0  0  0  0
  -27.3147  -16.4574   17.9280 C   0  0  0  0  0  0  0  0  0  0  0  0
  -27.5053  -26.3553   20.8902 C   0  0  0  0  0  0  0  0  0  0  0  0
  -28.9191  -23.5420   21.6705 C   0  0  0  0  0  0  0  0  0  0  0  0
  -29.3650  -20.2316   20.9711 C   0  0  0  0  0  0  0  0  0  0  0  0
  -20.1520  -20.1922   16.8302 C   0  0  0  0  0  0  0  0  0  0  0  0
  -26.5773  -30.8304   23.1639 C   0  0  0  0  0  0  0  0  0  0  0  0
  -25.5249  -24.7963   20.9495 C   0  0  0  0  0  0  0  0  0  0  0  0
  -27.7809  -23.6474   19.4213 C   0  0  0  0  0  0  0  0  0  0  0  0
  -27.6076  -29.7159   23.3269 C   0  0  0  0  0  0  0  0  0  0  0  0
  -21.6604  -20.6243   20.0262 C   0  0  0  0  0  0  0  0  0  0  0  0
  -28.2067  -29.3408   21.9752 C   0  0  0  0  0  0  0  0  0  0  0  0
  -22.7781  -19.5802   20.0474 C   0  0  0  0  0  0  0  0  0  0  0  0
  -20.4236  -20.1123   19.2911 C   0  0  0  0  0  0  0  0  0  0  0  0
  -21.7950  -18.5658   17.9490 C   0  0  0  0  0  0  0  0  0  0  0  0
  -27.1287  -28.8112   21.0218 C   0  0  1  0  0  0  0  0  0  0  0  0
  -26.9753  -25.0304   21.3606 C   0  0  1  0  0  0  0  0  0  0  0  0
  -23.0834  -19.0569   18.6310 C   0  0  2  0  0  0  0  0  0  0  0  0
  -30.6084  -18.2009   21.7634 C   0  0  0  0  0  0  0  0  0  0  0  0
  -31.4830  -24.6281   20.4228 C   0  0  0  0  0  0  0  0  0  0  0  0
  -32.3712  -22.2877   20.3805 C   0  0  0  0  0  0  0  0  0  0  0  0
  -31.8140  -23.3692   22.5582 C   0  0  0  0  0  0  0  0  0  0  0  0
  -23.0108  -21.2447   10.5620 C   0  0  0  0  0  0  0  0  0  0  0  0
  -26.8536  -18.7657   21.5216 C   0  0  0  0  0  0  0  0  0  0  0  0
  -23.6033  -23.6970   14.9022 C   0  0  0  0  0  0  0  0  0  1  0  0
  -22.2859  -21.0197   13.5103 C   0  0  0  0  0  0  0  0  0  0  0  0
  -20.7934  -21.3364   13.7768 C   0  0  0  0  0  0  0  0  0  0  0  0
  -20.0020  -20.1643   14.3531 C   0  0  0  0  0  0  0  0  0  0  0  0
  -29.9432  -22.6436   21.0201 C   0  0  1  0  0  0  0  0  0  0  0  0
  -29.3176  -18.9996   21.8569 C   0  0  2  0  0  0  0  0  0  0  0  0
  -31.3783  -23.2385   21.0824 C   0  0  0  0  0  0  0  0  0  0  0  0
  -24.2631  -24.0034   12.5174 N   0  0  0  0  0  0  0  0  0  0  0  0
  -23.9315  -16.8438   19.3132 N   0  0  0  0  0  0  0  0  0  0  0  0
  -23.3701  -22.1949   11.5880 N   0  0  0  0  0  0  0  0  0  0  0  0
  -24.1616  -17.9892   18.6490 N   0  0  0  0  0  0  0  0  0  0  0  0
  -27.8815  -24.0012   20.8468 N   0  0  0  0  0  0  0  0  0  0  0  0
  -20.7814  -19.6323   17.9542 N   0  0  0  0  0  0  0  0  0  0  0  0
  -25.7806  -19.1233   17.3439 N   0  0  0  0  0  0  0  0  0  0  0  0
  -27.7913  -15.1986   18.3188 N   0  0  0  0  0  0  0  0  0  0  0  0
  -26.7897  -27.4435   21.3518 N   0  0  0  0  0  0  0  0  0  0  0  0
  -29.8084  -21.3400   21.6611 N   0  0  0  0  0  0  0  0  0  0  0  0
  -20.5537  -19.6847   15.6007 N   0  0  0  0  0  0  0  0  0  0  0  0
  -28.1876  -18.1154   21.4544 N   0  3  0  0  0  0  0  0  0  0  0  0
  -28.0504  -17.2064   17.2415 O   0  0  0  0  0  0  0  0  0  0  0  0
  -28.4915  -26.3880   20.1634 O   0  0  0  0  0  0  0  0  0  0  0  0
  -29.0315  -23.8201   22.8670 O   0  0  0  0  0  0  0  0  0  0  0  0
  -29.0445  -20.2117   19.7848 O   0  0  0  0  0  0  0  0  0  0  0  0
  -19.2993  -21.0825   16.9158 O   0  0  0  0  0  0  0  0  0  0  0  0
  -25.6256  -11.0502   21.3412 O   0  0  0  0  0  0  0  0  0  0  0  0
  -24.8850  -23.4580   15.4822 O   0  0  0  0  0  0  0  0  0  1  0  0
  -21.3888   -7.5566   20.8426 F   0  0  0  0  0  0  0  0  0  0  0  0
  -23.1485  -11.6639   22.4042 F   0  0  0  0  0  0  0  0  0  0  0  0
  1  2  1  0  0  0  0
  1  5  2  0  0  0  0
  2  6  2  0  0  0  0
  3  8  2  0  0  0  0
  3 16  1  0  0  0  0
  4  9  1  0  0  0  0
  4 16  2  0  0  0  0
  5 18  1  0  0  0  0
  6 20  1  0  0  0  0
  7 10  2  0  0  0  0
  7 19  1  0  0  0  0
  8 22  1  0  0  0  0
  9 22  2  0  0  0  0
 10 23  1  0  0  0  0
 11 12  2  0  0  0  0
 11 24  1  0  0  0  0
 12 25  1  0  0  0  0
 13 21  1  0  0  0  0
 13 23  2  0  0  0  0
 14 25  2  0  0  0  0
 14 26  1  0  0  0  0
 15 61  2  0  0  0  0
 15 63  1  0  0  0  0
 16 27  1  0  0  0  0
 17 27  1  0  0  0  0
 17 30  2  0  0  0  0
 17 31  1  0  0  0  0
 18 20  2  0  0  0  0
 18 36  1  0  0  0  0
 19 21  2  0  0  0  0
 19 37  1  0  0  0  0
 20 45  1  0  0  0  0
 21 38  1  0  0  0  0
 22 78  1  0  0  0  0
 23 79  1  0  0  0  0
 24 26  2  0  0  0  0
 24 78  1  0  0  0  0
 25 80  1  0  0  0  0
 26 81  1  0  0  0  0
 27 62  2  0  0  0  0
 28 29  2  0  0  0  0
 28 54  1  0  0  0  0
 28 61  1  0  0  0  0
 29 55  1  0  0  0  0
 29 63  1  0  0  0  0
 30 64  1  0  0  0  0
 30 67  1  0  0  0  0
 31 68  1  0  0  0  0
 31 73  2  0  0  0  0
 32 46  1  0  0  0  0
 32 69  1  0  0  0  0
 32 74  2  0  0  0  0
 33 58  1  0  0  0  0
 33 65  1  0  0  0  0
 33 75  2  0  0  0  0
 34 59  1  0  0  0  0
 34 70  1  0  0  0  0
 34 76  2  0  0  0  0
 35 66  1  0  0  0  0
 35 71  1  0  0  0  0
 35 77  2  0  0  0  0
 36 39  1  0  0  0  0
 37 46  1  0  0  0  0
 38 65  1  0  0  0  0
 39 41  1  0  0  0  0
 40 42  1  0  0  0  0
 40 43  1  0  0  0  0
 41 45  1  0  0  0  0
 42 47  1  0  0  0  0
 43 66  1  0  0  0  0
 44 47  1  0  0  0  0
 44 66  1  0  0  0  0
 45 69  1  0  0  0  0
 46 65  1  0  0  0  0
 47 64  1  0  0  0  0
 48 59  1  0  0  0  0
 49 60  1  0  0  0  0
 50 60  1  0  0  0  0
 51 60  1  0  0  0  0
 52 63  1  0  0  0  0
 53 72  1  0  0  0  0
 54 79  1  0  0  0  0
 55 56  1  0  0  0  0
 56 57  1  0  0  0  0
 57 71  1  0  0  0  0
 58 60  1  0  0  0  0
 58 70  1  0  0  0  0
 59 72  1  0  0  0  0
 62 64  1  0  0  0  0
M  CHG  1  72   1
M  ISO  4  35 100  54 101  71 100  79 101
M  END
> <Batch ID>
0044

> <Smiles>
CNC(C)C(=O)NC(C(=O)N1Cc2cc([101O:1][101CH2:1]c3ncn(C)c3CCC[100NH:0][100C:0](=O)N3CCCC(n4nc(-c5ccc(Oc6ccc(F)cc6F)cc5)c(C(N)=O)c4N)C3)ccc2CC1C(=O)NC1CCCc2ccccc21)C(C)(C)C

> <Shape>
0.177

> <Color>
0.081

> <Negative vol penalty>
0.000

$$$$

  -OEChem-04052317173D

 82 90  0     1  0  0  0  0  0999 V2000
  -17.2098  -24.7239   24.2843 C   0  0  0  0  0  0  0  0  0  0  0  0
  -17.9316  -24.0619   23.2963 C   0  0  0  0  0  0  0  0  0  0  0  0
  -25.7133  -15.3941   21.6950 C   0  0  0  0  0  0  0  0  0  0  0  0
  -25.3013  -16.4895   19.5815 C   0  0  0  0  0  0  0  0  0  0  0  0
  -17.3343  -26.1049   24.4299 C   0  0  0  0  0  0  0  0  0  0  0  0
  -18.7776  -24.7808   22.4525 C   0  0  0  0  0  0  0  0  0  0  0  0
  -24.1091  -22.8919   20.1047 C   0  0  0  0  0  0  0  0  0  0  0  0
  -24.4169  -14.8797   21.6812 C   0  0  0  0  0  0  0  0  0  0  0  0
  -24.0048  -15.9751   19.5676 C   0  0  0  0  0  0  0  0  0  0  0  0
  -24.4514  -22.3623   18.8613 C   0  0  0  0  0  0  0  0  0  0  0  0
  -22.7587  -12.3448   20.1786 C   0  0  0  0  0  0  0  0  0  0  0  0
  -22.5911  -11.0006   20.5111 C   0  0  0  0  0  0  0  0  0  0  0  0
  -25.1083  -24.5595   18.1129 C   0  0  0  0  0  0  0  0  0  0  0  0
  -21.1675  -11.6349   22.3573 C   0  0  0  0  0  0  0  0  0  0  0  0
  -26.1555  -16.1991   20.6452 C   0  0  0  0  0  0  0  0  0  0  0  0
  -28.6519  -16.1347   20.1242 C   0  0  0  0  0  0  0  0  0  0  0  0
  -18.1896  -26.8397   23.5937 C   0  0  0  0  0  0  0  0  0  0  0  0
  -24.2539  -24.2634   20.3584 C   0  0  0  0  0  0  0  0  0  0  0  0
  -18.9126  -26.1731   22.5862 C   0  0  0  0  0  0  0  0  0  0  0  0
  -24.7696  -25.1036   19.3613 C   0  0  0  0  0  0  0  0  0  0  0  0
  -23.5626  -15.1701   20.6175 C   0  0  0  0  0  0  0  0  0  0  0  0
  -24.9483  -23.1965   17.8642 C   0  0  0  0  0  0  0  0  0  0  0  0
  -22.1308  -13.3341   20.9354 C   0  0  0  0  0  0  0  0  0  0  0  0
  -21.7955  -10.6456   21.6004 C   0  0  0  0  0  0  0  0  0  0  0  0
  -21.3352  -12.9791   22.0247 C   0  0  0  0  0  0  0  0  0  0  0  0
  -27.4944  -16.7312   20.6592 C   0  0  0  0  0  0  0  0  0  0  0  0
  -27.8875  -22.0000   15.4903 C   0  0  0  0  0  0  0  0  0  0  0  0
  -28.2827  -22.9145   14.5366 C   0  0  0  0  0  0  0  0  0  0  0  0
  -29.6562  -17.0324   20.3926 C   0  0  0  0  0  0  0  0  0  0  0  0
  -29.7121  -22.7269   16.4664 C   0  0  0  0  0  0  0  0  0  0  0  0
  -28.8056  -14.8814   19.4451 C   0  0  0  0  0  0  0  0  0  0  0  0
  -22.2655  -26.6292   21.1020 C   0  0  0  0  0  0  0  0  0  0  0  0
  -25.0157  -28.3206   21.4152 C   0  0  0  0  0  0  0  0  0  0  0  0
  -28.3064  -28.6801   20.5852 C   0  0  0  0  0  0  0  0  0  0  0  0
  -29.6957  -22.9453   21.3347 C   0  0  0  0  0  0  0  0  0  0  0  0
  -18.2552  -28.3375   23.7584 C   0  0  0  0  0  0  0  0  0  0  0  0
  -23.9054  -24.8147   21.7138 C   0  0  0  0  0  0  0  0  0  0  0  0
  -24.9632  -26.5796   19.5899 C   0  0  0  0  0  0  0  0  0  0  0  0
  -19.4582  -28.9741   23.0673 C   0  0  0  0  0  0  0  0  0  0  0  0
  -30.9109  -20.4195   23.5302 C   0  0  0  0  0  0  0  0  0  0  0  0
  -19.6112  -28.4278   21.6513 C   0  0  0  0  0  0  0  0  0  0  0  0
  -30.2775  -19.1340   22.9951 C   0  0  0  0  0  0  0  0  0  0  0  0
  -29.9633  -21.6104   23.4042 C   0  0  0  0  0  0  0  0  0  0  0  0
  -28.7922  -20.5478   21.5139 C   0  0  0  0  0  0  0  0  0  0  0  0
  -19.8594  -26.9146   21.6676 C   0  0  1  0  0  0  0  0  0  0  0  0
  -23.6102  -26.3113   21.6922 C   0  0  1  0  0  0  0  0  0  0  0  0
  -29.7307  -19.3301   21.5683 C   0  0  2  0  0  0  0  0  0  0  0  0
  -27.6553  -23.2789   13.2503 C   0  0  0  0  0  0  0  0  0  0  0  0
  -30.6294  -29.6282   20.6317 C   0  0  0  0  0  0  0  0  0  0  0  0
  -23.8270  -30.3704   19.4929 C   0  0  0  0  0  0  0  0  0  0  0  0
  -26.1285  -31.3029   19.1742 C   0  0  0  0  0  0  0  0  0  0  0  0
  -25.0658  -31.3530   21.4305 C   0  0  0  0  0  0  0  0  0  0  0  0
  -29.1192  -26.8863   22.7944 C   0  0  0  0  0  0  0  0  0  0  0  0
  -26.6611  -21.1227   15.4250 C   0  0  0  0  0  0  0  0  0  0  0  0
  -30.7986  -22.8911   17.4566 C   0  0  0  0  0  0  0  0  0  0  0  0
  -30.6564  -24.1238   18.3797 C   0  0  0  0  0  0  0  0  0  0  0  0
  -29.3627  -24.1502   19.1908 C   0  0  0  0  0  0  0  0  0  0  0  0
  -25.7358  -21.3295   16.6192 C   0  0  0  0  0  0  0  0  0  1  0  0
  -25.8723  -29.1496   20.4889 C   0  0  1  0  0  0  0  0  0  0  0  0
  -29.5371  -28.9398   21.4352 C   0  0  2  0  0  0  0  0  0  0  0  0
  -25.2180  -30.5165   20.1413 C   0  0  0  0  0  0  0  0  0  0  0  0
  -27.7394  -17.9161   21.2250 N   0  0  0  0  0  0  0  0  0  0  0  0
  -28.7062  -21.8908   16.5975 N   0  0  0  0  0  0  0  0  0  0  0  0
  -29.0624  -18.0713   21.0470 N   0  0  0  0  0  0  0  0  0  0  0  0
  -24.6020  -27.0721   20.9295 N   0  0  0  0  0  0  0  0  0  0  0  0
  -29.4820  -21.7418   22.0269 N   0  0  0  0  0  0  0  0  0  0  0  0
  -30.9805  -17.0264   20.1306 N   0  0  0  0  0  0  0  0  0  0  0  0
  -27.6704  -14.0820   19.2530 N   0  0  0  0  0  0  0  0  0  0  0  0
  -21.2339  -26.6317   22.0213 N   0  0  0  0  0  0  0  0  0  0  0  0
  -27.1788  -29.2581   21.1290 N   0  0  0  0  0  0  0  0  0  0  0  0
  -29.2135  -22.9837   20.0320 N   0  0  0  0  0  0  0  0  0  0  0  0
  -30.0808  -27.6573   21.9649 N   0  3  0  0  0  0  0  0  0  0  0  0
  -29.9193  -14.4745   19.0358 O   0  0  0  0  0  0  0  0  0  0  0  0
  -22.1712  -26.8569   19.9016 O   0  0  0  0  0  0  0  0  0  0  0  0
  -24.7302  -28.7614   22.5314 O   0  0  0  0  0  0  0  0  0  0  0  0
  -28.3425  -28.0326   19.5411 O   0  0  0  0  0  0  0  0  0  0  0  0
  -30.2780  -23.9118   21.8383 O   0  0  0  0  0  0  0  0  0  0  0  0
  -22.2976  -14.6682   20.6035 O   0  0  0  0  0  0  0  0  0  0  0  0
  -25.2825  -22.6823   16.6494 O   0  0  0  0  0  0  0  0  0  1  0  0
  -21.6334   -9.3547   21.9187 F   0  0  0  0  0  0  0  0  0  0  0  0
  -20.7285  -13.9249   22.7549 F   0  0  0  0  0  0  0  0  0  0  0  0
  -29.7359  -23.6757   15.0366 S   0  0  0  0  0  0  0  0  0  0  0  0
  1  2  1  0  0  0  0
  1  5  2  0  0  0  0
  2  6  2  0  0  0  0
  3  8  2  0  0  0  0
  3 15  1  0  0  0  0
  4  9  1  0  0  0  0
  4 15  2  0  0  0  0
  5 17  1  0  0  0  0
  6 19  1  0  0  0  0
  7 10  2  0  0  0  0
  7 18  1  0  0  0  0
  8 21  1  0  0  0  0
  9 21  2  0  0  0  0
 10 22  1  0  0  0  0
 11 12  2  0  0  0  0
 11 23  1  0  0  0  0
 12 24  1  0  0  0  0
 13 20  1  0  0  0  0
 13 22  2  0  0  0  0
 14 24  2  0  0  0  0
 14 25  1  0  0  0  0
 15 26  1  0  0  0  0
 16 26  1  0  0  0  0
 16 29  2  0  0  0  0
 16 31  1  0  0  0  0
 17 19  2  0  0  0  0
 17 36  1  0  0  0  0
 18 20  2  0  0  0  0
 18 37  1  0  0  0  0
 19 45  1  0  0  0  0
 20 38  1  0  0  0  0
 21 78  1  0  0  0  0
 22 79  1  0  0  0  0
 23 25  2  0  0  0  0
 23 78  1  0  0  0  0
 24 80  1  0  0  0  0
 25 81  1  0  0  0  0
 26 62  2  0  0  0  0
 27 28  2  0  0  0  0
 27 54  1  0  0  0  0
 27 63  1  0  0  0  0
 28 48  1  0  0  0  0
 28 82  1  0  0  0  0
 29 64  1  0  0  0  0
 29 67  1  0  0  0  0
 30 55  1  0  0  0  0
 30 63  2  0  0  0  0
 30 82  1  0  0  0  0
 31 68  1  0  0  0  0
 31 73  2  0  0  0  0
 32 46  1  0  0  0  0
 32 69  1  0  0  0  0
 32 74  2  0  0  0  0
 33 59  1  0  0  0  0
 33 65  1  0  0  0  0
 33 75  2  0  0  0  0
 34 60  1  0  0  0  0
 34 70  1  0  0  0  0
 34 76  2  0  0  0  0
 35 66  1  0  0  0  0
 35 71  1  0  0  0  0
 35 77  2  0  0  0  0
 36 39  1  0  0  0  0
 37 46  1  0  0  0  0
 38 65  1  0  0  0  0
 39 41  1  0  0  0  0
 40 42  1  0  0  0  0
 40 43  1  0  0  0  0
 41 45  1  0  0  0  0
 42 47  1  0  0  0  0
 43 66  1  0  0  0  0
 44 47  1  0  0  0  0
 44 66  1  0  0  0  0
 45 69  1  0  0  0  0
 46 65  1  0  0  0  0
 47 64  1  0  0  0  0
 49 60  1  0  0  0  0
 50 61  1  0  0  0  0
 51 61  1  0  0  0  0
 52 61  1  0  0  0  0
 53 72  1  0  0  0  0
 54 58  1  0  0  0  0
 55 56  1  0  0  0  0
 56 57  1  0  0  0  0
 57 71  1  0  0  0  0
 58 79  1  0  0  0  0
 59 61  1  0  0  0  0
 59 70  1  0  0  0  0
 60 72  1  0  0  0  0
 62 64  1  0  0  0  0
M  CHG  1  72   1
M  ISO  4  35 100  58 101  71 100  79 101
M  END
> <Batch ID>
0044

> <Smiles>
CNC(C)C(=O)NC(C(=O)N1Cc2cc([101O:1][101CH2:1]Cc3nc(CCC[100NH:0][100C:0](=O)N4CCCC(n5nc(-c6ccc(Oc7ccc(F)cc7F)cc6)c(C(N)=O)c5N)C4)sc3C)ccc2CC1C(=O)NC1CCCc2ccccc21)C(C)(C)C

> <Shape>
0.241

> <Color>
0.049

> <Negative vol penalty>
0.000

$$$$

  -OEChem-04052317173D

 83 91  0     1  0  0  0  0  0999 V2000
  -16.1237  -29.3198   26.6876 C   0  0  0  0  0  0  0  0  0  0  0  0
  -16.8363  -28.1250   26.7010 C   0  0  0  0  0  0  0  0  0  0  0  0
  -23.0121  -10.0174   21.7284 C   0  0  0  0  0  0  0  0  0  0  0  0
  -23.8941  -10.9954   23.7539 C   0  0  0  0  0  0  0  0  0  0  0  0
  -16.1938  -30.1595   25.5768 C   0  0  0  0  0  0  0  0  0  0  0  0
  -17.6186  -27.7687   25.6030 C   0  0  0  0  0  0  0  0  0  0  0  0
  -23.6730  -24.3167   23.9465 C   0  0  0  0  0  0  0  0  0  0  0  0
  -22.2690   -9.1140   22.4881 C   0  0  0  0  0  0  0  0  0  0  0  0
  -23.1509  -10.0920   24.5137 C   0  0  0  0  0  0  0  0  0  0  0  0
  -24.1409  -23.3031   23.1115 C   0  0  0  0  0  0  0  0  0  0  0  0
  -22.8162   -6.2351   24.1724 C   0  0  0  0  0  0  0  0  0  0  0  0
  -22.8202   -4.8981   23.7750 C   0  0  0  0  0  0  0  0  0  0  0  0
  -24.2490  -24.8698   21.2803 C   0  0  0  0  0  0  0  0  0  0  0  0
  -26.9176  -19.9816   20.5393 C   0  0  0  0  0  0  0  0  0  0  0  0
  -20.4224   -4.9759   23.4893 C   0  0  0  0  0  0  0  0  0  0  0  0
  -25.3220  -19.0097   18.5505 C   0  0  0  0  0  0  0  0  0  0  0  0
  -23.8247  -10.9581   22.3613 C   0  0  0  0  0  0  0  0  0  0  0  0
  -24.1899  -13.1662   21.1372 C   0  0  0  0  0  0  0  0  0  0  0  0
  -16.9850  -29.8180   24.4686 C   0  0  0  0  0  0  0  0  0  0  0  0
  -23.4788  -25.6141   23.4512 C   0  0  0  0  0  0  0  0  0  0  0  0
  -17.6982  -28.6041   24.4758 C   0  0  0  0  0  0  0  0  0  0  0  0
  -23.7809  -25.8987   22.1118 C   0  0  0  0  0  0  0  0  0  0  0  0
  -25.5805  -20.3601   20.4912 C   0  0  0  0  0  0  0  0  0  0  0  0
  -24.7608  -19.8693   19.4811 C   0  0  0  0  0  0  0  0  0  0  0  0
  -22.3383   -9.1513   23.8807 C   0  0  0  0  0  0  0  0  0  0  0  0
  -24.4263  -23.5788   21.7774 C   0  0  0  0  0  0  0  0  0  0  0  0
  -21.6153   -6.9425   24.2284 C   0  0  0  0  0  0  0  0  0  0  0  0
  -21.6233   -4.2685   23.4334 C   0  0  0  0  0  0  0  0  0  0  0  0
  -20.4184   -6.3129   23.8868 C   0  0  0  0  0  0  0  0  0  0  0  0
  -24.5931  -11.8911   21.5770 C   0  0  0  0  0  0  0  0  0  0  0  0
  -27.3823  -19.1168   19.5615 C   0  0  0  0  0  0  0  0  0  0  0  0
  -25.2699  -13.6452   20.4367 C   0  0  0  0  0  0  0  0  0  0  0  0
  -22.9500  -13.8560   21.3435 C   0  0  0  0  0  0  0  0  0  0  0  0
  -20.9710  -27.5406   23.1299 C   0  0  0  0  0  0  0  0  0  0  0  0
  -23.2261  -29.6817   22.2067 C   0  0  0  0  0  0  0  0  0  0  0  0
  -26.3358  -30.2392   20.9161 C   0  0  0  0  0  0  0  0  0  0  0  0
  -30.7677  -14.4564   19.9253 C   0  0  0  0  0  0  0  0  0  0  0  0
  -16.9919  -30.7351   23.2713 C   0  0  0  0  0  0  0  0  0  0  0  0
  -22.9988  -26.7026   24.3716 C   0  0  0  0  0  0  0  0  0  0  0  0
  -23.6088  -27.2798   21.5362 C   0  0  0  0  0  0  0  0  0  0  0  0
  -18.1399  -30.4633   22.3025 C   0  0  0  0  0  0  0  0  0  0  0  0
  -29.4751  -11.3115   18.8691 C   0  0  0  0  0  0  0  0  0  0  0  0
  -18.2637  -28.9680   22.0276 C   0  0  0  0  0  0  0  0  0  0  0  0
  -28.0595  -11.2848   19.4483 C   0  0  0  0  0  0  0  0  0  0  0  0
  -30.4579  -12.0013   19.8127 C   0  0  0  0  0  0  0  0  0  0  0  0
  -28.6423  -13.3273   20.8220 C   0  0  0  0  0  0  0  0  0  0  0  0
  -18.5774  -28.1946   23.3140 C   0  0  1  0  0  0  0  0  0  0  0  0
  -22.3491  -27.8677   23.6314 C   0  0  1  0  0  0  0  0  0  0  0  0
  -27.6043  -12.6913   19.8817 C   0  0  2  0  0  0  0  0  0  0  0  0
  -23.3222  -20.2419   19.3827 C   0  0  0  0  0  0  0  0  0  0  0  0
  -27.8852  -32.0946   20.2420 C   0  0  0  0  0  0  0  0  0  0  0  0
  -21.5865  -30.1270   19.6723 C   0  0  0  0  0  0  0  0  0  0  0  0
  -23.5944  -31.2168   18.6483 C   0  0  0  0  0  0  0  0  0  0  0  0
  -22.5381  -32.2094   20.6784 C   0  0  0  0  0  0  0  0  0  0  0  0
  -28.3799  -29.4045   22.8868 C   0  0  0  0  0  0  0  0  0  0  0  0
  -25.0458  -21.2955   21.5354 C   0  0  0  0  0  0  0  0  0  1  0  0
  -30.6069  -17.5535   18.7452 C   0  0  0  0  0  0  0  0  0  0  0  0
  -30.9257  -16.9273   20.0961 C   0  0  0  0  0  0  0  0  0  0  0  0
  -29.1219  -17.8410   18.5606 C   0  0  0  0  0  0  0  0  0  0  0  0
  -23.8612  -30.0656   20.8921 C   0  0  1  0  0  0  0  0  0  0  0  0
  -27.4615  -31.1555   21.3607 C   0  0  2  0  0  0  0  0  0  0  0  0
  -22.8965  -30.8781   19.9828 C   0  0  0  0  0  0  0  0  0  0  0  0
  -26.6162  -18.6194   18.5647 N   0  0  0  0  0  0  0  0  0  0  0  0
  -25.8324  -11.5797   21.1884 N   0  0  0  0  0  0  0  0  0  0  0  0
  -26.2173  -12.6659   20.4969 N   0  0  0  0  0  0  0  0  0  0  0  0
  -23.1309  -28.3087   22.4745 N   0  0  0  0  0  0  0  0  0  0  0  0
  -29.9681  -13.3309   20.1841 N   0  0  0  0  0  0  0  0  0  0  0  0
  -25.4921  -14.8042   19.7812 N   0  0  0  0  0  0  0  0  0  0  0  0
  -21.9468  -13.2193   22.0868 N   0  0  0  0  0  0  0  0  0  0  0  0
  -19.9750  -28.3374   23.6615 N   0  0  0  0  0  0  0  0  0  0  0  0
  -25.0984  -30.7635   21.2248 N   0  0  0  0  0  0  0  0  0  0  0  0
  -30.2258  -15.6790   20.3028 N   0  0  0  0  0  0  0  0  0  0  0  0
  -28.6475  -30.3548   21.7767 N   0  3  0  0  0  0  0  0  0  0  0  0
  -22.7320  -14.9963   20.8684 O   0  0  0  0  0  0  0  0  0  0  0  0
  -20.8224  -26.6334   22.3196 O   0  0  0  0  0  0  0  0  0  0  0  0
  -22.8355  -30.5676   22.9712 O   0  0  0  0  0  0  0  0  0  0  0  0
  -26.5342  -29.1675   20.3481 O   0  0  0  0  0  0  0  0  0  0  0  0
  -31.8797  -14.3781   19.3921 O   0  0  0  0  0  0  0  0  0  0  0  0
  -21.6131   -8.2701   24.6224 O   0  0  0  0  0  0  0  0  0  0  0  0
  -24.8825  -22.5911   20.9600 O   0  0  0  0  0  0  0  0  0  1  0  0
  -28.6964  -18.7295   19.5869 O   0  0  0  0  0  0  0  0  0  0  0  0
  -21.6275   -2.9850   23.0503 F   0  0  0  0  0  0  0  0  0  0  0  0
  -19.2617   -6.9877   23.9375 F   0  0  0  0  0  0  0  0  0  0  0  0
  1  2  1  0  0  0  0
  1  5  2  0  0  0  0
  2  6  2  0  0  0  0
  3  8  2  0  0  0  0
  3 17  1  0  0  0  0
  4  9  1  0  0  0  0
  4 17  2  0  0  0  0
  5 19  1  0  0  0  0
  6 21  1  0  0  0  0
  7 10  2  0  0  0  0
  7 20  1  0  0  0  0
  8 25  1  0  0  0  0
  9 25  2  0  0  0  0
 10 26  1  0  0  0  0
 11 12  2  0  0  0  0
 11 27  1  0  0  0  0
 12 28  1  0  0  0  0
 13 22  1  0  0  0  0
 13 26  2  0  0  0  0
 14 23  1  0  0  0  0
 14 31  2  0  0  0  0
 15 28  2  0  0  0  0
 15 29  1  0  0  0  0
 16 24  1  0  0  0  0
 16 63  2  0  0  0  0
 17 30  1  0  0  0  0
 18 30  1  0  0  0  0
 18 32  2  0  0  0  0
 18 33  1  0  0  0  0
 19 21  2  0  0  0  0
 19 38  1  0  0  0  0
 20 22  2  0  0  0  0
 20 39  1  0  0  0  0
 21 47  1  0  0  0  0
 22 40  1  0  0  0  0
 23 24  2  0  0  0  0
 23 56  1  0  0  0  0
 24 50  1  0  0  0  0
 25 79  1  0  0  0  0
 26 80  1  0  0  0  0
 27 29  2  0  0  0  0
 27 79  1  0  0  0  0
 28 82  1  0  0  0  0
 29 83  1  0  0  0  0
 30 64  2  0  0  0  0
 31 63  1  0  0  0  0
 31 81  1  0  0  0  0
 32 65  1  0  0  0  0
 32 68  1  0  0  0  0
 33 69  1  0  0  0  0
 33 74  2  0  0  0  0
 34 48  1  0  0  0  0
 34 70  1  0  0  0  0
 34 75  2  0  0  0  0
 35 60  1  0  0  0  0
 35 66  1  0  0  0  0
 35 76  2  0  0  0  0
 36 61  1  0  0  0  0
 36 71  1  0  0  0  0
 36 77  2  0  0  0  0
 37 67  1  0  0  0  0
 37 72  1  0  0  0  0
 37 78  2  0  0  0  0
 38 41  1  0  0  0  0
 39 48  1  0  0  0  0
 40 66  1  0  0  0  0
 41 43  1  0  0  0  0
 42 44  1  0  0  0  0
 42 45  1  0  0  0  0
 43 47  1  0  0  0  0
 44 49  1  0  0  0  0
 45 67  1  0  0  0  0
 46 49  1  0  0  0  0
 46 67  1  0  0  0  0
 47 70  1  0  0  0  0
 48 66  1  0  0  0  0
 49 65  1  0  0  0  0
 51 61  1  0  0  0  0
 52 62  1  0  0  0  0
 53 62  1  0  0  0  0
 54 62  1  0  0  0  0
 55 73  1  0  0  0  0
 56 80  1  0  0  0  0
 57 58  1  0  0  0  0
 57 59  1  0  0  0  0
 58 72  1  0  0  0  0
 59 81  1  0  0  0  0
 60 62  1  0  0  0  0
 60 71  1  0  0  0  0
 61 73  1  0  0  0  0
 64 65  1  0  0  0  0
M  CHG  1  73   1
M  ISO  4  37 100  56 101  72 100  80 101
M  END
> <Batch ID>
0044

> <Smiles>
CNC(C)C(=O)NC(C(=O)N1Cc2cc([101O:1][101CH2:1]c3cc(OCCC[100NH:0][100C:0](=O)N4CCCC(n5nc(-c6ccc(Oc7ccc(F)cc7F)cc6)c(C(N)=O)c5N)C4)ncc3C)ccc2CC1C(=O)NC1CCCc2ccccc21)C(C)(C)C

> <Shape>
0.290

> <Color>
0.156

> <Negative vol penalty>
0.000

$$$$

  -OEChem-04052317173D

 83 91  0     1  0  0  0  0  0999 V2000
  -23.2198   -7.9276   22.0580 C   0  0  0  0  0  0  0  0  0  0  0  0
  -24.2746   -8.8337   22.0999 C   0  0  0  0  0  0  0  0  0  0  0  0
  -25.7845  -31.7239   20.8849 C   0  0  0  0  0  0  0  0  0  0  0  0
  -24.8645  -30.3713   22.6629 C   0  0  0  0  0  0  0  0  0  0  0  0
  -22.1576   -8.1362   21.1793 C   0  0  0  0  0  0  0  0  0  0  0  0
  -24.2684   -9.9485   21.2623 C   0  0  0  0  0  0  0  0  0  0  0  0
  -26.4626  -15.5225   22.5355 C   0  0  0  0  0  0  0  0  0  0  0  0
  -25.3410  -32.8769   21.5326 C   0  0  0  0  0  0  0  0  0  0  0  0
  -24.4210  -31.5243   23.3106 C   0  0  0  0  0  0  0  0  0  0  0  0
  -27.6662  -16.1514   22.2198 C   0  0  0  0  0  0  0  0  0  0  0  0
  -26.3252  -34.8133   24.1239 C   0  0  0  0  0  0  0  0  0  0  0  0
  -27.2106  -35.8872   24.2144 C   0  0  0  0  0  0  0  0  0  0  0  0
  -26.6133  -17.1990   20.3190 C   0  0  0  0  0  0  0  0  0  0  0  0
  -25.6556  -37.2726   22.9897 C   0  0  0  0  0  0  0  0  0  0  0  0
  -29.5325  -21.2134   22.2737 C   0  0  0  0  0  0  0  0  0  0  0  0
  -25.5462  -30.4711   21.4501 C   0  0  0  0  0  0  0  0  0  0  0  0
  -27.2479  -28.6406   20.9392 C   0  0  0  0  0  0  0  0  0  0  0  0
  -22.1337   -9.2592   20.3373 C   0  0  0  0  0  0  0  0  0  0  0  0
  -25.3263  -15.7189   21.7376 C   0  0  0  0  0  0  0  0  0  0  0  0
  -23.2055  -10.1716   20.3705 C   0  0  0  0  0  0  0  0  0  0  0  0
  -25.3959  -16.5735   20.6281 C   0  0  0  0  0  0  0  0  0  0  0  0
  -24.6593  -32.7771   22.7454 C   0  0  0  0  0  0  0  0  0  0  0  0
  -27.7425  -16.9875   21.1098 C   0  0  0  0  0  0  0  0  0  0  0  0
  -25.1049  -34.9690   23.4662 C   0  0  0  0  0  0  0  0  0  0  0  0
  -26.8759  -37.1169   23.6474 C   0  0  0  0  0  0  0  0  0  0  0  0
  -24.7702  -36.1986   22.8991 C   0  0  0  0  0  0  0  0  0  0  0  0
  -26.0036  -29.2796   20.7812 C   0  0  0  0  0  0  0  0  0  0  0  0
  -28.7782  -22.3173   21.9316 C   0  0  0  0  0  0  0  0  0  0  0  0
  -29.8332  -20.3518   21.2387 C   0  0  0  0  0  0  0  0  0  0  0  0
  -27.1904  -27.5623   20.0903 C   0  0  0  0  0  0  0  0  0  0  0  0
  -28.7042  -21.6558   19.7581 C   0  0  0  0  0  0  0  0  0  0  0  0
  -28.3566  -28.9902   21.7784 C   0  0  0  0  0  0  0  0  0  0  0  0
  -23.4727  -13.8352   19.9714 C   0  0  0  0  0  0  0  0  0  0  0  0
  -21.6962  -16.5313   19.6591 C   0  0  0  0  0  0  0  0  0  0  0  0
  -21.5682  -19.9409   19.7296 C   0  0  0  0  0  0  0  0  0  0  0  0
  -24.4525  -23.1985   17.9443 C   0  0  0  0  0  0  0  0  0  0  0  0
  -20.9870   -9.4173   19.3704 C   0  0  0  0  0  0  0  0  0  0  0  0
  -24.0284  -15.0544   22.1070 C   0  0  0  0  0  0  0  0  0  0  0  0
  -24.1993  -16.8335   19.7511 C   0  0  0  0  0  0  0  0  0  0  0  0
  -20.8750  -10.8217   18.7827 C   0  0  0  0  0  0  0  0  0  0  0  0
  -23.8456  -26.3876   16.4822 C   0  0  0  0  0  0  0  0  0  0  0  0
  -22.2415  -11.3173   18.3202 C   0  0  0  0  0  0  0  0  0  0  0  0
  -24.4498  -27.3711   17.4860 C   0  0  0  0  0  0  0  0  0  0  0  0
  -23.1986  -25.1939   17.1811 C   0  0  0  0  0  0  0  0  0  0  0  0
  -24.6800  -25.4643   19.1320 C   0  0  0  0  0  0  0  0  0  0  0  0
  -23.2229  -11.4059   19.4951 C   0  0  1  0  0  0  0  0  0  0  0  0
  -23.0689  -14.9209   20.9285 C   0  0  1  0  0  0  0  0  0  0  0  0
  -25.3933  -26.6569   18.4724 C   0  0  2  0  0  0  0  0  0  0  0  0
  -28.4037  -23.3066   22.9838 C   0  0  0  0  0  0  0  0  0  0  0  0
  -19.9859  -21.8601   19.3973 C   0  0  0  0  0  0  0  0  0  0  0  0
  -21.8560  -16.1366   16.6377 C   0  0  0  0  0  0  0  0  0  0  0  0
  -21.1151  -18.5118   16.3583 C   0  0  0  0  0  0  0  0  0  0  0  0
  -19.6151  -16.8627   17.4779 C   0  0  0  0  0  0  0  0  0  0  0  0
  -21.9382  -20.8791   22.5121 C   0  0  0  0  0  0  0  0  0  0  0  0
  -30.6558  -19.1167   21.5146 C   0  0  0  0  0  0  0  0  0  0  0  0
  -28.2476  -21.9028   18.3602 C   0  0  0  0  0  0  0  0  0  0  0  0
  -27.0138  -21.0810   17.9372 C   0  0  0  0  0  0  0  0  0  0  0  0
  -25.7843  -21.2951   18.8175 C   0  0  0  0  0  0  0  0  0  0  0  0
  -29.7921  -17.9148   21.8814 C   0  0  0  0  0  0  0  0  0  1  0  0
  -21.6728  -17.6901   18.6918 C   0  0  1  0  0  0  0  0  0  0  0  0
  -20.6016  -20.8990   20.4022 C   0  0  2  0  0  0  0  0  0  0  0  0
  -21.0880  -17.2941   17.3066 C   0  0  0  0  0  0  0  0  0  0  0  0
  -25.2134  -28.6592   19.9010 N   0  0  0  0  0  0  0  0  0  0  0  0
  -28.3455  -22.5705   20.6791 N   0  0  0  0  0  0  0  0  0  0  0  0
  -29.4337  -20.5427   19.9642 N   0  0  0  0  0  0  0  0  0  0  0  0
  -25.9631  -27.6191   19.4983 N   0  0  0  0  0  0  0  0  0  0  0  0
  -22.9547  -16.1558   20.1499 N   0  0  0  0  0  0  0  0  0  0  0  0
  -24.1463  -24.5603   18.1011 N   0  0  0  0  0  0  0  0  0  0  0  0
  -28.0705  -26.5808   19.8000 N   0  0  0  0  0  0  0  0  0  0  0  0
  -28.2486  -30.1292   22.5880 N   0  0  0  0  0  0  0  0  0  0  0  0
  -22.9609  -12.5904   20.2843 N   0  0  0  0  0  0  0  0  0  0  0  0
  -20.9487  -18.7656   19.3606 N   0  0  0  0  0  0  0  0  0  0  0  0
  -25.3646  -22.6783   18.8543 N   0  0  0  0  0  0  0  0  0  0  0  0
  -21.3051  -21.6970   21.4457 N   0  3  0  0  0  0  0  0  0  0  0  0
  -29.4181  -28.3221   21.7971 O   0  0  0  0  0  0  0  0  0  0  0  0
  -24.1938  -14.1072   19.0187 O   0  0  0  0  0  0  0  0  0  0  0  0
  -20.6361  -15.9843   19.9732 O   0  0  0  0  0  0  0  0  0  0  0  0
  -22.7534  -20.2099   19.5464 O   0  0  0  0  0  0  0  0  0  0  0  0
  -23.9542  -22.4993   17.0556 O   0  0  0  0  0  0  0  0  0  0  0  0
  -24.2266  -33.9020   23.3778 O   0  0  0  0  0  0  0  0  0  0  0  0
  -28.9162  -17.6020   20.7990 O   0  0  0  0  0  0  0  0  0  1  0  0
  -27.7256  -38.1485   23.7358 F   0  0  0  0  0  0  0  0  0  0  0  0
  -23.5988  -36.3546   22.2671 F   0  0  0  0  0  0  0  0  0  0  0  0
  1  2  1  0  0  0  0
  1  5  2  0  0  0  0
  2  6  2  0  0  0  0
  3  8  2  0  0  0  0
  3 16  1  0  0  0  0
  4  9  1  0  0  0  0
  4 16  2  0  0  0  0
  5 18  1  0  0  0  0
  6 20  1  0  0  0  0
  7 10  2  0  0  0  0
  7 19  1  0  0  0  0
  8 22  1  0  0  0  0
  9 22  2  0  0  0  0
 10 23  1  0  0  0  0
 11 12  2  0  0  0  0
 11 24  1  0  0  0  0
 12 25  1  0  0  0  0
 13 21  1  0  0  0  0
 13 23  2  0  0  0  0
 14 25  2  0  0  0  0
 14 26  1  0  0  0  0
 15 28  2  0  0  0  0
 15 29  1  0  0  0  0
 16 27  1  0  0  0  0
 17 27  1  0  0  0  0
 17 30  2  0  0  0  0
 17 32  1  0  0  0  0
 18 20  2  0  0  0  0
 18 37  1  0  0  0  0
 19 21  2  0  0  0  0
 19 38  1  0  0  0  0
 20 46  1  0  0  0  0
 21 39  1  0  0  0  0
 22 80  1  0  0  0  0
 23 81  1  0  0  0  0
 24 26  2  0  0  0  0
 24 80  1  0  0  0  0
 25 82  1  0  0  0  0
 26 83  1  0  0  0  0
 27 63  2  0  0  0  0
 28 49  1  0  0  0  0
 28 64  1  0  0  0  0
 29 55  1  0  0  0  0
 29 65  2  0  0  0  0
 30 66  1  0  0  0  0
 30 69  1  0  0  0  0
 31 56  1  0  0  0  0
 31 64  2  0  0  0  0
 31 65  1  0  0  0  0
 32 70  1  0  0  0  0
 32 75  2  0  0  0  0
 33 47  1  0  0  0  0
 33 71  1  0  0  0  0
 33 76  2  0  0  0  0
 34 60  1  0  0  0  0
 34 67  1  0  0  0  0
 34 77  2  0  0  0  0
 35 61  1  0  0  0  0
 35 72  1  0  0  0  0
 35 78  2  0  0  0  0
 36 68  1  0  0  0  0
 36 73  1  0  0  0  0
 36 79  2  0  0  0  0
 37 40  1  0  0  0  0
 38 47  1  0  0  0  0
 39 67  1  0  0  0  0
 40 42  1  0  0  0  0
 41 43  1  0  0  0  0
 41 44  1  0  0  0  0
 42 46  1  0  0  0  0
 43 48  1  0  0  0  0
 44 68  1  0  0  0  0
 45 48  1  0  0  0  0
 45 68  1  0  0  0  0
 46 71  1  0  0  0  0
 47 67  1  0  0  0  0
 48 66  1  0  0  0  0
 50 61  1  0  0  0  0
 51 62  1  0  0  0  0
 52 62  1  0  0  0  0
 53 62  1  0  0  0  0
 54 74  1  0  0  0  0
 55 59  1  0  0  0  0
 56 57  1  0  0  0  0
 57 58  1  0  0  0  0
 58 73  1  0  0  0  0
 59 81  1  0  0  0  0
 60 62  1  0  0  0  0
 60 72  1  0  0  0  0
 61 74  1  0  0  0  0
 63 66  1  0  0  0  0
M  CHG  1  74   1
M  ISO  4  36 100  59 101  73 100  81 101
M  END
> <Batch ID>
0044

> <Smiles>
CNC(C)C(=O)NC(C(=O)N1Cc2cc([101O:1][101CH2:1]Cc3cc(C)nc(CCC[100NH:0][100C:0](=O)N4CCCC(n5nc(-c6ccc(Oc7ccc(F)cc7F)cc6)c(C(N)=O)c5N)C4)n3)ccc2CC1C(=O)NC1CCCc2ccccc21)C(C)(C)C

> <Shape>
0.244

> <Color>
0.074

> <Negative vol penalty>
0.000

$$$$

  -OEChem-04052317173D

 83 91  0     1  0  0  0  0  0999 V2000
  -17.9605  -30.6074   23.5711 C   0  0  0  0  0  0  0  0  0  0  0  0
  -19.3493  -30.6529   23.6392 C   0  0  0  0  0  0  0  0  0  0  0  0
  -27.2500  -17.5045   19.5696 C   0  0  0  0  0  0  0  0  0  0  0  0
  -28.5496  -17.8232   21.5812 C   0  0  0  0  0  0  0  0  0  0  0  0
  -17.3227  -29.4458   23.1380 C   0  0  0  0  0  0  0  0  0  0  0  0
  -20.1010  -29.5363   23.2753 C   0  0  0  0  0  0  0  0  0  0  0  0
  -25.5778  -29.5190   20.5346 C   0  0  0  0  0  0  0  0  0  0  0  0
  -27.2224  -16.1300   19.8052 C   0  0  0  0  0  0  0  0  0  0  0  0
  -28.5220  -16.4486   21.8168 C   0  0  0  0  0  0  0  0  0  0  0  0
  -26.8733  -29.3724   21.0284 C   0  0  0  0  0  0  0  0  0  0  0  0
  -25.5245  -13.9750   21.7816 C   0  0  0  0  0  0  0  0  0  0  0  0
  -24.3054  -13.3152   21.6266 C   0  0  0  0  0  0  0  0  0  0  0  0
  -26.8028  -27.0202   20.4977 C   0  0  0  0  0  0  0  0  0  0  0  0
  -31.2170  -28.8086   22.9521 C   0  0  0  0  0  0  0  0  0  0  0  0
  -25.2805  -11.9156   19.9156 C   0  0  0  0  0  0  0  0  0  0  0  0
  -32.8182  -26.9822   24.1955 C   0  0  0  0  0  0  0  0  0  0  0  0
  -27.9137  -18.3511   20.4576 C   0  0  0  0  0  0  0  0  0  0  0  0
  -27.0146  -20.7296   20.6627 C   0  0  0  0  0  0  0  0  0  0  0  0
  -18.0673  -28.3175   22.7594 C   0  0  0  0  0  0  0  0  0  0  0  0
  -24.8798  -28.4134   20.0278 C   0  0  0  0  0  0  0  0  0  0  0  0
  -19.4725  -28.3580   22.8380 C   0  0  0  0  0  0  0  0  0  0  0  0
  -25.4995  -27.1560   19.9957 C   0  0  0  0  0  0  0  0  0  0  0  0
  -31.5494  -27.6311   22.2915 C   0  0  0  0  0  0  0  0  0  0  0  0
  -32.3647  -26.6953   22.9181 C   0  0  0  0  0  0  0  0  0  0  0  0
  -27.8583  -15.6020   20.9288 C   0  0  0  0  0  0  0  0  0  0  0  0
  -27.4850  -28.1223   21.0127 C   0  0  0  0  0  0  0  0  0  0  0  0
  -26.6216  -13.6053   21.0035 C   0  0  0  0  0  0  0  0  0  0  0  0
  -24.1834  -12.2854   20.6937 C   0  0  0  0  0  0  0  0  0  0  0  0
  -26.4996  -12.5755   20.0706 C   0  0  0  0  0  0  0  0  0  0  0  0
  -27.9430  -19.7710   20.2145 C   0  0  0  0  0  0  0  0  0  0  0  0
  -31.7217  -29.0008   24.2281 C   0  0  0  0  0  0  0  0  0  0  0  0
  -27.4867  -21.9215   20.1699 C   0  0  0  0  0  0  0  0  0  0  0  0
  -25.8312  -20.5579   21.4538 C   0  0  0  0  0  0  0  0  0  0  0  0
  -22.2005  -26.8971   20.8189 C   0  0  0  0  0  0  0  0  0  0  0  0
  -22.7888  -25.2471   18.0888 C   0  0  0  0  0  0  0  0  0  0  0  0
  -25.0663  -24.1805   15.7818 C   0  0  0  0  0  0  0  0  0  0  0  0
  -32.9431  -23.7972   18.5698 C   0  0  0  0  0  0  0  0  0  0  0  0
  -17.3316  -27.0686   22.3429 C   0  0  0  0  0  0  0  0  0  0  0  0
  -23.4929  -28.5935   19.4742 C   0  0  0  0  0  0  0  0  0  0  0  0
  -24.8007  -25.9414   19.4435 C   0  0  0  0  0  0  0  0  0  0  0  0
  -18.2139  -26.0550   21.6186 C   0  0  0  0  0  0  0  0  0  0  0  0
  -30.0207  -23.7306   16.5371 C   0  0  0  0  0  0  0  0  0  0  0  0
  -19.5308  -25.8644   22.3644 C   0  0  0  0  0  0  0  0  0  0  0  0
  -29.0731  -22.7948   17.2895 C   0  0  0  0  0  0  0  0  0  0  0  0
  -31.4728  -23.2709   16.6469 C   0  0  0  0  0  0  0  0  0  0  0  0
  -31.0055  -22.1242   18.7777 C   0  0  0  0  0  0  0  0  0  0  0  0
  -20.3234  -27.1756   22.4282 C   0  0  1  0  0  0  0  0  0  0  0  0
  -22.6847  -27.2997   19.4547 C   0  0  1  0  0  0  0  0  0  0  0  0
  -29.5361  -22.5778   18.7427 C   0  0  2  0  0  0  0  0  0  0  0  0
  -31.3860  -30.2531   24.9670 C   0  0  0  0  0  0  0  0  0  0  0  0
  -25.2542  -22.8166   13.6838 C   0  0  0  0  0  0  0  0  0  0  0  0
  -22.5645  -22.6880   19.7352 C   0  0  0  0  0  0  0  0  0  0  0  0
  -23.6753  -21.4637   17.8549 C   0  0  0  0  0  0  0  0  0  0  0  0
  -21.4753  -22.5806   17.4865 C   0  0  0  0  0  0  0  0  0  0  0  0
  -26.0439  -26.4991   14.2238 C   0  0  0  0  0  0  0  0  0  0  0  0
  -31.0155  -27.3909   20.9002 C   0  0  0  0  0  0  0  0  0  0  0  0
  -32.7519  -25.4185   22.2562 C   0  0  0  0  0  0  0  0  0  0  0  0
  -33.8935  -25.5511   21.2277 C   0  0  0  0  0  0  0  0  0  0  0  0
  -34.3194  -24.2309   20.5889 C   0  0  0  0  0  0  0  0  0  0  0  0
  -29.5543  -26.9550   20.9071 C   0  0  0  0  0  0  0  0  0  1  0  0
  -23.5559  -23.9943   17.7410 C   0  0  1  0  0  0  0  0  0  0  0  0
  -25.0510  -24.2076   14.2641 C   0  0  2  0  0  0  0  0  0  0  0  0
  -22.8305  -22.7040   18.2166 C   0  0  0  0  0  0  0  0  0  0  0  0
  -32.5166  -28.1148   24.8691 N   0  0  0  0  0  0  0  0  0  0  0  0
  -28.9302  -20.3076   19.4923 N   0  0  0  0  0  0  0  0  0  0  0  0
  -28.6247  -21.6163   19.4829 N   0  0  0  0  0  0  0  0  0  0  0  0
  -23.4435  -26.1673   18.9196 N   0  0  0  0  0  0  0  0  0  0  0  0
  -31.8494  -23.0853   18.0503 N   0  0  0  0  0  0  0  0  0  0  0  0
  -27.0352  -23.1905   20.2614 N   0  0  0  0  0  0  0  0  0  0  0  0
  -25.4920  -19.2655   21.8768 N   0  0  0  0  0  0  0  0  0  0  0  0
  -20.9746  -27.4347   21.1621 N   0  0  0  0  0  0  0  0  0  0  0  0
  -23.7966  -24.0490   16.3031 N   0  0  0  0  0  0  0  0  0  0  0  0
  -33.2284  -23.5677   19.9102 N   0  0  0  0  0  0  0  0  0  0  0  0
  -26.1337  -25.0937   13.7509 N   0  3  0  0  0  0  0  0  0  0  0  0
  -25.0875  -21.5199   21.7623 O   0  0  0  0  0  0  0  0  0  0  0  0
  -22.8875  -26.1527   21.5085 O   0  0  0  0  0  0  0  0  0  0  0  0
  -21.6533  -25.4068   17.6340 O   0  0  0  0  0  0  0  0  0  0  0  0
  -26.1015  -24.2638   16.4391 O   0  0  0  0  0  0  0  0  0  0  0  0
  -33.6123  -24.5835   17.8908 O   0  0  0  0  0  0  0  0  0  0  0  0
  -27.8314  -14.2608   21.1591 O   0  0  0  0  0  0  0  0  0  0  0  0
  -28.7492  -27.9762   21.4947 O   0  0  0  0  0  0  0  0  0  1  0  0
  -23.0131  -11.6508   20.5460 F   0  0  0  0  0  0  0  0  0  0  0  0
  -27.5503  -12.2150   19.3211 F   0  0  0  0  0  0  0  0  0  0  0  0
  1  2  1  0  0  0  0
  1  5  2  0  0  0  0
  2  6  2  0  0  0  0
  3  8  2  0  0  0  0
  3 17  1  0  0  0  0
  4  9  1  0  0  0  0
  4 17  2  0  0  0  0
  5 19  1  0  0  0  0
  6 21  1  0  0  0  0
  7 10  2  0  0  0  0
  7 20  1  0  0  0  0
  8 25  1  0  0  0  0
  9 25  2  0  0  0  0
 10 26  1  0  0  0  0
 11 12  2  0  0  0  0
 11 27  1  0  0  0  0
 12 28  1  0  0  0  0
 13 22  1  0  0  0  0
 13 26  2  0  0  0  0
 14 23  1  0  0  0  0
 14 31  2  0  0  0  0
 15 28  2  0  0  0  0
 15 29  1  0  0  0  0
 16 24  1  0  0  0  0
 16 64  2  0  0  0  0
 17 30  1  0  0  0  0
 18 30  1  0  0  0  0
 18 32  2  0  0  0  0
 18 33  1  0  0  0  0
 19 21  2  0  0  0  0
 19 38  1  0  0  0  0
 20 22  2  0  0  0  0
 20 39  1  0  0  0  0
 21 47  1  0  0  0  0
 22 40  1  0  0  0  0
 23 24  2  0  0  0  0
 23 56  1  0  0  0  0
 24 57  1  0  0  0  0
 25 80  1  0  0  0  0
 26 81  1  0  0  0  0
 27 29  2  0  0  0  0
 27 80  1  0  0  0  0
 28 82  1  0  0  0  0
 29 83  1  0  0  0  0
 30 65  2  0  0  0  0
 31 50  1  0  0  0  0
 31 64  1  0  0  0  0
 32 66  1  0  0  0  0
 32 69  1  0  0  0  0
 33 70  1  0  0  0  0
 33 75  2  0  0  0  0
 34 48  1  0  0  0  0
 34 71  1  0  0  0  0
 34 76  2  0  0  0  0
 35 61  1  0  0  0  0
 35 67  1  0  0  0  0
 35 77  2  0  0  0  0
 36 62  1  0  0  0  0
 36 72  1  0  0  0  0
 36 78  2  0  0  0  0
 37 68  1  0  0  0  0
 37 73  1  0  0  0  0
 37 79  2  0  0  0  0
 38 41  1  0  0  0  0
 39 48  1  0  0  0  0
 40 67  1  0  0  0  0
 41 43  1  0  0  0  0
 42 44  1  0  0  0  0
 42 45  1  0  0  0  0
 43 47  1  0  0  0  0
 44 49  1  0  0  0  0
 45 68  1  0  0  0  0
 46 49  1  0  0  0  0
 46 68  1  0  0  0  0
 47 71  1  0  0  0  0
 48 67  1  0  0  0  0
 49 66  1  0  0  0  0
 51 62  1  0  0  0  0
 52 63  1  0  0  0  0
 53 63  1  0  0  0  0
 54 63  1  0  0  0  0
 55 74  1  0  0  0  0
 56 60  1  0  0  0  0
 57 58  1  0  0  0  0
 58 59  1  0  0  0  0
 59 73  1  0  0  0  0
 60 81  1  0  0  0  0
 61 63  1  0  0  0  0
 61 72  1  0  0  0  0
 62 74  1  0  0  0  0
 65 66  1  0  0  0  0
M  CHG  1  74   1
M  ISO  4  37 100  60 101  73 100  81 101
M  END
> <Batch ID>
0044

> <Smiles>
CNC(C)C(=O)NC(C(=O)N1Cc2cc([101O:1][101CH2:1]Cc3cc(C)ncc3CCC[100NH:0][100C:0](=O)N3CCCC(n4nc(-c5ccc(Oc6ccc(F)cc6F)cc5)c(C(N)=O)c4N)C3)ccc2CC1C(=O)NC1CCCc2ccccc21)C(C)(C)C

> <Shape>
0.237

> <Color>
0.066

> <Negative vol penalty>
0.000

$$$$

  -OEChem-04052317173D

 84 92  0     1  0  0  0  0  0999 V2000
  -21.1807  -20.6571   26.2201 C   0  0  0  0  0  0  0  0  0  0  0  0
  -22.5320  -20.7572   25.9048 C   0  0  0  0  0  0  0  0  0  0  0  0
  -26.9709  -13.2362   21.1790 C   0  0  0  0  0  0  0  0  0  0  0  0
  -26.7682  -13.6411   18.8059 C   0  0  0  0  0  0  0  0  0  0  0  0
  -20.2466  -21.4317   25.5335 C   0  0  0  0  0  0  0  0  0  0  0  0
  -22.9499  -21.6313   24.9020 C   0  0  0  0  0  0  0  0  0  0  0  0
  -28.1669  -24.8354   24.7498 C   0  0  0  0  0  0  0  0  0  0  0  0
  -26.2323  -12.0610   21.0416 C   0  0  0  0  0  0  0  0  0  0  0  0
  -26.0296  -12.4658   18.6684 C   0  0  0  0  0  0  0  0  0  0  0  0
  -29.3853  -24.6139   24.1093 C   0  0  0  0  0  0  0  0  0  0  0  0
  -24.0928   -9.1392   21.3724 C   0  0  0  0  0  0  0  0  0  0  0  0
  -23.0859   -8.8914   22.3053 C   0  0  0  0  0  0  0  0  0  0  0  0
  -28.6771  -26.0268   22.2868 C   0  0  0  0  0  0  0  0  0  0  0  0
  -30.6456  -22.1715   17.8460 C   0  0  0  0  0  0  0  0  0  0  0  0
  -21.9755  -10.9345   21.6496 C   0  0  0  0  0  0  0  0  0  0  0  0
  -28.7110  -23.9718   17.1660 C   0  0  0  0  0  0  0  0  0  0  0  0
  -27.2388  -14.0263   20.0612 C   0  0  0  0  0  0  0  0  0  0  0  0
  -29.3985  -15.3832   20.1073 C   0  0  0  0  0  0  0  0  0  0  0  0
  -20.6543  -22.3228   24.5284 C   0  0  0  0  0  0  0  0  0  0  0  0
  -27.1885  -25.6467   24.1575 C   0  0  0  0  0  0  0  0  0  0  0  0
  -22.0203  -22.4176   24.2004 C   0  0  0  0  0  0  0  0  0  0  0  0
  -27.4481  -26.2590   22.9231 C   0  0  0  0  0  0  0  0  0  0  0  0
  -29.4886  -21.7247   17.2175 C   0  0  0  0  0  0  0  0  0  0  0  0
  -28.4980  -22.6356   16.8677 C   0  0  0  0  0  0  0  0  0  0  0  0
  -25.7617  -11.6757   19.7863 C   0  0  0  0  0  0  0  0  0  0  0  0
  -29.6394  -25.2073   22.8763 C   0  0  0  0  0  0  0  0  0  0  0  0
  -24.0411  -10.2847   20.5781 C   0  0  0  0  0  0  0  0  0  0  0  0
  -22.0272   -9.7890   22.4439 C   0  0  0  0  0  0  0  0  0  0  0  0
  -22.9825  -11.1823   20.7167 C   0  0  0  0  0  0  0  0  0  0  0  0
  -28.0012  -15.2407   20.2026 C   0  0  0  0  0  0  0  0  0  0  0  0
  -30.7626  -23.5285   18.1003 C   0  0  0  0  0  0  0  0  0  0  0  0
  -29.6221  -16.7222   20.3158 C   0  0  0  0  0  0  0  0  0  0  0  0
  -30.4044  -14.3936   19.8530 C   0  0  0  0  0  0  0  0  0  0  0  0
  -24.2171  -25.1876   23.1261 C   0  0  0  0  0  0  0  0  0  0  0  0
  -24.2881  -28.4008   22.6876 C   0  0  0  0  0  0  0  0  0  0  0  0
  -26.1510  -31.2159   22.1857 C   0  0  0  0  0  0  0  0  0  0  0  0
  -26.2216  -21.5912   19.5535 C   0  0  0  0  0  0  0  0  0  0  0  0
  -19.6030  -23.1047   23.7813 C   0  0  0  0  0  0  0  0  0  0  0  0
  -25.8898  -25.8972   24.8739 C   0  0  0  0  0  0  0  0  0  0  0  0
  -26.4388  -27.1549   22.2544 C   0  0  0  0  0  0  0  0  0  0  0  0
  -20.1672  -24.2816   22.9895 C   0  0  0  0  0  0  0  0  0  0  0  0
  -27.7806  -20.5196   22.5698 C   0  0  0  0  0  0  0  0  0  0  0  0
  -21.3994  -23.8519   22.1996 C   0  0  0  0  0  0  0  0  0  0  0  0
  -28.1400  -19.0580   22.2965 C   0  0  0  0  0  0  0  0  0  0  0  0
  -26.4522  -20.9046   21.9225 C   0  0  0  0  0  0  0  0  0  0  0  0
  -26.7206  -19.1575   20.2051 C   0  0  0  0  0  0  0  0  0  0  0  0
  -22.5153  -23.3725   23.1359 C   0  0  1  0  0  0  0  0  0  0  0  0
  -24.7645  -26.3273   23.9379 C   0  0  1  0  0  0  0  0  0  0  0  0
  -28.0796  -18.7378   20.7908 C   0  0  2  0  0  0  0  0  0  0  0  0
  -30.1527  -19.8257   15.7211 C   0  0  0  0  0  0  0  0  0  0  0  0
  -25.9254  -33.6893   21.8268 C   0  0  0  0  0  0  0  0  0  0  0  0
  -23.4192  -27.9009   19.8058 C   0  0  0  0  0  0  0  0  0  0  0  0
  -24.1243  -30.2406   19.2608 C   0  0  0  0  0  0  0  0  0  0  0  0
  -22.2970  -29.8431   20.9118 C   0  0  0  0  0  0  0  0  0  0  0  0
  -27.6829  -31.8295   24.6425 C   0  0  0  0  0  0  0  0  0  0  0  0
  -29.3319  -20.2684   16.9289 C   0  0  0  0  0  0  0  0  0  0  0  0
  -27.2395  -22.2112   16.1937 C   0  0  0  0  0  0  0  0  0  0  0  0
  -32.0033  -24.0491   18.7808 C   0  0  0  0  0  0  0  0  0  0  0  0
  -31.9019  -24.0795   20.3073 C   0  0  0  0  0  0  0  0  0  0  0  0
  -26.0330  -22.1270   17.1376 C   0  0  0  0  0  0  0  0  0  0  0  0
  -30.8240  -25.0264   20.8221 C   0  0  0  0  0  0  0  0  0  1  0  0
  -24.6847  -29.3168   21.5550 C   0  0  1  0  0  0  0  0  0  0  0  0
  -26.1136  -32.5803   22.8502 C   0  0  2  0  0  0  0  0  0  0  0  0
  -23.6498  -29.3070   20.3948 C   0  0  0  0  0  0  0  0  0  0  0  0
  -29.8217  -24.4434   17.7755 N   0  0  0  0  0  0  0  0  0  0  0  0
  -27.3808  -16.3969   20.4523 N   0  0  0  0  0  0  0  0  0  0  0  0
  -28.3931  -17.2787   20.5159 N   0  0  0  0  0  0  0  0  0  0  0  0
  -25.1816  -27.3640   22.9915 N   0  0  0  0  0  0  0  0  0  0  0  0
  -26.4609  -20.5764   20.4948 N   0  0  0  0  0  0  0  0  0  0  0  0
  -30.7482  -17.4662   20.3458 N   0  0  0  0  0  0  0  0  0  0  0  0
  -30.0013  -13.0650   19.6615 N   0  0  0  0  0  0  0  0  0  0  0  0
  -23.1870  -24.5023   23.7415 N   0  0  0  0  0  0  0  0  0  0  0  0
  -24.9029  -30.6308   22.1500 N   0  0  0  0  0  0  0  0  0  0  0  0
  -26.2541  -21.1961   18.2218 N   0  0  0  0  0  0  0  0  0  0  0  0
  -27.3837  -32.8322   23.5879 N   0  3  0  0  0  0  0  0  0  0  0  0
  -31.6259  -14.6763   19.8135 O   0  0  0  0  0  0  0  0  0  0  0  0
  -24.6931  -24.9485   22.0225 O   0  0  0  0  0  0  0  0  0  0  0  0
  -23.2282  -28.6024   23.2855 O   0  0  0  0  0  0  0  0  0  0  0  0
  -27.1834  -30.7205   21.7393 O   0  0  0  0  0  0  0  0  0  0  0  0
  -26.0010  -22.7635   19.8759 O   0  0  0  0  0  0  0  0  0  0  0  0
  -25.0411  -10.5289   19.6518 O   0  0  0  0  0  0  0  0  0  0  0  0
  -30.8276  -24.9923   22.2487 O   0  0  0  0  0  0  0  0  0  1  0  0
  -21.0596   -9.5501   23.3387 F   0  0  0  0  0  0  0  0  0  0  0  0
  -22.9268  -12.2839   19.9556 F   0  0  0  0  0  0  0  0  0  0  0  0
  1  2  1  0  0  0  0
  1  5  2  0  0  0  0
  2  6  2  0  0  0  0
  3  8  2  0  0  0  0
  3 17  1  0  0  0  0
  4  9  1  0  0  0  0
  4 17  2  0  0  0  0
  5 19  1  0  0  0  0
  6 21  1  0  0  0  0
  7 10  2  0  0  0  0
  7 20  1  0  0  0  0
  8 25  1  0  0  0  0
  9 25  2  0  0  0  0
 10 26  1  0  0  0  0
 11 12  2  0  0  0  0
 11 27  1  0  0  0  0
 12 28  1  0  0  0  0
 13 22  1  0  0  0  0
 13 26  2  0  0  0  0
 14 23  1  0  0  0  0
 14 31  2  0  0  0  0
 15 28  2  0  0  0  0
 15 29  1  0  0  0  0
 16 24  1  0  0  0  0
 16 65  2  0  0  0  0
 17 30  1  0  0  0  0
 18 30  1  0  0  0  0
 18 32  2  0  0  0  0
 18 33  1  0  0  0  0
 19 21  2  0  0  0  0
 19 38  1  0  0  0  0
 20 22  2  0  0  0  0
 20 39  1  0  0  0  0
 21 47  1  0  0  0  0
 22 40  1  0  0  0  0
 23 24  2  0  0  0  0
 23 56  1  0  0  0  0
 24 57  1  0  0  0  0
 25 81  1  0  0  0  0
 26 82  1  0  0  0  0
 27 29  2  0  0  0  0
 27 81  1  0  0  0  0
 28 83  1  0  0  0  0
 29 84  1  0  0  0  0
 30 66  2  0  0  0  0
 31 58  1  0  0  0  0
 31 65  1  0  0  0  0
 32 67  1  0  0  0  0
 32 70  1  0  0  0  0
 33 71  1  0  0  0  0
 33 76  2  0  0  0  0
 34 48  1  0  0  0  0
 34 72  1  0  0  0  0
 34 77  2  0  0  0  0
 35 62  1  0  0  0  0
 35 68  1  0  0  0  0
 35 78  2  0  0  0  0
 36 63  1  0  0  0  0
 36 73  1  0  0  0  0
 36 79  2  0  0  0  0
 37 69  1  0  0  0  0
 37 74  1  0  0  0  0
 37 80  2  0  0  0  0
 38 41  1  0  0  0  0
 39 48  1  0  0  0  0
 40 68  1  0  0  0  0
 41 43  1  0  0  0  0
 42 44  1  0  0  0  0
 42 45  1  0  0  0  0
 43 47  1  0  0  0  0
 44 49  1  0  0  0  0
 45 69  1  0  0  0  0
 46 49  1  0  0  0  0
 46 69  1  0  0  0  0
 47 72  1  0  0  0  0
 48 68  1  0  0  0  0
 49 67  1  0  0  0  0
 50 56  1  0  0  0  0
 51 63  1  0  0  0  0
 52 64  1  0  0  0  0
 53 64  1  0  0  0  0
 54 64  1  0  0  0  0
 55 75  1  0  0  0  0
 57 60  1  0  0  0  0
 58 59  1  0  0  0  0
 59 61  1  0  0  0  0
 60 74  1  0  0  0  0
 61 82  1  0  0  0  0
 62 64  1  0  0  0  0
 62 73  1  0  0  0  0
 63 75  1  0  0  0  0
 66 67  1  0  0  0  0
M  CHG  1  75   1
M  ISO  4  37 100  61 101  74 100  82 101
M  END
> <Batch ID>
0044

> <Smiles>
CCc1cc(CC[101CH2:1][101O:1]c2ccc3c(c2)CN(C(=O)C(NC(=O)C(C)NC)C(C)(C)C)C(C(=O)NC2CCCc4ccccc42)C3)ncc1CC[100NH:0][100C:0](=O)N1CCCC(n2nc(-c3ccc(Oc4ccc(F)cc4F)cc3)c(C(N)=O)c2N)C1

> <Shape>
0.210

> <Color>
0.061

> <Negative vol penalty>
0.000

$$$$

  -OEChem-04052317173D

 88 96  0     1  0  0  0  0  0999 V2000
  -27.4203  -29.0873   14.0104 C   0  0  0  0  0  0  0  0  0  0  0  0
  -27.2533  -28.4132   15.2158 C   0  0  0  0  0  0  0  0  0  0  0  0
  -23.2251  -10.0496   21.8992 C   0  0  0  0  0  0  0  0  0  0  0  0
  -24.0143  -11.3196   23.7970 C   0  0  0  0  0  0  0  0  0  0  0  0
  -27.9091  -30.3930   14.0050 C   0  0  0  0  0  0  0  0  0  0  0  0
  -27.5761  -29.0443   16.4167 C   0  0  0  0  0  0  0  0  0  0  0  0
  -24.0489  -28.3526   19.9840 C   0  0  0  0  0  0  0  0  0  0  0  0
  -22.5349   -9.1947   22.7584 C   0  0  0  0  0  0  0  0  0  0  0  0
  -23.3240  -10.4647   24.6562 C   0  0  0  0  0  0  0  0  0  0  0  0
  -24.0402  -27.1229   20.6409 C   0  0  0  0  0  0  0  0  0  0  0  0
  -23.2531   -6.5809   24.7775 C   0  0  0  0  0  0  0  0  0  0  0  0
  -23.3517   -5.2095   24.5429 C   0  0  0  0  0  0  0  0  0  0  0  0
  -25.2024  -28.1177   22.5060 C   0  0  0  0  0  0  0  0  0  0  0  0
  -20.9578   -5.0892   24.2396 C   0  0  0  0  0  0  0  0  0  0  0  0
  -23.9649  -11.1121   22.4185 C   0  0  0  0  0  0  0  0  0  0  0  0
  -24.1963  -13.1785   20.9406 C   0  0  0  0  0  0  0  0  0  0  0  0
  -28.2289  -31.0438   15.2071 C   0  0  0  0  0  0  0  0  0  0  0  0
  -24.6451  -29.4734   20.5795 C   0  0  0  0  0  0  0  0  0  0  0  0
  -28.0708  -30.3595   16.4274 C   0  0  0  0  0  0  0  0  0  0  0  0
  -25.2151  -29.3611   21.8557 C   0  0  0  0  0  0  0  0  0  0  0  0
  -22.5843   -9.4022   24.1368 C   0  0  0  0  0  0  0  0  0  0  0  0
  -24.6196  -27.0046   21.9008 C   0  0  0  0  0  0  0  0  0  0  0  0
  -22.0068   -7.2065   24.7432 C   0  0  0  0  0  0  0  0  0  0  0  0
  -22.2041   -4.4636   24.2739 C   0  0  0  0  0  0  0  0  0  0  0  0
  -20.8592   -6.4606   24.4742 C   0  0  0  0  0  0  0  0  0  0  0  0
  -24.6786  -11.9953   21.5316 C   0  0  0  0  0  0  0  0  0  0  0  0
  -27.6820  -24.5359   21.2986 C   0  0  0  0  0  0  0  0  0  0  0  0
  -27.7433  -23.3059   21.9158 C   0  0  0  0  0  0  0  0  0  0  0  0
  -25.7442  -23.7228   22.9450 C   0  0  0  0  0  0  0  0  0  0  0  0
  -25.6831  -24.9530   22.3280 C   0  0  0  0  0  0  0  0  0  1  0  0
  -25.2503  -13.6430   20.1925 C   0  0  0  0  0  0  0  0  0  0  0  0
  -22.9104  -13.8019   21.0575 C   0  0  0  0  0  0  0  0  0  0  0  0
  -27.0748  -31.3829   19.8352 C   0  0  0  0  0  0  0  0  0  0  0  0
  -26.0480  -33.0510   22.4208 C   0  0  0  0  0  0  0  0  0  0  0  0
  -24.3626  -33.0478   25.3883 C   0  0  0  0  0  0  0  0  0  0  0  0
  -31.1770  -12.8886   20.5884 C   0  0  0  0  0  0  0  0  0  0  0  0
  -28.7987  -32.4390   15.1479 C   0  0  0  0  0  0  0  0  0  0  0  0
  -24.6225  -30.7992   19.8693 C   0  0  0  0  0  0  0  0  0  0  0  0
  -25.8500  -30.5390   22.5471 C   0  0  0  0  0  0  0  0  0  0  0  0
  -28.7632  -33.1687   16.4883 C   0  0  0  0  0  0  0  0  0  0  0  0
  -29.1025  -12.1190   17.7990 C   0  0  0  0  0  0  0  0  0  0  0  0
  -29.2726  -32.2615   17.6037 C   0  0  0  0  0  0  0  0  0  0  0  0
  -27.6900  -12.1068   18.3860 C   0  0  0  0  0  0  0  0  0  0  0  0
  -30.1271  -11.5574   18.7822 C   0  0  0  0  0  0  0  0  0  0  0  0
  -28.7102  -12.1822   20.6995 C   0  0  0  0  0  0  0  0  0  0  0  0
  -28.3864  -31.0190   17.7524 C   0  0  1  0  0  0  0  0  0  0  0  0
  -25.7122  -31.7528   20.3493 C   0  0  1  0  0  0  0  0  0  0  0  0
  -27.6501  -12.7910   19.7657 C   0  0  2  0  0  0  0  0  0  0  0  0
  -28.7592  -24.9977   20.3777 C   0  0  0  0  0  0  0  0  0  0  0  0
  -24.7515  -23.9254   25.2384 C   0  0  0  0  0  0  0  0  0  0  0  0
  -23.7251  -34.5518   27.2933 C   0  0  0  0  0  0  0  0  0  0  0  0
  -28.8949  -32.8801   23.5053 C   0  0  0  0  0  0  0  0  0  0  0  0
  -28.0028  -33.5262   25.7536 C   0  0  0  0  0  0  0  0  0  0  0  0
  -27.7866  -35.0985   23.8291 C   0  0  0  0  0  0  0  0  0  0  0  0
  -21.4730  -32.6662   24.8749 C   0  0  0  0  0  0  0  0  0  0  0  0
  -28.8892  -22.3797   21.6912 C   0  0  0  0  0  0  0  0  0  0  0  0
  -24.6643  -23.2652   23.8644 C   0  0  0  0  0  0  0  0  0  0  0  0
  -30.8761  -16.4703   22.4250 C   0  0  0  0  0  0  0  0  0  0  0  0
  -32.1514  -15.7022   22.0651 C   0  0  0  0  0  0  0  0  0  0  0  0
  -30.9714  -17.9358   21.9965 C   0  0  0  0  0  0  0  0  0  0  0  0
  -32.0817  -14.2327   22.4683 C   0  0  0  0  0  0  0  0  0  0  0  0
  -28.6404  -20.9469   22.1659 C   0  0  0  0  0  0  0  0  0  0  0  0
  -29.6885  -18.6852   22.3242 C   0  0  0  0  0  0  0  0  0  0  0  0
  -26.3473  -33.0212   23.9002 C   0  0  1  0  0  0  0  0  0  0  0  0
  -23.3050  -33.9826   25.9471 C   0  0  2  0  0  0  0  0  0  0  0  0
  -27.7478  -33.6087   24.2334 C   0  0  0  0  0  0  0  0  0  0  0  0
  -25.9408  -11.7249   21.1884 N   0  0  0  0  0  0  0  0  0  0  0  0
  -26.7754  -22.8772   22.7501 N   0  0  0  0  0  0  0  0  0  0  0  0
  -26.6509  -25.3816   21.4936 N   0  0  0  0  0  0  0  0  0  0  0  0
  -26.2605  -12.7447   20.3735 N   0  0  0  0  0  0  0  0  0  0  0  0
  -25.8084  -31.8123   21.8092 N   0  0  0  0  0  0  0  0  0  0  0  0
  -30.0383  -12.2501   20.0700 N   0  0  0  0  0  0  0  0  0  0  0  0
  -25.4023  -14.7282   19.4040 N   0  0  0  0  0  0  0  0  0  0  0  0
  -21.9431  -13.1914   21.8673 N   0  0  0  0  0  0  0  0  0  0  0  0
  -27.1662  -31.3498   18.4568 N   0  0  0  0  0  0  0  0  0  0  0  0
  -25.2396  -33.7090   24.5547 N   0  0  0  0  0  0  0  0  0  0  0  0
  -31.0047  -13.5268   21.8106 N   0  0  0  0  0  0  0  0  0  0  0  0
  -22.0150  -33.2579   26.1251 N   0  3  0  0  0  0  0  0  0  0  0  0
  -29.8101  -20.0906   21.8496 N   0  3  0  0  0  0  0  0  0  0  0  0
  -22.6223  -14.8600   20.4485 O   0  0  0  0  0  0  0  0  0  0  0  0
  -27.9769  -31.1465   20.6303 O   0  0  0  0  0  0  0  0  0  0  0  0
  -26.0206  -34.1341   21.8311 O   0  0  0  0  0  0  0  0  0  0  0  0
  -24.4085  -31.8516   25.6667 O   0  0  0  0  0  0  0  0  0  0  0  0
  -32.2651  -12.8943   20.0028 O   0  0  0  0  0  0  0  0  0  0  0  0
  -21.9106   -8.5683   24.9755 O   0  0  0  0  0  0  0  0  0  0  0  0
  -24.6131  -25.8053   22.5438 O   0  0  0  0  0  0  0  0  0  1  0  0
  -22.2992   -3.1469   24.0472 F   0  0  0  0  0  0  0  0  0  0  0  0
  -19.6593   -7.0563   24.4388 F   0  0  0  0  0  0  0  0  0  0  0  0
  1  2  1  0  0  0  0
  1  5  2  0  0  0  0
  2  6  2  0  0  0  0
  3  8  2  0  0  0  0
  3 15  1  0  0  0  0
  4  9  1  0  0  0  0
  4 15  2  0  0  0  0
  5 17  1  0  0  0  0
  6 19  1  0  0  0  0
  7 10  2  0  0  0  0
  7 18  1  0  0  0  0
  8 21  1  0  0  0  0
  9 21  2  0  0  0  0
 10 22  1  0  0  0  0
 11 12  2  0  0  0  0
 11 23  1  0  0  0  0
 12 24  1  0  0  0  0
 13 20  1  0  0  0  0
 13 22  2  0  0  0  0
 14 24  2  0  0  0  0
 14 25  1  0  0  0  0
 15 26  1  0  0  0  0
 16 26  1  0  0  0  0
 16 31  2  0  0  0  0
 16 32  1  0  0  0  0
 17 19  2  0  0  0  0
 17 37  1  0  0  0  0
 18 20  2  0  0  0  0
 18 38  1  0  0  0  0
 19 46  1  0  0  0  0
 20 39  1  0  0  0  0
 21 85  1  0  0  0  0
 22 86  1  0  0  0  0
 23 25  2  0  0  0  0
 23 85  1  0  0  0  0
 24 87  1  0  0  0  0
 25 88  1  0  0  0  0
 26 67  2  0  0  0  0
 27 28  1  0  0  0  0
 27 49  1  0  0  0  0
 27 69  2  0  0  0  0
 28 56  1  0  0  0  0
 28 68  2  0  0  0  0
 29 30  2  0  0  0  0
 29 57  1  0  0  0  0
 29 68  1  0  0  0  0
 30 69  1  0  0  0  0
 30 86  1  0  0  0  0
 31 70  1  0  0  0  0
 31 73  1  0  0  0  0
 32 74  1  0  0  0  0
 32 80  2  0  0  0  0
 33 47  1  0  0  0  0
 33 75  1  0  0  0  0
 33 81  2  0  0  0  0
 34 64  1  0  0  0  0
 34 71  1  0  0  0  0
 34 82  2  0  0  0  0
 35 65  1  0  0  0  0
 35 76  1  0  0  0  0
 35 83  2  0  0  0  0
 36 72  1  0  0  0  0
 36 77  1  0  0  0  0
 36 84  2  0  0  0  0
 37 40  1  0  0  0  0
 38 47  1  0  0  0  0
 39 71  1  0  0  0  0
 40 42  1  0  0  0  0
 41 43  1  0  0  0  0
 41 44  1  0  0  0  0
 42 46  1  0  0  0  0
 43 48  1  0  0  0  0
 44 72  1  0  0  0  0
 45 48  1  0  0  0  0
 45 72  1  0  0  0  0
 46 75  1  0  0  0  0
 47 71  1  0  0  0  0
 48 70  1  0  0  0  0
 50 57  1  0  0  0  0
 51 65  1  0  0  0  0
 52 66  1  0  0  0  0
 53 66  1  0  0  0  0
 54 66  1  0  0  0  0
 55 78  1  0  0  0  0
 56 62  1  0  0  0  0
 58 59  1  0  0  0  0
 58 60  1  0  0  0  0
 59 61  1  0  0  0  0
 60 63  1  0  0  0  0
 61 77  1  0  0  0  0
 62 79  1  0  0  0  0
 63 79  1  0  0  0  0
 64 66  1  0  0  0  0
 64 76  1  0  0  0  0
 65 78  1  0  0  0  0
 67 70  1  0  0  0  0
M  CHG  2  78   1  79   1
M  ISO  4  30 101  36 100  77 100  86 101
M  END
> <Batch ID>
0044

> <Smiles>
CCc1nc(CCNCCCCC[100NH:0][100C:0](=O)N2CCCC(n3nc(-c4ccc(Oc5ccc(F)cc5F)cc4)c(C(N)=O)c3N)C2)c(C)n[101c:1]1[101O:1]c1ccc2c(c1)CN(C(=O)C(NC(=O)C(C)NC)C(C)(C)C)C(C(=O)NC1CCCc3ccccc31)C2

> <Shape>
0.254

> <Color>
0.123

> <Negative vol penalty>
0.000

$$$$

  -OEChem-04052317173D

 83 91  0     1  0  0  0  0  0999 V2000
  -25.8910  -16.9985   17.2525 C   0  0  0  0  0  0  0  0  0  0  0  0
  -25.3568  -18.2390   17.5824 C   0  0  0  0  0  0  0  0  0  0  0  0
  -24.7742  -14.5427   22.8499 C   0  0  0  0  0  0  0  0  0  0  0  0
  -25.2394  -15.4750   20.6701 C   0  0  0  0  0  0  0  0  0  0  0  0
  -27.1732  -16.6601   17.6800 C   0  0  0  0  0  0  0  0  0  0  0  0
  -26.1090  -19.1460   18.3296 C   0  0  0  0  0  0  0  0  0  0  0  0
  -24.2278  -23.6526   18.9261 C   0  0  0  0  0  0  0  0  0  0  0  0
  -25.0194  -13.2621   22.3545 C   0  0  0  0  0  0  0  0  0  0  0  0
  -25.4847  -14.1943   20.1747 C   0  0  0  0  0  0  0  0  0  0  0  0
  -23.1347  -23.9097   19.7523 C   0  0  0  0  0  0  0  0  0  0  0  0
  -25.1727   -9.7138   21.5737 C   0  0  0  0  0  0  0  0  0  0  0  0
  -24.2771   -8.7013   21.9175 C   0  0  0  0  0  0  0  0  0  0  0  0
  -24.6190  -24.8167   21.4237 C   0  0  0  0  0  0  0  0  0  0  0  0
  -22.4835   -9.9298   20.8634 C   0  0  0  0  0  0  0  0  0  0  0  0
  -24.8841  -15.6492   22.0077 C   0  0  0  0  0  0  0  0  0  0  0  0
  -25.5639  -17.8545   23.0949 C   0  0  0  0  0  0  0  0  0  0  0  0
  -27.9360  -17.5592   18.4434 C   0  0  0  0  0  0  0  0  0  0  0  0
  -25.5280  -23.9661   19.3476 C   0  0  0  0  0  0  0  0  0  0  0  0
  -27.4142  -18.8324   18.7500 C   0  0  0  0  0  0  0  0  0  0  0  0
  -25.7267  -24.5649   20.5998 C   0  0  0  0  0  0  0  0  0  0  0  0
  -19.1965  -26.2632   22.2851 C   0  0  0  0  0  0  0  0  0  0  0  0
  -25.3747  -13.0879   21.0170 C   0  0  0  0  0  0  0  0  0  0  0  0
  -23.3304  -24.4892   21.0025 C   0  0  0  0  0  0  0  0  0  0  0  0
  -24.7237  -10.8344   20.8747 C   0  0  0  0  0  0  0  0  0  0  0  0
  -22.9325   -8.8092   21.5624 C   0  0  0  0  0  0  0  0  0  0  0  0
  -23.3792  -10.9423   20.5196 C   0  0  0  0  0  0  0  0  0  0  0  0
  -24.6304  -16.9723   22.5186 C   0  0  0  0  0  0  0  0  0  0  0  0
  -18.7872  -27.5253   21.8146 C   0  0  0  0  0  0  0  0  0  0  0  0
  -20.3156  -26.5237   23.0376 C   0  0  0  0  0  0  0  0  0  0  0  0
  -24.8297  -18.9705   23.4146 C   0  0  0  0  0  0  0  0  0  0  0  0
  -26.9690  -17.6809   23.3211 C   0  0  0  0  0  0  0  0  0  0  0  0
  -28.1704  -22.2899   19.9062 C   0  0  0  0  0  0  0  0  0  0  0  0
  -29.4822  -25.2289   20.3106 C   0  0  0  0  0  0  0  0  0  0  0  0
  -29.0267  -28.5263   21.0634 C   0  0  0  0  0  0  0  0  0  0  0  0
  -19.8478  -21.1834   21.1476 C   0  0  0  0  0  0  0  0  0  0  0  0
  -29.3211  -17.1445   18.8731 C   0  0  0  0  0  0  0  0  0  0  0  0
  -26.6941  -23.7069   18.4336 C   0  0  0  0  0  0  0  0  0  0  0  0
  -27.1005  -24.9391   21.0909 C   0  0  0  0  0  0  0  0  0  0  0  0
  -29.8626  -17.9846   20.0252 C   0  0  0  0  0  0  0  0  0  0  0  0
  -20.3981  -20.3192   24.6185 C   0  0  0  0  0  0  0  0  0  0  0  0
  -29.6878  -19.4641   19.7166 C   0  0  0  0  0  0  0  0  0  0  0  0
  -21.6461  -19.4401   24.5189 C   0  0  0  0  0  0  0  0  0  0  0  0
  -19.4619  -20.0859   23.4365 C   0  0  0  0  0  0  0  0  0  0  0  0
  -21.3430  -19.3999   21.9997 C   0  0  0  0  0  0  0  0  0  0  0  0
  -28.2021  -19.8232   19.5878 C   0  0  1  0  0  0  0  0  0  0  0  0
  -28.0220  -23.5948   19.1762 C   0  0  1  0  0  0  0  0  0  0  0  0
  -22.3406  -19.6055   23.1542 C   0  0  2  0  0  0  0  0  0  0  0  0
  -17.6324  -27.8382   20.9544 C   0  0  0  0  0  0  0  0  0  0  0  0
  -30.2921  -30.6741   21.3519 C   0  0  0  0  0  0  0  0  0  0  0  0
  -30.4879  -24.2688   23.0266 C   0  0  0  0  0  0  0  0  0  0  0  0
  -30.8878  -26.6613   23.6463 C   0  0  0  0  0  0  0  0  0  0  0  0
  -32.1274  -25.6460   21.7344 C   0  0  0  0  0  0  0  0  0  0  0  0
  -21.5533  -28.6356   23.6064 C   0  0  0  0  0  0  0  0  0  0  0  0
  -27.5331  -29.8361   18.8697 C   0  0  0  0  0  0  0  0  0  0  0  0
  -18.5687  -24.9553   22.0295 C   0  0  0  0  0  0  0  0  0  0  0  0
  -21.2302  -25.6074   23.8136 C   0  0  0  0  0  0  0  0  0  0  0  0
  -18.8965  -24.3281   20.6514 C   0  0  0  0  0  0  0  0  0  0  0  0
  -18.2668  -22.9550   20.4273 C   0  0  0  0  0  0  0  0  0  0  0  0
  -22.5385  -25.3360   23.0790 C   0  0  0  0  0  0  0  0  0  1  0  0
  -29.6663  -26.1658   21.4799 C   0  0  1  0  0  0  0  0  0  0  0  0
  -29.5186  -29.7918   20.3844 C   0  0  2  0  0  0  0  0  0  0  0  0
  -30.7665  -25.6768   22.4637 C   0  0  0  0  0  0  0  0  0  0  0  0
  -23.3973  -17.4837   22.4736 N   0  0  0  0  0  0  0  0  0  0  0  0
  -19.5816  -28.5141   22.2333 N   0  0  0  0  0  0  0  0  0  0  0  0
  -20.5012  -27.8734   22.9748 N   0  0  0  0  0  0  0  0  0  0  0  0
  -23.5509  -18.6993   23.0257 N   0  0  0  0  0  0  0  0  0  0  0  0
  -28.2092  -24.6600   20.1633 N   0  0  0  0  0  0  0  0  0  0  0  0
  -20.1797  -20.2772   22.1684 N   0  0  0  0  0  0  0  0  0  0  0  0
  -25.1597  -20.1474   23.9876 N   0  0  0  0  0  0  0  0  0  0  0  0
  -27.5640  -16.4729   22.9323 N   0  0  0  0  0  0  0  0  0  0  0  0
  -28.0849  -21.1768   19.0918 N   0  0  0  0  0  0  0  0  0  0  0  0
  -29.9177  -27.4852   20.9103 N   0  0  0  0  0  0  0  0  0  0  0  0
  -18.7285  -21.9724   21.3825 N   0  0  0  0  0  0  0  0  0  0  0  0
  -28.3678  -30.5747   19.8518 N   0  3  0  0  0  0  0  0  0  0  0  0
  -27.6728  -18.5641   23.8671 O   0  0  0  0  0  0  0  0  0  0  0  0
  -28.3507  -22.2928   21.1183 O   0  0  0  0  0  0  0  0  0  0  0  0
  -30.4308  -25.0155   19.5515 O   0  0  0  0  0  0  0  0  0  0  0  0
  -27.9606  -28.4683   21.6721 O   0  0  0  0  0  0  0  0  0  0  0  0
  -20.5040  -21.2858   20.1054 O   0  0  0  0  0  0  0  0  0  0  0  0
  -25.6143  -11.8384   20.5333 O   0  0  0  0  0  0  0  0  0  0  0  0
  -22.2652  -24.7406   21.8112 O   0  0  0  0  0  0  0  0  0  1  0  0
  -22.0728   -7.8361   21.8913 F   0  0  0  0  0  0  0  0  0  0  0  0
  -22.9422  -12.0159   19.8470 F   0  0  0  0  0  0  0  0  0  0  0  0
  1  2  1  0  0  0  0
  1  5  2  0  0  0  0
  2  6  2  0  0  0  0
  3  8  2  0  0  0  0
  3 15  1  0  0  0  0
  4  9  1  0  0  0  0
  4 15  2  0  0  0  0
  5 17  1  0  0  0  0
  6 19  1  0  0  0  0
  7 10  2  0  0  0  0
  7 18  1  0  0  0  0
  8 22  1  0  0  0  0
  9 22  2  0  0  0  0
 10 23  1  0  0  0  0
 11 12  2  0  0  0  0
 11 24  1  0  0  0  0
 12 25  1  0  0  0  0
 13 20  1  0  0  0  0
 13 23  2  0  0  0  0
 14 25  2  0  0  0  0
 14 26  1  0  0  0  0
 15 27  1  0  0  0  0
 16 27  1  0  0  0  0
 16 30  2  0  0  0  0
 16 31  1  0  0  0  0
 17 19  2  0  0  0  0
 17 36  1  0  0  0  0
 18 20  2  0  0  0  0
 18 37  1  0  0  0  0
 19 45  1  0  0  0  0
 20 38  1  0  0  0  0
 21 28  1  0  0  0  0
 21 29  2  0  0  0  0
 21 55  1  0  0  0  0
 22 80  1  0  0  0  0
 23 81  1  0  0  0  0
 24 26  2  0  0  0  0
 24 80  1  0  0  0  0
 25 82  1  0  0  0  0
 26 83  1  0  0  0  0
 27 63  2  0  0  0  0
 28 48  1  0  0  0  0
 28 64  2  0  0  0  0
 29 56  1  0  0  0  0
 29 65  1  0  0  0  0
 30 66  1  0  0  0  0
 30 69  1  0  0  0  0
 31 70  1  0  0  0  0
 31 75  2  0  0  0  0
 32 46  1  0  0  0  0
 32 71  1  0  0  0  0
 32 76  2  0  0  0  0
 33 60  1  0  0  0  0
 33 67  1  0  0  0  0
 33 77  2  0  0  0  0
 34 61  1  0  0  0  0
 34 72  1  0  0  0  0
 34 78  2  0  0  0  0
 35 68  1  0  0  0  0
 35 73  1  0  0  0  0
 35 79  2  0  0  0  0
 36 39  1  0  0  0  0
 37 46  1  0  0  0  0
 38 67  1  0  0  0  0
 39 41  1  0  0  0  0
 40 42  1  0  0  0  0
 40 43  1  0  0  0  0
 41 45  1  0  0  0  0
 42 47  1  0  0  0  0
 43 68  1  0  0  0  0
 44 47  1  0  0  0  0
 44 68  1  0  0  0  0
 45 71  1  0  0  0  0
 46 67  1  0  0  0  0
 47 66  1  0  0  0  0
 49 61  1  0  0  0  0
 50 62  1  0  0  0  0
 51 62  1  0  0  0  0
 52 62  1  0  0  0  0
 53 65  1  0  0  0  0
 54 74  1  0  0  0  0
 55 57  1  0  0  0  0
 56 59  1  0  0  0  0
 57 58  1  0  0  0  0
 58 73  1  0  0  0  0
 59 81  1  0  0  0  0
 60 62  1  0  0  0  0
 60 72  1  0  0  0  0
 61 74  1  0  0  0  0
 63 66  1  0  0  0  0
 64 65  1  0  0  0  0
M  CHG  1  74   1
M  ISO  4  35 100  59 101  73 100  81 101
M  END
> <Batch ID>
0044

> <Smiles>
CNC(C)C(=O)NC(C(=O)N1Cc2cc([101O:1][101CH2:1]Cc3c(CCC[100NH:0][100C:0](=O)N4CCCC(n5nc(-c6ccc(Oc7ccc(F)cc7F)cc6)c(C(N)=O)c5N)C4)c(C)nn3C)ccc2CC1C(=O)NC1CCCc2ccccc21)C(C)(C)C

> <Shape>
0.198

> <Color>
0.058

> <Negative vol penalty>
0.000

$$$$

  -OEChem-04052317173D

 82 90  0     1  0  0  0  0  0999 V2000
  -32.9386  -26.5051   19.6516 C   0  0  0  0  0  0  0  0  0  0  0  0
  -31.8830  -25.6205   19.8484 C   0  0  0  0  0  0  0  0  0  0  0  0
  -23.5775   -9.6715   19.9624 C   0  0  0  0  0  0  0  0  0  0  0  0
  -23.7262  -10.0526   22.3435 C   0  0  0  0  0  0  0  0  0  0  0  0
  -32.9538  -27.7297   20.3180 C   0  0  0  0  0  0  0  0  0  0  0  0
  -30.8425  -25.9596   20.7126 C   0  0  0  0  0  0  0  0  0  0  0  0
  -26.2845  -24.9122   18.7703 C   0  0  0  0  0  0  0  0  0  0  0  0
  -22.9424   -8.4520   20.1972 C   0  0  0  0  0  0  0  0  0  0  0  0
  -23.0911   -8.8331   22.5784 C   0  0  0  0  0  0  0  0  0  0  0  0
  -25.8687  -23.5818   18.8033 C   0  0  0  0  0  0  0  0  0  0  0  0
  -19.9392   -7.6157   22.5179 C   0  0  0  0  0  0  0  0  0  0  0  0
  -18.9217   -7.5897   23.4717 C   0  0  0  0  0  0  0  0  0  0  0  0
  -24.5218  -24.0573   20.7472 C   0  0  0  0  0  0  0  0  0  0  0  0
  -20.1655   -5.9632   24.7541 C   0  0  0  0  0  0  0  0  0  0  0  0
  -26.9764  -19.5095   21.6598 C   0  0  0  0  0  0  0  0  0  0  0  0
  -23.9694  -10.4717   21.0356 C   0  0  0  0  0  0  0  0  0  0  0  0
  -24.0168  -12.9899   20.6305 C   0  0  0  0  0  0  0  0  0  0  0  0
  -31.9081  -28.0880   21.1834 C   0  0  0  0  0  0  0  0  0  0  0  0
  -25.8298  -25.8241   19.7337 C   0  0  0  0  0  0  0  0  0  0  0  0
  -30.8444  -27.1895   21.3922 C   0  0  0  0  0  0  0  0  0  0  0  0
  -24.9313  -25.3992   20.7227 C   0  0  0  0  0  0  0  0  0  0  0  0
  -28.0747  -19.0800   20.9556 C   0  0  0  0  0  0  0  0  0  0  0  0
  -22.6992   -8.0328   21.5052 C   0  0  0  0  0  0  0  0  0  0  0  0
  -24.9895  -23.1535   19.7935 C   0  0  0  0  0  0  0  0  0  0  0  0
  -21.0698   -6.8154   22.6821 C   0  0  0  0  0  0  0  0  0  0  0  0
  -19.0349   -6.7635   24.5898 C   0  0  0  0  0  0  0  0  0  0  0  0
  -21.1829   -5.9892   23.8002 C   0  0  0  0  0  0  0  0  0  0  0  0
  -24.6260  -11.7313   20.7936 C   0  0  0  0  0  0  0  0  0  0  0  0
  -27.5740  -18.7715   19.6765 C   0  0  0  0  0  0  0  0  0  0  0  0
  -25.0645  -13.8547   20.4275 C   0  0  0  0  0  0  0  0  0  0  0  0
  -22.6282  -13.3456   20.6598 C   0  0  0  0  0  0  0  0  0  0  0  0
  -27.2188  -27.5940   21.9790 C   0  0  0  0  0  0  0  0  0  0  0  0
  -24.2269  -28.7964   22.3324 C   0  0  0  0  0  0  0  0  0  0  0  0
  -20.8643  -28.3586   21.9475 C   0  0  0  0  0  0  0  0  0  0  0  0
  -30.1539  -15.7279   21.7441 C   0  0  0  0  0  0  0  0  0  0  0  0
  -31.9920  -29.4026   21.9179 C   0  0  0  0  0  0  0  0  0  0  0  0
  -26.2668  -27.2619   19.6684 C   0  0  0  0  0  0  0  0  0  0  0  0
  -24.3979  -26.3434   21.7680 C   0  0  0  0  0  0  0  0  0  0  0  0
  -30.6645  -29.8451   22.5282 C   0  0  0  0  0  0  0  0  0  0  0  0
  -29.9591  -12.9441   19.5330 C   0  0  0  0  0  0  0  0  0  0  0  0
  -30.0016  -28.6845   23.2632 C   0  0  0  0  0  0  0  0  0  0  0  0
  -28.5064  -12.4808   19.6553 C   0  0  0  0  0  0  0  0  0  0  0  0
  -30.5085  -13.4375   20.8697 C   0  0  0  0  0  0  0  0  0  0  0  0
  -28.2430  -14.0145   21.6496 C   0  0  0  0  0  0  0  0  0  0  0  0
  -29.6850  -27.5318   22.3026 C   0  0  1  0  0  0  0  0  0  0  0  0
  -26.1430  -27.9853   21.0058 C   0  0  1  0  0  0  0  0  0  0  0  0
  -27.6273  -13.5602   20.3151 C   0  0  2  0  0  0  0  0  0  0  0  0
  -28.3212  -18.2635   18.5126 C   0  0  0  0  0  0  0  0  0  0  0  0
  -30.0605  -20.3431   21.8415 C   0  0  0  0  0  0  0  0  0  0  0  0
  -18.6688  -29.5005   22.3632 C   0  0  0  0  0  0  0  0  0  0  0  0
  -24.4438  -28.1274   25.3015 C   0  0  0  0  0  0  0  0  0  0  0  0
  -21.9597  -28.3892   25.4707 C   0  0  0  0  0  0  0  0  0  0  0  0
  -23.3744  -30.3328   24.8045 C   0  0  0  0  0  0  0  0  0  0  0  0
  -20.1963  -28.3779   19.0644 C   0  0  0  0  0  0  0  0  0  0  0  0
  -24.4916  -19.7993   21.0916 C   0  0  0  0  0  0  0  0  0  0  0  0
  -29.6397  -17.9871   22.6333 C   0  0  0  0  0  0  0  0  0  0  0  0
  -24.2680  -21.3075   21.1079 C   0  0  0  0  0  0  0  0  0  1  0  0
  -29.4604  -18.9709   21.4417 C   0  0  1  0  0  0  0  0  0  0  0  0
  -23.0223  -28.4376   23.1686 C   0  0  1  0  0  0  0  0  0  0  0  0
  -19.7912  -29.2608   21.3654 C   0  0  2  0  0  0  0  0  0  0  0  0
  -23.2115  -28.8032   24.6679 C   0  0  0  0  0  0  0  0  0  0  0  0
  -25.9573  -11.7870   20.7021 N   0  0  0  0  0  0  0  0  0  0  0  0
  -26.2600  -18.9866   19.5714 N   0  0  0  0  0  0  0  0  0  0  0  0
  -25.9256  -19.4347   20.7935 N   0  0  0  0  0  0  0  0  0  0  0  0
  -26.1934  -13.0911   20.4790 N   0  0  0  0  0  0  0  0  0  0  0  0
  -24.8595  -27.7376   21.6657 N   0  0  0  0  0  0  0  0  0  0  0  0
  -29.6296  -14.4604   21.4415 N   0  0  0  0  0  0  0  0  0  0  0  0
  -25.1209  -15.1861   20.2116 N   0  0  0  0  0  0  0  0  0  0  0  0
  -21.6838  -12.3337   20.8800 N   0  0  0  0  0  0  0  0  0  0  0  0
  -28.5020  -27.8324   21.5251 N   0  0  0  0  0  0  0  0  0  0  0  0
  -21.8784  -29.0847   22.5354 N   0  0  0  0  0  0  0  0  0  0  0  0
  -29.2517  -16.6405   22.2770 N   0  0  0  0  0  0  0  0  0  0  0  0
  -19.2071  -28.6468   20.1396 N   0  3  0  0  0  0  0  0  0  0  0  0
  -22.2354  -14.5232   20.4793 O   0  0  0  0  0  0  0  0  0  0  0  0
  -26.9077  -27.1129   23.0623 O   0  0  0  0  0  0  0  0  0  0  0  0
  -24.5888  -29.9739   22.2673 O   0  0  0  0  0  0  0  0  0  0  0  0
  -20.8068  -27.1323   21.8898 O   0  0  0  0  0  0  0  0  0  0  0  0
  -31.3371  -16.0260   21.5487 O   0  0  0  0  0  0  0  0  0  0  0  0
  -22.0794   -6.8430   21.7347 O   0  0  0  0  0  0  0  0  0  0  0  0
  -24.5826  -21.8554   19.8284 O   0  0  0  0  0  0  0  0  0  1  0  0
  -18.0585   -6.7398   25.5064 F   0  0  0  0  0  0  0  0  0  0  0  0
  -22.2673   -5.2190   23.9641 F   0  0  0  0  0  0  0  0  0  0  0  0
  1  2  1  0  0  0  0
  1  5  2  0  0  0  0
  2  6  2  0  0  0  0
  3  8  2  0  0  0  0
  3 16  1  0  0  0  0
  4  9  1  0  0  0  0
  4 16  2  0  0  0  0
  5 18  1  0  0  0  0
  6 20  1  0  0  0  0
  7 10  2  0  0  0  0
  7 19  1  0  0  0  0
  8 23  1  0  0  0  0
  9 23  2  0  0  0  0
 10 24  1  0  0  0  0
 11 12  2  0  0  0  0
 11 25  1  0  0  0  0
 12 26  1  0  0  0  0
 13 21  1  0  0  0  0
 13 24  2  0  0  0  0
 14 26  2  0  0  0  0
 14 27  1  0  0  0  0
 15 22  2  0  0  0  0
 15 64  1  0  0  0  0
 16 28  1  0  0  0  0
 17 28  1  0  0  0  0
 17 30  2  0  0  0  0
 17 31  1  0  0  0  0
 18 20  2  0  0  0  0
 18 36  1  0  0  0  0
 19 21  2  0  0  0  0
 19 37  1  0  0  0  0
 20 45  1  0  0  0  0
 21 38  1  0  0  0  0
 22 29  1  0  0  0  0
 22 58  1  0  0  0  0
 23 79  1  0  0  0  0
 24 80  1  0  0  0  0
 25 27  2  0  0  0  0
 25 79  1  0  0  0  0
 26 81  1  0  0  0  0
 27 82  1  0  0  0  0
 28 62  2  0  0  0  0
 29 48  1  0  0  0  0
 29 63  2  0  0  0  0
 30 65  1  0  0  0  0
 30 68  1  0  0  0  0
 31 69  1  0  0  0  0
 31 74  2  0  0  0  0
 32 46  1  0  0  0  0
 32 70  1  0  0  0  0
 32 75  2  0  0  0  0
 33 59  1  0  0  0  0
 33 66  1  0  0  0  0
 33 76  2  0  0  0  0
 34 60  1  0  0  0  0
 34 71  1  0  0  0  0
 34 77  2  0  0  0  0
 35 67  1  0  0  0  0
 35 72  1  0  0  0  0
 35 78  2  0  0  0  0
 36 39  1  0  0  0  0
 37 46  1  0  0  0  0
 38 66  1  0  0  0  0
 39 41  1  0  0  0  0
 40 42  1  0  0  0  0
 40 43  1  0  0  0  0
 41 45  1  0  0  0  0
 42 47  1  0  0  0  0
 43 67  1  0  0  0  0
 44 47  1  0  0  0  0
 44 67  1  0  0  0  0
 45 70  1  0  0  0  0
 46 66  1  0  0  0  0
 47 65  1  0  0  0  0
 49 58  1  0  0  0  0
 50 60  1  0  0  0  0
 51 61  1  0  0  0  0
 52 61  1  0  0  0  0
 53 61  1  0  0  0  0
 54 73  1  0  0  0  0
 55 57  1  0  0  0  0
 55 64  1  0  0  0  0
 56 58  1  0  0  0  0
 56 72  1  0  0  0  0
 57 80  1  0  0  0  0
 59 61  1  0  0  0  0
 59 71  1  0  0  0  0
 60 73  1  0  0  0  0
 62 65  1  0  0  0  0
 63 64  1  0  0  0  0
M  CHG  1  73   1
M  ISO  4  35 100  57 101  72 100  80 101
M  END
> <Batch ID>
0044

> <Smiles>
CNC(C)C(=O)NC(C(=O)N1Cc2cc([101O:1][101CH2:1]Cn3cc(C(C)C[100NH:0][100C:0](=O)N4CCCC(n5nc(-c6ccc(Oc7ccc(F)cc7F)cc6)c(C(N)=O)c5N)C4)c(C)n3)ccc2CC1C(=O)NC1CCCc2ccccc21)C(C)(C)C

> <Shape>
0.279

> <Color>
0.158

> <Negative vol penalty>
0.000

$$$$

  -OEChem-04052317173D

 82 90  0     1  0  0  0  0  0999 V2000
  -27.8905  -32.6264   27.2665 C   0  0  0  0  0  0  0  0  0  0  0  0
  -28.0614  -31.5739   26.3729 C   0  0  0  0  0  0  0  0  0  0  0  0
  -25.5780  -15.1019   21.4300 C   0  0  0  0  0  0  0  0  0  0  0  0
  -27.8863  -14.6626   20.8682 C   0  0  0  0  0  0  0  0  0  0  0  0
  -26.6060  -33.0397   27.6174 C   0  0  0  0  0  0  0  0  0  0  0  0
  -26.9478  -30.9334   25.8306 C   0  0  0  0  0  0  0  0  0  0  0  0
  -27.3936  -30.1477   20.8478 C   0  0  0  0  0  0  0  0  0  0  0  0
  -25.2612  -13.7684   21.1714 C   0  0  0  0  0  0  0  0  0  0  0  0
  -27.5696  -13.3290   20.6097 C   0  0  0  0  0  0  0  0  0  0  0  0
  -28.1956  -29.0826   20.4404 C   0  0  0  0  0  0  0  0  0  0  0  0
  -25.5465  -10.7898   22.7462 C   0  0  0  0  0  0  0  0  0  0  0  0
  -24.7313  -10.1275   23.6640 C   0  0  0  0  0  0  0  0  0  0  0  0
  -26.2237  -27.7349   20.1020 C   0  0  0  0  0  0  0  0  0  0  0  0
  -23.0983   -9.7318   21.9280 C   0  0  0  0  0  0  0  0  0  0  0  0
  -26.8906  -15.5490   21.2783 C   0  0  0  0  0  0  0  0  0  0  0  0
  -27.6232  -17.4819   22.7734 C   0  0  0  0  0  0  0  0  0  0  0  0
  -25.4761  -32.4103   27.0718 C   0  0  0  0  0  0  0  0  0  0  0  0
  -25.9988  -30.0107   20.8958 C   0  0  0  0  0  0  0  0  0  0  0  0
  -25.6470  -31.3378   26.1757 C   0  0  0  0  0  0  0  0  0  0  0  0
  -25.4060  -28.8007   20.5079 C   0  0  0  0  0  0  0  0  0  0  0  0
  -31.6922  -23.5736   18.2884 C   0  0  0  0  0  0  0  0  0  0  0  0
  -26.2570  -12.8819   20.7613 C   0  0  0  0  0  0  0  0  0  0  0  0
  -27.6109  -27.8750   20.0702 C   0  0  0  0  0  0  0  0  0  0  0  0
  -25.1375  -10.9233   21.4193 C   0  0  0  0  0  0  0  0  0  0  0  0
  -23.5072   -9.5985   23.2550 C   0  0  0  0  0  0  0  0  0  0  0  0
  -23.9134  -10.3942   21.0102 C   0  0  0  0  0  0  0  0  0  0  0  0
  -27.2183  -16.9266   21.5447 C   0  0  0  0  0  0  0  0  0  0  0  0
  -31.5603  -24.6984   17.4999 C   0  0  0  0  0  0  0  0  0  0  0  0
  -31.1614  -23.6693   19.5585 C   0  0  0  0  0  0  0  0  0  0  0  0
  -27.8118  -18.8150   22.5022 C   0  0  0  0  0  0  0  0  0  0  0  0
  -30.4814  -25.8029   19.1682 C   0  0  0  0  0  0  0  0  0  0  0  0
  -27.8120  -16.8491   24.0460 C   0  0  0  0  0  0  0  0  0  0  0  0
  -23.8076  -30.1652   23.1933 C   0  0  0  0  0  0  0  0  0  0  0  0
  -21.7437  -29.8853   20.7065 C   0  0  0  0  0  0  0  0  0  0  0  0
  -21.1912  -28.8471   17.5028 C   0  0  0  0  0  0  0  0  0  0  0  0
  -29.0967  -21.8124   17.4806 C   0  0  0  0  0  0  0  0  0  0  0  0
  -24.1077  -32.8612   27.5176 C   0  0  0  0  0  0  0  0  0  0  0  0
  -25.1461  -31.1777   21.3120 C   0  0  0  0  0  0  0  0  0  0  0  0
  -23.9122  -28.6089   20.5225 C   0  0  0  0  0  0  0  0  0  0  0  0
  -22.9806  -32.3752   26.6100 C   0  0  0  0  0  0  0  0  0  0  0  0
  -26.2802  -22.2997   19.6035 C   0  0  0  0  0  0  0  0  0  0  0  0
  -23.1504  -30.8924   26.2951 C   0  0  0  0  0  0  0  0  0  0  0  0
  -26.2378  -21.0280   20.4526 C   0  0  0  0  0  0  0  0  0  0  0  0
  -26.7261  -22.0081   18.1724 C   0  0  0  0  0  0  0  0  0  0  0  0
  -27.9591  -20.0047   18.9071 C   0  0  0  0  0  0  0  0  0  0  0  0
  -24.4639  -30.6341   25.5471 C   0  0  1  0  0  0  0  0  0  0  0  0
  -23.7672  -30.7611   21.8145 C   0  0  1  0  0  0  0  0  0  0  0  0
  -27.5688  -20.2564   20.3736 C   0  0  2  0  0  0  0  0  0  0  0  0
  -32.0963  -24.7117   16.1060 C   0  0  0  0  0  0  0  0  0  0  0  0
  -31.2453  -22.5155   20.5028 C   0  0  0  0  0  0  0  0  0  0  0  0
  -19.3940  -28.7183   15.7560 C   0  0  0  0  0  0  0  0  0  0  0  0
  -20.4833  -27.5296   22.1803 C   0  0  0  0  0  0  0  0  0  0  0  0
  -19.3763  -26.8690   20.0340 C   0  0  0  0  0  0  0  0  0  0  0  0
  -18.8469  -29.0696   21.0827 C   0  0  0  0  0  0  0  0  0  0  0  0
  -22.7193  -30.5636   15.6380 C   0  0  0  0  0  0  0  0  0  0  0  0
  -32.3615  -22.3381   17.7999 C   0  0  0  0  0  0  0  0  0  0  0  0
  -29.8023  -27.0476   19.6589 C   0  0  0  0  0  0  0  0  0  1  0  0
  -31.4816  -21.4813   16.8792 C   0  0  0  0  0  0  0  0  0  0  0  0
  -21.0963  -28.7317   19.9791 C   0  0  1  0  0  0  0  0  0  0  0  0
  -20.5445  -29.5397   16.3168 C   0  0  2  0  0  0  0  0  0  0  0  0
  -19.9790  -28.0526   20.8205 C   0  0  0  0  0  0  0  0  0  0  0  0
  -27.1531  -17.8330   20.5658 N   0  0  0  0  0  0  0  0  0  0  0  0
  -30.9584  -25.8344   17.9093 N   0  0  0  0  0  0  0  0  0  0  0  0
  -30.5470  -24.7728   20.0331 N   0  0  0  0  0  0  0  0  0  0  0  0
  -27.5195  -18.9713   21.1792 N   0  0  0  0  0  0  0  0  0  0  0  0
  -23.1215  -29.7774   20.9430 N   0  0  0  0  0  0  0  0  0  0  0  0
  -27.9950  -21.2762   18.1675 N   0  0  0  0  0  0  0  0  0  0  0  0
  -28.1974  -19.8572   23.2687 N   0  0  0  0  0  0  0  0  0  0  0  0
  -27.5742  -15.4717   24.1492 N   0  0  0  0  0  0  0  0  0  0  0  0
  -24.3341  -31.0066   24.1547 N   0  0  0  0  0  0  0  0  0  0  0  0
  -20.6415  -29.2606   18.6978 N   0  0  0  0  0  0  0  0  0  0  0  0
  -30.2625  -21.0582   17.5316 N   0  0  0  0  0  0  0  0  0  0  0  0
  -21.5441  -29.7505   15.2318 N   0  3  0  0  0  0  0  0  0  0  0  0
  -28.1648  -17.4892   25.0655 O   0  0  0  0  0  0  0  0  0  0  0  0
  -23.3905  -29.0269   23.3720 O   0  0  0  0  0  0  0  0  0  0  0  0
  -21.0537  -30.8499   21.0458 O   0  0  0  0  0  0  0  0  0  0  0  0
  -22.0911  -28.0190   17.3810 O   0  0  0  0  0  0  0  0  0  0  0  0
  -29.0465  -22.8865   16.8717 O   0  0  0  0  0  0  0  0  0  0  0  0
  -25.9483  -11.5804   20.5091 O   0  0  0  0  0  0  0  0  0  0  0  0
  -28.3915  -26.8336   19.6727 O   0  0  0  0  0  0  0  0  0  1  0  0
  -22.7252   -8.9611   24.1361 F   0  0  0  0  0  0  0  0  0  0  0  0
  -23.5157  -10.5183   19.7366 F   0  0  0  0  0  0  0  0  0  0  0  0
  1  2  1  0  0  0  0
  1  5  2  0  0  0  0
  2  6  2  0  0  0  0
  3  8  2  0  0  0  0
  3 15  1  0  0  0  0
  4  9  1  0  0  0  0
  4 15  2  0  0  0  0
  5 17  1  0  0  0  0
  6 19  1  0  0  0  0
  7 10  2  0  0  0  0
  7 18  1  0  0  0  0
  8 22  1  0  0  0  0
  9 22  2  0  0  0  0
 10 23  1  0  0  0  0
 11 12  2  0  0  0  0
 11 24  1  0  0  0  0
 12 25  1  0  0  0  0
 13 20  1  0  0  0  0
 13 23  2  0  0  0  0
 14 25  2  0  0  0  0
 14 26  1  0  0  0  0
 15 27  1  0  0  0  0
 16 27  1  0  0  0  0
 16 30  2  0  0  0  0
 16 32  1  0  0  0  0
 17 19  2  0  0  0  0
 17 37  1  0  0  0  0
 18 20  2  0  0  0  0
 18 38  1  0  0  0  0
 19 46  1  0  0  0  0
 20 39  1  0  0  0  0
 21 28  1  0  0  0  0
 21 29  2  0  0  0  0
 21 56  1  0  0  0  0
 22 79  1  0  0  0  0
 23 80  1  0  0  0  0
 24 26  2  0  0  0  0
 24 79  1  0  0  0  0
 25 81  1  0  0  0  0
 26 82  1  0  0  0  0
 27 62  2  0  0  0  0
 28 49  1  0  0  0  0
 28 63  2  0  0  0  0
 29 50  1  0  0  0  0
 29 64  1  0  0  0  0
 30 65  1  0  0  0  0
 30 68  1  0  0  0  0
 31 57  1  0  0  0  0
 31 63  1  0  0  0  0
 31 64  2  0  0  0  0
 32 69  1  0  0  0  0
 32 74  2  0  0  0  0
 33 47  1  0  0  0  0
 33 70  1  0  0  0  0
 33 75  2  0  0  0  0
 34 59  1  0  0  0  0
 34 66  1  0  0  0  0
 34 76  2  0  0  0  0
 35 60  1  0  0  0  0
 35 71  1  0  0  0  0
 35 77  2  0  0  0  0
 36 67  1  0  0  0  0
 36 72  1  0  0  0  0
 36 78  2  0  0  0  0
 37 40  1  0  0  0  0
 38 47  1  0  0  0  0
 39 66  1  0  0  0  0
 40 42  1  0  0  0  0
 41 43  1  0  0  0  0
 41 44  1  0  0  0  0
 42 46  1  0  0  0  0
 43 48  1  0  0  0  0
 44 67  1  0  0  0  0
 45 48  1  0  0  0  0
 45 67  1  0  0  0  0
 46 70  1  0  0  0  0
 47 66  1  0  0  0  0
 48 65  1  0  0  0  0
 51 60  1  0  0  0  0
 52 61  1  0  0  0  0
 53 61  1  0  0  0  0
 54 61  1  0  0  0  0
 55 73  1  0  0  0  0
 56 58  1  0  0  0  0
 57 80  1  0  0  0  0
 58 72  1  0  0  0  0
 59 61  1  0  0  0  0
 59 71  1  0  0  0  0
 60 73  1  0  0  0  0
 62 65  1  0  0  0  0
M  CHG  1  73   1
M  ISO  4  36 100  57 101  72 100  80 101
M  END
> <Batch ID>
0044

> <Smiles>
CNC(C)C(=O)NC(C(=O)N1Cc2cc([101O:1][101CH2:1]c3nc(C)c(CC[100NH:0][100C:0](=O)N4CCCC(n5nc(-c6ccc(Oc7ccc(F)cc7F)cc6)c(C(N)=O)c5N)C4)c(C)n3)ccc2CC1C(=O)NC1CCCc2ccccc21)C(C)(C)C

> <Shape>
0.268

> <Color>
0.091

> <Negative vol penalty>
0.000

$$$$

  -OEChem-04052317173D

 85 93  0     1  0  0  0  0  0999 V2000
  -28.2507  -32.9640   18.0694 C   0  0  0  0  0  0  0  0  0  0  0  0
  -28.6411  -31.6466   18.2874 C   0  0  0  0  0  0  0  0  0  0  0  0
  -22.9398  -10.0715   19.9846 C   0  0  0  0  0  0  0  0  0  0  0  0
  -23.7994   -9.9382   22.2386 C   0  0  0  0  0  0  0  0  0  0  0  0
  -27.5369  -33.6499   19.0512 C   0  0  0  0  0  0  0  0  0  0  0  0
  -28.3188  -31.0147   19.4879 C   0  0  0  0  0  0  0  0  0  0  0  0
  -26.9300  -25.1028   20.2794 C   0  0  0  0  0  0  0  0  0  0  0  0
  -22.1348   -8.9582   20.2258 C   0  0  0  0  0  0  0  0  0  0  0  0
  -22.9943   -8.8249   22.4798 C   0  0  0  0  0  0  0  0  0  0  0  0
  -27.6850  -24.0108   20.7051 C   0  0  0  0  0  0  0  0  0  0  0  0
  -19.2084   -8.2906   21.7826 C   0  0  0  0  0  0  0  0  0  0  0  0
  -17.8811   -8.3462   21.3576 C   0  0  0  0  0  0  0  0  0  0  0  0
  -26.8539  -24.3187   22.9487 C   0  0  0  0  0  0  0  0  0  0  0  0
  -18.2549   -6.4267   19.9388 C   0  0  0  0  0  0  0  0  0  0  0  0
  -23.7722  -10.5615   20.9910 C   0  0  0  0  0  0  0  0  0  0  0  0
  -24.2708  -13.0629   20.9497 C   0  0  0  0  0  0  0  0  0  0  0  0
  -27.1974  -33.0230   20.2605 C   0  0  0  0  0  0  0  0  0  0  0  0
  -26.1384  -25.8189   21.1888 C   0  0  0  0  0  0  0  0  0  0  0  0
  -27.6010  -31.6933   20.4874 C   0  0  0  0  0  0  0  0  0  0  0  0
  -26.0879  -25.4179   22.5315 C   0  0  0  0  0  0  0  0  0  0  0  0
  -22.1620   -8.3350   21.4734 C   0  0  0  0  0  0  0  0  0  0  0  0
  -27.6492  -23.6204   22.0406 C   0  0  0  0  0  0  0  0  0  0  0  0
  -20.0591   -7.3031   21.2856 C   0  0  0  0  0  0  0  0  0  0  0  0
  -17.4043   -7.4143   20.4358 C   0  0  0  0  0  0  0  0  0  0  0  0
  -19.5823   -6.3712   20.3638 C   0  0  0  0  0  0  0  0  0  0  0  0
  -24.6044  -11.7111   20.7424 C   0  0  0  0  0  0  0  0  0  0  0  0
  -27.5341  -17.9024   23.9438 C   0  0  0  0  0  0  0  0  0  0  0  0
  -27.7683  -19.1206   24.5426 C   0  0  0  0  0  0  0  0  0  0  0  0
  -28.8631  -18.5111   22.1852 C   0  0  0  0  0  0  0  0  0  0  0  0
  -29.0969  -19.7297   22.7836 C   0  0  0  0  0  0  0  0  0  0  0  0
  -25.3920  -13.7563   20.5641 C   0  0  0  0  0  0  0  0  0  0  0  0
  -23.0561  -13.6402   21.4467 C   0  0  0  0  0  0  0  0  0  0  0  0
  -26.0913  -28.8160   22.2466 C   0  0  0  0  0  0  0  0  0  0  0  0
  -23.3801  -27.8366   23.7340 C   0  0  0  0  0  0  0  0  0  0  0  0
  -21.5400  -25.2558   24.9991 C   0  0  0  0  0  0  0  0  0  0  0  0
  -30.9330  -14.4203   20.5337 C   0  0  0  0  0  0  0  0  0  0  0  0
  -26.4658  -33.8202   21.3111 C   0  0  0  0  0  0  0  0  0  0  0  0
  -25.3092  -26.9781   20.7083 C   0  0  0  0  0  0  0  0  0  0  0  0
  -25.2383  -26.1407   23.5435 C   0  0  0  0  0  0  0  0  0  0  0  0
  -25.8391  -32.9577   22.4036 C   0  0  0  0  0  0  0  0  0  0  0  0
  -29.5391  -12.2102   18.1152 C   0  0  0  0  0  0  0  0  0  0  0  0
  -26.8364  -31.9148   22.8982 C   0  0  0  0  0  0  0  0  0  0  0  0
  -28.1063  -11.9902   18.6036 C   0  0  0  0  0  0  0  0  0  0  0  0
  -30.5209  -12.3243   19.2793 C   0  0  0  0  0  0  0  0  0  0  0  0
  -28.7337  -13.1169   20.7797 C   0  0  0  0  0  0  0  0  0  0  0  0
  -27.2488  -30.9656   21.7667 C   0  0  1  0  0  0  0  0  0  0  0  0
  -24.9382  -27.9504   21.8238 C   0  0  1  0  0  0  0  0  0  0  0  0
  -27.6990  -13.0516   19.6432 C   0  0  2  0  0  0  0  0  0  0  0  0
  -26.6634  -16.8759   24.5839 C   0  0  0  0  0  0  0  0  0  0  0  0
  -27.2884  -20.9557   26.1823 C   0  0  0  0  0  0  0  0  0  0  0  0
  -19.3835  -24.7708   26.1871 C   0  0  0  0  0  0  0  0  0  0  0  0
  -24.5874  -28.8654   26.3405 C   0  0  0  0  0  0  0  0  0  0  0  0
  -22.8708  -27.5306   27.5813 C   0  0  0  0  0  0  0  0  0  0  0  0
  -22.1542  -29.3643   26.0495 C   0  0  0  0  0  0  0  0  0  0  0  0
  -20.5599  -23.5672   22.7749 C   0  0  0  0  0  0  0  0  0  0  0  0
  -27.1622  -19.4688   25.8590 C   0  0  0  0  0  0  0  0  0  0  0  0
  -29.4703  -18.1622   20.8694 C   0  0  0  0  0  0  0  0  0  0  0  0
  -29.9784  -20.7691   22.1349 C   0  0  0  0  0  0  0  0  0  0  0  0
  -30.9449  -17.7181   20.9438 C   0  0  0  0  0  0  0  0  0  0  0  0
  -31.1925  -16.5108   21.8458 C   0  0  0  0  0  0  0  0  0  0  0  0
  -29.1725  -21.8834   21.4762 C   0  0  0  0  0  0  0  0  0  1  0  0
  -23.0594  -27.2155   25.0721 C   0  0  1  0  0  0  0  0  0  0  0  0
  -20.0758  -24.8889   24.8382 C   0  0  2  0  0  0  0  0  0  0  0  0
  -23.1856  -28.2313   26.2424 C   0  0  0  0  0  0  0  0  0  0  0  0
  -25.8407  -11.5529   20.2621 N   0  0  0  0  0  0  0  0  0  0  0  0
  -28.0773  -17.5757   22.7544 N   0  0  0  0  0  0  0  0  0  0  0  0
  -28.5539  -20.0561   23.9732 N   0  0  0  0  0  0  0  0  0  0  0  0
  -26.2937  -12.8144   20.1644 N   0  0  0  0  0  0  0  0  0  0  0  0
  -24.4504  -27.2717   23.0262 N   0  0  0  0  0  0  0  0  0  0  0  0
  -30.0777  -13.3488   20.2279 N   0  0  0  0  0  0  0  0  0  0  0  0
  -25.6845  -15.0738   20.5312 N   0  0  0  0  0  0  0  0  0  0  0  0
  -22.0035  -12.7836   21.7966 N   0  0  0  0  0  0  0  0  0  0  0  0
  -26.2101  -29.9875   21.5236 N   0  0  0  0  0  0  0  0  0  0  0  0
  -21.7345  -26.6195   24.9384 N   0  0  0  0  0  0  0  0  0  0  0  0
  -30.4331  -15.3502   21.4370 N   0  0  0  0  0  0  0  0  0  0  0  0
  -19.9433  -23.5864   24.1263 N   0  3  0  0  0  0  0  0  0  0  0  0
  -22.9027  -14.8800   21.5610 O   0  0  0  0  0  0  0  0  0  0  0  0
  -26.8185  -28.4488   23.1621 O   0  0  0  0  0  0  0  0  0  0  0  0
  -22.7012  -28.7833   23.3284 O   0  0  0  0  0  0  0  0  0  0  0  0
  -22.4225  -24.4168   25.1658 O   0  0  0  0  0  0  0  0  0  0  0  0
  -32.0567  -14.5422   20.0343 O   0  0  0  0  0  0  0  0  0  0  0  0
  -21.3764   -7.2488   21.7091 O   0  0  0  0  0  0  0  0  0  0  0  0
  -28.3857  -22.5552   22.4590 O   0  0  0  0  0  0  0  0  0  1  0  0
  -16.1292   -7.4669   20.0289 F   0  0  0  0  0  0  0  0  0  0  0  0
  -20.3945   -5.4195   19.8837 F   0  0  0  0  0  0  0  0  0  0  0  0
  1  2  1  0  0  0  0
  1  5  2  0  0  0  0
  2  6  2  0  0  0  0
  3  8  2  0  0  0  0
  3 15  1  0  0  0  0
  4  9  1  0  0  0  0
  4 15  2  0  0  0  0
  5 17  1  0  0  0  0
  6 19  1  0  0  0  0
  7 10  2  0  0  0  0
  7 18  1  0  0  0  0
  8 21  1  0  0  0  0
  9 21  2  0  0  0  0
 10 22  1  0  0  0  0
 11 12  2  0  0  0  0
 11 23  1  0  0  0  0
 12 24  1  0  0  0  0
 13 20  1  0  0  0  0
 13 22  2  0  0  0  0
 14 24  2  0  0  0  0
 14 25  1  0  0  0  0
 15 26  1  0  0  0  0
 16 26  1  0  0  0  0
 16 31  2  0  0  0  0
 16 32  1  0  0  0  0
 17 19  2  0  0  0  0
 17 37  1  0  0  0  0
 18 20  2  0  0  0  0
 18 38  1  0  0  0  0
 19 46  1  0  0  0  0
 20 39  1  0  0  0  0
 21 82  1  0  0  0  0
 22 83  1  0  0  0  0
 23 25  2  0  0  0  0
 23 82  1  0  0  0  0
 24 84  1  0  0  0  0
 25 85  1  0  0  0  0
 26 65  2  0  0  0  0
 27 28  2  0  0  0  0
 27 49  1  0  0  0  0
 27 66  1  0  0  0  0
 28 56  1  0  0  0  0
 28 67  1  0  0  0  0
 29 30  1  0  0  0  0
 29 57  1  0  0  0  0
 29 66  2  0  0  0  0
 30 58  1  0  0  0  0
 30 67  2  0  0  0  0
 31 68  1  0  0  0  0
 31 71  1  0  0  0  0
 32 72  1  0  0  0  0
 32 77  2  0  0  0  0
 33 47  1  0  0  0  0
 33 73  1  0  0  0  0
 33 78  2  0  0  0  0
 34 62  1  0  0  0  0
 34 69  1  0  0  0  0
 34 79  2  0  0  0  0
 35 63  1  0  0  0  0
 35 74  1  0  0  0  0
 35 80  2  0  0  0  0
 36 70  1  0  0  0  0
 36 75  1  0  0  0  0
 36 81  2  0  0  0  0
 37 40  1  0  0  0  0
 38 47  1  0  0  0  0
 39 69  1  0  0  0  0
 40 42  1  0  0  0  0
 41 43  1  0  0  0  0
 41 44  1  0  0  0  0
 42 46  1  0  0  0  0
 43 48  1  0  0  0  0
 44 70  1  0  0  0  0
 45 48  1  0  0  0  0
 45 70  1  0  0  0  0
 46 73  1  0  0  0  0
 47 69  1  0  0  0  0
 48 68  1  0  0  0  0
 50 56  1  0  0  0  0
 51 63  1  0  0  0  0
 52 64  1  0  0  0  0
 53 64  1  0  0  0  0
 54 64  1  0  0  0  0
 55 76  1  0  0  0  0
 57 59  1  0  0  0  0
 58 61  1  0  0  0  0
 59 60  1  0  0  0  0
 60 75  1  0  0  0  0
 61 83  1  0  0  0  0
 62 64  1  0  0  0  0
 62 74  1  0  0  0  0
 63 76  1  0  0  0  0
 65 68  1  0  0  0  0
M  CHG  1  76   1
M  ISO  4  36 100  61 101  75 100  83 101
M  END
> <Batch ID>
0044

> <Smiles>
CCc1nc(C[101CH2:1][101O:1]c2ccc3c(c2)CN(C(=O)C(NC(=O)C(C)NC)C(C)(C)C)C(C(=O)NC2CCCc4ccccc42)C3)c(CCC[100NH:0][100C:0](=O)N2CCCC(n3nc(-c4ccc(Oc5ccc(F)cc5F)cc4)c(C(N)=O)c3N)C2)nc1C

> <Shape>
0.222

> <Color>
0.189

> <Negative vol penalty>
0.000

$$$$

  -OEChem-04052317173D

 84 92  0     1  0  0  0  0  0999 V2000
  -18.4389  -29.8365   23.7360 C   0  0  0  0  0  0  0  0  0  0  0  0
  -19.0463  -28.6754   24.2034 C   0  0  0  0  0  0  0  0  0  0  0  0
  -29.7160  -23.6960   20.9131 C   0  0  0  0  0  0  0  0  0  0  0  0
  -27.5119  -23.4660   19.9508 C   0  0  0  0  0  0  0  0  0  0  0  0
  -17.7954  -29.8359   22.4992 C   0  0  0  0  0  0  0  0  0  0  0  0
  -19.0095  -27.5127   23.4347 C   0  0  0  0  0  0  0  0  0  0  0  0
  -23.3742  -23.2373   23.0147 C   0  0  0  0  0  0  0  0  0  0  0  0
  -29.6846  -25.0668   20.6574 C   0  0  0  0  0  0  0  0  0  0  0  0
  -27.4805  -24.8369   19.6951 C   0  0  0  0  0  0  0  0  0  0  0  0
  -23.5367  -21.9988   23.6341 C   0  0  0  0  0  0  0  0  0  0  0  0
  -26.9143  -27.6804   21.4312 C   0  0  0  0  0  0  0  0  0  0  0  0
  -25.7455  -28.3712   21.7509 C   0  0  0  0  0  0  0  0  0  0  0  0
  -22.5474  -20.9175   21.7180 C   0  0  0  0  0  0  0  0  0  0  0  0
  -25.4990  -29.0245   19.4380 C   0  0  0  0  0  0  0  0  0  0  0  0
  -22.2727  -15.3964   23.1208 C   0  0  0  0  0  0  0  0  0  0  0  0
  -28.6296  -22.8955   20.5597 C   0  0  0  0  0  0  0  0  0  0  0  0
  -28.2219  -20.8209   21.9871 C   0  0  0  0  0  0  0  0  0  0  0  0
  -17.7590  -28.6751   21.7105 C   0  0  0  0  0  0  0  0  0  0  0  0
  -22.7860  -23.3263   21.7448 C   0  0  0  0  0  0  0  0  0  0  0  0
  -18.3637  -27.4961   22.1867 C   0  0  0  0  0  0  0  0  0  0  0  0
  -22.3808  -22.1581   21.0837 C   0  0  0  0  0  0  0  0  0  0  0  0
  -23.3726  -15.4274   22.2880 C   0  0  0  0  0  0  0  0  0  0  0  0
  -28.5669  -25.6373   20.0484 C   0  0  0  0  0  0  0  0  0  0  0  0
  -23.1207  -20.8390   22.9870 C   0  0  0  0  0  0  0  0  0  0  0  0
  -27.3756  -27.6618   20.1149 C   0  0  0  0  0  0  0  0  0  0  0  0
  -25.0378  -29.0432   20.7543 C   0  0  0  0  0  0  0  0  0  0  0  0
  -26.6679  -28.3338   19.1184 C   0  0  0  0  0  0  0  0  0  0  0  0
  -28.6617  -21.4793   20.8230 C   0  0  0  0  0  0  0  0  0  0  0  0
  -23.2593  -14.6979   21.1221 C   0  0  0  0  0  0  0  0  0  0  0  0
  -28.4664  -19.4916   21.7428 C   0  0  0  0  0  0  0  0  0  0  0  0
  -21.1566  -14.0385   21.6795 C   0  0  0  0  0  0  0  0  0  0  0  0
  -27.6441  -21.3625   23.1823 C   0  0  0  0  0  0  0  0  0  0  0  0
  -20.1722  -24.7059   20.5751 C   0  0  0  0  0  0  0  0  0  0  0  0
  -21.3969  -23.7248   17.7362 C   0  0  0  0  0  0  0  0  0  0  0  0
  -23.4225  -21.5578   16.0485 C   0  0  0  0  0  0  0  0  0  0  0  0
  -28.3176  -15.0580   18.3565 C   0  0  0  0  0  0  0  0  0  0  0  0
  -17.0107  -28.7100   20.4016 C   0  0  0  0  0  0  0  0  0  0  0  0
  -22.6421  -24.6673   21.0790 C   0  0  0  0  0  0  0  0  0  0  0  0
  -21.7622  -22.1977   19.7110 C   0  0  0  0  0  0  0  0  0  0  0  0
  -17.3401  -27.5383   19.4802 C   0  0  0  0  0  0  0  0  0  0  0  0
  -31.1044  -17.2531   18.0527 C   0  0  0  0  0  0  0  0  0  0  0  0
  -17.3135  -26.2252   20.2560 C   0  0  0  0  0  0  0  0  0  0  0  0
  -30.6785  -18.4956   18.8368 C   0  0  0  0  0  0  0  0  0  0  0  0
  -29.9277  -16.6233   17.3106 C   0  0  0  0  0  0  0  0  0  0  0  0
  -28.3305  -17.5599   18.9370 C   0  0  0  0  0  0  0  0  0  0  0  0
  -18.3665  -26.2216   21.3708 C   0  0  1  0  0  0  0  0  0  0  0  0
  -21.5612  -24.6871   20.0026 C   0  0  1  0  0  0  0  0  0  0  0  0
  -29.4719  -18.1979   19.7472 C   0  0  2  0  0  0  0  0  0  0  0  0
  -19.9256  -13.2676   21.3410 C   0  0  0  0  0  0  0  0  0  0  0  0
  -24.1900  -20.9781   13.7308 C   0  0  0  0  0  0  0  0  0  0  0  0
  -18.7162  -22.3742   17.1889 C   0  0  0  0  0  0  0  0  0  0  0  0
  -19.8297  -21.0560   15.3748 C   0  0  0  0  0  0  0  0  0  0  0  0
  -19.7172  -23.5431   15.2175 C   0  0  0  0  0  0  0  0  0  0  0  0
  -26.2477  -22.1351   16.7146 C   0  0  0  0  0  0  0  0  0  0  0  0
  -24.6058  -16.2148   22.6523 C   0  0  0  0  0  0  0  0  0  0  0  0
  -24.3871  -14.6582   20.1443 C   0  0  0  0  0  0  0  0  0  0  0  0
  -24.3140  -17.4678   23.4808 C   0  0  0  0  0  0  0  0  0  0  0  0
  -25.5252  -13.6917   20.5245 C   0  0  0  0  0  0  0  0  0  0  0  0
  -26.6534  -13.6137   19.4981 C   0  0  0  0  0  0  0  0  0  0  0  0
  -23.4734  -18.5002   22.7386 C   0  0  0  0  0  0  0  0  0  1  0  0
  -21.2793  -22.4767   16.8952 C   0  0  1  0  0  0  0  0  0  0  0  0
  -24.4800  -21.7889   14.9843 C   0  0  2  0  0  0  0  0  0  0  0  0
  -19.8954  -22.3616   16.1958 C   0  0  0  0  0  0  0  0  0  0  0  0
  -21.1440  -14.7098   22.8468 N   0  0  0  0  0  0  0  0  0  0  0  0
  -29.1487  -20.6376   19.9074 N   0  0  0  0  0  0  0  0  0  0  0  0
  -22.1620  -13.9891   20.7849 N   0  0  0  0  0  0  0  0  0  0  0  0
  -29.0165  -19.4367   20.4960 N   0  0  0  0  0  0  0  0  0  0  0  0
  -21.6371  -23.5332   19.1042 N   0  0  0  0  0  0  0  0  0  0  0  0
  -28.8177  -16.3646   18.2308 N   0  0  0  0  0  0  0  0  0  0  0  0
  -28.2623  -18.3760   22.4750 N   0  0  0  0  0  0  0  0  0  0  0  0
  -27.4629  -22.7497   23.2676 N   0  0  0  0  0  0  0  0  0  0  0  0
  -19.6826  -25.9743   20.8220 N   0  0  0  0  0  0  0  0  0  0  0  0
  -22.4131  -22.4945   15.9773 N   0  0  0  0  0  0  0  0  0  0  0  0
  -27.2695  -14.8989   19.2548 N   0  0  0  0  0  0  0  0  0  0  0  0
  -25.8240  -21.3983   15.4962 N   0  3  0  0  0  0  0  0  0  0  0  0
  -27.3138  -20.6394   24.1526 O   0  0  0  0  0  0  0  0  0  0  0  0
  -19.5873  -23.6481   20.7766 O   0  0  0  0  0  0  0  0  0  0  0  0
  -21.2871  -24.8293   17.1979 O   0  0  0  0  0  0  0  0  0  0  0  0
  -23.4836  -20.6363   16.8594 O   0  0  0  0  0  0  0  0  0  0  0  0
  -28.7751  -14.1030   17.7197 O   0  0  0  0  0  0  0  0  0  0  0  0
  -28.5358  -26.9750   19.7990 O   0  0  0  0  0  0  0  0  0  0  0  0
  -23.2776  -19.6289   23.5895 O   0  0  0  0  0  0  0  0  0  1  0  0
  -23.9145  -29.7052   21.0612 F   0  0  0  0  0  0  0  0  0  0  0  0
  -27.1055  -28.3185   17.8518 F   0  0  0  0  0  0  0  0  0  0  0  0
  1  2  1  0  0  0  0
  1  5  2  0  0  0  0
  2  6  2  0  0  0  0
  3  8  2  0  0  0  0
  3 16  1  0  0  0  0
  4  9  1  0  0  0  0
  4 16  2  0  0  0  0
  5 18  1  0  0  0  0
  6 20  1  0  0  0  0
  7 10  2  0  0  0  0
  7 19  1  0  0  0  0
  8 23  1  0  0  0  0
  9 23  2  0  0  0  0
 10 24  1  0  0  0  0
 11 12  2  0  0  0  0
 11 25  1  0  0  0  0
 12 26  1  0  0  0  0
 13 21  1  0  0  0  0
 13 24  2  0  0  0  0
 14 26  2  0  0  0  0
 14 27  1  0  0  0  0
 15 22  1  0  0  0  0
 15 64  2  0  0  0  0
 16 28  1  0  0  0  0
 17 28  1  0  0  0  0
 17 30  2  0  0  0  0
 17 32  1  0  0  0  0
 18 20  2  0  0  0  0
 18 37  1  0  0  0  0
 19 21  2  0  0  0  0
 19 38  1  0  0  0  0
 20 46  1  0  0  0  0
 21 39  1  0  0  0  0
 22 29  2  0  0  0  0
 22 55  1  0  0  0  0
 23 81  1  0  0  0  0
 24 82  1  0  0  0  0
 25 27  2  0  0  0  0
 25 81  1  0  0  0  0
 26 83  1  0  0  0  0
 27 84  1  0  0  0  0
 28 65  2  0  0  0  0
 29 56  1  0  0  0  0
 29 66  1  0  0  0  0
 30 67  1  0  0  0  0
 30 70  1  0  0  0  0
 31 49  1  0  0  0  0
 31 64  1  0  0  0  0
 31 66  2  0  0  0  0
 32 71  1  0  0  0  0
 32 76  2  0  0  0  0
 33 47  1  0  0  0  0
 33 72  1  0  0  0  0
 33 77  2  0  0  0  0
 34 61  1  0  0  0  0
 34 68  1  0  0  0  0
 34 78  2  0  0  0  0
 35 62  1  0  0  0  0
 35 73  1  0  0  0  0
 35 79  2  0  0  0  0
 36 69  1  0  0  0  0
 36 74  1  0  0  0  0
 36 80  2  0  0  0  0
 37 40  1  0  0  0  0
 38 47  1  0  0  0  0
 39 68  1  0  0  0  0
 40 42  1  0  0  0  0
 41 43  1  0  0  0  0
 41 44  1  0  0  0  0
 42 46  1  0  0  0  0
 43 48  1  0  0  0  0
 44 69  1  0  0  0  0
 45 48  1  0  0  0  0
 45 69  1  0  0  0  0
 46 72  1  0  0  0  0
 47 68  1  0  0  0  0
 48 67  1  0  0  0  0
 50 62  1  0  0  0  0
 51 63  1  0  0  0  0
 52 63  1  0  0  0  0
 53 63  1  0  0  0  0
 54 75  1  0  0  0  0
 55 57  1  0  0  0  0
 56 58  1  0  0  0  0
 57 60  1  0  0  0  0
 58 59  1  0  0  0  0
 59 74  1  0  0  0  0
 60 82  1  0  0  0  0
 61 63  1  0  0  0  0
 61 73  1  0  0  0  0
 62 75  1  0  0  0  0
 65 67  1  0  0  0  0
M  CHG  1  75   1
M  ISO  4  36 100  60 101  74 100  82 101
M  END
> <Batch ID>
0044

> <Smiles>
CNC(C)C(=O)NC(C(=O)N1Cc2cc([101O:1][101CH2:1]CCc3cnc(C)nc3CCC[100NH:0][100C:0](=O)N3CCCC(n4nc(-c5ccc(Oc6ccc(F)cc6F)cc5)c(C(N)=O)c4N)C3)ccc2CC1C(=O)NC1CCCc2ccccc21)C(C)(C)C

> <Shape>
0.183

> <Color>
0.073

> <Negative vol penalty>
0.000

$$$$

  -OEChem-04052317173D

 84 92  0     1  0  0  0  0  0999 V2000
  -28.2018  -34.6710   25.3917 C   0  0  0  0  0  0  0  0  0  0  0  0
  -28.3973  -33.4253   24.8040 C   0  0  0  0  0  0  0  0  0  0  0  0
  -25.1657  -13.5315   21.3723 C   0  0  0  0  0  0  0  0  0  0  0  0
  -26.3680  -12.4906   19.5535 C   0  0  0  0  0  0  0  0  0  0  0  0
  -26.9422  -35.0227   25.8749 C   0  0  0  0  0  0  0  0  0  0  0  0
  -27.3333  -32.5300   24.7000 C   0  0  0  0  0  0  0  0  0  0  0  0
  -27.0741  -30.3414   20.1407 C   0  0  0  0  0  0  0  0  0  0  0  0
  -24.4872  -12.3359   21.6080 C   0  0  0  0  0  0  0  0  0  0  0  0
  -25.6894  -11.2949   19.7893 C   0  0  0  0  0  0  0  0  0  0  0  0
  -27.9654  -29.3009   19.8823 C   0  0  0  0  0  0  0  0  0  0  0  0
  -25.1084   -9.3750   23.1181 C   0  0  0  0  0  0  0  0  0  0  0  0
  -24.9875   -8.9482   24.4405 C   0  0  0  0  0  0  0  0  0  0  0  0
  -26.2201  -27.7000   20.3408 C   0  0  0  0  0  0  0  0  0  0  0  0
  -22.5806   -9.0264   24.2456 C   0  0  0  0  0  0  0  0  0  0  0  0
  -26.1062  -13.6089   20.3450 C   0  0  0  0  0  0  0  0  0  0  0  0
  -28.0265  -15.2563   20.6704 C   0  0  0  0  0  0  0  0  0  0  0  0
  -25.8599  -34.1350   25.7682 C   0  0  0  0  0  0  0  0  0  0  0  0
  -25.7498  -30.0684   20.5123 C   0  0  0  0  0  0  0  0  0  0  0  0
  -26.0582  -32.8696   25.1835 C   0  0  0  0  0  0  0  0  0  0  0  0
  -25.3133  -28.7389   20.6008 C   0  0  0  0  0  0  0  0  0  0  0  0
  -24.7490  -11.2176   20.8166 C   0  0  0  0  0  0  0  0  0  0  0  0
  -27.5392  -27.9799   19.9851 C   0  0  0  0  0  0  0  0  0  0  0  0
  -23.9655   -9.6277   22.3594 C   0  0  0  0  0  0  0  0  0  0  0  0
  -23.7236   -8.7738   25.0042 C   0  0  0  0  0  0  0  0  0  0  0  0
  -22.7016   -9.4533   22.9232 C   0  0  0  0  0  0  0  0  0  0  0  0
  -26.8070  -14.8439   20.1006 C   0  0  0  0  0  0  0  0  0  0  0  0
  -31.2496  -24.2741   19.3166 C   0  0  0  0  0  0  0  0  0  0  0  0
  -28.7518  -23.3316   19.3225 C   0  0  0  0  0  0  0  0  0  0  0  0
  -30.9910  -22.9442   19.0675 C   0  0  0  0  0  0  0  0  0  0  0  0
  -29.0102  -24.6614   19.5724 C   0  0  0  0  0  0  0  0  0  0  0  0
  -28.2629  -16.4917   20.1185 C   0  0  0  0  0  0  0  0  0  0  0  0
  -28.8702  -14.5830   21.6140 C   0  0  0  0  0  0  0  0  0  0  0  0
  -23.9747  -30.6563   23.0827 C   0  0  0  0  0  0  0  0  0  0  0  0
  -21.6047  -29.4119   21.2505 C   0  0  0  0  0  0  0  0  0  0  0  0
  -20.7124  -27.4050   18.6385 C   0  0  0  0  0  0  0  0  0  0  0  0
  -28.3820  -19.9098   15.7086 C   0  0  0  0  0  0  0  0  0  0  0  0
  -24.5280  -34.5412   26.3476 C   0  0  0  0  0  0  0  0  0  0  0  0
  -24.7935  -31.2023   20.7617 C   0  0  0  0  0  0  0  0  0  0  0  0
  -23.8964  -28.3928   20.9764 C   0  0  0  0  0  0  0  0  0  0  0  0
  -23.3644  -33.6812   25.8611 C   0  0  0  0  0  0  0  0  0  0  0  0
  -25.2621  -19.5004   17.3745 C   0  0  0  0  0  0  0  0  0  0  0  0
  -23.7269  -32.2014   25.9347 C   0  0  0  0  0  0  0  0  0  0  0  0
  -25.4847  -18.2833   18.2740 C   0  0  0  0  0  0  0  0  0  0  0  0
  -25.9902  -19.3566   16.0399 C   0  0  0  0  0  0  0  0  0  0  0  0
  -27.6536  -17.8434   17.0487 C   0  0  0  0  0  0  0  0  0  0  0  0
  -24.9230  -31.8808   25.0301 C   0  0  1  0  0  0  0  0  0  0  0  0
  -23.6070  -30.8026   21.6332 C   0  0  1  0  0  0  0  0  0  0  0  0
  -26.9845  -17.9669   18.4283 C   0  0  2  0  0  0  0  0  0  0  0  0
  -32.6406  -24.8093   19.3148 C   0  0  0  0  0  0  0  0  0  0  0  0
  -27.3608  -22.7962   19.3240 C   0  0  0  0  0  0  0  0  0  0  0  0
  -18.6987  -26.5559   17.4050 C   0  0  0  0  0  0  0  0  0  0  0  0
  -21.0204  -27.4802   23.5390 C   0  0  0  0  0  0  0  0  0  0  0  0
  -19.7008  -26.0855   21.9323 C   0  0  0  0  0  0  0  0  0  0  0  0
  -18.9893  -28.4248   22.4268 C   0  0  0  0  0  0  0  0  0  0  0  0
  -21.5998  -28.6442   16.1016 C   0  0  0  0  0  0  0  0  0  0  0  0
  -32.0906  -21.9784   18.7848 C   0  0  0  0  0  0  0  0  0  0  0  0
  -27.9033  -25.6332   19.8583 C   0  0  0  0  0  0  0  0  0  1  0  0
  -31.6546  -20.8659   17.8180 C   0  0  0  0  0  0  0  0  0  0  0  0
  -31.2394  -21.4287   16.4554 C   0  0  0  0  0  0  0  0  0  0  0  0
  -30.8152  -20.3394   15.4757 C   0  0  0  0  0  0  0  0  0  0  0  0
  -21.0495  -28.0278   21.0161 C   0  0  1  0  0  0  0  0  0  0  0  0
  -19.7712  -27.6322   17.4694 C   0  0  2  0  0  0  0  0  0  0  0  0
  -20.2173  -27.5107   22.2233 C   0  0  0  0  0  0  0  0  0  0  0  0
  -26.3037  -15.7442   19.2520 N   0  0  0  0  0  0  0  0  0  0  0  0
  -29.7375  -22.4492   19.0656 N   0  0  0  0  0  0  0  0  0  0  0  0
  -30.2638  -25.1565   19.5739 N   0  0  0  0  0  0  0  0  0  0  0  0
  -27.2114  -16.7347   19.2845 N   0  0  0  0  0  0  0  0  0  0  0  0
  -23.0008  -29.5364   21.2166 N   0  0  0  0  0  0  0  0  0  0  0  0
  -27.4081  -19.0587   16.2565 N   0  0  0  0  0  0  0  0  0  0  0  0
  -29.2654  -17.3829   20.2702 N   0  0  0  0  0  0  0  0  0  0  0  0
  -28.4781  -13.3202   22.0786 N   0  0  0  0  0  0  0  0  0  0  0  0
  -24.5038  -31.8013   23.6472 N   0  0  0  0  0  0  0  0  0  0  0  0
  -20.3064  -28.0931   19.7623 N   0  0  0  0  0  0  0  0  0  0  0  0
  -29.7015  -19.5588   15.9666 N   0  0  0  0  0  0  0  0  0  0  0  0
  -20.5275  -27.6194   16.1853 N   0  3  0  0  0  0  0  0  0  0  0  0
  -29.9318  -15.0934   22.0453 O   0  0  0  0  0  0  0  0  0  0  0  0
  -23.7906  -29.5846   23.6476 O   0  0  0  0  0  0  0  0  0  0  0  0
  -20.8280  -30.3494   21.4491 O   0  0  0  0  0  0  0  0  0  0  0  0
  -21.7062  -26.6858   18.5635 O   0  0  0  0  0  0  0  0  0  0  0  0
  -28.0967  -20.9114   15.0435 O   0  0  0  0  0  0  0  0  0  0  0  0
  -24.0872  -10.0507   21.0465 O   0  0  0  0  0  0  0  0  0  0  0  0
  -28.4073  -26.9625   19.7341 O   0  0  0  0  0  0  0  0  0  1  0  0
  -23.6075   -8.3624   26.2737 F   0  0  0  0  0  0  0  0  0  0  0  0
  -21.5999   -9.6933   22.1989 F   0  0  0  0  0  0  0  0  0  0  0  0
  1  2  1  0  0  0  0
  1  5  2  0  0  0  0
  2  6  2  0  0  0  0
  3  8  2  0  0  0  0
  3 15  1  0  0  0  0
  4  9  1  0  0  0  0
  4 15  2  0  0  0  0
  5 17  1  0  0  0  0
  6 19  1  0  0  0  0
  7 10  2  0  0  0  0
  7 18  1  0  0  0  0
  8 21  1  0  0  0  0
  9 21  2  0  0  0  0
 10 22  1  0  0  0  0
 11 12  2  0  0  0  0
 11 23  1  0  0  0  0
 12 24  1  0  0  0  0
 13 20  1  0  0  0  0
 13 22  2  0  0  0  0
 14 24  2  0  0  0  0
 14 25  1  0  0  0  0
 15 26  1  0  0  0  0
 16 26  1  0  0  0  0
 16 31  2  0  0  0  0
 16 32  1  0  0  0  0
 17 19  2  0  0  0  0
 17 37  1  0  0  0  0
 18 20  2  0  0  0  0
 18 38  1  0  0  0  0
 19 46  1  0  0  0  0
 20 39  1  0  0  0  0
 21 81  1  0  0  0  0
 22 82  1  0  0  0  0
 23 25  2  0  0  0  0
 23 81  1  0  0  0  0
 24 83  1  0  0  0  0
 25 84  1  0  0  0  0
 26 64  2  0  0  0  0
 27 29  1  0  0  0  0
 27 49  1  0  0  0  0
 27 66  2  0  0  0  0
 28 30  2  0  0  0  0
 28 50  1  0  0  0  0
 28 65  1  0  0  0  0
 29 56  1  0  0  0  0
 29 65  2  0  0  0  0
 30 57  1  0  0  0  0
 30 66  1  0  0  0  0
 31 67  1  0  0  0  0
 31 70  1  0  0  0  0
 32 71  1  0  0  0  0
 32 76  2  0  0  0  0
 33 47  1  0  0  0  0
 33 72  1  0  0  0  0
 33 77  2  0  0  0  0
 34 61  1  0  0  0  0
 34 68  1  0  0  0  0
 34 78  2  0  0  0  0
 35 62  1  0  0  0  0
 35 73  1  0  0  0  0
 35 79  2  0  0  0  0
 36 69  1  0  0  0  0
 36 74  1  0  0  0  0
 36 80  2  0  0  0  0
 37 40  1  0  0  0  0
 38 47  1  0  0  0  0
 39 68  1  0  0  0  0
 40 42  1  0  0  0  0
 41 43  1  0  0  0  0
 41 44  1  0  0  0  0
 42 46  1  0  0  0  0
 43 48  1  0  0  0  0
 44 69  1  0  0  0  0
 45 48  1  0  0  0  0
 45 69  1  0  0  0  0
 46 72  1  0  0  0  0
 47 68  1  0  0  0  0
 48 67  1  0  0  0  0
 51 62  1  0  0  0  0
 52 63  1  0  0  0  0
 53 63  1  0  0  0  0
 54 63  1  0  0  0  0
 55 75  1  0  0  0  0
 56 58  1  0  0  0  0
 57 82  1  0  0  0  0
 58 59  1  0  0  0  0
 59 60  1  0  0  0  0
 60 74  1  0  0  0  0
 61 63  1  0  0  0  0
 61 73  1  0  0  0  0
 62 75  1  0  0  0  0
 64 67  1  0  0  0  0
M  CHG  1  75   1
M  ISO  4  36 100  57 101  74 100  82 101
M  END
> <Batch ID>
0044

> <Smiles>
CNC(C)C(=O)NC(C(=O)N1Cc2cc([101O:1][101CH2:1]c3nc(C)c(CCCC[100NH:0][100C:0](=O)N4CCCC(n5nc(-c6ccc(Oc7ccc(F)cc7F)cc6)c(C(N)=O)c5N)C4)nc3C)ccc2CC1C(=O)NC1CCCc2ccccc21)C(C)(C)C

> <Shape>
0.276

> <Color>
0.096

> <Negative vol penalty>
0.000

$$$$

  -OEChem-04052317173D

 80 88  0     1  0  0  0  0  0999 V2000
  -27.2633  -10.5373   16.8707 C   0  0  0  0  0  0  0  0  0  0  0  0
  -26.2325  -11.3386   17.3513 C   0  0  0  0  0  0  0  0  0  0  0  0
  -25.9944  -30.1050   23.1755 C   0  0  0  0  0  0  0  0  0  0  0  0
  -25.6726  -28.8638   25.2232 C   0  0  0  0  0  0  0  0  0  0  0  0
  -28.5365  -10.6308   17.4310 C   0  0  0  0  0  0  0  0  0  0  0  0
  -26.4743  -12.2331   18.3933 C   0  0  0  0  0  0  0  0  0  0  0  0
  -23.9290  -17.7482   19.1756 C   0  0  0  0  0  0  0  0  0  0  0  0
  -26.9099  -30.9350   23.8225 C   0  0  0  0  0  0  0  0  0  0  0  0
  -26.5882  -29.6938   25.8701 C   0  0  0  0  0  0  0  0  0  0  0  0
  -22.8666  -18.1876   19.9642 C   0  0  0  0  0  0  0  0  0  0  0  0
  -26.8207  -33.5726   25.9342 C   0  0  0  0  0  0  0  0  0  0  0  0
  -26.7126  -34.9467   25.7201 C   0  0  0  0  0  0  0  0  0  0  0  0
  -24.4254  -18.8653   21.6760 C   0  0  0  0  0  0  0  0  0  0  0  0
  -28.9525  -34.9820   24.8153 C   0  0  0  0  0  0  0  0  0  0  0  0
  -20.6267  -21.3979   24.0779 C   0  0  0  0  0  0  0  0  0  0  0  0
  -20.2101  -19.2788   24.5166 C   0  0  0  0  0  0  0  0  0  0  0  0
  -25.3757  -29.0694   23.8759 C   0  0  0  0  0  0  0  0  0  0  0  0
  -24.7042  -27.0125   22.5246 C   0  0  0  0  0  0  0  0  0  0  0  0
  -28.7964  -11.5339   18.4739 C   0  0  0  0  0  0  0  0  0  0  0  0
  -25.2491  -17.8542   19.6366 C   0  0  0  0  0  0  0  0  0  0  0  0
  -27.7519  -12.3379   18.9689 C   0  0  0  0  0  0  0  0  0  0  0  0
  -25.5030  -18.4288   20.8902 C   0  0  0  0  0  0  0  0  0  0  0  0
  -27.2068  -30.7294   25.1698 C   0  0  0  0  0  0  0  0  0  0  0  0
  -23.1145  -18.7436   21.2158 C   0  0  0  0  0  0  0  0  0  0  0  0
  -27.9948  -32.9032   25.5889 C   0  0  0  0  0  0  0  0  0  0  0  0
  -27.7784  -35.6514   25.1606 C   0  0  0  0  0  0  0  0  0  0  0  0
  -29.0606  -33.6079   25.0294 C   0  0  0  0  0  0  0  0  0  0  0  0
  -24.4294  -28.2121   23.2083 C   0  0  0  0  0  0  0  0  0  0  0  0
  -19.4349  -21.2477   24.7469 C   0  0  0  0  0  0  0  0  0  0  0  0
  -23.4788  -26.5856   22.0743 C   0  0  0  0  0  0  0  0  0  0  0  0
  -25.9551  -26.3439   22.3154 C   0  0  0  0  0  0  0  0  0  0  0  0
  -27.5693  -15.7829   20.2924 C   0  0  0  0  0  0  0  0  0  0  0  0
  -29.3234  -18.4782   20.7176 C   0  0  0  0  0  0  0  0  0  0  0  0
  -29.3810  -21.8150   21.4313 C   0  0  0  0  0  0  0  0  0  0  0  0
  -18.0386  -25.6620   22.9089 C   0  0  0  0  0  0  0  0  0  0  0  0
  -30.1772  -11.5656   19.0795 C   0  0  0  0  0  0  0  0  0  0  0  0
  -26.3859  -17.4001   18.7626 C   0  0  0  0  0  0  0  0  0  0  0  0
  -26.9033  -18.5838   21.4227 C   0  0  0  0  0  0  0  0  0  0  0  0
  -30.4416  -12.8064   19.9286 C   0  0  0  0  0  0  0  0  0  0  0  0
  -19.0094  -28.9511   21.9517 C   0  0  0  0  0  0  0  0  0  0  0  0
  -29.2692  -13.0698   20.8683 C   0  0  0  0  0  0  0  0  0  0  0  0
  -20.5271  -28.9548   22.1429 C   0  0  0  0  0  0  0  0  0  0  0  0
  -18.3074  -28.1218   23.0248 C   0  0  0  0  0  0  0  0  0  0  0  0
  -20.3241  -26.7448   23.3568 C   0  0  0  0  0  0  0  0  0  0  0  0
  -27.9808  -13.3381   20.0813 C   0  0  1  0  0  0  0  0  0  0  0  0
  -27.6551  -17.0856   19.5485 C   0  0  1  0  0  0  0  0  0  0  0  0
  -21.0802  -27.5222   22.2658 C   0  0  2  0  0  0  0  0  0  0  0  0
  -30.9658  -23.7353   21.7448 C   0  0  0  0  0  0  0  0  0  0  0  0
  -30.0778  -17.4028   23.4716 C   0  0  0  0  0  0  0  0  0  0  0  0
  -30.8379  -19.7076   24.0865 C   0  0  0  0  0  0  0  0  0  0  0  0
  -31.9563  -18.4830   22.2230 C   0  0  0  0  0  0  0  0  0  0  0  0
  -28.1854  -23.3201   19.1810 C   0  0  0  0  0  0  0  0  0  0  0  0
  -18.4877  -22.2924   25.1646 C   0  0  0  0  0  0  0  0  0  0  0  0
  -17.3895  -22.6389   24.1269 C   0  0  0  0  0  0  0  0  0  0  0  0
  -17.9316  -23.1846   22.8075 C   0  0  0  0  0  0  0  0  0  0  0  0
  -22.3992  -19.7346   23.2638 C   0  0  0  0  0  0  0  0  0  1  0  0
  -29.6197  -19.3878   21.8854 C   0  0  1  0  0  0  0  0  0  0  0  0
  -30.0905  -22.9767   20.7593 C   0  0  2  0  0  0  0  0  0  0  0  0
  -30.5963  -18.7407   22.9077 C   0  0  0  0  0  0  0  0  0  0  0  0
  -19.1815  -19.9263   25.0174 N   0  0  0  0  0  0  0  0  0  0  0  0
  -23.1315  -28.5271   23.1958 N   0  0  0  0  0  0  0  0  0  0  0  0
  -21.1118  -20.1281   23.9380 N   0  0  0  0  0  0  0  0  0  0  0  0
  -22.5797  -27.5192   22.4988 N   0  0  0  0  0  0  0  0  0  0  0  0
  -27.9807  -18.1190   20.5335 N   0  0  0  0  0  0  0  0  0  0  0  0
  -18.8777  -26.7740   23.0889 N   0  0  0  0  0  0  0  0  0  0  0  0
  -23.0936  -25.5065   21.3605 N   0  0  0  0  0  0  0  0  0  0  0  0
  -27.1174  -26.9197   22.8462 N   0  0  0  0  0  0  0  0  0  0  0  0
  -27.9802  -14.6872   19.5575 N   0  0  0  0  0  0  0  0  0  0  0  0
  -30.0973  -20.6426   21.3146 N   0  0  0  0  0  0  0  0  0  0  0  0
  -18.6608  -24.4215   22.9787 N   0  0  0  0  0  0  0  0  0  0  0  0
  -29.0974  -23.9274   20.1842 N   0  3  0  0  0  0  0  0  0  0  0  0
  -26.0419  -25.2763   21.6626 O   0  0  0  0  0  0  0  0  0  0  0  0
  -27.1620  -15.7728   21.4481 O   0  0  0  0  0  0  0  0  0  0  0  0
  -30.2483  -18.1059   19.9911 O   0  0  0  0  0  0  0  0  0  0  0  0
  -28.3013  -21.9362   22.0057 O   0  0  0  0  0  0  0  0  0  0  0  0
  -16.8260  -25.7671   22.6961 O   0  0  0  0  0  0  0  0  0  0  0  0
  -28.1003  -31.5389   25.8013 O   0  0  0  0  0  0  0  0  0  0  0  0
  -22.0792  -19.1726   21.9879 O   0  0  0  0  0  0  0  0  0  1  0  0
  -27.6738  -36.9706   24.9537 F   0  0  0  0  0  0  0  0  0  0  0  0
  -30.1906  -32.9701   24.6946 F   0  0  0  0  0  0  0  0  0  0  0  0
  1  2  1  0  0  0  0
  1  5  2  0  0  0  0
  2  6  2  0  0  0  0
  3  8  2  0  0  0  0
  3 17  1  0  0  0  0
  4  9  1  0  0  0  0
  4 17  2  0  0  0  0
  5 19  1  0  0  0  0
  6 21  1  0  0  0  0
  7 10  2  0  0  0  0
  7 20  1  0  0  0  0
  8 23  1  0  0  0  0
  9 23  2  0  0  0  0
 10 24  1  0  0  0  0
 11 12  2  0  0  0  0
 11 25  1  0  0  0  0
 12 26  1  0  0  0  0
 13 22  1  0  0  0  0
 13 24  2  0  0  0  0
 14 26  2  0  0  0  0
 14 27  1  0  0  0  0
 15 29  2  0  0  0  0
 15 62  1  0  0  0  0
 16 60  2  0  0  0  0
 16 62  1  0  0  0  0
 17 28  1  0  0  0  0
 18 28  1  0  0  0  0
 18 30  2  0  0  0  0
 18 31  1  0  0  0  0
 19 21  2  0  0  0  0
 19 36  1  0  0  0  0
 20 22  2  0  0  0  0
 20 37  1  0  0  0  0
 21 45  1  0  0  0  0
 22 38  1  0  0  0  0
 23 77  1  0  0  0  0
 24 78  1  0  0  0  0
 25 27  2  0  0  0  0
 25 77  1  0  0  0  0
 26 79  1  0  0  0  0
 27 80  1  0  0  0  0
 28 61  2  0  0  0  0
 29 53  1  0  0  0  0
 29 60  1  0  0  0  0
 30 63  1  0  0  0  0
 30 66  1  0  0  0  0
 31 67  1  0  0  0  0
 31 72  2  0  0  0  0
 32 46  1  0  0  0  0
 32 68  1  0  0  0  0
 32 73  2  0  0  0  0
 33 57  1  0  0  0  0
 33 64  1  0  0  0  0
 33 74  2  0  0  0  0
 34 58  1  0  0  0  0
 34 69  1  0  0  0  0
 34 75  2  0  0  0  0
 35 65  1  0  0  0  0
 35 70  1  0  0  0  0
 35 76  2  0  0  0  0
 36 39  1  0  0  0  0
 37 46  1  0  0  0  0
 38 64  1  0  0  0  0
 39 41  1  0  0  0  0
 40 42  1  0  0  0  0
 40 43  1  0  0  0  0
 41 45  1  0  0  0  0
 42 47  1  0  0  0  0
 43 65  1  0  0  0  0
 44 47  1  0  0  0  0
 44 65  1  0  0  0  0
 45 68  1  0  0  0  0
 46 64  1  0  0  0  0
 47 63  1  0  0  0  0
 48 58  1  0  0  0  0
 49 59  1  0  0  0  0
 50 59  1  0  0  0  0
 51 59  1  0  0  0  0
 52 71  1  0  0  0  0
 53 54  1  0  0  0  0
 54 55  1  0  0  0  0
 55 70  1  0  0  0  0
 56 62  1  0  0  0  0
 56 78  1  0  0  0  0
 57 59  1  0  0  0  0
 57 69  1  0  0  0  0
 58 71  1  0  0  0  0
 61 63  1  0  0  0  0
M  CHG  1  71   1
M  ISO  4  35 100  56 101  70 100  78 101
M  END
> <Batch ID>
0044

> <Smiles>
CNC(C)C(=O)NC(C(=O)N1Cc2cc([101O:1][101CH2:1]n3cnc(CCC[100NH:0][100C:0](=O)N4CCCC(n5nc(-c6ccc(Oc7ccc(F)cc7F)cc6)c(C(N)=O)c5N)C4)c3)ccc2CC1C(=O)NC1CCCc2ccccc21)C(C)(C)C

> <Shape>
0.225

> <Color>
0.065

> <Negative vol penalty>
0.000

$$$$

  -OEChem-04052317173D

 81 89  0     1  0  0  0  0  0999 V2000
  -18.2221  -31.3825   22.4288 C   0  0  0  0  0  0  0  0  0  0  0  0
  -19.6095  -31.4097   22.3304 C   0  0  0  0  0  0  0  0  0  0  0  0
  -27.4046  -17.5596   19.8430 C   0  0  0  0  0  0  0  0  0  0  0  0
  -29.1518  -17.3463   21.4979 C   0  0  0  0  0  0  0  0  0  0  0  0
  -17.5611  -30.1688   22.6127 C   0  0  0  0  0  0  0  0  0  0  0  0
  -20.3369  -30.2232   22.4169 C   0  0  0  0  0  0  0  0  0  0  0  0
  -25.4985  -28.8427   19.4240 C   0  0  0  0  0  0  0  0  0  0  0  0
  -27.2713  -16.1717   19.8048 C   0  0  0  0  0  0  0  0  0  0  0  0
  -29.0185  -15.9584   21.4598 C   0  0  0  0  0  0  0  0  0  0  0  0
  -26.8406  -28.8854   19.7994 C   0  0  0  0  0  0  0  0  0  0  0  0
  -25.8236  -13.7559   21.6759 C   0  0  0  0  0  0  0  0  0  0  0  0
  -24.5328  -13.2278   21.6979 C   0  0  0  0  0  0  0  0  0  0  0  0
  -26.7525  -26.5405   20.3585 C   0  0  0  0  0  0  0  0  0  0  0  0
  -31.1461  -26.8946   22.8298 C   0  0  0  0  0  0  0  0  0  0  0  0
  -31.7525  -26.9626   20.5033 C   0  0  0  0  0  0  0  0  0  0  0  0
  -24.9282  -12.1723   19.5609 C   0  0  0  0  0  0  0  0  0  0  0  0
  -28.3449  -18.1469   20.6895 C   0  0  0  0  0  0  0  0  0  0  0  0
  -27.7976  -20.4781   21.5691 C   0  0  0  0  0  0  0  0  0  0  0  0
  -18.2800  -28.9657   22.6918 C   0  0  0  0  0  0  0  0  0  0  0  0
  -24.7693  -27.6492   19.5234 C   0  0  0  0  0  0  0  0  0  0  0  0
  -19.6850  -28.9923   22.6033 C   0  0  0  0  0  0  0  0  0  0  0  0
  -25.4021  -26.4847   19.9813 C   0  0  0  0  0  0  0  0  0  0  0  0
  -30.7843  -26.8113   21.4898 C   0  0  0  0  0  0  0  0  0  0  0  0
  -28.0782  -15.3710   20.6132 C   0  0  0  0  0  0  0  0  0  0  0  0
  -27.4670  -27.7349   20.2695 C   0  0  0  0  0  0  0  0  0  0  0  0
  -26.6668  -13.4923   20.5964 C   0  0  0  0  0  0  0  0  0  0  0  0
  -24.0851  -12.4360   20.6404 C   0  0  0  0  0  0  0  0  0  0  0  0
  -26.2191  -12.7005   19.5389 C   0  0  0  0  0  0  0  0  0  0  0  0
  -28.4835  -19.5806   20.7290 C   0  0  0  0  0  0  0  0  0  0  0  0
  -32.4787  -27.1288   23.1284 C   0  0  0  0  0  0  0  0  0  0  0  0
  -33.0579  -27.1939   20.9061 C   0  0  0  0  0  0  0  0  0  0  0  0
  -28.2818  -21.7147   21.2185 C   0  0  0  0  0  0  0  0  0  0  0  0
  -26.8111  -20.2174   22.5763 C   0  0  0  0  0  0  0  0  0  0  0  0
  -22.2110  -26.7134   21.1616 C   0  0  0  0  0  0  0  0  0  0  0  0
  -22.5383  -24.0214   19.3816 C   0  0  0  0  0  0  0  0  0  0  0  0
  -24.5802  -21.9859   17.5557 C   0  0  0  0  0  0  0  0  0  0  0  0
  -33.1728  -24.1864   19.6755 C   0  0  0  0  0  0  0  0  0  0  0  0
  -17.5249  -27.6836   22.9383 C   0  0  0  0  0  0  0  0  0  0  0  0
  -23.3296  -27.6133   19.0892 C   0  0  0  0  0  0  0  0  0  0  0  0
  -24.6690  -25.1733   20.0878 C   0  0  0  0  0  0  0  0  0  0  0  0
  -18.3430  -26.4287   22.6445 C   0  0  0  0  0  0  0  0  0  0  0  0
  -30.5671  -23.5641   17.2423 C   0  0  0  0  0  0  0  0  0  0  0  0
  -19.7332  -26.5410   23.2622 C   0  0  0  0  0  0  0  0  0  0  0  0
  -29.6923  -22.5527   17.9853 C   0  0  0  0  0  0  0  0  0  0  0  0
  -32.0472  -23.3326   17.5315 C   0  0  0  0  0  0  0  0  0  0  0  0
  -31.5282  -22.3329   19.7235 C   0  0  0  0  0  0  0  0  0  0  0  0
  -20.5073  -27.7236   22.6675 C   0  0  1  0  0  0  0  0  0  0  0  0
  -22.5444  -26.4661   19.7175 C   0  0  1  0  0  0  0  0  0  0  0  0
  -30.0190  -22.5283   19.4902 C   0  0  2  0  0  0  0  0  0  0  0  0
  -32.9037  -27.2227   24.5557 C   0  0  0  0  0  0  0  0  0  0  0  0
  -24.5704  -19.8391   16.2562 C   0  0  0  0  0  0  0  0  0  0  0  0
  -22.5269  -22.4435   21.9931 C   0  0  0  0  0  0  0  0  0  0  0  0
  -23.4553  -20.4883   20.7347 C   0  0  0  0  0  0  0  0  0  0  0  0
  -21.2117  -21.4013   20.1388 C   0  0  0  0  0  0  0  0  0  0  0  0
  -25.3537  -23.3624   15.0526 C   0  0  0  0  0  0  0  0  0  0  0  0
  -29.3550  -26.5581   21.1099 C   0  0  0  0  0  0  0  0  0  1  0  0
  -34.1223  -27.3630   19.8741 C   0  0  0  0  0  0  0  0  0  0  0  0
  -34.8001  -26.0483   19.4709 C   0  0  0  0  0  0  0  0  0  0  0  0
  -23.2848  -22.7189   19.5404 C   0  0  1  0  0  0  0  0  0  0  0  0
  -24.4067  -21.3495   16.1885 C   0  0  2  0  0  0  0  0  0  0  0  0
  -22.6332  -21.7880   20.6017 C   0  0  0  0  0  0  0  0  0  0  0  0
  -29.3382  -20.1947   19.9066 N   0  0  0  0  0  0  0  0  0  0  0  0
  -33.4474  -27.2812   22.1977 N   0  0  0  0  0  0  0  0  0  0  0  0
  -29.1925  -21.4915   20.2281 N   0  0  0  0  0  0  0  0  0  0  0  0
  -23.2612  -25.1907   19.6571 N   0  0  0  0  0  0  0  0  0  0  0  0
  -32.2937  -23.3393   18.9804 N   0  0  0  0  0  0  0  0  0  0  0  0
  -28.0130  -22.9605   21.6639 N   0  0  0  0  0  0  0  0  0  0  0  0
  -26.4281  -18.8893   22.8084 N   0  0  0  0  0  0  0  0  0  0  0  0
  -21.0191  -27.3848   21.3569 N   0  0  0  0  0  0  0  0  0  0  0  0
  -23.3738  -22.1342   18.2068 N   0  0  0  0  0  0  0  0  0  0  0  0
  -33.8648  -25.1064   18.8974 N   0  0  0  0  0  0  0  0  0  0  0  0
  -25.4161  -21.8893   15.2341 N   0  3  0  0  0  0  0  0  0  0  0  0
  -26.2729  -21.1363   23.2391 O   0  0  0  0  0  0  0  0  0  0  0  0
  -22.9777  -26.3227   22.0341 O   0  0  0  0  0  0  0  0  0  0  0  0
  -21.3593  -24.0024   19.0193 O   0  0  0  0  0  0  0  0  0  0  0  0
  -25.6766  -22.3147   18.0031 O   0  0  0  0  0  0  0  0  0  0  0  0
  -33.3258  -24.1307   20.9005 O   0  0  0  0  0  0  0  0  0  0  0  0
  -27.9483  -14.0167   20.5764 O   0  0  0  0  0  0  0  0  0  0  0  0
  -28.7766  -27.7740   20.6372 O   0  0  0  0  0  0  0  0  0  1  0  0
  -22.8461  -11.9277   20.6624 F   0  0  0  0  0  0  0  0  0  0  0  0
  -27.0249  -12.4428   18.4997 F   0  0  0  0  0  0  0  0  0  0  0  0
  1  2  1  0  0  0  0
  1  5  2  0  0  0  0
  2  6  2  0  0  0  0
  3  8  2  0  0  0  0
  3 17  1  0  0  0  0
  4  9  1  0  0  0  0
  4 17  2  0  0  0  0
  5 19  1  0  0  0  0
  6 21  1  0  0  0  0
  7 10  2  0  0  0  0
  7 20  1  0  0  0  0
  8 24  1  0  0  0  0
  9 24  2  0  0  0  0
 10 25  1  0  0  0  0
 11 12  2  0  0  0  0
 11 26  1  0  0  0  0
 12 27  1  0  0  0  0
 13 22  1  0  0  0  0
 13 25  2  0  0  0  0
 14 23  1  0  0  0  0
 14 30  2  0  0  0  0
 15 23  2  0  0  0  0
 15 31  1  0  0  0  0
 16 27  2  0  0  0  0
 16 28  1  0  0  0  0
 17 29  1  0  0  0  0
 18 29  1  0  0  0  0
 18 32  2  0  0  0  0
 18 33  1  0  0  0  0
 19 21  2  0  0  0  0
 19 38  1  0  0  0  0
 20 22  2  0  0  0  0
 20 39  1  0  0  0  0
 21 47  1  0  0  0  0
 22 40  1  0  0  0  0
 23 56  1  0  0  0  0
 24 78  1  0  0  0  0
 25 79  1  0  0  0  0
 26 28  2  0  0  0  0
 26 78  1  0  0  0  0
 27 80  1  0  0  0  0
 28 81  1  0  0  0  0
 29 62  2  0  0  0  0
 30 50  1  0  0  0  0
 30 63  1  0  0  0  0
 31 57  1  0  0  0  0
 31 63  2  0  0  0  0
 32 64  1  0  0  0  0
 32 67  1  0  0  0  0
 33 68  1  0  0  0  0
 33 73  2  0  0  0  0
 34 48  1  0  0  0  0
 34 69  1  0  0  0  0
 34 74  2  0  0  0  0
 35 59  1  0  0  0  0
 35 65  1  0  0  0  0
 35 75  2  0  0  0  0
 36 60  1  0  0  0  0
 36 70  1  0  0  0  0
 36 76  2  0  0  0  0
 37 66  1  0  0  0  0
 37 71  1  0  0  0  0
 37 77  2  0  0  0  0
 38 41  1  0  0  0  0
 39 48  1  0  0  0  0
 40 65  1  0  0  0  0
 41 43  1  0  0  0  0
 42 44  1  0  0  0  0
 42 45  1  0  0  0  0
 43 47  1  0  0  0  0
 44 49  1  0  0  0  0
 45 66  1  0  0  0  0
 46 49  1  0  0  0  0
 46 66  1  0  0  0  0
 47 69  1  0  0  0  0
 48 65  1  0  0  0  0
 49 64  1  0  0  0  0
 51 60  1  0  0  0  0
 52 61  1  0  0  0  0
 53 61  1  0  0  0  0
 54 61  1  0  0  0  0
 55 72  1  0  0  0  0
 56 79  1  0  0  0  0
 57 58  1  0  0  0  0
 58 71  1  0  0  0  0
 59 61  1  0  0  0  0
 59 70  1  0  0  0  0
 60 72  1  0  0  0  0
 62 64  1  0  0  0  0
M  CHG  1  72   1
M  ISO  4  37 100  56 101  71 100  79 101
M  END
> <Batch ID>
0044

> <Smiles>
CNC(C)C(=O)NC(C(=O)N1Cc2cc([101O:1][101CH2:1]c3cc(C)nc(CC[100NH:0][100C:0](=O)N4CCCC(n5nc(-c6ccc(Oc7ccc(F)cc7F)cc6)c(C(N)=O)c5N)C4)c3)ccc2CC1C(=O)NC1CCCc2ccccc21)C(C)(C)C

> <Shape>
0.227

> <Color>
0.071

> <Negative vol penalty>
0.000

$$$$

  -OEChem-04052317173D

 86 94  0     1  0  0  0  0  0999 V2000
  -26.5591  -31.9685   24.8632 C   0  0  0  0  0  0  0  0  0  0  0  0
  -26.1191  -30.6622   25.0517 C   0  0  0  0  0  0  0  0  0  0  0  0
  -23.1037   -9.8003   19.9853 C   0  0  0  0  0  0  0  0  0  0  0  0
  -23.8155   -9.9111   22.2914 C   0  0  0  0  0  0  0  0  0  0  0  0
  -26.2557  -32.6412   23.6803 C   0  0  0  0  0  0  0  0  0  0  0  0
  -25.3745  -30.0283   24.0576 C   0  0  0  0  0  0  0  0  0  0  0  0
  -26.9219  -25.2834   23.1994 C   0  0  0  0  0  0  0  0  0  0  0  0
  -22.3632   -8.6528   20.2690 C   0  0  0  0  0  0  0  0  0  0  0  0
  -23.0750   -8.7636   22.5751 C   0  0  0  0  0  0  0  0  0  0  0  0
  -26.5210  -24.3081   24.1115 C   0  0  0  0  0  0  0  0  0  0  0  0
  -19.8409   -7.9659   23.1448 C   0  0  0  0  0  0  0  0  0  0  0  0
  -19.0600   -7.9696   24.3006 C   0  0  0  0  0  0  0  0  0  0  0  0
  -24.7739  -23.6190   22.5977 C   0  0  0  0  0  0  0  0  0  0  0  0
  -20.2998   -6.0755   25.1445 C   0  0  0  0  0  0  0  0  0  0  0  0
  -23.8299  -10.4294   20.9965 C   0  0  0  0  0  0  0  0  0  0  0  0
  -24.1558  -12.9499   20.7757 C   0  0  0  0  0  0  0  0  0  0  0  0
  -25.5152  -32.0119   22.6673 C   0  0  0  0  0  0  0  0  0  0  0  0
  -26.2437  -25.4412   21.9822 C   0  0  0  0  0  0  0  0  0  0  0  0
  -25.0598  -30.6937   22.8606 C   0  0  0  0  0  0  0  0  0  0  0  0
  -25.1697  -24.5953   21.6707 C   0  0  0  0  0  0  0  0  0  0  0  0
  -22.3488   -8.1345   21.5639 C   0  0  0  0  0  0  0  0  0  0  0  0
  -25.4451  -23.4776   23.8120 C   0  0  0  0  0  0  0  0  0  0  0  0
  -20.8512   -7.0169   22.9888 C   0  0  0  0  0  0  0  0  0  0  0  0
  -19.2895   -7.0245   25.3004 C   0  0  0  0  0  0  0  0  0  0  0  0
  -21.0807   -6.0717   23.9886 C   0  0  0  0  0  0  0  0  0  0  0  0
  -24.5955  -11.6145   20.7039 C   0  0  0  0  0  0  0  0  0  0  0  0
  -28.3729  -20.0827   22.3370 C   0  0  0  0  0  0  0  0  0  0  0  0
  -28.2653  -18.8064   21.8301 C   0  0  0  0  0  0  0  0  0  0  0  0
  -26.8666  -18.2417   23.5490 C   0  0  0  0  0  0  0  0  0  0  0  0
  -26.9749  -19.5178   24.0563 C   0  0  0  0  0  0  0  0  0  0  0  0
  -25.2498  -13.6921   20.4032 C   0  0  0  0  0  0  0  0  0  0  0  0
  -22.8731  -13.4727   21.1460 C   0  0  0  0  0  0  0  0  0  0  0  0
  -24.5820  -27.7884   20.6282 C   0  0  0  0  0  0  0  0  0  0  0  0
  -24.5526  -25.7748   18.0851 C   0  0  0  0  0  0  0  0  0  0  0  0
  -24.7790  -22.5749   16.9206 C   0  0  0  0  0  0  0  0  0  0  0  0
  -30.7208  -14.7630   20.6603 C   0  0  0  0  0  0  0  0  0  0  0  0
  -25.1716  -32.7958   21.4255 C   0  0  0  0  0  0  0  0  0  0  0  0
  -26.7053  -26.4803   20.9974 C   0  0  0  0  0  0  0  0  0  0  0  0
  -24.4211  -24.7105   20.3688 C   0  0  0  0  0  0  0  0  0  0  0  0
  -24.6976  -31.9233   20.2660 C   0  0  0  0  0  0  0  0  0  0  0  0
  -29.6506  -12.2698   18.3548 C   0  0  0  0  0  0  0  0  0  0  0  0
  -23.6669  -30.9077   20.7488 C   0  0  0  0  0  0  0  0  0  0  0  0
  -28.2066  -11.9831   18.7703 C   0  0  0  0  0  0  0  0  0  0  0  0
  -30.5409  -12.5491   19.5637 C   0  0  0  0  0  0  0  0  0  0  0  0
  -28.6054  -13.3230   20.8785 C   0  0  0  0  0  0  0  0  0  0  0  0
  -24.2708  -29.9636   21.7954 C   0  0  1  0  0  0  0  0  0  0  0  0
  -25.6179  -26.8926   20.0100 C   0  0  1  0  0  0  0  0  0  0  0  0
  -27.6573  -13.0904   19.6896 C   0  0  2  0  0  0  0  0  0  0  0  0
  -29.2116  -21.1170   21.6676 C   0  0  0  0  0  0  0  0  0  0  0  0
  -26.2970  -15.8036   23.6824 C   0  0  0  0  0  0  0  0  0  0  0  0
  -24.6786  -21.2392   14.7986 C   0  0  0  0  0  0  0  0  0  0  0  0
  -21.5157  -26.0673   18.0476 C   0  0  0  0  0  0  0  0  0  0  0  0
  -21.4080  -24.0372   16.5862 C   0  0  0  0  0  0  0  0  0  0  0  0
  -22.5932  -26.0830   15.7908 C   0  0  0  0  0  0  0  0  0  0  0  0
  -27.5513  -21.5987   17.2672 C   0  0  0  0  0  0  0  0  0  0  0  0
  -26.0276  -17.2076   24.2185 C   0  0  0  0  0  0  0  0  0  0  0  0
  -28.9830  -18.4002   20.5885 C   0  0  0  0  0  0  0  0  0  0  0  0
  -26.2500  -19.9284   25.3131 C   0  0  0  0  0  0  0  0  0  0  0  0
  -30.4764  -18.0746   20.7912 C   0  0  0  0  0  0  0  0  0  0  0  0
  -24.7546  -20.1795   25.1074 C   0  0  0  0  0  0  0  0  0  0  0  0
  -30.7452  -16.9647   21.8052 C   0  0  0  0  0  0  0  0  0  0  0  0
  -24.4614  -21.3414   24.1654 C   0  0  0  0  0  0  0  0  0  1  0  0
  -23.6417  -24.6702   17.6065 C   0  0  1  0  0  0  0  0  0  0  0  0
  -25.5795  -21.9722   15.7802 C   0  0  2  0  0  0  0  0  0  0  0  0
  -22.3023  -25.2133   17.0332 C   0  0  0  0  0  0  0  0  0  0  0  0
  -25.8695  -11.5113   20.3161 N   0  0  0  0  0  0  0  0  0  0  0  0
  -27.7297  -20.4613   23.4592 N   0  0  0  0  0  0  0  0  0  0  0  0
  -27.5101  -17.8630   22.4270 N   0  0  0  0  0  0  0  0  0  0  0  0
  -26.2396  -12.7913   20.1408 N   0  0  0  0  0  0  0  0  0  0  0  0
  -24.9064  -25.7459   19.4415 N   0  0  0  0  0  0  0  0  0  0  0  0
  -29.9645  -13.6098   20.3934 N   0  0  0  0  0  0  0  0  0  0  0  0
  -25.4520  -15.0210   20.2777 N   0  0  0  0  0  0  0  0  0  0  0  0
  -21.8610  -12.5705   21.5010 N   0  0  0  0  0  0  0  0  0  0  0  0
  -25.0929  -28.9591   21.1554 N   0  0  0  0  0  0  0  0  0  0  0  0
  -24.4207  -23.8804   16.6590 N   0  0  0  0  0  0  0  0  0  0  0  0
  -30.0975  -15.7219   21.4494 N   0  0  0  0  0  0  0  0  0  0  0  0
  -26.5849  -21.0064   16.3069 N   0  3  0  0  0  0  0  0  0  0  0  0
  -22.6268  -14.7027   21.1458 O   0  0  0  0  0  0  0  0  0  0  0  0
  -23.4060  -27.4437   20.6255 O   0  0  0  0  0  0  0  0  0  0  0  0
  -24.9419  -26.6277   17.2834 O   0  0  0  0  0  0  0  0  0  0  0  0
  -24.4964  -21.9488   17.9398 O   0  0  0  0  0  0  0  0  0  0  0  0
  -31.8647  -14.9283   20.2230 O   0  0  0  0  0  0  0  0  0  0  0  0
  -21.6261   -7.0149   21.8411 O   0  0  0  0  0  0  0  0  0  0  0  0
  -25.0514  -22.5253   24.7008 O   0  0  0  0  0  0  0  0  0  1  0  0
  -18.5405   -7.0292   26.4109 F   0  0  0  0  0  0  0  0  0  0  0  0
  -22.0507   -5.1583   23.8450 F   0  0  0  0  0  0  0  0  0  0  0  0
  1  2  1  0  0  0  0
  1  5  2  0  0  0  0
  2  6  2  0  0  0  0
  3  8  2  0  0  0  0
  3 15  1  0  0  0  0
  4  9  1  0  0  0  0
  4 15  2  0  0  0  0
  5 17  1  0  0  0  0
  6 19  1  0  0  0  0
  7 10  2  0  0  0  0
  7 18  1  0  0  0  0
  8 21  1  0  0  0  0
  9 21  2  0  0  0  0
 10 22  1  0  0  0  0
 11 12  2  0  0  0  0
 11 23  1  0  0  0  0
 12 24  1  0  0  0  0
 13 20  1  0  0  0  0
 13 22  2  0  0  0  0
 14 24  2  0  0  0  0
 14 25  1  0  0  0  0
 15 26  1  0  0  0  0
 16 26  1  0  0  0  0
 16 31  2  0  0  0  0
 16 32  1  0  0  0  0
 17 19  2  0  0  0  0
 17 37  1  0  0  0  0
 18 20  2  0  0  0  0
 18 38  1  0  0  0  0
 19 46  1  0  0  0  0
 20 39  1  0  0  0  0
 21 83  1  0  0  0  0
 22 84  1  0  0  0  0
 23 25  2  0  0  0  0
 23 83  1  0  0  0  0
 24 85  1  0  0  0  0
 25 86  1  0  0  0  0
 26 66  2  0  0  0  0
 27 28  1  0  0  0  0
 27 49  1  0  0  0  0
 27 67  2  0  0  0  0
 28 57  1  0  0  0  0
 28 68  2  0  0  0  0
 29 30  2  0  0  0  0
 29 56  1  0  0  0  0
 29 68  1  0  0  0  0
 30 58  1  0  0  0  0
 30 67  1  0  0  0  0
 31 69  1  0  0  0  0
 31 72  1  0  0  0  0
 32 73  1  0  0  0  0
 32 78  2  0  0  0  0
 33 47  1  0  0  0  0
 33 74  1  0  0  0  0
 33 79  2  0  0  0  0
 34 63  1  0  0  0  0
 34 70  1  0  0  0  0
 34 80  2  0  0  0  0
 35 64  1  0  0  0  0
 35 75  1  0  0  0  0
 35 81  2  0  0  0  0
 36 71  1  0  0  0  0
 36 76  1  0  0  0  0
 36 82  2  0  0  0  0
 37 40  1  0  0  0  0
 38 47  1  0  0  0  0
 39 70  1  0  0  0  0
 40 42  1  0  0  0  0
 41 43  1  0  0  0  0
 41 44  1  0  0  0  0
 42 46  1  0  0  0  0
 43 48  1  0  0  0  0
 44 71  1  0  0  0  0
 45 48  1  0  0  0  0
 45 71  1  0  0  0  0
 46 74  1  0  0  0  0
 47 70  1  0  0  0  0
 48 69  1  0  0  0  0
 50 56  1  0  0  0  0
 51 64  1  0  0  0  0
 52 65  1  0  0  0  0
 53 65  1  0  0  0  0
 54 65  1  0  0  0  0
 55 77  1  0  0  0  0
 57 59  1  0  0  0  0
 58 60  1  0  0  0  0
 59 61  1  0  0  0  0
 60 62  1  0  0  0  0
 61 76  1  0  0  0  0
 62 84  1  0  0  0  0
 63 65  1  0  0  0  0
 63 75  1  0  0  0  0
 64 77  1  0  0  0  0
 66 69  1  0  0  0  0
M  CHG  1  77   1
M  ISO  4  36 100  62 101  76 100  84 101
M  END
> <Batch ID>
0044

> <Smiles>
CCc1nc(CCC[100NH:0][100C:0](=O)N2CCCC(n3nc(-c4ccc(Oc5ccc(F)cc5F)cc4)c(C(N)=O)c3N)C2)c(C)nc1CC[101CH2:1][101O:1]c1ccc2c(c1)CN(C(=O)C(NC(=O)C(C)NC)C(C)(C)C)C(C(=O)NC1CCCc3ccccc31)C2

> <Shape>
0.274

> <Color>
0.189

> <Negative vol penalty>
0.000

$$$$

  -OEChem-04052317173D

 79 87  0     1  0  0  0  0  0999 V2000
  -20.7773  -32.2573   23.5895 C   0  0  0  0  0  0  0  0  0  0  0  0
  -21.9343  -31.4972   23.4514 C   0  0  0  0  0  0  0  0  0  0  0  0
  -24.6285  -14.1584   21.1826 C   0  0  0  0  0  0  0  0  0  0  0  0
  -27.0010  -13.7067   21.2462 C   0  0  0  0  0  0  0  0  0  0  0  0
  -19.5285  -31.6614   23.4182 C   0  0  0  0  0  0  0  0  0  0  0  0
  -21.8431  -30.1404   23.1430 C   0  0  0  0  0  0  0  0  0  0  0  0
  -25.1234  -28.7406   19.5478 C   0  0  0  0  0  0  0  0  0  0  0  0
  -24.3960  -12.8698   20.7020 C   0  0  0  0  0  0  0  0  0  0  0  0
  -26.7686  -12.4180   20.7657 C   0  0  0  0  0  0  0  0  0  0  0  0
  -26.4504  -28.5564   19.9335 C   0  0  0  0  0  0  0  0  0  0  0  0
  -24.2219   -9.7359   21.9596 C   0  0  0  0  0  0  0  0  0  0  0  0
  -23.1801   -9.0079   22.5343 C   0  0  0  0  0  0  0  0  0  0  0  0
  -26.0899  -26.1725   20.0137 C   0  0  0  0  0  0  0  0  0  0  0  0
  -22.1028   -8.8473   20.3777 C   0  0  0  0  0  0  0  0  0  0  0  0
  -30.6203  -25.1803   17.2452 C   0  0  0  0  0  0  0  0  0  0  0  0
  -25.9310  -14.5769   21.4546 C   0  0  0  0  0  0  0  0  0  0  0  0
  -26.2142  -16.3193   23.2963 C   0  0  0  0  0  0  0  0  0  0  0  0
  -19.4223  -30.2987   23.0980 C   0  0  0  0  0  0  0  0  0  0  0  0
  -24.2652  -27.6411   19.4026 C   0  0  0  0  0  0  0  0  0  0  0  0
  -20.5917  -29.5254   22.9686 C   0  0  0  0  0  0  0  0  0  0  0  0
  -24.7531  -26.3453   19.6236 C   0  0  0  0  0  0  0  0  0  0  0  0
  -25.4661  -11.9996   20.4935 C   0  0  0  0  0  0  0  0  0  0  0  0
  -26.9331  -27.2725   20.1693 C   0  0  0  0  0  0  0  0  0  0  0  0
  -24.2041  -10.0197   20.5940 C   0  0  0  0  0  0  0  0  0  0  0  0
  -22.1206   -8.5636   21.7433 C   0  0  0  0  0  0  0  0  0  0  0  0
  -23.1446   -9.5754   19.8030 C   0  0  0  0  0  0  0  0  0  0  0  0
  -26.1718  -15.9081   21.9505 C   0  0  0  0  0  0  0  0  0  0  0  0
  -30.6029  -24.2860   18.3246 C   0  0  0  0  0  0  0  0  0  0  0  0
  -26.4732  -17.6668   23.2356 C   0  0  0  0  0  0  0  0  0  0  0  0
  -26.0355  -15.5517   24.4940 C   0  0  0  0  0  0  0  0  0  0  0  0
  -21.5731  -26.6963   20.8039 C   0  0  0  0  0  0  0  0  0  0  0  0
  -21.6556  -24.3886   18.5257 C   0  0  0  0  0  0  0  0  0  0  0  0
  -23.5149  -22.5353   16.3451 C   0  0  0  0  0  0  0  0  0  0  0  0
  -29.1869  -20.9712   19.1648 C   0  0  0  0  0  0  0  0  0  0  0  0
  -18.0492  -29.6882   22.9690 C   0  0  0  0  0  0  0  0  0  0  0  0
  -22.8436  -27.8547   18.9599 C   0  0  0  0  0  0  0  0  0  0  0  0
  -23.8780  -25.1302   19.4618 C   0  0  0  0  0  0  0  0  0  0  0  0
  -18.0498  -28.3289   22.2745 C   0  0  0  0  0  0  0  0  0  0  0  0
  -25.8297  -21.4806   20.4165 C   0  0  0  0  0  0  0  0  0  0  0  0
  -19.1503  -27.4391   22.8436 C   0  0  0  0  0  0  0  0  0  0  0  0
  -25.5462  -20.1336   21.0837 C   0  0  0  0  0  0  0  0  0  0  0  0
  -26.6411  -21.3036   19.1364 C   0  0  0  0  0  0  0  0  0  0  0  0
  -27.6403  -19.2158   19.9827 C   0  0  0  0  0  0  0  0  0  0  0  0
  -20.5346  -28.0562   22.6102 C   0  0  1  0  0  0  0  0  0  0  0  0
  -21.9195  -26.7025   19.3418 C   0  0  1  0  0  0  0  0  0  0  0  0
  -26.8424  -19.3288   21.2944 C   0  0  2  0  0  0  0  0  0  0  0  0
  -23.3082  -20.7020   14.6440 C   0  0  0  0  0  0  0  0  0  0  0  0
  -21.3952  -22.3385   20.7704 C   0  0  0  0  0  0  0  0  0  0  0  0
  -22.1404  -20.5775   19.1542 C   0  0  0  0  0  0  0  0  0  0  0  0
  -20.0286  -21.8378   18.7366 C   0  0  0  0  0  0  0  0  0  0  0  0
  -24.5073  -24.2819   14.1717 C   0  0  0  0  0  0  0  0  0  0  0  0
  -30.6091  -22.8172   18.3122 C   0  0  0  0  0  0  0  0  0  0  0  0
  -30.5576  -27.3918   19.9871 C   0  0  0  0  0  0  0  0  0  0  0  0
  -29.1814  -28.0423   20.0776 C   0  0  0  0  0  0  0  0  0  1  0  0
  -22.2501  -23.0045   18.4270 C   0  0  1  0  0  0  0  0  0  0  0  0
  -23.3129  -22.2048   14.8773 C   0  0  2  0  0  0  0  0  0  0  0  0
  -21.4698  -21.9624   19.2771 C   0  0  0  0  0  0  0  0  0  0  0  0
  -30.6055  -26.4372   17.6978 N   0  0  0  0  0  0  0  0  0  0  0  0
  -26.3866  -16.9131   21.0974 N   0  0  0  0  0  0  0  0  0  0  0  0
  -30.5782  -24.9650   19.4749 N   0  0  0  0  0  0  0  0  0  0  0  0
  -26.5663  -17.9691   21.9089 N   0  0  0  0  0  0  0  0  0  0  0  0
  -30.5810  -26.2297   19.0242 N   0  0  0  0  0  0  0  0  0  0  0  0
  -22.4938  -25.3912   19.0335 N   0  0  0  0  0  0  0  0  0  0  0  0
  -27.8706  -20.5460   19.4094 N   0  0  0  0  0  0  0  0  0  0  0  0
  -26.6281  -18.6106   24.1882 N   0  0  0  0  0  0  0  0  0  0  0  0
  -25.7767  -14.1794   24.3758 N   0  0  0  0  0  0  0  0  0  0  0  0
  -20.9545  -27.8522   21.2404 N   0  0  0  0  0  0  0  0  0  0  0  0
  -22.3135  -22.6879   17.0043 N   0  0  0  0  0  0  0  0  0  0  0  0
  -29.3180  -22.2403   18.6143 N   0  0  0  0  0  0  0  0  0  0  0  0
  -24.4027  -22.8044   14.0565 N   0  3  0  0  0  0  0  0  0  0  0  0
  -26.0871  -16.0707   25.6349 O   0  0  0  0  0  0  0  0  0  0  0  0
  -21.8456  -25.7148   21.4852 O   0  0  0  0  0  0  0  0  0  0  0  0
  -20.4927  -24.5749   18.1587 O   0  0  0  0  0  0  0  0  0  0  0  0
  -24.6272  -22.6434   16.8566 O   0  0  0  0  0  0  0  0  0  0  0  0
  -30.1735  -20.2732   19.4229 O   0  0  0  0  0  0  0  0  0  0  0  0
  -25.2396  -10.7420   20.0248 O   0  0  0  0  0  0  0  0  0  0  0  0
  -28.2278  -27.0899   20.5465 O   0  0  0  0  0  0  0  0  0  1  0  0
  -21.1210   -7.8631   22.2950 F   0  0  0  0  0  0  0  0  0  0  0  0
  -23.1226   -9.8439   18.4903 F   0  0  0  0  0  0  0  0  0  0  0  0
  1  2  1  0  0  0  0
  1  5  2  0  0  0  0
  2  6  2  0  0  0  0
  3  8  2  0  0  0  0
  3 16  1  0  0  0  0
  4  9  1  0  0  0  0
  4 16  2  0  0  0  0
  5 18  1  0  0  0  0
  6 20  1  0  0  0  0
  7 10  2  0  0  0  0
  7 19  1  0  0  0  0
  8 22  1  0  0  0  0
  9 22  2  0  0  0  0
 10 23  1  0  0  0  0
 11 12  2  0  0  0  0
 11 24  1  0  0  0  0
 12 25  1  0  0  0  0
 13 21  1  0  0  0  0
 13 23  2  0  0  0  0
 14 25  2  0  0  0  0
 14 26  1  0  0  0  0
 15 28  1  0  0  0  0
 15 58  2  0  0  0  0
 16 27  1  0  0  0  0
 17 27  1  0  0  0  0
 17 29  2  0  0  0  0
 17 30  1  0  0  0  0
 18 20  2  0  0  0  0
 18 35  1  0  0  0  0
 19 21  2  0  0  0  0
 19 36  1  0  0  0  0
 20 44  1  0  0  0  0
 21 37  1  0  0  0  0
 22 76  1  0  0  0  0
 23 77  1  0  0  0  0
 24 26  2  0  0  0  0
 24 76  1  0  0  0  0
 25 78  1  0  0  0  0
 26 79  1  0  0  0  0
 27 59  2  0  0  0  0
 28 52  1  0  0  0  0
 28 60  2  0  0  0  0
 29 61  1  0  0  0  0
 29 65  1  0  0  0  0
 30 66  1  0  0  0  0
 30 71  2  0  0  0  0
 31 45  1  0  0  0  0
 31 67  1  0  0  0  0
 31 72  2  0  0  0  0
 32 55  1  0  0  0  0
 32 63  1  0  0  0  0
 32 73  2  0  0  0  0
 33 56  1  0  0  0  0
 33 68  1  0  0  0  0
 33 74  2  0  0  0  0
 34 64  1  0  0  0  0
 34 69  1  0  0  0  0
 34 75  2  0  0  0  0
 35 38  1  0  0  0  0
 36 45  1  0  0  0  0
 37 63  1  0  0  0  0
 38 40  1  0  0  0  0
 39 41  1  0  0  0  0
 39 42  1  0  0  0  0
 40 44  1  0  0  0  0
 41 46  1  0  0  0  0
 42 64  1  0  0  0  0
 43 46  1  0  0  0  0
 43 64  1  0  0  0  0
 44 67  1  0  0  0  0
 45 63  1  0  0  0  0
 46 61  1  0  0  0  0
 47 56  1  0  0  0  0
 48 57  1  0  0  0  0
 49 57  1  0  0  0  0
 50 57  1  0  0  0  0
 51 70  1  0  0  0  0
 52 69  1  0  0  0  0
 53 54  1  0  0  0  0
 53 62  1  0  0  0  0
 54 77  1  0  0  0  0
 55 57  1  0  0  0  0
 55 68  1  0  0  0  0
 56 70  1  0  0  0  0
 58 62  1  0  0  0  0
 59 61  1  0  0  0  0
 60 62  1  0  0  0  0
M  CHG  1  70   1
M  ISO  4  34 100  54 101  69 100  77 101
M  END
> <Batch ID>
0044

> <Smiles>
CNC(C)C(=O)NC(C(=O)N1Cc2cc([101O:1][101CH2:1]Cn3ncc(C[100NH:0][100C:0](=O)N4CCCC(n5nc(-c6ccc(Oc7ccc(F)cc7F)cc6)c(C(N)=O)c5N)C4)n3)ccc2CC1C(=O)NC1CCCc2ccccc21)C(C)(C)C

> <Shape>
0.236

> <Color>
0.082

> <Negative vol penalty>
0.000

$$$$

  -OEChem-04052317173D

 83 91  0     1  0  0  0  0  0999 V2000
  -16.6860  -29.7831   24.5679 C   0  0  0  0  0  0  0  0  0  0  0  0
  -17.3201  -28.5569   24.7404 C   0  0  0  0  0  0  0  0  0  0  0  0
  -23.0571  -10.0243   21.5389 C   0  0  0  0  0  0  0  0  0  0  0  0
  -23.6832  -11.1740   23.5695 C   0  0  0  0  0  0  0  0  0  0  0  0
  -17.0837  -30.6333   23.5369 C   0  0  0  0  0  0  0  0  0  0  0  0
  -18.3516  -28.1797   23.8813 C   0  0  0  0  0  0  0  0  0  0  0  0
  -24.4830  -24.4761   23.8081 C   0  0  0  0  0  0  0  0  0  0  0  0
  -22.2695   -9.1436   22.2803 C   0  0  0  0  0  0  0  0  0  0  0  0
  -22.8956  -10.2934   24.3109 C   0  0  0  0  0  0  0  0  0  0  0  0
  -25.1151  -23.4532   23.1025 C   0  0  0  0  0  0  0  0  0  0  0  0
  -22.7353   -6.4115   24.2150 C   0  0  0  0  0  0  0  0  0  0  0  0
  -22.8288   -5.0520   23.9173 C   0  0  0  0  0  0  0  0  0  0  0  0
  -25.7709  -25.0372   21.4055 C   0  0  0  0  0  0  0  0  0  0  0  0
  -20.4738   -5.0079   23.3793 C   0  0  0  0  0  0  0  0  0  0  0  0
  -23.7640  -11.0395   22.1835 C   0  0  0  0  0  0  0  0  0  0  0  0
  -24.1794  -13.1731   20.8483 C   0  0  0  0  0  0  0  0  0  0  0  0
  -18.1271  -30.2705   22.6707 C   0  0  0  0  0  0  0  0  0  0  0  0
  -24.4808  -25.7875   23.3114 C   0  0  0  0  0  0  0  0  0  0  0  0
  -18.7627  -29.0252   22.8369 C   0  0  0  0  0  0  0  0  0  0  0  0
  -25.1403  -26.0755   22.1080 C   0  0  0  0  0  0  0  0  0  0  0  0
  -22.1887   -9.2782   23.6663 C   0  0  0  0  0  0  0  0  0  0  0  0
  -25.7567  -23.7331   21.8996 C   0  0  0  0  0  0  0  0  0  0  0  0
  -21.5111   -7.0692   24.0949 C   0  0  0  0  0  0  0  0  0  0  0  0
  -21.6981   -4.3502   23.4994 C   0  0  0  0  0  0  0  0  0  0  0  0
  -20.3804   -6.3675   23.6771 C   0  0  0  0  0  0  0  0  0  0  0  0
  -24.5782  -11.9492   21.4182 C   0  0  0  0  0  0  0  0  0  0  0  0
  -28.5621  -20.1788   19.1714 C   0  0  0  0  0  0  0  0  0  0  0  0
  -26.9504  -19.1168   21.0159 C   0  0  0  0  0  0  0  0  0  0  0  0
  -28.4328  -18.8135   19.3012 C   0  0  0  0  0  0  0  0  0  0  0  0
  -27.0803  -20.4821   20.8867 C   0  0  0  0  0  0  0  0  0  0  0  0
  -25.3104  -13.6491   20.2311 C   0  0  0  0  0  0  0  0  0  0  0  0
  -22.9011  -13.8219   20.8746 C   0  0  0  0  0  0  0  0  0  0  0  0
  -22.2298  -27.8308   22.3833 C   0  0  0  0  0  0  0  0  0  0  0  0
  -24.7345  -29.8784   22.1461 C   0  0  0  0  0  0  0  0  0  0  0  0
  -28.0957  -30.3099   21.7426 C   0  0  0  0  0  0  0  0  0  0  0  0
  -30.7993  -14.6575   20.2362 C   0  0  0  0  0  0  0  0  0  0  0  0
  -18.4903  -31.2020   21.5415 C   0  0  0  0  0  0  0  0  0  0  0  0
  -23.8174  -26.8846   24.0979 C   0  0  0  0  0  0  0  0  0  0  0  0
  -25.1842  -27.4705   21.5419 C   0  0  0  0  0  0  0  0  0  0  0  0
  -19.8430  -30.8907   20.9062 C   0  0  0  0  0  0  0  0  0  0  0  0
  -29.7382  -11.3960   19.2804 C   0  0  0  0  0  0  0  0  0  0  0  0
  -19.9747  -29.3951   20.6369 C   0  0  0  0  0  0  0  0  0  0  0  0
  -28.2709  -11.3482   19.7099 C   0  0  0  0  0  0  0  0  0  0  0  0
  -30.5900  -12.1894   20.2689 C   0  0  0  0  0  0  0  0  0  0  0  0
  -28.6316  -13.5022   20.9863 C   0  0  0  0  0  0  0  0  0  0  0  0
  -19.9024  -28.5913   21.9408 C   0  0  1  0  0  0  0  0  0  0  0  0
  -23.4365  -28.0878   23.2409 C   0  0  1  0  0  0  0  0  0  0  0  0
  -27.7227  -12.7602   19.9914 C   0  0  2  0  0  0  0  0  0  0  0  0
  -29.4590  -20.7806   18.1442 C   0  0  0  0  0  0  0  0  0  0  0  0
  -26.0535  -18.5147   22.0427 C   0  0  0  0  0  0  0  0  0  0  0  0
  -29.8429  -32.1010   21.5509 C   0  0  0  0  0  0  0  0  0  0  0  0
  -23.8494  -30.4315   19.2789 C   0  0  0  0  0  0  0  0  0  0  0  0
  -26.1002  -31.4416   18.8528 C   0  0  0  0  0  0  0  0  0  0  0  0
  -24.5821  -32.4548   20.5532 C   0  0  0  0  0  0  0  0  0  0  0  0
  -29.5048  -29.3566   24.1643 C   0  0  0  0  0  0  0  0  0  0  0  0
  -29.1841  -17.8745   18.4205 C   0  0  0  0  0  0  0  0  0  0  0  0
  -26.3250  -21.4272   21.7742 C   0  0  0  0  0  0  0  0  0  1  0  0
  -30.6573  -17.6618   18.8227 C   0  0  0  0  0  0  0  0  0  0  0  0
  -30.8510  -17.1387   20.2444 C   0  0  0  0  0  0  0  0  0  0  0  0
  -25.7121  -30.2501   21.0575 C   0  0  1  0  0  0  0  0  0  0  0  0
  -29.0984  -31.1677   22.4930 C   0  0  2  0  0  0  0  0  0  0  0  0
  -25.0586  -31.1178   19.9450 C   0  0  0  0  0  0  0  0  0  0  0  0
  -25.8621  -11.6652   21.1837 N   0  0  0  0  0  0  0  0  0  0  0  0
  -27.6244  -18.2580   20.2255 N   0  0  0  0  0  0  0  0  0  0  0  0
  -27.8885  -21.0376   19.9621 N   0  0  0  0  0  0  0  0  0  0  0  0
  -26.2799  -12.7175   20.4596 N   0  0  0  0  0  0  0  0  0  0  0  0
  -24.5157  -28.5078   22.3447 N   0  0  0  0  0  0  0  0  0  0  0  0
  -30.0169  -13.5191   20.4909 N   0  0  0  0  0  0  0  0  0  0  0  0
  -25.5601  -14.7695   19.5206 N   0  0  0  0  0  0  0  0  0  0  0  0
  -21.8475  -13.1948   21.5536 N   0  0  0  0  0  0  0  0  0  0  0  0
  -21.1614  -28.6654   22.6507 N   0  0  0  0  0  0  0  0  0  0  0  0
  -26.8432  -30.8861   21.7243 N   0  0  0  0  0  0  0  0  0  0  0  0
  -30.1775  -15.8786   20.4665 N   0  0  0  0  0  0  0  0  0  0  0  0
  -30.0970  -30.3081   23.1892 N   0  3  0  0  0  0  0  0  0  0  0  0
  -22.6948  -14.9170   20.2987 O   0  0  0  0  0  0  0  0  0  0  0  0
  -22.2659  -26.9421   21.5402 O   0  0  0  0  0  0  0  0  0  0  0  0
  -24.1906  -30.7711   22.8010 O   0  0  0  0  0  0  0  0  0  0  0  0
  -28.3946  -29.2377   21.2213 O   0  0  0  0  0  0  0  0  0  0  0  0
  -31.9638  -14.5907   19.8283 O   0  0  0  0  0  0  0  0  0  0  0  0
  -21.4201   -8.4191   24.3901 O   0  0  0  0  0  0  0  0  0  0  0  0
  -26.3738  -22.7364   21.2085 O   0  0  0  0  0  0  0  0  0  1  0  0
  -21.7883   -3.0451   23.2121 F   0  0  0  0  0  0  0  0  0  0  0  0
  -19.2018   -6.9942   23.5587 F   0  0  0  0  0  0  0  0  0  0  0  0
  1  2  1  0  0  0  0
  1  5  2  0  0  0  0
  2  6  2  0  0  0  0
  3  8  2  0  0  0  0
  3 15  1  0  0  0  0
  4  9  1  0  0  0  0
  4 15  2  0  0  0  0
  5 17  1  0  0  0  0
  6 19  1  0  0  0  0
  7 10  2  0  0  0  0
  7 18  1  0  0  0  0
  8 21  1  0  0  0  0
  9 21  2  0  0  0  0
 10 22  1  0  0  0  0
 11 12  2  0  0  0  0
 11 23  1  0  0  0  0
 12 24  1  0  0  0  0
 13 20  1  0  0  0  0
 13 22  2  0  0  0  0
 14 24  2  0  0  0  0
 14 25  1  0  0  0  0
 15 26  1  0  0  0  0
 16 26  1  0  0  0  0
 16 31  2  0  0  0  0
 16 32  1  0  0  0  0
 17 19  2  0  0  0  0
 17 37  1  0  0  0  0
 18 20  2  0  0  0  0
 18 38  1  0  0  0  0
 19 46  1  0  0  0  0
 20 39  1  0  0  0  0
 21 80  1  0  0  0  0
 22 81  1  0  0  0  0
 23 25  2  0  0  0  0
 23 80  1  0  0  0  0
 24 82  1  0  0  0  0
 25 83  1  0  0  0  0
 26 63  2  0  0  0  0
 27 29  1  0  0  0  0
 27 49  1  0  0  0  0
 27 65  2  0  0  0  0
 28 30  2  0  0  0  0
 28 50  1  0  0  0  0
 28 64  1  0  0  0  0
 29 56  1  0  0  0  0
 29 64  2  0  0  0  0
 30 57  1  0  0  0  0
 30 65  1  0  0  0  0
 31 66  1  0  0  0  0
 31 69  1  0  0  0  0
 32 70  1  0  0  0  0
 32 75  2  0  0  0  0
 33 47  1  0  0  0  0
 33 71  1  0  0  0  0
 33 76  2  0  0  0  0
 34 60  1  0  0  0  0
 34 67  1  0  0  0  0
 34 77  2  0  0  0  0
 35 61  1  0  0  0  0
 35 72  1  0  0  0  0
 35 78  2  0  0  0  0
 36 68  1  0  0  0  0
 36 73  1  0  0  0  0
 36 79  2  0  0  0  0
 37 40  1  0  0  0  0
 38 47  1  0  0  0  0
 39 67  1  0  0  0  0
 40 42  1  0  0  0  0
 41 43  1  0  0  0  0
 41 44  1  0  0  0  0
 42 46  1  0  0  0  0
 43 48  1  0  0  0  0
 44 68  1  0  0  0  0
 45 48  1  0  0  0  0
 45 68  1  0  0  0  0
 46 71  1  0  0  0  0
 47 67  1  0  0  0  0
 48 66  1  0  0  0  0
 51 61  1  0  0  0  0
 52 62  1  0  0  0  0
 53 62  1  0  0  0  0
 54 62  1  0  0  0  0
 55 74  1  0  0  0  0
 56 58  1  0  0  0  0
 57 81  1  0  0  0  0
 58 59  1  0  0  0  0
 59 73  1  0  0  0  0
 60 62  1  0  0  0  0
 60 72  1  0  0  0  0
 61 74  1  0  0  0  0
 63 66  1  0  0  0  0
M  CHG  1  74   1
M  ISO  4  36 100  57 101  73 100  81 101
M  END
> <Batch ID>
0044

> <Smiles>
CNC(C)C(=O)NC(C(=O)N1Cc2cc([101O:1][101CH2:1]c3nc(C)c(CCC[100NH:0][100C:0](=O)N4CCCC(n5nc(-c6ccc(Oc7ccc(F)cc7F)cc6)c(C(N)=O)c5N)C4)nc3C)ccc2CC1C(=O)NC1CCCc2ccccc21)C(C)(C)C

> <Shape>
0.296

> <Color>
0.161

> <Negative vol penalty>
0.000

$$$$

  -OEChem-04052317173D

 82 90  0     1  0  0  0  0  0999 V2000
  -22.5121  -13.3215   18.3309 C   0  0  0  0  0  0  0  0  0  0  0  0
  -22.9945  -14.6117   18.5264 C   0  0  0  0  0  0  0  0  0  0  0  0
  -19.8671  -28.9593   23.6922 C   0  0  0  0  0  0  0  0  0  0  0  0
  -20.4553  -26.9101   22.5556 C   0  0  0  0  0  0  0  0  0  0  0  0
  -23.1705  -12.2372   18.9095 C   0  0  0  0  0  0  0  0  0  0  0  0
  -24.1350  -14.8184   19.3015 C   0  0  0  0  0  0  0  0  0  0  0  0
  -27.3661  -18.0842   17.1708 C   0  0  0  0  0  0  0  0  0  0  0  0
  -18.5373  -28.7919   23.3058 C   0  0  0  0  0  0  0  0  0  0  0  0
  -19.1256  -26.7427   22.1691 C   0  0  0  0  0  0  0  0  0  0  0  0
  -27.0600  -19.4406   17.2724 C   0  0  0  0  0  0  0  0  0  0  0  0
  -15.8714  -26.9561   24.2833 C   0  0  0  0  0  0  0  0  0  0  0  0
  -14.8850  -27.1664   25.2468 C   0  0  0  0  0  0  0  0  0  0  0  0
  -28.6262  -19.6514   19.0949 C   0  0  0  0  0  0  0  0  0  0  0  0
  -13.9346  -28.9251   23.8900 C   0  0  0  0  0  0  0  0  0  0  0  0
  -20.8261  -28.0184   23.3171 C   0  0  0  0  0  0  0  0  0  0  0  0
  -22.8106  -27.7141   24.8908 C   0  0  0  0  0  0  0  0  0  0  0  0
  -24.3253  -12.4299   19.6841 C   0  0  0  0  0  0  0  0  0  0  0  0
  -28.2981  -17.4979   18.0392 C   0  0  0  0  0  0  0  0  0  0  0  0
  -24.8088  -13.7358   19.8920 C   0  0  0  0  0  0  0  0  0  0  0  0
  -28.9443  -18.2879   19.0007 C   0  0  0  0  0  0  0  0  0  0  0  0
  -26.2584  -23.5387   17.6754 C   0  0  0  0  0  0  0  0  0  0  0  0
  -18.1665  -27.6837   22.5443 C   0  0  0  0  0  0  0  0  0  0  0  0
  -27.6880  -20.2238   18.2364 C   0  0  0  0  0  0  0  0  0  0  0  0
  -15.8895  -27.7304   23.1232 C   0  0  0  0  0  0  0  0  0  0  0  0
  -13.9165  -28.1508   25.0501 C   0  0  0  0  0  0  0  0  0  0  0  0
  -14.9211  -28.7148   22.9265 C   0  0  0  0  0  0  0  0  0  0  0  0
  -22.2000  -28.1910   23.7155 C   0  0  0  0  0  0  0  0  0  0  0  0
  -25.5735  -24.1625   18.7354 C   0  0  0  0  0  0  0  0  0  0  0  0
  -26.7402  -24.5788   16.9187 C   0  0  0  0  0  0  0  0  0  0  0  0
  -24.1134  -28.1389   24.7976 C   0  0  0  0  0  0  0  0  0  0  0  0
  -22.2503  -26.9550   25.9704 C   0  0  0  0  0  0  0  0  0  0  0  0
  -28.1838  -15.2008   20.2332 C   0  0  0  0  0  0  0  0  0  0  0  0
  -31.3930  -15.6645   20.3235 C   0  0  0  0  0  0  0  0  0  0  0  0
  -34.0352  -17.7529   19.7717 C   0  0  0  0  0  0  0  0  0  0  0  0
  -27.6224  -29.5412   20.1530 C   0  0  0  0  0  0  0  0  0  0  0  0
  -24.9757  -11.2313   20.3283 C   0  0  0  0  0  0  0  0  0  0  0  0
  -28.6370  -16.0392   17.8992 C   0  0  0  0  0  0  0  0  0  0  0  0
  -29.9673  -17.7111   19.9437 C   0  0  0  0  0  0  0  0  0  0  0  0
  -26.3932  -11.5016   20.8262 C   0  0  0  0  0  0  0  0  0  0  0  0
  -26.7879  -31.6298   22.9131 C   0  0  0  0  0  0  0  0  0  0  0  0
  -26.4457  -12.8149   21.6003 C   0  0  0  0  0  0  0  0  0  0  0  0
  -25.5726  -30.9423   23.5377 C   0  0  0  0  0  0  0  0  0  0  0  0
  -26.7804  -31.5152   21.3903 C   0  0  0  0  0  0  0  0  0  0  0  0
  -25.4362  -29.4524   21.4981 C   0  0  0  0  0  0  0  0  0  0  0  0
  -26.0573  -13.9984   20.7059 C   0  0  1  0  0  0  0  0  0  0  0  0
  -29.2219  -15.4367   19.1729 C   0  0  1  0  0  0  0  0  0  0  0  0
  -25.4287  -29.4930   23.0358 C   0  0  2  0  0  0  0  0  0  0  0  0
  -24.8583  -23.5195   19.8518 C   0  0  0  0  0  0  0  0  0  0  0  0
  -27.5373  -24.5927   15.6775 C   0  0  0  0  0  0  0  0  0  0  0  0
  -36.5338  -17.8645   19.9755 C   0  0  0  0  0  0  0  0  0  0  0  0
  -31.1278  -16.0408   23.3398 C   0  0  0  0  0  0  0  0  0  0  0  0
  -33.4124  -17.0649   23.3427 C   0  0  0  0  0  0  0  0  0  0  0  0
  -33.1110  -14.6943   22.6269 C   0  0  0  0  0  0  0  0  0  0  0  0
  -34.3704  -18.1623   16.8598 C   0  0  0  0  0  0  0  0  0  0  0  0
  -26.4258  -22.0688   17.4248 C   0  0  0  0  0  0  0  0  0  1  0  0
  -27.9930  -27.5813   17.4949 C   0  0  0  0  0  0  0  0  0  0  0  0
  -26.5888  -27.0780   17.1343 C   0  0  0  0  0  0  0  0  0  0  0  0
  -28.3428  -27.4774   18.9778 C   0  0  0  0  0  0  0  0  0  0  0  0
  -32.3225  -16.5570   21.1100 C   0  0  1  0  0  0  0  0  0  0  0  0
  -35.3610  -17.5348   19.0652 C   0  0  2  0  0  0  0  0  0  0  0  0
  -32.4727  -16.1000   22.5885 C   0  0  0  0  0  0  0  0  0  0  0  0
  -23.0454  -28.8672   22.9330 N   0  0  0  0  0  0  0  0  0  0  0  0
  -25.6145  -25.4955   18.6623 N   0  0  0  0  0  0  0  0  0  0  0  0
  -26.3310  -25.7179   17.5472 N   0  0  0  0  0  0  0  0  0  0  0  0
  -24.2005  -28.8182   23.6181 N   0  0  0  0  0  0  0  0  0  0  0  0
  -30.2598  -16.2785   19.7714 N   0  0  0  0  0  0  0  0  0  0  0  0
  -26.6431  -30.1156   20.9801 N   0  0  0  0  0  0  0  0  0  0  0  0
  -25.1816  -27.9939   25.6103 N   0  0  0  0  0  0  0  0  0  0  0  0
  -20.8953  -26.6023   25.9065 N   0  0  0  0  0  0  0  0  0  0  0  0
  -27.1592  -14.3608   19.8405 N   0  0  0  0  0  0  0  0  0  0  0  0
  -33.5770  -16.5962   20.3663 N   0  0  0  0  0  0  0  0  0  0  0  0
  -27.4192  -28.2084   19.8164 N   0  0  0  0  0  0  0  0  0  0  0  0
  -35.4500  -18.3971   17.8530 N   0  3  0  0  0  0  0  0  0  0  0  0
  -22.9269  -26.6140   26.9701 O   0  0  0  0  0  0  0  0  0  0  0  0
  -28.3042  -15.7396   21.3272 O   0  0  0  0  0  0  0  0  0  0  0  0
  -31.6660  -14.4682   20.1975 O   0  0  0  0  0  0  0  0  0  0  0  0
  -33.4649  -18.8413   19.7969 O   0  0  0  0  0  0  0  0  0  0  0  0
  -28.6077  -30.1679   19.7491 O   0  0  0  0  0  0  0  0  0  0  0  0
  -16.8690  -27.5199   22.1672 O   0  0  0  0  0  0  0  0  0  0  0  0
  -27.3906  -21.5479   18.3381 O   0  0  0  0  0  0  0  0  0  1  0  0
  -12.9684  -28.3516   25.9748 F   0  0  0  0  0  0  0  0  0  0  0  0
  -14.9326  -29.4610   21.8134 F   0  0  0  0  0  0  0  0  0  0  0  0
  1  2  1  0  0  0  0
  1  5  2  0  0  0  0
  2  6  2  0  0  0  0
  3  8  2  0  0  0  0
  3 15  1  0  0  0  0
  4  9  1  0  0  0  0
  4 15  2  0  0  0  0
  5 17  1  0  0  0  0
  6 19  1  0  0  0  0
  7 10  2  0  0  0  0
  7 18  1  0  0  0  0
  8 22  1  0  0  0  0
  9 22  2  0  0  0  0
 10 23  1  0  0  0  0
 11 12  2  0  0  0  0
 11 24  1  0  0  0  0
 12 25  1  0  0  0  0
 13 20  1  0  0  0  0
 13 23  2  0  0  0  0
 14 25  2  0  0  0  0
 14 26  1  0  0  0  0
 15 27  1  0  0  0  0
 16 27  1  0  0  0  0
 16 30  2  0  0  0  0
 16 31  1  0  0  0  0
 17 19  2  0  0  0  0
 17 36  1  0  0  0  0
 18 20  2  0  0  0  0
 18 37  1  0  0  0  0
 19 45  1  0  0  0  0
 20 38  1  0  0  0  0
 21 28  1  0  0  0  0
 21 29  2  0  0  0  0
 21 55  1  0  0  0  0
 22 79  1  0  0  0  0
 23 80  1  0  0  0  0
 24 26  2  0  0  0  0
 24 79  1  0  0  0  0
 25 81  1  0  0  0  0
 26 82  1  0  0  0  0
 27 62  2  0  0  0  0
 28 48  1  0  0  0  0
 28 63  2  0  0  0  0
 29 49  1  0  0  0  0
 29 64  1  0  0  0  0
 30 65  1  0  0  0  0
 30 68  1  0  0  0  0
 31 69  1  0  0  0  0
 31 74  2  0  0  0  0
 32 46  1  0  0  0  0
 32 70  1  0  0  0  0
 32 75  2  0  0  0  0
 33 59  1  0  0  0  0
 33 66  1  0  0  0  0
 33 76  2  0  0  0  0
 34 60  1  0  0  0  0
 34 71  1  0  0  0  0
 34 77  2  0  0  0  0
 35 67  1  0  0  0  0
 35 72  1  0  0  0  0
 35 78  2  0  0  0  0
 36 39  1  0  0  0  0
 37 46  1  0  0  0  0
 38 66  1  0  0  0  0
 39 41  1  0  0  0  0
 40 42  1  0  0  0  0
 40 43  1  0  0  0  0
 41 45  1  0  0  0  0
 42 47  1  0  0  0  0
 43 67  1  0  0  0  0
 44 47  1  0  0  0  0
 44 67  1  0  0  0  0
 45 70  1  0  0  0  0
 46 66  1  0  0  0  0
 47 65  1  0  0  0  0
 50 60  1  0  0  0  0
 51 61  1  0  0  0  0
 52 61  1  0  0  0  0
 53 61  1  0  0  0  0
 54 73  1  0  0  0  0
 55 80  1  0  0  0  0
 56 57  1  0  0  0  0
 56 58  1  0  0  0  0
 57 64  1  0  0  0  0
 58 72  1  0  0  0  0
 59 61  1  0  0  0  0
 59 71  1  0  0  0  0
 60 73  1  0  0  0  0
 62 65  1  0  0  0  0
 63 64  1  0  0  0  0
M  CHG  1  73   1
M  ISO  4  35 100  55 101  72 100  80 101
M  END
> <Batch ID>
0044

> <Smiles>
CNC(C)C(=O)NC(C(=O)N1Cc2cc([101O:1][101CH2:1]c3c(C)nn(CCC[100NH:0][100C:0](=O)N4CCCC(n5nc(-c6ccc(Oc7ccc(F)cc7F)cc6)c(C(N)=O)c5N)C4)c3C)ccc2CC1C(=O)NC1CCCc2ccccc21)C(C)(C)C

> <Shape>
0.205

> <Color>
0.068

> <Negative vol penalty>
0.000

$$$$

  -OEChem-04052317173D

 81 89  0     1  0  0  0  0  0999 V2000
  -28.1066  -22.3588   26.3522 C   0  0  0  0  0  0  0  0  0  0  0  0
  -27.4173  -21.5840   25.4249 C   0  0  0  0  0  0  0  0  0  0  0  0
  -26.3710  -27.9354   18.7816 C   0  0  0  0  0  0  0  0  0  0  0  0
  -26.0601  -27.0780   21.0188 C   0  0  0  0  0  0  0  0  0  0  0  0
  -29.2765  -23.0175   25.9764 C   0  0  0  0  0  0  0  0  0  0  0  0
  -27.8970  -21.4683   24.1207 C   0  0  0  0  0  0  0  0  0  0  0  0
  -27.7742  -16.6995   22.4212 C   0  0  0  0  0  0  0  0  0  0  0  0
  -25.8579  -29.1688   19.1829 C   0  0  0  0  0  0  0  0  0  0  0  0
  -25.5470  -28.3114   21.4202 C   0  0  0  0  0  0  0  0  0  0  0  0
  -26.5398  -16.2040   22.0034 C   0  0  0  0  0  0  0  0  0  0  0  0
  -26.7533  -31.3512   22.2715 C   0  0  0  0  0  0  0  0  0  0  0  0
  -27.2085  -31.8786   23.4799 C   0  0  0  0  0  0  0  0  0  0  0  0
  -27.1586  -16.6147   19.7083 C   0  0  0  0  0  0  0  0  0  0  0  0
  -24.9485  -31.8724   24.3340 C   0  0  0  0  0  0  0  0  0  0  0  0
  -26.4721  -26.8900   19.6995 C   0  0  0  0  0  0  0  0  0  0  0  0
  -28.3475  -25.2040   19.3149 C   0  0  0  0  0  0  0  0  0  0  0  0
  -29.7760  -22.9021   24.6695 C   0  0  0  0  0  0  0  0  0  0  0  0
  -28.7074  -17.1672   21.4848 C   0  0  0  0  0  0  0  0  0  0  0  0
  -29.0740  -22.1272   23.7266 C   0  0  0  0  0  0  0  0  0  0  0  0
  -28.4052  -17.1133   20.1166 C   0  0  0  0  0  0  0  0  0  0  0  0
  -22.2947  -15.1284   19.3896 C   0  0  0  0  0  0  0  0  0  0  0  0
  -25.4459  -29.3568   20.5022 C   0  0  0  0  0  0  0  0  0  0  0  0
  -26.2307  -16.1643   20.6470 C   0  0  0  0  0  0  0  0  0  0  0  0
  -25.3956  -31.0845   22.0943 C   0  0  0  0  0  0  0  0  0  0  0  0
  -26.3061  -32.1391   24.5112 C   0  0  0  0  0  0  0  0  0  0  0  0
  -24.4933  -31.3451   23.1255 C   0  0  0  0  0  0  0  0  0  0  0  0
  -27.0015  -25.6155   19.2854 C   0  0  0  0  0  0  0  0  0  0  0  0
  -22.8774  -14.7152   20.6001 C   0  0  0  0  0  0  0  0  0  0  0  0
  -21.1842  -14.3348   19.2751 C   0  0  0  0  0  0  0  0  0  0  0  0
  -28.3255  -23.9223   18.8216 C   0  0  0  0  0  0  0  0  0  0  0  0
  -29.5133  -25.9165   19.7495 C   0  0  0  0  0  0  0  0  0  0  0  0
  -30.0941  -19.9684   20.9067 C   0  0  0  0  0  0  0  0  0  0  0  0
  -23.9976  -19.8556   18.7407 C   0  0  0  0  0  0  0  0  0  0  0  0
  -31.7956  -18.2408   18.7520 C   0  0  0  0  0  0  0  0  0  0  0  0
  -31.9856  -15.4815   16.7528 C   0  0  0  0  0  0  0  0  0  0  0  0
  -31.0189  -23.6708   24.2970 C   0  0  0  0  0  0  0  0  0  0  0  0
  -30.0450  -17.6738   21.9500 C   0  0  0  0  0  0  0  0  0  0  0  0
  -29.3803  -17.5844   19.0699 C   0  0  0  0  0  0  0  0  0  0  0  0
  -31.6635  -23.1941   22.9979 C   0  0  0  0  0  0  0  0  0  0  0  0
  -25.8688  -21.0785   15.8719 C   0  0  0  0  0  0  0  0  0  0  0  0
  -30.6077  -23.0196   21.9108 C   0  0  0  0  0  0  0  0  0  0  0  0
  -26.4729  -22.3674   16.4278 C   0  0  0  0  0  0  0  0  0  0  0  0
  -24.4748  -20.8220   16.4385 C   0  0  0  0  0  0  0  0  0  0  0  0
  -25.0293  -22.0904   18.4899 C   0  0  0  0  0  0  0  0  0  0  0  0
  -29.5761  -21.9572   22.3092 C   0  0  1  0  0  0  0  0  0  0  0  0
  -30.7164  -18.6012   20.9417 C   0  0  1  0  0  0  0  0  0  0  0  0
  -26.4480  -22.3697   17.9663 C   0  0  2  0  0  0  0  0  0  0  0  0
  -20.1160  -14.2140   18.2743 C   0  0  0  0  0  0  0  0  0  0  0  0
  -33.4820  -14.3612   15.0786 C   0  0  0  0  0  0  0  0  0  0  0  0
  -21.5237  -18.0540   19.6478 C   0  0  0  0  0  0  0  0  0  0  0  0
  -30.9620  -20.2831   16.6439 C   0  0  0  0  0  0  0  0  0  0  0  0
  -31.6566  -18.6450   14.8826 C   0  0  0  0  0  0  0  0  0  0  0  0
  -33.3439  -19.5368   16.4890 C   0  0  0  0  0  0  0  0  0  0  0  0
  -32.2574  -13.0649   18.4395 C   0  0  0  0  0  0  0  0  0  0  0  0
  -22.7629  -16.1685   18.4593 C   0  0  0  0  0  0  0  0  0  0  0  0
  -24.1271  -15.2328   21.2494 C   0  0  0  0  0  0  0  0  0  1  0  0
  -23.4130  -18.6406   18.0657 C   0  0  0  0  0  0  0  0  0  0  0  0
  -31.6201  -17.8738   17.2982 C   0  0  1  0  0  0  0  0  0  0  0  0
  -33.0914  -14.4625   16.5448 C   0  0  2  0  0  0  0  0  0  0  0  0
  -22.8667  -17.6036   19.0615 C   0  0  1  0  0  0  0  0  0  0  0  0
  -31.8763  -19.0775   16.3480 C   0  0  0  0  0  0  0  0  0  0  0  0
  -26.1841  -24.6719   18.8106 N   0  0  0  0  0  0  0  0  0  0  0  0
  -22.1814  -13.7399   21.1912 N   0  0  0  0  0  0  0  0  0  0  0  0
  -27.0187  -23.6547   18.5373 N   0  0  0  0  0  0  0  0  0  0  0  0
  -30.6725  -18.0769   19.5752 N   0  0  0  0  0  0  0  0  0  0  0  0
  -24.4884  -20.8597   17.9057 N   0  0  0  0  0  0  0  0  0  0  0  0
  -29.2968  -23.0095   18.6075 N   0  0  0  0  0  0  0  0  0  0  0  0
  -29.3572  -27.2244   20.2283 N   0  0  0  0  0  0  0  0  0  0  0  0
  -30.1193  -20.6293   22.1200 N   0  0  0  0  0  0  0  0  0  0  0  0
  -32.4903  -16.7276   17.0586 N   0  0  0  0  0  0  0  0  0  0  0  0
  -32.6493  -13.1166   17.0075 N   0  3  0  0  0  0  0  0  0  0  0  0
  -30.6616  -25.4142   19.6990 O   0  0  0  0  0  0  0  0  0  0  0  0
  -29.6270  -20.3929   19.8563 O   0  0  0  0  0  0  0  0  0  0  0  0
  -24.0190  -19.9077   19.9732 O   0  0  0  0  0  0  0  0  0  0  0  0
  -32.8909  -18.6507   19.1443 O   0  0  0  0  0  0  0  0  0  0  0  0
  -30.7934  -15.2009   16.6503 O   0  0  0  0  0  0  0  0  0  0  0  0
  -21.1056  -13.5019   20.3442 O   0  0  0  0  0  0  0  0  0  0  0  0
  -24.9454  -30.5603   20.8942 O   0  0  0  0  0  0  0  0  0  0  0  0
  -25.0263  -15.6818   20.2365 O   0  0  0  0  0  0  0  0  0  1  0  0
  -26.7436  -32.6441   25.6721 F   0  0  0  0  0  0  0  0  0  0  0  0
  -23.1880  -31.0898   22.9615 F   0  0  0  0  0  0  0  0  0  0  0  0
  1  2  1  0  0  0  0
  1  5  2  0  0  0  0
  2  6  2  0  0  0  0
  3  8  2  0  0  0  0
  3 15  1  0  0  0  0
  4  9  1  0  0  0  0
  4 15  2  0  0  0  0
  5 17  1  0  0  0  0
  6 19  1  0  0  0  0
  7 10  2  0  0  0  0
  7 18  1  0  0  0  0
  8 22  1  0  0  0  0
  9 22  2  0  0  0  0
 10 23  1  0  0  0  0
 11 12  2  0  0  0  0
 11 24  1  0  0  0  0
 12 25  1  0  0  0  0
 13 20  1  0  0  0  0
 13 23  2  0  0  0  0
 14 25  2  0  0  0  0
 14 26  1  0  0  0  0
 15 27  1  0  0  0  0
 16 27  1  0  0  0  0
 16 30  2  0  0  0  0
 16 31  1  0  0  0  0
 17 19  2  0  0  0  0
 17 36  1  0  0  0  0
 18 20  2  0  0  0  0
 18 37  1  0  0  0  0
 19 45  1  0  0  0  0
 20 38  1  0  0  0  0
 21 28  1  0  0  0  0
 21 29  2  0  0  0  0
 21 55  1  0  0  0  0
 22 78  1  0  0  0  0
 23 79  1  0  0  0  0
 24 26  2  0  0  0  0
 24 78  1  0  0  0  0
 25 80  1  0  0  0  0
 26 81  1  0  0  0  0
 27 62  2  0  0  0  0
 28 56  1  0  0  0  0
 28 63  2  0  0  0  0
 29 48  1  0  0  0  0
 29 77  1  0  0  0  0
 30 64  1  0  0  0  0
 30 67  1  0  0  0  0
 31 68  1  0  0  0  0
 31 72  2  0  0  0  0
 32 46  1  0  0  0  0
 32 69  1  0  0  0  0
 32 73  2  0  0  0  0
 33 57  1  0  0  0  0
 33 66  1  0  0  0  0
 33 74  2  0  0  0  0
 34 58  1  0  0  0  0
 34 65  1  0  0  0  0
 34 75  2  0  0  0  0
 35 59  1  0  0  0  0
 35 70  1  0  0  0  0
 35 76  2  0  0  0  0
 36 39  1  0  0  0  0
 37 46  1  0  0  0  0
 38 65  1  0  0  0  0
 39 41  1  0  0  0  0
 40 42  1  0  0  0  0
 40 43  1  0  0  0  0
 41 45  1  0  0  0  0
 42 47  1  0  0  0  0
 43 66  1  0  0  0  0
 44 47  1  0  0  0  0
 44 66  1  0  0  0  0
 45 69  1  0  0  0  0
 46 65  1  0  0  0  0
 47 64  1  0  0  0  0
 49 59  1  0  0  0  0
 50 60  1  0  0  0  0
 51 61  1  0  0  0  0
 52 61  1  0  0  0  0
 53 61  1  0  0  0  0
 54 71  1  0  0  0  0
 55 60  1  0  0  0  0
 56 79  1  0  0  0  0
 57 60  1  0  0  0  0
 58 61  1  0  0  0  0
 58 70  1  0  0  0  0
 59 71  1  0  0  0  0
 62 64  1  0  0  0  0
 63 77  1  0  0  0  0
M  CHG  1  71   1
M  ISO  4  33 100  56 101  57 100  79 101
M  END
> <Batch ID>
0044

> <Smiles>
CNC(C)C(=O)NC(C(=O)N1Cc2cc([101O:1][101CH2:1]c3noc(C)c3CC(C)[100CH2:0][100C:0](=O)N3CCCC(n4nc(-c5ccc(Oc6ccc(F)cc6F)cc5)c(C(N)=O)c4N)C3)ccc2CC1C(=O)NC1CCCc2ccccc21)C(C)(C)C

> <Shape>
0.185

> <Color>
0.093

> <Negative vol penalty>
0.000

$$$$

  -OEChem-04052317173D

 83 91  0     1  0  0  0  0  0999 V2000
  -28.3531  -32.5622   26.9776 C   0  0  0  0  0  0  0  0  0  0  0  0
  -28.5802  -31.2669   26.5236 C   0  0  0  0  0  0  0  0  0  0  0  0
  -23.4668   -9.6909   21.6368 C   0  0  0  0  0  0  0  0  0  0  0  0
  -24.0646  -10.8886   23.6481 C   0  0  0  0  0  0  0  0  0  0  0  0
  -27.1863  -33.2328   26.6131 C   0  0  0  0  0  0  0  0  0  0  0  0
  -27.6401  -30.6411   25.7057 C   0  0  0  0  0  0  0  0  0  0  0  0
  -28.7632  -26.7082   21.1475 C   0  0  0  0  0  0  0  0  0  0  0  0
  -22.8699   -8.6937   22.4081 C   0  0  0  0  0  0  0  0  0  0  0  0
  -23.4677   -9.8914   24.4194 C   0  0  0  0  0  0  0  0  0  0  0  0
  -28.7296  -25.3161   21.0801 C   0  0  0  0  0  0  0  0  0  0  0  0
  -23.8631   -6.0296   24.2358 C   0  0  0  0  0  0  0  0  0  0  0  0
  -24.1302   -4.7029   23.8979 C   0  0  0  0  0  0  0  0  0  0  0  0
  -26.4877  -25.4190   20.1956 C   0  0  0  0  0  0  0  0  0  0  0  0
  -21.7737   -4.3241   23.5225 C   0  0  0  0  0  0  0  0  0  0  0  0
  -24.0642  -10.7884   22.2568 C   0  0  0  0  0  0  0  0  0  0  0  0
  -24.0702  -12.9798   20.9510 C   0  0  0  0  0  0  0  0  0  0  0  0
  -26.2359  -32.6184   25.7825 C   0  0  0  0  0  0  0  0  0  0  0  0
  -27.6534  -27.4671   20.7490 C   0  0  0  0  0  0  0  0  0  0  0  0
  -26.4589  -31.3036   25.3309 C   0  0  0  0  0  0  0  0  0  0  0  0
  -26.5107  -26.8208   20.2564 C   0  0  0  0  0  0  0  0  0  0  0  0
  -27.2810  -20.5776   19.1404 C   0  0  0  0  0  0  0  0  0  0  0  0
  -22.8704   -8.7939   23.7993 C   0  0  0  0  0  0  0  0  0  0  0  0
  -27.5906  -24.6711   20.6068 C   0  0  0  0  0  0  0  0  0  0  0  0
  -22.5513   -6.5035   24.2172 C   0  0  0  0  0  0  0  0  0  0  0  0
  -23.0855   -3.8502   23.5412 C   0  0  0  0  0  0  0  0  0  0  0  0
  -21.5067   -5.6508   23.8605 C   0  0  0  0  0  0  0  0  0  0  0  0
  -24.6814  -11.8186   21.4607 C   0  0  0  0  0  0  0  0  0  0  0  0
  -27.3438  -19.2044   19.2614 C   0  0  0  0  0  0  0  0  0  0  0  0
  -26.5012  -21.2245   20.0772 C   0  0  0  0  0  0  0  0  0  0  0  0
  -25.0733  -13.6250   20.2697 C   0  0  0  0  0  0  0  0  0  0  0  0
  -25.9715  -19.2509   21.0730 C   0  0  0  0  0  0  0  0  0  0  0  0
  -22.7169  -13.4348   21.0819 C   0  0  0  0  0  0  0  0  0  0  0  0
  -25.6857  -29.4973   22.2016 C   0  0  0  0  0  0  0  0  0  0  0  0
  -24.5304  -29.9176   19.1998 C   0  0  0  0  0  0  0  0  0  0  0  0
  -24.1217  -28.6663   16.0511 C   0  0  0  0  0  0  0  0  0  0  0  0
  -30.3452  -15.4226   19.9222 C   0  0  0  0  0  0  0  0  0  0  0  0
  -24.9677  -33.3657   25.4540 C   0  0  0  0  0  0  0  0  0  0  0  0
  -27.7154  -28.9690   20.8027 C   0  0  0  0  0  0  0  0  0  0  0  0
  -25.3002  -27.5904   19.7971 C   0  0  0  0  0  0  0  0  0  0  0  0
  -24.1971  -32.7703   24.2785 C   0  0  0  0  0  0  0  0  0  0  0  0
  -29.7001  -12.0562   18.9591 C   0  0  0  0  0  0  0  0  0  0  0  0
  -24.0881  -31.2558   24.4237 C   0  0  0  0  0  0  0  0  0  0  0  0
  -28.2897  -11.7885   19.4873 C   0  0  0  0  0  0  0  0  0  0  0  0
  -30.4973  -12.9502   19.9064 C   0  0  0  0  0  0  0  0  0  0  0  0
  -28.4265  -13.9524   20.7902 C   0  0  0  0  0  0  0  0  0  0  0  0
  -25.4744  -30.6003   24.4219 C   0  0  1  0  0  0  0  0  0  0  0  0
  -26.3378  -29.6225   20.8538 C   0  0  1  0  0  0  0  0  0  0  0  0
  -27.5652  -13.1010   19.8418 C   0  0  2  0  0  0  0  0  0  0  0  0
  -28.0081  -21.3123   18.0706 C   0  0  0  0  0  0  0  0  0  0  0  0
  -25.2466  -18.5144   22.1480 C   0  0  0  0  0  0  0  0  0  0  0  0
  -23.1034  -29.2242   13.8265 C   0  0  0  0  0  0  0  0  0  0  0  0
  -21.7603  -29.2858   20.3121 C   0  0  0  0  0  0  0  0  0  0  0  0
  -20.9761  -28.9227   17.9623 C   0  0  0  0  0  0  0  0  0  0  0  0
  -21.8184  -31.1641   18.6619 C   0  0  0  0  0  0  0  0  0  0  0  0
  -26.7478  -28.5559   14.6909 C   0  0  0  0  0  0  0  0  0  0  0  0
  -28.1576  -18.3974   18.3039 C   0  0  0  0  0  0  0  0  0  0  0  0
  -26.3560  -22.7175   20.0457 C   0  0  0  0  0  0  0  0  0  1  0  0
  -29.6697  -18.3952   18.5989 C   0  0  0  0  0  0  0  0  0  0  0  0
  -30.0386  -17.8844   19.9901 C   0  0  0  0  0  0  0  0  0  0  0  0
  -23.4567  -29.2614   18.3659 C   0  0  1  0  0  0  0  0  0  0  0  0
  -24.3580  -29.2822   14.6839 C   0  0  2  0  0  0  0  0  0  0  0  0
  -22.0248  -29.6437   18.8360 C   0  0  0  0  0  0  0  0  0  0  0  0
  -25.9726  -11.7284   21.1311 N   0  0  0  0  0  0  0  0  0  0  0  0
  -26.6994  -18.5061   20.2193 N   0  0  0  0  0  0  0  0  0  0  0  0
  -25.8300  -20.5901   21.0608 N   0  0  0  0  0  0  0  0  0  0  0  0
  -26.1810  -12.8412   20.4070 N   0  0  0  0  0  0  0  0  0  0  0  0
  -25.4072  -29.0567   19.8750 N   0  0  0  0  0  0  0  0  0  0  0  0
  -29.7556  -14.1786   20.2011 N   0  0  0  0  0  0  0  0  0  0  0  0
  -25.1069  -14.7804   19.5724 N   0  0  0  0  0  0  0  0  0  0  0  0
  -21.8164  -12.6506   21.8156 N   0  0  0  0  0  0  0  0  0  0  0  0
  -25.9954  -30.5233   23.0739 N   0  0  0  0  0  0  0  0  0  0  0  0
  -23.7443  -29.6133   16.9796 N   0  0  0  0  0  0  0  0  0  0  0  0
  -29.5718  -16.5364   20.2259 N   0  0  0  0  0  0  0  0  0  0  0  0
  -25.4483  -28.5582   13.9711 N   0  3  0  0  0  0  0  0  0  0  0  0
  -22.3138  -14.4968   20.5496 O   0  0  0  0  0  0  0  0  0  0  0  0
  -24.9545  -28.5415   22.4326 O   0  0  0  0  0  0  0  0  0  0  0  0
  -24.5935  -31.1487   19.2446 O   0  0  0  0  0  0  0  0  0  0  0  0
  -24.2547  -27.4647   16.2724 O   0  0  0  0  0  0  0  0  0  0  0  0
  -31.4748  -15.5325   19.4335 O   0  0  0  0  0  0  0  0  0  0  0  0
  -22.2879   -7.8211   24.5522 O   0  0  0  0  0  0  0  0  0  0  0  0
  -27.5549  -23.3124   20.5407 O   0  0  0  0  0  0  0  0  0  1  0  0
  -23.3423   -2.5766   23.2151 F   0  0  0  0  0  0  0  0  0  0  0  0
  -20.2445   -6.1007   23.8397 F   0  0  0  0  0  0  0  0  0  0  0  0
  1  2  1  0  0  0  0
  1  5  2  0  0  0  0
  2  6  2  0  0  0  0
  3  8  2  0  0  0  0
  3 15  1  0  0  0  0
  4  9  1  0  0  0  0
  4 15  2  0  0  0  0
  5 17  1  0  0  0  0
  6 19  1  0  0  0  0
  7 10  2  0  0  0  0
  7 18  1  0  0  0  0
  8 22  1  0  0  0  0
  9 22  2  0  0  0  0
 10 23  1  0  0  0  0
 11 12  2  0  0  0  0
 11 24  1  0  0  0  0
 12 25  1  0  0  0  0
 13 20  1  0  0  0  0
 13 23  2  0  0  0  0
 14 25  2  0  0  0  0
 14 26  1  0  0  0  0
 15 27  1  0  0  0  0
 16 27  1  0  0  0  0
 16 30  2  0  0  0  0
 16 32  1  0  0  0  0
 17 19  2  0  0  0  0
 17 37  1  0  0  0  0
 18 20  2  0  0  0  0
 18 38  1  0  0  0  0
 19 46  1  0  0  0  0
 20 39  1  0  0  0  0
 21 28  1  0  0  0  0
 21 29  2  0  0  0  0
 21 49  1  0  0  0  0
 22 80  1  0  0  0  0
 23 81  1  0  0  0  0
 24 26  2  0  0  0  0
 24 80  1  0  0  0  0
 25 82  1  0  0  0  0
 26 83  1  0  0  0  0
 27 63  2  0  0  0  0
 28 56  1  0  0  0  0
 28 64  2  0  0  0  0
 29 57  1  0  0  0  0
 29 65  1  0  0  0  0
 30 66  1  0  0  0  0
 30 69  1  0  0  0  0
 31 50  1  0  0  0  0
 31 64  1  0  0  0  0
 31 65  2  0  0  0  0
 32 70  1  0  0  0  0
 32 75  2  0  0  0  0
 33 47  1  0  0  0  0
 33 71  1  0  0  0  0
 33 76  2  0  0  0  0
 34 60  1  0  0  0  0
 34 67  1  0  0  0  0
 34 77  2  0  0  0  0
 35 61  1  0  0  0  0
 35 72  1  0  0  0  0
 35 78  2  0  0  0  0
 36 68  1  0  0  0  0
 36 73  1  0  0  0  0
 36 79  2  0  0  0  0
 37 40  1  0  0  0  0
 38 47  1  0  0  0  0
 39 67  1  0  0  0  0
 40 42  1  0  0  0  0
 41 43  1  0  0  0  0
 41 44  1  0  0  0  0
 42 46  1  0  0  0  0
 43 48  1  0  0  0  0
 44 68  1  0  0  0  0
 45 48  1  0  0  0  0
 45 68  1  0  0  0  0
 46 71  1  0  0  0  0
 47 67  1  0  0  0  0
 48 66  1  0  0  0  0
 51 61  1  0  0  0  0
 52 62  1  0  0  0  0
 53 62  1  0  0  0  0
 54 62  1  0  0  0  0
 55 74  1  0  0  0  0
 56 58  1  0  0  0  0
 57 81  1  0  0  0  0
 58 59  1  0  0  0  0
 59 73  1  0  0  0  0
 60 62  1  0  0  0  0
 60 72  1  0  0  0  0
 61 74  1  0  0  0  0
 63 66  1  0  0  0  0
M  CHG  1  74   1
M  ISO  4  36 100  57 101  73 100  81 101
M  END
> <Batch ID>
0044

> <Smiles>
CNC(C)C(=O)NC(C(=O)N1Cc2cc([101O:1][101CH2:1]c3nc(C)nc(CCC[100NH:0][100C:0](=O)N4CCCC(n5nc(-c6ccc(Oc7ccc(F)cc7F)cc6)c(C(N)=O)c5N)C4)c3C)ccc2CC1C(=O)NC1CCCc2ccccc21)C(C)(C)C

> <Shape>
0.308

> <Color>
0.133

> <Negative vol penalty>
0.000

$$$$

  -OEChem-04052317173D

 80 88  0     1  0  0  0  0  0999 V2000
  -27.7005  -24.7284   16.4360 C   0  0  0  0  0  0  0  0  0  0  0  0
  -26.5132  -24.9963   17.1097 C   0  0  0  0  0  0  0  0  0  0  0  0
  -26.1505  -14.0370   19.9555 C   0  0  0  0  0  0  0  0  0  0  0  0
  -23.7426  -14.0051   20.1505 C   0  0  0  0  0  0  0  0  0  0  0  0
  -28.9200  -25.1011   17.0000 C   0  0  0  0  0  0  0  0  0  0  0  0
  -26.5447  -25.6360   18.3484 C   0  0  0  0  0  0  0  0  0  0  0  0
  -23.0775  -29.3075   18.7274 C   0  0  0  0  0  0  0  0  0  0  0  0
  -26.2266  -12.8619   20.7032 C   0  0  0  0  0  0  0  0  0  0  0  0
  -23.8187  -12.8299   20.8981 C   0  0  0  0  0  0  0  0  0  0  0  0
  -21.7612  -28.9176   18.9703 C   0  0  0  0  0  0  0  0  0  0  0  0
  -23.3564   -9.6254   22.5520 C   0  0  0  0  0  0  0  0  0  0  0  0
  -22.4679   -8.5971   22.2376 C   0  0  0  0  0  0  0  0  0  0  0  0
  -22.0413  -29.4492   21.3066 C   0  0  0  0  0  0  0  0  0  0  0  0
  -23.3719   -8.5004   19.9991 C   0  0  0  0  0  0  0  0  0  0  0  0
  -20.0066  -24.3836   22.3701 C   0  0  0  0  0  0  0  0  0  0  0  0
  -24.9084  -14.6086   19.6792 C   0  0  0  0  0  0  0  0  0  0  0  0
  -24.7142  -15.9351   17.5089 C   0  0  0  0  0  0  0  0  0  0  0  0
  -28.9659  -25.7543   18.2416 C   0  0  0  0  0  0  0  0  0  0  0  0
  -23.8904  -29.7617   19.7759 C   0  0  0  0  0  0  0  0  0  0  0  0
  -27.7660  -26.0166   18.9300 C   0  0  0  0  0  0  0  0  0  0  0  0
  -23.3668  -29.8467   21.0739 C   0  0  0  0  0  0  0  0  0  0  0  0
  -25.0608  -12.2584   21.1744 C   0  0  0  0  0  0  0  0  0  0  0  0
  -21.2438  -28.9856   20.2606 C   0  0  0  0  0  0  0  0  0  0  0  0
  -24.2526  -10.0912   21.5899 C   0  0  0  0  0  0  0  0  0  0  0  0
  -22.4757   -8.0346   20.9612 C   0  0  0  0  0  0  0  0  0  0  0  0
  -24.2604   -9.5287   20.3135 C   0  0  0  0  0  0  0  0  0  0  0  0
  -24.8292  -15.8228   18.9075 C   0  0  0  0  0  0  0  0  0  0  0  0
  -21.7859  -23.8951   21.3090 C   0  0  0  0  0  0  0  0  0  0  0  0
  -21.0785  -24.7293   20.4759 C   0  0  0  0  0  0  0  0  0  0  0  0
  -24.6765  -17.2880   17.2751 C   0  0  0  0  0  0  0  0  0  0  0  0
  -24.6475  -14.9083   16.5104 C   0  0  0  0  0  0  0  0  0  0  0  0
  -26.6014  -28.7675   21.1046 C   0  0  0  0  0  0  0  0  0  0  0  0
  -22.9661  -21.7927   20.7476 C   0  0  0  0  0  0  0  0  0  0  0  0
  -26.3482  -31.5411   22.7676 C   0  0  0  0  0  0  0  0  0  0  0  0
  -24.3403  -34.0236   23.9728 C   0  0  0  0  0  0  0  0  0  0  0  0
  -30.3106  -26.0955   18.8331 C   0  0  0  0  0  0  0  0  0  0  0  0
  -25.2998  -30.2039   19.4926 C   0  0  0  0  0  0  0  0  0  0  0  0
  -24.1919  -30.3464   22.2306 C   0  0  0  0  0  0  0  0  0  0  0  0
  -30.2351  -27.1052   19.9756 C   0  0  0  0  0  0  0  0  0  0  0  0
  -26.1779  -21.4506   19.0759 C   0  0  0  0  0  0  0  0  0  0  0  0
  -29.1277  -26.7237   20.9528 C   0  0  0  0  0  0  0  0  0  0  0  0
  -26.1910  -19.9597   18.7412 C   0  0  0  0  0  0  0  0  0  0  0  0
  -25.4844  -21.7206   20.4086 C   0  0  0  0  0  0  0  0  0  0  0  0
  -24.1081  -19.6796   20.1541 C   0  0  0  0  0  0  0  0  0  0  0  0
  -27.7576  -26.7310   20.2641 C   0  0  1  0  0  0  0  0  0  0  0  0
  -26.1977  -30.1642   20.7253 C   0  0  1  0  0  0  0  0  0  0  0  0
  -24.7719  -19.3678   18.8024 C   0  0  2  0  0  0  0  0  0  0  0  0
  -21.3691  -25.2503   19.1283 C   0  0  0  0  0  0  0  0  0  0  0  0
  -24.4153  -36.1346   25.3276 C   0  0  0  0  0  0  0  0  0  0  0  0
  -26.6259  -29.8909   25.3190 C   0  0  0  0  0  0  0  0  0  0  0  0
  -25.7562  -31.8568   26.6023 C   0  0  0  0  0  0  0  0  0  0  0  0
  -27.8924  -32.0473   25.3284 C   0  0  0  0  0  0  0  0  0  0  0  0
  -23.3239  -35.6457   21.7157 C   0  0  0  0  0  0  0  0  0  0  0  0
  -23.0921  -23.2594   21.0744 C   0  0  0  0  0  0  0  0  0  0  0  0
  -18.5167  -27.0825   21.6654 C   0  0  0  0  0  0  0  0  0  0  0  0
  -18.8120  -25.9225   20.7120 C   0  0  0  0  0  0  0  0  0  0  0  0
  -19.6713  -28.0696   21.7916 C   0  0  0  0  0  0  0  0  0  1  0  0
  -25.7024  -31.9524   24.0687 C   0  0  1  0  0  0  0  0  0  0  0  0
  -24.4722  -35.5353   23.9310 C   0  0  2  0  0  0  0  0  0  0  0  0
  -26.4790  -31.4256   25.3084 C   0  0  0  0  0  0  0  0  0  0  0  0
  -21.1131  -23.6836   22.4864 N   0  0  0  0  0  0  0  0  0  0  0  0
  -24.8624  -17.0097   19.5191 N   0  0  0  0  0  0  0  0  0  0  0  0
  -19.9409  -25.0336   21.1691 N   0  0  0  0  0  0  0  0  0  0  0  0
  -24.7679  -17.8807   18.5000 N   0  0  0  0  0  0  0  0  0  0  0  0
  -25.5662  -30.7611   21.9039 N   0  0  0  0  0  0  0  0  0  0  0  0
  -24.1466  -21.1172   20.4370 N   0  0  0  0  0  0  0  0  0  0  0  0
  -24.5745  -18.0166   16.1432 N   0  0  0  0  0  0  0  0  0  0  0  0
  -24.6994  -13.5701   16.9237 N   0  0  0  0  0  0  0  0  0  0  0  0
  -27.2768  -28.0872   20.1094 N   0  0  0  0  0  0  0  0  0  0  0  0
  -25.5715  -33.4045   24.0183 N   0  0  0  0  0  0  0  0  0  0  0  0
  -23.3722  -36.1290   23.1196 N   0  3  0  0  0  0  0  0  0  0  0  0
  -24.5613  -15.1700   15.2867 O   0  0  0  0  0  0  0  0  0  0  0  0
  -26.3222  -28.3393   22.2184 O   0  0  0  0  0  0  0  0  0  0  0  0
  -21.8508  -21.2656   20.7655 O   0  0  0  0  0  0  0  0  0  0  0  0
  -27.5014  -31.9046   22.5234 O   0  0  0  0  0  0  0  0  0  0  0  0
  -23.2536  -33.4494   23.9694 O   0  0  0  0  0  0  0  0  0  0  0  0
  -25.1347  -11.1116   21.9038 O   0  0  0  0  0  0  0  0  0  0  0  0
  -19.9595  -28.6051   20.5007 O   0  0  0  0  0  0  0  0  0  1  0  0
  -21.6234   -7.0461   20.6599 F   0  0  0  0  0  0  0  0  0  0  0  0
  -25.1199   -9.9712   19.3855 F   0  0  0  0  0  0  0  0  0  0  0  0
  1  2  1  0  0  0  0
  1  5  2  0  0  0  0
  2  6  2  0  0  0  0
  3  8  2  0  0  0  0
  3 16  1  0  0  0  0
  4  9  1  0  0  0  0
  4 16  2  0  0  0  0
  5 18  1  0  0  0  0
  6 20  1  0  0  0  0
  7 10  2  0  0  0  0
  7 19  1  0  0  0  0
  8 22  1  0  0  0  0
  9 22  2  0  0  0  0
 10 23  1  0  0  0  0
 11 12  2  0  0  0  0
 11 24  1  0  0  0  0
 12 25  1  0  0  0  0
 13 21  1  0  0  0  0
 13 23  2  0  0  0  0
 14 25  2  0  0  0  0
 14 26  1  0  0  0  0
 15 61  2  0  0  0  0
 15 63  1  0  0  0  0
 16 27  1  0  0  0  0
 17 27  1  0  0  0  0
 17 30  2  0  0  0  0
 17 31  1  0  0  0  0
 18 20  2  0  0  0  0
 18 36  1  0  0  0  0
 19 21  2  0  0  0  0
 19 37  1  0  0  0  0
 20 45  1  0  0  0  0
 21 38  1  0  0  0  0
 22 77  1  0  0  0  0
 23 78  1  0  0  0  0
 24 26  2  0  0  0  0
 24 77  1  0  0  0  0
 25 79  1  0  0  0  0
 26 80  1  0  0  0  0
 27 62  2  0  0  0  0
 28 29  2  0  0  0  0
 28 54  1  0  0  0  0
 28 61  1  0  0  0  0
 29 48  1  0  0  0  0
 29 63  1  0  0  0  0
 30 64  1  0  0  0  0
 30 67  1  0  0  0  0
 31 68  1  0  0  0  0
 31 72  2  0  0  0  0
 32 46  1  0  0  0  0
 32 69  1  0  0  0  0
 32 73  2  0  0  0  0
 33 54  1  0  0  0  0
 33 66  1  0  0  0  0
 33 74  2  0  0  0  0
 34 58  1  0  0  0  0
 34 65  1  0  0  0  0
 34 75  2  0  0  0  0
 35 59  1  0  0  0  0
 35 70  1  0  0  0  0
 35 76  2  0  0  0  0
 36 39  1  0  0  0  0
 37 46  1  0  0  0  0
 38 65  1  0  0  0  0
 39 41  1  0  0  0  0
 40 42  1  0  0  0  0
 40 43  1  0  0  0  0
 41 45  1  0  0  0  0
 42 47  1  0  0  0  0
 43 66  1  0  0  0  0
 44 47  1  0  0  0  0
 44 66  1  0  0  0  0
 45 69  1  0  0  0  0
 46 65  1  0  0  0  0
 47 64  1  0  0  0  0
 49 59  1  0  0  0  0
 50 60  1  0  0  0  0
 51 60  1  0  0  0  0
 52 60  1  0  0  0  0
 53 71  1  0  0  0  0
 55 56  1  0  0  0  0
 55 57  1  0  0  0  0
 56 63  1  0  0  0  0
 57 78  1  0  0  0  0
 58 60  1  0  0  0  0
 58 70  1  0  0  0  0
 59 71  1  0  0  0  0
 62 64  1  0  0  0  0
M  CHG  1  71   1
M  ISO  4  33 100  54 100  57 101  78 101
M  END
> <Batch ID>
0044

> <Smiles>
CNC(C)C(=O)NC(C(=O)N1Cc2cc([101O:1][101CH2:1]CCn3cnc([100CH2:0][100C:0](=O)N4CCCC(n5nc(-c6ccc(Oc7ccc(F)cc7F)cc6)c(C(N)=O)c5N)C4)c3C)ccc2CC1C(=O)NC1CCCc2ccccc21)C(C)(C)C

> <Shape>
0.276

> <Color>
0.085

> <Negative vol penalty>
0.000

$$$$

  -OEChem-04052317173D

 84 92  0     1  0  0  0  0  0999 V2000
  -17.9699  -30.5931   23.5387 C   0  0  0  0  0  0  0  0  0  0  0  0
  -19.3586  -30.6442   23.6042 C   0  0  0  0  0  0  0  0  0  0  0  0
  -27.2352  -17.5358   19.5771 C   0  0  0  0  0  0  0  0  0  0  0  0
  -28.5512  -17.8468   21.5792 C   0  0  0  0  0  0  0  0  0  0  0  0
  -17.3355  -29.4238   23.1211 C   0  0  0  0  0  0  0  0  0  0  0  0
  -20.1137  -29.5258   23.2532 C   0  0  0  0  0  0  0  0  0  0  0  0
  -25.5867  -29.4935   20.5051 C   0  0  0  0  0  0  0  0  0  0  0  0
  -27.2085  -16.1605   19.8082 C   0  0  0  0  0  0  0  0  0  0  0  0
  -28.5245  -16.4715   21.8103 C   0  0  0  0  0  0  0  0  0  0  0  0
  -26.8834  -29.3575   20.9989 C   0  0  0  0  0  0  0  0  0  0  0  0
  -25.5251  -14.0001   21.7910 C   0  0  0  0  0  0  0  0  0  0  0  0
  -24.3044  -13.3415   21.6437 C   0  0  0  0  0  0  0  0  0  0  0  0
  -26.8204  -26.9987   20.4976 C   0  0  0  0  0  0  0  0  0  0  0  0
  -31.2282  -28.8379   22.9215 C   0  0  0  0  0  0  0  0  0  0  0  0
  -32.8707  -26.9789   24.1977 C   0  0  0  0  0  0  0  0  0  0  0  0
  -25.2646  -11.9471   19.9201 C   0  0  0  0  0  0  0  0  0  0  0  0
  -27.9066  -18.3790   20.4625 C   0  0  0  0  0  0  0  0  0  0  0  0
  -27.0109  -20.7574   20.6829 C   0  0  0  0  0  0  0  0  0  0  0  0
  -18.0836  -28.2936   22.7555 C   0  0  0  0  0  0  0  0  0  0  0  0
  -24.8919  -28.3792   20.0131 C   0  0  0  0  0  0  0  0  0  0  0  0
  -19.4887  -28.3399   22.8316 C   0  0  0  0  0  0  0  0  0  0  0  0
  -25.5160  -27.1236   19.9958 C   0  0  0  0  0  0  0  0  0  0  0  0
  -31.5673  -27.6484   22.2768 C   0  0  0  0  0  0  0  0  0  0  0  0
  -31.7104  -29.0980   24.2043 C   0  0  0  0  0  0  0  0  0  0  0  0
  -32.3885  -26.7189   22.9149 C   0  0  0  0  0  0  0  0  0  0  0  0
  -27.8532  -15.6283   20.9248 C   0  0  0  0  0  0  0  0  0  0  0  0
  -27.4994  -28.1094   20.9978 C   0  0  0  0  0  0  0  0  0  0  0  0
  -26.6156  -13.6322   21.0028 C   0  0  0  0  0  0  0  0  0  0  0  0
  -24.1741  -12.3150   20.7083 C   0  0  0  0  0  0  0  0  0  0  0  0
  -32.5316  -28.1685   24.8424 C   0  0  0  0  0  0  0  0  0  0  0  0
  -26.4854  -12.6057   20.0674 C   0  0  0  0  0  0  0  0  0  0  0  0
  -27.9350  -19.7997   20.2240 C   0  0  0  0  0  0  0  0  0  0  0  0
  -27.4798  -21.9506   20.1903 C   0  0  0  0  0  0  0  0  0  0  0  0
  -25.8339  -20.5838   21.4830 C   0  0  0  0  0  0  0  0  0  0  0  0
  -22.2190  -26.8635   20.8269 C   0  0  0  0  0  0  0  0  0  0  0  0
  -22.8093  -25.1817   18.1167 C   0  0  0  0  0  0  0  0  0  0  0  0
  -25.0873  -24.0944   15.8200 C   0  0  0  0  0  0  0  0  0  0  0  0
  -32.9245  -23.8280   18.5524 C   0  0  0  0  0  0  0  0  0  0  0  0
  -17.3517  -27.0369   22.3556 C   0  0  0  0  0  0  0  0  0  0  0  0
  -23.5036  -28.5475   19.4594 C   0  0  0  0  0  0  0  0  0  0  0  0
  -24.8207  -25.8998   19.4598 C   0  0  0  0  0  0  0  0  0  0  0  0
  -18.2365  -26.0175   21.6428 C   0  0  0  0  0  0  0  0  0  0  0  0
  -29.9856  -23.7703   16.5433 C   0  0  0  0  0  0  0  0  0  0  0  0
  -19.5552  -25.8408   22.3890 C   0  0  0  0  0  0  0  0  0  0  0  0
  -29.0435  -22.8325   17.3002 C   0  0  0  0  0  0  0  0  0  0  0  0
  -31.4383  -23.3092   16.6397 C   0  0  0  0  0  0  0  0  0  0  0  0
  -30.9874  -22.1556   18.7704 C   0  0  0  0  0  0  0  0  0  0  0  0
  -20.3432  -27.1554   22.4354 C   0  0  1  0  0  0  0  0  0  0  0  0
  -22.6999  -27.2507   19.4571 C   0  0  1  0  0  0  0  0  0  0  0  0
  -29.5181  -22.6103   18.7488 C   0  0  2  0  0  0  0  0  0  0  0  0
  -31.3471  -30.3712   24.8909 C   0  0  0  0  0  0  0  0  0  0  0  0
  -25.2771  -22.7051   13.7388 C   0  0  0  0  0  0  0  0  0  0  0  0
  -22.5963  -22.6425   19.7952 C   0  0  0  0  0  0  0  0  0  0  0  0
  -23.7087  -21.3988   17.9287 C   0  0  0  0  0  0  0  0  0  0  0  0
  -21.5044  -22.5033   17.5496 C   0  0  0  0  0  0  0  0  0  0  0  0
  -26.0546  -26.3968   14.2318 C   0  0  0  0  0  0  0  0  0  0  0  0
  -31.0323  -27.3891   20.8894 C   0  0  0  0  0  0  0  0  0  0  0  0
  -32.7654  -25.4387   22.2449 C   0  0  0  0  0  0  0  0  0  0  0  0
  -33.8975  -25.5723   21.2084 C   0  0  0  0  0  0  0  0  0  0  0  0
  -34.3173  -24.2540   20.5618 C   0  0  0  0  0  0  0  0  0  0  0  0
  -29.5727  -26.9482   20.9039 C   0  0  0  0  0  0  0  0  0  1  0  0
  -23.5803  -23.9273   17.7835 C   0  0  1  0  0  0  0  0  0  0  0  0
  -25.0698  -24.1024   14.3020 C   0  0  2  0  0  0  0  0  0  0  0  0
  -22.8601  -22.6405   18.2762 C   0  0  0  0  0  0  0  0  0  0  0  0
  -28.9167  -20.3380   19.4957 N   0  0  0  0  0  0  0  0  0  0  0  0
  -28.6120  -21.6469   19.4931 N   0  0  0  0  0  0  0  0  0  0  0  0
  -23.4620  -26.1144   18.9351 N   0  0  0  0  0  0  0  0  0  0  0  0
  -31.8260  -23.1186   18.0394 N   0  0  0  0  0  0  0  0  0  0  0  0
  -27.0300  -23.2196   20.2898 N   0  0  0  0  0  0  0  0  0  0  0  0
  -25.4971  -19.2902   21.9044 N   0  0  0  0  0  0  0  0  0  0  0  0
  -20.9918  -27.4010   21.1651 N   0  0  0  0  0  0  0  0  0  0  0  0
  -23.8188  -23.9649   16.3447 N   0  0  0  0  0  0  0  0  0  0  0  0
  -33.2204  -23.5938   19.8897 N   0  0  0  0  0  0  0  0  0  0  0  0
  -26.1487  -24.9859   13.7763 N   0  3  0  0  0  0  0  0  0  0  0  0
  -25.0934  -21.5452   21.8007 O   0  0  0  0  0  0  0  0  0  0  0  0
  -22.9096  -26.1301   21.5248 O   0  0  0  0  0  0  0  0  0  0  0  0
  -21.6726  -25.3317   17.6616 O   0  0  0  0  0  0  0  0  0  0  0  0
  -26.1231  -24.1894   16.4747 O   0  0  0  0  0  0  0  0  0  0  0  0
  -33.5887  -24.6161   17.8708 O   0  0  0  0  0  0  0  0  0  0  0  0
  -27.8271  -14.2864   21.1508 O   0  0  0  0  0  0  0  0  0  0  0  0
  -28.7648  -27.9738   21.4798 O   0  0  0  0  0  0  0  0  0  1  0  0
  -23.0022  -11.6817   20.5680 F   0  0  0  0  0  0  0  0  0  0  0  0
  -32.9999  -28.4095   26.0751 F   0  0  0  0  0  0  0  0  0  0  0  0
  -27.5298  -12.2470   19.3083 F   0  0  0  0  0  0  0  0  0  0  0  0
  1  2  1  0  0  0  0
  1  5  2  0  0  0  0
  2  6  2  0  0  0  0
  3  8  2  0  0  0  0
  3 17  1  0  0  0  0
  4  9  1  0  0  0  0
  4 17  2  0  0  0  0
  5 19  1  0  0  0  0
  6 21  1  0  0  0  0
  7 10  2  0  0  0  0
  7 20  1  0  0  0  0
  8 26  1  0  0  0  0
  9 26  2  0  0  0  0
 10 27  1  0  0  0  0
 11 12  2  0  0  0  0
 11 28  1  0  0  0  0
 12 29  1  0  0  0  0
 13 22  1  0  0  0  0
 13 27  2  0  0  0  0
 14 23  1  0  0  0  0
 14 24  2  0  0  0  0
 15 25  1  0  0  0  0
 15 30  2  0  0  0  0
 16 29  2  0  0  0  0
 16 31  1  0  0  0  0
 17 32  1  0  0  0  0
 18 32  1  0  0  0  0
 18 33  2  0  0  0  0
 18 34  1  0  0  0  0
 19 21  2  0  0  0  0
 19 39  1  0  0  0  0
 20 22  2  0  0  0  0
 20 40  1  0  0  0  0
 21 48  1  0  0  0  0
 22 41  1  0  0  0  0
 23 25  2  0  0  0  0
 23 57  1  0  0  0  0
 24 30  1  0  0  0  0
 24 51  1  0  0  0  0
 25 58  1  0  0  0  0
 26 80  1  0  0  0  0
 27 81  1  0  0  0  0
 28 31  2  0  0  0  0
 28 80  1  0  0  0  0
 29 82  1  0  0  0  0
 30 83  1  0  0  0  0
 31 84  1  0  0  0  0
 32 65  2  0  0  0  0
 33 66  1  0  0  0  0
 33 69  1  0  0  0  0
 34 70  1  0  0  0  0
 34 75  2  0  0  0  0
 35 49  1  0  0  0  0
 35 71  1  0  0  0  0
 35 76  2  0  0  0  0
 36 62  1  0  0  0  0
 36 67  1  0  0  0  0
 36 77  2  0  0  0  0
 37 63  1  0  0  0  0
 37 72  1  0  0  0  0
 37 78  2  0  0  0  0
 38 68  1  0  0  0  0
 38 73  1  0  0  0  0
 38 79  2  0  0  0  0
 39 42  1  0  0  0  0
 40 49  1  0  0  0  0
 41 67  1  0  0  0  0
 42 44  1  0  0  0  0
 43 45  1  0  0  0  0
 43 46  1  0  0  0  0
 44 48  1  0  0  0  0
 45 50  1  0  0  0  0
 46 68  1  0  0  0  0
 47 50  1  0  0  0  0
 47 68  1  0  0  0  0
 48 71  1  0  0  0  0
 49 67  1  0  0  0  0
 50 66  1  0  0  0  0
 52 63  1  0  0  0  0
 53 64  1  0  0  0  0
 54 64  1  0  0  0  0
 55 64  1  0  0  0  0
 56 74  1  0  0  0  0
 57 61  1  0  0  0  0
 58 59  1  0  0  0  0
 59 60  1  0  0  0  0
 60 73  1  0  0  0  0
 61 81  1  0  0  0  0
 62 64  1  0  0  0  0
 62 72  1  0  0  0  0
 63 74  1  0  0  0  0
 65 66  1  0  0  0  0
M  CHG  1  74   1
M  ISO  4  38 100  61 101  73 100  81 101
M  END
> <Batch ID>
0044

> <Smiles>
CNC(C)C(=O)NC(C(=O)N1Cc2cc([101O:1][101CH2:1]Cc3cc(C)c(F)cc3CCC[100NH:0][100C:0](=O)N3CCCC(n4nc(-c5ccc(Oc6ccc(F)cc6F)cc5)c(C(N)=O)c4N)C3)ccc2CC1C(=O)NC1CCCc2ccccc21)C(C)(C)C

> <Shape>
0.236

> <Color>
0.067

> <Negative vol penalty>
0.000

$$$$

  -OEChem-04052317173D

 81 89  0     1  0  0  0  0  0999 V2000
  -29.0282  -17.2175   18.5886 C   0  0  0  0  0  0  0  0  0  0  0  0
  -28.1395  -18.2575   18.3402 C   0  0  0  0  0  0  0  0  0  0  0  0
  -26.1686  -15.0998   20.2654 C   0  0  0  0  0  0  0  0  0  0  0  0
  -23.7916  -14.6891   20.1314 C   0  0  0  0  0  0  0  0  0  0  0  0
  -30.0181  -17.3682   19.5574 C   0  0  0  0  0  0  0  0  0  0  0  0
  -28.2479  -19.4527   19.0519 C   0  0  0  0  0  0  0  0  0  0  0  0
  -24.7353  -24.4312   18.9920 C   0  0  0  0  0  0  0  0  0  0  0  0
  -26.3959  -13.7328   20.4245 C   0  0  0  0  0  0  0  0  0  0  0  0
  -24.0188  -13.3221   20.2905 C   0  0  0  0  0  0  0  0  0  0  0  0
  -23.6315  -24.9203   19.6892 C   0  0  0  0  0  0  0  0  0  0  0  0
  -23.9445   -9.7626   21.0215 C   0  0  0  0  0  0  0  0  0  0  0  0
  -23.1252   -9.0685   21.9118 C   0  0  0  0  0  0  0  0  0  0  0  0
  -25.1033  -26.1961   21.1123 C   0  0  0  0  0  0  0  0  0  0  0  0
  -23.8771  -10.4918   23.7134 C   0  0  0  0  0  0  0  0  0  0  0  0
  -19.5481  -27.5523   21.5024 C   0  0  0  0  0  0  0  0  0  0  0  0
  -24.8664  -15.5780   20.1189 C   0  0  0  0  0  0  0  0  0  0  0  0
  -24.5750  -17.7078   18.7454 C   0  0  0  0  0  0  0  0  0  0  0  0
  -30.1301  -18.5617   20.2897 C   0  0  0  0  0  0  0  0  0  0  0  0
  -26.0342  -24.8130   19.3572 C   0  0  0  0  0  0  0  0  0  0  0  0
  -29.2553  -19.6329   20.0169 C   0  0  0  0  0  0  0  0  0  0  0  0
  -26.2218  -25.7124   20.4165 C   0  0  0  0  0  0  0  0  0  0  0  0
  -20.4036  -26.4927   21.8590 C   0  0  0  0  0  0  0  0  0  0  0  0
  -25.3210  -12.8440   20.4370 C   0  0  0  0  0  0  0  0  0  0  0  0
  -23.8155  -25.8006   20.7514 C   0  0  0  0  0  0  0  0  0  0  0  0
  -24.7301  -10.8213   21.4772 C   0  0  0  0  0  0  0  0  0  0  0  0
  -23.0915   -9.4330   23.2577 C   0  0  0  0  0  0  0  0  0  0  0  0
  -24.6964  -11.1859   22.8231 C   0  0  0  0  0  0  0  0  0  0  0  0
  -24.6310  -16.9900   19.9552 C   0  0  0  0  0  0  0  0  0  0  0  0
  -20.0620  -26.1972   23.1561 C   0  0  0  0  0  0  0  0  0  0  0  0
  -24.3287  -19.0042   19.1265 C   0  0  0  0  0  0  0  0  0  0  0  0
  -24.7315  -17.2442   17.3978 C   0  0  0  0  0  0  0  0  0  0  0  0
  -28.6101  -23.2785   20.4125 C   0  0  0  0  0  0  0  0  0  0  0  0
  -30.0016  -26.1898   20.0797 C   0  0  0  0  0  0  0  0  0  0  0  0
  -29.6299  -29.5792   19.9361 C   0  0  0  0  0  0  0  0  0  0  0  0
  -21.6968  -21.2677   23.9020 C   0  0  0  0  0  0  0  0  0  0  0  0
  -31.2250  -18.6738   21.3211 C   0  0  0  0  0  0  0  0  0  0  0  0
  -27.2129  -24.2974   18.5779 C   0  0  0  0  0  0  0  0  0  0  0  0
  -27.5945  -26.1692   20.8353 C   0  0  0  0  0  0  0  0  0  0  0  0
  -30.9836  -19.7967   22.3247 C   0  0  0  0  0  0  0  0  0  0  0  0
  -25.0420  -22.0400   22.7572 C   0  0  0  0  0  0  0  0  0  0  0  0
  -30.6401  -21.0845   21.5911 C   0  0  0  0  0  0  0  0  0  0  0  0
  -25.3050  -20.8873   21.7866 C   0  0  0  0  0  0  0  0  0  0  0  0
  -24.2456  -21.5700   23.9709 C   0  0  0  0  0  0  0  0  0  0  0  0
  -23.2172  -19.7469   22.6700 C   0  0  0  0  0  0  0  0  0  0  0  0
  -29.3348  -20.9309   20.8001 C   0  0  1  0  0  0  0  0  0  0  0  0
  -28.5190  -24.3514   19.3644 C   0  0  1  0  0  0  0  0  0  0  0  0
  -23.9992  -20.1623   21.4106 C   0  0  2  0  0  0  0  0  0  0  0  0
  -30.9535  -31.6976   19.6955 C   0  0  0  0  0  0  0  0  0  0  0  0
  -30.9135  -25.9467   22.9813 C   0  0  0  0  0  0  0  0  0  0  0  0
  -31.3720  -28.4080   22.9704 C   0  0  0  0  0  0  0  0  0  0  0  0
  -32.6243  -26.9009   21.4266 C   0  0  0  0  0  0  0  0  0  0  0  0
  -18.3670  -27.1493   24.7485 C   0  0  0  0  0  0  0  0  0  0  0  0
  -28.2289  -30.3071   17.4328 C   0  0  0  0  0  0  0  0  0  0  0  0
  -21.4515  -25.8372   21.0084 C   0  0  0  0  0  0  0  0  0  1  0  0
  -20.5871  -25.1884   24.0956 C   0  0  0  0  0  0  0  0  0  0  0  0
  -19.7181  -23.9154   24.2417 C   0  0  0  0  0  0  0  0  0  0  0  0
  -20.3021  -22.8678   25.1871 C   0  0  0  0  0  0  0  0  0  0  0  0
  -30.1869  -27.3943   20.9707 C   0  0  1  0  0  0  0  0  0  0  0  0
  -30.1761  -30.6122   18.9671 C   0  0  2  0  0  0  0  0  0  0  0  0
  -31.2483  -27.1525   22.0808 C   0  0  0  0  0  0  0  0  0  0  0  0
  -18.7248  -27.9060   22.4930 N   0  0  0  0  0  0  0  0  0  0  0  0
  -24.4362  -17.7660   21.0247 N   0  0  0  0  0  0  0  0  0  0  0  0
  -19.0614  -27.0638   23.4847 N   0  0  0  0  0  0  0  0  0  0  0  0
  -24.2554  -18.9849   20.4883 N   0  0  0  0  0  0  0  0  0  0  0  0
  -28.7156  -25.6322   20.0464 N   0  0  0  0  0  0  0  0  0  0  0  0
  -23.0061  -20.9052   23.5446 N   0  0  0  0  0  0  0  0  0  0  0  0
  -24.1699  -20.1473   18.4262 N   0  0  0  0  0  0  0  0  0  0  0  0
  -24.9797  -15.8813   17.1846 N   0  0  0  0  0  0  0  0  0  0  0  0
  -29.1540  -22.0924   19.9576 N   0  0  0  0  0  0  0  0  0  0  0  0
  -30.4919  -28.5134   20.0859 N   0  0  0  0  0  0  0  0  0  0  0  0
  -21.5840  -22.3714   24.7385 N   0  0  0  0  0  0  0  0  0  0  0  0
  -29.0627  -31.2562   18.2145 N   0  3  0  0  0  0  0  0  0  0  0  0
  -24.6698  -18.0184   16.4127 O   0  0  0  0  0  0  0  0  0  0  0  0
  -28.2176  -23.5101   21.5500 O   0  0  0  0  0  0  0  0  0  0  0  0
  -30.9608  -25.7638   19.4315 O   0  0  0  0  0  0  0  0  0  0  0  0
  -28.5486  -29.7067   20.5061 O   0  0  0  0  0  0  0  0  0  0  0  0
  -20.7008  -20.6560   23.5007 O   0  0  0  0  0  0  0  0  0  0  0  0
  -25.5423  -11.5100   20.5919 O   0  0  0  0  0  0  0  0  0  0  0  0
  -22.7399  -26.2790   21.4341 O   0  0  0  0  0  0  0  0  0  1  0  0
  -22.3036   -8.7674   24.1122 F   0  0  0  0  0  0  0  0  0  0  0  0
  -25.4480  -12.2029   23.2666 F   0  0  0  0  0  0  0  0  0  0  0  0
  1  2  1  0  0  0  0
  1  5  2  0  0  0  0
  2  6  2  0  0  0  0
  3  8  2  0  0  0  0
  3 16  1  0  0  0  0
  4  9  1  0  0  0  0
  4 16  2  0  0  0  0
  5 18  1  0  0  0  0
  6 20  1  0  0  0  0
  7 10  2  0  0  0  0
  7 19  1  0  0  0  0
  8 23  1  0  0  0  0
  9 23  2  0  0  0  0
 10 24  1  0  0  0  0
 11 12  2  0  0  0  0
 11 25  1  0  0  0  0
 12 26  1  0  0  0  0
 13 21  1  0  0  0  0
 13 24  2  0  0  0  0
 14 26  2  0  0  0  0
 14 27  1  0  0  0  0
 15 22  1  0  0  0  0
 15 61  2  0  0  0  0
 16 28  1  0  0  0  0
 17 28  1  0  0  0  0
 17 30  2  0  0  0  0
 17 31  1  0  0  0  0
 18 20  2  0  0  0  0
 18 36  1  0  0  0  0
 19 21  2  0  0  0  0
 19 37  1  0  0  0  0
 20 45  1  0  0  0  0
 21 38  1  0  0  0  0
 22 29  2  0  0  0  0
 22 54  1  0  0  0  0
 23 78  1  0  0  0  0
 24 79  1  0  0  0  0
 25 27  2  0  0  0  0
 25 78  1  0  0  0  0
 26 80  1  0  0  0  0
 27 81  1  0  0  0  0
 28 62  2  0  0  0  0
 29 55  1  0  0  0  0
 29 63  1  0  0  0  0
 30 64  1  0  0  0  0
 30 67  1  0  0  0  0
 31 68  1  0  0  0  0
 31 73  2  0  0  0  0
 32 46  1  0  0  0  0
 32 69  1  0  0  0  0
 32 74  2  0  0  0  0
 33 58  1  0  0  0  0
 33 65  1  0  0  0  0
 33 75  2  0  0  0  0
 34 59  1  0  0  0  0
 34 70  1  0  0  0  0
 34 76  2  0  0  0  0
 35 66  1  0  0  0  0
 35 71  1  0  0  0  0
 35 77  2  0  0  0  0
 36 39  1  0  0  0  0
 37 46  1  0  0  0  0
 38 65  1  0  0  0  0
 39 41  1  0  0  0  0
 40 42  1  0  0  0  0
 40 43  1  0  0  0  0
 41 45  1  0  0  0  0
 42 47  1  0  0  0  0
 43 66  1  0  0  0  0
 44 47  1  0  0  0  0
 44 66  1  0  0  0  0
 45 69  1  0  0  0  0
 46 65  1  0  0  0  0
 47 64  1  0  0  0  0
 48 59  1  0  0  0  0
 49 60  1  0  0  0  0
 50 60  1  0  0  0  0
 51 60  1  0  0  0  0
 52 63  1  0  0  0  0
 53 72  1  0  0  0  0
 54 79  1  0  0  0  0
 55 56  1  0  0  0  0
 56 57  1  0  0  0  0
 57 71  1  0  0  0  0
 58 60  1  0  0  0  0
 58 70  1  0  0  0  0
 59 72  1  0  0  0  0
 61 63  1  0  0  0  0
 62 64  1  0  0  0  0
M  CHG  1  72   1
M  ISO  4  35 100  54 101  71 100  79 101
M  END
> <Batch ID>
0044

> <Smiles>
CNC(C)C(=O)NC(C(=O)N1Cc2cc([101O:1][101CH2:1]c3cnn(C)c3CCC[100NH:0][100C:0](=O)N3CCCC(n4nc(-c5ccc(Oc6ccc(F)cc6F)cc5)c(C(N)=O)c4N)C3)ccc2CC1C(=O)NC1CCCc2ccccc21)C(C)(C)C

> <Shape>
0.196

> <Color>
0.047

> <Negative vol penalty>
0.000

$$$$

  -OEChem-04052317173D

 83 91  0     1  0  0  0  0  0999 V2000
  -18.1025  -24.7589   21.5653 C   0  0  0  0  0  0  0  0  0  0  0  0
  -19.4662  -24.5829   21.3538 C   0  0  0  0  0  0  0  0  0  0  0  0
  -26.4746  -13.2850   21.5828 C   0  0  0  0  0  0  0  0  0  0  0  0
  -24.8990  -13.2389   19.7519 C   0  0  0  0  0  0  0  0  0  0  0  0
  -17.6302  -25.9559   22.1019 C   0  0  0  0  0  0  0  0  0  0  0  0
  -20.3584  -25.6045   21.6778 C   0  0  0  0  0  0  0  0  0  0  0  0
  -24.4475  -23.9058   24.1352 C   0  0  0  0  0  0  0  0  0  0  0  0
  -26.3625  -11.9009   21.7142 C   0  0  0  0  0  0  0  0  0  0  0  0
  -24.7869  -11.8548   19.8832 C   0  0  0  0  0  0  0  0  0  0  0  0
  -25.4394  -23.2914   23.3720 C   0  0  0  0  0  0  0  0  0  0  0  0
  -23.8108   -8.3548   19.9697 C   0  0  0  0  0  0  0  0  0  0  0  0
  -22.5311   -7.8014   19.9308 C   0  0  0  0  0  0  0  0  0  0  0  0
  -26.7230  -25.3335   23.4071 C   0  0  0  0  0  0  0  0  0  0  0  0
  -21.9062   -9.1106   21.8628 C   0  0  0  0  0  0  0  0  0  0  0  0
  -29.0115  -24.6288   19.5189 C   0  0  0  0  0  0  0  0  0  0  0  0
  -25.7428  -13.9540   20.6017 C   0  0  0  0  0  0  0  0  0  0  0  0
  -26.7717  -16.0906   19.6614 C   0  0  0  0  0  0  0  0  0  0  0  0
  -18.5179  -26.9890   22.4416 C   0  0  0  0  0  0  0  0  0  0  0  0
  -24.5811  -25.2443   24.5314 C   0  0  0  0  0  0  0  0  0  0  0  0
  -19.8974  -26.8170   22.2182 C   0  0  0  0  0  0  0  0  0  0  0  0
  -25.7325  -25.9619   24.1774 C   0  0  0  0  0  0  0  0  0  0  0  0
  -27.9839  -23.7159   19.3968 C   0  0  0  0  0  0  0  0  0  0  0  0
  -25.5186  -11.1858   20.8644 C   0  0  0  0  0  0  0  0  0  0  0  0
  -26.5760  -24.0061   23.0054 C   0  0  0  0  0  0  0  0  0  0  0  0
  -24.1384   -9.2860   20.9553 C   0  0  0  0  0  0  0  0  0  0  0  0
  -21.5788   -8.1794   20.8773 C   0  0  0  0  0  0  0  0  0  0  0  0
  -23.1861   -9.6640   21.9018 C   0  0  0  0  0  0  0  0  0  0  0  0
  -25.8578  -15.3839   20.4659 C   0  0  0  0  0  0  0  0  0  0  0  0
  -26.9401  -24.0978   18.5790 C   0  0  0  0  0  0  0  0  0  0  0  0
  -26.4736  -17.4128   19.8835 C   0  0  0  0  0  0  0  0  0  0  0  0
  -27.9543  -26.0809   18.1257 C   0  0  0  0  0  0  0  0  0  0  0  0
  -27.7982  -15.5961   18.7911 C   0  0  0  0  0  0  0  0  0  0  0  0
  -22.9437  -27.9159   23.9974 C   0  0  0  0  0  0  0  0  0  0  0  0
  -25.0252  -29.1603   26.1517 C   0  0  0  0  0  0  0  0  0  0  0  0
  -28.0693  -28.9702   27.6827 C   0  0  0  0  0  0  0  0  0  0  0  0
  -22.7532  -21.5317   20.4658 C   0  0  0  0  0  0  0  0  0  0  0  0
  -17.9560  -28.2830   22.9749 C   0  0  0  0  0  0  0  0  0  0  0  0
  -23.5145  -25.8845   25.3770 C   0  0  0  0  0  0  0  0  0  0  0  0
  -25.9334  -27.3950   24.5947 C   0  0  0  0  0  0  0  0  0  0  0  0
  -19.0025  -29.1732   23.6401 C   0  0  0  0  0  0  0  0  0  0  0  0
  -23.4928  -19.5785   23.3493 C   0  0  0  0  0  0  0  0  0  0  0  0
  -20.2521  -29.2695   22.7706 C   0  0  0  0  0  0  0  0  0  0  0  0
  -24.2435  -18.3690   22.7891 C   0  0  0  0  0  0  0  0  0  0  0  0
  -22.3823  -20.0391   22.4077 C   0  0  0  0  0  0  0  0  0  0  0  0
  -23.5656  -19.0952   20.4628 C   0  0  0  0  0  0  0  0  0  0  0  0
  -20.8989  -27.8923   22.5799 C   0  0  1  0  0  0  0  0  0  0  0  0
  -23.5170  -27.4075   25.2899 C   0  0  1  0  0  0  0  0  0  0  0  0
  -24.7316  -18.6287   21.3512 C   0  0  2  0  0  0  0  0  0  0  0  0
  -27.9381  -27.3941   17.4191 C   0  0  0  0  0  0  0  0  0  0  0  0
  -29.5021  -30.1504   29.3714 C   0  0  0  0  0  0  0  0  0  0  0  0
  -25.6776  -31.3130   24.0901 C   0  0  0  0  0  0  0  0  0  0  0  0
  -27.7309  -31.8602   25.4140 C   0  0  0  0  0  0  0  0  0  0  0  0
  -25.4749  -32.1458   26.4395 C   0  0  0  0  0  0  0  0  0  0  0  0
  -28.1279  -26.6035   29.4587 C   0  0  0  0  0  0  0  0  0  0  0  0
  -28.0237  -22.3928   20.1221 C   0  0  0  0  0  0  0  0  0  0  0  0
  -25.7729  -23.1899   18.3716 C   0  0  0  0  0  0  0  0  0  0  0  0
  -24.4086  -23.8191   18.7134 C   0  0  0  0  0  0  0  0  0  0  0  0
  -23.2120  -22.9071   18.4516 C   0  0  0  0  0  0  0  0  0  0  0  0
  -27.1320  -22.3825   21.3590 C   0  0  0  0  0  0  0  0  0  1  0  0
  -26.3830  -29.8152   26.0712 C   0  0  1  0  0  0  0  0  0  0  0  0
  -28.4687  -29.0579   29.1446 C   0  0  2  0  0  0  0  0  0  0  0  0
  -26.3122  -31.2572   25.4940 C   0  0  0  0  0  0  0  0  0  0  0  0
  -29.0294  -25.8251   18.8953 N   0  0  0  0  0  0  0  0  0  0  0  0
  -25.0405  -16.1903   21.1482 N   0  0  0  0  0  0  0  0  0  0  0  0
  -26.8923  -25.2774   17.9258 N   0  0  0  0  0  0  0  0  0  0  0  0
  -25.4398  -17.4175   20.7732 N   0  0  0  0  0  0  0  0  0  0  0  0
  -24.8595  -27.9787   25.4154 N   0  0  0  0  0  0  0  0  0  0  0  0
  -22.9115  -20.2694   21.0613 N   0  0  0  0  0  0  0  0  0  0  0  0
  -26.9976  -18.5603   19.4028 N   0  0  0  0  0  0  0  0  0  0  0  0
  -27.9691  -14.2095   18.6798 N   0  0  0  0  0  0  0  0  0  0  0  0
  -21.6423  -27.5149   23.7629 N   0  0  0  0  0  0  0  0  0  0  0  0
  -26.9547  -29.7353   27.4110 N   0  0  0  0  0  0  0  0  0  0  0  0
  -23.2897  -21.6670   19.1912 N   0  0  0  0  0  0  0  0  0  0  0  0
  -29.0461  -27.7625   29.6024 N   0  3  0  0  0  0  0  0  0  0  0  0
  -28.5526  -16.3615   18.1441 O   0  0  0  0  0  0  0  0  0  0  0  0
  -23.6307  -28.6210   23.2676 O   0  0  0  0  0  0  0  0  0  0  0  0
  -24.1462  -29.6743   26.8480 O   0  0  0  0  0  0  0  0  0  0  0  0
  -28.6865  -28.2939   26.8629 O   0  0  0  0  0  0  0  0  0  0  0  0
  -22.1812  -22.4703   21.0305 O   0  0  0  0  0  0  0  0  0  0  0  0
  -25.4091   -9.8351   20.9921 O   0  0  0  0  0  0  0  0  0  0  0  0
  -27.5454  -23.4090   22.2600 O   0  0  0  0  0  0  0  0  0  1  0  0
  -20.3493   -7.6490   20.8389 F   0  0  0  0  0  0  0  0  0  0  0  0
  -23.4945  -10.5590   22.8502 F   0  0  0  0  0  0  0  0  0  0  0  0
  1  2  1  0  0  0  0
  1  5  2  0  0  0  0
  2  6  2  0  0  0  0
  3  8  2  0  0  0  0
  3 16  1  0  0  0  0
  4  9  1  0  0  0  0
  4 16  2  0  0  0  0
  5 18  1  0  0  0  0
  6 20  1  0  0  0  0
  7 10  2  0  0  0  0
  7 19  1  0  0  0  0
  8 23  1  0  0  0  0
  9 23  2  0  0  0  0
 10 24  1  0  0  0  0
 11 12  2  0  0  0  0
 11 25  1  0  0  0  0
 12 26  1  0  0  0  0
 13 21  1  0  0  0  0
 13 24  2  0  0  0  0
 14 26  2  0  0  0  0
 14 27  1  0  0  0  0
 15 22  1  0  0  0  0
 15 63  2  0  0  0  0
 16 28  1  0  0  0  0
 17 28  1  0  0  0  0
 17 30  2  0  0  0  0
 17 32  1  0  0  0  0
 18 20  2  0  0  0  0
 18 37  1  0  0  0  0
 19 21  2  0  0  0  0
 19 38  1  0  0  0  0
 20 46  1  0  0  0  0
 21 39  1  0  0  0  0
 22 29  2  0  0  0  0
 22 55  1  0  0  0  0
 23 80  1  0  0  0  0
 24 81  1  0  0  0  0
 25 27  2  0  0  0  0
 25 80  1  0  0  0  0
 26 82  1  0  0  0  0
 27 83  1  0  0  0  0
 28 64  2  0  0  0  0
 29 56  1  0  0  0  0
 29 65  1  0  0  0  0
 30 66  1  0  0  0  0
 30 69  1  0  0  0  0
 31 49  1  0  0  0  0
 31 63  1  0  0  0  0
 31 65  2  0  0  0  0
 32 70  1  0  0  0  0
 32 75  2  0  0  0  0
 33 47  1  0  0  0  0
 33 71  1  0  0  0  0
 33 76  2  0  0  0  0
 34 60  1  0  0  0  0
 34 67  1  0  0  0  0
 34 77  2  0  0  0  0
 35 61  1  0  0  0  0
 35 72  1  0  0  0  0
 35 78  2  0  0  0  0
 36 68  1  0  0  0  0
 36 73  1  0  0  0  0
 36 79  2  0  0  0  0
 37 40  1  0  0  0  0
 38 47  1  0  0  0  0
 39 67  1  0  0  0  0
 40 42  1  0  0  0  0
 41 43  1  0  0  0  0
 41 44  1  0  0  0  0
 42 46  1  0  0  0  0
 43 48  1  0  0  0  0
 44 68  1  0  0  0  0
 45 48  1  0  0  0  0
 45 68  1  0  0  0  0
 46 71  1  0  0  0  0
 47 67  1  0  0  0  0
 48 66  1  0  0  0  0
 50 61  1  0  0  0  0
 51 62  1  0  0  0  0
 52 62  1  0  0  0  0
 53 62  1  0  0  0  0
 54 74  1  0  0  0  0
 55 59  1  0  0  0  0
 56 57  1  0  0  0  0
 57 58  1  0  0  0  0
 58 73  1  0  0  0  0
 59 81  1  0  0  0  0
 60 62  1  0  0  0  0
 60 72  1  0  0  0  0
 61 74  1  0  0  0  0
 64 66  1  0  0  0  0
M  CHG  1  74   1
M  ISO  4  36 100  59 101  73 100  81 101
M  END
> <Batch ID>
0044

> <Smiles>
CNC(C)C(=O)NC(C(=O)N1Cc2cc([101O:1][101CH2:1]Cc3cnc(C)nc3CCC[100NH:0][100C:0](=O)N3CCCC(n4nc(-c5ccc(Oc6ccc(F)cc6F)cc5)c(C(N)=O)c4N)C3)ccc2CC1C(=O)NC1CCCc2ccccc21)C(C)(C)C

> <Shape>
0.198

> <Color>
0.086

> <Negative vol penalty>
0.000

$$$$

  -OEChem-04052317173D

 81 89  0     1  0  0  0  0  0999 V2000
  -23.9520  -10.8691   18.1532 C   0  0  0  0  0  0  0  0  0  0  0  0
  -23.1317  -11.9915   18.1009 C   0  0  0  0  0  0  0  0  0  0  0  0
  -29.9003  -26.2309   18.7096 C   0  0  0  0  0  0  0  0  0  0  0  0
  -29.7440  -26.4580   21.1098 C   0  0  0  0  0  0  0  0  0  0  0  0
  -24.9798  -10.8014   19.0928 C   0  0  0  0  0  0  0  0  0  0  0  0
  -23.3381  -13.0465   18.9890 C   0  0  0  0  0  0  0  0  0  0  0  0
  -22.8100  -20.1785   19.4052 C   0  0  0  0  0  0  0  0  0  0  0  0
  -31.2573  -25.9300   18.8264 C   0  0  0  0  0  0  0  0  0  0  0  0
  -31.1010  -26.1571   21.2266 C   0  0  0  0  0  0  0  0  0  0  0  0
  -22.2491  -21.1720   20.2065 C   0  0  0  0  0  0  0  0  0  0  0  0
  -34.1491  -27.6131   19.3050 C   0  0  0  0  0  0  0  0  0  0  0  0
  -35.0296  -28.2412   18.4242 C   0  0  0  0  0  0  0  0  0  0  0  0
  -24.1056  -20.9790   21.7347 C   0  0  0  0  0  0  0  0  0  0  0  0
  -35.7257  -26.0860   17.5830 C   0  0  0  0  0  0  0  0  0  0  0  0
  -21.3056  -25.3223   23.0940 C   0  0  0  0  0  0  0  0  0  0  0  0
  -29.1437  -26.4949   19.8513 C   0  0  0  0  0  0  0  0  0  0  0  0
  -26.7348  -25.9931   19.1780 C   0  0  0  0  0  0  0  0  0  0  0  0
  -25.2050  -11.8603   19.9865 C   0  0  0  0  0  0  0  0  0  0  0  0
  -24.0194  -19.5690   19.7689 C   0  0  0  0  0  0  0  0  0  0  0  0
  -24.3691  -12.9924   19.9424 C   0  0  0  0  0  0  0  0  0  0  0  0
  -24.6810  -19.9798   20.9350 C   0  0  0  0  0  0  0  0  0  0  0  0
  -31.8577  -25.8931   20.0849 C   0  0  0  0  0  0  0  0  0  0  0  0
  -22.8954  -21.5704   21.3729 C   0  0  0  0  0  0  0  0  0  0  0  0
  -34.0569  -26.2214   19.3248 C   0  0  0  0  0  0  0  0  0  0  0  0
  -35.8179  -27.4777   17.5632 C   0  0  0  0  0  0  0  0  0  0  0  0
  -34.8452  -25.4578   18.4638 C   0  0  0  0  0  0  0  0  0  0  0  0
  -27.7420  -26.8064   19.7312 C   0  0  0  0  0  0  0  0  0  0  0  0
  -20.6933  -24.1665   22.6988 C   0  0  0  0  0  0  0  0  0  0  0  0
  -25.5869  -26.7373   19.3001 C   0  0  0  0  0  0  0  0  0  0  0  0
  -19.3841  -25.1610   24.1812 C   0  0  0  0  0  0  0  0  0  0  0  0
  -26.8285  -24.6821   18.6052 C   0  0  0  0  0  0  0  0  0  0  0  0
  -24.9074  -16.6054   20.4984 C   0  0  0  0  0  0  0  0  0  0  0  0
  -27.8745  -17.9163   20.5203 C   0  0  0  0  0  0  0  0  0  0  0  0
  -29.8055  -20.7090   20.8650 C   0  0  0  0  0  0  0  0  0  0  0  0
  -22.2265  -30.0465   22.2838 C   0  0  0  0  0  0  0  0  0  0  0  0
  -26.2986  -11.7213   21.0159 C   0  0  0  0  0  0  0  0  0  0  0  0
  -24.6248  -18.5176   18.8799 C   0  0  0  0  0  0  0  0  0  0  0  0
  -25.9917  -19.3712   21.3593 C   0  0  0  0  0  0  0  0  0  0  0  0
  -26.6876  -13.0429   21.6734 C   0  0  0  0  0  0  0  0  0  0  0  0
  -24.9292  -31.5926   20.5569 C   0  0  0  0  0  0  0  0  0  0  0  0
  -25.4422  -13.8190   22.0897 C   0  0  0  0  0  0  0  0  0  0  0  0
  -25.8213  -30.4191   20.1483 C   0  0  0  0  0  0  0  0  0  0  0  0
  -24.2917  -31.3670   21.9261 C   0  0  0  0  0  0  0  0  0  0  0  0
  -24.4490  -28.9223   21.6566 C   0  0  0  0  0  0  0  0  0  0  0  0
  -24.5771  -14.1679   20.8725 C   0  0  1  0  0  0  0  0  0  0  0  0
  -25.6005  -17.6034   19.6145 C   0  0  1  0  0  0  0  0  0  0  0  0
  -25.0699  -29.0788   20.2579 C   0  0  2  0  0  0  0  0  0  0  0  0
  -18.2370  -25.4386   25.0812 C   0  0  0  0  0  0  0  0  0  0  0  0
  -31.8808  -22.1200   20.8614 C   0  0  0  0  0  0  0  0  0  0  0  0
  -28.2283  -16.7603   23.3218 C   0  0  0  0  0  0  0  0  0  0  0  0
  -30.1764  -18.3012   23.6360 C   0  0  0  0  0  0  0  0  0  0  0  0
  -30.2400  -16.5614   21.8495 C   0  0  0  0  0  0  0  0  0  0  0  0
  -29.5137  -21.3363   17.9875 C   0  0  0  0  0  0  0  0  0  0  0  0
  -21.1132  -23.1052   21.7248 C   0  0  0  0  0  0  0  0  0  1  0  0
  -19.9927  -28.3714   24.0859 C   0  0  0  0  0  0  0  0  0  0  0  0
  -20.7387  -27.1723   24.6865 C   0  0  0  0  0  0  0  0  0  0  0  0
  -20.2407  -28.5910   22.5951 C   0  0  0  0  0  0  0  0  0  0  0  0
  -28.7430  -18.5785   21.5625 C   0  0  1  0  0  0  0  0  0  0  0  0
  -30.9505  -21.2514   20.0289 C   0  0  2  0  0  0  0  0  0  0  0  0
  -29.3213  -17.5606   22.5857 C   0  0  0  0  0  0  0  0  0  0  0  0
  -27.2750  -27.9776   20.1717 N   0  0  0  0  0  0  0  0  0  0  0  0
  -20.4732  -25.9176   24.0109 N   0  0  0  0  0  0  0  0  0  0  0  0
  -25.9617  -27.9057   19.8954 N   0  0  0  0  0  0  0  0  0  0  0  0
  -19.5067  -24.0921   23.3876 N   0  3  0  0  0  0  0  0  0  0  0  0
  -26.5401  -18.3426   20.4600 N   0  0  0  0  0  0  0  0  0  0  0  0
  -23.5937  -30.0796   21.9631 N   0  0  0  0  0  0  0  0  0  0  0  0
  -24.3036  -26.4997   18.9551 N   0  0  0  0  0  0  0  0  0  0  0  0
  -26.6665  -23.5724   19.4459 N   0  0  0  0  0  0  0  0  0  0  0  0
  -25.1445  -15.2885   20.1536 N   0  0  0  0  0  0  0  0  0  0  0  0
  -29.7562  -19.3315   20.8310 N   0  0  0  0  0  0  0  0  0  0  0  0
  -21.6405  -28.7867   22.2903 N   0  0  0  0  0  0  0  0  0  0  0  0
  -30.4251  -22.0721   18.9013 N   0  3  0  0  0  0  0  0  0  0  0  0
  -27.0656  -24.4999   17.3870 O   0  0  0  0  0  0  0  0  0  0  0  0
  -24.2105  -17.0009   21.4255 O   0  0  0  0  0  0  0  0  0  0  0  0
  -28.3638  -17.0578   19.7820 O   0  0  0  0  0  0  0  0  0  0  0  0
  -29.0345  -21.4346   21.4892 O   0  0  0  0  0  0  0  0  0  0  0  0
  -21.5751  -31.0649   22.5397 O   0  0  0  0  0  0  0  0  0  0  0  0
  -33.1817  -25.5993   20.1993 O   0  0  0  0  0  0  0  0  0  0  0  0
  -22.3498  -22.5395   22.1572 O   0  0  0  0  0  0  0  0  0  1  0  0
  -36.6622  -28.0811   16.7164 F   0  0  0  0  0  0  0  0  0  0  0  0
  -34.7601  -24.1205   18.4775 F   0  0  0  0  0  0  0  0  0  0  0  0
  1  2  1  0  0  0  0
  1  5  2  0  0  0  0
  2  6  2  0  0  0  0
  3  8  2  0  0  0  0
  3 16  1  0  0  0  0
  4  9  1  0  0  0  0
  4 16  2  0  0  0  0
  5 18  1  0  0  0  0
  6 20  1  0  0  0  0
  7 10  2  0  0  0  0
  7 19  1  0  0  0  0
  8 22  1  0  0  0  0
  9 22  2  0  0  0  0
 10 23  1  0  0  0  0
 11 12  2  0  0  0  0
 11 24  1  0  0  0  0
 12 25  1  0  0  0  0
 13 21  1  0  0  0  0
 13 23  2  0  0  0  0
 14 25  2  0  0  0  0
 14 26  1  0  0  0  0
 15 28  2  0  0  0  0
 15 62  1  0  0  0  0
 16 27  1  0  0  0  0
 17 27  1  0  0  0  0
 17 29  2  0  0  0  0
 17 31  1  0  0  0  0
 18 20  2  0  0  0  0
 18 36  1  0  0  0  0
 19 21  2  0  0  0  0
 19 37  1  0  0  0  0
 20 45  1  0  0  0  0
 21 38  1  0  0  0  0
 22 78  1  0  0  0  0
 23 79  1  0  0  0  0
 24 26  2  0  0  0  0
 24 78  1  0  0  0  0
 25 80  1  0  0  0  0
 26 81  1  0  0  0  0
 27 61  2  0  0  0  0
 28 54  1  0  0  0  0
 28 64  1  0  0  0  0
 29 63  1  0  0  0  0
 29 67  1  0  0  0  0
 30 48  1  0  0  0  0
 30 62  1  0  0  0  0
 30 64  2  0  0  0  0
 31 68  1  0  0  0  0
 31 73  2  0  0  0  0
 32 46  1  0  0  0  0
 32 69  1  0  0  0  0
 32 74  2  0  0  0  0
 33 58  1  0  0  0  0
 33 65  1  0  0  0  0
 33 75  2  0  0  0  0
 34 59  1  0  0  0  0
 34 70  1  0  0  0  0
 34 76  2  0  0  0  0
 35 66  1  0  0  0  0
 35 71  1  0  0  0  0
 35 77  2  0  0  0  0
 36 39  1  0  0  0  0
 37 46  1  0  0  0  0
 38 65  1  0  0  0  0
 39 41  1  0  0  0  0
 40 42  1  0  0  0  0
 40 43  1  0  0  0  0
 41 45  1  0  0  0  0
 42 47  1  0  0  0  0
 43 66  1  0  0  0  0
 44 47  1  0  0  0  0
 44 66  1  0  0  0  0
 45 69  1  0  0  0  0
 46 65  1  0  0  0  0
 47 63  1  0  0  0  0
 49 59  1  0  0  0  0
 50 60  1  0  0  0  0
 51 60  1  0  0  0  0
 52 60  1  0  0  0  0
 53 72  1  0  0  0  0
 54 79  1  0  0  0  0
 55 56  1  0  0  0  0
 55 57  1  0  0  0  0
 56 62  1  0  0  0  0
 57 71  1  0  0  0  0
 58 60  1  0  0  0  0
 58 70  1  0  0  0  0
 59 72  1  0  0  0  0
 61 63  1  0  0  0  0
M  CHG  2  64   1  72   1
M  ISO  4  35 100  54 101  71 100  79 101
M  END
> <Batch ID>
0044

> <Smiles>
CNC(C)C(=O)NC(C(=O)N1Cc2cc([101O:1][101CH2:1]c3cn(CCC[100NH:0][100C:0](=O)N4CCCC(n5nc(-c6ccc(Oc7ccc(F)cc7F)cc6)c(C(N)=O)c5N)C4)c(C)n3)ccc2CC1C(=O)NC1CCCc2ccccc21)C(C)(C)C

> <Shape>
0.217

> <Color>
0.069

> <Negative vol penalty>
0.000

$$$$

  -OEChem-04052317173D

 83 91  0     1  0  0  0  0  0999 V2000
  -18.1025  -24.7589   21.5653 C   0  0  0  0  0  0  0  0  0  0  0  0
  -19.4662  -24.5829   21.3538 C   0  0  0  0  0  0  0  0  0  0  0  0
  -26.4746  -13.2850   21.5828 C   0  0  0  0  0  0  0  0  0  0  0  0
  -24.8990  -13.2389   19.7519 C   0  0  0  0  0  0  0  0  0  0  0  0
  -17.6302  -25.9559   22.1019 C   0  0  0  0  0  0  0  0  0  0  0  0
  -20.3584  -25.6045   21.6778 C   0  0  0  0  0  0  0  0  0  0  0  0
  -24.4475  -23.9058   24.1352 C   0  0  0  0  0  0  0  0  0  0  0  0
  -26.3625  -11.9009   21.7142 C   0  0  0  0  0  0  0  0  0  0  0  0
  -24.7869  -11.8548   19.8832 C   0  0  0  0  0  0  0  0  0  0  0  0
  -25.4394  -23.2914   23.3720 C   0  0  0  0  0  0  0  0  0  0  0  0
  -23.8108   -8.3548   19.9697 C   0  0  0  0  0  0  0  0  0  0  0  0
  -22.5311   -7.8014   19.9308 C   0  0  0  0  0  0  0  0  0  0  0  0
  -26.7230  -25.3335   23.4071 C   0  0  0  0  0  0  0  0  0  0  0  0
  -21.9062   -9.1106   21.8628 C   0  0  0  0  0  0  0  0  0  0  0  0
  -29.0115  -24.6288   19.5189 C   0  0  0  0  0  0  0  0  0  0  0  0
  -25.7428  -13.9540   20.6017 C   0  0  0  0  0  0  0  0  0  0  0  0
  -26.7717  -16.0906   19.6614 C   0  0  0  0  0  0  0  0  0  0  0  0
  -18.5179  -26.9890   22.4416 C   0  0  0  0  0  0  0  0  0  0  0  0
  -24.5811  -25.2443   24.5314 C   0  0  0  0  0  0  0  0  0  0  0  0
  -19.8974  -26.8170   22.2182 C   0  0  0  0  0  0  0  0  0  0  0  0
  -25.7325  -25.9619   24.1774 C   0  0  0  0  0  0  0  0  0  0  0  0
  -27.9839  -23.7159   19.3968 C   0  0  0  0  0  0  0  0  0  0  0  0
  -25.5186  -11.1858   20.8644 C   0  0  0  0  0  0  0  0  0  0  0  0
  -26.5760  -24.0061   23.0054 C   0  0  0  0  0  0  0  0  0  0  0  0
  -24.1384   -9.2860   20.9553 C   0  0  0  0  0  0  0  0  0  0  0  0
  -21.5788   -8.1794   20.8773 C   0  0  0  0  0  0  0  0  0  0  0  0
  -23.1861   -9.6640   21.9018 C   0  0  0  0  0  0  0  0  0  0  0  0
  -25.8578  -15.3839   20.4659 C   0  0  0  0  0  0  0  0  0  0  0  0
  -26.9401  -24.0978   18.5790 C   0  0  0  0  0  0  0  0  0  0  0  0
  -26.4736  -17.4128   19.8835 C   0  0  0  0  0  0  0  0  0  0  0  0
  -27.9543  -26.0809   18.1257 C   0  0  0  0  0  0  0  0  0  0  0  0
  -27.7982  -15.5961   18.7911 C   0  0  0  0  0  0  0  0  0  0  0  0
  -22.9437  -27.9159   23.9974 C   0  0  0  0  0  0  0  0  0  0  0  0
  -25.0252  -29.1603   26.1517 C   0  0  0  0  0  0  0  0  0  0  0  0
  -28.0693  -28.9702   27.6827 C   0  0  0  0  0  0  0  0  0  0  0  0
  -22.7532  -21.5317   20.4658 C   0  0  0  0  0  0  0  0  0  0  0  0
  -17.9560  -28.2830   22.9749 C   0  0  0  0  0  0  0  0  0  0  0  0
  -23.5145  -25.8845   25.3770 C   0  0  0  0  0  0  0  0  0  0  0  0
  -25.9334  -27.3950   24.5947 C   0  0  0  0  0  0  0  0  0  0  0  0
  -19.0025  -29.1732   23.6401 C   0  0  0  0  0  0  0  0  0  0  0  0
  -23.4928  -19.5785   23.3493 C   0  0  0  0  0  0  0  0  0  0  0  0
  -20.2521  -29.2695   22.7706 C   0  0  0  0  0  0  0  0  0  0  0  0
  -24.2435  -18.3690   22.7891 C   0  0  0  0  0  0  0  0  0  0  0  0
  -22.3823  -20.0391   22.4077 C   0  0  0  0  0  0  0  0  0  0  0  0
  -23.5656  -19.0952   20.4628 C   0  0  0  0  0  0  0  0  0  0  0  0
  -20.8989  -27.8923   22.5799 C   0  0  1  0  0  0  0  0  0  0  0  0
  -23.5170  -27.4075   25.2899 C   0  0  1  0  0  0  0  0  0  0  0  0
  -24.7316  -18.6287   21.3512 C   0  0  2  0  0  0  0  0  0  0  0  0
  -27.9381  -27.3941   17.4191 C   0  0  0  0  0  0  0  0  0  0  0  0
  -29.5021  -30.1504   29.3714 C   0  0  0  0  0  0  0  0  0  0  0  0
  -25.6776  -31.3130   24.0901 C   0  0  0  0  0  0  0  0  0  0  0  0
  -27.7309  -31.8602   25.4140 C   0  0  0  0  0  0  0  0  0  0  0  0
  -25.4749  -32.1458   26.4395 C   0  0  0  0  0  0  0  0  0  0  0  0
  -28.1279  -26.6035   29.4587 C   0  0  0  0  0  0  0  0  0  0  0  0
  -28.0237  -22.3928   20.1221 C   0  0  0  0  0  0  0  0  0  0  0  0
  -25.7729  -23.1899   18.3716 C   0  0  0  0  0  0  0  0  0  0  0  0
  -24.4086  -23.8191   18.7134 C   0  0  0  0  0  0  0  0  0  0  0  0
  -23.2120  -22.9071   18.4516 C   0  0  0  0  0  0  0  0  0  0  0  0
  -27.1320  -22.3825   21.3590 C   0  0  0  0  0  0  0  0  0  1  0  0
  -26.3830  -29.8152   26.0712 C   0  0  1  0  0  0  0  0  0  0  0  0
  -28.4687  -29.0579   29.1446 C   0  0  2  0  0  0  0  0  0  0  0  0
  -26.3122  -31.2572   25.4940 C   0  0  0  0  0  0  0  0  0  0  0  0
  -29.0294  -25.8251   18.8953 N   0  0  0  0  0  0  0  0  0  0  0  0
  -25.0405  -16.1903   21.1482 N   0  0  0  0  0  0  0  0  0  0  0  0
  -26.8923  -25.2774   17.9258 N   0  0  0  0  0  0  0  0  0  0  0  0
  -25.4398  -17.4175   20.7732 N   0  0  0  0  0  0  0  0  0  0  0  0
  -24.8595  -27.9787   25.4154 N   0  0  0  0  0  0  0  0  0  0  0  0
  -22.9115  -20.2694   21.0613 N   0  0  0  0  0  0  0  0  0  0  0  0
  -26.9976  -18.5603   19.4028 N   0  0  0  0  0  0  0  0  0  0  0  0
  -27.9691  -14.2095   18.6798 N   0  0  0  0  0  0  0  0  0  0  0  0
  -21.6423  -27.5149   23.7629 N   0  0  0  0  0  0  0  0  0  0  0  0
  -26.9547  -29.7353   27.4110 N   0  0  0  0  0  0  0  0  0  0  0  0
  -23.2897  -21.6670   19.1912 N   0  0  0  0  0  0  0  0  0  0  0  0
  -29.0461  -27.7625   29.6024 N   0  3  0  0  0  0  0  0  0  0  0  0
  -28.5526  -16.3615   18.1441 O   0  0  0  0  0  0  0  0  0  0  0  0
  -23.6307  -28.6210   23.2676 O   0  0  0  0  0  0  0  0  0  0  0  0
  -24.1462  -29.6743   26.8480 O   0  0  0  0  0  0  0  0  0  0  0  0
  -28.6865  -28.2939   26.8629 O   0  0  0  0  0  0  0  0  0  0  0  0
  -22.1812  -22.4703   21.0305 O   0  0  0  0  0  0  0  0  0  0  0  0
  -25.4091   -9.8351   20.9921 O   0  0  0  0  0  0  0  0  0  0  0  0
  -27.5454  -23.4090   22.2600 O   0  0  0  0  0  0  0  0  0  1  0  0
  -20.3493   -7.6490   20.8389 F   0  0  0  0  0  0  0  0  0  0  0  0
  -23.4945  -10.5590   22.8502 F   0  0  0  0  0  0  0  0  0  0  0  0
  1  2  1  0  0  0  0
  1  5  2  0  0  0  0
  2  6  2  0  0  0  0
  3  8  2  0  0  0  0
  3 16  1  0  0  0  0
  4  9  1  0  0  0  0
  4 16  2  0  0  0  0
  5 18  1  0  0  0  0
  6 20  1  0  0  0  0
  7 10  2  0  0  0  0
  7 19  1  0  0  0  0
  8 23  1  0  0  0  0
  9 23  2  0  0  0  0
 10 24  1  0  0  0  0
 11 12  2  0  0  0  0
 11 25  1  0  0  0  0
 12 26  1  0  0  0  0
 13 21  1  0  0  0  0
 13 24  2  0  0  0  0
 14 26  2  0  0  0  0
 14 27  1  0  0  0  0
 15 22  1  0  0  0  0
 15 63  2  0  0  0  0
 16 28  1  0  0  0  0
 17 28  1  0  0  0  0
 17 30  2  0  0  0  0
 17 32  1  0  0  0  0
 18 20  2  0  0  0  0
 18 37  1  0  0  0  0
 19 21  2  0  0  0  0
 19 38  1  0  0  0  0
 20 46  1  0  0  0  0
 21 39  1  0  0  0  0
 22 29  2  0  0  0  0
 22 55  1  0  0  0  0
 23 80  1  0  0  0  0
 24 81  1  0  0  0  0
 25 27  2  0  0  0  0
 25 80  1  0  0  0  0
 26 82  1  0  0  0  0
 27 83  1  0  0  0  0
 28 64  2  0  0  0  0
 29 56  1  0  0  0  0
 29 65  1  0  0  0  0
 30 66  1  0  0  0  0
 30 69  1  0  0  0  0
 31 49  1  0  0  0  0
 31 63  1  0  0  0  0
 31 65  2  0  0  0  0
 32 70  1  0  0  0  0
 32 75  2  0  0  0  0
 33 47  1  0  0  0  0
 33 71  1  0  0  0  0
 33 76  2  0  0  0  0
 34 60  1  0  0  0  0
 34 67  1  0  0  0  0
 34 77  2  0  0  0  0
 35 61  1  0  0  0  0
 35 72  1  0  0  0  0
 35 78  2  0  0  0  0
 36 68  1  0  0  0  0
 36 73  1  0  0  0  0
 36 79  2  0  0  0  0
 37 40  1  0  0  0  0
 38 47  1  0  0  0  0
 39 67  1  0  0  0  0
 40 42  1  0  0  0  0
 41 43  1  0  0  0  0
 41 44  1  0  0  0  0
 42 46  1  0  0  0  0
 43 48  1  0  0  0  0
 44 68  1  0  0  0  0
 45 48  1  0  0  0  0
 45 68  1  0  0  0  0
 46 71  1  0  0  0  0
 47 67  1  0  0  0  0
 48 66  1  0  0  0  0
 50 61  1  0  0  0  0
 51 62  1  0  0  0  0
 52 62  1  0  0  0  0
 53 62  1  0  0  0  0
 54 74  1  0  0  0  0
 55 59  1  0  0  0  0
 56 57  1  0  0  0  0
 57 58  1  0  0  0  0
 58 73  1  0  0  0  0
 59 81  1  0  0  0  0
 60 62  1  0  0  0  0
 60 72  1  0  0  0  0
 61 74  1  0  0  0  0
 64 66  1  0  0  0  0
M  CHG  1  74   1
M  ISO  4  36 100  59 101  73 100  81 101
M  END
> <Batch ID>
0044

> <Smiles>
CNC(C)C(=O)NC(C(=O)N1Cc2cc([101O:1][101CH2:1]Cc3cnc(C)nc3CCC[100NH:0][100C:0](=O)N3CCCC(n4nc(-c5ccc(Oc6ccc(F)cc6F)cc5)c(C(N)=O)c4N)C3)ccc2CC1C(=O)NC1CCCc2ccccc21)C(C)(C)C

> <Shape>
0.198

> <Color>
0.086

> <Negative vol penalty>
0.000

$$$$

  -OEChem-04052317173D

 91100  0     1  0  0  0  0  0999 V2000
  -19.2297  -26.0525   17.4959 C   0  0  0  0  0  0  0  0  0  0  0  0
  -20.6198  -26.0723   17.5457 C   0  0  0  0  0  0  0  0  0  0  0  0
  -25.2329  -11.0036   23.8768 C   0  0  0  0  0  0  0  0  0  0  0  0
  -24.9143   -9.4946   22.0171 C   0  0  0  0  0  0  0  0  0  0  0  0
  -18.5138  -27.2470   17.5635 C   0  0  0  0  0  0  0  0  0  0  0  0
  -21.2950  -27.2868   17.6622 C   0  0  0  0  0  0  0  0  0  0  0  0
  -25.0273  -27.1148   21.0805 C   0  0  0  0  0  0  0  0  0  0  0  0
  -25.0773   -9.9405   24.7662 C   0  0  0  0  0  0  0  0  0  0  0  0
  -24.7587   -8.4314   22.9065 C   0  0  0  0  0  0  0  0  0  0  0  0
  -26.2168  -26.4988   20.6940 C   0  0  0  0  0  0  0  0  0  0  0  0
  -22.3320   -7.1927   24.9084 C   0  0  0  0  0  0  0  0  0  0  0  0
  -21.2832   -6.3026   24.6773 C   0  0  0  0  0  0  0  0  0  0  0  0
  -27.1963  -28.6640   20.2794 C   0  0  0  0  0  0  0  0  0  0  0  0
  -22.8675   -4.4908   24.4661 C   0  0  0  0  0  0  0  0  0  0  0  0
  -31.6557  -19.4856   20.6200 C   0  0  0  0  0  0  0  0  0  0  0  0
  -25.1514  -10.7807   22.5022 C   0  0  0  0  0  0  0  0  0  0  0  0
  -24.5226  -13.0418   21.5024 C   0  0  0  0  0  0  0  0  0  0  0  0
  -19.1802  -28.4760   17.6905 C   0  0  0  0  0  0  0  0  0  0  0  0
  -24.9096  -28.5120   21.0589 C   0  0  0  0  0  0  0  0  0  0  0  0
  -20.5874  -28.4990   17.7302 C   0  0  0  0  0  0  0  0  0  0  0  0
  -26.0050  -29.2954   20.6685 C   0  0  0  0  0  0  0  0  0  0  0  0
  -30.6077  -18.6077   20.4325 C   0  0  0  0  0  0  0  0  0  0  0  0
  -24.8403   -8.6544   24.2811 C   0  0  0  0  0  0  0  0  0  0  0  0
  -27.3006  -27.2733   20.2906 C   0  0  0  0  0  0  0  0  0  0  0  0
  -23.6485   -6.7318   24.9183 C   0  0  0  0  0  0  0  0  0  0  0  0
  -21.5510   -4.9516   24.4562 C   0  0  0  0  0  0  0  0  0  0  0  0
  -23.9163   -5.3809   24.6972 C   0  0  0  0  0  0  0  0  0  0  0  0
  -25.3115  -11.8787   21.5830 C   0  0  0  0  0  0  0  0  0  0  0  0
  -29.3785  -19.1876   20.1936 C   0  0  0  0  0  0  0  0  0  0  0  0
  -25.0802  -13.7645   20.4761 C   0  0  0  0  0  0  0  0  0  0  0  0
  -30.2768  -21.2707   20.3383 C   0  0  0  0  0  0  0  0  0  0  0  0
  -23.3873  -13.4341   22.2853 C   0  0  0  0  0  0  0  0  0  0  0  0
  -23.0729  -30.5844   19.4983 C   0  0  0  0  0  0  0  0  0  0  0  0
  -24.5294  -32.7393   21.4367 C   0  0  0  0  0  0  0  0  0  0  0  0
  -27.2260  -33.5396   23.3691 C   0  0  0  0  0  0  0  0  0  0  0  0
  -30.5744  -13.8999   18.0999 C   0  0  0  0  0  0  0  0  0  0  0  0
  -18.3651  -29.7448   17.7123 C   0  0  0  0  0  0  0  0  0  0  0  0
  -23.6284  -29.1620   21.5044 C   0  0  0  0  0  0  0  0  0  0  0  0
  -25.9365  -30.7998   20.6470 C   0  0  0  0  0  0  0  0  0  0  0  0
  -19.1426  -30.9597   18.2123 C   0  0  0  0  0  0  0  0  0  0  0  0
  -27.5234  -13.2076   16.4004 C   0  0  0  0  0  0  0  0  0  0  0  0
  -20.5116  -31.0298   17.5430 C   0  0  0  0  0  0  0  0  0  0  0  0
  -29.1437  -23.2756   21.3906 C   0  0  0  0  0  0  0  0  0  0  0  0
  -29.6143  -23.2440   18.8972 C   0  0  0  0  0  0  0  0  0  0  0  0
  -26.5394  -12.8935   17.5286 C   0  0  0  0  0  0  0  0  0  0  0  0
  -28.9691  -24.7910   21.3318 C   0  0  0  0  0  0  0  0  0  0  0  0
  -29.4379  -24.7595   18.8517 C   0  0  0  0  0  0  0  0  0  0  0  0
  -28.9237  -12.6831   16.7105 C   0  0  0  0  0  0  0  0  0  0  0  0
  -28.4925  -12.8075   19.1338 C   0  0  0  0  0  0  0  0  0  0  0  0
  -21.3549  -29.7945   17.8811 C   0  0  1  0  0  0  0  0  0  0  0  0
  -30.0898  -22.7760   20.2842 C   0  0  0  0  0  0  0  0  0  0  0  0
  -23.4510  -30.5732   20.9525 C   0  0  1  0  0  0  0  0  0  0  0  0
  -27.0797  -13.3659   18.8917 C   0  0  2  0  0  0  0  0  0  0  0  0
  -28.5017  -25.2522   19.9526 C   0  0  0  0  0  0  0  0  0  1  0  0
  -28.1020  -19.2141   14.9732 C   0  0  0  0  0  0  0  0  0  0  0  0
  -28.1478  -35.3859   24.7970 C   0  0  0  0  0  0  0  0  0  0  0  0
  -25.2784  -34.3035   18.9263 C   0  0  0  0  0  0  0  0  0  0  0  0
  -26.9550  -35.5620   20.2951 C   0  0  0  0  0  0  0  0  0  0  0  0
  -24.5277  -35.7148   20.8496 C   0  0  0  0  0  0  0  0  0  0  0  0
  -27.2510  -31.8210   25.7784 C   0  0  0  0  0  0  0  0  0  0  0  0
  -30.8158  -17.1384   20.4897 C   0  0  0  0  0  0  0  0  0  0  0  0
  -28.1718  -18.3357   19.9755 C   0  0  0  0  0  0  0  0  0  0  0  0
  -28.0420  -18.1664   16.0734 C   0  0  0  0  0  0  0  0  0  0  0  0
  -31.8902  -16.6015   19.5191 C   0  0  0  0  0  0  0  0  0  0  0  0
  -28.0845  -17.7434   18.5634 C   0  0  0  0  0  0  0  0  0  0  0  0
  -28.1062  -18.8066   17.4606 C   0  0  0  0  0  0  0  0  0  0  0  0
  -32.1291  -15.0965   19.6199 C   0  0  0  0  0  0  0  0  0  0  0  0
  -25.7818  -33.5779   21.3524 C   0  0  1  0  0  0  0  0  0  0  0  0
  -27.3259  -34.1066   24.7738 C   0  0  2  0  0  0  0  0  0  0  0  0
  -25.6367  -34.7612   20.3543 C   0  0  0  0  0  0  0  0  0  0  0  0
  -31.5256  -20.8279   20.5794 N   0  0  0  0  0  0  0  0  0  0  0  0
  -26.2952  -11.8592   20.6797 N   0  0  0  0  0  0  0  0  0  0  0  0
  -29.1762  -20.5205   20.1397 N   0  0  0  0  0  0  0  0  0  0  0  0
  -26.1281  -13.0191   20.0218 N   0  0  0  0  0  0  0  0  0  0  0  0
  -24.6602  -31.3882   21.0855 N   0  0  0  0  0  0  0  0  0  0  0  0
  -29.3780  -13.1688   18.0156 N   0  0  0  0  0  0  0  0  0  0  0  0
  -24.7714  -14.9584   19.9269 N   0  0  0  0  0  0  0  0  0  0  0  0
  -22.1109  -13.0544   21.8483 N   0  0  0  0  0  0  0  0  0  0  0  0
  -21.9024  -29.9063   19.2161 N   0  0  0  0  0  0  0  0  0  0  0  0
  -26.0942  -33.9835   22.7185 N   0  0  0  0  0  0  0  0  0  0  0  0
  -30.9291  -14.3284   19.3733 N   0  0  0  0  0  0  0  0  0  0  0  0
  -27.9680  -33.1189   25.6866 N   0  3  0  0  0  0  0  0  0  0  0  0
  -23.5002  -14.1154   23.3325 O   0  0  0  0  0  0  0  0  0  0  0  0
  -23.7892  -31.1665   18.6922 O   0  0  0  0  0  0  0  0  0  0  0  0
  -23.4754  -33.2621   21.8075 O   0  0  0  0  0  0  0  0  0  0  0  0
  -28.0697  -32.7820   22.8951 O   0  0  0  0  0  0  0  0  0  0  0  0
  -31.2719  -14.1567   17.1127 O   0  0  0  0  0  0  0  0  0  0  0  0
  -24.6886   -7.6166   25.1487 O   0  0  0  0  0  0  0  0  0  0  0  0
  -28.4626  -26.6746   19.9122 O   0  0  0  0  0  0  0  0  0  1  0  0
  -20.5436   -4.0967   24.2358 F   0  0  0  0  0  0  0  0  0  0  0  0
  -25.1789   -4.9321   24.7067 F   0  0  0  0  0  0  0  0  0  0  0  0
  1  2  1  0  0  0  0
  1  5  2  0  0  0  0
  2  6  2  0  0  0  0
  3  8  2  0  0  0  0
  3 16  1  0  0  0  0
  4  9  1  0  0  0  0
  4 16  2  0  0  0  0
  5 18  1  0  0  0  0
  6 20  1  0  0  0  0
  7 10  2  0  0  0  0
  7 19  1  0  0  0  0
  8 23  1  0  0  0  0
  9 23  2  0  0  0  0
 10 24  1  0  0  0  0
 11 12  2  0  0  0  0
 11 25  1  0  0  0  0
 12 26  1  0  0  0  0
 13 21  1  0  0  0  0
 13 24  2  0  0  0  0
 14 26  2  0  0  0  0
 14 27  1  0  0  0  0
 15 22  1  0  0  0  0
 15 71  2  0  0  0  0
 16 28  1  0  0  0  0
 17 28  1  0  0  0  0
 17 30  2  0  0  0  0
 17 32  1  0  0  0  0
 18 20  2  0  0  0  0
 18 37  1  0  0  0  0
 19 21  2  0  0  0  0
 19 38  1  0  0  0  0
 20 50  1  0  0  0  0
 21 39  1  0  0  0  0
 22 29  2  0  0  0  0
 22 61  1  0  0  0  0
 23 88  1  0  0  0  0
 24 89  1  0  0  0  0
 25 27  2  0  0  0  0
 25 88  1  0  0  0  0
 26 90  1  0  0  0  0
 27 91  1  0  0  0  0
 28 72  2  0  0  0  0
 29 62  1  0  0  0  0
 29 73  1  0  0  0  0
 30 74  1  0  0  0  0
 30 77  1  0  0  0  0
 31 51  1  0  0  0  0
 31 71  1  0  0  0  0
 31 73  2  0  0  0  0
 32 78  1  0  0  0  0
 32 83  2  0  0  0  0
 33 52  1  0  0  0  0
 33 79  1  0  0  0  0
 33 84  2  0  0  0  0
 34 68  1  0  0  0  0
 34 75  1  0  0  0  0
 34 85  2  0  0  0  0
 35 69  1  0  0  0  0
 35 80  1  0  0  0  0
 35 86  2  0  0  0  0
 36 76  1  0  0  0  0
 36 81  1  0  0  0  0
 36 87  2  0  0  0  0
 37 40  1  0  0  0  0
 38 52  1  0  0  0  0
 39 75  1  0  0  0  0
 40 42  1  0  0  0  0
 41 45  1  0  0  0  0
 41 48  1  0  0  0  0
 42 50  1  0  0  0  0
 43 46  1  0  0  0  0
 43 51  1  0  0  0  0
 44 47  1  0  0  0  0
 44 51  1  0  0  0  0
 45 53  1  0  0  0  0
 46 54  1  0  0  0  0
 47 54  1  0  0  0  0
 48 76  1  0  0  0  0
 49 53  1  0  0  0  0
 49 76  1  0  0  0  0
 50 79  1  0  0  0  0
 52 75  1  0  0  0  0
 53 74  1  0  0  0  0
 54 89  1  0  0  0  0
 55 63  1  0  0  0  0
 56 69  1  0  0  0  0
 57 70  1  0  0  0  0
 58 70  1  0  0  0  0
 59 70  1  0  0  0  0
 60 82  1  0  0  0  0
 61 64  1  0  0  0  0
 62 65  1  0  0  0  0
 63 66  1  0  0  0  0
 64 67  1  0  0  0  0
 65 66  1  0  0  0  0
 67 81  1  0  0  0  0
 68 70  1  0  0  0  0
 68 80  1  0  0  0  0
 69 82  1  0  0  0  0
 72 74  1  0  0  0  0
M  CHG  1  82   1
M  ISO  4  36 100  54 101  81 100  89 101
M  END
> <Batch ID>
0044

> <Smiles>
CCCCCc1nc(C2CC[101CH:1]([101O:1]c3ccc4c(c3)CN(C(=O)C(NC(=O)C(C)NC)C(C)(C)C)C(C(=O)NC3CCCc5ccccc53)C4)CC2)ncc1CCC[100NH:0][100C:0](=O)N1CCCC(n2nc(-c3ccc(Oc4ccc(F)cc4F)cc3)c(C(N)=O)c2N)C1

> <Shape>
0.285

> <Color>
0.143

> <Negative vol penalty>
0.000

$$$$

  -OEChem-04052317173D

 83 91  0     1  0  0  0  0  0999 V2000
  -30.3563  -24.4141   15.0207 C   0  0  0  0  0  0  0  0  0  0  0  0
  -29.0256  -24.4819   15.4208 C   0  0  0  0  0  0  0  0  0  0  0  0
  -26.3286  -12.4743   21.0080 C   0  0  0  0  0  0  0  0  0  0  0  0
  -24.8245  -13.6213   19.5050 C   0  0  0  0  0  0  0  0  0  0  0  0
  -31.3741  -24.6205   15.9510 C   0  0  0  0  0  0  0  0  0  0  0  0
  -28.7120  -24.7551   16.7517 C   0  0  0  0  0  0  0  0  0  0  0  0
  -23.9228  -27.9619   18.8219 C   0  0  0  0  0  0  0  0  0  0  0  0
  -25.2950  -11.6188   21.3894 C   0  0  0  0  0  0  0  0  0  0  0  0
  -23.7910  -12.7658   19.8863 C   0  0  0  0  0  0  0  0  0  0  0  0
  -22.6832  -27.5746   19.3291 C   0  0  0  0  0  0  0  0  0  0  0  0
  -23.7349   -8.8884   20.1468 C   0  0  0  0  0  0  0  0  0  0  0  0
  -24.0175   -7.5248   20.2246 C   0  0  0  0  0  0  0  0  0  0  0  0
  -23.5486  -27.7645   21.5728 C   0  0  0  0  0  0  0  0  0  0  0  0
  -23.4273   -7.5361   22.5674 C   0  0  0  0  0  0  0  0  0  0  0  0
  -21.5291  -22.6537   22.4424 C   0  0  0  0  0  0  0  0  0  0  0  0
  -22.1218  -23.2609   20.3700 C   0  0  0  0  0  0  0  0  0  0  0  0
  -26.0933  -13.4756   20.0659 C   0  0  0  0  0  0  0  0  0  0  0  0
  -28.0730  -14.1737   18.6163 C   0  0  0  0  0  0  0  0  0  0  0  0
  -31.0727  -24.9059   17.2920 C   0  0  0  0  0  0  0  0  0  0  0  0
  -24.9895  -28.2433   19.6875 C   0  0  0  0  0  0  0  0  0  0  0  0
  -29.7267  -24.9642   17.7011 C   0  0  0  0  0  0  0  0  0  0  0  0
  -24.8000  -28.1576   21.0742 C   0  0  0  0  0  0  0  0  0  0  0  0
  -22.6433  -21.9191   22.1013 C   0  0  0  0  0  0  0  0  0  0  0  0
  -23.0182  -22.3031   20.7902 C   0  0  0  0  0  0  0  0  0  0  0  0
  -24.0262  -11.7645   20.8286 C   0  0  0  0  0  0  0  0  0  0  0  0
  -22.4968  -27.4730   20.7046 C   0  0  0  0  0  0  0  0  0  0  0  0
  -23.2985   -9.5760   21.2793 C   0  0  0  0  0  0  0  0  0  0  0  0
  -23.8637   -6.8486   21.4349 C   0  0  0  0  0  0  0  0  0  0  0  0
  -23.1447   -8.8998   22.4896 C   0  0  0  0  0  0  0  0  0  0  0  0
  -27.1604  -14.3600   19.6719 C   0  0  0  0  0  0  0  0  0  0  0  0
  -28.8780  -15.2858   18.6580 C   0  0  0  0  0  0  0  0  0  0  0  0
  -28.1830  -13.0922   17.6815 C   0  0  0  0  0  0  0  0  0  0  0  0
  -27.8776  -27.0045   20.1650 C   0  0  0  0  0  0  0  0  0  0  0  0
  -28.1958  -29.5214   22.1864 C   0  0  0  0  0  0  0  0  0  0  0  0
  -26.6867  -31.8586   24.1630 C   0  0  0  0  0  0  0  0  0  0  0  0
  -28.0565  -20.8381   20.7433 C   0  0  0  0  0  0  0  0  0  0  0  0
  -32.2074  -25.0749   18.2710 C   0  0  0  0  0  0  0  0  0  0  0  0
  -26.3127  -28.6857   19.1255 C   0  0  0  0  0  0  0  0  0  0  0  0
  -25.9073  -28.4685   22.0467 C   0  0  0  0  0  0  0  0  0  0  0  0
  -31.7865  -25.7299   19.5841 C   0  0  0  0  0  0  0  0  0  0  0  0
  -30.6055  -18.5455   21.7045 C   0  0  0  0  0  0  0  0  0  0  0  0
  -30.5071  -25.0900   20.1137 C   0  0  0  0  0  0  0  0  0  0  0  0
  -30.0939  -17.1961   21.1973 C   0  0  0  0  0  0  0  0  0  0  0  0
  -29.4660  -19.4265   22.2120 C   0  0  0  0  0  0  0  0  0  0  0  0
  -27.8524  -18.2779   20.7455 C   0  0  0  0  0  0  0  0  0  0  0  0
  -29.3461  -25.2826   19.1307 C   0  0  1  0  0  0  0  0  0  0  0  0
  -27.4772  -28.4503   20.0826 C   0  0  1  0  0  0  0  0  0  0  0  0
  -28.9588  -17.3763   20.1715 C   0  0  2  0  0  0  0  0  0  0  0  0
  -23.3155  -20.9191   22.9546 C   0  0  0  0  0  0  0  0  0  0  0  0
  -27.2096  -33.7551   25.7210 C   0  0  0  0  0  0  0  0  0  0  0  0
  -28.9825  -27.5217   24.3525 C   0  0  0  0  0  0  0  0  0  0  0  0
  -28.5645  -29.3083   26.0559 C   0  0  0  0  0  0  0  0  0  0  0  0
  -30.3383  -29.6230   24.3306 C   0  0  0  0  0  0  0  0  0  0  0  0
  -25.2535  -33.8075   22.4581 C   0  0  0  0  0  0  0  0  0  0  0  0
  -24.1563  -21.7809   20.0084 C   0  0  0  0  0  0  0  0  0  0  0  0
  -25.4061  -22.6937   19.9846 C   0  0  0  0  0  0  0  0  0  0  0  0
  -20.0814  -25.4596   22.4778 C   0  0  0  0  0  0  0  0  0  0  0  0
  -20.0697  -24.4385   21.3380 C   0  0  0  0  0  0  0  0  0  0  0  0
  -26.5855  -22.1151   19.2057 C   0  0  0  0  0  0  0  0  0  0  0  0
  -21.2883  -26.3899   22.4431 C   0  0  0  0  0  0  0  0  0  1  0  0
  -27.9077  -29.7612   23.6488 C   0  0  1  0  0  0  0  0  0  0  0  0
  -26.8932  -33.3574   24.2877 C   0  0  2  0  0  0  0  0  0  0  0  0
  -28.9277  -29.0457   24.5788 C   0  0  0  0  0  0  0  0  0  0  0  0
  -27.3659  -15.5006   20.3359 N   0  0  0  0  0  0  0  0  0  0  0  0
  -21.2213  -23.4662   21.3825 N   0  0  0  0  0  0  0  0  0  0  0  0
  -28.4169  -16.0410   19.6959 N   0  0  0  0  0  0  0  0  0  0  0  0
  -27.1843  -28.8908   21.4481 N   0  0  0  0  0  0  0  0  0  0  0  0
  -28.4235  -19.5584   21.1914 N   0  0  0  0  0  0  0  0  0  0  0  0
  -29.9283  -15.6815   17.9079 N   0  0  0  0  0  0  0  0  0  0  0  0
  -27.2751  -12.0290   17.7798 N   0  0  0  0  0  0  0  0  0  0  0  0
  -28.8199  -26.6274   19.2273 N   0  0  0  0  0  0  0  0  0  0  0  0
  -27.8541  -31.2088   23.8222 N   0  0  0  0  0  0  0  0  0  0  0  0
  -27.0652  -20.8734   19.7703 N   0  0  0  0  0  0  0  0  0  0  0  0
  -25.6670  -34.0868   23.8574 N   0  3  0  0  0  0  0  0  0  0  0  0
  -29.0708  -13.0614   16.7958 O   0  0  0  0  0  0  0  0  0  0  0  0
  -27.3704  -26.2847   21.0172 O   0  0  0  0  0  0  0  0  0  0  0  0
  -29.2755  -29.8869   21.7149 O   0  0  0  0  0  0  0  0  0  0  0  0
  -25.5994  -31.3180   24.3529 O   0  0  0  0  0  0  0  0  0  0  0  0
  -28.5778  -21.8723   21.1743 O   0  0  0  0  0  0  0  0  0  0  0  0
  -23.0175  -10.9297   21.2003 O   0  0  0  0  0  0  0  0  0  0  0  0
  -21.2881  -27.0946   21.2022 O   0  0  0  0  0  0  0  0  0  1  0  0
  -24.1337   -5.5387   21.5091 F   0  0  0  0  0  0  0  0  0  0  0  0
  -22.7247   -9.5547   23.5807 F   0  0  0  0  0  0  0  0  0  0  0  0
  1  2  1  0  0  0  0
  1  5  2  0  0  0  0
  2  6  2  0  0  0  0
  3  8  2  0  0  0  0
  3 17  1  0  0  0  0
  4  9  1  0  0  0  0
  4 17  2  0  0  0  0
  5 19  1  0  0  0  0
  6 21  1  0  0  0  0
  7 10  2  0  0  0  0
  7 20  1  0  0  0  0
  8 25  1  0  0  0  0
  9 25  2  0  0  0  0
 10 26  1  0  0  0  0
 11 12  2  0  0  0  0
 11 27  1  0  0  0  0
 12 28  1  0  0  0  0
 13 22  1  0  0  0  0
 13 26  2  0  0  0  0
 14 28  2  0  0  0  0
 14 29  1  0  0  0  0
 15 23  2  0  0  0  0
 15 65  1  0  0  0  0
 16 24  2  0  0  0  0
 16 65  1  0  0  0  0
 17 30  1  0  0  0  0
 18 30  1  0  0  0  0
 18 31  2  0  0  0  0
 18 32  1  0  0  0  0
 19 21  2  0  0  0  0
 19 37  1  0  0  0  0
 20 22  2  0  0  0  0
 20 38  1  0  0  0  0
 21 46  1  0  0  0  0
 22 39  1  0  0  0  0
 23 24  1  0  0  0  0
 23 49  1  0  0  0  0
 24 55  1  0  0  0  0
 25 80  1  0  0  0  0
 26 81  1  0  0  0  0
 27 29  2  0  0  0  0
 27 80  1  0  0  0  0
 28 82  1  0  0  0  0
 29 83  1  0  0  0  0
 30 64  2  0  0  0  0
 31 66  1  0  0  0  0
 31 69  1  0  0  0  0
 32 70  1  0  0  0  0
 32 75  2  0  0  0  0
 33 47  1  0  0  0  0
 33 71  1  0  0  0  0
 33 76  2  0  0  0  0
 34 61  1  0  0  0  0
 34 67  1  0  0  0  0
 34 77  2  0  0  0  0
 35 62  1  0  0  0  0
 35 72  1  0  0  0  0
 35 78  2  0  0  0  0
 36 68  1  0  0  0  0
 36 73  1  0  0  0  0
 36 79  2  0  0  0  0
 37 40  1  0  0  0  0
 38 47  1  0  0  0  0
 39 67  1  0  0  0  0
 40 42  1  0  0  0  0
 41 43  1  0  0  0  0
 41 44  1  0  0  0  0
 42 46  1  0  0  0  0
 43 48  1  0  0  0  0
 44 68  1  0  0  0  0
 45 48  1  0  0  0  0
 45 68  1  0  0  0  0
 46 71  1  0  0  0  0
 47 67  1  0  0  0  0
 48 66  1  0  0  0  0
 50 62  1  0  0  0  0
 51 63  1  0  0  0  0
 52 63  1  0  0  0  0
 53 63  1  0  0  0  0
 54 74  1  0  0  0  0
 55 56  1  0  0  0  0
 56 59  1  0  0  0  0
 57 58  1  0  0  0  0
 57 60  1  0  0  0  0
 58 65  1  0  0  0  0
 59 73  1  0  0  0  0
 60 81  1  0  0  0  0
 61 63  1  0  0  0  0
 61 72  1  0  0  0  0
 62 74  1  0  0  0  0
 64 66  1  0  0  0  0
M  CHG  1  74   1
M  ISO  4  36 100  60 101  73 100  81 101
M  END
> <Batch ID>
0044

> <Smiles>
CNC(C)C(=O)NC(C(=O)N1Cc2cc([101O:1][101CH2:1]CCn3cc(C)c(CCC[100NH:0][100C:0](=O)N4CCCC(n5nc(-c6ccc(Oc7ccc(F)cc7F)cc6)c(C(N)=O)c5N)C4)c3)ccc2CC1C(=O)NC1CCCc2ccccc21)C(C)(C)C

> <Shape>
0.286

> <Color>
0.058

> <Negative vol penalty>
0.000

$$$$

  -OEChem-04052317173D

 83 91  0     1  0  0  0  0  0999 V2000
  -16.9034  -24.9961   23.9273 C   0  0  0  0  0  0  0  0  0  0  0  0
  -17.5705  -24.3084   22.9186 C   0  0  0  0  0  0  0  0  0  0  0  0
  -25.7298  -12.5847   22.2693 C   0  0  0  0  0  0  0  0  0  0  0  0
  -25.7474  -13.6921   20.1221 C   0  0  0  0  0  0  0  0  0  0  0  0
  -17.2129  -26.3316   24.1814 C   0  0  0  0  0  0  0  0  0  0  0  0
  -18.5468  -24.9563   22.1626 C   0  0  0  0  0  0  0  0  0  0  0  0
  -23.6646  -22.4939   19.8713 C   0  0  0  0  0  0  0  0  0  0  0  0
  -24.6443  -11.8099   21.8608 C   0  0  0  0  0  0  0  0  0  0  0  0
  -24.6619  -12.9172   19.7136 C   0  0  0  0  0  0  0  0  0  0  0  0
  -23.9865  -22.0090   18.6044 C   0  0  0  0  0  0  0  0  0  0  0  0
  -22.0975   -9.2876   21.2551 C   0  0  0  0  0  0  0  0  0  0  0  0
  -22.1341   -7.9216   21.5346 C   0  0  0  0  0  0  0  0  0  0  0  0
  -24.9782  -24.1366   18.0486 C   0  0  0  0  0  0  0  0  0  0  0  0
  -24.1526   -7.7074   20.2243 C   0  0  0  0  0  0  0  0  0  0  0  0
  -28.7603  -21.7512   17.6240 C   0  0  0  0  0  0  0  0  0  0  0  0
  -26.2814  -13.5259   21.3999 C   0  0  0  0  0  0  0  0  0  0  0  0
  -28.7687  -14.0212   21.6748 C   0  0  0  0  0  0  0  0  0  0  0  0
  -18.2003  -26.9933   23.4345 C   0  0  0  0  0  0  0  0  0  0  0  0
  -23.9879  -23.8095   20.2331 C   0  0  0  0  0  0  0  0  0  0  0  0
  -18.8688  -26.3023   22.4060 C   0  0  0  0  0  0  0  0  0  0  0  0
  -24.6615  -24.6350   19.3216 C   0  0  0  0  0  0  0  0  0  0  0  0
  -29.4211  -20.8909   18.4665 C   0  0  0  0  0  0  0  0  0  0  0  0
  -24.1103  -11.9761   20.5830 C   0  0  0  0  0  0  0  0  0  0  0  0
  -24.6408  -22.8313   17.6918 C   0  0  0  0  0  0  0  0  0  0  0  0
  -23.0884   -9.8636   20.4600 C   0  0  0  0  0  0  0  0  0  0  0  0
  -23.1616   -7.1314   21.0193 C   0  0  0  0  0  0  0  0  0  0  0  0
  -24.1160   -9.0735   19.9447 C   0  0  0  0  0  0  0  0  0  0  0  0
  -27.4024  -14.3269   21.8215 C   0  0  0  0  0  0  0  0  0  0  0  0
  -29.3166  -19.6348   17.8396 C   0  0  0  0  0  0  0  0  0  0  0  0
  -29.4222  -15.0931   22.2320 C   0  0  0  0  0  0  0  0  0  0  0  0
  -29.3915  -12.8711   21.0872 C   0  0  0  0  0  0  0  0  0  0  0  0
  -22.3176  -26.3773   21.0818 C   0  0  0  0  0  0  0  0  0  0  0  0
  -25.2598  -27.6325   21.6207 C   0  0  0  0  0  0  0  0  0  0  0  0
  -28.6033  -27.5753   20.9389 C   0  0  0  0  0  0  0  0  0  0  0  0
  -27.8775  -20.8143   23.0881 C   0  0  0  0  0  0  0  0  0  0  0  0
  -18.4670  -28.4511   23.7143 C   0  0  0  0  0  0  0  0  0  0  0  0
  -23.6576  -24.3089   21.6130 C   0  0  0  0  0  0  0  0  0  0  0  0
  -25.0488  -26.0486   19.6681 C   0  0  0  0  0  0  0  0  0  0  0  0
  -19.7779  -28.9561   23.1170 C   0  0  0  0  0  0  0  0  0  0  0  0
  -28.8936  -18.4762   25.5736 C   0  0  0  0  0  0  0  0  0  0  0  0
  -19.9183  -28.4938   21.6701 C   0  0  0  0  0  0  0  0  0  0  0  0
  -28.7499  -17.1201   24.8806 C   0  0  0  0  0  0  0  0  0  0  0  0
  -27.7918  -19.4455   25.1510 C   0  0  0  0  0  0  0  0  0  0  0  0
  -27.5108  -18.2738   23.0011 C   0  0  0  0  0  0  0  0  0  0  0  0
  -19.9515  -26.9633   21.5807 C   0  0  1  0  0  0  0  0  0  0  0  0
  -23.5759  -25.8301   21.6942 C   0  0  1  0  0  0  0  0  0  0  0  0
  -28.6317  -17.2807   23.3530 C   0  0  2  0  0  0  0  0  0  0  0  0
  -29.8502  -18.3441   18.3089 C   0  0  0  0  0  0  0  0  0  0  0  0
  -31.0313  -28.1763   21.1403 C   0  0  0  0  0  0  0  0  0  0  0  0
  -24.4595  -29.9603   19.8176 C   0  0  0  0  0  0  0  0  0  0  0  0
  -26.8811  -30.5744   19.6532 C   0  0  0  0  0  0  0  0  0  0  0  0
  -25.7327  -30.6181   21.8672 C   0  0  0  0  0  0  0  0  0  0  0  0
  -29.0543  -25.5339   23.0337 C   0  0  0  0  0  0  0  0  0  0  0  0
  -30.0855  -21.2214   19.7385 C   0  0  0  0  0  0  0  0  0  0  0  0
  -29.4050  -22.3426   20.5632 C   0  0  0  0  0  0  0  0  0  0  0  0
  -26.2001  -20.7414   15.1951 C   0  0  0  0  0  0  0  0  0  0  0  0
  -27.5314  -21.4701   15.3913 C   0  0  0  0  0  0  0  0  0  0  0  0
  -27.9536  -22.0470   20.9355 C   0  0  0  0  0  0  0  0  0  0  0  0
  -25.2163  -20.9625   16.3381 C   0  0  0  0  0  0  0  0  0  1  0  0
  -26.2658  -28.3932   20.7912 C   0  0  1  0  0  0  0  0  0  0  0  0
  -29.8175  -27.5965   21.8497 C   0  0  2  0  0  0  0  0  0  0  0  0
  -25.8259  -29.8605   20.5248 C   0  0  0  0  0  0  0  0  0  0  0  0
  -27.1986  -15.5010   22.4248 N   0  0  0  0  0  0  0  0  0  0  0  0
  -28.6424  -19.6878   16.6878 N   0  0  0  0  0  0  0  0  0  0  0  0
  -28.3172  -20.9877   16.5843 N   0  0  0  0  0  0  0  0  0  0  0  0
  -28.4456  -15.9425   22.6621 N   0  0  0  0  0  0  0  0  0  0  0  0
  -24.6985  -26.4928   21.0273 N   0  0  0  0  0  0  0  0  0  0  0  0
  -27.7336  -19.5539   23.6913 N   0  0  0  0  0  0  0  0  0  0  0  0
  -30.7311  -15.3825   22.3911 N   0  0  0  0  0  0  0  0  0  0  0  0
  -28.5720  -11.8630   20.5615 N   0  0  0  0  0  0  0  0  0  0  0  0
  -21.2551  -26.4629   21.9611 N   0  0  0  0  0  0  0  0  0  0  0  0
  -27.5437  -28.2690   21.4841 N   0  0  0  0  0  0  0  0  0  0  0  0
  -27.8162  -20.8274   21.7000 N   0  0  0  0  0  0  0  0  0  0  0  0
  -30.1515  -26.2157   22.3000 N   0  3  0  0  0  0  0  0  0  0  0  0
  -30.6376  -12.7337   21.0450 O   0  0  0  0  0  0  0  0  0  0  0  0
  -22.3116  -26.6995   19.8995 O   0  0  0  0  0  0  0  0  0  0  0  0
  -24.9875  -28.0305   22.7560 O   0  0  0  0  0  0  0  0  0  0  0  0
  -28.5967  -27.0038   19.8508 O   0  0  0  0  0  0  0  0  0  0  0  0
  -28.0533  -21.8504   23.7382 O   0  0  0  0  0  0  0  0  0  0  0  0
  -23.0512  -11.2201   20.1840 O   0  0  0  0  0  0  0  0  0  0  0  0
  -24.9556  -22.3607   16.4544 O   0  0  0  0  0  0  0  0  0  1  0  0
  -23.1974   -5.8199   21.2892 F   0  0  0  0  0  0  0  0  0  0  0  0
  -25.0714   -9.6213   19.1813 F   0  0  0  0  0  0  0  0  0  0  0  0
  1  2  1  0  0  0  0
  1  5  2  0  0  0  0
  2  6  2  0  0  0  0
  3  8  2  0  0  0  0
  3 16  1  0  0  0  0
  4  9  1  0  0  0  0
  4 16  2  0  0  0  0
  5 18  1  0  0  0  0
  6 20  1  0  0  0  0
  7 10  2  0  0  0  0
  7 19  1  0  0  0  0
  8 23  1  0  0  0  0
  9 23  2  0  0  0  0
 10 24  1  0  0  0  0
 11 12  2  0  0  0  0
 11 25  1  0  0  0  0
 12 26  1  0  0  0  0
 13 21  1  0  0  0  0
 13 24  2  0  0  0  0
 14 26  2  0  0  0  0
 14 27  1  0  0  0  0
 15 22  2  0  0  0  0
 15 65  1  0  0  0  0
 16 28  1  0  0  0  0
 17 28  1  0  0  0  0
 17 30  2  0  0  0  0
 17 31  1  0  0  0  0
 18 20  2  0  0  0  0
 18 36  1  0  0  0  0
 19 21  2  0  0  0  0
 19 37  1  0  0  0  0
 20 45  1  0  0  0  0
 21 38  1  0  0  0  0
 22 29  1  0  0  0  0
 22 54  1  0  0  0  0
 23 80  1  0  0  0  0
 24 81  1  0  0  0  0
 25 27  2  0  0  0  0
 25 80  1  0  0  0  0
 26 82  1  0  0  0  0
 27 83  1  0  0  0  0
 28 63  2  0  0  0  0
 29 48  1  0  0  0  0
 29 64  2  0  0  0  0
 30 66  1  0  0  0  0
 30 69  1  0  0  0  0
 31 70  1  0  0  0  0
 31 75  2  0  0  0  0
 32 46  1  0  0  0  0
 32 71  1  0  0  0  0
 32 76  2  0  0  0  0
 33 60  1  0  0  0  0
 33 67  1  0  0  0  0
 33 77  2  0  0  0  0
 34 61  1  0  0  0  0
 34 72  1  0  0  0  0
 34 78  2  0  0  0  0
 35 68  1  0  0  0  0
 35 73  1  0  0  0  0
 35 79  2  0  0  0  0
 36 39  1  0  0  0  0
 37 46  1  0  0  0  0
 38 67  1  0  0  0  0
 39 41  1  0  0  0  0
 40 42  1  0  0  0  0
 40 43  1  0  0  0  0
 41 45  1  0  0  0  0
 42 47  1  0  0  0  0
 43 68  1  0  0  0  0
 44 47  1  0  0  0  0
 44 68  1  0  0  0  0
 45 71  1  0  0  0  0
 46 67  1  0  0  0  0
 47 66  1  0  0  0  0
 49 61  1  0  0  0  0
 50 62  1  0  0  0  0
 51 62  1  0  0  0  0
 52 62  1  0  0  0  0
 53 74  1  0  0  0  0
 54 55  1  0  0  0  0
 55 58  1  0  0  0  0
 56 57  1  0  0  0  0
 56 59  1  0  0  0  0
 57 65  1  0  0  0  0
 58 73  1  0  0  0  0
 59 81  1  0  0  0  0
 60 62  1  0  0  0  0
 60 72  1  0  0  0  0
 61 74  1  0  0  0  0
 63 66  1  0  0  0  0
 64 65  1  0  0  0  0
M  CHG  1  74   1
M  ISO  4  35 100  59 101  73 100  81 101
M  END
> <Batch ID>
0044

> <Smiles>
CNC(C)C(=O)NC(C(=O)N1Cc2cc([101O:1][101CH2:1]CCn3cc(CCC[100NH:0][100C:0](=O)N4CCCC(n5nc(-c6ccc(Oc7ccc(F)cc7F)cc6)c(C(N)=O)c5N)C4)c(C)n3)ccc2CC1C(=O)NC1CCCc2ccccc21)C(C)(C)C

> <Shape>
0.234

> <Color>
0.063

> <Negative vol penalty>
0.000

$$$$

  -OEChem-04052317173D

 85 93  0     1  0  0  0  0  0999 V2000
  -23.1352  -17.5448   19.1236 C   0  0  0  0  0  0  0  0  0  0  0  0
  -24.2670  -18.0591   19.7480 C   0  0  0  0  0  0  0  0  0  0  0  0
  -26.2636  -12.6862   21.6198 C   0  0  0  0  0  0  0  0  0  0  0  0
  -25.9372  -13.3850   19.3302 C   0  0  0  0  0  0  0  0  0  0  0  0
  -22.1887  -18.4099   18.5761 C   0  0  0  0  0  0  0  0  0  0  0  0
  -24.4535  -19.4389   19.8243 C   0  0  0  0  0  0  0  0  0  0  0  0
  -27.2505  -24.4668   24.0920 C   0  0  0  0  0  0  0  0  0  0  0  0
  -25.0674  -11.9705   21.5719 C   0  0  0  0  0  0  0  0  0  0  0  0
  -24.7409  -12.6693   19.2824 C   0  0  0  0  0  0  0  0  0  0  0  0
  -28.1392  -25.5404   24.0526 C   0  0  0  0  0  0  0  0  0  0  0  0
  -23.9830   -9.0100   20.3502 C   0  0  0  0  0  0  0  0  0  0  0  0
  -23.9789   -7.7183   20.8764 C   0  0  0  0  0  0  0  0  0  0  0  0
  -26.3985  -26.9400   23.1414 C   0  0  0  0  0  0  0  0  0  0  0  0
  -22.2770   -8.3698   22.4626 C   0  0  0  0  0  0  0  0  0  0  0  0
  -30.6461  -26.1094   18.9529 C   0  0  0  0  0  0  0  0  0  0  0  0
  -26.6985  -13.3935   20.4989 C   0  0  0  0  0  0  0  0  0  0  0  0
  -29.2199  -13.6634   20.2209 C   0  0  0  0  0  0  0  0  0  0  0  0
  -22.3589  -19.8011   18.6542 C   0  0  0  0  0  0  0  0  0  0  0  0
  -25.9300  -24.6191   23.6453 C   0  0  0  0  0  0  0  0  0  0  0  0
  -23.5091  -20.3234   19.2761 C   0  0  0  0  0  0  0  0  0  0  0  0
  -25.4944  -25.8675   23.1785 C   0  0  0  0  0  0  0  0  0  0  0  0
  -24.3060  -11.9620   20.4032 C   0  0  0  0  0  0  0  0  0  0  0  0
  -27.7140  -26.7765   23.5746 C   0  0  0  0  0  0  0  0  0  0  0  0
  -23.1341   -9.9817   20.8802 C   0  0  0  0  0  0  0  0  0  0  0  0
  -23.1259   -7.3982   21.9326 C   0  0  0  0  0  0  0  0  0  0  0  0
  -22.2811   -9.6616   21.9364 C   0  0  0  0  0  0  0  0  0  0  0  0
  -27.9339  -14.1335   20.5479 C   0  0  0  0  0  0  0  0  0  0  0  0
  -29.2907  -26.0129   19.3208 C   0  0  0  0  0  0  0  0  0  0  0  0
  -31.1038  -27.2212   19.6168 C   0  0  0  0  0  0  0  0  0  0  0  0
  -30.0437  -14.7421   20.4317 C   0  0  0  0  0  0  0  0  0  0  0  0
  -29.6330  -12.3677   19.7669 C   0  0  0  0  0  0  0  0  0  0  0  0
  -24.1809  -23.3199   21.3309 C   0  0  0  0  0  0  0  0  0  0  0  0
  -21.7926  -25.0268   22.7110 C   0  0  0  0  0  0  0  0  0  0  0  0
  -20.8739  -27.6907   24.6364 C   0  0  0  0  0  0  0  0  0  0  0  0
  -29.0222  -20.5555   20.3048 C   0  0  0  0  0  0  0  0  0  0  0  0
  -21.3321  -20.6957   18.0061 C   0  0  0  0  0  0  0  0  0  0  0  0
  -24.9764  -23.4583   23.7193 C   0  0  0  0  0  0  0  0  0  0  0  0
  -24.0813  -26.0885   22.7063 C   0  0  0  0  0  0  0  0  0  0  0  0
  -21.4191  -22.1508   18.4592 C   0  0  0  0  0  0  0  0  0  0  0  0
  -30.4161  -18.7071   23.0865 C   0  0  0  0  0  0  0  0  0  0  0  0
  -22.8666  -22.6315   18.4360 C   0  0  0  0  0  0  0  0  0  0  0  0
  -30.0530  -17.2697   22.7091 C   0  0  0  0  0  0  0  0  0  0  0  0
  -29.3036  -19.6776   22.7013 C   0  0  0  0  0  0  0  0  0  0  0  0
  -28.5498  -18.1926   20.8846 C   0  0  0  0  0  0  0  0  0  0  0  0
  -23.7346  -21.8146   19.4008 C   0  0  1  0  0  0  0  0  0  0  0  0
  -23.7986  -23.5905   22.7586 C   0  0  1  0  0  0  0  0  0  0  0  0
  -29.6441  -17.1656   21.2278 C   0  0  2  0  0  0  0  0  0  0  0  0
  -32.8935  -28.3663   18.2605 C   0  0  0  0  0  0  0  0  0  0  0  0
  -33.5311  -26.9279   20.2302 C   0  0  0  0  0  0  0  0  0  0  0  0
  -18.8479  -28.8494   25.5582 C   0  0  0  0  0  0  0  0  0  0  0  0
  -21.2314  -26.2270   19.9624 C   0  0  0  0  0  0  0  0  0  0  0  0
  -19.8955  -28.0169   21.0938 C   0  0  0  0  0  0  0  0  0  0  0  0
  -19.1892  -25.6315   21.2775 C   0  0  0  0  0  0  0  0  0  0  0  0
  -21.7357  -27.2259   27.4293 C   0  0  0  0  0  0  0  0  0  0  0  0
  -28.3145  -24.9974   18.8916 C   0  0  0  0  0  0  0  0  0  0  0  0
  -28.2312  -23.7425   19.7965 C   0  0  0  0  0  0  0  0  0  0  0  0
  -30.6175  -28.6737   22.5944 C   0  0  0  0  0  0  0  0  0  0  0  0
  -30.0129  -28.9176   21.2099 C   0  0  0  0  0  0  0  0  0  0  0  0
  -29.5317  -22.9458   19.8760 C   0  0  0  0  0  0  0  0  0  0  0  0
  -29.9608  -27.5216   23.3459 C   0  0  0  0  0  0  0  0  0  1  0  0
  -32.4362  -27.8517   19.6460 C   0  0  0  0  0  0  0  0  0  0  0  0
  -21.2350  -26.4189   22.5371 C   0  0  1  0  0  0  0  0  0  0  0  0
  -19.9210  -27.8022   25.8127 C   0  0  2  0  0  0  0  0  0  0  0  0
  -20.4150  -26.5692   21.2247 C   0  0  0  0  0  0  0  0  0  0  0  0
  -27.9354  -15.4112   20.9372 N   0  0  0  0  0  0  0  0  0  0  0  0
  -28.9120  -26.9858   20.1540 N   0  0  0  0  0  0  0  0  0  0  0  0
  -30.0364  -27.7041   20.3152 N   0  0  0  0  0  0  0  0  0  0  0  0
  -29.2326  -15.7532   20.8561 N   0  0  0  0  0  0  0  0  0  0  0  0
  -23.1883  -24.9212   22.7924 N   0  0  0  0  0  0  0  0  0  0  0  0
  -28.9749  -19.5409   21.2753 N   0  0  0  0  0  0  0  0  0  0  0  0
  -31.3754  -14.9148   20.2938 N   0  0  0  0  0  0  0  0  0  0  0  0
  -28.6575  -11.3746   19.6037 N   0  0  0  0  0  0  0  0  0  0  0  0
  -23.5188  -22.2474   20.7648 N   0  0  0  0  0  0  0  0  0  0  0  0
  -20.4793  -26.7104   23.7506 N   0  0  0  0  0  0  0  0  0  0  0  0
  -29.4281  -21.8047   20.7581 N   0  0  0  0  0  0  0  0  0  0  0  0
  -20.6643  -28.1816   27.0474 N   0  3  0  0  0  0  0  0  0  0  0  0
  -30.8338  -12.0937   19.5293 O   0  0  0  0  0  0  0  0  0  0  0  0
  -25.0139  -24.0325   20.7831 O   0  0  0  0  0  0  0  0  0  0  0  0
  -21.0180  -24.0693   22.7795 O   0  0  0  0  0  0  0  0  0  0  0  0
  -21.8669  -28.4044   24.5135 O   0  0  0  0  0  0  0  0  0  0  0  0
  -28.7294  -20.3613   19.1201 O   0  0  0  0  0  0  0  0  0  0  0  0
  -23.1387  -11.2635   20.3561 O   0  0  0  0  0  0  0  0  0  0  0  0
  -28.5795  -27.8259   23.5345 O   0  0  0  0  0  0  0  0  0  1  0  0
  -23.1210   -6.1572   22.4368 F   0  0  0  0  0  0  0  0  0  0  0  0
  -21.4624  -10.5906   22.4489 F   0  0  0  0  0  0  0  0  0  0  0  0
  1  2  1  0  0  0  0
  1  5  2  0  0  0  0
  2  6  2  0  0  0  0
  3  8  2  0  0  0  0
  3 16  1  0  0  0  0
  4  9  1  0  0  0  0
  4 16  2  0  0  0  0
  5 18  1  0  0  0  0
  6 20  1  0  0  0  0
  7 10  2  0  0  0  0
  7 19  1  0  0  0  0
  8 22  1  0  0  0  0
  9 22  2  0  0  0  0
 10 23  1  0  0  0  0
 11 12  2  0  0  0  0
 11 24  1  0  0  0  0
 12 25  1  0  0  0  0
 13 21  1  0  0  0  0
 13 23  2  0  0  0  0
 14 25  2  0  0  0  0
 14 26  1  0  0  0  0
 15 28  1  0  0  0  0
 15 29  2  0  0  0  0
 16 27  1  0  0  0  0
 17 27  1  0  0  0  0
 17 30  2  0  0  0  0
 17 31  1  0  0  0  0
 18 20  2  0  0  0  0
 18 36  1  0  0  0  0
 19 21  2  0  0  0  0
 19 37  1  0  0  0  0
 20 45  1  0  0  0  0
 21 38  1  0  0  0  0
 22 82  1  0  0  0  0
 23 83  1  0  0  0  0
 24 26  2  0  0  0  0
 24 82  1  0  0  0  0
 25 84  1  0  0  0  0
 26 85  1  0  0  0  0
 27 65  2  0  0  0  0
 28 55  1  0  0  0  0
 28 66  2  0  0  0  0
 29 61  1  0  0  0  0
 29 67  1  0  0  0  0
 30 68  1  0  0  0  0
 30 71  1  0  0  0  0
 31 72  1  0  0  0  0
 31 77  2  0  0  0  0
 32 46  1  0  0  0  0
 32 73  1  0  0  0  0
 32 78  2  0  0  0  0
 33 62  1  0  0  0  0
 33 69  1  0  0  0  0
 33 79  2  0  0  0  0
 34 63  1  0  0  0  0
 34 74  1  0  0  0  0
 34 80  2  0  0  0  0
 35 70  1  0  0  0  0
 35 75  1  0  0  0  0
 35 81  2  0  0  0  0
 36 39  1  0  0  0  0
 37 46  1  0  0  0  0
 38 69  1  0  0  0  0
 39 41  1  0  0  0  0
 40 42  1  0  0  0  0
 40 43  1  0  0  0  0
 41 45  1  0  0  0  0
 42 47  1  0  0  0  0
 43 70  1  0  0  0  0
 44 47  1  0  0  0  0
 44 70  1  0  0  0  0
 45 73  1  0  0  0  0
 46 69  1  0  0  0  0
 47 68  1  0  0  0  0
 48 61  1  0  0  0  0
 49 61  1  0  0  0  0
 50 63  1  0  0  0  0
 51 64  1  0  0  0  0
 52 64  1  0  0  0  0
 53 64  1  0  0  0  0
 54 76  1  0  0  0  0
 55 56  1  0  0  0  0
 56 59  1  0  0  0  0
 57 58  1  0  0  0  0
 57 60  1  0  0  0  0
 58 67  1  0  0  0  0
 59 75  1  0  0  0  0
 60 83  1  0  0  0  0
 62 64  1  0  0  0  0
 62 74  1  0  0  0  0
 63 76  1  0  0  0  0
 65 68  1  0  0  0  0
 66 67  1  0  0  0  0
M  CHG  1  76   1
M  ISO  4  35 100  60 101  75 100  83 101
M  END
> <Batch ID>
0044

> <Smiles>
CNC(C)C(=O)NC(C(=O)N1Cc2cc([101O:1][101CH2:1]CCn3nc(CCC[100NH:0][100C:0](=O)N4CCCC(n5nc(-c6ccc(Oc7ccc(F)cc7F)cc6)c(C(N)=O)c5N)C4)cc3C(C)C)ccc2CC1C(=O)NC1CCCc2ccccc21)C(C)(C)C

> <Shape>
0.235

> <Color>
0.065

> <Negative vol penalty>
0.000

$$$$

  -OEChem-04052317173D

 86 94  0     1  0  0  0  0  0999 V2000
  -23.0540  -23.8540   18.8008 C   0  0  0  0  0  0  0  0  0  0  0  0
  -24.1946  -23.1464   19.1666 C   0  0  0  0  0  0  0  0  0  0  0  0
  -22.7983  -27.8325   19.3637 C   0  0  0  0  0  0  0  0  0  0  0  0
  -23.3886  -26.6937   21.4111 C   0  0  0  0  0  0  0  0  0  0  0  0
  -21.7968  -23.4017   19.1992 C   0  0  0  0  0  0  0  0  0  0  0  0
  -24.0787  -21.9866   19.9320 C   0  0  0  0  0  0  0  0  0  0  0  0
  -26.9913  -18.2206   18.2061 C   0  0  0  0  0  0  0  0  0  0  0  0
  -21.4776  -27.4077   19.5081 C   0  0  0  0  0  0  0  0  0  0  0  0
  -22.0679  -26.2689   21.5556 C   0  0  0  0  0  0  0  0  0  0  0  0
  -28.3508  -18.2765   18.5100 C   0  0  0  0  0  0  0  0  0  0  0  0
  -18.7755  -25.1858   22.6535 C   0  0  0  0  0  0  0  0  0  0  0  0
  -18.1918  -25.2980   23.9153 C   0  0  0  0  0  0  0  0  0  0  0  0
  -28.0094  -16.6965   20.3006 C   0  0  0  0  0  0  0  0  0  0  0  0
  -18.5469  -27.6873   23.8672 C   0  0  0  0  0  0  0  0  0  0  0  0
  -33.1806  -20.7100   23.0176 C   0  0  0  0  0  0  0  0  0  0  0  0
  -23.7538  -27.4755   20.3151 C   0  0  0  0  0  0  0  0  0  0  0  0
  -25.6890  -29.1010   20.6624 C   0  0  0  0  0  0  0  0  0  0  0  0
  -21.6647  -22.2305   19.9618 C   0  0  0  0  0  0  0  0  0  0  0  0
  -26.1273  -17.4091   18.9554 C   0  0  0  0  0  0  0  0  0  0  0  0
  -22.8186  -21.5189   20.3422 C   0  0  0  0  0  0  0  0  0  0  0  0
  -26.6398  -16.6300   20.0025 C   0  0  0  0  0  0  0  0  0  0  0  0
  -32.8580  -20.4706   21.6973 C   0  0  0  0  0  0  0  0  0  0  0  0
  -21.1124  -26.6259   20.6041 C   0  0  0  0  0  0  0  0  0  0  0  0
  -28.8596  -17.5167   19.5592 C   0  0  0  0  0  0  0  0  0  0  0  0
  -19.2451  -26.3243   21.9985 C   0  0  0  0  0  0  0  0  0  0  0  0
  -18.0774  -26.5487   24.5221 C   0  0  0  0  0  0  0  0  0  0  0  0
  -19.1307  -27.5751   22.6053 C   0  0  0  0  0  0  0  0  0  0  0  0
  -25.1184  -27.9136   20.1662 C   0  0  0  0  0  0  0  0  0  0  0  0
  -33.7171  -21.0149   20.7647 C   0  0  0  0  0  0  0  0  0  0  0  0
  -26.9999  -29.0480   20.2559 C   0  0  0  0  0  0  0  0  0  0  0  0
  -35.0167  -21.9019   22.4051 C   0  0  0  0  0  0  0  0  0  0  0  0
  -25.0878  -30.1574   21.4228 C   0  0  0  0  0  0  0  0  0  0  0  0
  -23.5914  -17.9346   20.7984 C   0  0  0  0  0  0  0  0  0  0  0  0
  -23.4564  -14.6943   20.8670 C   0  0  0  0  0  0  0  0  0  0  0  0
  -25.0973  -11.7189   20.5495 C   0  0  0  0  0  0  0  0  0  0  0  0
  -30.5454  -24.4995   18.9928 C   0  0  0  0  0  0  0  0  0  0  0  0
  -20.2880  -21.8068   20.4089 C   0  0  0  0  0  0  0  0  0  0  0  0
  -24.6679  -17.3394   18.5978 C   0  0  0  0  0  0  0  0  0  0  0  0
  -25.7578  -15.7273   20.8245 C   0  0  0  0  0  0  0  0  0  0  0  0
  -20.2250  -20.3633   20.9017 C   0  0  0  0  0  0  0  0  0  0  0  0
  -29.7764  -27.2652   16.7889 C   0  0  0  0  0  0  0  0  0  0  0  0
  -21.3802  -20.0738   21.8549 C   0  0  0  0  0  0  0  0  0  0  0  0
  -28.5383  -27.8574   17.4647 C   0  0  0  0  0  0  0  0  0  0  0  0
  -29.7806  -25.7421   16.8800 C   0  0  0  0  0  0  0  0  0  0  0  0
  -28.4350  -25.7980   18.9440 C   0  0  0  0  0  0  0  0  0  0  0  0
  -22.7320  -20.2428   21.1510 C   0  0  1  0  0  0  0  0  0  0  0  0
  -23.7908  -16.8718   19.7551 C   0  0  1  0  0  0  0  0  0  0  0  0
  -28.3832  -27.3362   18.9057 C   0  0  2  0  0  0  0  0  0  0  0  0
  -36.1507  -24.1503   22.2936 C   0  0  0  0  0  0  0  0  0  0  0  0
  -37.5326  -22.0424   22.3372 C   0  0  0  0  0  0  0  0  0  0  0  0
  -24.7300   -9.2409   20.6990 C   0  0  0  0  0  0  0  0  0  0  0  0
  -23.4282  -14.8847   23.9121 C   0  0  0  0  0  0  0  0  0  0  0  0
  -24.0163  -12.4527   24.0001 C   0  0  0  0  0  0  0  0  0  0  0  0
  -21.8684  -13.1778   22.9591 C   0  0  0  0  0  0  0  0  0  0  0  0
  -25.8621  -11.3176   17.7187 C   0  0  0  0  0  0  0  0  0  0  0  0
  -31.6397  -19.6638   21.3253 C   0  0  0  0  0  0  0  0  0  0  0  0
  -33.4679  -20.8205   19.3053 C   0  0  0  0  0  0  0  0  0  0  0  0
  -31.8172  -18.1561   21.5173 C   0  0  0  0  0  0  0  0  0  0  0  0
  -32.3913  -21.7507   18.7141 C   0  0  0  0  0  0  0  0  0  0  0  0
  -32.6808  -23.2398   18.8907 C   0  0  0  0  0  0  0  0  0  0  0  0
  -30.5537  -17.3567   21.2206 C   0  0  0  0  0  0  0  0  0  1  0  0
  -36.2162  -22.6963   22.7981 C   0  0  0  0  0  0  0  0  0  0  0  0
  -24.0436  -13.6182   21.7480 C   0  0  1  0  0  0  0  0  0  0  0  0
  -24.7519  -10.4548   19.7831 C   0  0  2  0  0  0  0  0  0  0  0  0
  -23.3557  -13.5518   23.1408 C   0  0  0  0  0  0  0  0  0  0  0  0
  -34.2564  -21.4240   23.4087 N   0  0  0  0  0  0  0  0  0  0  0  0
  -25.9949  -27.1613   19.4956 N   0  0  0  0  0  0  0  0  0  0  0  0
  -34.8098  -21.7388   21.0845 N   0  0  0  0  0  0  0  0  0  0  0  0
  -27.1296  -27.8778   19.5675 N   0  0  0  0  0  0  0  0  0  0  0  0
  -24.3369  -15.6984   20.4400 N   0  0  0  0  0  0  0  0  0  0  0  0
  -29.6486  -25.3118   18.2792 N   0  0  0  0  0  0  0  0  0  0  0  0
  -28.0427  -29.8887   20.4237 N   0  0  0  0  0  0  0  0  0  0  0  0
  -23.7302  -30.0526   21.7550 N   0  0  0  0  0  0  0  0  0  0  0  0
  -23.0146  -19.0943   20.3170 N   0  0  0  0  0  0  0  0  0  0  0  0
  -23.9667  -12.3779   20.9838 N   0  0  0  0  0  0  0  0  0  0  0  0
  -31.6658  -24.0756   18.2887 N   0  0  0  0  0  0  0  0  0  0  0  0
  -25.7525  -10.2126   18.7056 N   0  3  0  0  0  0  0  0  0  0  0  0
  -25.7313  -31.1724   21.7826 O   0  0  0  0  0  0  0  0  0  0  0  0
  -23.9340  -17.7179   21.9548 O   0  0  0  0  0  0  0  0  0  0  0  0
  -22.2621  -14.6419   20.5628 O   0  0  0  0  0  0  0  0  0  0  0  0
  -26.2545  -12.0831   20.7466 O   0  0  0  0  0  0  0  0  0  0  0  0
  -30.3639  -24.1798   20.1726 O   0  0  0  0  0  0  0  0  0  0  0  0
  -19.8237  -26.2114   20.7455 O   0  0  0  0  0  0  0  0  0  0  0  0
  -30.1860  -17.5699   19.8584 O   0  0  0  0  0  0  0  0  0  1  0  0
  -17.5154  -26.6565   25.7332 F   0  0  0  0  0  0  0  0  0  0  0  0
  -19.5788  -28.6726   21.9805 F   0  0  0  0  0  0  0  0  0  0  0  0
  1  2  1  0  0  0  0
  1  5  2  0  0  0  0
  2  6  2  0  0  0  0
  3  8  2  0  0  0  0
  3 16  1  0  0  0  0
  4  9  1  0  0  0  0
  4 16  2  0  0  0  0
  5 18  1  0  0  0  0
  6 20  1  0  0  0  0
  7 10  2  0  0  0  0
  7 19  1  0  0  0  0
  8 23  1  0  0  0  0
  9 23  2  0  0  0  0
 10 24  1  0  0  0  0
 11 12  2  0  0  0  0
 11 25  1  0  0  0  0
 12 26  1  0  0  0  0
 13 21  1  0  0  0  0
 13 24  2  0  0  0  0
 14 26  2  0  0  0  0
 14 27  1  0  0  0  0
 15 22  1  0  0  0  0
 15 66  2  0  0  0  0
 16 28  1  0  0  0  0
 17 28  1  0  0  0  0
 17 30  2  0  0  0  0
 17 32  1  0  0  0  0
 18 20  2  0  0  0  0
 18 37  1  0  0  0  0
 19 21  2  0  0  0  0
 19 38  1  0  0  0  0
 20 46  1  0  0  0  0
 21 39  1  0  0  0  0
 22 29  2  0  0  0  0
 22 56  1  0  0  0  0
 23 83  1  0  0  0  0
 24 84  1  0  0  0  0
 25 27  2  0  0  0  0
 25 83  1  0  0  0  0
 26 85  1  0  0  0  0
 27 86  1  0  0  0  0
 28 67  2  0  0  0  0
 29 57  1  0  0  0  0
 29 68  1  0  0  0  0
 30 69  1  0  0  0  0
 30 72  1  0  0  0  0
 31 62  1  0  0  0  0
 31 66  1  0  0  0  0
 31 68  2  0  0  0  0
 32 73  1  0  0  0  0
 32 78  2  0  0  0  0
 33 47  1  0  0  0  0
 33 74  1  0  0  0  0
 33 79  2  0  0  0  0
 34 63  1  0  0  0  0
 34 70  1  0  0  0  0
 34 80  2  0  0  0  0
 35 64  1  0  0  0  0
 35 75  1  0  0  0  0
 35 81  2  0  0  0  0
 36 71  1  0  0  0  0
 36 76  1  0  0  0  0
 36 82  2  0  0  0  0
 37 40  1  0  0  0  0
 38 47  1  0  0  0  0
 39 70  1  0  0  0  0
 40 42  1  0  0  0  0
 41 43  1  0  0  0  0
 41 44  1  0  0  0  0
 42 46  1  0  0  0  0
 43 48  1  0  0  0  0
 44 71  1  0  0  0  0
 45 48  1  0  0  0  0
 45 71  1  0  0  0  0
 46 74  1  0  0  0  0
 47 70  1  0  0  0  0
 48 69  1  0  0  0  0
 49 62  1  0  0  0  0
 50 62  1  0  0  0  0
 51 64  1  0  0  0  0
 52 65  1  0  0  0  0
 53 65  1  0  0  0  0
 54 65  1  0  0  0  0
 55 77  1  0  0  0  0
 56 58  1  0  0  0  0
 57 59  1  0  0  0  0
 58 61  1  0  0  0  0
 59 60  1  0  0  0  0
 60 76  1  0  0  0  0
 61 84  1  0  0  0  0
 63 65  1  0  0  0  0
 63 75  1  0  0  0  0
 64 77  1  0  0  0  0
 67 69  1  0  0  0  0
M  CHG  1  77   1
M  ISO  4  36 100  61 101  76 100  84 101
M  END
> <Batch ID>
0044

> <Smiles>
CNC(C)C(=O)NC(C(=O)N1Cc2cc([101O:1][101CH2:1]CCc3cnc(C(C)C)nc3CCC[100NH:0][100C:0](=O)N3CCCC(n4nc(-c5ccc(Oc6ccc(F)cc6F)cc5)c(C(N)=O)c4N)C3)ccc2CC1C(=O)NC1CCCc2ccccc21)C(C)(C)C

> <Shape>
0.207

> <Color>
0.073

> <Negative vol penalty>
0.000

$$$$

  -OEChem-04052317173D

 85 93  0     1  0  0  0  0  0999 V2000
  -24.1631  -30.7574   24.6846 C   0  0  0  0  0  0  0  0  0  0  0  0
  -24.1168  -29.4054   24.3598 C   0  0  0  0  0  0  0  0  0  0  0  0
  -22.9974   -9.8856   19.9434 C   0  0  0  0  0  0  0  0  0  0  0  0
  -23.7193   -9.8939   22.2490 C   0  0  0  0  0  0  0  0  0  0  0  0
  -24.2983  -31.7110   23.6765 C   0  0  0  0  0  0  0  0  0  0  0  0
  -24.2047  -29.0064   23.0266 C   0  0  0  0  0  0  0  0  0  0  0  0
  -27.3532  -25.0942   22.3731 C   0  0  0  0  0  0  0  0  0  0  0  0
  -22.2209   -8.7535   20.1905 C   0  0  0  0  0  0  0  0  0  0  0  0
  -22.9428   -8.7618   22.4961 C   0  0  0  0  0  0  0  0  0  0  0  0
  -26.8758  -23.8291   22.7127 C   0  0  0  0  0  0  0  0  0  0  0  0
  -23.1598   -5.4288   21.9715 C   0  0  0  0  0  0  0  0  0  0  0  0
  -23.7375   -4.3949   22.7082 C   0  0  0  0  0  0  0  0  0  0  0  0
  -26.4274  -23.3801   20.3854 C   0  0  0  0  0  0  0  0  0  0  0  0
  -28.5183  -18.7408   21.9920 C   0  0  0  0  0  0  0  0  0  0  0  0
  -22.0131   -4.6257   24.3846 C   0  0  0  0  0  0  0  0  0  0  0  0
  -23.7466  -10.4558   20.9726 C   0  0  0  0  0  0  0  0  0  0  0  0
  -24.1533  -12.9705   20.8372 C   0  0  0  0  0  0  0  0  0  0  0  0
  -24.3976  -31.3230   22.3311 C   0  0  0  0  0  0  0  0  0  0  0  0
  -27.3611  -25.5166   21.0359 C   0  0  0  0  0  0  0  0  0  0  0  0
  -24.3400  -29.9558   21.9995 C   0  0  0  0  0  0  0  0  0  0  0  0
  -26.9078  -24.6501   20.0311 C   0  0  0  0  0  0  0  0  0  0  0  0
  -29.1879  -18.2768   20.8652 C   0  0  0  0  0  0  0  0  0  0  0  0
  -28.5123  -18.1761   19.6542 C   0  0  0  0  0  0  0  0  0  0  0  0
  -22.1936   -8.1916   21.4669 C   0  0  0  0  0  0  0  0  0  0  0  0
  -26.4102  -22.9729   21.7191 C   0  0  0  0  0  0  0  0  0  0  0  0
  -22.0087   -6.0613   22.4414 C   0  0  0  0  0  0  0  0  0  0  0  0
  -23.1642   -3.9933   23.9147 C   0  0  0  0  0  0  0  0  0  0  0  0
  -21.4353   -5.6597   23.6479 C   0  0  0  0  0  0  0  0  0  0  0  0
  -24.5493  -11.6249   20.7178 C   0  0  0  0  0  0  0  0  0  0  0  0
  -27.1840  -19.0886   21.8561 C   0  0  0  0  0  0  0  0  0  0  0  0
  -27.1782  -18.5489   19.6230 C   0  0  0  0  0  0  0  0  0  0  0  0
  -25.2697  -13.6894   20.4860 C   0  0  0  0  0  0  0  0  0  0  0  0
  -22.8894  -13.5214   21.2305 C   0  0  0  0  0  0  0  0  0  0  0  0
  -25.9633  -27.8689   19.4183 C   0  0  0  0  0  0  0  0  0  0  0  0
  -27.8287  -26.7865   16.9953 C   0  0  0  0  0  0  0  0  0  0  0  0
  -29.5817  -24.2007   15.6213 C   0  0  0  0  0  0  0  0  0  0  0  0
  -30.7733  -14.5736   20.7574 C   0  0  0  0  0  0  0  0  0  0  0  0
  -24.4952  -32.3927   21.2724 C   0  0  0  0  0  0  0  0  0  0  0  0
  -27.9041  -26.8742   20.6831 C   0  0  0  0  0  0  0  0  0  0  0  0
  -26.9140  -25.0480   18.5785 C   0  0  0  0  0  0  0  0  0  0  0  0
  -24.9585  -31.8669   19.9162 C   0  0  0  0  0  0  0  0  0  0  0  0
  -29.6160  -12.1972   18.3720 C   0  0  0  0  0  0  0  0  0  0  0  0
  -24.1971  -30.5976   19.5473 C   0  0  0  0  0  0  0  0  0  0  0  0
  -28.1648  -11.9431   18.7833 C   0  0  0  0  0  0  0  0  0  0  0  0
  -30.5185  -12.4057   19.5861 C   0  0  0  0  0  0  0  0  0  0  0  0
  -28.6130  -13.1959   20.9346 C   0  0  0  0  0  0  0  0  0  0  0  0
  -24.4572  -29.4823   20.5669 C   0  0  1  0  0  0  0  0  0  0  0  0
  -27.3874  -27.3953   19.3456 C   0  0  1  0  0  0  0  0  0  0  0  0
  -27.6543  -13.0353   19.7423 C   0  0  2  0  0  0  0  0  0  0  0  0
  -29.2055  -17.6839   18.4284 C   0  0  0  0  0  0  0  0  0  0  0  0
  -25.0685  -19.2039   18.4369 C   0  0  0  0  0  0  0  0  0  0  0  0
  -31.5125  -19.0936   21.3685 C   0  0  0  0  0  0  0  0  0  0  0  0
  -30.9703  -23.6071   13.6171 C   0  0  0  0  0  0  0  0  0  0  0  0
  -25.2966  -26.5786   15.3056 C   0  0  0  0  0  0  0  0  0  0  0  0
  -26.5650  -25.1259   13.7090 C   0  0  0  0  0  0  0  0  0  0  0  0
  -27.2886  -27.4820   14.0931 C   0  0  0  0  0  0  0  0  0  0  0  0
  -31.9570  -23.6288   17.2916 C   0  0  0  0  0  0  0  0  0  0  0  0
  -26.4253  -19.5976   23.0576 C   0  0  0  0  0  0  0  0  0  0  0  0
  -26.4000  -18.4642   18.3506 C   0  0  0  0  0  0  0  0  0  0  0  0
  -30.8724  -16.7326   21.9772 C   0  0  0  0  0  0  0  0  0  0  0  0
  -26.5117  -21.1135   23.1983 C   0  0  0  0  0  0  0  0  0  1  0  0
  -30.6257  -17.8921   20.9825 C   0  0  1  0  0  0  0  0  0  0  0  0
  -27.6707  -25.7575   15.9020 C   0  0  1  0  0  0  0  0  0  0  0  0
  -30.9845  -24.1281   15.0458 C   0  0  2  0  0  0  0  0  0  0  0  0
  -26.7032  -26.2289   14.7799 C   0  0  0  0  0  0  0  0  0  0  0  0
  -25.8181  -11.4940   20.3215 N   0  0  0  0  0  0  0  0  0  0  0  0
  -26.4942  -19.0042   20.6965 N   0  0  0  0  0  0  0  0  0  0  0  0
  -26.2290  -12.7666   20.1888 N   0  0  0  0  0  0  0  0  0  0  0  0
  -27.4488  -26.3879   18.2847 N   0  0  0  0  0  0  0  0  0  0  0  0
  -29.9792  -13.4553   20.4541 N   0  0  0  0  0  0  0  0  0  0  0  0
  -25.5145  -15.0145   20.4053 N   0  0  0  0  0  0  0  0  0  0  0  0
  -21.8496  -12.6406   21.5584 N   0  0  0  0  0  0  0  0  0  0  0  0
  -25.7525  -28.8793   20.3371 N   0  0  0  0  0  0  0  0  0  0  0  0
  -29.0179  -25.4455   15.4372 N   0  0  0  0  0  0  0  0  0  0  0  0
  -30.1837  -15.5243   21.5815 N   0  0  0  0  0  0  0  0  0  0  0  0
  -31.8355  -23.2221   15.8680 N   0  3  0  0  0  0  0  0  0  0  0  0
  -22.6830  -14.7579   21.2736 O   0  0  0  0  0  0  0  0  0  0  0  0
  -25.1185  -27.3566   18.6933 O   0  0  0  0  0  0  0  0  0  0  0  0
  -28.2796  -27.9004   16.7168 O   0  0  0  0  0  0  0  0  0  0  0  0
  -29.0388  -23.2473   16.1752 O   0  0  0  0  0  0  0  0  0  0  0  0
  -31.9206  -14.7168   20.3214 O   0  0  0  0  0  0  0  0  0  0  0  0
  -21.4358   -7.0871   21.7084 O   0  0  0  0  0  0  0  0  0  0  0  0
  -25.9431  -21.7378   22.0480 O   0  0  0  0  0  0  0  0  0  1  0  0
  -23.7182   -2.9993   24.6213 F   0  0  0  0  0  0  0  0  0  0  0  0
  -20.3288   -6.2627   24.1038 F   0  0  0  0  0  0  0  0  0  0  0  0
  1  2  1  0  0  0  0
  1  5  2  0  0  0  0
  2  6  2  0  0  0  0
  3  8  2  0  0  0  0
  3 16  1  0  0  0  0
  4  9  1  0  0  0  0
  4 16  2  0  0  0  0
  5 18  1  0  0  0  0
  6 20  1  0  0  0  0
  7 10  2  0  0  0  0
  7 19  1  0  0  0  0
  8 24  1  0  0  0  0
  9 24  2  0  0  0  0
 10 25  1  0  0  0  0
 11 12  2  0  0  0  0
 11 26  1  0  0  0  0
 12 27  1  0  0  0  0
 13 21  1  0  0  0  0
 13 25  2  0  0  0  0
 14 22  2  0  0  0  0
 14 30  1  0  0  0  0
 15 27  2  0  0  0  0
 15 28  1  0  0  0  0
 16 29  1  0  0  0  0
 17 29  1  0  0  0  0
 17 32  2  0  0  0  0
 17 33  1  0  0  0  0
 18 20  2  0  0  0  0
 18 38  1  0  0  0  0
 19 21  2  0  0  0  0
 19 39  1  0  0  0  0
 20 47  1  0  0  0  0
 21 40  1  0  0  0  0
 22 23  1  0  0  0  0
 22 62  1  0  0  0  0
 23 31  2  0  0  0  0
 23 50  1  0  0  0  0
 24 82  1  0  0  0  0
 25 83  1  0  0  0  0
 26 28  2  0  0  0  0
 26 82  1  0  0  0  0
 27 84  1  0  0  0  0
 28 85  1  0  0  0  0
 29 66  2  0  0  0  0
 30 58  1  0  0  0  0
 30 67  2  0  0  0  0
 31 59  1  0  0  0  0
 31 67  1  0  0  0  0
 32 68  1  0  0  0  0
 32 71  1  0  0  0  0
 33 72  1  0  0  0  0
 33 77  2  0  0  0  0
 34 48  1  0  0  0  0
 34 73  1  0  0  0  0
 34 78  2  0  0  0  0
 35 63  1  0  0  0  0
 35 69  1  0  0  0  0
 35 79  2  0  0  0  0
 36 64  1  0  0  0  0
 36 74  1  0  0  0  0
 36 80  2  0  0  0  0
 37 70  1  0  0  0  0
 37 75  1  0  0  0  0
 37 81  2  0  0  0  0
 38 41  1  0  0  0  0
 39 48  1  0  0  0  0
 40 69  1  0  0  0  0
 41 43  1  0  0  0  0
 42 44  1  0  0  0  0
 42 45  1  0  0  0  0
 43 47  1  0  0  0  0
 44 49  1  0  0  0  0
 45 70  1  0  0  0  0
 46 49  1  0  0  0  0
 46 70  1  0  0  0  0
 47 73  1  0  0  0  0
 48 69  1  0  0  0  0
 49 68  1  0  0  0  0
 51 59  1  0  0  0  0
 52 62  1  0  0  0  0
 53 64  1  0  0  0  0
 54 65  1  0  0  0  0
 55 65  1  0  0  0  0
 56 65  1  0  0  0  0
 57 76  1  0  0  0  0
 58 61  1  0  0  0  0
 60 62  1  0  0  0  0
 60 75  1  0  0  0  0
 61 83  1  0  0  0  0
 63 65  1  0  0  0  0
 63 74  1  0  0  0  0
 64 76  1  0  0  0  0
 66 68  1  0  0  0  0
M  CHG  1  76   1
M  ISO  4  37 100  61 101  75 100  83 101
M  END
> <Batch ID>
0044

> <Smiles>
CCc1nc(C[101CH2:1][101O:1]c2ccc3c(c2)CN(C(=O)C(NC(=O)C(C)NC)C(C)(C)C)C(C(=O)NC2CCCc4ccccc42)C3)cc(C(C)C[100NH:0][100C:0](=O)N2CCCC(n3nc(-c4ccc(Oc5ccc(F)cc5F)cc4)c(C(N)=O)c3N)C2)c1C

> <Shape>
0.307

> <Color>
0.204

> <Negative vol penalty>
0.000

$$$$

  -OEChem-04052317173D

 80 88  0     1  0  0  0  0  0999 V2000
  -29.6447  -20.4926   28.9511 C   0  0  0  0  0  0  0  0  0  0  0  0
  -30.0035  -21.2959   27.8735 C   0  0  0  0  0  0  0  0  0  0  0  0
  -26.4244  -12.7612   21.5813 C   0  0  0  0  0  0  0  0  0  0  0  0
  -26.2733  -13.4435   19.2685 C   0  0  0  0  0  0  0  0  0  0  0  0
  -28.4010  -19.8626   28.9658 C   0  0  0  0  0  0  0  0  0  0  0  0
  -29.1191  -21.4689   26.8093 C   0  0  0  0  0  0  0  0  0  0  0  0
  -28.3560  -26.5268   23.4416 C   0  0  0  0  0  0  0  0  0  0  0  0
  -25.1479  -12.2048   21.5005 C   0  0  0  0  0  0  0  0  0  0  0  0
  -24.9968  -12.8871   19.1878 C   0  0  0  0  0  0  0  0  0  0  0  0
  -28.8486  -26.9059   22.1937 C   0  0  0  0  0  0  0  0  0  0  0  0
  -23.7331   -9.3816   20.2920 C   0  0  0  0  0  0  0  0  0  0  0  0
  -23.5428   -8.1136   20.8411 C   0  0  0  0  0  0  0  0  0  0  0  0
  -26.8115  -26.1300   21.1606 C   0  0  0  0  0  0  0  0  0  0  0  0
  -21.8841   -9.0154   22.3487 C   0  0  0  0  0  0  0  0  0  0  0  0
  -29.8448  -23.5430   19.4955 C   0  0  0  0  0  0  0  0  0  0  0  0
  -26.9871  -13.3807   20.4653 C   0  0  0  0  0  0  0  0  0  0  0  0
  -29.5305  -13.3168   20.2793 C   0  0  0  0  0  0  0  0  0  0  0  0
  -27.4970  -20.0357   27.9058 C   0  0  0  0  0  0  0  0  0  0  0  0
  -27.0898  -25.9354   23.5574 C   0  0  0  0  0  0  0  0  0  0  0  0
  -27.8627  -20.8396   26.8093 C   0  0  0  0  0  0  0  0  0  0  0  0
  -26.3041  -25.7466   22.4115 C   0  0  0  0  0  0  0  0  0  0  0  0
  -24.4341  -12.2677   20.3038 C   0  0  0  0  0  0  0  0  0  0  0  0
  -28.0775  -26.7049   21.0526 C   0  0  0  0  0  0  0  0  0  0  0  0
  -22.9990  -10.4665   20.7713 C   0  0  0  0  0  0  0  0  0  0  0  0
  -22.6183   -7.9304   21.8694 C   0  0  0  0  0  0  0  0  0  0  0  0
  -22.0745  -10.2834   21.7996 C   0  0  0  0  0  0  0  0  0  0  0  0
  -28.3055  -13.9561   20.5482 C   0  0  0  0  0  0  0  0  0  0  0  0
  -30.2365  -24.2107   18.3696 C   0  0  0  0  0  0  0  0  0  0  0  0
  -30.4791  -14.2848   20.5020 C   0  0  0  0  0  0  0  0  0  0  0  0
  -31.6274  -22.5163   18.6778 C   0  0  0  0  0  0  0  0  0  0  0  0
  -29.7880  -11.9685   19.8652 C   0  0  0  0  0  0  0  0  0  0  0  0
  -26.0125  -23.1206   24.5672 C   0  0  0  0  0  0  0  0  0  0  0  0
  -30.1270  -20.2088   20.2614 C   0  0  0  0  0  0  0  0  0  0  0  0
  -23.1145  -24.5079   24.1205 C   0  0  0  0  0  0  0  0  0  0  0  0
  -21.2571  -26.8915   22.5346 C   0  0  0  0  0  0  0  0  0  0  0  0
  -26.1830  -19.2965   27.9443 C   0  0  0  0  0  0  0  0  0  0  0  0
  -26.5619  -25.5566   24.9139 C   0  0  0  0  0  0  0  0  0  0  0  0
  -24.9299  -25.1344   22.4842 C   0  0  0  0  0  0  0  0  0  0  0  0
  -25.1537  -19.8319   26.9523 C   0  0  0  0  0  0  0  0  0  0  0  0
  -31.2862  -18.2249   23.0805 C   0  0  0  0  0  0  0  0  0  0  0  0
  -25.7902  -20.0377   25.5814 C   0  0  0  0  0  0  0  0  0  0  0  0
  -30.7329  -16.8441   22.7305 C   0  0  0  0  0  0  0  0  0  0  0  0
  -30.3384  -19.3374   22.6400 C   0  0  0  0  0  0  0  0  0  0  0  0
  -29.4286  -17.9063   20.8376 C   0  0  0  0  0  0  0  0  0  0  0  0
  -26.9208  -21.0716   25.6477 C   0  0  1  0  0  0  0  0  0  0  0  0
  -25.4705  -24.4922   24.8544 C   0  0  1  0  0  0  0  0  0  0  0  0
  -30.3691  -16.7574   21.2380 C   0  0  2  0  0  0  0  0  0  0  0  0
  -32.7510  -21.5665   18.4826 C   0  0  0  0  0  0  0  0  0  0  0  0
  -18.9089  -27.7561   22.3453 C   0  0  0  0  0  0  0  0  0  0  0  0
  -22.3753  -22.1122   22.3814 C   0  0  0  0  0  0  0  0  0  0  0  0
  -20.4598  -23.4475   21.4780 C   0  0  0  0  0  0  0  0  0  0  0  0
  -20.5555  -22.8939   23.9085 C   0  0  0  0  0  0  0  0  0  0  0  0
  -22.0384  -29.5669   23.5299 C   0  0  0  0  0  0  0  0  0  0  0  0
  -29.6691  -25.4287   17.6856 C   0  0  0  0  0  0  0  0  0  0  0  0
  -30.6717  -21.5311   20.7398 C   0  0  0  0  0  0  0  0  0  0  0  0
  -30.2657  -26.7477   18.1816 C   0  0  0  0  0  0  0  0  0  0  0  0
  -29.9707  -27.0293   19.6503 C   0  0  0  0  0  0  0  0  0  1  0  0
  -22.1479  -24.6167   22.9660 C   0  0  1  0  0  0  0  0  0  0  0  0
  -20.2447  -27.8937   23.0591 C   0  0  2  0  0  0  0  0  0  0  0  0
  -21.4113  -23.2773   22.6816 C   0  0  0  0  0  0  0  0  0  0  0  0
  -28.4588  -15.2316   20.9139 N   0  0  0  0  0  0  0  0  0  0  0  0
  -30.7227  -22.4991   19.6621 N   0  0  0  0  0  0  0  0  0  0  0  0
  -29.7914  -15.4015   20.8765 N   0  0  0  0  0  0  0  0  0  0  0  0
  -31.3417  -23.5539   17.8846 N   0  3  0  0  0  0  0  0  0  0  0  0
  -24.4605  -24.7748   23.8325 N   0  0  0  0  0  0  0  0  0  0  0  0
  -29.9944  -19.2034   21.2194 N   0  0  0  0  0  0  0  0  0  0  0  0
  -31.8261  -14.2812   20.4122 N   0  0  0  0  0  0  0  0  0  0  0  0
  -28.6985  -11.1060   19.6827 N   0  0  0  0  0  0  0  0  0  0  0  0
  -26.3775  -22.4121   25.6960 N   0  0  0  0  0  0  0  0  0  0  0  0
  -21.2608  -25.7315   23.2801 N   0  0  0  0  0  0  0  0  0  0  0  0
  -20.7422  -29.2845   22.8612 N   0  3  0  0  0  0  0  0  0  0  0  0
  -30.9509  -11.5366   19.6788 O   0  0  0  0  0  0  0  0  0  0  0  0
  -26.0922  -22.7331   23.4074 O   0  0  0  0  0  0  0  0  0  0  0  0
  -29.8316  -20.0747   19.0711 O   0  0  0  0  0  0  0  0  0  0  0  0
  -22.6899  -24.2043   25.2381 O   0  0  0  0  0  0  0  0  0  0  0  0
  -21.9705  -27.1139   21.5588 O   0  0  0  0  0  0  0  0  0  0  0  0
  -23.1886  -11.7247   20.2246 O   0  0  0  0  0  0  0  0  0  0  0  0
  -28.5562  -27.0734   19.8332 O   0  0  0  0  0  0  0  0  0  1  0  0
  -22.4345   -6.7124   22.3956 F   0  0  0  0  0  0  0  0  0  0  0  0
  -21.3655  -11.3217   22.2634 F   0  0  0  0  0  0  0  0  0  0  0  0
  1  2  1  0  0  0  0
  1  5  2  0  0  0  0
  2  6  2  0  0  0  0
  3  8  2  0  0  0  0
  3 16  1  0  0  0  0
  4  9  1  0  0  0  0
  4 16  2  0  0  0  0
  5 18  1  0  0  0  0
  6 20  1  0  0  0  0
  7 10  2  0  0  0  0
  7 19  1  0  0  0  0
  8 22  1  0  0  0  0
  9 22  2  0  0  0  0
 10 23  1  0  0  0  0
 11 12  2  0  0  0  0
 11 24  1  0  0  0  0
 12 25  1  0  0  0  0
 13 21  1  0  0  0  0
 13 23  2  0  0  0  0
 14 25  2  0  0  0  0
 14 26  1  0  0  0  0
 15 28  2  0  0  0  0
 15 62  1  0  0  0  0
 16 27  1  0  0  0  0
 17 27  1  0  0  0  0
 17 29  2  0  0  0  0
 17 31  1  0  0  0  0
 18 20  2  0  0  0  0
 18 36  1  0  0  0  0
 19 21  2  0  0  0  0
 19 37  1  0  0  0  0
 20 45  1  0  0  0  0
 21 38  1  0  0  0  0
 22 77  1  0  0  0  0
 23 78  1  0  0  0  0
 24 26  2  0  0  0  0
 24 77  1  0  0  0  0
 25 79  1  0  0  0  0
 26 80  1  0  0  0  0
 27 61  2  0  0  0  0
 28 54  1  0  0  0  0
 28 64  1  0  0  0  0
 29 63  1  0  0  0  0
 29 67  1  0  0  0  0
 30 48  1  0  0  0  0
 30 62  1  0  0  0  0
 30 64  2  0  0  0  0
 31 68  1  0  0  0  0
 31 72  2  0  0  0  0
 32 46  1  0  0  0  0
 32 69  1  0  0  0  0
 32 73  2  0  0  0  0
 33 55  1  0  0  0  0
 33 66  1  0  0  0  0
 33 74  2  0  0  0  0
 34 58  1  0  0  0  0
 34 65  1  0  0  0  0
 34 75  2  0  0  0  0
 35 59  1  0  0  0  0
 35 70  1  0  0  0  0
 35 76  2  0  0  0  0
 36 39  1  0  0  0  0
 37 46  1  0  0  0  0
 38 65  1  0  0  0  0
 39 41  1  0  0  0  0
 40 42  1  0  0  0  0
 40 43  1  0  0  0  0
 41 45  1  0  0  0  0
 42 47  1  0  0  0  0
 43 66  1  0  0  0  0
 44 47  1  0  0  0  0
 44 66  1  0  0  0  0
 45 69  1  0  0  0  0
 46 65  1  0  0  0  0
 47 63  1  0  0  0  0
 49 59  1  0  0  0  0
 50 60  1  0  0  0  0
 51 60  1  0  0  0  0
 52 60  1  0  0  0  0
 53 71  1  0  0  0  0
 54 56  1  0  0  0  0
 55 62  1  0  0  0  0
 56 57  1  0  0  0  0
 57 78  1  0  0  0  0
 58 60  1  0  0  0  0
 58 70  1  0  0  0  0
 59 71  1  0  0  0  0
 61 63  1  0  0  0  0
M  CHG  2  64   1  71   1
M  ISO  4  33 100  55 100  57 101  78 101
M  END
> <Batch ID>
0044

> <Smiles>
CNC(C)C(=O)NC(C(=O)N1Cc2cc([101O:1][101CH2:1]CCc3cn([100CH2:0][100C:0](=O)N4CCCC(n5nc(-c6ccc(Oc7ccc(F)cc7F)cc6)c(C(N)=O)c5N)C4)c(C)n3)ccc2CC1C(=O)NC1CCCc2ccccc21)C(C)(C)C

> <Shape>
0.242

> <Color>
0.079

> <Negative vol penalty>
0.000

$$$$

  -OEChem-04052317173D

 83 91  0     1  0  0  0  0  0999 V2000
  -20.2739  -21.6700   19.6367 C   0  0  0  0  0  0  0  0  0  0  0  0
  -21.6270  -21.8200   19.9231 C   0  0  0  0  0  0  0  0  0  0  0  0
  -25.8798  -14.0488   21.1650 C   0  0  0  0  0  0  0  0  0  0  0  0
  -25.8441  -14.3618   18.7696 C   0  0  0  0  0  0  0  0  0  0  0  0
  -19.5917  -22.6751   18.9524 C   0  0  0  0  0  0  0  0  0  0  0  0
  -22.2990  -22.9750   19.5245 C   0  0  0  0  0  0  0  0  0  0  0  0
  -26.8362  -25.8089   22.5058 C   0  0  0  0  0  0  0  0  0  0  0  0
  -24.8545  -13.1093   21.0576 C   0  0  0  0  0  0  0  0  0  0  0  0
  -24.8187  -13.4222   18.6622 C   0  0  0  0  0  0  0  0  0  0  0  0
  -28.2216  -25.7793   22.3523 C   0  0  0  0  0  0  0  0  0  0  0  0
  -24.5363   -9.8579   20.1856 C   0  0  0  0  0  0  0  0  0  0  0  0
  -24.6656   -8.6718   20.9080 C   0  0  0  0  0  0  0  0  0  0  0  0
  -28.1084  -27.7740   21.0005 C   0  0  0  0  0  0  0  0  0  0  0  0
  -32.0577  -24.2461   20.7898 C   0  0  0  0  0  0  0  0  0  0  0  0
  -31.6646  -24.5987   18.4434 C   0  0  0  0  0  0  0  0  0  0  0  0
  -22.6240   -9.1740   22.0982 C   0  0  0  0  0  0  0  0  0  0  0  0
  -26.3746  -14.6751   20.0210 C   0  0  0  0  0  0  0  0  0  0  0  0
  -28.8190  -15.4026   20.0787 C   0  0  0  0  0  0  0  0  0  0  0  0
  -20.2534  -23.8472   18.5537 C   0  0  0  0  0  0  0  0  0  0  0  0
  -26.0741  -26.8168   21.8977 C   0  0  0  0  0  0  0  0  0  0  0  0
  -21.6253  -23.9962   18.8331 C   0  0  0  0  0  0  0  0  0  0  0  0
  -26.7138  -27.8156   21.1499 C   0  0  0  0  0  0  0  0  0  0  0  0
  -31.9271  -25.1111   19.7091 C   0  0  0  0  0  0  0  0  0  0  0  0
  -24.3239  -12.7960   19.8062 C   0  0  0  0  0  0  0  0  0  0  0  0
  -28.8577  -26.7603   21.5972 C   0  0  0  0  0  0  0  0  0  0  0  0
  -23.4509  -10.7022   20.4195 C   0  0  0  0  0  0  0  0  0  0  0  0
  -23.7095   -8.3298   21.8643 C   0  0  0  0  0  0  0  0  0  0  0  0
  -22.4947  -10.3603   21.3758 C   0  0  0  0  0  0  0  0  0  0  0  0
  -27.4334  -15.6461   20.1314 C   0  0  0  0  0  0  0  0  0  0  0  0
  -31.9182  -22.8879   20.5540 C   0  0  0  0  0  0  0  0  0  0  0  0
  -31.5429  -23.2247   18.3126 C   0  0  0  0  0  0  0  0  0  0  0  0
  -29.3914  -16.6418   20.2312 C   0  0  0  0  0  0  0  0  0  0  0  0
  -29.5255  -14.1669   19.9071 C   0  0  0  0  0  0  0  0  0  0  0  0
  -23.7699  -26.8748   19.7089 C   0  0  0  0  0  0  0  0  0  0  0  0
  -23.6721  -30.0291   20.4593 C   0  0  0  0  0  0  0  0  0  0  0  0
  -25.2897  -32.7607   21.7118 C   0  0  0  0  0  0  0  0  0  0  0  0
  -28.5176  -22.1777   18.7803 C   0  0  0  0  0  0  0  0  0  0  0  0
  -19.4851  -24.8854   17.7748 C   0  0  0  0  0  0  0  0  0  0  0  0
  -24.5834  -26.8499   22.0950 C   0  0  0  0  0  0  0  0  0  0  0  0
  -25.9432  -28.9309   20.4935 C   0  0  0  0  0  0  0  0  0  0  0  0
  -20.1819  -26.2424   17.7169 C   0  0  0  0  0  0  0  0  0  0  0  0
  -27.8805  -20.9751   22.0704 C   0  0  0  0  0  0  0  0  0  0  0  0
  -21.6572  -26.0706   17.3696 C   0  0  0  0  0  0  0  0  0  0  0  0
  -27.8291  -19.4557   21.9009 C   0  0  0  0  0  0  0  0  0  0  0  0
  -27.2752  -21.6978   20.8690 C   0  0  0  0  0  0  0  0  0  0  0  0
  -27.7910  -19.7919   19.3940 C   0  0  0  0  0  0  0  0  0  0  0  0
  -22.3832  -25.2453   18.4390 C   0  0  1  0  0  0  0  0  0  0  0  0
  -23.8536  -27.6295   21.0055 C   0  0  1  0  0  0  0  0  0  0  0  0
  -28.4407  -19.0205   20.5555 C   0  0  2  0  0  0  0  0  0  0  0  0
  -33.4882  -21.4568   21.8857 C   0  0  0  0  0  0  0  0  0  0  0  0
  -24.9642  -35.2078   22.1628 C   0  0  0  0  0  0  0  0  0  0  0  0
  -24.0031  -30.6191   17.4840 C   0  0  0  0  0  0  0  0  0  0  0  0
  -24.6186  -32.9691   18.0896 C   0  0  0  0  0  0  0  0  0  0  0  0
  -22.3564  -32.0873   18.6617 C   0  0  0  0  0  0  0  0  0  0  0  0
  -25.7173  -32.4005   24.6180 C   0  0  0  0  0  0  0  0  0  0  0  0
  -32.0685  -26.6005   19.9092 C   0  0  0  0  0  0  0  0  0  0  0  0
  -32.0504  -21.9300   21.6905 C   0  0  0  0  0  0  0  0  0  0  0  0
  -31.2632  -22.6401   16.9684 C   0  0  0  0  0  0  0  0  0  0  0  0
  -29.7682  -22.4974   16.6606 C   0  0  0  0  0  0  0  0  0  0  0  0
  -30.7379  -27.2709   20.2334 C   0  0  0  0  0  0  0  0  0  1  0  0
  -24.3689  -31.2700   19.9556 C   0  0  1  0  0  0  0  0  0  0  0  0
  -24.8669  -33.8013   22.7330 C   0  0  2  0  0  0  0  0  0  0  0  0
  -23.8513  -31.7144   18.5584 C   0  0  0  0  0  0  0  0  0  0  0  0
  -27.1431  -16.9383   20.3041 N   0  0  0  0  0  0  0  0  0  0  0  0
  -31.6632  -22.3530   19.3389 N   0  0  0  0  0  0  0  0  0  0  0  0
  -28.3543  -17.5180   20.3613 N   0  0  0  0  0  0  0  0  0  0  0  0
  -24.4871  -28.9163   20.7104 N   0  0  0  0  0  0  0  0  0  0  0  0
  -27.8997  -21.2409   19.6251 N   0  0  0  0  0  0  0  0  0  0  0  0
  -30.6756  -17.0566   20.2655 N   0  0  0  0  0  0  0  0  0  0  0  0
  -28.7828  -12.9868   19.7648 N   0  0  0  0  0  0  0  0  0  0  0  0
  -22.6598  -26.0587   19.6036 N   0  0  0  0  0  0  0  0  0  0  0  0
  -24.2128  -32.2778   20.9989 N   0  0  0  0  0  0  0  0  0  0  0  0
  -29.0906  -21.6600   17.6251 N   0  0  0  0  0  0  0  0  0  0  0  0
  -25.7349  -33.7232   23.9419 N   0  3  0  0  0  0  0  0  0  0  0  0
  -30.7785  -14.1086   19.8972 O   0  0  0  0  0  0  0  0  0  0  0  0
  -24.6467  -27.0233   18.8657 O   0  0  0  0  0  0  0  0  0  0  0  0
  -22.4507  -30.0488   20.6307 O   0  0  0  0  0  0  0  0  0  0  0  0
  -26.4588  -32.4139   21.5590 O   0  0  0  0  0  0  0  0  0  0  0  0
  -28.5604  -23.3852   19.0391 O   0  0  0  0  0  0  0  0  0  0  0  0
  -23.3235  -11.8791   19.7010 O   0  0  0  0  0  0  0  0  0  0  0  0
  -30.2097  -26.7333   21.4452 O   0  0  0  0  0  0  0  0  0  1  0  0
  -23.8329   -7.1899   22.5568 F   0  0  0  0  0  0  0  0  0  0  0  0
  -21.4491  -11.1667   21.6041 F   0  0  0  0  0  0  0  0  0  0  0  0
  1  2  1  0  0  0  0
  1  5  2  0  0  0  0
  2  6  2  0  0  0  0
  3  8  2  0  0  0  0
  3 17  1  0  0  0  0
  4  9  1  0  0  0  0
  4 17  2  0  0  0  0
  5 19  1  0  0  0  0
  6 21  1  0  0  0  0
  7 10  2  0  0  0  0
  7 20  1  0  0  0  0
  8 24  1  0  0  0  0
  9 24  2  0  0  0  0
 10 25  1  0  0  0  0
 11 12  2  0  0  0  0
 11 26  1  0  0  0  0
 12 27  1  0  0  0  0
 13 22  1  0  0  0  0
 13 25  2  0  0  0  0
 14 23  2  0  0  0  0
 14 30  1  0  0  0  0
 15 23  1  0  0  0  0
 15 31  2  0  0  0  0
 16 27  2  0  0  0  0
 16 28  1  0  0  0  0
 17 29  1  0  0  0  0
 18 29  1  0  0  0  0
 18 32  2  0  0  0  0
 18 33  1  0  0  0  0
 19 21  2  0  0  0  0
 19 38  1  0  0  0  0
 20 22  2  0  0  0  0
 20 39  1  0  0  0  0
 21 47  1  0  0  0  0
 22 40  1  0  0  0  0
 23 56  1  0  0  0  0
 24 80  1  0  0  0  0
 25 81  1  0  0  0  0
 26 28  2  0  0  0  0
 26 80  1  0  0  0  0
 27 82  1  0  0  0  0
 28 83  1  0  0  0  0
 29 64  2  0  0  0  0
 30 57  1  0  0  0  0
 30 65  2  0  0  0  0
 31 58  1  0  0  0  0
 31 65  1  0  0  0  0
 32 66  1  0  0  0  0
 32 69  1  0  0  0  0
 33 70  1  0  0  0  0
 33 75  2  0  0  0  0
 34 48  1  0  0  0  0
 34 71  1  0  0  0  0
 34 76  2  0  0  0  0
 35 61  1  0  0  0  0
 35 67  1  0  0  0  0
 35 77  2  0  0  0  0
 36 62  1  0  0  0  0
 36 72  1  0  0  0  0
 36 78  2  0  0  0  0
 37 68  1  0  0  0  0
 37 73  1  0  0  0  0
 37 79  2  0  0  0  0
 38 41  1  0  0  0  0
 39 48  1  0  0  0  0
 40 67  1  0  0  0  0
 41 43  1  0  0  0  0
 42 44  1  0  0  0  0
 42 45  1  0  0  0  0
 43 47  1  0  0  0  0
 44 49  1  0  0  0  0
 45 68  1  0  0  0  0
 46 49  1  0  0  0  0
 46 68  1  0  0  0  0
 47 71  1  0  0  0  0
 48 67  1  0  0  0  0
 49 66  1  0  0  0  0
 50 57  1  0  0  0  0
 51 62  1  0  0  0  0
 52 63  1  0  0  0  0
 53 63  1  0  0  0  0
 54 63  1  0  0  0  0
 55 74  1  0  0  0  0
 56 60  1  0  0  0  0
 58 59  1  0  0  0  0
 59 73  1  0  0  0  0
 60 81  1  0  0  0  0
 61 63  1  0  0  0  0
 61 72  1  0  0  0  0
 62 74  1  0  0  0  0
 64 66  1  0  0  0  0
M  CHG  1  74   1
M  ISO  4  37 100  60 101  73 100  81 101
M  END
> <Batch ID>
0044

> <Smiles>
CCc1cc(C[101CH2:1][101O:1]c2ccc3c(c2)CN(C(=O)C(NC(=O)C(C)NC)C(C)(C)C)C(C(=O)NC2CCCc4ccccc42)C3)cc(CC[100NH:0][100C:0](=O)N2CCCC(n3nc(-c4ccc(Oc5ccc(F)cc5F)cc4)c(C(N)=O)c3N)C2)n1

> <Shape>
0.258

> <Color>
0.066

> <Negative vol penalty>
0.000

$$$$

  -OEChem-04052317173D

 83 91  0     1  0  0  0  0  0999 V2000
  -28.4967  -11.1552   19.9554 C   0  0  0  0  0  0  0  0  0  0  0  0
  -28.7596  -12.3973   19.3867 C   0  0  0  0  0  0  0  0  0  0  0  0
  -24.6238  -28.6934   22.0868 C   0  0  0  0  0  0  0  0  0  0  0  0
  -25.1906  -29.9850   20.1253 C   0  0  0  0  0  0  0  0  0  0  0  0
  -27.2306  -10.8793   20.4700 C   0  0  0  0  0  0  0  0  0  0  0  0
  -27.7562  -13.3640   19.3314 C   0  0  0  0  0  0  0  0  0  0  0  0
  -29.4024  -17.9535   20.6995 C   0  0  0  0  0  0  0  0  0  0  0  0
  -24.1929  -29.8551   22.7273 C   0  0  0  0  0  0  0  0  0  0  0  0
  -24.7597  -31.1468   20.7658 C   0  0  0  0  0  0  0  0  0  0  0  0
  -30.1375  -18.6729   19.7583 C   0  0  0  0  0  0  0  0  0  0  0  0
  -24.1445  -34.5045   22.0136 C   0  0  0  0  0  0  0  0  0  0  0  0
  -24.9530  -35.6369   21.9156 C   0  0  0  0  0  0  0  0  0  0  0  0
  -28.1676  -19.9508   19.2056 C   0  0  0  0  0  0  0  0  0  0  0  0
  -33.3761  -22.5935   15.0728 C   0  0  0  0  0  0  0  0  0  0  0  0
  -31.9602  -20.7142   15.5710 C   0  0  0  0  0  0  0  0  0  0  0  0
  -26.7603  -34.4387   22.9811 C   0  0  0  0  0  0  0  0  0  0  0  0
  -25.1227  -28.7583   20.7858 C   0  0  0  0  0  0  0  0  0  0  0  0
  -24.7974  -26.6898   19.3286 C   0  0  0  0  0  0  0  0  0  0  0  0
  -26.2139  -11.8465   20.4296 C   0  0  0  0  0  0  0  0  0  0  0  0
  -28.0395  -18.2203   20.8934 C   0  0  0  0  0  0  0  0  0  0  0  0
  -26.4749  -13.1004   19.8447 C   0  0  0  0  0  0  0  0  0  0  0  0
  -27.4181  -19.2351   20.1517 C   0  0  0  0  0  0  0  0  0  0  0  0
  -32.5483  -21.5635   14.6402 C   0  0  0  0  0  0  0  0  0  0  0  0
  -24.2608  -31.0818   22.0668 C   0  0  0  0  0  0  0  0  0  0  0  0
  -29.5194  -19.6698   19.0091 C   0  0  0  0  0  0  0  0  0  0  0  0
  -24.6438  -33.3392   22.5955 C   0  0  0  0  0  0  0  0  0  0  0  0
  -26.2609  -35.6040   22.3993 C   0  0  0  0  0  0  0  0  0  0  0  0
  -25.9517  -33.3063   23.0792 C   0  0  0  0  0  0  0  0  0  0  0  0
  -25.5686  -27.5586   20.1238 C   0  0  0  0  0  0  0  0  0  0  0  0
  -33.5822  -22.7308   16.4361 C   0  0  0  0  0  0  0  0  0  0  0  0
  -32.2299  -20.9356   16.9119 C   0  0  0  0  0  0  0  0  0  0  0  0
  -25.6775  -25.7107   18.9372 C   0  0  0  0  0  0  0  0  0  0  0  0
  -23.4097  -26.7615   18.9754 C   0  0  0  0  0  0  0  0  0  0  0  0
  -25.3566  -16.5492   20.5573 C   0  0  0  0  0  0  0  0  0  0  0  0
  -24.0089  -19.1844   21.8847 C   0  0  0  0  0  0  0  0  0  0  0  0
  -24.1961  -22.5356   22.5019 C   0  0  0  0  0  0  0  0  0  0  0  0
  -31.5422  -25.7356   18.2590 C   0  0  0  0  0  0  0  0  0  0  0  0
  -24.8474  -11.4857   20.9560 C   0  0  0  0  0  0  0  0  0  0  0  0
  -27.2670  -17.4535   21.9315 C   0  0  0  0  0  0  0  0  0  0  0  0
  -25.9622  -19.5742   20.3362 C   0  0  0  0  0  0  0  0  0  0  0  0
  -23.9482  -12.6956   21.1964 C   0  0  0  0  0  0  0  0  0  0  0  0
  -29.6594  -23.4681   20.3593 C   0  0  0  0  0  0  0  0  0  0  0  0
  -24.0002  -13.6448   20.0034 C   0  0  0  0  0  0  0  0  0  0  0  0
  -28.3144  -24.1902   20.4572 C   0  0  0  0  0  0  0  0  0  0  0  0
  -30.8202  -24.4584   20.3662 C   0  0  0  0  0  0  0  0  0  0  0  0
  -29.4001  -26.2279   19.4041 C   0  0  0  0  0  0  0  0  0  0  0  0
  -25.4197  -14.1837   19.7885 C   0  0  1  0  0  0  0  0  0  0  0  0
  -25.7620  -17.4596   21.6818 C   0  0  1  0  0  0  0  0  0  0  0  0
  -28.1851  -25.2827   19.3792 C   0  0  2  0  0  0  0  0  0  0  0  0
  -30.8051  -21.5471   12.8197 C   0  0  0  0  0  0  0  0  0  0  0  0
  -32.7968  -20.0089   12.6716 C   0  0  0  0  0  0  0  0  0  0  0  0
  -22.9266  -24.4147   23.5765 C   0  0  0  0  0  0  0  0  0  0  0  0
  -22.1057  -19.2584   19.5010 C   0  0  0  0  0  0  0  0  0  0  0  0
  -21.5318  -21.6151   20.1212 C   0  0  0  0  0  0  0  0  0  0  0  0
  -21.0354  -19.7540   21.7063 C   0  0  0  0  0  0  0  0  0  0  0  0
  -26.3754  -23.0567   24.4354 C   0  0  0  0  0  0  0  0  0  0  0  0
  -34.4633  -23.8261   16.9368 C   0  0  0  0  0  0  0  0  0  0  0  0
  -31.6136  -20.0373   17.9437 C   0  0  0  0  0  0  0  0  0  1  0  0
  -33.7149  -25.1331   17.2228 C   0  0  0  0  0  0  0  0  0  0  0  0
  -32.2915  -21.3710   13.1840 C   0  0  0  0  0  0  0  0  0  0  0  0
  -23.4329  -20.4741   21.3521 C   0  0  1  0  0  0  0  0  0  0  0  0
  -23.9839  -23.3393   23.7722 C   0  0  2  0  0  0  0  0  0  0  0  0
  -22.0534  -20.2679   20.6650 C   0  0  0  0  0  0  0  0  0  0  0  0
  -26.8406  -27.1659   20.2322 N   0  0  0  0  0  0  0  0  0  0  0  0
  -33.0284  -21.9255   17.3701 N   0  0  0  0  0  0  0  0  0  0  0  0
  -26.8755  -26.0395   19.5000 N   0  0  0  0  0  0  0  0  0  0  0  0
  -25.2480  -18.7921   21.3588 N   0  0  0  0  0  0  0  0  0  0  0  0
  -30.6459  -25.4602   19.3050 N   0  0  0  0  0  0  0  0  0  0  0  0
  -25.5357  -24.6090   18.1699 N   0  0  0  0  0  0  0  0  0  0  0  0
  -22.6506  -27.8340   19.4631 N   0  0  0  0  0  0  0  0  0  0  0  0
  -25.7142  -15.2279   20.7462 N   0  0  0  0  0  0  0  0  0  0  0  0
  -23.4078  -21.4046   22.4754 N   0  0  0  0  0  0  0  0  0  0  0  0
  -32.7011  -24.9692   18.2409 N   0  0  0  0  0  0  0  0  0  0  0  0
  -25.2545  -23.9992   24.1859 N   0  3  0  0  0  0  0  0  0  0  0  0
  -22.8553  -25.8912   18.2621 O   0  0  0  0  0  0  0  0  0  0  0  0
  -24.7619  -17.0111   19.5905 O   0  0  0  0  0  0  0  0  0  0  0  0
  -23.3859  -18.5520   22.7412 O   0  0  0  0  0  0  0  0  0  0  0  0
  -24.9799  -22.8789   21.6196 O   0  0  0  0  0  0  0  0  0  0  0  0
  -31.3234  -26.5975   17.4009 O   0  0  0  0  0  0  0  0  0  0  0  0
  -23.8402  -32.2156   22.6914 O   0  0  0  0  0  0  0  0  0  0  0  0
  -30.2344  -20.3731   18.0893 O   0  0  0  0  0  0  0  0  0  1  0  0
  -27.0377  -36.6910   22.3037 F   0  0  0  0  0  0  0  0  0  0  0  0
  -26.4374  -32.1894   23.6382 F   0  0  0  0  0  0  0  0  0  0  0  0
  1  2  1  0  0  0  0
  1  5  2  0  0  0  0
  2  6  2  0  0  0  0
  3  8  2  0  0  0  0
  3 17  1  0  0  0  0
  4  9  1  0  0  0  0
  4 17  2  0  0  0  0
  5 19  1  0  0  0  0
  6 21  1  0  0  0  0
  7 10  2  0  0  0  0
  7 20  1  0  0  0  0
  8 24  1  0  0  0  0
  9 24  2  0  0  0  0
 10 25  1  0  0  0  0
 11 12  2  0  0  0  0
 11 26  1  0  0  0  0
 12 27  1  0  0  0  0
 13 22  1  0  0  0  0
 13 25  2  0  0  0  0
 14 23  1  0  0  0  0
 14 30  2  0  0  0  0
 15 23  2  0  0  0  0
 15 31  1  0  0  0  0
 16 27  2  0  0  0  0
 16 28  1  0  0  0  0
 17 29  1  0  0  0  0
 18 29  1  0  0  0  0
 18 32  2  0  0  0  0
 18 33  1  0  0  0  0
 19 21  2  0  0  0  0
 19 38  1  0  0  0  0
 20 22  2  0  0  0  0
 20 39  1  0  0  0  0
 21 47  1  0  0  0  0
 22 40  1  0  0  0  0
 23 60  1  0  0  0  0
 24 80  1  0  0  0  0
 25 81  1  0  0  0  0
 26 28  2  0  0  0  0
 26 80  1  0  0  0  0
 27 82  1  0  0  0  0
 28 83  1  0  0  0  0
 29 64  2  0  0  0  0
 30 57  1  0  0  0  0
 30 65  1  0  0  0  0
 31 58  1  0  0  0  0
 31 65  2  0  0  0  0
 32 66  1  0  0  0  0
 32 69  1  0  0  0  0
 33 70  1  0  0  0  0
 33 75  2  0  0  0  0
 34 48  1  0  0  0  0
 34 71  1  0  0  0  0
 34 76  2  0  0  0  0
 35 61  1  0  0  0  0
 35 67  1  0  0  0  0
 35 77  2  0  0  0  0
 36 62  1  0  0  0  0
 36 72  1  0  0  0  0
 36 78  2  0  0  0  0
 37 68  1  0  0  0  0
 37 73  1  0  0  0  0
 37 79  2  0  0  0  0
 38 41  1  0  0  0  0
 39 48  1  0  0  0  0
 40 67  1  0  0  0  0
 41 43  1  0  0  0  0
 42 44  1  0  0  0  0
 42 45  1  0  0  0  0
 43 47  1  0  0  0  0
 44 49  1  0  0  0  0
 45 68  1  0  0  0  0
 46 49  1  0  0  0  0
 46 68  1  0  0  0  0
 47 71  1  0  0  0  0
 48 67  1  0  0  0  0
 49 66  1  0  0  0  0
 50 60  1  0  0  0  0
 51 60  1  0  0  0  0
 52 62  1  0  0  0  0
 53 63  1  0  0  0  0
 54 63  1  0  0  0  0
 55 63  1  0  0  0  0
 56 74  1  0  0  0  0
 57 59  1  0  0  0  0
 58 81  1  0  0  0  0
 59 73  1  0  0  0  0
 61 63  1  0  0  0  0
 61 72  1  0  0  0  0
 62 74  1  0  0  0  0
 64 66  1  0  0  0  0
M  CHG  1  74   1
M  ISO  4  37 100  58 101  73 100  81 101
M  END
> <Batch ID>
0044

> <Smiles>
CNC(C)C(=O)NC(C(=O)N1Cc2cc([101O:1][101CH2:1]c3cc(C(C)C)cc(CC[100NH:0][100C:0](=O)N4CCCC(n5nc(-c6ccc(Oc7ccc(F)cc7F)cc6)c(C(N)=O)c5N)C4)n3)ccc2CC1C(=O)NC1CCCc2ccccc21)C(C)(C)C

> <Shape>
0.223

> <Color>
0.056

> <Negative vol penalty>
0.000

$$$$

  -OEChem-04052317173D

 83 91  0     1  0  0  0  0  0999 V2000
  -27.6155  -24.3199   17.0444 C   0  0  0  0  0  0  0  0  0  0  0  0
  -26.5475  -25.1617   17.3336 C   0  0  0  0  0  0  0  0  0  0  0  0
  -25.1988  -18.3860   19.5067 C   0  0  0  0  0  0  0  0  0  0  0  0
  -23.1457  -17.6048   20.5123 C   0  0  0  0  0  0  0  0  0  0  0  0
  -28.7021  -24.2550   17.9139 C   0  0  0  0  0  0  0  0  0  0  0  0
  -26.5711  -25.9477   18.4862 C   0  0  0  0  0  0  0  0  0  0  0  0
  -22.9420  -29.2243   19.0316 C   0  0  0  0  0  0  0  0  0  0  0  0
  -25.7610  -17.1202   19.6711 C   0  0  0  0  0  0  0  0  0  0  0  0
  -23.7079  -16.3389   20.6767 C   0  0  0  0  0  0  0  0  0  0  0  0
  -21.6324  -28.8549   19.3351 C   0  0  0  0  0  0  0  0  0  0  0  0
  -24.3285  -13.6233   18.7634 C   0  0  0  0  0  0  0  0  0  0  0  0
  -23.5500  -12.5198   18.4146 C   0  0  0  0  0  0  0  0  0  0  0  0
  -21.9720  -29.5502   21.6199 C   0  0  0  0  0  0  0  0  0  0  0  0
  -23.6975  -11.6989   20.6821 C   0  0  0  0  0  0  0  0  0  0  0  0
  -23.8911  -18.6284   19.9274 C   0  0  0  0  0  0  0  0  0  0  0  0
  -22.5859  -20.4072   18.6468 C   0  0  0  0  0  0  0  0  0  0  0  0
  -28.7327  -25.0317   19.0839 C   0  0  0  0  0  0  0  0  0  0  0  0
  -23.7814  -29.7501   20.0243 C   0  0  0  0  0  0  0  0  0  0  0  0
  -27.6696  -25.9142   19.3640 C   0  0  0  0  0  0  0  0  0  0  0  0
  -23.2911  -29.9278   21.3259 C   0  0  0  0  0  0  0  0  0  0  0  0
  -17.9845  -24.8424   23.4492 C   0  0  0  0  0  0  0  0  0  0  0  0
  -25.0156  -16.0966   20.2561 C   0  0  0  0  0  0  0  0  0  0  0  0
  -21.1480  -29.0151   20.6300 C   0  0  0  0  0  0  0  0  0  0  0  0
  -24.7917  -13.7646   20.0715 C   0  0  0  0  0  0  0  0  0  0  0  0
  -23.2344  -11.5576   19.3739 C   0  0  0  0  0  0  0  0  0  0  0  0
  -24.4761  -12.8025   21.0309 C   0  0  0  0  0  0  0  0  0  0  0  0
  -23.3099  -19.9359   19.7583 C   0  0  0  0  0  0  0  0  0  0  0  0
  -17.7360  -26.1741   23.7122 C   0  0  0  0  0  0  0  0  0  0  0  0
  -18.1364  -24.5151   22.1173 C   0  0  0  0  0  0  0  0  0  0  0  0
  -22.2544  -21.6989   18.9755 C   0  0  0  0  0  0  0  0  0  0  0  0
  -17.8084  -26.6772   21.4967 C   0  0  0  0  0  0  0  0  0  0  0  0
  -22.2436  -19.7372   17.4263 C   0  0  0  0  0  0  0  0  0  0  0  0
  -26.5254  -28.8478   21.3509 C   0  0  0  0  0  0  0  0  0  0  0  0
  -26.3146  -31.7327   22.8190 C   0  0  0  0  0  0  0  0  0  0  0  0
  -24.3380  -34.2979   23.8959 C   0  0  0  0  0  0  0  0  0  0  0  0
  -21.5648  -24.5258   24.2085 C   0  0  0  0  0  0  0  0  0  0  0  0
  -29.9372  -24.9282   19.9859 C   0  0  0  0  0  0  0  0  0  0  0  0
  -25.1832  -30.1686   19.6746 C   0  0  0  0  0  0  0  0  0  0  0  0
  -24.1453  -30.5067   22.4230 C   0  0  0  0  0  0  0  0  0  0  0  0
  -29.6741  -25.4570   21.3921 C   0  0  0  0  0  0  0  0  0  0  0  0
  -23.7878  -25.4130   21.5726 C   0  0  0  0  0  0  0  0  0  0  0  0
  -29.0273  -26.8320   21.3178 C   0  0  0  0  0  0  0  0  0  0  0  0
  -23.8521  -24.1524   20.7084 C   0  0  0  0  0  0  0  0  0  0  0  0
  -23.6892  -25.0743   23.0584 C   0  0  0  0  0  0  0  0  0  0  0  0
  -22.6542  -22.8965   22.5487 C   0  0  0  0  0  0  0  0  0  0  0  0
  -27.6596  -26.7556   20.6275 C   0  0  1  0  0  0  0  0  0  0  0  0
  -26.1121  -30.2148   20.8839 C   0  0  1  0  0  0  0  0  0  0  0  0
  -22.6981  -23.1868   21.0387 C   0  0  2  0  0  0  0  0  0  0  0  0
  -17.5543  -26.6461   25.1174 C   0  0  0  0  0  0  0  0  0  0  0  0
  -18.4077  -23.1041   21.7108 C   0  0  0  0  0  0  0  0  0  0  0  0
  -24.4474  -36.4994   25.0953 C   0  0  0  0  0  0  0  0  0  0  0  0
  -26.6573  -30.2669   25.4730 C   0  0  0  0  0  0  0  0  0  0  0  0
  -25.8205  -32.3203   26.6354 C   0  0  0  0  0  0  0  0  0  0  0  0
  -27.9236  -32.4163   25.2973 C   0  0  0  0  0  0  0  0  0  0  0  0
  -23.2643  -35.7578   21.5561 C   0  0  0  0  0  0  0  0  0  0  0  0
  -18.0838  -23.8266   24.5314 C   0  0  0  0  0  0  0  0  0  0  0  0
  -17.7123  -27.7090   20.3992 C   0  0  0  0  0  0  0  0  0  0  0  0
  -19.4291  -23.8403   25.2704 C   0  0  0  0  0  0  0  0  0  0  0  0
  -19.0812  -28.1192   19.8674 C   0  0  0  0  0  0  0  0  0  1  0  0
  -25.7021  -32.2362   24.1036 C   0  0  1  0  0  0  0  0  0  0  0  0
  -24.4688  -35.8026   23.7437 C   0  0  2  0  0  0  0  0  0  0  0  0
  -26.5101  -31.7972   25.3574 C   0  0  0  0  0  0  0  0  0  0  0  0
  -23.4317  -20.8537   20.7211 N   0  0  0  0  0  0  0  0  0  0  0  0
  -17.6413  -27.1219   22.7567 N   0  0  0  0  0  0  0  0  0  0  0  0
  -18.0541  -25.4104   21.1113 N   0  0  0  0  0  0  0  0  0  0  0  0
  -22.7799  -21.9146   20.2155 N   0  0  0  0  0  0  0  0  0  0  0  0
  -25.5109  -30.8949   22.0329 N   0  0  0  0  0  0  0  0  0  0  0  0
  -22.5743  -24.1564   23.3042 N   0  0  0  0  0  0  0  0  0  0  0  0
  -21.5677  -22.6600   18.3219 N   0  0  0  0  0  0  0  0  0  0  0  0
  -22.6633  -18.4115   17.2514 N   0  0  0  0  0  0  0  0  0  0  0  0
  -27.1753  -28.0975   20.3895 N   0  0  0  0  0  0  0  0  0  0  0  0
  -25.5700  -33.6814   23.9538 N   0  0  0  0  0  0  0  0  0  0  0  0
  -20.5418  -23.6011   24.3785 N   0  0  0  0  0  0  0  0  0  0  0  0
  -23.3484  -36.3393   22.9205 N   0  3  0  0  0  0  0  0  0  0  0  0
  -21.5991  -20.3029   16.5108 O   0  0  0  0  0  0  0  0  0  0  0  0
  -26.2747  -28.5001   22.4989 O   0  0  0  0  0  0  0  0  0  0  0  0
  -27.4612  -32.0759   22.5204 O   0  0  0  0  0  0  0  0  0  0  0  0
  -23.2516  -33.7268   23.9608 O   0  0  0  0  0  0  0  0  0  0  0  0
  -21.5719  -25.6024   24.8150 O   0  0  0  0  0  0  0  0  0  0  0  0
  -25.5639  -14.8612   20.4165 O   0  0  0  0  0  0  0  0  0  0  0  0
  -19.8703  -28.6547   20.9290 O   0  0  0  0  0  0  0  0  0  1  0  0
  -22.4855  -10.4987   19.0392 F   0  0  0  0  0  0  0  0  0  0  0  0
  -24.9171  -12.9334   22.2895 F   0  0  0  0  0  0  0  0  0  0  0  0
  1  2  1  0  0  0  0
  1  5  2  0  0  0  0
  2  6  2  0  0  0  0
  3  8  2  0  0  0  0
  3 15  1  0  0  0  0
  4  9  1  0  0  0  0
  4 15  2  0  0  0  0
  5 17  1  0  0  0  0
  6 19  1  0  0  0  0
  7 10  2  0  0  0  0
  7 18  1  0  0  0  0
  8 22  1  0  0  0  0
  9 22  2  0  0  0  0
 10 23  1  0  0  0  0
 11 12  2  0  0  0  0
 11 24  1  0  0  0  0
 12 25  1  0  0  0  0
 13 20  1  0  0  0  0
 13 23  2  0  0  0  0
 14 25  2  0  0  0  0
 14 26  1  0  0  0  0
 15 27  1  0  0  0  0
 16 27  1  0  0  0  0
 16 30  2  0  0  0  0
 16 32  1  0  0  0  0
 17 19  2  0  0  0  0
 17 37  1  0  0  0  0
 18 20  2  0  0  0  0
 18 38  1  0  0  0  0
 19 46  1  0  0  0  0
 20 39  1  0  0  0  0
 21 28  1  0  0  0  0
 21 29  2  0  0  0  0
 21 56  1  0  0  0  0
 22 80  1  0  0  0  0
 23 81  1  0  0  0  0
 24 26  2  0  0  0  0
 24 80  1  0  0  0  0
 25 82  1  0  0  0  0
 26 83  1  0  0  0  0
 27 63  2  0  0  0  0
 28 49  1  0  0  0  0
 28 64  2  0  0  0  0
 29 50  1  0  0  0  0
 29 65  1  0  0  0  0
 30 66  1  0  0  0  0
 30 69  1  0  0  0  0
 31 57  1  0  0  0  0
 31 64  1  0  0  0  0
 31 65  2  0  0  0  0
 32 70  1  0  0  0  0
 32 75  2  0  0  0  0
 33 47  1  0  0  0  0
 33 71  1  0  0  0  0
 33 76  2  0  0  0  0
 34 60  1  0  0  0  0
 34 67  1  0  0  0  0
 34 77  2  0  0  0  0
 35 61  1  0  0  0  0
 35 72  1  0  0  0  0
 35 78  2  0  0  0  0
 36 68  1  0  0  0  0
 36 73  1  0  0  0  0
 36 79  2  0  0  0  0
 37 40  1  0  0  0  0
 38 47  1  0  0  0  0
 39 67  1  0  0  0  0
 40 42  1  0  0  0  0
 41 43  1  0  0  0  0
 41 44  1  0  0  0  0
 42 46  1  0  0  0  0
 43 48  1  0  0  0  0
 44 68  1  0  0  0  0
 45 48  1  0  0  0  0
 45 68  1  0  0  0  0
 46 71  1  0  0  0  0
 47 67  1  0  0  0  0
 48 66  1  0  0  0  0
 51 61  1  0  0  0  0
 52 62  1  0  0  0  0
 53 62  1  0  0  0  0
 54 62  1  0  0  0  0
 55 74  1  0  0  0  0
 56 58  1  0  0  0  0
 57 59  1  0  0  0  0
 58 73  1  0  0  0  0
 59 81  1  0  0  0  0
 60 62  1  0  0  0  0
 60 72  1  0  0  0  0
 61 74  1  0  0  0  0
 63 66  1  0  0  0  0
M  CHG  1  74   1
M  ISO  4  36 100  59 101  73 100  81 101
M  END
> <Batch ID>
0044

> <Smiles>
CNC(C)C(=O)NC(C(=O)N1Cc2cc([101O:1][101CH2:1]Cc3nc(C)c(CC[100NH:0][100C:0](=O)N4CCCC(n5nc(-c6ccc(Oc7ccc(F)cc7F)cc6)c(C(N)=O)c5N)C4)c(C)n3)ccc2CC1C(=O)NC1CCCc2ccccc21)C(C)(C)C

> <Shape>
0.236

> <Color>
0.072

> <Negative vol penalty>
0.000

$$$$

  -OEChem-04052317173D

 85 93  0     1  0  0  0  0  0999 V2000
  -20.0129  -34.3111   23.0491 C   0  0  0  0  0  0  0  0  0  0  0  0
  -21.3306  -33.8751   22.9532 C   0  0  0  0  0  0  0  0  0  0  0  0
  -23.2530  -13.0258   19.6617 C   0  0  0  0  0  0  0  0  0  0  0  0
  -22.5616  -14.3442   21.5646 C   0  0  0  0  0  0  0  0  0  0  0  0
  -18.9942  -33.3957   23.3103 C   0  0  0  0  0  0  0  0  0  0  0  0
  -21.6304  -32.5235   23.1197 C   0  0  0  0  0  0  0  0  0  0  0  0
  -25.9974  -29.3393   20.2395 C   0  0  0  0  0  0  0  0  0  0  0  0
  -22.3777  -12.0105   20.0470 C   0  0  0  0  0  0  0  0  0  0  0  0
  -21.6862  -13.3288   21.9499 C   0  0  0  0  0  0  0  0  0  0  0  0
  -27.2861  -28.9626   20.6154 C   0  0  0  0  0  0  0  0  0  0  0  0
  -22.3098   -9.5108   22.3211 C   0  0  0  0  0  0  0  0  0  0  0  0
  -22.7866   -8.2003   22.2940 C   0  0  0  0  0  0  0  0  0  0  0  0
  -26.4448  -26.8167   21.3271 C   0  0  0  0  0  0  0  0  0  0  0  0
  -21.0666   -7.6076   20.7041 C   0  0  0  0  0  0  0  0  0  0  0  0
  -30.2287  -24.4692   20.8424 C   0  0  0  0  0  0  0  0  0  0  0  0
  -23.3450  -14.1927   20.4205 C   0  0  0  0  0  0  0  0  0  0  0  0
  -23.9709  -16.3266   19.1707 C   0  0  0  0  0  0  0  0  0  0  0  0
  -19.2805  -32.0308   23.4705 C   0  0  0  0  0  0  0  0  0  0  0  0
  -24.9192  -28.4600   20.4150 C   0  0  0  0  0  0  0  0  0  0  0  0
  -20.6147  -31.5892   23.3847 C   0  0  0  0  0  0  0  0  0  0  0  0
  -25.1439  -27.1836   20.9502 C   0  0  0  0  0  0  0  0  0  0  0  0
  -21.5943  -12.1620   21.1911 C   0  0  0  0  0  0  0  0  0  0  0  0
  -27.5095  -27.7023   21.1619 C   0  0  0  0  0  0  0  0  0  0  0  0
  -21.2114   -9.8698   21.5398 C   0  0  0  0  0  0  0  0  0  0  0  0
  -22.1650   -7.2487   21.4855 C   0  0  0  0  0  0  0  0  0  0  0  0
  -20.5899   -8.9182   20.7313 C   0  0  0  0  0  0  0  0  0  0  0  0
  -24.2494  -15.2416   20.0233 C   0  0  0  0  0  0  0  0  0  0  0  0
  -30.7411  -25.6163   20.2074 C   0  0  0  0  0  0  0  0  0  0  0  0
  -30.1324  -23.5356   19.8396 C   0  0  0  0  0  0  0  0  0  0  0  0
  -25.1496  -17.0294   19.1131 C   0  0  0  0  0  0  0  0  0  0  0  0
  -22.7554  -16.6686   18.4915 C   0  0  0  0  0  0  0  0  0  0  0  0
  -22.2268  -28.5212   22.1034 C   0  0  0  0  0  0  0  0  0  0  0  0
  -21.6202  -25.7644   20.5051 C   0  0  0  0  0  0  0  0  0  0  0  0
  -22.8476  -23.0605   18.8231 C   0  0  0  0  0  0  0  0  0  0  0  0
  -29.6143  -19.2575   21.6126 C   0  0  0  0  0  0  0  0  0  0  0  0
  -18.1517  -31.0859   23.7984 C   0  0  0  0  0  0  0  0  0  0  0  0
  -23.5395  -28.8715   19.9797 C   0  0  0  0  0  0  0  0  0  0  0  0
  -24.0236  -26.1951   21.1405 C   0  0  0  0  0  0  0  0  0  0  0  0
  -18.5076  -29.6162   23.5902 C   0  0  0  0  0  0  0  0  0  0  0  0
  -29.7890  -15.8148   20.7216 C   0  0  0  0  0  0  0  0  0  0  0  0
  -19.8691  -29.3045   24.2034 C   0  0  0  0  0  0  0  0  0  0  0  0
  -28.3401  -15.4471   20.3965 C   0  0  0  0  0  0  0  0  0  0  0  0
  -29.8731  -16.8082   21.8783 C   0  0  0  0  0  0  0  0  0  0  0  0
  -27.6153  -17.6617   21.3809 C   0  0  0  0  0  0  0  0  0  0  0  0
  -20.9768  -30.1275   23.5346 C   0  0  1  0  0  0  0  0  0  0  0  0
  -22.4336  -28.0877   20.6797 C   0  0  1  0  0  0  0  0  0  0  0  0
  -27.4765  -16.7051   20.1843 C   0  0  2  0  0  0  0  0  0  0  0  0
  -27.1746  -22.7372   19.3148 C   0  0  0  0  0  0  0  0  0  0  0  0
  -32.0817  -23.6420   16.8317 C   0  0  0  0  0  0  0  0  0  0  0  0
  -22.1104  -20.9585   17.6674 C   0  0  0  0  0  0  0  0  0  0  0  0
  -30.7202  -21.0479   19.4158 C   0  0  0  0  0  0  0  0  0  0  0  0
  -21.1412  -24.4456   23.2146 C   0  0  0  0  0  0  0  0  0  0  0  0
  -21.3539  -22.2188   22.0902 C   0  0  0  0  0  0  0  0  0  0  0  0
  -19.5226  -23.7782   21.4288 C   0  0  0  0  0  0  0  0  0  0  0  0
  -23.9825  -23.9462   16.2372 C   0  0  0  0  0  0  0  0  0  0  0  0
  -31.0476  -26.9549   20.8338 C   0  0  0  0  0  0  0  0  0  0  0  0
  -28.3957  -21.9043   18.9340 C   0  0  0  0  0  0  0  0  0  0  0  0
  -30.6681  -23.5857   17.3850 C   0  0  0  0  0  0  0  0  0  0  0  0
  -29.1991  -21.6849   21.3049 C   0  0  0  0  0  0  0  0  0  0  0  0
  -29.8513  -27.8997   20.7974 C   0  0  0  0  0  0  0  0  0  1  0  0
  -21.9015  -24.3018   20.7514 C   0  0  1  0  0  0  0  0  0  0  0  0
  -22.4496  -22.4315   17.5000 C   0  0  2  0  0  0  0  0  0  0  0  0
  -29.6665  -22.1370   19.8599 C   0  0  2  0  0  0  0  0  0  0  0  0
  -21.0008  -23.7052   21.8696 C   0  0  0  0  0  0  0  0  0  0  0  0
  -25.5065  -15.2501   20.4749 N   0  0  0  0  0  0  0  0  0  0  0  0
  -30.9556  -25.4307   18.9021 N   0  0  0  0  0  0  0  0  0  0  0  0
  -30.5761  -24.1561   18.7089 N   0  0  0  0  0  0  0  0  0  0  0  0
  -26.0283  -16.3490   19.9037 N   0  0  0  0  0  0  0  0  0  0  0  0
  -22.6915  -26.6465   20.7054 N   0  0  0  0  0  0  0  0  0  0  0  0
  -29.0330  -17.9788   21.6137 N   0  0  0  0  0  0  0  0  0  0  0  0
  -25.5097  -18.1569   18.4638 N   0  0  0  0  0  0  0  0  0  0  0  0
  -21.6392  -15.8380   18.6604 N   0  0  0  0  0  0  0  0  0  0  0  0
  -21.3246  -29.5575   22.2506 N   0  0  0  0  0  0  0  0  0  0  0  0
  -21.7689  -23.6374   19.4593 N   0  0  0  0  0  0  0  0  0  0  0  0
  -28.7487  -20.3115   21.3468 N   0  0  0  0  0  0  0  0  0  0  0  0
  -23.5620  -22.5487   16.5153 N   0  3  0  0  0  0  0  0  0  0  0  0
  -22.6667  -17.6717   17.7435 O   0  0  0  0  0  0  0  0  0  0  0  0
  -22.8392  -27.9563   23.0020 O   0  0  0  0  0  0  0  0  0  0  0  0
  -20.4936  -26.1107   20.1413 O   0  0  0  0  0  0  0  0  0  0  0  0
  -23.9995  -23.0387   19.2512 O   0  0  0  0  0  0  0  0  0  0  0  0
  -30.8167  -19.4454   21.8269 O   0  0  0  0  0  0  0  0  0  0  0  0
  -20.7398  -11.1715   21.5673 O   0  0  0  0  0  0  0  0  0  0  0  0
  -28.7662  -27.3324   21.5302 O   0  0  0  0  0  0  0  0  0  1  0  0
  -22.6239   -5.9905   21.4584 F   0  0  0  0  0  0  0  0  0  0  0  0
  -19.5350   -9.2573   19.9776 F   0  0  0  0  0  0  0  0  0  0  0  0
  1  2  1  0  0  0  0
  1  5  2  0  0  0  0
  2  6  2  0  0  0  0
  3  8  2  0  0  0  0
  3 16  1  0  0  0  0
  4  9  1  0  0  0  0
  4 16  2  0  0  0  0
  5 18  1  0  0  0  0
  6 20  1  0  0  0  0
  7 10  2  0  0  0  0
  7 19  1  0  0  0  0
  8 22  1  0  0  0  0
  9 22  2  0  0  0  0
 10 23  1  0  0  0  0
 11 12  2  0  0  0  0
 11 24  1  0  0  0  0
 12 25  1  0  0  0  0
 13 21  1  0  0  0  0
 13 23  2  0  0  0  0
 14 25  2  0  0  0  0
 14 26  1  0  0  0  0
 15 28  1  0  0  0  0
 15 29  2  0  0  0  0
 16 27  1  0  0  0  0
 17 27  1  0  0  0  0
 17 30  2  0  0  0  0
 17 31  1  0  0  0  0
 18 20  2  0  0  0  0
 18 36  1  0  0  0  0
 19 21  2  0  0  0  0
 19 37  1  0  0  0  0
 20 45  1  0  0  0  0
 21 38  1  0  0  0  0
 22 82  1  0  0  0  0
 23 83  1  0  0  0  0
 24 26  2  0  0  0  0
 24 82  1  0  0  0  0
 25 84  1  0  0  0  0
 26 85  1  0  0  0  0
 27 65  2  0  0  0  0
 28 56  1  0  0  0  0
 28 66  2  0  0  0  0
 29 63  1  0  0  0  0
 29 67  1  0  0  0  0
 30 68  1  0  0  0  0
 30 71  1  0  0  0  0
 31 72  1  0  0  0  0
 31 77  2  0  0  0  0
 32 46  1  0  0  0  0
 32 73  1  0  0  0  0
 32 78  2  0  0  0  0
 33 61  1  0  0  0  0
 33 69  1  0  0  0  0
 33 79  2  0  0  0  0
 34 62  1  0  0  0  0
 34 74  1  0  0  0  0
 34 80  2  0  0  0  0
 35 70  1  0  0  0  0
 35 75  1  0  0  0  0
 35 81  2  0  0  0  0
 36 39  1  0  0  0  0
 37 46  1  0  0  0  0
 38 69  1  0  0  0  0
 39 41  1  0  0  0  0
 40 42  1  0  0  0  0
 40 43  1  0  0  0  0
 41 45  1  0  0  0  0
 42 47  1  0  0  0  0
 43 70  1  0  0  0  0
 44 47  1  0  0  0  0
 44 70  1  0  0  0  0
 45 73  1  0  0  0  0
 46 69  1  0  0  0  0
 47 68  1  0  0  0  0
 48 57  1  0  0  0  0
 49 58  1  0  0  0  0
 50 62  1  0  0  0  0
 51 63  1  0  0  0  0
 52 64  1  0  0  0  0
 53 64  1  0  0  0  0
 54 64  1  0  0  0  0
 55 76  1  0  0  0  0
 56 60  1  0  0  0  0
 57 63  1  0  0  0  0
 58 67  1  0  0  0  0
 59 63  1  0  0  0  0
 59 75  1  0  0  0  0
 60 83  1  0  0  0  0
 61 64  1  0  0  0  0
 61 74  1  0  0  0  0
 62 76  1  0  0  0  0
 65 68  1  0  0  0  0
 66 67  1  0  0  0  0
M  CHG  1  76   1
M  ISO  4  35 100  60 101  75 100  83 101
M  END
> <Batch ID>
0044

> <Smiles>
CCn1nc(C[101CH2:1][101O:1]c2ccc3c(c2)CN(C(=O)C(NC(=O)C(C)NC)C(C)(C)C)C(C(=O)NC2CCCc4ccccc42)C3)cc1C(C)(CC)C[100NH:0][100C:0](=O)N1CCCC(n2nc(-c3ccc(Oc4ccc(F)cc4F)cc3)c(C(N)=O)c2N)C1

> <Shape>
0.250

> <Color>
0.069

> <Negative vol penalty>
0.000

$$$$

  -OEChem-04052317173D

 80 88  0     1  0  0  0  0  0999 V2000
  -27.8212  -24.9085   16.2825 C   0  0  0  0  0  0  0  0  0  0  0  0
  -26.6294  -25.1416   16.9611 C   0  0  0  0  0  0  0  0  0  0  0  0
  -26.2213  -13.9589   20.0778 C   0  0  0  0  0  0  0  0  0  0  0  0
  -23.8071  -13.9449   20.1689 C   0  0  0  0  0  0  0  0  0  0  0  0
  -29.0341  -25.2893   16.8551 C   0  0  0  0  0  0  0  0  0  0  0  0
  -26.6498  -25.7546   18.2134 C   0  0  0  0  0  0  0  0  0  0  0  0
  -23.1210  -29.3580   18.6701 C   0  0  0  0  0  0  0  0  0  0  0  0
  -26.2567  -12.7869   20.8333 C   0  0  0  0  0  0  0  0  0  0  0  0
  -23.8424  -12.7729   20.9244 C   0  0  0  0  0  0  0  0  0  0  0  0
  -21.8114  -28.9407   18.9037 C   0  0  0  0  0  0  0  0  0  0  0  0
  -23.2861   -9.5797   22.5713 C   0  0  0  0  0  0  0  0  0  0  0  0
  -22.4044   -8.5563   22.2236 C   0  0  0  0  0  0  0  0  0  0  0  0
  -22.0820  -29.4260   21.2511 C   0  0  0  0  0  0  0  0  0  0  0  0
  -23.4032   -8.4423   20.0266 C   0  0  0  0  0  0  0  0  0  0  0  0
  -24.9965  -14.5379   19.7456 C   0  0  0  0  0  0  0  0  0  0  0  0
  -24.9056  -15.8553   17.5630 C   0  0  0  0  0  0  0  0  0  0  0  0
  -29.0687  -25.9161   18.1108 C   0  0  0  0  0  0  0  0  0  0  0  0
  -23.9258  -29.8029   19.7287 C   0  0  0  0  0  0  0  0  0  0  0  0
  -27.8643  -26.1430   18.8040 C   0  0  0  0  0  0  0  0  0  0  0  0
  -23.4006  -29.8508   21.0279 C   0  0  0  0  0  0  0  0  0  0  0  0
  -25.0672  -12.1939   21.2566 C   0  0  0  0  0  0  0  0  0  0  0  0
  -21.2926  -28.9719   20.1948 C   0  0  0  0  0  0  0  0  0  0  0  0
  -24.2262  -10.0345   21.6466 C   0  0  0  0  0  0  0  0  0  0  0  0
  -22.4630   -7.9875   20.9513 C   0  0  0  0  0  0  0  0  0  0  0  0
  -24.2848   -9.4658   20.3743 C   0  0  0  0  0  0  0  0  0  0  0  0
  -24.9594  -15.7489   18.9657 C   0  0  0  0  0  0  0  0  0  0  0  0
  -21.8773  -23.8554   21.1948 C   0  0  0  0  0  0  0  0  0  0  0  0
  -21.2025  -24.6915   20.3412 C   0  0  0  0  0  0  0  0  0  0  0  0
  -24.8878  -17.2073   17.3216 C   0  0  0  0  0  0  0  0  0  0  0  0
  -24.8744  -14.8242   16.5672 C   0  0  0  0  0  0  0  0  0  0  0  0
  -26.6530  -28.8259   21.0372 C   0  0  0  0  0  0  0  0  0  0  0  0
  -23.0623  -21.7406   20.6968 C   0  0  0  0  0  0  0  0  0  0  0  0
  -26.3525  -31.5579   22.7600 C   0  0  0  0  0  0  0  0  0  0  0  0
  -24.3027  -33.9794   24.0177 C   0  0  0  0  0  0  0  0  0  0  0  0
  -30.4073  -26.2670   18.7104 C   0  0  0  0  0  0  0  0  0  0  0  0
  -25.3277  -30.2748   19.4560 C   0  0  0  0  0  0  0  0  0  0  0  0
  -24.2168  -30.3390   22.1958 C   0  0  0  0  0  0  0  0  0  0  0  0
  -30.3145  -27.2501   19.8744 C   0  0  0  0  0  0  0  0  0  0  0  0
  -26.3405  -21.3678   19.1667 C   0  0  0  0  0  0  0  0  0  0  0  0
  -29.2134  -26.8288   20.8424 C   0  0  0  0  0  0  0  0  0  0  0  0
  -26.3571  -19.8752   18.8396 C   0  0  0  0  0  0  0  0  0  0  0  0
  -25.5922  -21.6491   20.4671 C   0  0  0  0  0  0  0  0  0  0  0  0
  -24.2134  -19.6167   20.1627 C   0  0  0  0  0  0  0  0  0  0  0  0
  -27.8435  -26.8279   20.1532 C   0  0  1  0  0  0  0  0  0  0  0  0
  -26.2258  -30.2235   20.6881 C   0  0  1  0  0  0  0  0  0  0  0  0
  -24.9325  -19.2937   18.8423 C   0  0  2  0  0  0  0  0  0  0  0  0
  -21.5218  -25.2216   19.0061 C   0  0  0  0  0  0  0  0  0  0  0  0
  -24.3417  -36.0613   25.4181 C   0  0  0  0  0  0  0  0  0  0  0  0
  -26.6575  -29.8575   25.2751 C   0  0  0  0  0  0  0  0  0  0  0  0
  -25.7543  -31.7801   26.6002 C   0  0  0  0  0  0  0  0  0  0  0  0
  -27.8874  -32.0343   25.3321 C   0  0  0  0  0  0  0  0  0  0  0  0
  -23.2596  -35.6329   21.7958 C   0  0  0  0  0  0  0  0  0  0  0  0
  -23.1847  -23.2079   21.0222 C   0  0  0  0  0  0  0  0  0  0  0  0
  -18.5977  -26.9929   21.5562 C   0  0  0  0  0  0  0  0  0  0  0  0
  -18.9128  -25.8591   20.5779 C   0  0  0  0  0  0  0  0  0  0  0  0
  -19.7354  -27.9963   21.7045 C   0  0  0  0  0  0  0  0  0  1  0  0
  -25.6995  -31.9299   24.0693 C   0  0  1  0  0  0  0  0  0  0  0  0
  -24.4091  -35.4937   24.0089 C   0  0  2  0  0  0  0  0  0  0  0  0
  -26.4847  -31.3894   25.2977 C   0  0  0  0  0  0  0  0  0  0  0  0
  -24.9749  -16.9385   19.5728 N   0  0  0  0  0  0  0  0  0  0  0  0
  -21.1410  -23.6675   22.3315 N   0  0  0  0  0  0  0  0  0  0  0  0
  -20.0177  -24.3665   22.2104 N   0  0  0  0  0  0  0  0  0  0  0  0
  -20.0565  -24.9796   21.0163 N   0  0  0  0  0  0  0  0  0  0  0  0
  -24.9307  -17.8052   18.5467 N   0  0  0  0  0  0  0  0  0  0  0  0
  -25.5840  -30.7839   21.8790 N   0  0  0  0  0  0  0  0  0  0  0  0
  -24.2501  -21.0554   20.4405 N   0  0  0  0  0  0  0  0  0  0  0  0
  -24.8399  -17.9311   16.1831 N   0  0  0  0  0  0  0  0  0  0  0  0
  -24.8988  -13.4877   16.9884 N   0  0  0  0  0  0  0  0  0  0  0  0
  -27.3400  -28.1789   20.0278 N   0  0  0  0  0  0  0  0  0  0  0  0
  -25.5442  -33.3803   24.0505 N   0  0  0  0  0  0  0  0  0  0  0  0
  -23.2994  -36.0863   23.2099 N   0  3  0  0  0  0  0  0  0  0  0  0
  -24.8429  -15.0806   15.3397 O   0  0  0  0  0  0  0  0  0  0  0  0
  -26.3807  -28.3689   22.1412 O   0  0  0  0  0  0  0  0  0  0  0  0
  -21.9434  -21.2215   20.6691 O   0  0  0  0  0  0  0  0  0  0  0  0
  -27.4995  -31.9461   22.5245 O   0  0  0  0  0  0  0  0  0  0  0  0
  -23.2259  -33.3872   24.0011 O   0  0  0  0  0  0  0  0  0  0  0  0
  -25.1013  -11.0501   21.9936 O   0  0  0  0  0  0  0  0  0  0  0  0
  -20.0149  -28.5646   20.4257 O   0  0  0  0  0  0  0  0  0  1  0  0
  -21.6174   -7.0037   20.6180 F   0  0  0  0  0  0  0  0  0  0  0  0
  -25.1866   -9.8978   19.4822 F   0  0  0  0  0  0  0  0  0  0  0  0
  1  2  1  0  0  0  0
  1  5  2  0  0  0  0
  2  6  2  0  0  0  0
  3  8  2  0  0  0  0
  3 15  1  0  0  0  0
  4  9  1  0  0  0  0
  4 15  2  0  0  0  0
  5 17  1  0  0  0  0
  6 19  1  0  0  0  0
  7 10  2  0  0  0  0
  7 18  1  0  0  0  0
  8 21  1  0  0  0  0
  9 21  2  0  0  0  0
 10 22  1  0  0  0  0
 11 12  2  0  0  0  0
 11 23  1  0  0  0  0
 12 24  1  0  0  0  0
 13 20  1  0  0  0  0
 13 22  2  0  0  0  0
 14 24  2  0  0  0  0
 14 25  1  0  0  0  0
 15 26  1  0  0  0  0
 16 26  1  0  0  0  0
 16 29  2  0  0  0  0
 16 30  1  0  0  0  0
 17 19  2  0  0  0  0
 17 35  1  0  0  0  0
 18 20  2  0  0  0  0
 18 36  1  0  0  0  0
 19 44  1  0  0  0  0
 20 37  1  0  0  0  0
 21 77  1  0  0  0  0
 22 78  1  0  0  0  0
 23 25  2  0  0  0  0
 23 77  1  0  0  0  0
 24 79  1  0  0  0  0
 25 80  1  0  0  0  0
 26 60  2  0  0  0  0
 27 28  2  0  0  0  0
 27 53  1  0  0  0  0
 27 61  1  0  0  0  0
 28 47  1  0  0  0  0
 28 63  1  0  0  0  0
 29 64  1  0  0  0  0
 29 67  1  0  0  0  0
 30 68  1  0  0  0  0
 30 72  2  0  0  0  0
 31 45  1  0  0  0  0
 31 69  1  0  0  0  0
 31 73  2  0  0  0  0
 32 53  1  0  0  0  0
 32 66  1  0  0  0  0
 32 74  2  0  0  0  0
 33 57  1  0  0  0  0
 33 65  1  0  0  0  0
 33 75  2  0  0  0  0
 34 58  1  0  0  0  0
 34 70  1  0  0  0  0
 34 76  2  0  0  0  0
 35 38  1  0  0  0  0
 36 45  1  0  0  0  0
 37 65  1  0  0  0  0
 38 40  1  0  0  0  0
 39 41  1  0  0  0  0
 39 42  1  0  0  0  0
 40 44  1  0  0  0  0
 41 46  1  0  0  0  0
 42 66  1  0  0  0  0
 43 46  1  0  0  0  0
 43 66  1  0  0  0  0
 44 69  1  0  0  0  0
 45 65  1  0  0  0  0
 46 64  1  0  0  0  0
 48 58  1  0  0  0  0
 49 59  1  0  0  0  0
 50 59  1  0  0  0  0
 51 59  1  0  0  0  0
 52 71  1  0  0  0  0
 54 55  1  0  0  0  0
 54 56  1  0  0  0  0
 55 63  1  0  0  0  0
 56 78  1  0  0  0  0
 57 59  1  0  0  0  0
 57 70  1  0  0  0  0
 58 71  1  0  0  0  0
 60 64  1  0  0  0  0
 61 62  2  0  0  0  0
 62 63  1  0  0  0  0
M  CHG  1  71   1
M  ISO  4  32 100  53 100  56 101  78 101
M  END
> <Batch ID>
0044

> <Smiles>
CNC(C)C(=O)NC(C(=O)N1Cc2cc([101O:1][101CH2:1]CCn3nnc([100CH2:0][100C:0](=O)N4CCCC(n5nc(-c6ccc(Oc7ccc(F)cc7F)cc6)c(C(N)=O)c5N)C4)c3C)ccc2CC1C(=O)NC1CCCc2ccccc21)C(C)(C)C

> <Shape>
0.274

> <Color>
0.085

> <Negative vol penalty>
0.000

$$$$

  -OEChem-04052317173D

 81 89  0     1  0  0  0  0  0999 V2000
  -23.6205  -22.5043   18.4037 C   0  0  0  0  0  0  0  0  0  0  0  0
  -24.5969  -21.6690   17.8704 C   0  0  0  0  0  0  0  0  0  0  0  0
  -25.4703  -26.7081   20.7974 C   0  0  0  0  0  0  0  0  0  0  0  0
  -26.6328  -26.6976   22.9153 C   0  0  0  0  0  0  0  0  0  0  0  0
  -23.1098  -22.2538   19.6766 C   0  0  0  0  0  0  0  0  0  0  0  0
  -25.0640  -20.5833   18.6103 C   0  0  0  0  0  0  0  0  0  0  0  0
  -27.5176  -13.9042   17.7818 C   0  0  0  0  0  0  0  0  0  0  0  0
  -24.3826  -27.3424   21.3975 C   0  0  0  0  0  0  0  0  0  0  0  0
  -25.5451  -27.3320   23.5155 C   0  0  0  0  0  0  0  0  0  0  0  0
  -28.5985  -13.1013   18.1433 C   0  0  0  0  0  0  0  0  0  0  0  0
  -21.4461  -29.2890   22.2933 C   0  0  0  0  0  0  0  0  0  0  0  0
  -20.8690  -30.3645   21.6180 C   0  0  0  0  0  0  0  0  0  0  0  0
  -27.5863  -12.7197   20.2994 C   0  0  0  0  0  0  0  0  0  0  0  0
  -22.9744  -31.5466   21.7015 C   0  0  0  0  0  0  0  0  0  0  0  0
  -30.9242  -13.9975   21.8863 C   0  0  0  0  0  0  0  0  0  0  0  0
  -32.3004  -15.9806   20.7459 C   0  0  0  0  0  0  0  0  0  0  0  0
  -26.5954  -26.3856   21.5563 C   0  0  0  0  0  0  0  0  0  0  0  0
  -28.8317  -26.3421   20.3296 C   0  0  0  0  0  0  0  0  0  0  0  0
  -23.5639  -21.1589   20.4286 C   0  0  0  0  0  0  0  0  0  0  0  0
  -26.4664  -14.1301   18.6820 C   0  0  0  0  0  0  0  0  0  0  0  0
  -24.5598  -20.3187   19.8950 C   0  0  0  0  0  0  0  0  0  0  0  0
  -26.4920  -13.5238   19.9461 C   0  0  0  0  0  0  0  0  0  0  0  0
  -24.4200  -27.6544   22.7566 C   0  0  0  0  0  0  0  0  0  0  0  0
  -28.6344  -12.5112   19.4033 C   0  0  0  0  0  0  0  0  0  0  0  0
  -22.7873  -29.3424   22.6728 C   0  0  0  0  0  0  0  0  0  0  0  0
  -21.6331  -31.4933   21.3221 C   0  0  0  0  0  0  0  0  0  0  0  0
  -23.5514  -30.4712   22.3769 C   0  0  0  0  0  0  0  0  0  0  0  0
  -27.7190  -25.7299   20.9370 C   0  0  0  0  0  0  0  0  0  0  0  0
  -31.7757  -13.7564   20.8307 C   0  0  0  0  0  0  0  0  0  0  0  0
  -31.4483  -16.2219   21.8010 C   0  0  0  0  0  0  0  0  0  0  0  0
  -29.6079  -25.2939   19.8993 C   0  0  0  0  0  0  0  0  0  0  0  0
  -29.1363  -27.7339   20.1688 C   0  0  0  0  0  0  0  0  0  0  0  0
  -25.2496  -16.6951   20.1117 C   0  0  0  0  0  0  0  0  0  0  0  0
  -23.0159  -14.5803   21.1416 C   0  0  0  0  0  0  0  0  0  0  0  0
  -22.1971  -11.3419   21.8410 C   0  0  0  0  0  0  0  0  0  0  0  0
  -30.1123  -19.7298   21.8076 C   0  0  0  0  0  0  0  0  0  0  0  0
  -23.0161  -20.9559   21.8190 C   0  0  0  0  0  0  0  0  0  0  0  0
  -25.2947  -14.9772   18.2671 C   0  0  0  0  0  0  0  0  0  0  0  0
  -25.3787  -13.7184   20.9416 C   0  0  0  0  0  0  0  0  0  0  0  0
  -23.2945  -19.5664   22.3866 C   0  0  0  0  0  0  0  0  0  0  0  0
  -29.2847  -20.7487   18.4350 C   0  0  0  0  0  0  0  0  0  0  0  0
  -24.7510  -19.1770   22.1546 C   0  0  0  0  0  0  0  0  0  0  0  0
  -28.8934  -22.2123   18.6468 C   0  0  0  0  0  0  0  0  0  0  0  0
  -28.8155  -19.8774   19.5964 C   0  0  0  0  0  0  0  0  0  0  0  0
  -28.9011  -21.7894   21.1490 C   0  0  0  0  0  0  0  0  0  0  0  0
  -25.0741  -19.1165   20.6568 C   0  0  1  0  0  0  0  0  0  0  0  0
  -24.5264  -15.5555   19.4514 C   0  0  1  0  0  0  0  0  0  0  0  0
  -29.3670  -22.7260   20.0194 C   0  0  2  0  0  0  0  0  0  0  0  0
  -20.3110   -9.9292   22.7038 C   0  0  0  0  0  0  0  0  0  0  0  0
  -31.4138  -10.8344   18.3585 C   0  0  0  0  0  0  0  0  0  0  0  0
  -23.6045  -15.5323   23.9802 C   0  0  0  0  0  0  0  0  0  0  0  0
  -22.4388  -13.4873   24.8331 C   0  0  0  0  0  0  0  0  0  0  0  0
  -21.1808  -15.1666   23.4840 C   0  0  0  0  0  0  0  0  0  0  0  0
  -22.0424   -9.8024   19.3182 C   0  0  0  0  0  0  0  0  0  0  0  0
  -31.9518  -12.3564   20.2916 C   0  0  0  0  0  0  0  0  0  0  0  0
  -31.2751  -17.6016   22.3325 C   0  0  0  0  0  0  0  0  0  0  0  0
  -22.8732  -13.6757   22.3418 C   0  0  1  0  0  0  0  0  0  0  0  0
  -20.9855  -10.5064   21.4690 C   0  0  2  0  0  0  0  0  0  0  0  0
  -30.9534  -12.0358   19.1742 C   0  0  2  0  0  0  0  0  0  1  0  0
  -22.5464  -14.4632   23.6419 C   0  0  0  0  0  0  0  0  0  0  0  0
  -32.4794  -14.7435   20.2417 N   0  0  0  0  0  0  0  0  0  0  0  0
  -30.7450  -15.2346   22.3902 N   0  0  0  0  0  0  0  0  0  0  0  0
  -27.7792  -24.3961   20.8979 N   0  0  0  0  0  0  0  0  0  0  0  0
  -28.9390  -24.1617   20.2607 N   0  0  0  0  0  0  0  0  0  0  0  0
  -24.2580  -14.5603   20.4914 N   0  0  0  0  0  0  0  0  0  0  0  0
  -29.3156  -20.4101   20.8717 N   0  0  0  0  0  0  0  0  0  0  0  0
  -30.7906  -25.2395   19.2506 N   0  0  0  0  0  0  0  0  0  0  0  0
  -28.2302  -28.6784   20.6700 N   0  0  0  0  0  0  0  0  0  0  0  0
  -24.5614  -17.8930   20.0783 N   0  0  0  0  0  0  0  0  0  0  0  0
  -21.8744  -12.6750   21.9822 N   0  0  0  0  0  0  0  0  0  0  0  0
  -30.4552  -18.4257   21.4725 N   0  0  0  0  0  0  0  0  0  0  0  0
  -21.3869   -9.3781   20.5820 N   0  3  0  0  0  0  0  0  0  0  0  0
  -30.1731  -28.1283   19.5831 O   0  0  0  0  0  0  0  0  0  0  0  0
  -26.3497  -16.5016   20.6155 O   0  0  0  0  0  0  0  0  0  0  0  0
  -22.0583  -15.2736   20.7897 O   0  0  0  0  0  0  0  0  0  0  0  0
  -23.3170  -10.8596   21.9950 O   0  0  0  0  0  0  0  0  0  0  0  0
  -30.4946  -20.2484   22.8622 O   0  0  0  0  0  0  0  0  0  0  0  0
  -23.3590  -28.2736   23.3425 O   0  0  0  0  0  0  0  0  0  0  0  0
  -29.6886  -11.7276   19.7589 O   0  0  0  0  0  0  0  0  0  1  0  0
  -21.0793  -32.5253   20.6723 F   0  0  0  0  0  0  0  0  0  0  0  0
  -24.8408  -30.5278   22.7378 F   0  0  0  0  0  0  0  0  0  0  0  0
  1  2  1  0  0  0  0
  1  5  2  0  0  0  0
  2  6  2  0  0  0  0
  3  8  2  0  0  0  0
  3 17  1  0  0  0  0
  4  9  1  0  0  0  0
  4 17  2  0  0  0  0
  5 19  1  0  0  0  0
  6 21  1  0  0  0  0
  7 10  2  0  0  0  0
  7 20  1  0  0  0  0
  8 23  1  0  0  0  0
  9 23  2  0  0  0  0
 10 24  1  0  0  0  0
 11 12  2  0  0  0  0
 11 25  1  0  0  0  0
 12 26  1  0  0  0  0
 13 22  1  0  0  0  0
 13 24  2  0  0  0  0
 14 26  2  0  0  0  0
 14 27  1  0  0  0  0
 15 29  1  0  0  0  0
 15 62  2  0  0  0  0
 16 30  2  0  0  0  0
 16 61  1  0  0  0  0
 17 28  1  0  0  0  0
 18 28  1  0  0  0  0
 18 31  2  0  0  0  0
 18 32  1  0  0  0  0
 19 21  2  0  0  0  0
 19 37  1  0  0  0  0
 20 22  2  0  0  0  0
 20 38  1  0  0  0  0
 21 46  1  0  0  0  0
 22 39  1  0  0  0  0
 23 78  1  0  0  0  0
 24 79  1  0  0  0  0
 25 27  2  0  0  0  0
 25 78  1  0  0  0  0
 26 80  1  0  0  0  0
 27 81  1  0  0  0  0
 28 63  2  0  0  0  0
 29 55  1  0  0  0  0
 29 61  2  0  0  0  0
 30 56  1  0  0  0  0
 30 62  1  0  0  0  0
 31 64  1  0  0  0  0
 31 67  1  0  0  0  0
 32 68  1  0  0  0  0
 32 73  2  0  0  0  0
 33 47  1  0  0  0  0
 33 69  1  0  0  0  0
 33 74  2  0  0  0  0
 34 57  1  0  0  0  0
 34 65  1  0  0  0  0
 34 75  2  0  0  0  0
 35 58  1  0  0  0  0
 35 70  1  0  0  0  0
 35 76  2  0  0  0  0
 36 66  1  0  0  0  0
 36 71  1  0  0  0  0
 36 77  2  0  0  0  0
 37 40  1  0  0  0  0
 38 47  1  0  0  0  0
 39 65  1  0  0  0  0
 40 42  1  0  0  0  0
 41 43  1  0  0  0  0
 41 44  1  0  0  0  0
 42 46  1  0  0  0  0
 43 48  1  0  0  0  0
 44 66  1  0  0  0  0
 45 48  1  0  0  0  0
 45 66  1  0  0  0  0
 46 69  1  0  0  0  0
 47 65  1  0  0  0  0
 48 64  1  0  0  0  0
 49 58  1  0  0  0  0
 50 59  1  0  0  0  0
 51 60  1  0  0  0  0
 52 60  1  0  0  0  0
 53 60  1  0  0  0  0
 54 72  1  0  0  0  0
 55 59  1  0  0  0  0
 56 71  1  0  0  0  0
 57 60  1  0  0  0  0
 57 70  1  0  0  0  0
 58 72  1  0  0  0  0
 59 79  1  0  0  0  0
 63 64  1  0  0  0  0
M  CHG  1  72   1
M  ISO  4  36 100  59 101  71 100  79 101
M  END
> <Batch ID>
0044

> <Smiles>
CNC(C)C(=O)NC(C(=O)N1Cc2cc([101O:1][101CH:1](C)Cc3cnc(C[100NH:0][100C:0](=O)N4CCCC(n5nc(-c6ccc(Oc7ccc(F)cc7F)cc6)c(C(N)=O)c5N)C4)cn3)ccc2CC1C(=O)NC1CCCc2ccccc21)C(C)(C)C

> <Shape>
0.261

> <Color>
0.075

> <Negative vol penalty>
0.000

$$$$

  -OEChem-04052317173D

 83 91  0     1  0  0  0  0  0999 V2000
  -21.6370  -11.9588   20.4704 C   0  0  0  0  0  0  0  0  0  0  0  0
  -21.5147  -13.2477   20.9795 C   0  0  0  0  0  0  0  0  0  0  0  0
  -25.0594  -28.5329   19.4320 C   0  0  0  0  0  0  0  0  0  0  0  0
  -25.8862  -26.9385   21.0480 C   0  0  0  0  0  0  0  0  0  0  0  0
  -22.9015  -11.4192   20.2384 C   0  0  0  0  0  0  0  0  0  0  0  0
  -22.6570  -13.9974   21.2579 C   0  0  0  0  0  0  0  0  0  0  0  0
  -23.3229  -20.0552   20.6528 C   0  0  0  0  0  0  0  0  0  0  0  0
  -26.3142  -29.1405   19.3894 C   0  0  0  0  0  0  0  0  0  0  0  0
  -27.1410  -27.5460   21.0054 C   0  0  0  0  0  0  0  0  0  0  0  0
  -23.2504  -21.1030   21.5697 C   0  0  0  0  0  0  0  0  0  0  0  0
  -29.8359  -27.5519   18.9662 C   0  0  0  0  0  0  0  0  0  0  0  0
  -30.9536  -26.7218   18.8809 C   0  0  0  0  0  0  0  0  0  0  0  0
  -25.6495  -21.0468   21.8145 C   0  0  0  0  0  0  0  0  0  0  0  0
  -22.3138  -22.9652   25.4724 C   0  0  0  0  0  0  0  0  0  0  0  0
  -31.7802  -27.6208   20.9656 C   0  0  0  0  0  0  0  0  0  0  0  0
  -23.7607  -21.6756   26.8507 C   0  0  0  0  0  0  0  0  0  0  0  0
  -24.8453  -27.4319   20.2613 C   0  0  0  0  0  0  0  0  0  0  0  0
  -23.0883  -25.7469   19.4990 C   0  0  0  0  0  0  0  0  0  0  0  0
  -24.0597  -12.1662   20.5051 C   0  0  0  0  0  0  0  0  0  0  0  0
  -24.5604  -19.4871   20.3176 C   0  0  0  0  0  0  0  0  0  0  0  0
  -23.9382  -13.4668   21.0306 C   0  0  0  0  0  0  0  0  0  0  0  0
  -25.7353  -19.9936   20.8912 C   0  0  0  0  0  0  0  0  0  0  0  0
  -23.6052  -22.6570   25.8850 C   0  0  0  0  0  0  0  0  0  0  0  0
  -21.2324  -22.2923   26.0302 C   0  0  0  0  0  0  0  0  0  0  0  0
  -27.3551  -28.6470   20.1761 C   0  0  0  0  0  0  0  0  0  0  0  0
  -24.4135  -21.5971   22.1528 C   0  0  0  0  0  0  0  0  0  0  0  0
  -29.6903  -28.4165   20.0511 C   0  0  0  0  0  0  0  0  0  0  0  0
  -31.9257  -26.7562   19.8806 C   0  0  0  0  0  0  0  0  0  0  0  0
  -30.6625  -28.4509   21.0508 C   0  0  0  0  0  0  0  0  0  0  0  0
  -23.5492  -26.8042   20.3061 C   0  0  0  0  0  0  0  0  0  0  0  0
  -21.4941  -21.3271   26.9892 C   0  0  0  0  0  0  0  0  0  0  0  0
  -21.8049  -25.5188   19.9318 C   0  0  0  0  0  0  0  0  0  0  0  0
  -23.7602  -25.0346   18.4517 C   0  0  0  0  0  0  0  0  0  0  0  0
  -25.8537  -16.5977   20.6049 C   0  0  0  0  0  0  0  0  0  0  0  0
  -28.2639  -17.9335   18.8936 C   0  0  0  0  0  0  0  0  0  0  0  0
  -29.9168  -20.7622   17.9379 C   0  0  0  0  0  0  0  0  0  0  0  0
  -19.0134  -26.5364   25.1301 C   0  0  0  0  0  0  0  0  0  0  0  0
  -25.4056  -11.5230   20.2827 C   0  0  0  0  0  0  0  0  0  0  0  0
  -24.6242  -18.3751   19.3067 C   0  0  0  0  0  0  0  0  0  0  0  0
  -27.0905  -19.4321   20.5498 C   0  0  0  0  0  0  0  0  0  0  0  0
  -26.5601  -12.5212   20.2519 C   0  0  0  0  0  0  0  0  0  0  0  0
  -18.0708  -27.7538   21.9198 C   0  0  0  0  0  0  0  0  0  0  0  0
  -26.4477  -13.5033   21.4136 C   0  0  0  0  0  0  0  0  0  0  0  0
  -19.3263  -27.5530   21.0694 C   0  0  0  0  0  0  0  0  0  0  0  0
  -18.4173  -28.1548   23.3519 C   0  0  0  0  0  0  0  0  0  0  0  0
  -20.6136  -27.0489   23.1877 C   0  0  0  0  0  0  0  0  0  0  0  0
  -25.1533  -14.3204   21.3220 C   0  0  1  0  0  0  0  0  0  0  0  0
  -25.8886  -17.5301   19.4271 C   0  0  1  0  0  0  0  0  0  0  0  0
  -20.3165  -26.5890   21.7502 C   0  0  2  0  0  0  0  0  0  0  0  0
  -20.3716  -20.5715   27.6223 C   0  0  0  0  0  0  0  0  0  0  0  0
  -31.8707  -21.5332   16.5649 C   0  0  0  0  0  0  0  0  0  0  0  0
  -30.1695  -17.0028   21.0873 C   0  0  0  0  0  0  0  0  0  0  0  0
  -31.8836  -18.5814   20.1716 C   0  0  0  0  0  0  0  0  0  0  0  0
  -31.0350  -16.7082   18.7595 C   0  0  0  0  0  0  0  0  0  0  0  0
  -28.1795  -22.3566   16.1495 C   0  0  0  0  0  0  0  0  0  0  0  0
  -24.8006  -23.3682   25.2989 C   0  0  0  0  0  0  0  0  0  0  0  0
  -19.8459  -22.6189   25.5939 C   0  0  0  0  0  0  0  0  0  0  0  0
  -19.0708  -23.5373   26.5604 C   0  0  0  0  0  0  0  0  0  0  0  0
  -19.7463  -24.8807   26.8274 C   0  0  0  0  0  0  0  0  0  0  0  0
  -25.3476  -22.6613   24.0635 C   0  0  0  0  0  0  0  0  0  1  0  0
  -29.5294  -18.6829   19.2343 C   0  0  1  0  0  0  0  0  0  0  0  0
  -30.3769  -21.2483   16.5753 C   0  0  2  0  0  0  0  0  0  0  0  0
  -30.6288  -17.7533   19.8213 C   0  0  0  0  0  0  0  0  0  0  0  0
  -22.7347  -21.0003   27.4155 N   0  0  0  0  0  0  0  0  0  0  0  0
  -22.6330  -27.2192   21.1850 N   0  0  0  0  0  0  0  0  0  0  0  0
  -21.5835  -26.4185   20.9326 N   0  0  0  0  0  0  0  0  0  0  0  0
  -27.1002  -18.3415   19.5607 N   0  0  0  0  0  0  0  0  0  0  0  0
  -19.3586  -27.1991   23.9407 N   0  0  0  0  0  0  0  0  0  0  0  0
  -20.8553  -24.6384   19.5500 N   0  0  0  0  0  0  0  0  0  0  0  0
  -25.0765  -25.3972   18.1349 N   0  0  0  0  0  0  0  0  0  0  0  0
  -25.2858  -15.3678   20.3321 N   0  0  0  0  0  0  0  0  0  0  0  0
  -29.9272  -19.3858   18.0194 N   0  0  0  0  0  0  0  0  0  0  0  0
  -19.9593  -25.6427   25.6171 N   0  0  0  0  0  0  0  0  0  0  0  0
  -29.6573  -22.4985   16.2012 N   0  3  0  0  0  0  0  0  0  0  0  0
  -23.2041  -24.1151   17.8046 O   0  0  0  0  0  0  0  0  0  0  0  0
  -26.3096  -16.9663   21.6810 O   0  0  0  0  0  0  0  0  0  0  0  0
  -28.3051  -17.0245   18.0607 O   0  0  0  0  0  0  0  0  0  0  0  0
  -29.5851  -21.5271   18.8409 O   0  0  0  0  0  0  0  0  0  0  0  0
  -17.9393  -26.7231   25.7119 O   0  0  0  0  0  0  0  0  0  0  0  0
  -28.5797  -29.2395   20.1347 O   0  0  0  0  0  0  0  0  0  0  0  0
  -24.3454  -22.6193   23.0485 O   0  0  0  0  0  0  0  0  0  1  0  0
  -32.9982  -25.9579   19.7994 F   0  0  0  0  0  0  0  0  0  0  0  0
  -30.5276  -29.2786   22.0960 F   0  0  0  0  0  0  0  0  0  0  0  0
  1  2  1  0  0  0  0
  1  5  2  0  0  0  0
  2  6  2  0  0  0  0
  3  8  2  0  0  0  0
  3 17  1  0  0  0  0
  4  9  1  0  0  0  0
  4 17  2  0  0  0  0
  5 19  1  0  0  0  0
  6 21  1  0  0  0  0
  7 10  2  0  0  0  0
  7 20  1  0  0  0  0
  8 25  1  0  0  0  0
  9 25  2  0  0  0  0
 10 26  1  0  0  0  0
 11 12  2  0  0  0  0
 11 27  1  0  0  0  0
 12 28  1  0  0  0  0
 13 22  1  0  0  0  0
 13 26  2  0  0  0  0
 14 23  2  0  0  0  0
 14 24  1  0  0  0  0
 15 28  2  0  0  0  0
 15 29  1  0  0  0  0
 16 23  1  0  0  0  0
 16 64  2  0  0  0  0
 17 30  1  0  0  0  0
 18 30  1  0  0  0  0
 18 32  2  0  0  0  0
 18 33  1  0  0  0  0
 19 21  2  0  0  0  0
 19 38  1  0  0  0  0
 20 22  2  0  0  0  0
 20 39  1  0  0  0  0
 21 47  1  0  0  0  0
 22 40  1  0  0  0  0
 23 56  1  0  0  0  0
 24 31  2  0  0  0  0
 24 57  1  0  0  0  0
 25 80  1  0  0  0  0
 26 81  1  0  0  0  0
 27 29  2  0  0  0  0
 27 80  1  0  0  0  0
 28 82  1  0  0  0  0
 29 83  1  0  0  0  0
 30 65  2  0  0  0  0
 31 50  1  0  0  0  0
 31 64  1  0  0  0  0
 32 66  1  0  0  0  0
 32 69  1  0  0  0  0
 33 70  1  0  0  0  0
 33 75  2  0  0  0  0
 34 48  1  0  0  0  0
 34 71  1  0  0  0  0
 34 76  2  0  0  0  0
 35 61  1  0  0  0  0
 35 67  1  0  0  0  0
 35 77  2  0  0  0  0
 36 62  1  0  0  0  0
 36 72  1  0  0  0  0
 36 78  2  0  0  0  0
 37 68  1  0  0  0  0
 37 73  1  0  0  0  0
 37 79  2  0  0  0  0
 38 41  1  0  0  0  0
 39 48  1  0  0  0  0
 40 67  1  0  0  0  0
 41 43  1  0  0  0  0
 42 44  1  0  0  0  0
 42 45  1  0  0  0  0
 43 47  1  0  0  0  0
 44 49  1  0  0  0  0
 45 68  1  0  0  0  0
 46 49  1  0  0  0  0
 46 68  1  0  0  0  0
 47 71  1  0  0  0  0
 48 67  1  0  0  0  0
 49 66  1  0  0  0  0
 51 62  1  0  0  0  0
 52 63  1  0  0  0  0
 53 63  1  0  0  0  0
 54 63  1  0  0  0  0
 55 74  1  0  0  0  0
 56 60  1  0  0  0  0
 57 58  1  0  0  0  0
 58 59  1  0  0  0  0
 59 73  1  0  0  0  0
 60 81  1  0  0  0  0
 61 63  1  0  0  0  0
 61 72  1  0  0  0  0
 62 74  1  0  0  0  0
 65 66  1  0  0  0  0
M  CHG  1  74   1
M  ISO  4  37 100  60 101  73 100  81 101
M  END
> <Batch ID>
0044

> <Smiles>
CNC(C)C(=O)NC(C(=O)N1Cc2cc([101O:1][101CH2:1]Cc3cnc(C)c(CCC[100NH:0][100C:0](=O)N4CCCC(n5nc(-c6ccc(Oc7ccc(F)cc7F)cc6)c(C(N)=O)c5N)C4)c3)ccc2CC1C(=O)NC1CCCc2ccccc21)C(C)(C)C

> <Shape>
0.197

> <Color>
0.077

> <Negative vol penalty>
0.000

$$$$

  -OEChem-04052317173D

 89 97  0     1  0  0  0  0  0999 V2000
  -28.4413  -12.0557   22.6727 C   0  0  0  0  0  0  0  0  0  0  0  0
  -28.7711  -13.1740   21.9138 C   0  0  0  0  0  0  0  0  0  0  0  0
  -19.7191  -26.8920   21.6172 C   0  0  0  0  0  0  0  0  0  0  0  0
  -20.0963  -27.7370   23.8489 C   0  0  0  0  0  0  0  0  0  0  0  0
  -27.1762  -11.4820   22.5532 C   0  0  0  0  0  0  0  0  0  0  0  0
  -27.8363  -13.7187   21.0341 C   0  0  0  0  0  0  0  0  0  0  0  0
  -27.6103  -18.7695   21.3220 C   0  0  0  0  0  0  0  0  0  0  0  0
  -18.3464  -26.8570   21.8624 C   0  0  0  0  0  0  0  0  0  0  0  0
  -18.7236  -27.7020   24.0942 C   0  0  0  0  0  0  0  0  0  0  0  0
  -28.6194  -19.4895   20.6840 C   0  0  0  0  0  0  0  0  0  0  0  0
  -15.2879  -28.1766   25.1844 C   0  0  0  0  0  0  0  0  0  0  0  0
  -14.7116  -29.2826   25.8090 C   0  0  0  0  0  0  0  0  0  0  0  0
  -27.1417  -19.8989   18.8218 C   0  0  0  0  0  0  0  0  0  0  0  0
  -15.4359  -30.6905   23.9840 C   0  0  0  0  0  0  0  0  0  0  0  0
  -20.5941  -27.3319   22.6104 C   0  0  0  0  0  0  0  0  0  0  0  0
  -22.7543  -28.4397   21.8268 C   0  0  0  0  0  0  0  0  0  0  0  0
  -26.2221  -12.0257   21.6787 C   0  0  0  0  0  0  0  0  0  0  0  0
  -26.3607  -18.5994   20.7088 C   0  0  0  0  0  0  0  0  0  0  0  0
  -26.5577  -13.1509   20.9018 C   0  0  0  0  0  0  0  0  0  0  0  0
  -26.1175  -19.1785   19.4552 C   0  0  0  0  0  0  0  0  0  0  0  0
  -31.9375  -23.6376   18.0675 C   0  0  0  0  0  0  0  0  0  0  0  0
  -17.8487  -27.2621   23.1009 C   0  0  0  0  0  0  0  0  0  0  0  0
  -28.3862  -20.0518   19.4324 C   0  0  0  0  0  0  0  0  0  0  0  0
  -15.9383  -28.3275   23.9597 C   0  0  0  0  0  0  0  0  0  0  0  0
  -14.7855  -30.5396   25.2088 C   0  0  0  0  0  0  0  0  0  0  0  0
  -16.0122  -29.5844   23.3595 C   0  0  0  0  0  0  0  0  0  0  0  0
  -22.0122  -27.3677   22.3579 C   0  0  0  0  0  0  0  0  0  0  0  0
  -32.1661  -24.6765   18.9466 C   0  0  0  0  0  0  0  0  0  0  0  0
  -30.6223  -23.2385   17.9441 C   0  0  0  0  0  0  0  0  0  0  0  0
  -24.0463  -27.9755   21.7851 C   0  0  0  0  0  0  0  0  0  0  0  0
  -29.9527  -24.8062   19.4477 C   0  0  0  0  0  0  0  0  0  0  0  0
  -22.3150  -29.7389   21.4087 C   0  0  0  0  0  0  0  0  0  0  0  0
  -24.6776  -16.0974   19.7032 C   0  0  0  0  0  0  0  0  0  0  0  0
  -22.3969  -18.3407   19.1663 C   0  0  0  0  0  0  0  0  0  0  0  0
  -21.6358  -21.6138   18.5715 C   0  0  0  0  0  0  0  0  0  0  0  0
  -28.2705  -25.4438   24.1712 C   0  0  0  0  0  0  0  0  0  0  0  0
  -24.8838  -11.3425   21.5487 C   0  0  0  0  0  0  0  0  0  0  0  0
  -25.2739  -17.8427   21.4221 C   0  0  0  0  0  0  0  0  0  0  0  0
  -24.7867  -19.0421   18.7633 C   0  0  0  0  0  0  0  0  0  0  0  0
  -23.8229  -12.2052   20.8702 C   0  0  0  0  0  0  0  0  0  0  0  0
  -25.8962  -23.3156   22.4591 C   0  0  0  0  0  0  0  0  0  0  0  0
  -24.3896  -12.8584   19.6136 C   0  0  0  0  0  0  0  0  0  0  0  0
  -24.7292  -24.2793   22.2367 C   0  0  0  0  0  0  0  0  0  0  0  0
  -26.5647  -23.5592   23.8089 C   0  0  0  0  0  0  0  0  0  0  0  0
  -25.8674  -25.9229   23.7997 C   0  0  0  0  0  0  0  0  0  0  0  0
  -25.5624  -13.7855   19.9548 C   0  0  1  0  0  0  0  0  0  0  0  0
  -24.2077  -17.2962   20.4777 C   0  0  1  0  0  0  0  0  0  0  0  0
  -25.1638  -25.7425   22.4423 C   0  0  2  0  0  0  0  0  0  0  0  0
  -33.0371  -22.9917   17.3017 C   0  0  0  0  0  0  0  0  0  0  0  0
  -28.8501  -25.4570   20.2120 C   0  0  0  0  0  0  0  0  0  0  0  0
  -20.2048  -23.6476   18.2346 C   0  0  0  0  0  0  0  0  0  0  0  0
  -22.2215  -17.2972   16.3045 C   0  0  0  0  0  0  0  0  0  0  0  0
  -21.0133  -19.4008   15.6855 C   0  0  0  0  0  0  0  0  0  0  0  0
  -20.0171  -17.8375   17.3547 C   0  0  0  0  0  0  0  0  0  0  0  0
  -21.5596  -22.1838   21.4746 C   0  0  0  0  0  0  0  0  0  0  0  0
  -34.8744  -26.2652   22.3115 C   0  0  0  0  0  0  0  0  0  0  0  0
  -33.5504  -25.1939   19.1621 C   0  0  0  0  0  0  0  0  0  0  0  0
  -30.2493  -22.1106   17.0129 C   0  0  0  0  0  0  0  0  0  0  0  0
  -34.4073  -24.3390   20.1147 C   0  0  0  0  0  0  0  0  0  0  0  0
  -31.4255  -25.0030   23.2379 C   0  0  0  0  0  0  0  0  0  0  0  0
  -30.6423  -24.8104   24.5320 C   0  0  0  0  0  0  0  0  0  0  0  0
  -33.8301  -24.1500   21.5142 C   0  0  0  0  0  0  0  0  0  0  0  0
  -32.8905  -25.3332   23.4936 C   0  0  0  0  0  0  0  0  0  0  0  0
  -29.0619  -21.3034   17.5264 C   0  0  0  0  0  0  0  0  0  1  0  0
  -22.0247  -19.2301   18.0048 C   0  0  1  0  0  0  0  0  0  0  0  0
  -20.6043  -22.5374   19.1940 C   0  0  2  0  0  0  0  0  0  0  0  0
  -21.3450  -18.4425   16.8493 C   0  0  0  0  0  0  0  0  0  0  0  0
  -22.7697  -26.3028   22.6336 N   0  0  0  0  0  0  0  0  0  0  0  0
  -31.1936  -25.2862   19.6557 N   0  0  0  0  0  0  0  0  0  0  0  0
  -29.6009  -23.8025   18.6215 N   0  0  0  0  0  0  0  0  0  0  0  0
  -24.0012  -26.7032   22.2743 N   0  0  0  0  0  0  0  0  0  0  0  0
  -23.7581  -18.2877   19.4984 N   0  0  0  0  0  0  0  0  0  0  0  0
  -26.9710  -24.9662   23.9334 N   0  0  0  0  0  0  0  0  0  0  0  0
  -25.2051  -28.5356   21.3779 N   0  0  0  0  0  0  0  0  0  0  0  0
  -20.9533  -30.0515   21.5197 N   0  0  0  0  0  0  0  0  0  0  0  0
  -25.0766  -15.0373   20.4948 N   0  0  0  0  0  0  0  0  0  0  0  0
  -21.2064  -20.3036   18.5584 N   0  0  0  0  0  0  0  0  0  0  0  0
  -29.2569  -24.4727   24.2922 N   0  0  0  0  0  0  0  0  0  0  0  0
  -21.1482  -23.1606   20.4337 N   0  3  0  0  0  0  0  0  0  0  0  0
  -33.6054  -25.4595   22.1696 N   0  3  1  0  0  0  0  0  0  0  0  0
  -23.1040  -30.5913   20.9349 O   0  0  0  0  0  0  0  0  0  0  0  0
  -24.6769  -16.1312   18.4783 O   0  0  0  0  0  0  0  0  0  0  0  0
  -21.5117  -17.7214   19.7618 O   0  0  0  0  0  0  0  0  0  0  0  0
  -22.7129  -22.0152   18.1366 O   0  0  0  0  0  0  0  0  0  0  0  0
  -28.5335  -26.6477   24.2634 O   0  0  0  0  0  0  0  0  0  0  0  0
  -16.5093  -27.2283   23.3405 O   0  0  0  0  0  0  0  0  0  0  0  0
  -29.3697  -20.7544   18.8071 O   0  0  0  0  0  0  0  0  0  1  0  0
  -14.2307  -31.6014   25.8079 F   0  0  0  0  0  0  0  0  0  0  0  0
  -16.6347  -29.7354   22.1824 F   0  0  0  0  0  0  0  0  0  0  0  0
  1  2  1  0  0  0  0
  1  5  2  0  0  0  0
  2  6  2  0  0  0  0
  3  8  2  0  0  0  0
  3 15  1  0  0  0  0
  4  9  1  0  0  0  0
  4 15  2  0  0  0  0
  5 17  1  0  0  0  0
  6 19  1  0  0  0  0
  7 10  2  0  0  0  0
  7 18  1  0  0  0  0
  8 22  1  0  0  0  0
  9 22  2  0  0  0  0
 10 23  1  0  0  0  0
 11 12  2  0  0  0  0
 11 24  1  0  0  0  0
 12 25  1  0  0  0  0
 13 20  1  0  0  0  0
 13 23  2  0  0  0  0
 14 25  2  0  0  0  0
 14 26  1  0  0  0  0
 15 27  1  0  0  0  0
 16 27  1  0  0  0  0
 16 30  2  0  0  0  0
 16 32  1  0  0  0  0
 17 19  2  0  0  0  0
 17 37  1  0  0  0  0
 18 20  2  0  0  0  0
 18 38  1  0  0  0  0
 19 46  1  0  0  0  0
 20 39  1  0  0  0  0
 21 28  1  0  0  0  0
 21 29  2  0  0  0  0
 21 49  1  0  0  0  0
 22 86  1  0  0  0  0
 23 87  1  0  0  0  0
 24 26  2  0  0  0  0
 24 86  1  0  0  0  0
 25 88  1  0  0  0  0
 26 89  1  0  0  0  0
 27 68  2  0  0  0  0
 28 57  1  0  0  0  0
 28 69  2  0  0  0  0
 29 58  1  0  0  0  0
 29 70  1  0  0  0  0
 30 71  1  0  0  0  0
 30 74  1  0  0  0  0
 31 50  1  0  0  0  0
 31 69  1  0  0  0  0
 31 70  2  0  0  0  0
 32 75  1  0  0  0  0
 32 81  2  0  0  0  0
 33 47  1  0  0  0  0
 33 76  1  0  0  0  0
 33 82  2  0  0  0  0
 34 65  1  0  0  0  0
 34 72  1  0  0  0  0
 34 83  2  0  0  0  0
 35 66  1  0  0  0  0
 35 77  1  0  0  0  0
 35 84  2  0  0  0  0
 36 73  1  0  0  0  0
 36 78  1  0  0  0  0
 36 85  2  0  0  0  0
 37 40  1  0  0  0  0
 38 47  1  0  0  0  0
 39 72  1  0  0  0  0
 40 42  1  0  0  0  0
 41 43  1  0  0  0  0
 41 44  1  0  0  0  0
 42 46  1  0  0  0  0
 43 48  1  0  0  0  0
 44 73  1  0  0  0  0
 45 48  1  0  0  0  0
 45 73  1  0  0  0  0
 46 76  1  0  0  0  0
 47 72  1  0  0  0  0
 48 71  1  0  0  0  0
 51 66  1  0  0  0  0
 52 67  1  0  0  0  0
 53 67  1  0  0  0  0
 54 67  1  0  0  0  0
 55 79  1  0  0  0  0
 56 80  1  0  0  0  0
 57 59  1  0  0  0  0
 58 64  1  0  0  0  0
 59 62  1  0  0  0  0
 60 61  1  0  0  0  0
 60 63  1  0  0  0  0
 61 78  1  0  0  0  0
 62 80  1  0  0  0  0
 63 80  1  0  0  0  0
 64 87  1  0  0  0  0
 65 67  1  0  0  0  0
 65 77  1  0  0  0  0
 66 79  1  0  0  0  0
 68 71  1  0  0  0  0
M  CHG  2  79   1  80   1
M  ISO  4  36 100  64 101  78 100  87 101
M  END
> <Batch ID>
0044

> <Smiles>
CNC(C)C(=O)NC(C(=O)N1Cc2cc([101O:1][101CH2:1]Cc3nc(C)nc(CCCN(C)CCC[100NH:0][100C:0](=O)N4CCCC(n5nc(-c6ccc(Oc7ccc(F)cc7F)cc6)c(C(N)=O)c5N)C4)c3C)ccc2CC1C(=O)NC1CCCc2ccccc21)C(C)(C)C

> <Shape>
0.190

> <Color>
0.080

> <Negative vol penalty>
0.000

$$$$

  -OEChem-04052317173D

 81 89  0     1  0  0  0  0  0999 V2000
  -31.0733  -31.6514   26.5397 C   0  0  0  0  0  0  0  0  0  0  0  0
  -31.6698  -30.3978   26.4489 C   0  0  0  0  0  0  0  0  0  0  0  0
  -23.0694   -9.8678   19.9532 C   0  0  0  0  0  0  0  0  0  0  0  0
  -23.8572   -9.8782   22.2371 C   0  0  0  0  0  0  0  0  0  0  0  0
  -29.6838  -31.7599   26.5760 C   0  0  0  0  0  0  0  0  0  0  0  0
  -30.8770  -29.2519   26.3954 C   0  0  0  0  0  0  0  0  0  0  0  0
  -32.0397  -24.1133   23.2732 C   0  0  0  0  0  0  0  0  0  0  0  0
  -22.3325   -8.7123   20.2126 C   0  0  0  0  0  0  0  0  0  0  0  0
  -23.1203   -8.7227   22.4966 C   0  0  0  0  0  0  0  0  0  0  0  0
  -32.5798  -22.8858   23.6547 C   0  0  0  0  0  0  0  0  0  0  0  0
  -19.9024   -7.9145   23.1388 C   0  0  0  0  0  0  0  0  0  0  0  0
  -19.1599   -7.8725   24.3188 C   0  0  0  0  0  0  0  0  0  0  0  0
  -30.3535  -21.9987   23.9304 C   0  0  0  0  0  0  0  0  0  0  0  0
  -20.4166   -5.9395   25.0408 C   0  0  0  0  0  0  0  0  0  0  0  0
  -31.9707  -16.8523   23.0478 C   0  0  0  0  0  0  0  0  0  0  0  0
  -23.8319  -10.4508   20.9654 C   0  0  0  0  0  0  0  0  0  0  0  0
  -24.1638  -12.9770   20.8403 C   0  0  0  0  0  0  0  0  0  0  0  0
  -28.8734  -30.6154   26.5132 C   0  0  0  0  0  0  0  0  0  0  0  0
  -30.6501  -24.2962   23.2279 C   0  0  0  0  0  0  0  0  0  0  0  0
  -29.4754  -29.3452   26.4323 C   0  0  0  0  0  0  0  0  0  0  0  0
  -29.7983  -23.2287   23.5456 C   0  0  0  0  0  0  0  0  0  0  0  0
  -22.3579   -8.1398   21.4843 C   0  0  0  0  0  0  0  0  0  0  0  0
  -31.7367  -21.8292   23.9861 C   0  0  0  0  0  0  0  0  0  0  0  0
  -20.9019   -6.9689   22.9096 C   0  0  0  0  0  0  0  0  0  0  0  0
  -19.4170   -6.8851   25.2699 C   0  0  0  0  0  0  0  0  0  0  0  0
  -21.1591   -5.9815   23.8607 C   0  0  0  0  0  0  0  0  0  0  0  0
  -24.5938  -11.6441   20.6979 C   0  0  0  0  0  0  0  0  0  0  0  0
  -32.5754  -18.1129   22.8835 C   0  0  0  0  0  0  0  0  0  0  0  0
  -31.0726  -16.7647   22.0122 C   0  0  0  0  0  0  0  0  0  0  0  0
  -25.2490  -13.7299   20.4635 C   0  0  0  0  0  0  0  0  0  0  0  0
  -22.8968  -13.4888   21.2745 C   0  0  0  0  0  0  0  0  0  0  0  0
  -28.5860  -26.1852   24.7363 C   0  0  0  0  0  0  0  0  0  0  0  0
  -30.7535  -14.7009   20.6812 C   0  0  0  0  0  0  0  0  0  0  0  0
  -26.4698  -24.8858   22.6493 C   0  0  0  0  0  0  0  0  0  0  0  0
  -25.6479  -22.2839   20.5995 C   0  0  0  0  0  0  0  0  0  0  0  0
  -27.3768  -30.7797   26.6034 C   0  0  0  0  0  0  0  0  0  0  0  0
  -30.0832  -25.6184   22.7887 C   0  0  0  0  0  0  0  0  0  0  0  0
  -28.2995  -23.3675   23.4933 C   0  0  0  0  0  0  0  0  0  0  0  0
  -26.6005  -29.5408   26.1644 C   0  0  0  0  0  0  0  0  0  0  0  0
  -29.5659  -12.3994   18.2047 C   0  0  0  0  0  0  0  0  0  0  0  0
  -27.1966  -28.2861   26.7948 C   0  0  0  0  0  0  0  0  0  0  0  0
  -28.1420  -12.0841   18.6611 C   0  0  0  0  0  0  0  0  0  0  0  0
  -30.5003  -12.6056   19.3928 C   0  0  0  0  0  0  0  0  0  0  0  0
  -28.6118  -13.3346   20.8153 C   0  0  0  0  0  0  0  0  0  0  0  0
  -28.6488  -28.0804   26.3472 C   0  0  1  0  0  0  0  0  0  0  0  0
  -28.6550  -25.8470   23.2739 C   0  0  1  0  0  0  0  0  0  0  0  0
  -27.6286  -13.1494   19.6460 C   0  0  2  0  0  0  0  0  0  0  0  0
  -29.3443  -19.3097   20.4499 C   0  0  0  0  0  0  0  0  0  0  0  0
  -35.0501  -18.3321   23.2829 C   0  0  0  0  0  0  0  0  0  0  0  0
  -23.8376  -21.4898   19.0537 C   0  0  0  0  0  0  0  0  0  0  0  0
  -24.7453  -24.1429   25.0543 C   0  0  0  0  0  0  0  0  0  0  0  0
  -23.4838  -22.5658   23.5746 C   0  0  0  0  0  0  0  0  0  0  0  0
  -23.4711  -25.0119   23.0856 C   0  0  0  0  0  0  0  0  0  0  0  0
  -27.4857  -22.2440   18.2801 C   0  0  0  0  0  0  0  0  0  0  0  0
  -30.1337  -15.6932   21.6326 C   0  0  0  0  0  0  0  0  0  0  0  0
  -30.4517  -18.3181   20.1372 C   0  0  0  0  0  0  0  0  0  0  0  0
  -33.5258  -20.2731   23.8029 C   0  0  0  0  0  0  0  0  0  1  0  0
  -33.6520  -18.7444   23.7521 C   0  0  1  0  0  0  0  0  0  0  0  0
  -25.5715  -23.6725   22.6539 C   0  0  1  0  0  0  0  0  0  0  0  0
  -25.1503  -22.2494   19.1658 C   0  0  2  0  0  0  0  0  0  0  0  0
  -24.3461  -23.8459   23.5951 C   0  0  0  0  0  0  0  0  0  0  0  0
  -25.8538  -11.5523   20.2642 N   0  0  0  0  0  0  0  0  0  0  0  0
  -32.1016  -18.7783   21.8267 N   0  0  0  0  0  0  0  0  0  0  0  0
  -31.1897  -17.9325   21.3175 N   0  0  0  0  0  0  0  0  0  0  0  0
  -26.2248  -12.8370   20.1308 N   0  0  0  0  0  0  0  0  0  0  0  0
  -27.7935  -24.6817   23.0640 N   0  0  0  0  0  0  0  0  0  0  0  0
  -29.9664  -13.6085   20.3160 N   0  0  0  0  0  0  0  0  0  0  0  0
  -25.4541  -15.0621   20.3874 N   0  0  0  0  0  0  0  0  0  0  0  0
  -21.8921  -12.5764   21.6245 N   0  0  0  0  0  0  0  0  0  0  0  0
  -28.6922  -27.5361   25.0069 N   0  0  0  0  0  0  0  0  0  0  0  0
  -25.2232  -23.4172   21.2604 N   0  0  0  0  0  0  0  0  0  0  0  0
  -26.1534  -21.5868   18.2851 N   0  3  0  0  0  0  0  0  0  0  0  0
  -22.6572  -14.7186   21.3343 O   0  0  0  0  0  0  0  0  0  0  0  0
  -28.4453  -25.2871   25.5581 O   0  0  0  0  0  0  0  0  0  0  0  0
  -31.9018  -14.8941   20.2736 O   0  0  0  0  0  0  0  0  0  0  0  0
  -26.0156  -25.9730   22.2842 O   0  0  0  0  0  0  0  0  0  0  0  0
  -26.3406  -21.3928   21.0858 O   0  0  0  0  0  0  0  0  0  0  0  0
  -21.6387   -7.0124   21.7379 O   0  0  0  0  0  0  0  0  0  0  0  0
  -32.2612  -20.6303   24.3593 O   0  0  0  0  0  0  0  0  0  1  0  0
  -18.7050   -6.8458   26.4037 F   0  0  0  0  0  0  0  0  0  0  0  0
  -22.1189   -5.0711   23.6467 F   0  0  0  0  0  0  0  0  0  0  0  0
  1  2  1  0  0  0  0
  1  5  2  0  0  0  0
  2  6  2  0  0  0  0
  3  8  2  0  0  0  0
  3 16  1  0  0  0  0
  4  9  1  0  0  0  0
  4 16  2  0  0  0  0
  5 18  1  0  0  0  0
  6 20  1  0  0  0  0
  7 10  2  0  0  0  0
  7 19  1  0  0  0  0
  8 22  1  0  0  0  0
  9 22  2  0  0  0  0
 10 23  1  0  0  0  0
 11 12  2  0  0  0  0
 11 24  1  0  0  0  0
 12 25  1  0  0  0  0
 13 21  1  0  0  0  0
 13 23  2  0  0  0  0
 14 25  2  0  0  0  0
 14 26  1  0  0  0  0
 15 28  1  0  0  0  0
 15 29  2  0  0  0  0
 16 27  1  0  0  0  0
 17 27  1  0  0  0  0
 17 30  2  0  0  0  0
 17 31  1  0  0  0  0
 18 20  2  0  0  0  0
 18 36  1  0  0  0  0
 19 21  2  0  0  0  0
 19 37  1  0  0  0  0
 20 45  1  0  0  0  0
 21 38  1  0  0  0  0
 22 78  1  0  0  0  0
 23 79  1  0  0  0  0
 24 26  2  0  0  0  0
 24 78  1  0  0  0  0
 25 80  1  0  0  0  0
 26 81  1  0  0  0  0
 27 62  2  0  0  0  0
 28 58  1  0  0  0  0
 28 63  2  0  0  0  0
 29 55  1  0  0  0  0
 29 64  1  0  0  0  0
 30 65  1  0  0  0  0
 30 68  1  0  0  0  0
 31 69  1  0  0  0  0
 31 73  2  0  0  0  0
 32 46  1  0  0  0  0
 32 70  1  0  0  0  0
 32 74  2  0  0  0  0
 33 55  1  0  0  0  0
 33 67  1  0  0  0  0
 33 75  2  0  0  0  0
 34 59  1  0  0  0  0
 34 66  1  0  0  0  0
 34 76  2  0  0  0  0
 35 60  1  0  0  0  0
 35 71  1  0  0  0  0
 35 77  2  0  0  0  0
 36 39  1  0  0  0  0
 37 46  1  0  0  0  0
 38 66  1  0  0  0  0
 39 41  1  0  0  0  0
 40 42  1  0  0  0  0
 40 43  1  0  0  0  0
 41 45  1  0  0  0  0
 42 47  1  0  0  0  0
 43 67  1  0  0  0  0
 44 47  1  0  0  0  0
 44 67  1  0  0  0  0
 45 70  1  0  0  0  0
 46 66  1  0  0  0  0
 47 65  1  0  0  0  0
 48 56  1  0  0  0  0
 49 58  1  0  0  0  0
 50 60  1  0  0  0  0
 51 61  1  0  0  0  0
 52 61  1  0  0  0  0
 53 61  1  0  0  0  0
 54 72  1  0  0  0  0
 56 64  1  0  0  0  0
 57 58  1  0  0  0  0
 57 79  1  0  0  0  0
 59 61  1  0  0  0  0
 59 71  1  0  0  0  0
 60 72  1  0  0  0  0
 62 65  1  0  0  0  0
 63 64  1  0  0  0  0
M  CHG  1  72   1
M  ISO  4  33 100  55 100  57 101  79 101
M  END
> <Batch ID>
0044

> <Smiles>
CCn1nc(C(C)[101CH2:1][101O:1]c2ccc3c(c2)CN(C(=O)C(NC(=O)C(C)NC)C(C)(C)C)C(C(=O)NC2CCCc4ccccc42)C3)cc1[100CH2:0][100C:0](=O)N1CCCC(n2nc(-c3ccc(Oc4ccc(F)cc4F)cc3)c(C(N)=O)c2N)C1

> <Shape>
0.202

> <Color>
0.195

> <Negative vol penalty>
0.000

$$$$

  -OEChem-04052317173D

 84 92  0     1  0  0  0  0  0999 V2000
  -30.1852  -34.5904   21.9413 C   0  0  0  0  0  0  0  0  0  0  0  0
  -30.4354  -33.2261   21.8343 C   0  0  0  0  0  0  0  0  0  0  0  0
  -23.7689  -10.0081   22.2829 C   0  0  0  0  0  0  0  0  0  0  0  0
  -24.3415  -11.5167   24.0811 C   0  0  0  0  0  0  0  0  0  0  0  0
  -28.9384  -35.0372   22.3771 C   0  0  0  0  0  0  0  0  0  0  0  0
  -29.4393  -32.3077   22.1640 C   0  0  0  0  0  0  0  0  0  0  0  0
  -28.4024  -26.8885   19.5064 C   0  0  0  0  0  0  0  0  0  0  0  0
  -23.2451   -9.1047   23.2076 C   0  0  0  0  0  0  0  0  0  0  0  0
  -23.8177  -10.6133   25.0058 C   0  0  0  0  0  0  0  0  0  0  0  0
  -28.7573  -25.5874   19.8596 C   0  0  0  0  0  0  0  0  0  0  0  0
  -20.4069   -8.7501   25.0110 C   0  0  0  0  0  0  0  0  0  0  0  0
  -19.1730   -8.1678   24.7210 C   0  0  0  0  0  0  0  0  0  0  0  0
  -26.6000  -25.2870   20.8965 C   0  0  0  0  0  0  0  0  0  0  0  0
  -20.1933   -5.9785   24.7754 C   0  0  0  0  0  0  0  0  0  0  0  0
  -24.3171  -11.2141   22.7197 C   0  0  0  0  0  0  0  0  0  0  0  0
  -24.1732  -13.1883   21.1104 C   0  0  0  0  0  0  0  0  0  0  0  0
  -27.9234  -34.1240   22.7031 C   0  0  0  0  0  0  0  0  0  0  0  0
  -27.1456  -27.4032   19.8556 C   0  0  0  0  0  0  0  0  0  0  0  0
  -28.1782  -32.7427   22.6058 C   0  0  0  0  0  0  0  0  0  0  0  0
  -26.2306  -26.5941   20.5442 C   0  0  0  0  0  0  0  0  0  0  0  0
  -23.2695   -9.4073   24.5691 C   0  0  0  0  0  0  0  0  0  0  0  0
  -27.8571  -24.7873   20.5573 C   0  0  0  0  0  0  0  0  0  0  0  0
  -21.5341   -7.9465   25.1831 C   0  0  0  0  0  0  0  0  0  0  0  0
  -19.0662   -6.7821   24.6033 C   0  0  0  0  0  0  0  0  0  0  0  0
  -21.4273   -6.5608   25.0653 C   0  0  0  0  0  0  0  0  0  0  0  0
  -24.8589  -12.1475   21.7650 C   0  0  0  0  0  0  0  0  0  0  0  0
  -29.9021  -21.3286   22.2857 C   0  0  0  0  0  0  0  0  0  0  0  0
  -29.7689  -19.4281   20.4156 C   0  0  0  0  0  0  0  0  0  0  0  0
  -29.9937  -19.1105   21.7370 C   0  0  0  0  0  0  0  0  0  0  0  0
  -29.6780  -21.6463   20.9642 C   0  0  0  0  0  0  0  0  0  0  0  0
  -25.1240  -13.7782   20.3139 C   0  0  0  0  0  0  0  0  0  0  0  0
  -22.7996  -13.5863   21.2133 C   0  0  0  0  0  0  0  0  0  0  0  0
  -26.1323  -29.8140   21.6625 C   0  0  0  0  0  0  0  0  0  0  0  0
  -23.2317  -28.9671   20.4828 C   0  0  0  0  0  0  0  0  0  0  0  0
  -21.2555  -26.5443   19.1148 C   0  0  0  0  0  0  0  0  0  0  0  0
  -31.0947  -14.0872   20.6391 C   0  0  0  0  0  0  0  0  0  0  0  0
  -26.6072  -34.6537   23.2148 C   0  0  0  0  0  0  0  0  0  0  0  0
  -26.7680  -28.7997   19.4438 C   0  0  0  0  0  0  0  0  0  0  0  0
  -24.8613  -27.0924   20.9250 C   0  0  0  0  0  0  0  0  0  0  0  0
  -25.4828  -33.6216   23.1865 C   0  0  0  0  0  0  0  0  0  0  0  0
  -29.1617  -12.7899   17.9452 C   0  0  0  0  0  0  0  0  0  0  0  0
  -25.9631  -32.2931   23.7620 C   0  0  0  0  0  0  0  0  0  0  0  0
  -27.7779  -12.5720   18.5596 C   0  0  0  0  0  0  0  0  0  0  0  0
  -30.2767  -12.4794   18.9413 C   0  0  0  0  0  0  0  0  0  0  0  0
  -28.7893  -12.9737   20.8431 C   0  0  0  0  0  0  0  0  0  0  0  0
  -27.1151  -31.7159   22.9305 C   0  0  1  0  0  0  0  0  0  0  0  0
  -25.6551  -29.3951   20.3007 C   0  0  1  0  0  0  0  0  0  0  0  0
  -27.6316  -13.3278   19.8940 C   0  0  2  0  0  0  0  0  0  0  0  0
  -29.9784  -22.3827   23.3367 C   0  0  0  0  0  0  0  0  0  0  0  0
  -28.2557  -18.0797   18.9396 C   0  0  0  0  0  0  0  0  0  0  0  0
  -18.9195  -26.1393   18.2924 C   0  0  0  0  0  0  0  0  0  0  0  0
  -22.2494  -28.7921   23.3663 C   0  0  0  0  0  0  0  0  0  0  0  0
  -20.2716  -27.4981   22.5406 C   0  0  0  0  0  0  0  0  0  0  0  0
  -20.6323  -29.8448   21.7754 C   0  0  0  0  0  0  0  0  0  0  0  0
  -22.2005  -25.9379   16.3766 C   0  0  0  0  0  0  0  0  0  0  0  0
  -29.6923  -18.3737   19.3648 C   0  0  0  0  0  0  0  0  0  0  0  0
  -30.1713  -17.6976   22.1774 C   0  0  0  0  0  0  0  0  0  0  0  0
  -29.5006  -23.0688   20.5208 C   0  0  0  0  0  0  0  0  0  1  0  0
  -31.5756  -17.1181   21.9142 C   0  0  0  0  0  0  0  0  0  0  0  0
  -31.7682  -15.6874   22.4125 C   0  0  0  0  0  0  0  0  0  0  0  0
  -22.1422  -28.0122   20.9074 C   0  0  1  0  0  0  0  0  0  0  0  0
  -20.3305  -26.5595   17.9113 C   0  0  2  0  0  0  0  0  0  0  0  0
  -21.3503  -28.5277   22.1421 C   0  0  0  0  0  0  0  0  0  0  0  0
  -26.1458  -12.0775   21.4145 N   0  0  0  0  0  0  0  0  0  0  0  0
  -30.0640  -20.0550   22.6958 N   0  0  0  0  0  0  0  0  0  0  0  0
  -29.6073  -20.7017   20.0054 N   0  0  0  0  0  0  0  0  0  0  0  0
  -26.2764  -13.0818   20.5310 N   0  0  0  0  0  0  0  0  0  0  0  0
  -24.5413  -28.4668   20.5054 N   0  0  0  0  0  0  0  0  0  0  0  0
  -30.0799  -13.2290   20.1844 N   0  0  0  0  0  0  0  0  0  0  0  0
  -25.0783  -14.8194   19.4559 N   0  0  0  0  0  0  0  0  0  0  0  0
  -21.9600  -12.8721   22.0789 N   0  0  0  0  0  0  0  0  0  0  0  0
  -26.6088  -31.1099   21.7177 N   0  0  0  0  0  0  0  0  0  0  0  0
  -21.3201  -27.7791   19.7250 N   0  0  0  0  0  0  0  0  0  0  0  0
  -30.8246  -14.7645   21.8219 N   0  0  0  0  0  0  0  0  0  0  0  0
  -20.8310  -25.6276   16.8615 N   0  3  0  0  0  0  0  0  0  0  0  0
  -22.3268  -14.5366   20.5448 O   0  0  0  0  0  0  0  0  0  0  0  0
  -26.0711  -29.0208   22.5946 O   0  0  0  0  0  0  0  0  0  0  0  0
  -22.9311  -30.1123   20.1369 O   0  0  0  0  0  0  0  0  0  0  0  0
  -21.8574  -25.5367   19.4796 O   0  0  0  0  0  0  0  0  0  0  0  0
  -32.1602  -14.2426   20.0328 O   0  0  0  0  0  0  0  0  0  0  0  0
  -22.7582   -8.5261   25.4716 O   0  0  0  0  0  0  0  0  0  0  0  0
  -28.2012  -23.5172   20.9040 O   0  0  0  0  0  0  0  0  0  1  0  0
  -17.8809   -6.2230   24.3264 F   0  0  0  0  0  0  0  0  0  0  0  0
  -22.5064   -5.7836   25.2308 F   0  0  0  0  0  0  0  0  0  0  0  0
  1  2  1  0  0  0  0
  1  5  2  0  0  0  0
  2  6  2  0  0  0  0
  3  8  2  0  0  0  0
  3 15  1  0  0  0  0
  4  9  1  0  0  0  0
  4 15  2  0  0  0  0
  5 17  1  0  0  0  0
  6 19  1  0  0  0  0
  7 10  2  0  0  0  0
  7 18  1  0  0  0  0
  8 21  1  0  0  0  0
  9 21  2  0  0  0  0
 10 22  1  0  0  0  0
 11 12  2  0  0  0  0
 11 23  1  0  0  0  0
 12 24  1  0  0  0  0
 13 20  1  0  0  0  0
 13 22  2  0  0  0  0
 14 24  2  0  0  0  0
 14 25  1  0  0  0  0
 15 26  1  0  0  0  0
 16 26  1  0  0  0  0
 16 31  2  0  0  0  0
 16 32  1  0  0  0  0
 17 19  2  0  0  0  0
 17 37  1  0  0  0  0
 18 20  2  0  0  0  0
 18 38  1  0  0  0  0
 19 46  1  0  0  0  0
 20 39  1  0  0  0  0
 21 81  1  0  0  0  0
 22 82  1  0  0  0  0
 23 25  2  0  0  0  0
 23 81  1  0  0  0  0
 24 83  1  0  0  0  0
 25 84  1  0  0  0  0
 26 64  2  0  0  0  0
 27 30  1  0  0  0  0
 27 49  1  0  0  0  0
 27 65  2  0  0  0  0
 28 29  2  0  0  0  0
 28 56  1  0  0  0  0
 28 66  1  0  0  0  0
 29 57  1  0  0  0  0
 29 65  1  0  0  0  0
 30 58  1  0  0  0  0
 30 66  2  0  0  0  0
 31 67  1  0  0  0  0
 31 70  1  0  0  0  0
 32 71  1  0  0  0  0
 32 76  2  0  0  0  0
 33 47  1  0  0  0  0
 33 72  1  0  0  0  0
 33 77  2  0  0  0  0
 34 61  1  0  0  0  0
 34 68  1  0  0  0  0
 34 78  2  0  0  0  0
 35 62  1  0  0  0  0
 35 73  1  0  0  0  0
 35 79  2  0  0  0  0
 36 69  1  0  0  0  0
 36 74  1  0  0  0  0
 36 80  2  0  0  0  0
 37 40  1  0  0  0  0
 38 47  1  0  0  0  0
 39 68  1  0  0  0  0
 40 42  1  0  0  0  0
 41 43  1  0  0  0  0
 41 44  1  0  0  0  0
 42 46  1  0  0  0  0
 43 48  1  0  0  0  0
 44 69  1  0  0  0  0
 45 48  1  0  0  0  0
 45 69  1  0  0  0  0
 46 72  1  0  0  0  0
 47 68  1  0  0  0  0
 48 67  1  0  0  0  0
 50 56  1  0  0  0  0
 51 62  1  0  0  0  0
 52 63  1  0  0  0  0
 53 63  1  0  0  0  0
 54 63  1  0  0  0  0
 55 75  1  0  0  0  0
 57 59  1  0  0  0  0
 58 82  1  0  0  0  0
 59 60  1  0  0  0  0
 60 74  1  0  0  0  0
 61 63  1  0  0  0  0
 61 73  1  0  0  0  0
 62 75  1  0  0  0  0
 64 67  1  0  0  0  0
M  CHG  1  75   1
M  ISO  4  36 100  58 101  74 100  82 101
M  END
> <Batch ID>
0044

> <Smiles>
CCc1nc([101CH2:1][101O:1]c2ccc3c(c2)CN(C(=O)C(NC(=O)C(C)NC)C(C)(C)C)C(C(=O)NC2CCCc4ccccc42)C3)c(C)nc1CCC[100NH:0][100C:0](=O)N1CCCC(n2nc(-c3ccc(Oc4ccc(F)cc4F)cc3)c(C(N)=O)c2N)C1

> <Shape>
0.320

> <Color>
0.146

> <Negative vol penalty>
0.000

$$$$

  -OEChem-04052317173D

 83 91  0     1  0  0  0  0  0999 V2000
  -27.5049  -10.4331   20.8979 C   0  0  0  0  0  0  0  0  0  0  0  0
  -28.1858  -11.4912   20.3044 C   0  0  0  0  0  0  0  0  0  0  0  0
  -18.7359  -26.9508   20.6810 C   0  0  0  0  0  0  0  0  0  0  0  0
  -20.1730  -25.0087   20.6773 C   0  0  0  0  0  0  0  0  0  0  0  0
  -26.1342  -10.5322   21.1333 C   0  0  0  0  0  0  0  0  0  0  0  0
  -27.4961  -12.6487   19.9451 C   0  0  0  0  0  0  0  0  0  0  0  0
  -29.6086  -18.3946   20.1129 C   0  0  0  0  0  0  0  0  0  0  0  0
  -17.7692  -26.2369   19.9730 C   0  0  0  0  0  0  0  0  0  0  0  0
  -19.2063  -24.2947   19.9693 C   0  0  0  0  0  0  0  0  0  0  0  0
  -30.1344  -19.2298   19.1282 C   0  0  0  0  0  0  0  0  0  0  0  0
  -16.9686  -21.8499   18.4747 C   0  0  0  0  0  0  0  0  0  0  0  0
  -16.6832  -20.5509   18.8952 C   0  0  0  0  0  0  0  0  0  0  0  0
  -27.9606  -20.2308   18.8251 C   0  0  0  0  0  0  0  0  0  0  0  0
  -16.0166  -21.3975   21.0577 C   0  0  0  0  0  0  0  0  0  0  0  0
  -30.7369  -23.2361   20.2969 C   0  0  0  0  0  0  0  0  0  0  0  0
  -19.9379  -26.3368   21.0331 C   0  0  0  0  0  0  0  0  0  0  0  0
  -21.0699  -27.1693   23.1623 C   0  0  0  0  0  0  0  0  0  0  0  0
  -25.4292  -11.6952   20.7855 C   0  0  0  0  0  0  0  0  0  0  0  0
  -28.2502  -18.4638   20.4540 C   0  0  0  0  0  0  0  0  0  0  0  0
  -26.1145  -12.7629   20.1749 C   0  0  0  0  0  0  0  0  0  0  0  0
  -27.4206  -19.3972   19.8163 C   0  0  0  0  0  0  0  0  0  0  0  0
  -18.0044  -24.9088   19.6172 C   0  0  0  0  0  0  0  0  0  0  0  0
  -29.3098  -20.1461   18.4820 C   0  0  0  0  0  0  0  0  0  0  0  0
  -16.7781  -22.9227   19.3457 C   0  0  0  0  0  0  0  0  0  0  0  0
  -16.2072  -20.3247   20.1867 C   0  0  0  0  0  0  0  0  0  0  0  0
  -16.3021  -22.6964   20.6372 C   0  0  0  0  0  0  0  0  0  0  0  0
  -20.9371  -27.0739   21.7640 C   0  0  0  0  0  0  0  0  0  0  0  0
  -31.1107  -23.9418   19.1376 C   0  0  0  0  0  0  0  0  0  0  0  0
  -30.5328  -24.2117   21.2419 C   0  0  0  0  0  0  0  0  0  0  0  0
  -22.1644  -27.9778   23.3489 C   0  0  0  0  0  0  0  0  0  0  0  0
  -20.2749  -26.5797   24.1996 C   0  0  0  0  0  0  0  0  0  0  0  0
  -25.8011  -16.4411   20.3332 C   0  0  0  0  0  0  0  0  0  0  0  0
  -24.2532  -18.8327   21.8845 C   0  0  0  0  0  0  0  0  0  0  0  0
  -24.0438  -22.1633   22.5991 C   0  0  0  0  0  0  0  0  0  0  0  0
  -26.9426  -29.2183   19.9605 C   0  0  0  0  0  0  0  0  0  0  0  0
  -23.9394  -11.7374   21.0165 C   0  0  0  0  0  0  0  0  0  0  0  0
  -27.7042  -17.5744   21.5372 C   0  0  0  0  0  0  0  0  0  0  0  0
  -25.9598  -19.5252   20.1601 C   0  0  0  0  0  0  0  0  0  0  0  0
  -23.3521  -13.1448   20.9481 C   0  0  0  0  0  0  0  0  0  0  0  0
  -24.5845  -31.5428   21.2693 C   0  0  0  0  0  0  0  0  0  0  0  0
  -23.8824  -13.8857   19.7247 C   0  0  0  0  0  0  0  0  0  0  0  0
  -23.3943  -30.6697   21.6706 C   0  0  0  0  0  0  0  0  0  0  0  0
  -25.2554  -31.0317   19.9962 C   0  0  0  0  0  0  0  0  0  0  0  0
  -24.4643  -28.7392   20.4348 C   0  0  0  0  0  0  0  0  0  0  0  0
  -25.4061  -14.0446   19.7935 C   0  0  1  0  0  0  0  0  0  0  0  0
  -26.1947  -17.3751   21.4424 C   0  0  1  0  0  0  0  0  0  0  0  0
  -23.7894  -29.1825   21.7441 C   0  0  2  0  0  0  0  0  0  0  0  0
  -30.1269  -24.1201   22.6564 C   0  0  0  0  0  0  0  0  0  0  0  0
  -22.6496  -23.8227   23.8639 C   0  0  0  0  0  0  0  0  0  0  0  0
  -22.1164  -18.6904   19.7111 C   0  0  0  0  0  0  0  0  0  0  0  0
  -21.2939  -20.9299   20.4705 C   0  0  0  0  0  0  0  0  0  0  0  0
  -21.2276  -18.9842   22.0302 C   0  0  0  0  0  0  0  0  0  0  0  0
  -26.3233  -22.9429   24.3180 C   0  0  0  0  0  0  0  0  0  0  0  0
  -31.4587  -23.3704   17.7863 C   0  0  0  0  0  0  0  0  0  0  0  0
  -30.2564  -23.2245   16.8511 C   0  0  0  0  0  0  0  0  0  0  0  0
  -29.2790  -27.2678   21.2950 C   0  0  0  0  0  0  0  0  0  0  0  0
  -30.7081  -26.7179   21.1932 C   0  0  0  0  0  0  0  0  0  0  0  0
  -28.5154  -27.2985   19.9728 C   0  0  0  0  0  0  0  0  0  0  0  0
  -29.2093  -22.2420   17.3626 C   0  0  0  0  0  0  0  0  0  1  0  0
  -23.4528  -20.0402   21.4598 C   0  0  1  0  0  0  0  0  0  0  0  0
  -23.8591  -22.9020   23.9123 C   0  0  2  0  0  0  0  0  0  0  0  0
  -22.0497  -19.6577   20.9098 C   0  0  0  0  0  0  0  0  0  0  0  0
  -21.8725  -27.7667   21.1089 N   0  0  0  0  0  0  0  0  0  0  0  0
  -31.1429  -25.2636   19.3265 N   0  0  0  0  0  0  0  0  0  0  0  0
  -30.7865  -25.3963   20.6155 N   0  0  0  0  0  0  0  0  0  0  0  0
  -22.6034  -28.3051   22.0998 N   0  0  0  0  0  0  0  0  0  0  0  0
  -25.4717  -18.6292   21.2215 N   0  0  0  0  0  0  0  0  0  0  0  0
  -25.6064  -29.6160   20.1320 N   0  0  0  0  0  0  0  0  0  0  0  0
  -22.7845  -28.4336   24.4580 N   0  0  0  0  0  0  0  0  0  0  0  0
  -19.1869  -25.7761   23.8325 N   0  0  0  0  0  0  0  0  0  0  0  0
  -25.7623  -15.1108   20.7049 N   0  0  0  0  0  0  0  0  0  0  0  0
  -23.4195  -20.9339   22.6125 N   0  0  0  0  0  0  0  0  0  0  0  0
  -27.1900  -27.8594   20.1126 N   0  0  0  0  0  0  0  0  0  0  0  0
  -25.0638  -23.7243   24.2179 N   0  3  0  0  0  0  0  0  0  0  0  0
  -20.5123  -26.7733   25.4160 O   0  0  0  0  0  0  0  0  0  0  0  0
  -25.5497  -16.8941   19.2226 O   0  0  0  0  0  0  0  0  0  0  0  0
  -23.8168  -18.1012   22.7767 O   0  0  0  0  0  0  0  0  0  0  0  0
  -24.6753  -22.6316   21.6544 O   0  0  0  0  0  0  0  0  0  0  0  0
  -27.8489  -30.0159   19.6971 O   0  0  0  0  0  0  0  0  0  0  0  0
  -17.0612  -24.2118   18.9265 O   0  0  0  0  0  0  0  0  0  0  0  0
  -29.8203  -20.9620   17.5200 O   0  0  0  0  0  0  0  0  0  1  0  0
  -15.9317  -19.0774   20.5899 F   0  0  0  0  0  0  0  0  0  0  0  0
  -16.1159  -23.7231   21.4780 F   0  0  0  0  0  0  0  0  0  0  0  0
  1  2  1  0  0  0  0
  1  5  2  0  0  0  0
  2  6  2  0  0  0  0
  3  8  2  0  0  0  0
  3 16  1  0  0  0  0
  4  9  1  0  0  0  0
  4 16  2  0  0  0  0
  5 18  1  0  0  0  0
  6 20  1  0  0  0  0
  7 10  2  0  0  0  0
  7 19  1  0  0  0  0
  8 22  1  0  0  0  0
  9 22  2  0  0  0  0
 10 23  1  0  0  0  0
 11 12  2  0  0  0  0
 11 24  1  0  0  0  0
 12 25  1  0  0  0  0
 13 21  1  0  0  0  0
 13 23  2  0  0  0  0
 14 25  2  0  0  0  0
 14 26  1  0  0  0  0
 15 28  1  0  0  0  0
 15 29  2  0  0  0  0
 16 27  1  0  0  0  0
 17 27  1  0  0  0  0
 17 30  2  0  0  0  0
 17 31  1  0  0  0  0
 18 20  2  0  0  0  0
 18 36  1  0  0  0  0
 19 21  2  0  0  0  0
 19 37  1  0  0  0  0
 20 45  1  0  0  0  0
 21 38  1  0  0  0  0
 22 80  1  0  0  0  0
 23 81  1  0  0  0  0
 24 26  2  0  0  0  0
 24 80  1  0  0  0  0
 25 82  1  0  0  0  0
 26 83  1  0  0  0  0
 27 63  2  0  0  0  0
 28 54  1  0  0  0  0
 28 64  2  0  0  0  0
 29 48  1  0  0  0  0
 29 65  1  0  0  0  0
 30 66  1  0  0  0  0
 30 69  1  0  0  0  0
 31 70  1  0  0  0  0
 31 75  2  0  0  0  0
 32 46  1  0  0  0  0
 32 71  1  0  0  0  0
 32 76  2  0  0  0  0
 33 60  1  0  0  0  0
 33 67  1  0  0  0  0
 33 77  2  0  0  0  0
 34 61  1  0  0  0  0
 34 72  1  0  0  0  0
 34 78  2  0  0  0  0
 35 68  1  0  0  0  0
 35 73  1  0  0  0  0
 35 79  2  0  0  0  0
 36 39  1  0  0  0  0
 37 46  1  0  0  0  0
 38 67  1  0  0  0  0
 39 41  1  0  0  0  0
 40 42  1  0  0  0  0
 40 43  1  0  0  0  0
 41 45  1  0  0  0  0
 42 47  1  0  0  0  0
 43 68  1  0  0  0  0
 44 47  1  0  0  0  0
 44 68  1  0  0  0  0
 45 71  1  0  0  0  0
 46 67  1  0  0  0  0
 47 66  1  0  0  0  0
 49 61  1  0  0  0  0
 50 62  1  0  0  0  0
 51 62  1  0  0  0  0
 52 62  1  0  0  0  0
 53 74  1  0  0  0  0
 54 55  1  0  0  0  0
 55 59  1  0  0  0  0
 56 57  1  0  0  0  0
 56 58  1  0  0  0  0
 57 65  1  0  0  0  0
 58 73  1  0  0  0  0
 59 81  1  0  0  0  0
 60 62  1  0  0  0  0
 60 72  1  0  0  0  0
 61 74  1  0  0  0  0
 63 66  1  0  0  0  0
 64 65  1  0  0  0  0
M  CHG  1  74   1
M  ISO  4  35 100  59 101  73 100  81 101
M  END
> <Batch ID>
0044

> <Smiles>
CNC(C)C(=O)NC(C(=O)N1Cc2cc([101O:1][101CH2:1]CCc3cc(C)n(CCC[100NH:0][100C:0](=O)N4CCCC(n5nc(-c6ccc(Oc7ccc(F)cc7F)cc6)c(C(N)=O)c5N)C4)n3)ccc2CC1C(=O)NC1CCCc2ccccc21)C(C)(C)C

> <Shape>
0.228

> <Color>
0.067

> <Negative vol penalty>
0.000

$$$$

  -OEChem-04052317173D

 85 93  0     1  0  0  0  0  0999 V2000
  -24.5675  -32.9635   26.6907 C   0  0  0  0  0  0  0  0  0  0  0  0
  -24.6194  -31.5955   26.9383 C   0  0  0  0  0  0  0  0  0  0  0  0
  -23.0414   -9.8699   19.9562 C   0  0  0  0  0  0  0  0  0  0  0  0
  -23.8013   -9.8770   22.2495 C   0  0  0  0  0  0  0  0  0  0  0  0
  -24.3877  -33.4288   25.3888 C   0  0  0  0  0  0  0  0  0  0  0  0
  -24.4905  -30.6919   25.8840 C   0  0  0  0  0  0  0  0  0  0  0  0
  -27.2863  -25.2727   25.3174 C   0  0  0  0  0  0  0  0  0  0  0  0
  -22.2773   -8.7316   20.2128 C   0  0  0  0  0  0  0  0  0  0  0  0
  -23.0371   -8.7387   22.5062 C   0  0  0  0  0  0  0  0  0  0  0  0
  -26.8665  -23.9689   25.5775 C   0  0  0  0  0  0  0  0  0  0  0  0
  -19.7953   -8.0017   23.1131 C   0  0  0  0  0  0  0  0  0  0  0  0
  -19.0378   -7.9821   24.2841 C   0  0  0  0  0  0  0  0  0  0  0  0
  -26.2754  -23.7022   23.2540 C   0  0  0  0  0  0  0  0  0  0  0  0
  -20.2447   -6.0274   25.0321 C   0  0  0  0  0  0  0  0  0  0  0  0
  -23.8035  -10.4426   20.9745 C   0  0  0  0  0  0  0  0  0  0  0  0
  -24.1900  -12.9605   20.8396 C   0  0  0  0  0  0  0  0  0  0  0  0
  -24.2662  -32.5306   24.3168 C   0  0  0  0  0  0  0  0  0  0  0  0
  -27.1935  -25.8056   24.0237 C   0  0  0  0  0  0  0  0  0  0  0  0
  -24.3076  -31.1456   24.5667 C   0  0  0  0  0  0  0  0  0  0  0  0
  -26.6971  -25.0121   22.9796 C   0  0  0  0  0  0  0  0  0  0  0  0
  -22.2750   -8.1660   21.4879 C   0  0  0  0  0  0  0  0  0  0  0  0
  -26.3582  -23.1844   24.5463 C   0  0  0  0  0  0  0  0  0  0  0  0
  -20.7775   -7.0341   22.9015 C   0  0  0  0  0  0  0  0  0  0  0  0
  -19.2625   -6.9950   25.2437 C   0  0  0  0  0  0  0  0  0  0  0  0
  -21.0022   -6.0470   23.8611 C   0  0  0  0  0  0  0  0  0  0  0  0
  -24.5935  -11.6181   20.7098 C   0  0  0  0  0  0  0  0  0  0  0  0
  -28.6201  -19.9222   22.5739 C   0  0  0  0  0  0  0  0  0  0  0  0
  -28.4695  -18.6688   22.0228 C   0  0  0  0  0  0  0  0  0  0  0  0
  -27.0909  -18.0758   23.7485 C   0  0  0  0  0  0  0  0  0  0  0  0
  -27.2422  -19.3290   24.2999 C   0  0  0  0  0  0  0  0  0  0  0  0
  -25.2952  -13.6884   20.4720 C   0  0  0  0  0  0  0  0  0  0  0  0
  -22.9288  -13.5012   21.2553 C   0  0  0  0  0  0  0  0  0  0  0  0
  -25.6287  -28.2389   22.7069 C   0  0  0  0  0  0  0  0  0  0  0  0
  -27.3558  -27.4236   20.0850 C   0  0  0  0  0  0  0  0  0  0  0  0
  -29.0808  -25.0196   18.3844 C   0  0  0  0  0  0  0  0  0  0  0  0
  -30.7961  -14.6113   20.6550 C   0  0  0  0  0  0  0  0  0  0  0  0
  -24.0260  -33.0802   22.9330 C   0  0  0  0  0  0  0  0  0  0  0  0
  -27.6755  -27.2047   23.7542 C   0  0  0  0  0  0  0  0  0  0  0  0
  -26.5955  -25.5303   21.5691 C   0  0  0  0  0  0  0  0  0  0  0  0
  -24.2730  -32.0627   21.8221 C   0  0  0  0  0  0  0  0  0  0  0  0
  -29.6165  -12.2333   18.2822 C   0  0  0  0  0  0  0  0  0  0  0  0
  -23.6105  -30.7311   22.1609 C   0  0  0  0  0  0  0  0  0  0  0  0
  -28.1741  -11.9676   18.7167 C   0  0  0  0  0  0  0  0  0  0  0  0
  -30.5374  -12.4449   19.4819 C   0  0  0  0  0  0  0  0  0  0  0  0
  -28.6489  -13.2177   20.8639 C   0  0  0  0  0  0  0  0  0  0  0  0
  -24.1965  -30.1345   23.4462 C   0  0  1  0  0  0  0  0  0  0  0  0
  -27.0568  -27.8191   22.5023 C   0  0  1  0  0  0  0  0  0  0  0  0
  -27.6718  -13.0534   19.6872 C   0  0  2  0  0  0  0  0  0  0  0  0
  -29.4718  -20.9594   21.9257 C   0  0  0  0  0  0  0  0  0  0  0  0
  -24.8896  -16.8764   23.7008 C   0  0  0  0  0  0  0  0  0  0  0  0
  -30.3473  -24.6408   16.2514 C   0  0  0  0  0  0  0  0  0  0  0  0
  -24.7226  -27.2768   18.5504 C   0  0  0  0  0  0  0  0  0  0  0  0
  -25.9194  -26.0043   16.7568 C   0  0  0  0  0  0  0  0  0  0  0  0
  -26.6044  -28.3421   17.2939 C   0  0  0  0  0  0  0  0  0  0  0  0
  -31.5769  -24.3864   19.8430 C   0  0  0  0  0  0  0  0  0  0  0  0
  -26.2388  -17.0389   24.3968 C   0  0  0  0  0  0  0  0  0  0  0  0
  -29.1518  -18.2912   20.7526 C   0  0  0  0  0  0  0  0  0  0  0  0
  -26.5524  -19.7111   25.5869 C   0  0  0  0  0  0  0  0  0  0  0  0
  -30.6400  -17.9209   20.9123 C   0  0  0  0  0  0  0  0  0  0  0  0
  -30.9000  -16.7677   21.8791 C   0  0  0  0  0  0  0  0  0  0  0  0
  -26.6078  -21.2118   25.8512 C   0  0  0  0  0  0  0  0  0  1  0  0
  -27.1522  -26.4853   18.9200 C   0  0  1  0  0  0  0  0  0  0  0  0
  -30.4434  -25.0405   17.7156 C   0  0  2  0  0  0  0  0  0  0  0  0
  -26.0996  -27.0177   17.9071 C   0  0  0  0  0  0  0  0  0  0  0  0
  -25.8565  -11.4974   20.2922 N   0  0  0  0  0  0  0  0  0  0  0  0
  -28.0092  -20.2748   23.7224 N   0  0  0  0  0  0  0  0  0  0  0  0
  -27.7021  -17.7230   22.6003 N   0  0  0  0  0  0  0  0  0  0  0  0
  -26.2561  -12.7734   20.1564 N   0  0  0  0  0  0  0  0  0  0  0  0
  -27.0737  -26.9065   21.3573 N   0  0  0  0  0  0  0  0  0  0  0  0
  -30.0051  -13.4882   20.3617 N   0  0  0  0  0  0  0  0  0  0  0  0
  -25.5292  -15.0155   20.3912 N   0  0  0  0  0  0  0  0  0  0  0  0
  -21.9010  -12.6121   21.5978 N   0  0  0  0  0  0  0  0  0  0  0  0
  -25.4839  -29.5288   23.1811 N   0  0  0  0  0  0  0  0  0  0  0  0
  -28.4731  -26.2567   18.3444 N   0  0  0  0  0  0  0  0  0  0  0  0
  -30.2135  -15.5556   21.4914 N   0  0  0  0  0  0  0  0  0  0  0  0
  -31.3712  -24.0966   18.4006 N   0  3  0  0  0  0  0  0  0  0  0  0
  -22.7144  -14.7362   21.3054 O   0  0  0  0  0  0  0  0  0  0  0  0
  -24.7250  -27.4515   22.4520 O   0  0  0  0  0  0  0  0  0  0  0  0
  -27.7573  -28.5709   19.8744 O   0  0  0  0  0  0  0  0  0  0  0  0
  -28.6017  -24.0063   18.8885 O   0  0  0  0  0  0  0  0  0  0  0  0
  -31.9350  -14.7640   20.2004 O   0  0  0  0  0  0  0  0  0  0  0  0
  -21.5293   -7.0554   21.7388 O   0  0  0  0  0  0  0  0  0  0  0  0
  -25.9471  -21.9117   24.7976 O   0  0  0  0  0  0  0  0  0  1  0  0
  -18.5360   -6.9772   26.3689 F   0  0  0  0  0  0  0  0  0  0  0  0
  -21.9452   -5.1155   23.6639 F   0  0  0  0  0  0  0  0  0  0  0  0
  1  2  1  0  0  0  0
  1  5  2  0  0  0  0
  2  6  2  0  0  0  0
  3  8  2  0  0  0  0
  3 15  1  0  0  0  0
  4  9  1  0  0  0  0
  4 15  2  0  0  0  0
  5 17  1  0  0  0  0
  6 19  1  0  0  0  0
  7 10  2  0  0  0  0
  7 18  1  0  0  0  0
  8 21  1  0  0  0  0
  9 21  2  0  0  0  0
 10 22  1  0  0  0  0
 11 12  2  0  0  0  0
 11 23  1  0  0  0  0
 12 24  1  0  0  0  0
 13 20  1  0  0  0  0
 13 22  2  0  0  0  0
 14 24  2  0  0  0  0
 14 25  1  0  0  0  0
 15 26  1  0  0  0  0
 16 26  1  0  0  0  0
 16 31  2  0  0  0  0
 16 32  1  0  0  0  0
 17 19  2  0  0  0  0
 17 37  1  0  0  0  0
 18 20  2  0  0  0  0
 18 38  1  0  0  0  0
 19 46  1  0  0  0  0
 20 39  1  0  0  0  0
 21 82  1  0  0  0  0
 22 83  1  0  0  0  0
 23 25  2  0  0  0  0
 23 82  1  0  0  0  0
 24 84  1  0  0  0  0
 25 85  1  0  0  0  0
 26 65  2  0  0  0  0
 27 28  1  0  0  0  0
 27 49  1  0  0  0  0
 27 66  2  0  0  0  0
 28 57  1  0  0  0  0
 28 67  2  0  0  0  0
 29 30  2  0  0  0  0
 29 56  1  0  0  0  0
 29 67  1  0  0  0  0
 30 58  1  0  0  0  0
 30 66  1  0  0  0  0
 31 68  1  0  0  0  0
 31 71  1  0  0  0  0
 32 72  1  0  0  0  0
 32 77  2  0  0  0  0
 33 47  1  0  0  0  0
 33 73  1  0  0  0  0
 33 78  2  0  0  0  0
 34 62  1  0  0  0  0
 34 69  1  0  0  0  0
 34 79  2  0  0  0  0
 35 63  1  0  0  0  0
 35 74  1  0  0  0  0
 35 80  2  0  0  0  0
 36 70  1  0  0  0  0
 36 75  1  0  0  0  0
 36 81  2  0  0  0  0
 37 40  1  0  0  0  0
 38 47  1  0  0  0  0
 39 69  1  0  0  0  0
 40 42  1  0  0  0  0
 41 43  1  0  0  0  0
 41 44  1  0  0  0  0
 42 46  1  0  0  0  0
 43 48  1  0  0  0  0
 44 70  1  0  0  0  0
 45 48  1  0  0  0  0
 45 70  1  0  0  0  0
 46 73  1  0  0  0  0
 47 69  1  0  0  0  0
 48 68  1  0  0  0  0
 50 56  1  0  0  0  0
 51 63  1  0  0  0  0
 52 64  1  0  0  0  0
 53 64  1  0  0  0  0
 54 64  1  0  0  0  0
 55 76  1  0  0  0  0
 57 59  1  0  0  0  0
 58 61  1  0  0  0  0
 59 60  1  0  0  0  0
 60 75  1  0  0  0  0
 61 83  1  0  0  0  0
 62 64  1  0  0  0  0
 62 74  1  0  0  0  0
 63 76  1  0  0  0  0
 65 68  1  0  0  0  0
M  CHG  1  76   1
M  ISO  4  36 100  61 101  75 100  83 101
M  END
> <Batch ID>
0044

> <Smiles>
CCc1nc(CCC[100NH:0][100C:0](=O)N2CCCC(n3nc(-c4ccc(Oc5ccc(F)cc5F)cc4)c(C(N)=O)c3N)C2)c(C)nc1C[101CH2:1][101O:1]c1ccc2c(c1)CN(C(=O)C(NC(=O)C(C)NC)C(C)(C)C)C(C(=O)NC1CCCc3ccccc31)C2

> <Shape>
0.302

> <Color>
0.194

> <Negative vol penalty>
0.000

$$$$

  -OEChem-04052317173D

 89 98  0     1  0  0  0  0  0999 V2000
  -20.1624  -29.7810   17.4342 C   0  0  0  0  0  0  0  0  0  0  0  0
  -21.0127  -28.7616   17.8505 C   0  0  0  0  0  0  0  0  0  0  0  0
  -23.1144  -10.8840   22.6725 C   0  0  0  0  0  0  0  0  0  0  0  0
  -23.3120   -9.8933   20.4779 C   0  0  0  0  0  0  0  0  0  0  0  0
  -19.9129  -30.8656   18.2740 C   0  0  0  0  0  0  0  0  0  0  0  0
  -21.6148  -28.8268   19.1065 C   0  0  0  0  0  0  0  0  0  0  0  0
  -22.8895  -24.1317   22.8263 C   0  0  0  0  0  0  0  0  0  0  0  0
  -22.2844   -9.8361   23.0709 C   0  0  0  0  0  0  0  0  0  0  0  0
  -22.4820   -8.8454   20.8762 C   0  0  0  0  0  0  0  0  0  0  0  0
  -24.0615  -23.4150   23.0643 C   0  0  0  0  0  0  0  0  0  0  0  0
  -22.7569   -5.9987   22.6767 C   0  0  0  0  0  0  0  0  0  0  0  0
  -23.1429   -4.7026   22.3352 C   0  0  0  0  0  0  0  0  0  0  0  0
  -24.5236  -24.8162   24.9728 C   0  0  0  0  0  0  0  0  0  0  0  0
  -21.0951   -4.4224   21.0840 C   0  0  0  0  0  0  0  0  0  0  0  0
  -28.7715  -20.2431   21.7516 C   0  0  0  0  0  0  0  0  0  0  0  0
  -23.6281  -10.9126   21.3760 C   0  0  0  0  0  0  0  0  0  0  0  0
  -24.1677  -13.3663   20.9332 C   0  0  0  0  0  0  0  0  0  0  0  0
  -20.5047  -30.9394   19.5448 C   0  0  0  0  0  0  0  0  0  0  0  0
  -22.5308  -25.2048   23.6546 C   0  0  0  0  0  0  0  0  0  0  0  0
  -21.3741  -29.9141   19.9636 C   0  0  0  0  0  0  0  0  0  0  0  0
  -23.3453  -25.5433   24.7447 C   0  0  0  0  0  0  0  0  0  0  0  0
  -21.9682   -8.8168   22.1728 C   0  0  0  0  0  0  0  0  0  0  0  0
  -24.8802  -23.7590   24.1360 C   0  0  0  0  0  0  0  0  0  0  0  0
  -21.5400   -6.5067   22.2219 C   0  0  0  0  0  0  0  0  0  0  0  0
  -22.3121   -3.9144   21.5388 C   0  0  0  0  0  0  0  0  0  0  0  0
  -20.7092   -5.7186   21.4256 C   0  0  0  0  0  0  0  0  0  0  0  0
  -24.4851  -11.9951   20.9637 C   0  0  0  0  0  0  0  0  0  0  0  0
  -28.8023  -18.8915   21.3590 C   0  0  0  0  0  0  0  0  0  0  0  0
  -28.0584  -20.2435   22.9255 C   0  0  0  0  0  0  0  0  0  0  0  0
  -25.3098  -13.9728   20.4704 C   0  0  0  0  0  0  0  0  0  0  0  0
  -22.9495  -14.0321   21.2912 C   0  0  0  0  0  0  0  0  0  0  0  0
  -22.0866  -28.3222   23.2210 C   0  0  0  0  0  0  0  0  0  0  0  0
  -21.1004  -28.2154   26.3094 C   0  0  0  0  0  0  0  0  0  0  0  0
  -20.4826  -27.5027   29.5892 C   0  0  0  0  0  0  0  0  0  0  0  0
  -30.8596  -14.5598   20.4919 C   0  0  0  0  0  0  0  0  0  0  0  0
  -20.2422  -32.1548   20.3984 C   0  0  0  0  0  0  0  0  0  0  0  0
  -21.2497  -25.9509   23.4003 C   0  0  0  0  0  0  0  0  0  0  0  0
  -22.9946  -26.6740   25.6757 C   0  0  0  0  0  0  0  0  0  0  0  0
  -20.6249  -31.9641   21.8638 C   0  0  0  0  0  0  0  0  0  0  0  0
  -27.0805  -15.2981   26.3260 C   0  0  0  0  0  0  0  0  0  0  0  0
  -25.7339  -15.2795   25.5999 C   0  0  0  0  0  0  0  0  0  0  0  0
  -28.2799  -15.6227   25.4351 C   0  0  0  0  0  0  0  0  0  0  0  0
  -25.2015  -16.6260   25.1053 C   0  0  0  0  0  0  0  0  0  0  0  0
  -28.8191  -17.0463   25.5676 C   0  0  0  0  0  0  0  0  0  0  0  0
  -29.4962  -11.9928   18.4356 C   0  0  0  0  0  0  0  0  0  0  0  0
  -22.0061  -31.3266   21.9763 C   0  0  0  0  0  0  0  0  0  0  0  0
  -25.9918  -17.2323   23.9419 C   0  0  0  0  0  0  0  0  0  0  0  0
  -27.8083  -18.1925   25.5765 C   0  0  0  0  0  0  0  0  0  0  0  0
  -28.0473  -11.8736   18.9117 C   0  0  0  0  0  0  0  0  0  0  0  0
  -30.4479  -12.2886   19.5926 C   0  0  0  0  0  0  0  0  0  0  0  0
  -28.6338  -13.3408   20.8872 C   0  0  0  0  0  0  0  0  0  0  0  0
  -22.0266  -29.9367   21.3288 C   0  0  1  0  0  0  0  0  0  0  0  0
  -21.2452  -27.3528   24.0020 C   0  0  1  0  0  0  0  0  0  0  0  0
  -26.9202  -18.3998   24.3349 C   0  0  0  0  0  0  0  0  0  0  0  0
  -27.6293  -13.0982   19.7477 C   0  0  2  0  0  0  0  0  0  0  0  0
  -19.7884  -28.5861   31.7437 C   0  0  0  0  0  0  0  0  0  0  0  0
  -23.8961  -29.3997   26.6118 C   0  0  0  0  0  0  0  0  0  0  0  0
  -23.4645  -29.6125   29.0688 C   0  0  0  0  0  0  0  0  0  0  0  0
  -22.0471  -30.8647   27.4422 C   0  0  0  0  0  0  0  0  0  0  0  0
  -18.0551  -25.8213   29.7873 C   0  0  0  0  0  0  0  0  0  0  0  0
  -29.4392  -18.3194   20.1609 C   0  0  0  0  0  0  0  0  0  0  0  0
  -27.6703  -21.3722   23.8493 C   0  0  0  0  0  0  0  0  0  0  0  0
  -30.9131  -17.8795   20.3471 C   0  0  0  0  0  0  0  0  0  0  0  0
  -31.1170  -16.8370   21.4444 C   0  0  0  0  0  0  0  0  0  0  0  0
  -26.3261  -21.9891   23.4783 C   0  0  0  0  0  0  0  0  0  1  0  0
  -21.7743  -28.3600   27.6525 C   0  0  1  0  0  0  0  0  0  0  0  0
  -19.3171  -27.8573   30.4949 C   0  0  2  0  0  0  0  0  0  0  0  0
  -22.7934  -29.5340   27.6809 C   0  0  0  0  0  0  0  0  0  0  0  0
  -25.7311  -11.7450   20.5529 N   0  0  0  0  0  0  0  0  0  0  0  0
  -28.1601  -18.0914   22.2142 N   0  0  0  0  0  0  0  0  0  0  0  0
  -27.7190  -18.9428   23.1559 N   0  0  0  0  0  0  0  0  0  0  0  0
  -26.2068  -12.9673   20.2597 N   0  0  0  0  0  0  0  0  0  0  0  0
  -21.7350  -27.3773   25.3817 N   0  0  0  0  0  0  0  0  0  0  0  0
  -29.9958  -13.4621   20.3440 N   0  0  0  0  0  0  0  0  0  0  0  0
  -25.6242  -15.2629   20.2270 N   0  0  0  0  0  0  0  0  0  0  0  0
  -21.9762  -14.2228   20.3009 N   0  0  0  0  0  0  0  0  0  0  0  0
  -21.4076  -28.9630   22.2023 N   0  0  0  0  0  0  0  0  0  0  0  0
  -20.7032  -28.4746   28.6364 N   0  0  0  0  0  0  0  0  0  0  0  0
  -30.3504  -15.6331   21.2127 N   0  0  0  0  0  0  0  0  0  0  0  0
  -18.5938  -26.6240   30.9153 N   0  3  0  0  0  0  0  0  0  0  0  0
  -22.7372  -14.4604   22.4510 O   0  0  0  0  0  0  0  0  0  0  0  0
  -23.2644  -28.4785   23.5215 O   0  0  0  0  0  0  0  0  0  0  0  0
  -20.0458  -28.8180   26.0939 O   0  0  0  0  0  0  0  0  0  0  0  0
  -21.1347  -26.4687   29.7168 O   0  0  0  0  0  0  0  0  0  0  0  0
  -31.9981  -14.5839   20.0123 O   0  0  0  0  0  0  0  0  0  0  0  0
  -21.1586   -7.7940   22.5612 O   0  0  0  0  0  0  0  0  0  0  0  0
  -26.0250  -23.0615   24.3702 O   0  0  0  0  0  0  0  0  0  1  0  0
  -22.6836   -2.6703   21.2097 F   0  0  0  0  0  0  0  0  0  0  0  0
  -19.5394   -6.2015   20.9848 F   0  0  0  0  0  0  0  0  0  0  0  0
  1  2  1  0  0  0  0
  1  5  2  0  0  0  0
  2  6  2  0  0  0  0
  3  8  2  0  0  0  0
  3 16  1  0  0  0  0
  4  9  1  0  0  0  0
  4 16  2  0  0  0  0
  5 18  1  0  0  0  0
  6 20  1  0  0  0  0
  7 10  2  0  0  0  0
  7 19  1  0  0  0  0
  8 22  1  0  0  0  0
  9 22  2  0  0  0  0
 10 23  1  0  0  0  0
 11 12  2  0  0  0  0
 11 24  1  0  0  0  0
 12 25  1  0  0  0  0
 13 21  1  0  0  0  0
 13 23  2  0  0  0  0
 14 25  2  0  0  0  0
 14 26  1  0  0  0  0
 15 28  1  0  0  0  0
 15 29  2  0  0  0  0
 16 27  1  0  0  0  0
 17 27  1  0  0  0  0
 17 30  2  0  0  0  0
 17 31  1  0  0  0  0
 18 20  2  0  0  0  0
 18 36  1  0  0  0  0
 19 21  2  0  0  0  0
 19 37  1  0  0  0  0
 20 52  1  0  0  0  0
 21 38  1  0  0  0  0
 22 86  1  0  0  0  0
 23 87  1  0  0  0  0
 24 26  2  0  0  0  0
 24 86  1  0  0  0  0
 25 88  1  0  0  0  0
 26 89  1  0  0  0  0
 27 69  2  0  0  0  0
 28 61  1  0  0  0  0
 28 70  2  0  0  0  0
 29 62  1  0  0  0  0
 29 71  1  0  0  0  0
 30 72  1  0  0  0  0
 30 75  1  0  0  0  0
 31 76  1  0  0  0  0
 31 81  2  0  0  0  0
 32 53  1  0  0  0  0
 32 77  1  0  0  0  0
 32 82  2  0  0  0  0
 33 66  1  0  0  0  0
 33 73  1  0  0  0  0
 33 83  2  0  0  0  0
 34 67  1  0  0  0  0
 34 78  1  0  0  0  0
 34 84  2  0  0  0  0
 35 74  1  0  0  0  0
 35 79  1  0  0  0  0
 35 85  2  0  0  0  0
 36 39  1  0  0  0  0
 37 53  1  0  0  0  0
 38 73  1  0  0  0  0
 39 46  1  0  0  0  0
 40 41  1  0  0  0  0
 40 42  1  0  0  0  0
 41 43  1  0  0  0  0
 42 44  1  0  0  0  0
 43 47  1  0  0  0  0
 44 48  1  0  0  0  0
 45 49  1  0  0  0  0
 45 50  1  0  0  0  0
 46 52  1  0  0  0  0
 47 54  1  0  0  0  0
 48 54  1  0  0  0  0
 49 55  1  0  0  0  0
 50 74  1  0  0  0  0
 51 55  1  0  0  0  0
 51 74  1  0  0  0  0
 52 77  1  0  0  0  0
 53 73  1  0  0  0  0
 54 71  1  0  0  0  0
 55 72  1  0  0  0  0
 56 67  1  0  0  0  0
 57 68  1  0  0  0  0
 58 68  1  0  0  0  0
 59 68  1  0  0  0  0
 60 80  1  0  0  0  0
 61 63  1  0  0  0  0
 62 65  1  0  0  0  0
 63 64  1  0  0  0  0
 64 79  1  0  0  0  0
 65 87  1  0  0  0  0
 66 68  1  0  0  0  0
 66 78  1  0  0  0  0
 67 80  1  0  0  0  0
 69 72  1  0  0  0  0
 70 71  1  0  0  0  0
M  CHG  1  80   1
M  ISO  4  35 100  65 101  79 100  87 101
M  END
> <Batch ID>
0044

> <Smiles>
CNC(C)C(=O)NC(C(=O)N1Cc2cc([101O:1][101CH2:1]Cc3cc(CCC[100NH:0][100C:0](=O)N4CCCC(n5nc(-c6ccc(Oc7ccc(F)cc7F)cc6)c(C(N)=O)c5N)C4)nn3C3CCCCCCC3)ccc2CC1C(=O)NC1CCCc2ccccc21)C(C)(C)C

> <Shape>
0.211

> <Color>
0.169

> <Negative vol penalty>
0.000

$$$$

  -OEChem-04052317173D

 83 91  0     1  0  0  0  0  0999 V2000
  -15.9956  -26.5217   23.5779 C   0  0  0  0  0  0  0  0  0  0  0  0
  -16.4611  -25.2278   23.3671 C   0  0  0  0  0  0  0  0  0  0  0  0
  -30.2825  -19.5668   20.0397 C   0  0  0  0  0  0  0  0  0  0  0  0
  -27.9017  -19.6266   20.4461 C   0  0  0  0  0  0  0  0  0  0  0  0
  -16.8415  -27.6092   23.3641 C   0  0  0  0  0  0  0  0  0  0  0  0
  -17.7726  -25.0206   22.9412 C   0  0  0  0  0  0  0  0  0  0  0  0
  -21.4441  -20.3605   24.4607 C   0  0  0  0  0  0  0  0  0  0  0  0
  -30.2209  -20.8471   19.4898 C   0  0  0  0  0  0  0  0  0  0  0  0
  -27.8400  -20.9070   19.8962 C   0  0  0  0  0  0  0  0  0  0  0  0
  -21.7746  -19.1747   23.8061 C   0  0  0  0  0  0  0  0  0  0  0  0
  -29.3027  -22.2568   16.5582 C   0  0  0  0  0  0  0  0  0  0  0  0
  -29.9907  -22.4832   15.3662 C   0  0  0  0  0  0  0  0  0  0  0  0
  -23.7651  -20.2196   22.9313 C   0  0  0  0  0  0  0  0  0  0  0  0
  -24.6055  -14.0515   21.3956 C   0  0  0  0  0  0  0  0  0  0  0  0
  -31.3188  -24.1823   16.4554 C   0  0  0  0  0  0  0  0  0  0  0  0
  -29.1229  -18.9565   20.5178 C   0  0  0  0  0  0  0  0  0  0  0  0
  -29.4075  -17.2970   22.4343 C   0  0  0  0  0  0  0  0  0  0  0  0
  -18.1670  -27.4148   22.9447 C   0  0  0  0  0  0  0  0  0  0  0  0
  -22.2673  -21.4899   24.3465 C   0  0  0  0  0  0  0  0  0  0  0  0
  -18.6367  -26.1066   22.7202 C   0  0  0  0  0  0  0  0  0  0  0  0
  -23.4441  -21.4177   23.5876 C   0  0  0  0  0  0  0  0  0  0  0  0
  -24.1517  -15.1458   22.1235 C   0  0  0  0  0  0  0  0  0  0  0  0
  -23.8131  -13.5191   20.3847 C   0  0  0  0  0  0  0  0  0  0  0  0
  -28.9996  -21.5173   19.4181 C   0  0  0  0  0  0  0  0  0  0  0  0
  -22.9337  -19.1051   23.0389 C   0  0  0  0  0  0  0  0  0  0  0  0
  -29.6226  -22.9933   17.6988 C   0  0  0  0  0  0  0  0  0  0  0  0
  -30.9988  -23.4459   15.3148 C   0  0  0  0  0  0  0  0  0  0  0  0
  -30.6307  -23.9560   17.6474 C   0  0  0  0  0  0  0  0  0  0  0  0
  -29.1859  -17.6336   21.0855 C   0  0  0  0  0  0  0  0  0  0  0  0
  -22.9083  -15.6669   21.8038 C   0  0  0  0  0  0  0  0  0  0  0  0
  -22.5847  -14.1128   20.1430 C   0  0  0  0  0  0  0  0  0  0  0  0
  -29.3757  -15.9241   22.4553 C   0  0  0  0  0  0  0  0  0  0  0  0
  -29.6227  -18.1492   23.5671 C   0  0  0  0  0  0  0  0  0  0  0  0
  -21.8947  -24.4304   23.1983 C   0  0  0  0  0  0  0  0  0  0  0  0
  -24.8634  -24.8679   24.4302 C   0  0  0  0  0  0  0  0  0  0  0  0
  -27.8209  -23.4845   25.4232 C   0  0  0  0  0  0  0  0  0  0  0  0
  -26.7522  -11.9385   19.1628 C   0  0  0  0  0  0  0  0  0  0  0  0
  -19.0297  -28.6235   22.6811 C   0  0  0  0  0  0  0  0  0  0  0  0
  -21.9106  -22.7534   25.0806 C   0  0  0  0  0  0  0  0  0  0  0  0
  -24.3722  -22.5959   23.4495 C   0  0  0  0  0  0  0  0  0  0  0  0
  -20.5190  -28.3008   22.5908 C   0  0  0  0  0  0  0  0  0  0  0  0
  -30.2360  -12.1070   19.7165 C   0  0  0  0  0  0  0  0  0  0  0  0
  -20.7483  -27.0820   21.7027 C   0  0  0  0  0  0  0  0  0  0  0  0
  -30.3878  -13.5273   20.2593 C   0  0  0  0  0  0  0  0  0  0  0  0
  -29.2195  -12.0334   18.5756 C   0  0  0  0  0  0  0  0  0  0  0  0
  -28.0493  -14.0273   19.4574 C   0  0  0  0  0  0  0  0  0  0  0  0
  -20.0605  -25.8400   22.2821 C   0  0  1  0  0  0  0  0  0  0  0  0
  -22.5548  -23.9974   24.4767 C   0  0  1  0  0  0  0  0  0  0  0  0
  -29.0205  -14.1181   20.6445 C   0  0  2  0  0  0  0  0  0  0  0  0
  -24.9959  -15.7209   23.2077 C   0  0  0  0  0  0  0  0  0  0  0  0
  -21.6927  -13.5834   19.0682 C   0  0  0  0  0  0  0  0  0  0  0  0
  -24.9234  -12.6422   16.5299 C   0  0  0  0  0  0  0  0  0  0  0  0
  -30.0703  -24.0993   26.3506 C   0  0  0  0  0  0  0  0  0  0  0  0
  -25.7216  -25.8691   21.6786 C   0  0  0  0  0  0  0  0  0  0  0  0
  -28.1033  -25.5604   22.3861 C   0  0  0  0  0  0  0  0  0  0  0  0
  -26.6433  -27.1788   23.5994 C   0  0  0  0  0  0  0  0  0  0  0  0
  -27.3802  -21.8785   27.8697 C   0  0  0  0  0  0  0  0  0  0  0  0
  -24.2933  -12.3464   19.6013 C   0  0  0  0  0  0  0  0  0  0  0  0
  -22.3661  -16.8467   22.5558 C   0  0  0  0  0  0  0  0  0  1  0  0
  -25.4412  -13.4386   17.7105 C   0  0  0  0  0  0  0  0  0  0  0  0
  -26.2714  -24.6978   23.9128 C   0  0  1  0  0  0  0  0  0  0  0  0
  -28.6487  -23.6725   26.6818 C   0  0  2  0  0  0  0  0  0  0  0  0
  -26.6666  -25.8047   22.8951 C   0  0  0  0  0  0  0  0  0  0  0  0
  -29.0253  -16.5609   20.3060 N   0  0  0  0  0  0  0  0  0  0  0  0
  -22.1102  -15.1768   20.8289 N   0  0  0  0  0  0  0  0  0  0  0  0
  -29.1463  -15.5368   21.1678 N   0  0  0  0  0  0  0  0  0  0  0  0
  -23.9768  -23.8107   24.1811 N   0  0  0  0  0  0  0  0  0  0  0  0
  -27.9453  -12.6501   18.9690 N   0  0  0  0  0  0  0  0  0  0  0  0
  -29.5219  -15.0223   23.4492 N   0  0  0  0  0  0  0  0  0  0  0  0
  -29.6244  -19.5367   23.3686 N   0  0  0  0  0  0  0  0  0  0  0  0
  -20.8348  -25.2985   23.3783 N   0  0  0  0  0  0  0  0  0  0  0  0
  -27.1330  -24.6316   25.0883 N   0  0  0  0  0  0  0  0  0  0  0  0
  -25.5510  -12.6171   18.9077 N   0  0  0  0  0  0  0  0  0  0  0  0
  -28.7082  -22.4013   27.4573 N   0  3  0  0  0  0  0  0  0  0  0  0
  -29.8243  -17.6935   24.7182 O   0  0  0  0  0  0  0  0  0  0  0  0
  -22.3168  -24.0092   22.1276 O   0  0  0  0  0  0  0  0  0  0  0  0
  -24.5633  -25.8977   25.0394 O   0  0  0  0  0  0  0  0  0  0  0  0
  -27.7908  -22.4270   24.7976 O   0  0  0  0  0  0  0  0  0  0  0  0
  -26.7580  -10.7631   19.5507 O   0  0  0  0  0  0  0  0  0  0  0  0
  -28.9391  -22.7668   18.8817 O   0  0  0  0  0  0  0  0  0  0  0  0
  -23.2583  -17.9491   22.3983 O   0  0  0  0  0  0  0  0  0  1  0  0
  -31.6605  -23.6621   14.1704 F   0  0  0  0  0  0  0  0  0  0  0  0
  -30.9433  -24.6658   18.7403 F   0  0  0  0  0  0  0  0  0  0  0  0
  1  2  1  0  0  0  0
  1  5  2  0  0  0  0
  2  6  2  0  0  0  0
  3  8  2  0  0  0  0
  3 16  1  0  0  0  0
  4  9  1  0  0  0  0
  4 16  2  0  0  0  0
  5 18  1  0  0  0  0
  6 20  1  0  0  0  0
  7 10  2  0  0  0  0
  7 19  1  0  0  0  0
  8 24  1  0  0  0  0
  9 24  2  0  0  0  0
 10 25  1  0  0  0  0
 11 12  2  0  0  0  0
 11 26  1  0  0  0  0
 12 27  1  0  0  0  0
 13 21  1  0  0  0  0
 13 25  2  0  0  0  0
 14 22  2  0  0  0  0
 14 23  1  0  0  0  0
 15 27  2  0  0  0  0
 15 28  1  0  0  0  0
 16 29  1  0  0  0  0
 17 29  1  0  0  0  0
 17 32  2  0  0  0  0
 17 33  1  0  0  0  0
 18 20  2  0  0  0  0
 18 38  1  0  0  0  0
 19 21  2  0  0  0  0
 19 39  1  0  0  0  0
 20 47  1  0  0  0  0
 21 40  1  0  0  0  0
 22 30  1  0  0  0  0
 22 50  1  0  0  0  0
 23 31  2  0  0  0  0
 23 58  1  0  0  0  0
 24 80  1  0  0  0  0
 25 81  1  0  0  0  0
 26 28  2  0  0  0  0
 26 80  1  0  0  0  0
 27 82  1  0  0  0  0
 28 83  1  0  0  0  0
 29 64  2  0  0  0  0
 30 59  1  0  0  0  0
 30 65  2  0  0  0  0
 31 51  1  0  0  0  0
 31 65  1  0  0  0  0
 32 66  1  0  0  0  0
 32 69  1  0  0  0  0
 33 70  1  0  0  0  0
 33 75  2  0  0  0  0
 34 48  1  0  0  0  0
 34 71  1  0  0  0  0
 34 76  2  0  0  0  0
 35 61  1  0  0  0  0
 35 67  1  0  0  0  0
 35 77  2  0  0  0  0
 36 62  1  0  0  0  0
 36 72  1  0  0  0  0
 36 78  2  0  0  0  0
 37 68  1  0  0  0  0
 37 73  1  0  0  0  0
 37 79  2  0  0  0  0
 38 41  1  0  0  0  0
 39 48  1  0  0  0  0
 40 67  1  0  0  0  0
 41 43  1  0  0  0  0
 42 44  1  0  0  0  0
 42 45  1  0  0  0  0
 43 47  1  0  0  0  0
 44 49  1  0  0  0  0
 45 68  1  0  0  0  0
 46 49  1  0  0  0  0
 46 68  1  0  0  0  0
 47 71  1  0  0  0  0
 48 67  1  0  0  0  0
 49 66  1  0  0  0  0
 52 60  1  0  0  0  0
 53 62  1  0  0  0  0
 54 63  1  0  0  0  0
 55 63  1  0  0  0  0
 56 63  1  0  0  0  0
 57 74  1  0  0  0  0
 58 73  1  0  0  0  0
 59 81  1  0  0  0  0
 60 73  1  0  0  0  0
 61 63  1  0  0  0  0
 61 72  1  0  0  0  0
 62 74  1  0  0  0  0
 64 66  1  0  0  0  0
M  CHG  1  74   1
M  ISO  4  37 100  59 101  73 100  81 101
M  END
> <Batch ID>
0044

> <Smiles>
CC[100N:0](Cc1cc(C)c([101CH2:1][101O:1]c2ccc3c(c2)CN(C(=O)C(NC(=O)C(C)NC)C(C)(C)C)C(C(=O)NC2CCCc4ccccc42)C3)nc1C)[100C:0](=O)N1CCCC(n2nc(-c3ccc(Oc4ccc(F)cc4F)cc3)c(C(N)=O)c2N)C1

> <Shape>
0.195

> <Color>
0.067

> <Negative vol penalty>
0.000

$$$$

  -OEChem-04052317173D

 83 91  0     1  0  0  0  0  0999 V2000
  -31.3239  -25.9805   17.9478 C   0  0  0  0  0  0  0  0  0  0  0  0
  -30.5683  -25.0325   18.6303 C   0  0  0  0  0  0  0  0  0  0  0  0
  -28.2918  -16.1422   18.9568 C   0  0  0  0  0  0  0  0  0  0  0  0
  -28.2979  -16.4125   21.3576 C   0  0  0  0  0  0  0  0  0  0  0  0
  -31.2333  -27.3268   18.2991 C   0  0  0  0  0  0  0  0  0  0  0  0
  -29.7225  -25.4301   19.6652 C   0  0  0  0  0  0  0  0  0  0  0  0
  -24.3052  -22.9829   21.1383 C   0  0  0  0  0  0  0  0  0  0  0  0
  -29.2106  -17.1848   18.8370 C   0  0  0  0  0  0  0  0  0  0  0  0
  -29.2167  -17.4551   21.2379 C   0  0  0  0  0  0  0  0  0  0  0  0
  -23.9271  -22.0578   22.1104 C   0  0  0  0  0  0  0  0  0  0  0  0
  -29.1702  -20.7350   20.4188 C   0  0  0  0  0  0  0  0  0  0  0  0
  -28.9413  -21.8897   21.1671 C   0  0  0  0  0  0  0  0  0  0  0  0
  -23.3053  -23.8661   23.5810 C   0  0  0  0  0  0  0  0  0  0  0  0
  -31.0592  -21.5830   22.2883 C   0  0  0  0  0  0  0  0  0  0  0  0
  -19.7159  -20.5575   26.4600 C   0  0  0  0  0  0  0  0  0  0  0  0
  -27.8354  -15.7561   20.2170 C   0  0  0  0  0  0  0  0  0  0  0  0
  -27.1696  -13.3092   20.4951 C   0  0  0  0  0  0  0  0  0  0  0  0
  -30.3787  -27.7422   19.3324 C   0  0  0  0  0  0  0  0  0  0  0  0
  -24.1963  -24.3591   21.3848 C   0  0  0  0  0  0  0  0  0  0  0  0
  -29.6215  -26.7830   20.0314 C   0  0  0  0  0  0  0  0  0  0  0  0
  -23.6803  -24.8066   22.6094 C   0  0  0  0  0  0  0  0  0  0  0  0
  -29.6731  -17.8413   19.9776 C   0  0  0  0  0  0  0  0  0  0  0  0
  -23.4297  -22.4993   23.3330 C   0  0  0  0  0  0  0  0  0  0  0  0
  -30.3436  -20.0043   20.6054 C   0  0  0  0  0  0  0  0  0  0  0  0
  -29.8858  -22.3137   22.1018 C   0  0  0  0  0  0  0  0  0  0  0  0
  -31.2881  -20.4283   21.5401 C   0  0  0  0  0  0  0  0  0  0  0  0
  -26.8858  -14.6795   20.3413 C   0  0  0  0  0  0  0  0  0  0  0  0
  -21.3771  -19.5704   25.5676 C   0  0  0  0  0  0  0  0  0  0  0  0
  -20.2934  -18.7603   25.3228 C   0  0  0  0  0  0  0  0  0  0  0  0
  -25.9362  -12.7091   20.5666 C   0  0  0  0  0  0  0  0  0  0  0  0
  -28.4349  -12.6388   20.5669 C   0  0  0  0  0  0  0  0  0  0  0  0
  -26.2515  -26.7785   21.5468 C   0  0  0  0  0  0  0  0  0  0  0  0
  -23.5467  -28.5475   21.8242 C   0  0  0  0  0  0  0  0  0  0  0  0
  -20.2494  -28.6821   22.6941 C   0  0  0  0  0  0  0  0  0  0  0  0
  -20.5308  -14.6836   22.2198 C   0  0  0  0  0  0  0  0  0  0  0  0
  -30.3501  -29.2027   19.7076 C   0  0  0  0  0  0  0  0  0  0  0  0
  -24.5834  -25.3439   20.3158 C   0  0  0  0  0  0  0  0  0  0  0  0
  -23.5245  -26.2730   22.9159 C   0  0  0  0  0  0  0  0  0  0  0  0
  -29.1485  -29.5873   20.5670 C   0  0  0  0  0  0  0  0  0  0  0  0
  -21.4187  -13.2471   19.0854 C   0  0  0  0  0  0  0  0  0  0  0  0
  -28.9558  -28.5803   21.6965 C   0  0  0  0  0  0  0  0  0  0  0  0
  -22.9462  -13.3276   19.0657 C   0  0  0  0  0  0  0  0  0  0  0  0
  -20.7981  -14.4646   19.7669 C   0  0  0  0  0  0  0  0  0  0  0  0
  -22.8384  -14.8255   21.1013 C   0  0  0  0  0  0  0  0  0  0  0  0
  -28.6740  -27.1781   21.1433 C   0  0  1  0  0  0  0  0  0  0  0  0
  -24.9117  -26.7274   20.8685 C   0  0  1  0  0  0  0  0  0  0  0  0
  -23.5119  -13.5930   20.4739 C   0  0  2  0  0  0  0  0  0  0  0  0
  -17.1596  -19.2055   24.5979 C   0  0  0  0  0  0  0  0  0  0  0  0
  -18.3162  -30.2747   22.8482 C   0  0  0  0  0  0  0  0  0  0  0  0
  -24.7437  -29.7515   24.3595 C   0  0  0  0  0  0  0  0  0  0  0  0
  -22.4580  -30.5751   24.9640 C   0  0  0  0  0  0  0  0  0  0  0  0
  -23.5652  -31.3897   22.8824 C   0  0  0  0  0  0  0  0  0  0  0  0
  -18.6572  -27.1197   20.7492 C   0  0  0  0  0  0  0  0  0  0  0  0
  -22.8160  -19.3621   25.1619 C   0  0  0  0  0  0  0  0  0  0  0  0
  -20.1675  -17.4740   24.6147 C   0  0  0  0  0  0  0  0  0  0  0  0
  -20.6041  -16.2313   25.4297 C   0  0  0  0  0  0  0  0  0  0  0  0
  -17.8609  -18.9683   25.9243 C   0  0  0  0  0  0  0  0  0  0  0  0
  -20.4258  -14.9076   24.6893 C   0  0  0  0  0  0  0  0  0  0  0  0
  -23.2094  -20.2163   23.9616 C   0  0  0  0  0  0  0  0  0  1  0  0
  -22.6911  -29.0192   22.9751 C   0  0  1  0  0  0  0  0  0  0  0  0
  -19.0416  -29.2597   21.9785 C   0  0  2  0  0  0  0  0  0  0  0  0
  -23.3691  -30.1562   23.7905 C   0  0  0  0  0  0  0  0  0  0  0  0
  -21.0110  -20.6873   26.2761 N   0  0  0  0  0  0  0  0  0  0  0  0
  -25.5751  -14.9350   20.3164 N   0  0  0  0  0  0  0  0  0  0  0  0
  -19.2367  -19.4055   25.9009 N   0  0  0  0  0  0  0  0  0  0  0  0
  -25.0242  -13.7171   20.4553 N   0  0  0  0  0  0  0  0  0  0  0  0
  -23.9227  -27.1969   21.8409 N   0  0  0  0  0  0  0  0  0  0  0  0
  -21.3764  -14.6598   21.0986 N   0  0  0  0  0  0  0  0  0  0  0  0
  -25.5537  -11.4228   20.7131 N   0  0  0  0  0  0  0  0  0  0  0  0
  -29.6040  -13.4066   20.4767 N   0  0  0  0  0  0  0  0  0  0  0  0
  -27.3006  -27.0770   20.6983 N   0  0  0  0  0  0  0  0  0  0  0  0
  -21.4001  -29.3833   22.4015 N   0  0  0  0  0  0  0  0  0  0  0  0
  -21.1608  -14.8668   23.4447 N   0  0  0  0  0  0  0  0  0  0  0  0
  -18.0831  -28.1756   21.6224 N   0  3  0  0  0  0  0  0  0  0  0  0
  -28.5261  -11.3938   20.6904 O   0  0  0  0  0  0  0  0  0  0  0  0
  -26.3276  -26.5645   22.7510 O   0  0  0  0  0  0  0  0  0  0  0  0
  -23.8636  -29.3462   20.9392 O   0  0  0  0  0  0  0  0  0  0  0  0
  -20.1785  -27.7087   23.4411 O   0  0  0  0  0  0  0  0  0  0  0  0
  -19.3056  -14.5460   22.1362 O   0  0  0  0  0  0  0  0  0  0  0  0
  -30.5698  -18.8585   19.8611 O   0  0  0  0  0  0  0  0  0  0  0  0
  -23.0605  -21.5985   24.2838 O   0  0  0  0  0  0  0  0  0  1  0  0
  -29.6665  -23.4234   22.8192 F   0  0  0  0  0  0  0  0  0  0  0  0
  -32.4179  -19.7311   21.7229 F   0  0  0  0  0  0  0  0  0  0  0  0
  1  2  1  0  0  0  0
  1  5  2  0  0  0  0
  2  6  2  0  0  0  0
  3  8  2  0  0  0  0
  3 16  1  0  0  0  0
  4  9  1  0  0  0  0
  4 16  2  0  0  0  0
  5 18  1  0  0  0  0
  6 20  1  0  0  0  0
  7 10  2  0  0  0  0
  7 19  1  0  0  0  0
  8 22  1  0  0  0  0
  9 22  2  0  0  0  0
 10 23  1  0  0  0  0
 11 12  2  0  0  0  0
 11 24  1  0  0  0  0
 12 25  1  0  0  0  0
 13 21  1  0  0  0  0
 13 23  2  0  0  0  0
 14 25  2  0  0  0  0
 14 26  1  0  0  0  0
 15 63  2  0  0  0  0
 15 65  1  0  0  0  0
 16 27  1  0  0  0  0
 17 27  1  0  0  0  0
 17 30  2  0  0  0  0
 17 31  1  0  0  0  0
 18 20  2  0  0  0  0
 18 36  1  0  0  0  0
 19 21  2  0  0  0  0
 19 37  1  0  0  0  0
 20 45  1  0  0  0  0
 21 38  1  0  0  0  0
 22 80  1  0  0  0  0
 23 81  1  0  0  0  0
 24 26  2  0  0  0  0
 24 80  1  0  0  0  0
 25 82  1  0  0  0  0
 26 83  1  0  0  0  0
 27 64  2  0  0  0  0
 28 29  2  0  0  0  0
 28 54  1  0  0  0  0
 28 63  1  0  0  0  0
 29 55  1  0  0  0  0
 29 65  1  0  0  0  0
 30 66  1  0  0  0  0
 30 69  1  0  0  0  0
 31 70  1  0  0  0  0
 31 75  2  0  0  0  0
 32 46  1  0  0  0  0
 32 71  1  0  0  0  0
 32 76  2  0  0  0  0
 33 60  1  0  0  0  0
 33 67  1  0  0  0  0
 33 77  2  0  0  0  0
 34 61  1  0  0  0  0
 34 72  1  0  0  0  0
 34 78  2  0  0  0  0
 35 68  1  0  0  0  0
 35 73  1  0  0  0  0
 35 79  2  0  0  0  0
 36 39  1  0  0  0  0
 37 46  1  0  0  0  0
 38 67  1  0  0  0  0
 39 41  1  0  0  0  0
 40 42  1  0  0  0  0
 40 43  1  0  0  0  0
 41 45  1  0  0  0  0
 42 47  1  0  0  0  0
 43 68  1  0  0  0  0
 44 47  1  0  0  0  0
 44 68  1  0  0  0  0
 45 71  1  0  0  0  0
 46 67  1  0  0  0  0
 47 66  1  0  0  0  0
 48 57  1  0  0  0  0
 49 61  1  0  0  0  0
 50 62  1  0  0  0  0
 51 62  1  0  0  0  0
 52 62  1  0  0  0  0
 53 74  1  0  0  0  0
 54 59  1  0  0  0  0
 55 56  1  0  0  0  0
 56 58  1  0  0  0  0
 57 65  1  0  0  0  0
 58 73  1  0  0  0  0
 59 81  1  0  0  0  0
 60 62  1  0  0  0  0
 60 72  1  0  0  0  0
 61 74  1  0  0  0  0
 64 66  1  0  0  0  0
M  CHG  1  74   1
M  ISO  4  35 100  59 101  73 100  81 101
M  END
> <Batch ID>
0044

> <Smiles>
CCn1cnc(C[101CH2:1][101O:1]c2ccc3c(c2)CN(C(=O)C(NC(=O)C(C)NC)C(C)(C)C)C(C(=O)NC2CCCc4ccccc42)C3)c1CCC[100NH:0][100C:0](=O)N1CCCC(n2nc(-c3ccc(Oc4ccc(F)cc4F)cc3)c(C(N)=O)c2N)C1

> <Shape>
0.231

> <Color>
0.058

> <Negative vol penalty>
0.000

$$$$

  -OEChem-04052317173D

 88 96  0     1  0  0  0  0  0999 V2000
  -26.8824  -35.1124   24.3683 C   0  0  0  0  0  0  0  0  0  0  0  0
  -27.2887  -33.8436   23.9679 C   0  0  0  0  0  0  0  0  0  0  0  0
  -23.0580  -17.3868   20.9399 C   0  0  0  0  0  0  0  0  0  0  0  0
  -24.8681  -16.2942   19.7707 C   0  0  0  0  0  0  0  0  0  0  0  0
  -25.5772  -35.3170   24.8138 C   0  0  0  0  0  0  0  0  0  0  0  0
  -26.3902  -32.7782   24.0137 C   0  0  0  0  0  0  0  0  0  0  0  0
  -26.5433  -29.9263   19.8318 C   0  0  0  0  0  0  0  0  0  0  0  0
  -22.3803  -16.1708   21.0269 C   0  0  0  0  0  0  0  0  0  0  0  0
  -24.1904  -15.0782   19.8578 C   0  0  0  0  0  0  0  0  0  0  0  0
  -27.5983  -29.0222   19.7160 C   0  0  0  0  0  0  0  0  0  0  0  0
  -23.6561  -12.6874   22.1856 C   0  0  0  0  0  0  0  0  0  0  0  0
  -24.3898  -11.5640   22.5668 C   0  0  0  0  0  0  0  0  0  0  0  0
  -26.1406  -27.2388   20.4327 C   0  0  0  0  0  0  0  0  0  0  0  0
  -23.8375  -10.4928   20.4729 C   0  0  0  0  0  0  0  0  0  0  0  0
  -24.3020  -17.4485   20.3117 C   0  0  0  0  0  0  0  0  0  0  0  0
  -25.9207  -19.2345   21.1471 C   0  0  0  0  0  0  0  0  0  0  0  0
  -24.6594  -34.2555   24.8560 C   0  0  0  0  0  0  0  0  0  0  0  0
  -25.2798  -29.4946   20.2602 C   0  0  0  0  0  0  0  0  0  0  0  0
  -25.0718  -32.9684   24.4615 C   0  0  0  0  0  0  0  0  0  0  0  0
  -25.0706  -28.1389   20.5507 C   0  0  0  0  0  0  0  0  0  0  0  0
  -22.9464  -15.0165   20.4859 C   0  0  0  0  0  0  0  0  0  0  0  0
  -27.3978  -27.6787   20.0192 C   0  0  0  0  0  0  0  0  0  0  0  0
  -23.0129  -12.7134   20.9481 C   0  0  0  0  0  0  0  0  0  0  0  0
  -24.4806  -10.4668   21.7104 C   0  0  0  0  0  0  0  0  0  0  0  0
  -23.1037  -11.6161   20.0917 C   0  0  0  0  0  0  0  0  0  0  0  0
  -25.0023  -18.7044   20.2210 C   0  0  0  0  0  0  0  0  0  0  0  0
  -31.1839  -23.5101   20.4270 C   0  0  0  0  0  0  0  0  0  0  0  0
  -31.0454  -23.5628   19.0600 C   0  0  0  0  0  0  0  0  0  0  0  0
  -26.2985  -20.4386   20.6051 C   0  0  0  0  0  0  0  0  0  0  0  0
  -29.4062  -24.6275   20.0779 C   0  0  0  0  0  0  0  0  0  0  0  0
  -26.3902  -18.6873   22.3863 C   0  0  0  0  0  0  0  0  0  0  0  0
  -23.4072  -30.1527   22.7429 C   0  0  0  0  0  0  0  0  0  0  0  0
  -21.2958  -28.2735   21.1514 C   0  0  0  0  0  0  0  0  0  0  0  0
  -20.7759  -25.7816   18.8783 C   0  0  0  0  0  0  0  0  0  0  0  0
  -26.4076  -22.5306   14.9959 C   0  0  0  0  0  0  0  0  0  0  0  0
  -23.2730  -34.5155   25.3898 C   0  0  0  0  0  0  0  0  0  0  0  0
  -24.1452  -30.4777   20.3543 C   0  0  0  0  0  0  0  0  0  0  0  0
  -23.7279  -27.6211   20.9952 C   0  0  0  0  0  0  0  0  0  0  0  0
  -22.2740  -33.4113   25.0536 C   0  0  0  0  0  0  0  0  0  0  0  0
  -24.6848  -23.9417   17.7740 C   0  0  0  0  0  0  0  0  0  0  0  0
  -22.8779  -32.0399   25.3391 C   0  0  0  0  0  0  0  0  0  0  0  0
  -24.6537  -22.8073   18.7997 C   0  0  0  0  0  0  0  0  0  0  0  0
  -24.5309  -23.4176   16.3479 C   0  0  0  0  0  0  0  0  0  0  0  0
  -25.4578  -21.2276   16.9951 C   0  0  0  0  0  0  0  0  0  0  0  0
  -24.1192  -31.7927   24.4733 C   0  0  1  0  0  0  0  0  0  0  0  0
  -23.0339  -30.0194   21.2936 C   0  0  1  0  0  0  0  0  0  0  0  0
  -25.6656  -21.7016   18.4437 C   0  0  2  0  0  0  0  0  0  0  0  0
  -32.2423  -22.8588   21.2149 C   0  0  0  0  0  0  0  0  0  0  0  0
  -18.9441  -24.4359   17.8150 C   0  0  0  0  0  0  0  0  0  0  0  0
  -21.0207  -26.6319   23.7087 C   0  0  0  0  0  0  0  0  0  0  0  0
  -19.9678  -24.8146   22.3460 C   0  0  0  0  0  0  0  0  0  0  0  0
  -18.8710  -27.0497   22.5010 C   0  0  0  0  0  0  0  0  0  0  0  0
  -32.3869  -19.5671   14.3967 C   0  0  0  0  0  0  0  0  0  0  0  0
  -31.4871  -18.8681   16.6106 C   0  0  0  0  0  0  0  0  0  0  0  0
  -29.3257  -24.6164   17.5692 C   0  0  0  0  0  0  0  0  0  0  0  0
  -21.4678  -26.7619   16.1728 C   0  0  0  0  0  0  0  0  0  0  0  0
  -31.8677  -23.0146   17.9665 C   0  0  0  0  0  0  0  0  0  0  0  0
  -28.1499  -25.4329   20.2344 C   0  0  0  0  0  0  0  0  0  1  0  0
  -29.7324  -21.4642   14.2702 C   0  0  0  0  0  0  0  0  0  0  0  0
  -30.0136  -20.1797   15.0640 C   0  0  0  0  0  0  0  0  0  0  0  0
  -28.2981  -21.5179   13.7471 C   0  0  0  0  0  0  0  0  0  0  0  0
  -32.0771  -21.2925   16.1694 C   0  0  0  0  0  0  0  0  0  0  0  0
  -20.9817  -26.7970   21.1324 C   0  0  1  0  0  0  0  0  0  0  0  0
  -19.8210  -25.6733   17.7032 C   0  0  2  0  0  0  0  0  0  0  0  0
  -20.2362  -26.3331   22.4155 C   0  0  0  0  0  0  0  0  0  0  0  0
  -31.4767  -20.0039   15.5637 C   0  0  0  0  0  0  0  0  0  0  0  0
  -24.8084  -19.5062   19.1705 N   0  0  0  0  0  0  0  0  0  0  0  0
  -30.1601  -24.1745   21.0548 N   0  0  0  0  0  0  0  0  0  0  0  0
  -29.9020  -24.2814   18.8517 N   0  0  0  0  0  0  0  0  0  0  0  0
  -25.6101  -20.5524   19.4332 N   0  0  0  0  0  0  0  0  0  0  0  0
  -22.6517  -28.6224   21.0778 N   0  0  0  0  0  0  0  0  0  0  0  0
  -25.5207  -22.3731   16.0738 N   0  0  0  0  0  0  0  0  0  0  0  0
  -27.1491  -21.4007   21.0214 N   0  0  0  0  0  0  0  0  0  0  0  0
  -25.8995  -17.4394   22.7942 N   0  0  0  0  0  0  0  0  0  0  0  0
  -23.7322  -31.4406   23.1240 N   0  0  0  0  0  0  0  0  0  0  0  0
  -20.2501  -26.5512   19.8944 N   0  0  0  0  0  0  0  0  0  0  0  0
  -27.3178  -21.4974   14.8099 N   0  0  0  0  0  0  0  0  0  0  0  0
  -20.5810  -25.5966   16.4235 N   0  3  0  0  0  0  0  0  0  0  0  0
  -31.2767  -21.8091   17.3064 N   0  3  0  0  0  0  0  0  0  0  0  0
  -27.2079  -19.2946   23.1185 O   0  0  0  0  0  0  0  0  0  0  0  0
  -23.3993  -29.1609   23.4625 O   0  0  0  0  0  0  0  0  0  0  0  0
  -20.3715  -29.0875   21.2215 O   0  0  0  0  0  0  0  0  0  0  0  0
  -21.8766  -25.2350   18.8948 O   0  0  0  0  0  0  0  0  0  0  0  0
  -26.3930  -23.5214   14.2576 O   0  0  0  0  0  0  0  0  0  0  0  0
  -22.2855  -13.8297   20.5708 O   0  0  0  0  0  0  0  0  0  0  0  0
  -28.4259  -26.7943   19.9076 O   0  0  0  0  0  0  0  0  0  1  0  0
  -25.1866   -9.3887   22.0759 F   0  0  0  0  0  0  0  0  0  0  0  0
  -22.4890  -11.6358   18.9011 F   0  0  0  0  0  0  0  0  0  0  0  0
  1  2  1  0  0  0  0
  1  5  2  0  0  0  0
  2  6  2  0  0  0  0
  3  8  2  0  0  0  0
  3 15  1  0  0  0  0
  4  9  1  0  0  0  0
  4 15  2  0  0  0  0
  5 17  1  0  0  0  0
  6 19  1  0  0  0  0
  7 10  2  0  0  0  0
  7 18  1  0  0  0  0
  8 21  1  0  0  0  0
  9 21  2  0  0  0  0
 10 22  1  0  0  0  0
 11 12  2  0  0  0  0
 11 23  1  0  0  0  0
 12 24  1  0  0  0  0
 13 20  1  0  0  0  0
 13 22  2  0  0  0  0
 14 24  2  0  0  0  0
 14 25  1  0  0  0  0
 15 26  1  0  0  0  0
 16 26  1  0  0  0  0
 16 29  2  0  0  0  0
 16 31  1  0  0  0  0
 17 19  2  0  0  0  0
 17 36  1  0  0  0  0
 18 20  2  0  0  0  0
 18 37  1  0  0  0  0
 19 45  1  0  0  0  0
 20 38  1  0  0  0  0
 21 85  1  0  0  0  0
 22 86  1  0  0  0  0
 23 25  2  0  0  0  0
 23 85  1  0  0  0  0
 24 87  1  0  0  0  0
 25 88  1  0  0  0  0
 26 67  2  0  0  0  0
 27 28  2  0  0  0  0
 27 48  1  0  0  0  0
 27 68  1  0  0  0  0
 28 57  1  0  0  0  0
 28 69  1  0  0  0  0
 29 70  1  0  0  0  0
 29 73  1  0  0  0  0
 30 58  1  0  0  0  0
 30 68  2  0  0  0  0
 30 69  1  0  0  0  0
 31 74  1  0  0  0  0
 31 80  2  0  0  0  0
 32 46  1  0  0  0  0
 32 75  1  0  0  0  0
 32 81  2  0  0  0  0
 33 63  1  0  0  0  0
 33 71  1  0  0  0  0
 33 82  2  0  0  0  0
 34 64  1  0  0  0  0
 34 76  1  0  0  0  0
 34 83  2  0  0  0  0
 35 72  1  0  0  0  0
 35 77  1  0  0  0  0
 35 84  2  0  0  0  0
 36 39  1  0  0  0  0
 37 46  1  0  0  0  0
 38 71  1  0  0  0  0
 39 41  1  0  0  0  0
 40 42  1  0  0  0  0
 40 43  1  0  0  0  0
 41 45  1  0  0  0  0
 42 47  1  0  0  0  0
 43 72  1  0  0  0  0
 44 47  1  0  0  0  0
 44 72  1  0  0  0  0
 45 75  1  0  0  0  0
 46 71  1  0  0  0  0
 47 70  1  0  0  0  0
 49 64  1  0  0  0  0
 50 65  1  0  0  0  0
 51 65  1  0  0  0  0
 52 65  1  0  0  0  0
 53 66  1  0  0  0  0
 54 66  1  0  0  0  0
 55 69  1  0  0  0  0
 56 78  1  0  0  0  0
 57 79  1  0  0  0  0
 58 86  1  0  0  0  0
 59 60  1  0  0  0  0
 59 61  1  0  0  0  0
 60 66  1  0  0  0  0
 61 77  1  0  0  0  0
 62 66  1  0  0  0  0
 62 79  1  0  0  0  0
 63 65  1  0  0  0  0
 63 76  1  0  0  0  0
 64 78  1  0  0  0  0
 67 70  1  0  0  0  0
M  CHG  2  78   1  79   1
M  ISO  4  35 100  58 101  77 100  86 101
M  END
> <Batch ID>
0044

> <Smiles>
CNC(C)C(=O)NC(C(=O)N1Cc2cc([101O:1][101CH2:1]c3nc(C)c(CNCC(C)(C)CCC[100NH:0][100C:0](=O)N4CCCC(n5nc(-c6ccc(Oc7ccc(F)cc7F)cc6)c(C(N)=O)c5N)C4)n3C)ccc2CC1C(=O)NC1CCCc2ccccc21)C(C)(C)C

> <Shape>
0.225

> <Color>
0.062

> <Negative vol penalty>
0.000

$$$$

  -OEChem-04052317173D

 84 92  0     1  0  0  0  0  0999 V2000
  -29.0048  -11.2412   20.2706 C   0  0  0  0  0  0  0  0  0  0  0  0
  -29.1308  -12.5813   19.9191 C   0  0  0  0  0  0  0  0  0  0  0  0
  -21.8528  -25.5420   21.8719 C   0  0  0  0  0  0  0  0  0  0  0  0
  -22.5373  -27.6034   22.9300 C   0  0  0  0  0  0  0  0  0  0  0  0
  -27.7415  -10.6980   20.5011 C   0  0  0  0  0  0  0  0  0  0  0  0
  -27.9936  -13.3789   19.7969 C   0  0  0  0  0  0  0  0  0  0  0  0
  -28.5464  -17.9024   22.0054 C   0  0  0  0  0  0  0  0  0  0  0  0
  -20.5645  -25.7093   22.3795 C   0  0  0  0  0  0  0  0  0  0  0  0
  -21.2489  -27.7707   23.4375 C   0  0  0  0  0  0  0  0  0  0  0  0
  -29.2849  -18.8622   21.3146 C   0  0  0  0  0  0  0  0  0  0  0  0
  -18.2452  -28.8270   22.3051 C   0  0  0  0  0  0  0  0  0  0  0  0
  -17.6698  -30.0936   22.2038 C   0  0  0  0  0  0  0  0  0  0  0  0
  -34.1732  -26.3979   20.1661 C   0  0  0  0  0  0  0  0  0  0  0  0
  -27.2357  -19.8909   20.5653 C   0  0  0  0  0  0  0  0  0  0  0  0
  -17.4705  -30.1954   24.6094 C   0  0  0  0  0  0  0  0  0  0  0  0
  -34.5249  -25.7516   18.9987 C   0  0  0  0  0  0  0  0  0  0  0  0
  -22.8393  -26.4890   22.1472 C   0  0  0  0  0  0  0  0  0  0  0  0
  -24.6669  -26.7840   20.3921 C   0  0  0  0  0  0  0  0  0  0  0  0
  -26.5889  -11.4917   20.3910 C   0  0  0  0  0  0  0  0  0  0  0  0
  -27.1446  -17.9232   21.9723 C   0  0  0  0  0  0  0  0  0  0  0  0
  -26.7136  -12.8455   20.0248 C   0  0  0  0  0  0  0  0  0  0  0  0
  -26.4817  -18.9318   21.2586 C   0  0  0  0  0  0  0  0  0  0  0  0
  -20.2625  -26.8236   23.1623 C   0  0  0  0  0  0  0  0  0  0  0  0
  -28.6296  -19.8549   20.5921 C   0  0  0  0  0  0  0  0  0  0  0  0
  -18.4332  -28.2445   23.5585 C   0  0  0  0  0  0  0  0  0  0  0  0
  -17.2825  -30.7778   23.3559 C   0  0  0  0  0  0  0  0  0  0  0  0
  -18.0459  -28.9288   24.7107 C   0  0  0  0  0  0  0  0  0  0  0  0
  -24.1706  -26.3165   21.6237 C   0  0  0  0  0  0  0  0  0  0  0  0
  -32.8190  -26.5679   20.3697 C   0  0  0  0  0  0  0  0  0  0  0  0
  -25.9743  -26.3638   20.3670 C   0  0  0  0  0  0  0  0  0  0  0  0
  -32.3420  -25.5278   18.4056 C   0  0  0  0  0  0  0  0  0  0  0  0
  -24.0054  -27.5315   19.3629 C   0  0  0  0  0  0  0  0  0  0  0  0
  -24.8954  -15.9304   20.9361 C   0  0  0  0  0  0  0  0  0  0  0  0
  -22.8996  -18.0914   22.3033 C   0  0  0  0  0  0  0  0  0  0  0  0
  -21.8555  -21.4529   23.0957 C   0  0  0  0  0  0  0  0  0  0  0  0
  -30.9131  -25.6725   22.8722 C   0  0  0  0  0  0  0  0  0  0  0  0
  -25.2415  -10.8483   20.6036 C   0  0  0  0  0  0  0  0  0  0  0  0
  -26.3624  -16.8965   22.7446 C   0  0  0  0  0  0  0  0  0  0  0  0
  -24.9784  -19.0103   21.2079 C   0  0  0  0  0  0  0  0  0  0  0  0
  -24.1135  -11.8541   20.8192 C   0  0  0  0  0  0  0  0  0  0  0  0
  -28.4564  -23.1456   23.3784 C   0  0  0  0  0  0  0  0  0  0  0  0
  -24.1894  -12.9715   19.7836 C   0  0  0  0  0  0  0  0  0  0  0  0
  -27.1631  -23.7860   22.8714 C   0  0  0  0  0  0  0  0  0  0  0  0
  -29.3566  -24.1651   24.0729 C   0  0  0  0  0  0  0  0  0  0  0  0
  -28.3688  -26.0073   22.7673 C   0  0  0  0  0  0  0  0  0  0  0  0
  -25.5054  -13.7490   19.9064 C   0  0  1  0  0  0  0  0  0  0  0  0
  -24.9421  -16.7090   22.2204 C   0  0  1  0  0  0  0  0  0  0  0  0
  -27.4534  -25.0299   22.0103 C   0  0  2  0  0  0  0  0  0  0  0  0
  -31.4611  -25.7677   16.0699 C   0  0  0  0  0  0  0  0  0  0  0  0
  -19.9279  -22.2806   24.4729 C   0  0  0  0  0  0  0  0  0  0  0  0
  -21.4300  -18.2361   19.6332 C   0  0  0  0  0  0  0  0  0  0  0  0
  -20.3504  -20.3531   20.4215 C   0  0  0  0  0  0  0  0  0  0  0  0
  -19.9421  -18.2169   21.6433 C   0  0  0  0  0  0  0  0  0  0  0  0
  -23.6356  -23.0536   24.8358 C   0  0  0  0  0  0  0  0  0  0  0  0
  -32.3421  -27.2565   21.6042 C   0  0  0  0  0  0  0  0  0  0  0  0
  -31.0179  -22.7155   18.4643 C   0  0  0  0  0  0  0  0  0  0  0  0
  -30.9796  -21.2099   18.1819 C   0  0  0  0  0  0  0  0  0  0  0  0
  -31.3479  -23.5086   17.1934 C   0  0  0  0  0  0  0  0  0  0  0  0
  -30.6281  -20.3992   19.4234 C   0  0  0  0  0  0  0  0  0  1  0  0
  -31.3060  -25.0365   17.4092 C   0  0  1  0  0  0  0  0  0  0  0  0
  -22.1974  -19.3433   21.8358 C   0  0  1  0  0  0  0  0  0  0  0  0
  -21.4169  -21.9720   24.4531 C   0  0  2  0  0  0  0  0  0  0  0  0
  -21.0083  -19.0350   20.8826 C   0  0  0  0  0  0  0  0  0  0  0  0
  -33.6321  -25.3017   18.0927 N   0  0  0  0  0  0  0  0  0  0  0  0
  -25.0879  -25.6501   22.3298 N   0  0  0  0  0  0  0  0  0  0  0  0
  -31.8722  -26.1440   19.5070 N   0  0  0  0  0  0  0  0  0  0  0  0
  -26.1737  -25.6958   21.5392 N   0  0  0  0  0  0  0  0  0  0  0  0
  -24.2580  -17.9801   21.9742 N   0  0  0  0  0  0  0  0  0  0  0  0
  -29.5943  -25.3191   23.2025 N   0  0  0  0  0  0  0  0  0  0  0  0
  -26.9613  -26.5041   19.4567 N   0  0  0  0  0  0  0  0  0  0  0  0
  -22.6611  -27.8810   19.5500 N   0  0  0  0  0  0  0  0  0  0  0  0
  -25.4478  -14.6668   21.0239 N   0  0  0  0  0  0  0  0  0  0  0  0
  -21.8229  -20.0755   23.0408 N   0  0  0  0  0  0  0  0  0  0  0  0
  -31.0494  -26.7748   22.0374 N   0  0  0  0  0  0  0  0  0  0  0  0
  -22.1596  -23.2178   24.7959 N   0  3  0  0  0  0  0  0  0  0  0  0
  -24.5844  -27.8650   18.3012 O   0  0  0  0  0  0  0  0  0  0  0  0
  -24.3941  -16.4379   19.9398 O   0  0  0  0  0  0  0  0  0  0  0  0
  -22.2681  -17.2469   22.9432 O   0  0  0  0  0  0  0  0  0  0  0  0
  -22.1898  -22.1951   22.1749 O   0  0  0  0  0  0  0  0  0  0  0  0
  -31.8960  -25.0483   23.2861 O   0  0  0  0  0  0  0  0  0  0  0  0
  -19.0053  -26.9873   23.6575 O   0  0  0  0  0  0  0  0  0  0  0  0
  -29.3480  -20.7926   19.9164 O   0  0  0  0  0  0  0  0  0  1  0  0
  -16.7314  -31.9948   23.2586 F   0  0  0  0  0  0  0  0  0  0  0  0
  -18.2250  -28.3749   25.9177 F   0  0  0  0  0  0  0  0  0  0  0  0
  1  2  1  0  0  0  0
  1  5  2  0  0  0  0
  2  6  2  0  0  0  0
  3  8  2  0  0  0  0
  3 17  1  0  0  0  0
  4  9  1  0  0  0  0
  4 17  2  0  0  0  0
  5 19  1  0  0  0  0
  6 21  1  0  0  0  0
  7 10  2  0  0  0  0
  7 20  1  0  0  0  0
  8 23  1  0  0  0  0
  9 23  2  0  0  0  0
 10 24  1  0  0  0  0
 11 12  2  0  0  0  0
 11 25  1  0  0  0  0
 12 26  1  0  0  0  0
 13 16  1  0  0  0  0
 13 29  2  0  0  0  0
 14 22  1  0  0  0  0
 14 24  2  0  0  0  0
 15 26  2  0  0  0  0
 15 27  1  0  0  0  0
 16 64  2  0  0  0  0
 17 28  1  0  0  0  0
 18 28  1  0  0  0  0
 18 30  2  0  0  0  0
 18 32  1  0  0  0  0
 19 21  2  0  0  0  0
 19 37  1  0  0  0  0
 20 22  2  0  0  0  0
 20 38  1  0  0  0  0
 21 46  1  0  0  0  0
 22 39  1  0  0  0  0
 23 81  1  0  0  0  0
 24 82  1  0  0  0  0
 25 27  2  0  0  0  0
 25 81  1  0  0  0  0
 26 83  1  0  0  0  0
 27 84  1  0  0  0  0
 28 65  2  0  0  0  0
 29 55  1  0  0  0  0
 29 66  1  0  0  0  0
 30 67  1  0  0  0  0
 30 70  1  0  0  0  0
 31 60  1  0  0  0  0
 31 64  1  0  0  0  0
 31 66  2  0  0  0  0
 32 71  1  0  0  0  0
 32 76  2  0  0  0  0
 33 47  1  0  0  0  0
 33 72  1  0  0  0  0
 33 77  2  0  0  0  0
 34 61  1  0  0  0  0
 34 68  1  0  0  0  0
 34 78  2  0  0  0  0
 35 62  1  0  0  0  0
 35 73  1  0  0  0  0
 35 79  2  0  0  0  0
 36 69  1  0  0  0  0
 36 74  1  0  0  0  0
 36 80  2  0  0  0  0
 37 40  1  0  0  0  0
 38 47  1  0  0  0  0
 39 68  1  0  0  0  0
 40 42  1  0  0  0  0
 41 43  1  0  0  0  0
 41 44  1  0  0  0  0
 42 46  1  0  0  0  0
 43 48  1  0  0  0  0
 44 69  1  0  0  0  0
 45 48  1  0  0  0  0
 45 69  1  0  0  0  0
 46 72  1  0  0  0  0
 47 68  1  0  0  0  0
 48 67  1  0  0  0  0
 49 60  1  0  0  0  0
 50 62  1  0  0  0  0
 51 63  1  0  0  0  0
 52 63  1  0  0  0  0
 53 63  1  0  0  0  0
 54 75  1  0  0  0  0
 55 74  1  0  0  0  0
 56 57  1  0  0  0  0
 56 58  1  0  0  0  0
 57 59  1  0  0  0  0
 58 60  1  0  0  0  0
 59 82  1  0  0  0  0
 61 63  1  0  0  0  0
 61 73  1  0  0  0  0
 62 75  1  0  0  0  0
 65 67  1  0  0  0  0
M  CHG  1  75   1
M  ISO  4  36 100  59 101  74 100  82 101
M  END
> <Batch ID>
0044

> <Smiles>
CNC(C)C(=O)NC(C(=O)N1Cc2cc([101O:1][101CH2:1]CCCC(C)c3nccc(C[100NH:0][100C:0](=O)N4CCCC(n5nc(-c6ccc(Oc7ccc(F)cc7F)cc6)c(C(N)=O)c5N)C4)n3)ccc2CC1C(=O)NC1CCCc2ccccc21)C(C)(C)C

> <Shape>
0.189

> <Color>
0.065

> <Negative vol penalty>
0.000

$$$$

  -OEChem-04052317173D

 82 90  0     1  0  0  0  0  0999 V2000
  -23.0721  -31.8403   26.3893 C   0  0  0  0  0  0  0  0  0  0  0  0
  -23.8711  -30.9045   25.7403 C   0  0  0  0  0  0  0  0  0  0  0  0
  -26.3146  -15.8561   21.3799 C   0  0  0  0  0  0  0  0  0  0  0  0
  -26.4874  -15.4658   19.0019 C   0  0  0  0  0  0  0  0  0  0  0  0
  -21.6940  -31.8450   26.1777 C   0  0  0  0  0  0  0  0  0  0  0  0
  -23.2924  -29.9721   24.8801 C   0  0  0  0  0  0  0  0  0  0  0  0
  -25.8749  -29.4538   20.5549 C   0  0  0  0  0  0  0  0  0  0  0  0
  -25.8220  -14.5631   21.5563 C   0  0  0  0  0  0  0  0  0  0  0  0
  -25.9948  -14.1728   19.1783 C   0  0  0  0  0  0  0  0  0  0  0  0
  -27.0369  -28.6845   20.5954 C   0  0  0  0  0  0  0  0  0  0  0  0
  -22.9921  -12.6945   19.6570 C   0  0  0  0  0  0  0  0  0  0  0  0
  -22.0098  -12.2490   18.7726 C   0  0  0  0  0  0  0  0  0  0  0  0
  -25.8259  -26.8173   19.6647 C   0  0  0  0  0  0  0  0  0  0  0  0
  -23.4585  -10.4474   18.0710 C   0  0  0  0  0  0  0  0  0  0  0  0
  -30.3282  -24.6133   18.6736 C   0  0  0  0  0  0  0  0  0  0  0  0
  -26.6473  -16.3075   20.1027 C   0  0  0  0  0  0  0  0  0  0  0  0
  -28.5025  -18.0518   19.9503 C   0  0  0  0  0  0  0  0  0  0  0  0
  -21.0992  -30.9183   25.3070 C   0  0  0  0  0  0  0  0  0  0  0  0
  -24.6751  -28.9064   20.0783 C   0  0  0  0  0  0  0  0  0  0  0  0
  -21.9048  -29.9635   24.6577 C   0  0  0  0  0  0  0  0  0  0  0  0
  -24.6506  -27.5826   19.6167 C   0  0  0  0  0  0  0  0  0  0  0  0
  -25.6621  -13.7215   20.4555 C   0  0  0  0  0  0  0  0  0  0  0  0
  -27.0118  -27.3651   20.1530 C   0  0  0  0  0  0  0  0  0  0  0  0
  -24.2077  -12.0165   19.7483 C   0  0  0  0  0  0  0  0  0  0  0  0
  -22.2429  -11.1255   17.9796 C   0  0  0  0  0  0  0  0  0  0  0  0
  -24.4409  -10.8930   18.9553 C   0  0  0  0  0  0  0  0  0  0  0  0
  -27.1557  -17.6432   19.9197 C   0  0  0  0  0  0  0  0  0  0  0  0
  -30.8023  -25.6942   19.3620 C   0  0  0  0  0  0  0  0  0  0  0  0
  -28.4558  -19.4057   19.7239 C   0  0  0  0  0  0  0  0  0  0  0  0
  -31.8318  -25.6264   17.4034 C   0  0  0  0  0  0  0  0  0  0  0  0
  -29.6896  -17.2768   20.1642 C   0  0  0  0  0  0  0  0  0  0  0  0
  -21.8068  -28.3552   21.3325 C   0  0  0  0  0  0  0  0  0  0  0  0
  -21.0653  -27.5222   18.2864 C   0  0  0  0  0  0  0  0  0  0  0  0
  -22.1420  -26.4301   15.2377 C   0  0  0  0  0  0  0  0  0  0  0  0
  -26.4738  -23.8057   16.9208 C   0  0  0  0  0  0  0  0  0  0  0  0
  -19.5996  -30.9319   25.1465 C   0  0  0  0  0  0  0  0  0  0  0  0
  -23.4366  -29.7578   20.0162 C   0  0  0  0  0  0  0  0  0  0  0  0
  -23.3929  -26.9541   19.0769 C   0  0  0  0  0  0  0  0  0  0  0  0
  -19.1101  -30.1502   23.9302 C   0  0  0  0  0  0  0  0  0  0  0  0
  -24.5327  -22.5980   19.6503 C   0  0  0  0  0  0  0  0  0  0  0  0
  -19.8002  -28.7919   23.8554 C   0  0  0  0  0  0  0  0  0  0  0  0
  -25.1490  -21.2330   19.9618 C   0  0  0  0  0  0  0  0  0  0  0  0
  -24.5297  -22.8869   18.1508 C   0  0  0  0  0  0  0  0  0  0  0  0
  -26.4598  -21.3942   17.8044 C   0  0  0  0  0  0  0  0  0  0  0  0
  -21.3172  -28.9517   23.6979 C   0  0  1  0  0  0  0  0  0  0  0  0
  -22.1495  -28.9392   19.9911 C   0  0  1  0  0  0  0  0  0  0  0  0
  -26.5360  -21.0819   19.3087 C   0  0  2  0  0  0  0  0  0  0  0  0
  -32.7309  -25.9746   16.2751 C   0  0  0  0  0  0  0  0  0  0  0  0
  -21.2984  -25.8062   12.9581 C   0  0  0  0  0  0  0  0  0  0  0  0
  -20.0427  -24.8692   19.3936 C   0  0  0  0  0  0  0  0  0  0  0  0
  -20.1101  -23.9513   17.0653 C   0  0  0  0  0  0  0  0  0  0  0  0
  -18.6133  -25.8729   17.6037 C   0  0  0  0  0  0  0  0  0  0  0  0
  -23.7331  -28.5607   13.9384 C   0  0  0  0  0  0  0  0  0  0  0  0
  -30.4666  -26.2288   20.7331 C   0  0  0  0  0  0  0  0  0  0  0  0
  -29.8769  -24.0946   15.2778 C   0  0  0  0  0  0  0  0  0  0  0  0
  -30.7786  -23.6109   16.4215 C   0  0  0  0  0  0  0  0  0  0  0  0
  -28.5003  -24.5865   15.7197 C   0  0  0  0  0  0  0  0  0  0  0  0
  -29.3231  -27.2368   20.6984 C   0  0  0  0  0  0  0  0  0  1  0  0
  -21.1116  -26.2427   17.4866 C   0  0  1  0  0  0  0  0  0  0  0  0
  -21.8512  -26.9219   13.8312 C   0  0  2  0  0  0  0  0  0  0  0  0
  -19.9928  -25.2449   17.8992 C   0  0  0  0  0  0  0  0  0  0  0  0
  -26.3147  -18.6556   19.6920 N   0  0  0  0  0  0  0  0  0  0  0  0
  -30.9821  -24.5960   17.4652 N   0  0  0  0  0  0  0  0  0  0  0  0
  -27.1352  -19.7138   19.5775 N   0  0  0  0  0  0  0  0  0  0  0  0
  -31.7312  -26.3023   18.5525 N   0  3  0  0  0  0  0  0  0  0  0  0
  -22.2065  -27.8252   19.0424 N   0  0  0  0  0  0  0  0  0  0  0  0
  -25.8749  -22.7276   17.5932 N   0  0  0  0  0  0  0  0  0  0  0  0
  -29.4158  -20.3508   19.6378 N   0  0  0  0  0  0  0  0  0  0  0  0
  -29.5576  -15.8985   20.3816 N   0  0  0  0  0  0  0  0  0  0  0  0
  -21.6500  -29.2961   22.3323 N   0  0  0  0  0  0  0  0  0  0  0  0
  -21.0722  -26.6373   16.0826 N   0  0  0  0  0  0  0  0  0  0  0  0
  -27.7521  -23.5724   16.4287 N   0  0  0  0  0  0  0  0  0  0  0  0
  -23.0952  -27.4426   13.1969 N   0  3  0  0  0  0  0  0  0  0  0  0
  -30.8323  -17.7940   20.1790 O   0  0  0  0  0  0  0  0  0  0  0  0
  -21.6916  -27.1410   21.4512 O   0  0  0  0  0  0  0  0  0  0  0  0
  -20.0565  -28.2304   18.2365 O   0  0  0  0  0  0  0  0  0  0  0  0
  -23.2099  -25.9105   15.5541 O   0  0  0  0  0  0  0  0  0  0  0  0
  -25.9131  -24.8972   16.7749 O   0  0  0  0  0  0  0  0  0  0  0  0
  -25.1817  -12.4596   20.6273 O   0  0  0  0  0  0  0  0  0  0  0  0
  -28.1444  -26.6118   20.1920 O   0  0  0  0  0  0  0  0  0  1  0  0
  -21.2989  -10.6968   17.1316 F   0  0  0  0  0  0  0  0  0  0  0  0
  -25.6063  -10.2368   19.0395 F   0  0  0  0  0  0  0  0  0  0  0  0
  1  2  1  0  0  0  0
  1  5  2  0  0  0  0
  2  6  2  0  0  0  0
  3  8  2  0  0  0  0
  3 16  1  0  0  0  0
  4  9  1  0  0  0  0
  4 16  2  0  0  0  0
  5 18  1  0  0  0  0
  6 20  1  0  0  0  0
  7 10  2  0  0  0  0
  7 19  1  0  0  0  0
  8 22  1  0  0  0  0
  9 22  2  0  0  0  0
 10 23  1  0  0  0  0
 11 12  2  0  0  0  0
 11 24  1  0  0  0  0
 12 25  1  0  0  0  0
 13 21  1  0  0  0  0
 13 23  2  0  0  0  0
 14 25  2  0  0  0  0
 14 26  1  0  0  0  0
 15 28  2  0  0  0  0
 15 63  1  0  0  0  0
 16 27  1  0  0  0  0
 17 27  1  0  0  0  0
 17 29  2  0  0  0  0
 17 31  1  0  0  0  0
 18 20  2  0  0  0  0
 18 36  1  0  0  0  0
 19 21  2  0  0  0  0
 19 37  1  0  0  0  0
 20 45  1  0  0  0  0
 21 38  1  0  0  0  0
 22 79  1  0  0  0  0
 23 80  1  0  0  0  0
 24 26  2  0  0  0  0
 24 79  1  0  0  0  0
 25 81  1  0  0  0  0
 26 82  1  0  0  0  0
 27 62  2  0  0  0  0
 28 54  1  0  0  0  0
 28 65  1  0  0  0  0
 29 64  1  0  0  0  0
 29 68  1  0  0  0  0
 30 48  1  0  0  0  0
 30 63  1  0  0  0  0
 30 65  2  0  0  0  0
 31 69  1  0  0  0  0
 31 74  2  0  0  0  0
 32 46  1  0  0  0  0
 32 70  1  0  0  0  0
 32 75  2  0  0  0  0
 33 59  1  0  0  0  0
 33 66  1  0  0  0  0
 33 76  2  0  0  0  0
 34 60  1  0  0  0  0
 34 71  1  0  0  0  0
 34 77  2  0  0  0  0
 35 67  1  0  0  0  0
 35 72  1  0  0  0  0
 35 78  2  0  0  0  0
 36 39  1  0  0  0  0
 37 46  1  0  0  0  0
 38 66  1  0  0  0  0
 39 41  1  0  0  0  0
 40 42  1  0  0  0  0
 40 43  1  0  0  0  0
 41 45  1  0  0  0  0
 42 47  1  0  0  0  0
 43 67  1  0  0  0  0
 44 47  1  0  0  0  0
 44 67  1  0  0  0  0
 45 70  1  0  0  0  0
 46 66  1  0  0  0  0
 47 64  1  0  0  0  0
 49 60  1  0  0  0  0
 50 61  1  0  0  0  0
 51 61  1  0  0  0  0
 52 61  1  0  0  0  0
 53 73  1  0  0  0  0
 54 58  1  0  0  0  0
 55 56  1  0  0  0  0
 55 57  1  0  0  0  0
 56 63  1  0  0  0  0
 57 72  1  0  0  0  0
 58 80  1  0  0  0  0
 59 61  1  0  0  0  0
 59 71  1  0  0  0  0
 60 73  1  0  0  0  0
 62 64  1  0  0  0  0
M  CHG  2  65   1  73   1
M  ISO  4  35 100  58 101  72 100  80 101
M  END
> <Batch ID>
0044

> <Smiles>
CNC(C)C(=O)NC(C(=O)N1Cc2cc([101O:1][101CH2:1]Cc3cn(CCC[100NH:0][100C:0](=O)N4CCCC(n5nc(-c6ccc(Oc7ccc(F)cc7F)cc6)c(C(N)=O)c5N)C4)c(C)n3)ccc2CC1C(=O)NC1CCCc2ccccc21)C(C)(C)C

> <Shape>
0.214

> <Color>
0.093

> <Negative vol penalty>
0.000

$$$$

  -OEChem-04052317173D

 83 91  0     1  0  0  0  0  0999 V2000
  -16.9034  -24.9961   23.9273 C   0  0  0  0  0  0  0  0  0  0  0  0
  -17.5705  -24.3084   22.9186 C   0  0  0  0  0  0  0  0  0  0  0  0
  -25.7298  -12.5847   22.2693 C   0  0  0  0  0  0  0  0  0  0  0  0
  -25.7474  -13.6921   20.1221 C   0  0  0  0  0  0  0  0  0  0  0  0
  -17.2129  -26.3316   24.1814 C   0  0  0  0  0  0  0  0  0  0  0  0
  -18.5468  -24.9563   22.1626 C   0  0  0  0  0  0  0  0  0  0  0  0
  -23.6646  -22.4939   19.8713 C   0  0  0  0  0  0  0  0  0  0  0  0
  -24.6443  -11.8099   21.8608 C   0  0  0  0  0  0  0  0  0  0  0  0
  -24.6619  -12.9172   19.7136 C   0  0  0  0  0  0  0  0  0  0  0  0
  -23.9865  -22.0090   18.6044 C   0  0  0  0  0  0  0  0  0  0  0  0
  -22.0975   -9.2876   21.2551 C   0  0  0  0  0  0  0  0  0  0  0  0
  -22.1341   -7.9216   21.5346 C   0  0  0  0  0  0  0  0  0  0  0  0
  -24.9782  -24.1366   18.0486 C   0  0  0  0  0  0  0  0  0  0  0  0
  -24.1526   -7.7074   20.2243 C   0  0  0  0  0  0  0  0  0  0  0  0
  -28.7603  -21.7512   17.6240 C   0  0  0  0  0  0  0  0  0  0  0  0
  -26.2814  -13.5259   21.3999 C   0  0  0  0  0  0  0  0  0  0  0  0
  -28.7687  -14.0212   21.6748 C   0  0  0  0  0  0  0  0  0  0  0  0
  -18.2003  -26.9933   23.4345 C   0  0  0  0  0  0  0  0  0  0  0  0
  -23.9879  -23.8095   20.2331 C   0  0  0  0  0  0  0  0  0  0  0  0
  -18.8688  -26.3023   22.4060 C   0  0  0  0  0  0  0  0  0  0  0  0
  -24.6615  -24.6350   19.3216 C   0  0  0  0  0  0  0  0  0  0  0  0
  -29.4211  -20.8909   18.4665 C   0  0  0  0  0  0  0  0  0  0  0  0
  -24.1103  -11.9761   20.5830 C   0  0  0  0  0  0  0  0  0  0  0  0
  -24.6408  -22.8313   17.6918 C   0  0  0  0  0  0  0  0  0  0  0  0
  -23.0884   -9.8636   20.4600 C   0  0  0  0  0  0  0  0  0  0  0  0
  -23.1616   -7.1314   21.0193 C   0  0  0  0  0  0  0  0  0  0  0  0
  -24.1160   -9.0735   19.9447 C   0  0  0  0  0  0  0  0  0  0  0  0
  -27.4024  -14.3269   21.8215 C   0  0  0  0  0  0  0  0  0  0  0  0
  -29.3166  -19.6348   17.8396 C   0  0  0  0  0  0  0  0  0  0  0  0
  -29.4222  -15.0931   22.2320 C   0  0  0  0  0  0  0  0  0  0  0  0
  -29.3915  -12.8711   21.0872 C   0  0  0  0  0  0  0  0  0  0  0  0
  -22.3176  -26.3773   21.0818 C   0  0  0  0  0  0  0  0  0  0  0  0
  -25.2598  -27.6325   21.6207 C   0  0  0  0  0  0  0  0  0  0  0  0
  -28.6033  -27.5753   20.9389 C   0  0  0  0  0  0  0  0  0  0  0  0
  -27.8775  -20.8143   23.0881 C   0  0  0  0  0  0  0  0  0  0  0  0
  -18.4670  -28.4511   23.7143 C   0  0  0  0  0  0  0  0  0  0  0  0
  -23.6576  -24.3089   21.6130 C   0  0  0  0  0  0  0  0  0  0  0  0
  -25.0488  -26.0486   19.6681 C   0  0  0  0  0  0  0  0  0  0  0  0
  -19.7779  -28.9561   23.1170 C   0  0  0  0  0  0  0  0  0  0  0  0
  -28.8936  -18.4762   25.5736 C   0  0  0  0  0  0  0  0  0  0  0  0
  -19.9183  -28.4938   21.6701 C   0  0  0  0  0  0  0  0  0  0  0  0
  -28.7499  -17.1201   24.8806 C   0  0  0  0  0  0  0  0  0  0  0  0
  -27.7918  -19.4455   25.1510 C   0  0  0  0  0  0  0  0  0  0  0  0
  -27.5108  -18.2738   23.0011 C   0  0  0  0  0  0  0  0  0  0  0  0
  -19.9515  -26.9633   21.5807 C   0  0  1  0  0  0  0  0  0  0  0  0
  -23.5759  -25.8301   21.6942 C   0  0  1  0  0  0  0  0  0  0  0  0
  -28.6317  -17.2807   23.3530 C   0  0  2  0  0  0  0  0  0  0  0  0
  -29.8502  -18.3441   18.3089 C   0  0  0  0  0  0  0  0  0  0  0  0
  -31.0313  -28.1763   21.1403 C   0  0  0  0  0  0  0  0  0  0  0  0
  -24.4595  -29.9603   19.8176 C   0  0  0  0  0  0  0  0  0  0  0  0
  -26.8811  -30.5744   19.6532 C   0  0  0  0  0  0  0  0  0  0  0  0
  -25.7327  -30.6181   21.8672 C   0  0  0  0  0  0  0  0  0  0  0  0
  -29.0543  -25.5339   23.0337 C   0  0  0  0  0  0  0  0  0  0  0  0
  -30.0855  -21.2214   19.7385 C   0  0  0  0  0  0  0  0  0  0  0  0
  -29.4050  -22.3426   20.5632 C   0  0  0  0  0  0  0  0  0  0  0  0
  -26.2001  -20.7414   15.1951 C   0  0  0  0  0  0  0  0  0  0  0  0
  -27.5314  -21.4701   15.3913 C   0  0  0  0  0  0  0  0  0  0  0  0
  -27.9536  -22.0470   20.9355 C   0  0  0  0  0  0  0  0  0  0  0  0
  -25.2163  -20.9625   16.3381 C   0  0  0  0  0  0  0  0  0  1  0  0
  -26.2658  -28.3932   20.7912 C   0  0  1  0  0  0  0  0  0  0  0  0
  -29.8175  -27.5965   21.8497 C   0  0  2  0  0  0  0  0  0  0  0  0
  -25.8259  -29.8605   20.5248 C   0  0  0  0  0  0  0  0  0  0  0  0
  -27.1986  -15.5010   22.4248 N   0  0  0  0  0  0  0  0  0  0  0  0
  -28.6424  -19.6878   16.6878 N   0  0  0  0  0  0  0  0  0  0  0  0
  -28.3172  -20.9877   16.5843 N   0  0  0  0  0  0  0  0  0  0  0  0
  -28.4456  -15.9425   22.6621 N   0  0  0  0  0  0  0  0  0  0  0  0
  -24.6985  -26.4928   21.0273 N   0  0  0  0  0  0  0  0  0  0  0  0
  -27.7336  -19.5539   23.6913 N   0  0  0  0  0  0  0  0  0  0  0  0
  -30.7311  -15.3825   22.3911 N   0  0  0  0  0  0  0  0  0  0  0  0
  -28.5720  -11.8630   20.5615 N   0  0  0  0  0  0  0  0  0  0  0  0
  -21.2551  -26.4629   21.9611 N   0  0  0  0  0  0  0  0  0  0  0  0
  -27.5437  -28.2690   21.4841 N   0  0  0  0  0  0  0  0  0  0  0  0
  -27.8162  -20.8274   21.7000 N   0  0  0  0  0  0  0  0  0  0  0  0
  -30.1515  -26.2157   22.3000 N   0  3  0  0  0  0  0  0  0  0  0  0
  -30.6376  -12.7337   21.0450 O   0  0  0  0  0  0  0  0  0  0  0  0
  -22.3116  -26.6995   19.8995 O   0  0  0  0  0  0  0  0  0  0  0  0
  -24.9875  -28.0305   22.7560 O   0  0  0  0  0  0  0  0  0  0  0  0
  -28.5967  -27.0038   19.8508 O   0  0  0  0  0  0  0  0  0  0  0  0
  -28.0533  -21.8504   23.7382 O   0  0  0  0  0  0  0  0  0  0  0  0
  -23.0512  -11.2201   20.1840 O   0  0  0  0  0  0  0  0  0  0  0  0
  -24.9556  -22.3607   16.4544 O   0  0  0  0  0  0  0  0  0  1  0  0
  -23.1974   -5.8199   21.2892 F   0  0  0  0  0  0  0  0  0  0  0  0
  -25.0714   -9.6213   19.1813 F   0  0  0  0  0  0  0  0  0  0  0  0
  1  2  1  0  0  0  0
  1  5  2  0  0  0  0
  2  6  2  0  0  0  0
  3  8  2  0  0  0  0
  3 16  1  0  0  0  0
  4  9  1  0  0  0  0
  4 16  2  0  0  0  0
  5 18  1  0  0  0  0
  6 20  1  0  0  0  0
  7 10  2  0  0  0  0
  7 19  1  0  0  0  0
  8 23  1  0  0  0  0
  9 23  2  0  0  0  0
 10 24  1  0  0  0  0
 11 12  2  0  0  0  0
 11 25  1  0  0  0  0
 12 26  1  0  0  0  0
 13 21  1  0  0  0  0
 13 24  2  0  0  0  0
 14 26  2  0  0  0  0
 14 27  1  0  0  0  0
 15 22  2  0  0  0  0
 15 65  1  0  0  0  0
 16 28  1  0  0  0  0
 17 28  1  0  0  0  0
 17 30  2  0  0  0  0
 17 31  1  0  0  0  0
 18 20  2  0  0  0  0
 18 36  1  0  0  0  0
 19 21  2  0  0  0  0
 19 37  1  0  0  0  0
 20 45  1  0  0  0  0
 21 38  1  0  0  0  0
 22 29  1  0  0  0  0
 22 54  1  0  0  0  0
 23 80  1  0  0  0  0
 24 81  1  0  0  0  0
 25 27  2  0  0  0  0
 25 80  1  0  0  0  0
 26 82  1  0  0  0  0
 27 83  1  0  0  0  0
 28 63  2  0  0  0  0
 29 48  1  0  0  0  0
 29 64  2  0  0  0  0
 30 66  1  0  0  0  0
 30 69  1  0  0  0  0
 31 70  1  0  0  0  0
 31 75  2  0  0  0  0
 32 46  1  0  0  0  0
 32 71  1  0  0  0  0
 32 76  2  0  0  0  0
 33 60  1  0  0  0  0
 33 67  1  0  0  0  0
 33 77  2  0  0  0  0
 34 61  1  0  0  0  0
 34 72  1  0  0  0  0
 34 78  2  0  0  0  0
 35 68  1  0  0  0  0
 35 73  1  0  0  0  0
 35 79  2  0  0  0  0
 36 39  1  0  0  0  0
 37 46  1  0  0  0  0
 38 67  1  0  0  0  0
 39 41  1  0  0  0  0
 40 42  1  0  0  0  0
 40 43  1  0  0  0  0
 41 45  1  0  0  0  0
 42 47  1  0  0  0  0
 43 68  1  0  0  0  0
 44 47  1  0  0  0  0
 44 68  1  0  0  0  0
 45 71  1  0  0  0  0
 46 67  1  0  0  0  0
 47 66  1  0  0  0  0
 49 61  1  0  0  0  0
 50 62  1  0  0  0  0
 51 62  1  0  0  0  0
 52 62  1  0  0  0  0
 53 74  1  0  0  0  0
 54 55  1  0  0  0  0
 55 58  1  0  0  0  0
 56 57  1  0  0  0  0
 56 59  1  0  0  0  0
 57 65  1  0  0  0  0
 58 73  1  0  0  0  0
 59 81  1  0  0  0  0
 60 62  1  0  0  0  0
 60 72  1  0  0  0  0
 61 74  1  0  0  0  0
 63 66  1  0  0  0  0
 64 65  1  0  0  0  0
M  CHG  1  74   1
M  ISO  4  35 100  59 101  73 100  81 101
M  END
> <Batch ID>
0044

> <Smiles>
CNC(C)C(=O)NC(C(=O)N1Cc2cc([101O:1][101CH2:1]CCn3cc(CCC[100NH:0][100C:0](=O)N4CCCC(n5nc(-c6ccc(Oc7ccc(F)cc7F)cc6)c(C(N)=O)c5N)C4)c(C)n3)ccc2CC1C(=O)NC1CCCc2ccccc21)C(C)(C)C

> <Shape>
0.234

> <Color>
0.063

> <Negative vol penalty>
0.000

$$$$

  -OEChem-04052317173D

 81 89  0     1  0  0  0  0  0999 V2000
  -17.4587  -22.0587   27.8480 C   0  0  0  0  0  0  0  0  0  0  0  0
  -18.7088  -21.9404   27.2491 C   0  0  0  0  0  0  0  0  0  0  0  0
  -23.2887   -9.7995   19.9126 C   0  0  0  0  0  0  0  0  0  0  0  0
  -23.7391   -9.9396   22.2821 C   0  0  0  0  0  0  0  0  0  0  0  0
  -17.1260  -21.2456   28.9307 C   0  0  0  0  0  0  0  0  0  0  0  0
  -19.6274  -21.0097   27.7332 C   0  0  0  0  0  0  0  0  0  0  0  0
  -24.8875  -16.6828   25.5139 C   0  0  0  0  0  0  0  0  0  0  0  0
  -22.5624   -8.6269   20.1199 C   0  0  0  0  0  0  0  0  0  0  0  0
  -23.0127   -8.7670   22.4895 C   0  0  0  0  0  0  0  0  0  0  0  0
  -26.2184  -16.3747   25.7924 C   0  0  0  0  0  0  0  0  0  0  0  0
  -20.9734   -6.0065   23.6892 C   0  0  0  0  0  0  0  0  0  0  0  0
  -20.0716   -5.9810   24.7531 C   0  0  0  0  0  0  0  0  0  0  0  0
  -25.5047  -14.9685   27.6179 C   0  0  0  0  0  0  0  0  0  0  0  0
  -18.8622   -7.8283   23.7723 C   0  0  0  0  0  0  0  0  0  0  0  0
  -30.6743  -14.1030   25.9590 C   0  0  0  0  0  0  0  0  0  0  0  0
  -23.8772  -10.4558   20.9937 C   0  0  0  0  0  0  0  0  0  0  0  0
  -24.1365  -12.9859   20.7957 C   0  0  0  0  0  0  0  0  0  0  0  0
  -18.0374  -20.2977   29.4221 C   0  0  0  0  0  0  0  0  0  0  0  0
  -23.8540  -16.1437   26.2935 C   0  0  0  0  0  0  0  0  0  0  0  0
  -19.3071  -20.1841   28.8242 C   0  0  0  0  0  0  0  0  0  0  0  0
  -24.1614  -15.2693   27.3456 C   0  0  0  0  0  0  0  0  0  0  0  0
  -22.4243   -8.1107   21.4083 C   0  0  0  0  0  0  0  0  0  0  0  0
  -26.5274  -15.5198   26.8463 C   0  0  0  0  0  0  0  0  0  0  0  0
  -20.8197   -6.9430   22.6669 C   0  0  0  0  0  0  0  0  0  0  0  0
  -19.0160   -6.8918   24.7946 C   0  0  0  0  0  0  0  0  0  0  0  0
  -19.7641   -7.8538   22.7084 C   0  0  0  0  0  0  0  0  0  0  0  0
  -24.6281  -11.6668   20.7801 C   0  0  0  0  0  0  0  0  0  0  0  0
  -30.1306  -13.4377   27.0740 C   0  0  0  0  0  0  0  0  0  0  0  0
  -31.0435  -13.0940   25.1034 C   0  0  0  0  0  0  0  0  0  0  0  0
  -25.2380  -13.7659   20.5411 C   0  0  0  0  0  0  0  0  0  0  0  0
  -22.8034  -13.4634   21.0204 C   0  0  0  0  0  0  0  0  0  0  0  0
  -21.5943  -17.3565   28.1714 C   0  0  0  0  0  0  0  0  0  0  0  0
  -20.5947  -14.2734   28.3026 C   0  0  0  0  0  0  0  0  0  0  0  0
  -21.3679  -10.9621   28.0113 C   0  0  0  0  0  0  0  0  0  0  0  0
  -31.1089  -12.9228   21.3616 C   0  0  0  0  0  0  0  0  0  0  0  0
  -17.6502  -19.4739   30.6247 C   0  0  0  0  0  0  0  0  0  0  0  0
  -22.4221  -16.4647   25.9633 C   0  0  0  0  0  0  0  0  0  0  0  0
  -23.0876  -14.6481   28.1998 C   0  0  0  0  0  0  0  0  0  0  0  0
  -18.5413  -18.2531   30.8392 C   0  0  0  0  0  0  0  0  0  0  0  0
  -29.4605  -13.6629   18.2937 C   0  0  0  0  0  0  0  0  0  0  0  0
  -20.0121  -18.6363   30.7092 C   0  0  0  0  0  0  0  0  0  0  0  0
  -27.9908  -13.3543   18.5845 C   0  0  0  0  0  0  0  0  0  0  0  0
  -30.3937  -12.6834   19.0020 C   0  0  0  0  0  0  0  0  0  0  0  0
  -28.7068  -12.2535   20.7465 C   0  0  0  0  0  0  0  0  0  0  0  0
  -20.3214  -19.1691   29.3050 C   0  0  1  0  0  0  0  0  0  0  0  0
  -21.4775  -16.2657   27.1447 C   0  0  1  0  0  0  0  0  0  0  0  0
  -27.7289  -13.2489   20.0989 C   0  0  2  0  0  0  0  0  0  0  0  0
  -32.0923   -9.8997   25.8788 C   0  0  0  0  0  0  0  0  0  0  0  0
  -20.9914   -8.4831   27.9126 C   0  0  0  0  0  0  0  0  0  0  0  0
  -20.6864  -14.5042   31.3437 C   0  0  0  0  0  0  0  0  0  0  0  0
  -20.6008  -12.0051   31.4664 C   0  0  0  0  0  0  0  0  0  0  0  0
  -18.7044  -13.2679   30.4506 C   0  0  0  0  0  0  0  0  0  0  0  0
  -20.8542  -11.0392   25.0977 C   0  0  0  0  0  0  0  0  0  0  0  0
  -29.5648  -14.0571   28.3289 C   0  0  0  0  0  0  0  0  0  0  0  0
  -31.6703  -13.1360   23.7696 C   0  0  0  0  0  0  0  0  0  0  0  0
  -30.9015  -10.5886   25.2348 C   0  0  0  0  0  0  0  0  0  0  0  0
  -28.0699  -14.3353   28.2150 C   0  0  0  0  0  0  0  0  0  1  0  0
  -20.8905  -13.0906   29.1929 C   0  0  1  0  0  0  0  0  0  0  0  0
  -20.6784   -9.8278   27.2749 C   0  0  2  0  0  0  0  0  0  0  0  0
  -20.2411  -13.2300   30.5987 C   0  0  0  0  0  0  0  0  0  0  0  0
  -25.9398  -11.6083   20.5347 N   0  0  0  0  0  0  0  0  0  0  0  0
  -30.1504  -12.1087   26.9417 N   0  0  0  0  0  0  0  0  0  0  0  0
  -30.7110  -11.9309   25.7333 N   0  0  0  0  0  0  0  0  0  0  0  0
  -26.2817  -12.9003   20.3938 N   0  0  0  0  0  0  0  0  0  0  0  0
  -21.7031  -14.9977   27.8414 N   0  0  0  0  0  0  0  0  0  0  0  0
  -30.0941  -12.6316   20.4350 N   0  0  0  0  0  0  0  0  0  0  0  0
  -25.4059  -15.1008   20.4310 N   0  0  0  0  0  0  0  0  0  0  0  0
  -21.7908  -12.5264   21.2675 N   0  0  0  0  0  0  0  0  0  0  0  0
  -20.4303  -18.0763   28.3624 N   0  0  0  0  0  0  0  0  0  0  0  0
  -20.4660  -11.9068   28.4534 N   0  0  0  0  0  0  0  0  0  0  0  0
  -30.7390  -12.8569   22.6993 N   0  0  0  0  0  0  0  0  0  0  0  0
  -21.1221   -9.7881   25.8527 N   0  3  0  0  0  0  0  0  0  0  0  0
  -22.5155  -14.6839   20.9863 O   0  0  0  0  0  0  0  0  0  0  0  0
  -22.6611  -17.5312   28.7486 O   0  0  0  0  0  0  0  0  0  0  0  0
  -19.4239  -14.5404   28.0208 O   0  0  0  0  0  0  0  0  0  0  0  0
  -22.5845  -11.0040   28.1809 O   0  0  0  0  0  0  0  0  0  0  0  0
  -32.2579  -13.2247   21.0217 O   0  0  0  0  0  0  0  0  0  0  0  0
  -21.7154   -6.9666   21.6111 O   0  0  0  0  0  0  0  0  0  0  0  0
  -27.8256  -15.2180   27.1207 O   0  0  0  0  0  0  0  0  0  1  0  0
  -18.1492   -6.8661   25.8154 F   0  0  0  0  0  0  0  0  0  0  0  0
  -19.6106   -8.7551   21.7286 F   0  0  0  0  0  0  0  0  0  0  0  0
  1  2  1  0  0  0  0
  1  5  2  0  0  0  0
  2  6  2  0  0  0  0
  3  8  2  0  0  0  0
  3 16  1  0  0  0  0
  4  9  1  0  0  0  0
  4 16  2  0  0  0  0
  5 18  1  0  0  0  0
  6 20  1  0  0  0  0
  7 10  2  0  0  0  0
  7 19  1  0  0  0  0
  8 22  1  0  0  0  0
  9 22  2  0  0  0  0
 10 23  1  0  0  0  0
 11 12  2  0  0  0  0
 11 24  1  0  0  0  0
 12 25  1  0  0  0  0
 13 21  1  0  0  0  0
 13 23  2  0  0  0  0
 14 25  2  0  0  0  0
 14 26  1  0  0  0  0
 15 28  1  0  0  0  0
 15 29  2  0  0  0  0
 16 27  1  0  0  0  0
 17 27  1  0  0  0  0
 17 30  2  0  0  0  0
 17 31  1  0  0  0  0
 18 20  2  0  0  0  0
 18 36  1  0  0  0  0
 19 21  2  0  0  0  0
 19 37  1  0  0  0  0
 20 45  1  0  0  0  0
 21 38  1  0  0  0  0
 22 78  1  0  0  0  0
 23 79  1  0  0  0  0
 24 26  2  0  0  0  0
 24 78  1  0  0  0  0
 25 80  1  0  0  0  0
 26 81  1  0  0  0  0
 27 61  2  0  0  0  0
 28 54  1  0  0  0  0
 28 62  2  0  0  0  0
 29 55  1  0  0  0  0
 29 63  1  0  0  0  0
 30 64  1  0  0  0  0
 30 67  1  0  0  0  0
 31 68  1  0  0  0  0
 31 73  2  0  0  0  0
 32 46  1  0  0  0  0
 32 69  1  0  0  0  0
 32 74  2  0  0  0  0
 33 58  1  0  0  0  0
 33 65  1  0  0  0  0
 33 75  2  0  0  0  0
 34 59  1  0  0  0  0
 34 70  1  0  0  0  0
 34 76  2  0  0  0  0
 35 66  1  0  0  0  0
 35 71  1  0  0  0  0
 35 77  2  0  0  0  0
 36 39  1  0  0  0  0
 37 46  1  0  0  0  0
 38 65  1  0  0  0  0
 39 41  1  0  0  0  0
 40 42  1  0  0  0  0
 40 43  1  0  0  0  0
 41 45  1  0  0  0  0
 42 47  1  0  0  0  0
 43 66  1  0  0  0  0
 44 47  1  0  0  0  0
 44 66  1  0  0  0  0
 45 69  1  0  0  0  0
 46 65  1  0  0  0  0
 47 64  1  0  0  0  0
 48 56  1  0  0  0  0
 49 59  1  0  0  0  0
 50 60  1  0  0  0  0
 51 60  1  0  0  0  0
 52 60  1  0  0  0  0
 53 72  1  0  0  0  0
 54 57  1  0  0  0  0
 55 71  1  0  0  0  0
 56 63  1  0  0  0  0
 57 79  1  0  0  0  0
 58 60  1  0  0  0  0
 58 70  1  0  0  0  0
 59 72  1  0  0  0  0
 61 64  1  0  0  0  0
 62 63  1  0  0  0  0
M  CHG  1  72   1
M  ISO  4  35 100  57 101  71 100  79 101
M  END
> <Batch ID>
0044

> <Smiles>
CCn1nc(C[101CH2:1][101O:1]c2ccc3c(c2)CN(C(=O)C(NC(=O)C(C)NC)C(C)(C)C)C(C(=O)NC2CCCc4ccccc42)C3)cc1C[100NH:0][100C:0](=O)N1CCCC(n2nc(-c3ccc(Oc4ccc(F)cc4F)cc3)c(C(N)=O)c2N)C1

> <Shape>
0.129

> <Color>
0.178

> <Negative vol penalty>
0.000

$$$$

  -OEChem-04052317173D

 82 90  0     1  0  0  0  0  0999 V2000
  -34.5977  -17.6985   25.2252 C   0  0  0  0  0  0  0  0  0  0  0  0
  -33.6415  -18.4875   24.5940 C   0  0  0  0  0  0  0  0  0  0  0  0
  -29.4182  -26.1749   20.1703 C   0  0  0  0  0  0  0  0  0  0  0  0
  -27.3427  -25.2680   21.0109 C   0  0  0  0  0  0  0  0  0  0  0  0
  -34.7585  -16.3656   24.8491 C   0  0  0  0  0  0  0  0  0  0  0  0
  -32.8462  -17.9444   23.5855 C   0  0  0  0  0  0  0  0  0  0  0  0
  -26.9946  -19.2931   22.3831 C   0  0  0  0  0  0  0  0  0  0  0  0
  -29.0209  -27.4518   20.5669 C   0  0  0  0  0  0  0  0  0  0  0  0
  -26.9454  -26.5449   21.4076 C   0  0  0  0  0  0  0  0  0  0  0  0
  -26.4000  -20.1381   21.4470 C   0  0  0  0  0  0  0  0  0  0  0  0
  -25.2291  -29.6168   22.3170 C   0  0  0  0  0  0  0  0  0  0  0  0
  -23.9222  -30.0086   22.0268 C   0  0  0  0  0  0  0  0  0  0  0  0
  -26.0828  -18.2620   19.9641 C   0  0  0  0  0  0  0  0  0  0  0  0
  -24.3565  -29.7106   19.6689 C   0  0  0  0  0  0  0  0  0  0  0  0
  -21.2333  -19.3383   17.6713 C   0  0  0  0  0  0  0  0  0  0  0  0
  -21.7935  -20.2963   19.6163 C   0  0  0  0  0  0  0  0  0  0  0  0
  -28.5791  -25.0830   20.3922 C   0  0  0  0  0  0  0  0  0  0  0  0
  -29.7078  -22.8223   20.7426 C   0  0  0  0  0  0  0  0  0  0  0  0
  -33.9582  -15.8031   23.8422 C   0  0  0  0  0  0  0  0  0  0  0  0
  -27.1479  -17.9259   22.1118 C   0  0  0  0  0  0  0  0  0  0  0  0
  -32.9974  -16.6031   23.1947 C   0  0  0  0  0  0  0  0  0  0  0  0
  -26.6773  -17.4014   20.8995 C   0  0  0  0  0  0  0  0  0  0  0  0
  -22.1974  -20.2843   17.4013 C   0  0  0  0  0  0  0  0  0  0  0  0
  -22.5517  -20.8905   18.6318 C   0  0  0  0  0  0  0  0  0  0  0  0
  -27.7845  -27.6368   21.1856 C   0  0  0  0  0  0  0  0  0  0  0  0
  -25.9466  -19.6231   20.2361 C   0  0  0  0  0  0  0  0  0  0  0  0
  -26.0997  -29.2721   21.2832 C   0  0  0  0  0  0  0  0  0  0  0  0
  -23.4859  -30.0555   20.7028 C   0  0  0  0  0  0  0  0  0  0  0  0
  -25.6634  -29.3189   19.9591 C   0  0  0  0  0  0  0  0  0  0  0  0
  -28.9887  -23.7638   19.9822 C   0  0  0  0  0  0  0  0  0  0  0  0
  -29.8427  -21.7389   19.9091 C   0  0  0  0  0  0  0  0  0  0  0  0
  -30.2090  -22.9183   22.0824 C   0  0  0  0  0  0  0  0  0  0  0  0
  -29.6297  -15.9621   21.8160 C   0  0  0  0  0  0  0  0  0  0  0  0
  -27.3162  -13.6978   21.6092 C   0  0  0  0  0  0  0  0  0  0  0  0
  -24.0752  -12.9263   20.8693 C   0  0  0  0  0  0  0  0  0  0  0  0
  -26.6587  -19.7670   15.2374 C   0  0  0  0  0  0  0  0  0  0  0  0
  -34.2010  -14.3708   23.4372 C   0  0  0  0  0  0  0  0  0  0  0  0
  -27.7672  -17.0230   23.1431 C   0  0  0  0  0  0  0  0  0  0  0  0
  -26.7997  -15.9372   20.5682 C   0  0  0  0  0  0  0  0  0  0  0  0
  -33.0623  -13.7678   22.6186 C   0  0  0  0  0  0  0  0  0  0  0  0
  -30.1217  -20.5936   15.2722 C   0  0  0  0  0  0  0  0  0  0  0  0
  -32.6265  -14.7317   21.5196 C   0  0  0  0  0  0  0  0  0  0  0  0
  -30.2889  -21.4149   16.5519 C   0  0  0  0  0  0  0  0  0  0  0  0
  -28.7813  -20.8707   14.5949 C   0  0  0  0  0  0  0  0  0  0  0  0
  -27.7691  -21.5257   16.7443 C   0  0  0  0  0  0  0  0  0  0  0  0
  -32.0987  -16.0433   22.1135 C   0  0  1  0  0  0  0  0  0  0  0  0
  -28.3368  -15.7389   22.5482 C   0  0  1  0  0  0  0  0  0  0  0  0
  -29.0819  -21.2387   17.4929 C   0  0  2  0  0  0  0  0  0  0  0  0
  -22.4881  -10.9856   20.7588 C   0  0  0  0  0  0  0  0  0  0  0  0
  -28.6153  -12.7870   19.0029 C   0  0  0  0  0  0  0  0  0  0  0  0
  -26.5121  -11.5365   18.4728 C   0  0  0  0  0  0  0  0  0  0  0  0
  -27.8473  -10.9292   20.4906 C   0  0  0  0  0  0  0  0  0  0  0  0
  -20.0511  -18.5060   19.7108 C   0  0  0  0  0  0  0  0  0  0  0  0
  -22.2929  -14.1182   22.9094 C   0  0  0  0  0  0  0  0  0  0  0  0
  -22.7528  -20.5988   16.0699 C   0  0  0  0  0  0  0  0  0  0  0  0
  -23.5696  -21.9857   18.8388 C   0  0  0  0  0  0  0  0  0  0  0  0
  -23.3576  -19.3919   15.3129 C   0  0  0  0  0  0  0  0  0  0  0  0
  -24.5411  -18.7396   16.0244 C   0  0  0  0  0  0  0  0  0  0  0  0
  -24.6637  -21.5821   19.8213 C   0  0  0  0  0  0  0  0  0  1  0  0
  -26.5209  -13.0816   20.4837 C   0  0  1  0  0  0  0  0  0  0  0  0
  -23.0368  -12.1124   21.6202 C   0  0  2  0  0  0  0  0  0  0  0  0
  -27.3732  -12.1116   19.6176 C   0  0  0  0  0  0  0  0  0  0  0  0
  -28.6879  -23.3178   18.7597 N   0  0  0  0  0  0  0  0  0  0  0  0
  -20.9959  -19.3542   19.0210 N   0  0  0  0  0  0  0  0  0  0  0  0
  -29.2207  -22.0841   18.7455 N   0  0  0  0  0  0  0  0  0  0  0  0
  -27.4181  -15.0962   21.6064 N   0  0  0  0  0  0  0  0  0  0  0  0
  -27.6783  -20.6843   15.5407 N   0  0  0  0  0  0  0  0  0  0  0  0
  -30.4316  -20.5342   20.0655 N   0  0  0  0  0  0  0  0  0  0  0  0
  -29.9821  -24.1023   22.7974 N   0  0  0  0  0  0  0  0  0  0  0  0
  -30.7529  -15.8655   22.6151 N   0  0  0  0  0  0  0  0  0  0  0  0
  -25.3528  -12.4623   21.1006 N   0  0  0  0  0  0  0  0  0  0  0  0
  -25.6547  -19.6468   16.1905 N   0  0  0  0  0  0  0  0  0  0  0  0
  -21.9002  -12.9812   22.0375 N   0  3  0  0  0  0  0  0  0  0  0  0
  -30.8536  -21.9883   22.6237 O   0  0  0  0  0  0  0  0  0  0  0  0
  -29.6099  -16.2027   20.6145 O   0  0  0  0  0  0  0  0  0  0  0  0
  -27.8222  -12.9658   22.4635 O   0  0  0  0  0  0  0  0  0  0  0  0
  -23.7818  -13.8763   20.1468 O   0  0  0  0  0  0  0  0  0  0  0  0
  -26.6469  -19.1005   14.1970 O   0  0  0  0  0  0  0  0  0  0  0  0
  -27.3966  -28.8826   21.5730 O   0  0  0  0  0  0  0  0  0  0  0  0
  -25.3665  -20.4457   19.3203 O   0  0  0  0  0  0  0  0  0  1  0  0
  -22.2304  -30.4302   20.4243 F   0  0  0  0  0  0  0  0  0  0  0  0
  -26.4949  -28.9877   18.9618 F   0  0  0  0  0  0  0  0  0  0  0  0
  1  2  1  0  0  0  0
  1  5  2  0  0  0  0
  2  6  2  0  0  0  0
  3  8  2  0  0  0  0
  3 17  1  0  0  0  0
  4  9  1  0  0  0  0
  4 17  2  0  0  0  0
  5 19  1  0  0  0  0
  6 21  1  0  0  0  0
  7 10  2  0  0  0  0
  7 20  1  0  0  0  0
  8 25  1  0  0  0  0
  9 25  2  0  0  0  0
 10 26  1  0  0  0  0
 11 12  2  0  0  0  0
 11 27  1  0  0  0  0
 12 28  1  0  0  0  0
 13 22  1  0  0  0  0
 13 26  2  0  0  0  0
 14 28  2  0  0  0  0
 14 29  1  0  0  0  0
 15 23  2  0  0  0  0
 15 64  1  0  0  0  0
 16 24  2  0  0  0  0
 16 64  1  0  0  0  0
 17 30  1  0  0  0  0
 18 30  1  0  0  0  0
 18 31  2  0  0  0  0
 18 32  1  0  0  0  0
 19 21  2  0  0  0  0
 19 37  1  0  0  0  0
 20 22  2  0  0  0  0
 20 38  1  0  0  0  0
 21 46  1  0  0  0  0
 22 39  1  0  0  0  0
 23 24  1  0  0  0  0
 23 55  1  0  0  0  0
 24 56  1  0  0  0  0
 25 79  1  0  0  0  0
 26 80  1  0  0  0  0
 27 29  2  0  0  0  0
 27 79  1  0  0  0  0
 28 81  1  0  0  0  0
 29 82  1  0  0  0  0
 30 63  2  0  0  0  0
 31 65  1  0  0  0  0
 31 68  1  0  0  0  0
 32 69  1  0  0  0  0
 32 74  2  0  0  0  0
 33 47  1  0  0  0  0
 33 70  1  0  0  0  0
 33 75  2  0  0  0  0
 34 60  1  0  0  0  0
 34 66  1  0  0  0  0
 34 76  2  0  0  0  0
 35 61  1  0  0  0  0
 35 71  1  0  0  0  0
 35 77  2  0  0  0  0
 36 67  1  0  0  0  0
 36 72  1  0  0  0  0
 36 78  2  0  0  0  0
 37 40  1  0  0  0  0
 38 47  1  0  0  0  0
 39 66  1  0  0  0  0
 40 42  1  0  0  0  0
 41 43  1  0  0  0  0
 41 44  1  0  0  0  0
 42 46  1  0  0  0  0
 43 48  1  0  0  0  0
 44 67  1  0  0  0  0
 45 48  1  0  0  0  0
 45 67  1  0  0  0  0
 46 70  1  0  0  0  0
 47 66  1  0  0  0  0
 48 65  1  0  0  0  0
 49 61  1  0  0  0  0
 50 62  1  0  0  0  0
 51 62  1  0  0  0  0
 52 62  1  0  0  0  0
 53 64  1  0  0  0  0
 54 73  1  0  0  0  0
 55 57  1  0  0  0  0
 56 59  1  0  0  0  0
 57 58  1  0  0  0  0
 58 72  1  0  0  0  0
 59 80  1  0  0  0  0
 60 62  1  0  0  0  0
 60 71  1  0  0  0  0
 61 73  1  0  0  0  0
 63 65  1  0  0  0  0
M  CHG  1  73   1
M  ISO  4  36 100  59 101  72 100  80 101
M  END
> <Batch ID>
0044

> <Smiles>
CNC(C)C(=O)NC(C(=O)N1Cc2cc([101O:1][101CH2:1]Cc3cn(C)cc3CCC[100NH:0][100C:0](=O)N3CCCC(n4nc(-c5ccc(Oc6ccc(F)cc6F)cc5)c(C(N)=O)c4N)C3)ccc2CC1C(=O)NC1CCCc2ccccc21)C(C)(C)C

> <Shape>
0.196

> <Color>
0.059

> <Negative vol penalty>
0.000

$$$$

  -OEChem-04052317173D

 82 90  0     1  0  0  0  0  0999 V2000
  -22.0181  -28.6915   23.0682 C   0  0  0  0  0  0  0  0  0  0  0  0
  -22.7871  -27.5396   23.1985 C   0  0  0  0  0  0  0  0  0  0  0  0
  -22.8457  -10.0946   20.0717 C   0  0  0  0  0  0  0  0  0  0  0  0
  -23.6301  -10.0698   22.3567 C   0  0  0  0  0  0  0  0  0  0  0  0
  -22.3824  -29.6708   22.1450 C   0  0  0  0  0  0  0  0  0  0  0  0
  -23.9203  -27.3657   22.4048 C   0  0  0  0  0  0  0  0  0  0  0  0
  -29.1422  -24.5922   24.0005 C   0  0  0  0  0  0  0  0  0  0  0  0
  -22.0062   -9.0156   20.3481 C   0  0  0  0  0  0  0  0  0  0  0  0
  -22.7905   -8.9908   22.6332 C   0  0  0  0  0  0  0  0  0  0  0  0
  -29.6294  -23.3063   23.7709 C   0  0  0  0  0  0  0  0  0  0  0  0
  -22.7812   -5.6479   22.1273 C   0  0  0  0  0  0  0  0  0  0  0  0
  -23.3124   -4.5834   22.8556 C   0  0  0  0  0  0  0  0  0  0  0  0
  -30.8574  -24.1192   21.8603 C   0  0  0  0  0  0  0  0  0  0  0  0
  -21.6530   -4.9327   24.5764 C   0  0  0  0  0  0  0  0  0  0  0  0
  -32.9456  -16.6927   20.0834 C   0  0  0  0  0  0  0  0  0  0  0  0
  -23.6577  -10.6217   21.0759 C   0  0  0  0  0  0  0  0  0  0  0  0
  -24.2191  -13.1047   20.9111 C   0  0  0  0  0  0  0  0  0  0  0  0
  -23.5261  -29.5133   21.3464 C   0  0  0  0  0  0  0  0  0  0  0  0
  -29.5009  -25.6510   23.1538 C   0  0  0  0  0  0  0  0  0  0  0  0
  -24.2996  -28.3432   21.4691 C   0  0  0  0  0  0  0  0  0  0  0  0
  -30.3754  -25.4182   22.0829 C   0  0  0  0  0  0  0  0  0  0  0  0
  -21.9785   -8.4637   21.6288 C   0  0  0  0  0  0  0  0  0  0  0  0
  -30.4849  -23.0690   22.6990 C   0  0  0  0  0  0  0  0  0  0  0  0
  -21.6859   -6.3548   22.6236 C   0  0  0  0  0  0  0  0  0  0  0  0
  -22.7483   -4.2259   24.0801 C   0  0  0  0  0  0  0  0  0  0  0  0
  -21.1218   -5.9972   23.8482 C   0  0  0  0  0  0  0  0  0  0  0  0
  -24.5256  -11.7360   20.7908 C   0  0  0  0  0  0  0  0  0  0  0  0
  -32.9751  -15.5218   20.8083 C   0  0  0  0  0  0  0  0  0  0  0  0
  -34.2877  -16.5315   22.3856 C   0  0  0  0  0  0  0  0  0  0  0  0
  -34.2587  -17.7022   21.6601 C   0  0  0  0  0  0  0  0  0  0  0  0
  -25.3687  -13.7492   20.5244 C   0  0  0  0  0  0  0  0  0  0  0  0
  -23.0040  -13.7370   21.3346 C   0  0  0  0  0  0  0  0  0  0  0  0
  -27.9142  -27.6168   21.2246 C   0  0  0  0  0  0  0  0  0  0  0  0
  -30.8386  -14.2613   20.8343 C   0  0  0  0  0  0  0  0  0  0  0  0
  -30.8152  -29.0369   20.9255 C   0  0  0  0  0  0  0  0  0  0  0  0
  -34.2110  -28.7586   21.1198 C   0  0  0  0  0  0  0  0  0  0  0  0
  -23.8534  -30.5775   20.3292 C   0  0  0  0  0  0  0  0  0  0  0  0
  -28.9880  -27.0376   23.4309 C   0  0  0  0  0  0  0  0  0  0  0  0
  -30.8071  -26.5246   21.1566 C   0  0  0  0  0  0  0  0  0  0  0  0
  -25.2790  -30.4875   19.7906 C   0  0  0  0  0  0  0  0  0  0  0  0
  -29.5491  -11.9953   18.2987 C   0  0  0  0  0  0  0  0  0  0  0  0
  -25.6188  -29.0480   19.4177 C   0  0  0  0  0  0  0  0  0  0  0  0
  -28.1018  -11.8172   18.7554 C   0  0  0  0  0  0  0  0  0  0  0  0
  -30.4992  -12.1336   19.4854 C   0  0  0  0  0  0  0  0  0  0  0  0
  -28.6800  -13.0534   20.8887 C   0  0  0  0  0  0  0  0  0  0  0  0
  -25.5498  -28.1295   20.6437 C   0  0  1  0  0  0  0  0  0  0  0  0
  -29.0099  -27.9396   22.2007 C   0  0  1  0  0  0  0  0  0  0  0  0
  -27.6856  -12.9407   19.7210 C   0  0  2  0  0  0  0  0  0  0  0  0
  -35.0339  -16.4328   23.6721 C   0  0  0  0  0  0  0  0  0  0  0  0
  -36.3183  -30.0784   20.7808 C   0  0  0  0  0  0  0  0  0  0  0  0
  -30.5002  -28.7590   17.9033 C   0  0  0  0  0  0  0  0  0  0  0  0
  -32.9556  -29.1930   17.6775 C   0  0  0  0  0  0  0  0  0  0  0  0
  -31.4668  -30.9395   18.6552 C   0  0  0  0  0  0  0  0  0  0  0  0
  -35.0082  -28.4330   23.9513 C   0  0  0  0  0  0  0  0  0  0  0  0
  -32.2555  -14.3134   20.3209 C   0  0  0  0  0  0  0  0  0  0  0  0
  -34.9805  -18.9386   22.1335 C   0  0  0  0  0  0  0  0  0  0  0  0
  -34.3006  -20.2488   21.7205 C   0  0  0  0  0  0  0  0  0  0  0  0
  -32.9066  -20.4168   22.3267 C   0  0  0  0  0  0  0  0  0  0  0  0
  -32.2474  -21.7087   21.8631 C   0  0  0  0  0  0  0  0  0  1  0  0
  -31.9984  -28.8677   20.0032 C   0  0  1  0  0  0  0  0  0  0  0  0
  -35.2578  -29.6390   21.7783 C   0  0  2  0  0  0  0  0  0  0  0  0
  -31.7208  -29.4183   18.5759 C   0  0  0  0  0  0  0  0  0  0  0  0
  -33.5869  -17.8039   20.4962 N   0  0  0  0  0  0  0  0  0  0  0  0
  -25.7721  -11.5225   20.3612 N   0  0  0  0  0  0  0  0  0  0  0  0
  -33.6466  -15.4202   21.9725 N   0  0  0  0  0  0  0  0  0  0  0  0
  -26.2590  -12.7657   20.2080 N   0  0  0  0  0  0  0  0  0  0  0  0
  -30.2737  -27.8616   21.4652 N   0  0  0  0  0  0  0  0  0  0  0  0
  -30.0529  -13.1953   20.3953 N   0  0  0  0  0  0  0  0  0  0  0  0
  -25.6946  -15.0557   20.4274 N   0  0  0  0  0  0  0  0  0  0  0  0
  -21.9200  -12.9259   21.6971 N   0  0  0  0  0  0  0  0  0  0  0  0
  -26.7316  -28.2907   21.4632 N   0  0  0  0  0  0  0  0  0  0  0  0
  -33.1323  -29.4933   20.6750 N   0  0  0  0  0  0  0  0  0  0  0  0
  -35.9307  -28.9035   22.8861 N   0  3  0  0  0  0  0  0  0  0  0  0
  -22.8777  -14.9844   21.3742 O   0  0  0  0  0  0  0  0  0  0  0  0
  -28.1264  -26.8167   20.3210 O   0  0  0  0  0  0  0  0  0  0  0  0
  -30.4430  -15.1439   21.6002 O   0  0  0  0  0  0  0  0  0  0  0  0
  -30.3917  -30.1707   21.1640 O   0  0  0  0  0  0  0  0  0  0  0  0
  -34.3393  -27.5414   21.0076 O   0  0  0  0  0  0  0  0  0  0  0  0
  -21.1592   -7.4109   21.8990 O   0  0  0  0  0  0  0  0  0  0  0  0
  -30.9614  -21.8147   22.4723 O   0  0  0  0  0  0  0  0  0  1  0  0
  -23.2575   -3.2027   24.7786 F   0  0  0  0  0  0  0  0  0  0  0  0
  -20.0688   -6.6719   24.3295 F   0  0  0  0  0  0  0  0  0  0  0  0
  1  2  1  0  0  0  0
  1  5  2  0  0  0  0
  2  6  2  0  0  0  0
  3  8  2  0  0  0  0
  3 16  1  0  0  0  0
  4  9  1  0  0  0  0
  4 16  2  0  0  0  0
  5 18  1  0  0  0  0
  6 20  1  0  0  0  0
  7 10  2  0  0  0  0
  7 19  1  0  0  0  0
  8 22  1  0  0  0  0
  9 22  2  0  0  0  0
 10 23  1  0  0  0  0
 11 12  2  0  0  0  0
 11 24  1  0  0  0  0
 12 25  1  0  0  0  0
 13 21  1  0  0  0  0
 13 23  2  0  0  0  0
 14 25  2  0  0  0  0
 14 26  1  0  0  0  0
 15 28  1  0  0  0  0
 15 63  2  0  0  0  0
 16 27  1  0  0  0  0
 17 27  1  0  0  0  0
 17 31  2  0  0  0  0
 17 32  1  0  0  0  0
 18 20  2  0  0  0  0
 18 37  1  0  0  0  0
 19 21  2  0  0  0  0
 19 38  1  0  0  0  0
 20 46  1  0  0  0  0
 21 39  1  0  0  0  0
 22 79  1  0  0  0  0
 23 80  1  0  0  0  0
 24 26  2  0  0  0  0
 24 79  1  0  0  0  0
 25 81  1  0  0  0  0
 26 82  1  0  0  0  0
 27 64  2  0  0  0  0
 28 55  1  0  0  0  0
 28 65  2  0  0  0  0
 29 30  2  0  0  0  0
 29 49  1  0  0  0  0
 29 65  1  0  0  0  0
 30 56  1  0  0  0  0
 30 63  1  0  0  0  0
 31 66  1  0  0  0  0
 31 69  1  0  0  0  0
 32 70  1  0  0  0  0
 32 74  2  0  0  0  0
 33 47  1  0  0  0  0
 33 71  1  0  0  0  0
 33 75  2  0  0  0  0
 34 55  1  0  0  0  0
 34 68  1  0  0  0  0
 34 76  2  0  0  0  0
 35 60  1  0  0  0  0
 35 67  1  0  0  0  0
 35 77  2  0  0  0  0
 36 61  1  0  0  0  0
 36 72  1  0  0  0  0
 36 78  2  0  0  0  0
 37 40  1  0  0  0  0
 38 47  1  0  0  0  0
 39 67  1  0  0  0  0
 40 42  1  0  0  0  0
 41 43  1  0  0  0  0
 41 44  1  0  0  0  0
 42 46  1  0  0  0  0
 43 48  1  0  0  0  0
 44 68  1  0  0  0  0
 45 48  1  0  0  0  0
 45 68  1  0  0  0  0
 46 71  1  0  0  0  0
 47 67  1  0  0  0  0
 48 66  1  0  0  0  0
 50 61  1  0  0  0  0
 51 62  1  0  0  0  0
 52 62  1  0  0  0  0
 53 62  1  0  0  0  0
 54 73  1  0  0  0  0
 56 57  1  0  0  0  0
 57 58  1  0  0  0  0
 58 59  1  0  0  0  0
 59 80  1  0  0  0  0
 60 62  1  0  0  0  0
 60 72  1  0  0  0  0
 61 73  1  0  0  0  0
 64 66  1  0  0  0  0
M  CHG  1  73   1
M  ISO  4  34 100  55 100  59 101  80 101
M  END
> <Batch ID>
0044

> <Smiles>
CNC(C)C(=O)NC(C(=O)N1Cc2cc([101O:1][101CH2:1]CCCc3ncc([100CH2:0][100C:0](=O)N4CCCC(n5nc(-c6ccc(Oc7ccc(F)cc7F)cc6)c(C(N)=O)c5N)C4)nc3C)ccc2CC1C(=O)NC1CCCc2ccccc21)C(C)(C)C

> <Shape>
0.255

> <Color>
0.200

> <Negative vol penalty>
0.000

$$$$

  -OEChem-04052317173D

 86 94  0     1  0  0  0  0  0999 V2000
  -25.7206  -36.4311   22.0996 C   0  0  0  0  0  0  0  0  0  0  0  0
  -26.4365  -35.6785   21.1742 C   0  0  0  0  0  0  0  0  0  0  0  0
  -24.4550  -14.6162   21.9406 C   0  0  0  0  0  0  0  0  0  0  0  0
  -25.9631  -15.0772   20.1102 C   0  0  0  0  0  0  0  0  0  0  0  0
  -25.4337  -35.8995   23.3562 C   0  0  0  0  0  0  0  0  0  0  0  0
  -26.8670  -34.3942   21.5052 C   0  0  0  0  0  0  0  0  0  0  0  0
  -28.0675  -27.9758   18.5591 C   0  0  0  0  0  0  0  0  0  0  0  0
  -29.4977  -20.1763   19.6661 C   0  0  0  0  0  0  0  0  0  0  0  0
  -24.7226  -13.2528   21.8178 C   0  0  0  0  0  0  0  0  0  0  0  0
  -26.2307  -13.7138   19.9874 C   0  0  0  0  0  0  0  0  0  0  0  0
  -29.0628  -27.0043   18.4623 C   0  0  0  0  0  0  0  0  0  0  0  0
  -23.7817  -10.7013   19.8105 C   0  0  0  0  0  0  0  0  0  0  0  0
  -22.6988   -9.8230   19.8494 C   0  0  0  0  0  0  0  0  0  0  0  0
  -28.1856  -20.6213   19.7828 C   0  0  0  0  0  0  0  0  0  0  0  0
  -28.4408  -26.1591   20.6343 C   0  0  0  0  0  0  0  0  0  0  0  0
  -23.6481   -8.7383   21.7883 C   0  0  0  0  0  0  0  0  0  0  0  0
  -25.0752  -15.5284   21.0868 C   0  0  0  0  0  0  0  0  0  0  0  0
  -25.4854  -17.8697   22.0132 C   0  0  0  0  0  0  0  0  0  0  0  0
  -25.8525  -34.6043   23.6994 C   0  0  0  0  0  0  0  0  0  0  0  0
  -27.2572  -28.0532   19.7009 C   0  0  0  0  0  0  0  0  0  0  0  0
  -26.5866  -33.8452   22.7681 C   0  0  0  0  0  0  0  0  0  0  0  0
  -27.4342  -27.1308   20.7421 C   0  0  0  0  0  0  0  0  0  0  0  0
  -30.4691  -21.0228   19.1435 C   0  0  0  0  0  0  0  0  0  0  0  0
  -25.6104  -12.8016   20.8411 C   0  0  0  0  0  0  0  0  0  0  0  0
  -29.2515  -26.0976   19.5012 C   0  0  0  0  0  0  0  0  0  0  0  0
  -24.7979  -10.5980   20.7605 C   0  0  0  0  0  0  0  0  0  0  0  0
  -22.6319   -8.8416   20.8382 C   0  0  0  0  0  0  0  0  0  0  0  0
  -24.7310   -9.6166   21.7494 C   0  0  0  0  0  0  0  0  0  0  0  0
  -24.7988  -16.9369   21.2129 C   0  0  0  0  0  0  0  0  0  0  0  0
  -27.8987  -21.9111   19.3659 C   0  0  0  0  0  0  0  0  0  0  0  0
  -30.0799  -22.2946   18.7550 C   0  0  0  0  0  0  0  0  0  0  0  0
  -24.8415  -19.0606   21.7815 C   0  0  0  0  0  0  0  0  0  0  0  0
  -26.6051  -17.6769   22.8877 C   0  0  0  0  0  0  0  0  0  0  0  0
  -26.7451  -30.2469   21.9435 C   0  0  0  0  0  0  0  0  0  0  0  0
  -24.4573  -28.1608   22.9114 C   0  0  0  0  0  0  0  0  0  0  0  0
  -23.3058  -24.9489   22.9766 C   0  0  0  0  0  0  0  0  0  0  0  0
  -22.2451  -21.6141   17.1101 C   0  0  0  0  0  0  0  0  0  0  0  0
  -25.5596  -34.0904   25.0867 C   0  0  0  0  0  0  0  0  0  0  0  0
  -26.1703  -29.0901   19.7785 C   0  0  0  0  0  0  0  0  0  0  0  0
  -26.5774  -27.1587   21.9805 C   0  0  0  0  0  0  0  0  0  0  0  0
  -25.7276  -32.5794   25.2247 C   0  0  0  0  0  0  0  0  0  0  0  0
  -20.4008  -20.3629   20.0655 C   0  0  0  0  0  0  0  0  0  0  0  0
  -27.0351  -32.1269   24.5824 C   0  0  0  0  0  0  0  0  0  0  0  0
  -21.3948  -19.3844   20.6888 C   0  0  0  0  0  0  0  0  0  0  0  0
  -20.5951  -20.4851   18.5572 C   0  0  0  0  0  0  0  0  0  0  0  0
  -22.9775  -19.8613   18.7788 C   0  0  0  0  0  0  0  0  0  0  0  0
  -27.0492  -32.4388   23.0811 C   0  0  1  0  0  0  0  0  0  0  0  0
  -25.7428  -29.4018   21.2094 C   0  0  1  0  0  0  0  0  0  0  0  0
  -22.8391  -19.7503   20.3046 C   0  0  2  0  0  0  0  0  0  0  0  0
  -34.0391  -20.0394   20.2358 C   0  0  0  0  0  0  0  0  0  0  0  0
  -21.7313  -23.0486   23.4319 C   0  0  0  0  0  0  0  0  0  0  0  0
  -25.7219  -28.2555   25.6866 C   0  0  0  0  0  0  0  0  0  0  0  0
  -24.4455  -26.1801   26.2627 C   0  0  0  0  0  0  0  0  0  0  0  0
  -23.2211  -28.2734   25.6786 C   0  0  0  0  0  0  0  0  0  0  0  0
  -23.7055  -23.2894   16.0422 C   0  0  0  0  0  0  0  0  0  0  0  0
  -21.9074  -25.3368   20.3972 C   0  0  0  0  0  0  0  0  0  0  0  0
  -31.8762  -20.5513   19.0148 C   0  0  0  0  0  0  0  0  0  0  0  0
  -26.5010  -22.4219   19.4785 C   0  0  0  0  0  0  0  0  0  0  0  0
  -31.0916  -23.2581   18.1837 C   0  0  0  0  0  0  0  0  0  0  0  0
  -32.6139  -20.5537   20.3631 C   0  0  0  0  0  0  0  0  0  0  0  0
  -25.6259  -22.1627   18.2367 C   0  0  0  0  0  0  0  0  0  0  0  0
  -24.1820  -22.6405   18.3741 C   0  0  0  0  0  0  0  0  0  0  0  0
  -30.5539  -24.6826   18.1021 C   0  0  0  0  0  0  0  0  0  1  0  0
  -24.4134  -26.9860   23.8584 C   0  0  1  0  0  0  0  0  0  0  0  0
  -21.9322  -24.3654   22.6982 C   0  0  2  0  0  0  0  0  0  0  0  0
  -24.4681  -27.4242   25.3492 C   0  0  0  0  0  0  0  0  0  0  0  0
  -23.7956  -17.4878   20.5244 N   0  0  0  0  0  0  0  0  0  0  0  0
  -28.8153  -22.7623   18.8532 N   0  0  0  0  0  0  0  0  0  0  0  0
  -23.8470  -18.7796   20.8915 N   0  0  0  0  0  0  0  0  0  0  0  0
  -25.5323  -28.1952   22.0119 N   0  0  0  0  0  0  0  0  0  0  0  0
  -21.9853  -20.7906   18.2179 N   0  0  0  0  0  0  0  0  0  0  0  0
  -25.0346  -20.3101   22.2544 N   0  0  0  0  0  0  0  0  0  0  0  0
  -27.1444  -16.3889   23.0087 N   0  0  0  0  0  0  0  0  0  0  0  0
  -26.2541  -31.4709   22.3563 N   0  0  0  0  0  0  0  0  0  0  0  0
  -23.2233  -26.2202   23.5040 N   0  0  0  0  0  0  0  0  0  0  0  0
  -23.3993  -22.4102   17.1617 N   0  0  0  0  0  0  0  0  0  0  0  0
  -21.7593  -24.1212   21.2383 N   0  3  0  0  0  0  0  0  0  0  0  0
  -27.1019  -18.6156   23.5551 O   0  0  0  0  0  0  0  0  0  0  0  0
  -27.8794  -29.8196   22.1235 O   0  0  0  0  0  0  0  0  0  0  0  0
  -23.5667  -29.0127   22.9629 O   0  0  0  0  0  0  0  0  0  0  0  0
  -24.3475  -24.3365   22.7523 O   0  0  0  0  0  0  0  0  0  0  0  0
  -21.4835  -21.6435   16.1349 O   0  0  0  0  0  0  0  0  0  0  0  0
  -25.8719  -11.4712   20.7211 O   0  0  0  0  0  0  0  0  0  0  0  0
  -30.2227  -25.1488   19.4095 O   0  0  0  0  0  0  0  0  0  1  0  0
  -21.5912   -7.9992   20.8763 F   0  0  0  0  0  0  0  0  0  0  0  0
  -25.7036   -9.5132   22.6655 F   0  0  0  0  0  0  0  0  0  0  0  0
  1  2  1  0  0  0  0
  1  5  2  0  0  0  0
  2  6  2  0  0  0  0
  3  9  2  0  0  0  0
  3 17  1  0  0  0  0
  4 10  1  0  0  0  0
  4 17  2  0  0  0  0
  5 19  1  0  0  0  0
  6 21  1  0  0  0  0
  7 11  2  0  0  0  0
  7 20  1  0  0  0  0
  8 14  2  0  0  0  0
  8 23  1  0  0  0  0
  9 24  1  0  0  0  0
 10 24  2  0  0  0  0
 11 25  1  0  0  0  0
 12 13  2  0  0  0  0
 12 26  1  0  0  0  0
 13 27  1  0  0  0  0
 14 30  1  0  0  0  0
 15 22  1  0  0  0  0
 15 25  2  0  0  0  0
 16 27  2  0  0  0  0
 16 28  1  0  0  0  0
 17 29  1  0  0  0  0
 18 29  1  0  0  0  0
 18 32  2  0  0  0  0
 18 33  1  0  0  0  0
 19 21  2  0  0  0  0
 19 38  1  0  0  0  0
 20 22  2  0  0  0  0
 20 39  1  0  0  0  0
 21 47  1  0  0  0  0
 22 40  1  0  0  0  0
 23 31  2  0  0  0  0
 23 57  1  0  0  0  0
 24 83  1  0  0  0  0
 25 84  1  0  0  0  0
 26 28  2  0  0  0  0
 26 83  1  0  0  0  0
 27 85  1  0  0  0  0
 28 86  1  0  0  0  0
 29 67  2  0  0  0  0
 30 58  1  0  0  0  0
 30 68  2  0  0  0  0
 31 59  1  0  0  0  0
 31 68  1  0  0  0  0
 32 69  1  0  0  0  0
 32 72  1  0  0  0  0
 33 73  1  0  0  0  0
 33 78  2  0  0  0  0
 34 48  1  0  0  0  0
 34 74  1  0  0  0  0
 34 79  2  0  0  0  0
 35 64  1  0  0  0  0
 35 70  1  0  0  0  0
 35 80  2  0  0  0  0
 36 65  1  0  0  0  0
 36 75  1  0  0  0  0
 36 81  2  0  0  0  0
 37 71  1  0  0  0  0
 37 76  1  0  0  0  0
 37 82  2  0  0  0  0
 38 41  1  0  0  0  0
 39 48  1  0  0  0  0
 40 70  1  0  0  0  0
 41 43  1  0  0  0  0
 42 44  1  0  0  0  0
 42 45  1  0  0  0  0
 43 47  1  0  0  0  0
 44 49  1  0  0  0  0
 45 71  1  0  0  0  0
 46 49  1  0  0  0  0
 46 71  1  0  0  0  0
 47 74  1  0  0  0  0
 48 70  1  0  0  0  0
 49 69  1  0  0  0  0
 50 60  1  0  0  0  0
 51 65  1  0  0  0  0
 52 66  1  0  0  0  0
 53 66  1  0  0  0  0
 54 66  1  0  0  0  0
 55 76  1  0  0  0  0
 56 77  1  0  0  0  0
 57 60  1  0  0  0  0
 58 61  1  0  0  0  0
 59 63  1  0  0  0  0
 61 62  1  0  0  0  0
 62 76  1  0  0  0  0
 63 84  1  0  0  0  0
 64 66  1  0  0  0  0
 64 75  1  0  0  0  0
 65 77  1  0  0  0  0
 67 69  1  0  0  0  0
M  CHG  1  77   1
M  ISO  4  37 100  63 101  76 100  84 101
M  END
> <Batch ID>
0044

> <Smiles>
CCCc1ccc(CCC[100N:0](C)[100C:0](=O)N2CCCC(n3nc(-c4ccc(Oc5ccc(F)cc5F)cc4)c(C(N)=O)c3N)C2)nc1C[101CH2:1][101O:1]c1ccc2c(c1)CN(C(=O)C(NC(=O)C(C)NC)C(C)(C)C)C(C(=O)NC1CCCc3ccccc31)C2

> <Shape>
0.226

> <Color>
0.089

> <Negative vol penalty>
0.000

$$$$

  -OEChem-04052317173D

 83 91  0     1  0  0  0  0  0999 V2000
  -16.1406  -27.1263   22.0896 C   0  0  0  0  0  0  0  0  0  0  0  0
  -17.3076  -26.9188   21.3612 C   0  0  0  0  0  0  0  0  0  0  0  0
  -25.6789  -13.6925   21.5914 C   0  0  0  0  0  0  0  0  0  0  0  0
  -26.4906  -13.7590   19.3169 C   0  0  0  0  0  0  0  0  0  0  0  0
  -16.1416  -28.0093   23.1686 C   0  0  0  0  0  0  0  0  0  0  0  0
  -18.4759  -27.5950   21.7107 C   0  0  0  0  0  0  0  0  0  0  0  0
  -22.5388  -24.5721   21.7284 C   0  0  0  0  0  0  0  0  0  0  0  0
  -24.7223  -12.7468   21.2225 C   0  0  0  0  0  0  0  0  0  0  0  0
  -25.5341  -12.8132   18.9479 C   0  0  0  0  0  0  0  0  0  0  0  0
  -23.1011  -24.2540   20.4929 C   0  0  0  0  0  0  0  0  0  0  0  0
  -24.6122   -9.4233   20.6102 C   0  0  0  0  0  0  0  0  0  0  0  0
  -24.4396   -8.3172   21.4423 C   0  0  0  0  0  0  0  0  0  0  0  0
  -24.8034  -25.9268   20.8438 C   0  0  0  0  0  0  0  0  0  0  0  0
  -24.7987  -24.3099   15.7869 C   0  0  0  0  0  0  0  0  0  0  0  0
  -22.1305   -8.9381   21.7885 C   0  0  0  0  0  0  0  0  0  0  0  0
  -26.5630  -14.1987   20.6386 C   0  0  0  0  0  0  0  0  0  0  0  0
  -28.8586  -14.9288   21.4782 C   0  0  0  0  0  0  0  0  0  0  0  0
  -17.3129  -28.6893   23.5376 C   0  0  0  0  0  0  0  0  0  0  0  0
  -23.0991  -25.5791   22.5273 C   0  0  0  0  0  0  0  0  0  0  0  0
  -18.4922  -28.4888   22.7949 C   0  0  0  0  0  0  0  0  0  0  0  0
  -24.2478  -26.2540   22.0901 C   0  0  0  0  0  0  0  0  0  0  0  0
  -25.5209  -24.0838   14.6204 C   0  0  0  0  0  0  0  0  0  0  0  0
  -26.3263  -22.9553   14.5158 C   0  0  0  0  0  0  0  0  0  0  0  0
  -24.6499  -12.3071   19.9007 C   0  0  0  0  0  0  0  0  0  0  0  0
  -24.2318  -24.9333   20.0491 C   0  0  0  0  0  0  0  0  0  0  0  0
  -23.5440  -10.2868   20.3673 C   0  0  0  0  0  0  0  0  0  0  0  0
  -23.1987   -8.0746   22.0314 C   0  0  0  0  0  0  0  0  0  0  0  0
  -22.3032  -10.0442   20.9565 C   0  0  0  0  0  0  0  0  0  0  0  0
  -27.5510  -15.1761   21.0190 C   0  0  0  0  0  0  0  0  0  0  0  0
  -24.9155  -23.3847   16.8116 C   0  0  0  0  0  0  0  0  0  0  0  0
  -26.3749  -22.0907   15.5975 C   0  0  0  0  0  0  0  0  0  0  0  0
  -29.3858  -16.1772   21.7019 C   0  0  0  0  0  0  0  0  0  0  0  0
  -29.5361  -13.6821   21.6841 C   0  0  0  0  0  0  0  0  0  0  0  0
  -22.0826  -28.3700   23.6594 C   0  0  0  0  0  0  0  0  0  0  0  0
  -24.9146  -28.3179   25.2403 C   0  0  0  0  0  0  0  0  0  0  0  0
  -28.1198  -27.1574   25.4051 C   0  0  0  0  0  0  0  0  0  0  0  0
  -28.1505  -21.5876   19.4540 C   0  0  0  0  0  0  0  0  0  0  0  0
  -17.2533  -29.6696   24.6821 C   0  0  0  0  0  0  0  0  0  0  0  0
  -22.4963  -25.8919   23.8694 C   0  0  0  0  0  0  0  0  0  0  0  0
  -24.8996  -27.3293   22.9192 C   0  0  0  0  0  0  0  0  0  0  0  0
  -18.6269  -30.0628   25.2196 C   0  0  0  0  0  0  0  0  0  0  0  0
  -28.0949  -20.6303   22.8829 C   0  0  0  0  0  0  0  0  0  0  0  0
  -19.5733  -30.3987   24.0714 C   0  0  0  0  0  0  0  0  0  0  0  0
  -28.0672  -19.1016   22.8354 C   0  0  0  0  0  0  0  0  0  0  0  0
  -27.2794  -21.2450   21.7475 C   0  0  0  0  0  0  0  0  0  0  0  0
  -27.6125  -19.2419   20.3510 C   0  0  0  0  0  0  0  0  0  0  0  0
  -19.7857  -29.1850   23.1586 C   0  0  1  0  0  0  0  0  0  0  0  0
  -22.8469  -27.2894   24.3708 C   0  0  1  0  0  0  0  0  0  0  0  0
  -28.4670  -18.5765   21.4435 C   0  0  2  0  0  0  0  0  0  0  0  0
  -25.4166  -25.0655   13.5005 C   0  0  0  0  0  0  0  0  0  0  0  0
  -27.1104  -22.6855   13.2757 C   0  0  0  0  0  0  0  0  0  0  0  0
  -30.2049  -27.3202   26.7919 C   0  0  0  0  0  0  0  0  0  0  0  0
  -25.4806  -31.0747   24.0614 C   0  0  0  0  0  0  0  0  0  0  0  0
  -27.8877  -30.7672   24.6776 C   0  0  0  0  0  0  0  0  0  0  0  0
  -26.1417  -30.8095   26.4587 C   0  0  0  0  0  0  0  0  0  0  0  0
  -28.0842  -24.2601   26.0078 C   0  0  0  0  0  0  0  0  0  0  0  0
  -27.2211  -20.8609   15.5438 C   0  0  0  0  0  0  0  0  0  0  0  0
  -24.1498  -23.5954   18.0847 C   0  0  0  0  0  0  0  0  0  1  0  0
  -28.7201  -21.1091   15.7980 C   0  0  0  0  0  0  0  0  0  0  0  0
  -29.0300  -21.7683   17.1403 C   0  0  0  0  0  0  0  0  0  0  0  0
  -26.3152  -28.7952   24.9408 C   0  0  1  0  0  0  0  0  0  0  0  0
  -28.9146  -26.5529   26.5485 C   0  0  2  0  0  0  0  0  0  0  0  0
  -26.4431  -30.3428   25.0179 C   0  0  0  0  0  0  0  0  0  0  0  0
  -27.2650  -16.4792   20.9545 N   0  0  0  0  0  0  0  0  0  0  0  0
  -25.6878  -22.2769   16.7468 N   0  0  0  0  0  0  0  0  0  0  0  0
  -28.4002  -17.0619   21.3762 N   0  0  0  0  0  0  0  0  0  0  0  0
  -24.2693  -27.6033   24.2212 N   0  0  0  0  0  0  0  0  0  0  0  0
  -27.7091  -20.7064   20.4548 N   0  0  0  0  0  0  0  0  0  0  0  0
  -30.5916  -16.5936   22.1437 N   0  0  0  0  0  0  0  0  0  0  0  0
  -28.8480  -12.4936   21.4046 N   0  0  0  0  0  0  0  0  0  0  0  0
  -20.7100  -28.2515   23.7658 N   0  0  0  0  0  0  0  0  0  0  0  0
  -27.1957  -28.0765   25.8554 N   0  0  0  0  0  0  0  0  0  0  0  0
  -28.5458  -20.9940   18.2614 N   0  0  0  0  0  0  0  0  0  0  0  0
  -29.2608  -25.1353   26.2460 N   0  3  0  0  0  0  0  0  0  0  0  0
  -30.7112  -13.6234   22.1191 O   0  0  0  0  0  0  0  0  0  0  0  0
  -22.6931  -29.2471   23.0598 O   0  0  0  0  0  0  0  0  0  0  0  0
  -24.4144  -28.5638   26.3408 O   0  0  0  0  0  0  0  0  0  0  0  0
  -28.3030  -26.8482   24.2298 O   0  0  0  0  0  0  0  0  0  0  0  0
  -28.1946  -22.8122   19.6134 O   0  0  0  0  0  0  0  0  0  0  0  0
  -23.7168  -11.3841   19.5404 O   0  0  0  0  0  0  0  0  0  0  0  0
  -24.7823  -24.6253   18.8433 O   0  0  0  0  0  0  0  0  0  1  0  0
  -23.0327   -7.0115   22.8292 F   0  0  0  0  0  0  0  0  0  0  0  0
  -21.2729  -10.8696   20.7259 F   0  0  0  0  0  0  0  0  0  0  0  0
  1  2  1  0  0  0  0
  1  5  2  0  0  0  0
  2  6  2  0  0  0  0
  3  8  2  0  0  0  0
  3 16  1  0  0  0  0
  4  9  1  0  0  0  0
  4 16  2  0  0  0  0
  5 18  1  0  0  0  0
  6 20  1  0  0  0  0
  7 10  2  0  0  0  0
  7 19  1  0  0  0  0
  8 24  1  0  0  0  0
  9 24  2  0  0  0  0
 10 25  1  0  0  0  0
 11 12  2  0  0  0  0
 11 26  1  0  0  0  0
 12 27  1  0  0  0  0
 13 21  1  0  0  0  0
 13 25  2  0  0  0  0
 14 22  2  0  0  0  0
 14 30  1  0  0  0  0
 15 27  2  0  0  0  0
 15 28  1  0  0  0  0
 16 29  1  0  0  0  0
 17 29  1  0  0  0  0
 17 32  2  0  0  0  0
 17 33  1  0  0  0  0
 18 20  2  0  0  0  0
 18 38  1  0  0  0  0
 19 21  2  0  0  0  0
 19 39  1  0  0  0  0
 20 47  1  0  0  0  0
 21 40  1  0  0  0  0
 22 23  1  0  0  0  0
 22 50  1  0  0  0  0
 23 31  2  0  0  0  0
 23 51  1  0  0  0  0
 24 80  1  0  0  0  0
 25 81  1  0  0  0  0
 26 28  2  0  0  0  0
 26 80  1  0  0  0  0
 27 82  1  0  0  0  0
 28 83  1  0  0  0  0
 29 64  2  0  0  0  0
 30 58  1  0  0  0  0
 30 65  2  0  0  0  0
 31 57  1  0  0  0  0
 31 65  1  0  0  0  0
 32 66  1  0  0  0  0
 32 69  1  0  0  0  0
 33 70  1  0  0  0  0
 33 75  2  0  0  0  0
 34 48  1  0  0  0  0
 34 71  1  0  0  0  0
 34 76  2  0  0  0  0
 35 61  1  0  0  0  0
 35 67  1  0  0  0  0
 35 77  2  0  0  0  0
 36 62  1  0  0  0  0
 36 72  1  0  0  0  0
 36 78  2  0  0  0  0
 37 68  1  0  0  0  0
 37 73  1  0  0  0  0
 37 79  2  0  0  0  0
 38 41  1  0  0  0  0
 39 48  1  0  0  0  0
 40 67  1  0  0  0  0
 41 43  1  0  0  0  0
 42 44  1  0  0  0  0
 42 45  1  0  0  0  0
 43 47  1  0  0  0  0
 44 49  1  0  0  0  0
 45 68  1  0  0  0  0
 46 49  1  0  0  0  0
 46 68  1  0  0  0  0
 47 71  1  0  0  0  0
 48 67  1  0  0  0  0
 49 66  1  0  0  0  0
 52 62  1  0  0  0  0
 53 63  1  0  0  0  0
 54 63  1  0  0  0  0
 55 63  1  0  0  0  0
 56 74  1  0  0  0  0
 57 59  1  0  0  0  0
 58 81  1  0  0  0  0
 59 60  1  0  0  0  0
 60 73  1  0  0  0  0
 61 63  1  0  0  0  0
 61 72  1  0  0  0  0
 62 74  1  0  0  0  0
 64 66  1  0  0  0  0
M  CHG  1  74   1
M  ISO  4  37 100  58 101  73 100  81 101
M  END
> <Batch ID>
0044

> <Smiles>
CNC(C)C(=O)NC(C(=O)N1Cc2cc([101O:1][101CH2:1]c3cc(C)c(C)c(CCC[100NH:0][100C:0](=O)N4CCCC(n5nc(-c6ccc(Oc7ccc(F)cc7F)cc6)c(C(N)=O)c5N)C4)n3)ccc2CC1C(=O)NC1CCCc2ccccc21)C(C)(C)C

> <Shape>
0.231

> <Color>
0.066

> <Negative vol penalty>
0.000

$$$$

  -OEChem-04052317173D

 82 90  0     1  0  0  0  0  0999 V2000
  -23.3497  -27.6863   19.9873 C   0  0  0  0  0  0  0  0  0  0  0  0
  -23.9150  -26.5230   20.4997 C   0  0  0  0  0  0  0  0  0  0  0  0
  -23.0072   -9.8930   19.9756 C   0  0  0  0  0  0  0  0  0  0  0  0
  -23.7402   -9.9365   22.2773 C   0  0  0  0  0  0  0  0  0  0  0  0
  -22.0559  -28.0523   20.3560 C   0  0  0  0  0  0  0  0  0  0  0  0
  -23.1871  -25.7254   21.3820 C   0  0  0  0  0  0  0  0  0  0  0  0
  -23.5218  -20.7958   20.2723 C   0  0  0  0  0  0  0  0  0  0  0  0
  -22.2484   -8.7526   20.2387 C   0  0  0  0  0  0  0  0  0  0  0  0
  -22.9813   -8.7961   22.5405 C   0  0  0  0  0  0  0  0  0  0  0  0
  -24.6901  -20.1358   20.6509 C   0  0  0  0  0  0  0  0  0  0  0  0
  -21.5224   -5.6881   23.7331 C   0  0  0  0  0  0  0  0  0  0  0  0
  -22.1171   -4.6720   24.4810 C   0  0  0  0  0  0  0  0  0  0  0  0
  -23.5535  -19.2451   22.5833 C   0  0  0  0  0  0  0  0  0  0  0  0
  -23.8390   -4.4437   22.8016 C   0  0  0  0  0  0  0  0  0  0  0  0
  -30.9889  -18.0030   19.5920 C   0  0  0  0  0  0  0  0  0  0  0  0
  -23.7532  -10.4849   20.9948 C   0  0  0  0  0  0  0  0  0  0  0  0
  -24.1229  -13.0036   20.8304 C   0  0  0  0  0  0  0  0  0  0  0  0
  -21.3081  -27.2537   21.2357 C   0  0  0  0  0  0  0  0  0  0  0  0
  -22.3617  -20.6940   21.0535 C   0  0  0  0  0  0  0  0  0  0  0  0
  -21.8825  -26.0817   21.7638 C   0  0  0  0  0  0  0  0  0  0  0  0
  -22.3711  -19.9027   22.2110 C   0  0  0  0  0  0  0  0  0  0  0  0
  -22.2354   -8.2042   21.5212 C   0  0  0  0  0  0  0  0  0  0  0  0
  -24.7069  -19.3627   21.8081 C   0  0  0  0  0  0  0  0  0  0  0  0
  -22.0860   -6.0820   22.5194 C   0  0  0  0  0  0  0  0  0  0  0  0
  -23.2754   -4.0498   24.0153 C   0  0  0  0  0  0  0  0  0  0  0  0
  -23.2443   -5.4598   22.0537 C   0  0  0  0  0  0  0  0  0  0  0  0
  -24.5377  -11.6626   20.7235 C   0  0  0  0  0  0  0  0  0  0  0  0
  -30.6352  -17.9505   20.9107 C   0  0  0  0  0  0  0  0  0  0  0  0
  -25.2271  -13.7346   20.4659 C   0  0  0  0  0  0  0  0  0  0  0  0
  -30.0514  -19.9362   20.1254 C   0  0  0  0  0  0  0  0  0  0  0  0
  -22.8531  -13.5405   21.2242 C   0  0  0  0  0  0  0  0  0  0  0  0
  -20.5559  -22.7533   22.6665 C   0  0  0  0  0  0  0  0  0  0  0  0
  -18.6575  -20.1574   23.0902 C   0  0  0  0  0  0  0  0  0  0  0  0
  -18.3825  -16.7579   23.2104 C   0  0  0  0  0  0  0  0  0  0  0  0
  -30.7187  -14.7006   20.7001 C   0  0  0  0  0  0  0  0  0  0  0  0
  -19.9309  -27.7150   21.6422 C   0  0  0  0  0  0  0  0  0  0  0  0
  -21.1021  -21.3905   20.6170 C   0  0  0  0  0  0  0  0  0  0  0  0
  -21.1464  -19.7447   23.0734 C   0  0  0  0  0  0  0  0  0  0  0  0
  -19.0878  -26.6191   22.2892 C   0  0  0  0  0  0  0  0  0  0  0  0
  -29.5841  -12.2823   18.3461 C   0  0  0  0  0  0  0  0  0  0  0  0
  -19.9021  -25.8684   23.3381 C   0  0  0  0  0  0  0  0  0  0  0  0
  -28.1387  -12.0118   18.7674 C   0  0  0  0  0  0  0  0  0  0  0  0
  -30.4894  -12.5168   19.5534 C   0  0  0  0  0  0  0  0  0  0  0  0
  -28.5793  -13.2941   20.9029 C   0  0  0  0  0  0  0  0  0  0  0  0
  -21.1154  -25.1774   22.7040 C   0  0  1  0  0  0  0  0  0  0  0  0
  -20.1251  -21.6323   21.7634 C   0  0  1  0  0  0  0  0  0  0  0  0
  -27.6172  -13.1068   19.7173 C   0  0  2  0  0  0  0  0  0  0  0  0
  -30.6254  -22.3746   20.0193 C   0  0  0  0  0  0  0  0  0  0  0  0
  -16.7115  -14.9298   23.6145 C   0  0  0  0  0  0  0  0  0  0  0  0
  -18.7718  -20.7187   26.0871 C   0  0  0  0  0  0  0  0  0  0  0  0
  -17.9224  -18.3972   26.4837 C   0  0  0  0  0  0  0  0  0  0  0  0
  -16.5193  -20.0409   25.2379 C   0  0  0  0  0  0  0  0  0  0  0  0
  -18.7687  -15.6459   20.4950 C   0  0  0  0  0  0  0  0  0  0  0  0
  -30.7926  -16.8739   21.8961 C   0  0  0  0  0  0  0  0  0  0  0  0
  -29.5200  -21.3177   20.0185 C   0  0  0  0  0  0  0  0  0  0  0  0
  -28.1310  -18.9761   22.8650 C   0  0  0  0  0  0  0  0  0  0  0  0
  -29.5129  -19.5594   22.5620 C   0  0  0  0  0  0  0  0  0  0  0  0
  -27.0848  -19.3233   21.8122 C   0  0  0  0  0  0  0  0  0  1  0  0
  -18.5635  -19.0584   24.1209 C   0  0  1  0  0  0  0  0  0  0  0  0
  -17.3891  -15.8044   22.5711 C   0  0  2  0  0  0  0  0  0  0  0  0
  -17.9680  -19.5581   25.4674 C   0  0  0  0  0  0  0  0  0  0  0  0
  -25.8063  -11.5457   20.3222 N   0  0  0  0  0  0  0  0  0  0  0  0
  -30.0579  -19.1600   21.2140 N   0  0  0  0  0  0  0  0  0  0  0  0
  -26.1982  -12.8226   20.1738 N   0  0  0  0  0  0  0  0  0  0  0  0
  -30.6156  -19.2426   19.1314 N   0  3  0  0  0  0  0  0  0  0  0  0
  -19.9410  -20.4504   22.6080 N   0  0  0  0  0  0  0  0  0  0  0  0
  -29.9393  -13.5679   20.4128 N   0  0  0  0  0  0  0  0  0  0  0  0
  -25.4523  -15.0622   20.3699 N   0  0  0  0  0  0  0  0  0  0  0  0
  -21.8278  -12.6485   21.5668 N   0  0  0  0  0  0  0  0  0  0  0  0
  -20.7089  -23.9667   22.0233 N   0  0  0  0  0  0  0  0  0  0  0  0
  -17.8073  -17.9777   23.4976 N   0  0  0  0  0  0  0  0  0  0  0  0
  -30.1195  -15.6517   21.5169 N   0  0  0  0  0  0  0  0  0  0  0  0
  -18.0786  -14.9183   21.5912 N   0  3  0  0  0  0  0  0  0  0  0  0
  -22.6292  -14.7743   21.2551 O   0  0  0  0  0  0  0  0  0  0  0  0
  -20.7347  -22.5340   23.8588 O   0  0  0  0  0  0  0  0  0  0  0  0
  -17.6290  -20.7297   22.7210 O   0  0  0  0  0  0  0  0  0  0  0  0
  -19.5507  -16.4500   23.4360 O   0  0  0  0  0  0  0  0  0  0  0  0
  -31.8617  -14.8556   20.2567 O   0  0  0  0  0  0  0  0  0  0  0  0
  -21.4948   -7.0915   21.7784 O   0  0  0  0  0  0  0  0  0  0  0  0
  -25.8460  -18.7180   22.1803 O   0  0  0  0  0  0  0  0  0  1  0  0
  -23.8473   -3.0750   24.7344 F   0  0  0  0  0  0  0  0  0  0  0  0
  -23.7909   -5.8347   20.8890 F   0  0  0  0  0  0  0  0  0  0  0  0
  1  2  1  0  0  0  0
  1  5  2  0  0  0  0
  2  6  2  0  0  0  0
  3  8  2  0  0  0  0
  3 16  1  0  0  0  0
  4  9  1  0  0  0  0
  4 16  2  0  0  0  0
  5 18  1  0  0  0  0
  6 20  1  0  0  0  0
  7 10  2  0  0  0  0
  7 19  1  0  0  0  0
  8 22  1  0  0  0  0
  9 22  2  0  0  0  0
 10 23  1  0  0  0  0
 11 12  2  0  0  0  0
 11 24  1  0  0  0  0
 12 25  1  0  0  0  0
 13 21  1  0  0  0  0
 13 23  2  0  0  0  0
 14 25  2  0  0  0  0
 14 26  1  0  0  0  0
 15 28  2  0  0  0  0
 15 65  1  0  0  0  0
 16 27  1  0  0  0  0
 17 27  1  0  0  0  0
 17 29  2  0  0  0  0
 17 31  1  0  0  0  0
 18 20  2  0  0  0  0
 18 36  1  0  0  0  0
 19 21  2  0  0  0  0
 19 37  1  0  0  0  0
 20 45  1  0  0  0  0
 21 38  1  0  0  0  0
 22 79  1  0  0  0  0
 23 80  1  0  0  0  0
 24 26  2  0  0  0  0
 24 79  1  0  0  0  0
 25 81  1  0  0  0  0
 26 82  1  0  0  0  0
 27 62  2  0  0  0  0
 28 54  1  0  0  0  0
 28 63  1  0  0  0  0
 29 64  1  0  0  0  0
 29 68  1  0  0  0  0
 30 55  1  0  0  0  0
 30 63  1  0  0  0  0
 30 65  2  0  0  0  0
 31 69  1  0  0  0  0
 31 74  2  0  0  0  0
 32 46  1  0  0  0  0
 32 70  1  0  0  0  0
 32 75  2  0  0  0  0
 33 59  1  0  0  0  0
 33 66  1  0  0  0  0
 33 76  2  0  0  0  0
 34 60  1  0  0  0  0
 34 71  1  0  0  0  0
 34 77  2  0  0  0  0
 35 67  1  0  0  0  0
 35 72  1  0  0  0  0
 35 78  2  0  0  0  0
 36 39  1  0  0  0  0
 37 46  1  0  0  0  0
 38 66  1  0  0  0  0
 39 41  1  0  0  0  0
 40 42  1  0  0  0  0
 40 43  1  0  0  0  0
 41 45  1  0  0  0  0
 42 47  1  0  0  0  0
 43 67  1  0  0  0  0
 44 47  1  0  0  0  0
 44 67  1  0  0  0  0
 45 70  1  0  0  0  0
 46 66  1  0  0  0  0
 47 64  1  0  0  0  0
 48 55  1  0  0  0  0
 49 60  1  0  0  0  0
 50 61  1  0  0  0  0
 51 61  1  0  0  0  0
 52 61  1  0  0  0  0
 53 73  1  0  0  0  0
 54 72  1  0  0  0  0
 56 57  1  0  0  0  0
 56 58  1  0  0  0  0
 57 63  1  0  0  0  0
 58 80  1  0  0  0  0
 59 61  1  0  0  0  0
 59 71  1  0  0  0  0
 60 73  1  0  0  0  0
 62 64  1  0  0  0  0
M  CHG  2  65   1  73   1
M  ISO  4  35 100  58 101  72 100  80 101
M  END
> <Batch ID>
0044

> <Smiles>
CCc1ncc(C[100NH:0][100C:0](=O)N2CCCC(n3nc(-c4ccc(Oc5ccc(F)cc5F)cc4)c(C(N)=O)c3N)C2)n1CC[101CH2:1][101O:1]c1ccc2c(c1)CN(C(=O)C(NC(=O)C(C)NC)C(C)(C)C)C(C(=O)NC1CCCc3ccccc31)C2

> <Shape>
0.241

> <Color>
0.195

> <Negative vol penalty>
0.000

$$$$

  -OEChem-04052317173D

 88 96  0     1  0  0  0  0  0999 V2000
  -30.9155  -30.3805   23.6539 C   0  0  0  0  0  0  0  0  0  0  0  0
  -31.2881  -29.2020   23.0155 C   0  0  0  0  0  0  0  0  0  0  0  0
  -23.0609   -9.9062   19.9398 C   0  0  0  0  0  0  0  0  0  0  0  0
  -23.8340   -9.8913   22.2287 C   0  0  0  0  0  0  0  0  0  0  0  0
  -29.5661  -30.7092   23.7762 C   0  0  0  0  0  0  0  0  0  0  0  0
  -30.3113  -28.3508   22.4999 C   0  0  0  0  0  0  0  0  0  0  0  0
  -30.7124  -24.9242   17.4400 C   0  0  0  0  0  0  0  0  0  0  0  0
  -22.3091   -8.7575   20.1862 C   0  0  0  0  0  0  0  0  0  0  0  0
  -23.0821   -8.7425   22.4751 C   0  0  0  0  0  0  0  0  0  0  0  0
  -31.0108  -23.5769   17.2407 C   0  0  0  0  0  0  0  0  0  0  0  0
  -19.8511   -7.9669   23.0910 C   0  0  0  0  0  0  0  0  0  0  0  0
  -19.1006   -7.9251   24.2659 C   0  0  0  0  0  0  0  0  0  0  0  0
  -28.6532  -23.0703   17.1776 C   0  0  0  0  0  0  0  0  0  0  0  0
  -27.1367  -18.7308   19.6281 C   0  0  0  0  0  0  0  0  0  0  0  0
  -20.3303   -5.9726   24.9819 C   0  0  0  0  0  0  0  0  0  0  0  0
  -23.8234  -10.4731   20.9610 C   0  0  0  0  0  0  0  0  0  0  0  0
  -24.1852  -12.9961   20.8562 C   0  0  0  0  0  0  0  0  0  0  0  0
  -28.5727  -29.8664   23.2534 C   0  0  0  0  0  0  0  0  0  0  0  0
  -29.3800  -25.3537   17.5206 C   0  0  0  0  0  0  0  0  0  0  0  0
  -28.9472  -28.6679   22.6165 C   0  0  0  0  0  0  0  0  0  0  0  0
  -28.3405  -24.4239   17.3754 C   0  0  0  0  0  0  0  0  0  0  0  0
  -28.4821  -18.3804   19.6460 C   0  0  0  0  0  0  0  0  0  0  0  0
  -26.4964  -19.0695   20.8150 C   0  0  0  0  0  0  0  0  0  0  0  0
  -22.3196   -8.1756   21.4539 C   0  0  0  0  0  0  0  0  0  0  0  0
  -29.9811  -22.6493   17.1124 C   0  0  0  0  0  0  0  0  0  0  0  0
  -20.8412   -7.0115   22.8614 C   0  0  0  0  0  0  0  0  0  0  0  0
  -19.3402   -6.9280   25.2115 C   0  0  0  0  0  0  0  0  0  0  0  0
  -21.0808   -6.0144   23.8069 C   0  0  0  0  0  0  0  0  0  0  0  0
  -24.6007  -11.6594   20.7069 C   0  0  0  0  0  0  0  0  0  0  0  0
  -29.1371  -18.3842   20.8670 C   0  0  0  0  0  0  0  0  0  0  0  0
  -27.2402  -19.0422   21.9837 C   0  0  0  0  0  0  0  0  0  0  0  0
  -25.2813  -13.7392   20.4917 C   0  0  0  0  0  0  0  0  0  0  0  0
  -22.9214  -13.5194   21.2861 C   0  0  0  0  0  0  0  0  0  0  0  0
  -27.6052  -26.7514   19.7567 C   0  0  0  0  0  0  0  0  0  0  0  0
  -25.4001  -26.8698   17.3806 C   0  0  0  0  0  0  0  0  0  0  0  0
  -24.2391  -25.5871   14.4389 C   0  0  0  0  0  0  0  0  0  0  0  0
  -30.7742  -14.7122   20.6551 C   0  0  0  0  0  0  0  0  0  0  0  0
  -27.1251  -30.2407   23.4515 C   0  0  0  0  0  0  0  0  0  0  0  0
  -29.0746  -26.8144   17.7091 C   0  0  0  0  0  0  0  0  0  0  0  0
  -26.8933  -24.8368   17.4341 C   0  0  0  0  0  0  0  0  0  0  0  0
  -26.1673  -29.4690   22.5475 C   0  0  0  0  0  0  0  0  0  0  0  0
  -29.6034  -12.3535   18.2588 C   0  0  0  0  0  0  0  0  0  0  0  0
  -26.5037  -27.9812   22.5596 C   0  0  0  0  0  0  0  0  0  0  0  0
  -28.1661  -12.0685   18.6981 C   0  0  0  0  0  0  0  0  0  0  0  0
  -30.5292  -12.5586   19.4558 C   0  0  0  0  0  0  0  0  0  0  0  0
  -28.6416  -13.2956   20.8584 C   0  0  0  0  0  0  0  0  0  0  0  0
  -27.9180  -27.7310   22.0223 C   0  0  1  0  0  0  0  0  0  0  0  0
  -27.6861  -27.0645   18.2894 C   0  0  1  0  0  0  0  0  0  0  0  0
  -27.6592  -13.1370   19.6853 C   0  0  2  0  0  0  0  0  0  0  0  0
  -24.8284  -20.8673   20.2933 C   0  0  0  0  0  0  0  0  0  0  0  0
  -27.5995  -20.0763   24.2492 C   0  0  0  0  0  0  0  0  0  0  0  0
  -22.3964  -25.8674   12.7586 C   0  0  0  0  0  0  0  0  0  0  0  0
  -23.4562  -25.4911   19.2859 C   0  0  0  0  0  0  0  0  0  0  0  0
  -22.0135  -24.9512   17.3122 C   0  0  0  0  0  0  0  0  0  0  0  0
  -22.4516  -27.3303   17.9212 C   0  0  0  0  0  0  0  0  0  0  0  0
  -26.1538  -26.2152   12.2713 C   0  0  0  0  0  0  0  0  0  0  0  0
  -25.0550  -19.4456   20.8027 C   0  0  0  0  0  0  0  0  0  0  0  0
  -29.1824  -18.0123   18.3624 C   0  0  0  0  0  0  0  0  0  0  0  0
  -30.5823  -18.0155   20.9478 C   0  0  0  0  0  0  0  0  0  0  0  0
  -30.0910  -19.1165   17.8178 C   0  0  0  0  0  0  0  0  0  0  0  0
  -30.8648  -16.8536   21.9063 C   0  0  0  0  0  0  0  0  0  0  0  0
  -29.3362  -20.3821   17.4281 C   0  0  0  0  0  0  0  0  0  1  0  0
  -25.9499  -18.1864   23.9883 C   0  0  0  0  0  0  0  0  0  0  0  0
  -26.6043  -19.3980   23.2876 C   0  0  2  0  0  0  0  0  0  0  0  0
  -24.3049  -25.9530   16.8917 C   0  0  1  0  0  0  0  0  0  0  0  0
  -23.8143  -26.2583   13.1453 C   0  0  2  0  0  0  0  0  0  0  0  0
  -23.0837  -25.9230   17.8535 C   0  0  0  0  0  0  0  0  0  0  0  0
  -25.8623  -11.5562   20.2807 N   0  0  0  0  0  0  0  0  0  0  0  0
  -28.5488  -18.7072   22.0405 N   0  0  0  0  0  0  0  0  0  0  0  0
  -26.2490  -12.8375   20.1589 N   0  0  0  0  0  0  0  0  0  0  0  0
  -26.6459  -26.2754   17.6264 N   0  0  0  0  0  0  0  0  0  0  0  0
  -29.9922  -13.5854   20.3520 N   0  0  0  0  0  0  0  0  0  0  0  0
  -25.5022  -15.0694   20.4266 N   0  0  0  0  0  0  0  0  0  0  0  0
  -21.9041  -12.6162   21.6230 N   0  0  0  0  0  0  0  0  0  0  0  0
  -27.9318  -27.8139   20.5776 N   0  0  0  0  0  0  0  0  0  0  0  0
  -23.9865  -26.3846   15.5350 N   0  0  0  0  0  0  0  0  0  0  0  0
  -30.1876  -15.6401   21.5070 N   0  0  0  0  0  0  0  0  0  0  0  0
  -24.7287  -25.8685   12.0349 N   0  3  0  0  0  0  0  0  0  0  0  0
  -22.6956  -14.7515   21.3532 O   0  0  0  0  0  0  0  0  0  0  0  0
  -27.2697  -25.6293   20.1174 O   0  0  0  0  0  0  0  0  0  0  0  0
  -25.1610  -28.0705   17.5317 O   0  0  0  0  0  0  0  0  0  0  0  0
  -24.7410  -24.4658   14.4739 O   0  0  0  0  0  0  0  0  0  0  0  0
  -31.9090  -14.8815   20.1961 O   0  0  0  0  0  0  0  0  0  0  0  0
  -26.9373  -17.1862   24.2129 O   0  0  0  0  0  0  0  0  0  0  0  0
  -21.5859   -7.0548   21.6947 O   0  0  0  0  0  0  0  0  0  0  0  0
  -30.2696  -21.3336   16.9185 O   0  0  0  0  0  0  0  0  0  1  0  0
  -18.6205   -6.8889   26.3404 F   0  0  0  0  0  0  0  0  0  0  0  0
  -22.0314   -5.0945   23.5925 F   0  0  0  0  0  0  0  0  0  0  0  0
  1  2  1  0  0  0  0
  1  5  2  0  0  0  0
  2  6  2  0  0  0  0
  3  8  2  0  0  0  0
  3 16  1  0  0  0  0
  4  9  1  0  0  0  0
  4 16  2  0  0  0  0
  5 18  1  0  0  0  0
  6 20  1  0  0  0  0
  7 10  2  0  0  0  0
  7 19  1  0  0  0  0
  8 24  1  0  0  0  0
  9 24  2  0  0  0  0
 10 25  1  0  0  0  0
 11 12  2  0  0  0  0
 11 26  1  0  0  0  0
 12 27  1  0  0  0  0
 13 21  1  0  0  0  0
 13 25  2  0  0  0  0
 14 22  2  0  0  0  0
 14 23  1  0  0  0  0
 15 27  2  0  0  0  0
 15 28  1  0  0  0  0
 16 29  1  0  0  0  0
 17 29  1  0  0  0  0
 17 32  2  0  0  0  0
 17 33  1  0  0  0  0
 18 20  2  0  0  0  0
 18 38  1  0  0  0  0
 19 21  2  0  0  0  0
 19 39  1  0  0  0  0
 20 47  1  0  0  0  0
 21 40  1  0  0  0  0
 22 30  1  0  0  0  0
 22 58  1  0  0  0  0
 23 31  2  0  0  0  0
 23 57  1  0  0  0  0
 24 85  1  0  0  0  0
 25 86  1  0  0  0  0
 26 28  2  0  0  0  0
 26 85  1  0  0  0  0
 27 87  1  0  0  0  0
 28 88  1  0  0  0  0
 29 68  2  0  0  0  0
 30 59  1  0  0  0  0
 30 69  2  0  0  0  0
 31 64  1  0  0  0  0
 31 69  1  0  0  0  0
 32 70  1  0  0  0  0
 32 73  1  0  0  0  0
 33 74  1  0  0  0  0
 33 79  2  0  0  0  0
 34 48  1  0  0  0  0
 34 75  1  0  0  0  0
 34 80  2  0  0  0  0
 35 65  1  0  0  0  0
 35 71  1  0  0  0  0
 35 81  2  0  0  0  0
 36 66  1  0  0  0  0
 36 76  1  0  0  0  0
 36 82  2  0  0  0  0
 37 72  1  0  0  0  0
 37 77  1  0  0  0  0
 37 83  2  0  0  0  0
 38 41  1  0  0  0  0
 39 48  1  0  0  0  0
 40 71  1  0  0  0  0
 41 43  1  0  0  0  0
 42 44  1  0  0  0  0
 42 45  1  0  0  0  0
 43 47  1  0  0  0  0
 44 49  1  0  0  0  0
 45 72  1  0  0  0  0
 46 49  1  0  0  0  0
 46 72  1  0  0  0  0
 47 75  1  0  0  0  0
 48 71  1  0  0  0  0
 49 70  1  0  0  0  0
 50 57  1  0  0  0  0
 51 64  1  0  0  0  0
 52 66  1  0  0  0  0
 53 67  1  0  0  0  0
 54 67  1  0  0  0  0
 55 67  1  0  0  0  0
 56 78  1  0  0  0  0
 58 60  1  0  0  0  0
 59 61  1  0  0  0  0
 60 62  1  0  0  0  0
 61 77  1  0  0  0  0
 62 86  1  0  0  0  0
 63 64  1  0  0  0  0
 63 84  1  0  0  0  0
 65 67  1  0  0  0  0
 65 76  1  0  0  0  0
 66 78  1  0  0  0  0
 68 70  1  0  0  0  0
M  CHG  1  78   1
M  ISO  4  37 100  62 101  77 100  86 101
M  END
> <Batch ID>
0044

> <Smiles>
CCc1cc(CC[101CH2:1][101O:1]c2ccc3c(c2)CN(C(=O)C(NC(=O)C(C)NC)C(C)(C)C)C(C(=O)NC2CCCc4ccccc42)C3)c(CC[100NH:0][100C:0](=O)N2CCCC(n3nc(-c4ccc(Oc5ccc(F)cc5F)cc4)c(C(N)=O)c3N)C2)nc1C(C)CO

> <Shape>
0.277

> <Color>
0.182

> <Negative vol penalty>
0.000

$$$$

  -OEChem-04052317173D

 89 97  0     1  0  0  0  0  0999 V2000
  -26.7989  -19.7580   17.1413 C   0  0  0  0  0  0  0  0  0  0  0  0
  -26.0991  -20.6282   17.9710 C   0  0  0  0  0  0  0  0  0  0  0  0
  -22.0224  -10.0941   20.2815 C   0  0  0  0  0  0  0  0  0  0  0  0
  -23.3815   -9.9007   22.2695 C   0  0  0  0  0  0  0  0  0  0  0  0
  -28.1916  -19.7168   17.1922 C   0  0  0  0  0  0  0  0  0  0  0  0
  -26.7917  -21.4570   18.8530 C   0  0  0  0  0  0  0  0  0  0  0  0
  -25.0325  -26.2057   18.8436 C   0  0  0  0  0  0  0  0  0  0  0  0
  -21.8453   -8.7106   20.2679 C   0  0  0  0  0  0  0  0  0  0  0  0
  -23.2044   -8.5172   22.2560 C   0  0  0  0  0  0  0  0  0  0  0  0
  -23.8554  -26.4500   19.5496 C   0  0  0  0  0  0  0  0  0  0  0  0
  -20.8061   -6.3059   23.1387 C   0  0  0  0  0  0  0  0  0  0  0  0
  -20.5008   -5.6813   24.3479 C   0  0  0  0  0  0  0  0  0  0  0  0
  -25.1475  -27.3252   21.3891 C   0  0  0  0  0  0  0  0  0  0  0  0
  -22.5059   -4.3460   24.1645 C   0  0  0  0  0  0  0  0  0  0  0  0
  -18.6810  -28.6788   22.2548 C   0  0  0  0  0  0  0  0  0  0  0  0
  -22.7905  -10.6892   21.2823 C   0  0  0  0  0  0  0  0  0  0  0  0
  -22.1659  -13.0728   21.9423 C   0  0  0  0  0  0  0  0  0  0  0  0
  -28.9020  -20.5524   18.0684 C   0  0  0  0  0  0  0  0  0  0  0  0
  -26.2786  -26.5097   19.4104 C   0  0  0  0  0  0  0  0  0  0  0  0
  -28.1951  -21.4259   18.9167 C   0  0  0  0  0  0  0  0  0  0  0  0
  -26.3388  -27.0862   20.6872 C   0  0  0  0  0  0  0  0  0  0  0  0
  -20.1067  -26.4923   22.8846 C   0  0  0  0  0  0  0  0  0  0  0  0
  -22.4363   -7.9222   21.2551 C   0  0  0  0  0  0  0  0  0  0  0  0
  -23.9129  -27.0072   20.8237 C   0  0  0  0  0  0  0  0  0  0  0  0
  -21.9613   -5.9505   22.4423 C   0  0  0  0  0  0  0  0  0  0  0  0
  -21.3507   -4.7013   24.8608 C   0  0  0  0  0  0  0  0  0  0  0  0
  -22.8112   -4.9706   22.9552 C   0  0  0  0  0  0  0  0  0  0  0  0
  -22.9743  -12.1182   21.2965 C   0  0  0  0  0  0  0  0  0  0  0  0
  -19.0368  -26.9166   23.6459 C   0  0  0  0  0  0  0  0  0  0  0  0
  -20.3959  -27.2650   21.7784 C   0  0  0  0  0  0  0  0  0  0  0  0
  -22.7602  -14.2772   21.6542 C   0  0  0  0  0  0  0  0  0  0  0  0
  -20.9837  -12.8875   22.7320 C   0  0  0  0  0  0  0  0  0  0  0  0
  -28.8446  -24.8199   20.2252 C   0  0  0  0  0  0  0  0  0  0  0  0
  -30.1032  -27.7493   20.8224 C   0  0  0  0  0  0  0  0  0  0  0  0
  -29.5668  -31.0337   21.5787 C   0  0  0  0  0  0  0  0  0  0  0  0
  -27.3165  -17.4626   21.1662 C   0  0  0  0  0  0  0  0  0  0  0  0
  -30.4050  -20.4384   18.1215 C   0  0  0  0  0  0  0  0  0  0  0  0
  -27.5378  -26.2648   18.6250 C   0  0  0  0  0  0  0  0  0  0  0  0
  -27.6505  -27.4496   21.3321 C   0  0  0  0  0  0  0  0  0  0  0  0
  -31.0810  -21.6172   18.8171 C   0  0  0  0  0  0  0  0  0  0  0  0
  -26.4340  -15.4350   18.3757 C   0  0  0  0  0  0  0  0  0  0  0  0
  -30.3669  -21.9468   20.1241 C   0  0  0  0  0  0  0  0  0  0  0  0
  -25.3938  -14.4667   18.9416 C   0  0  0  0  0  0  0  0  0  0  0  0
  -27.5291  -15.7451   19.3938 C   0  0  0  0  0  0  0  0  0  0  0  0
  -26.0018  -15.2585   21.2658 C   0  0  0  0  0  0  0  0  0  0  0  0
  -28.9118  -22.3583   19.8691 C   0  0  1  0  0  0  0  0  0  0  0  0
  -28.7765  -26.1376   19.5064 C   0  0  1  0  0  0  0  0  0  0  0  0
  -24.8468  -14.9593   20.2949 C   0  0  2  0  0  0  0  0  0  0  0  0
  -17.2597  -26.5879   25.3839 C   0  0  0  0  0  0  0  0  0  0  0  0
  -30.7923  -33.1741   22.0417 C   0  0  0  0  0  0  0  0  0  0  0  0
  -30.8059  -26.7401   23.6148 C   0  0  0  0  0  0  0  0  0  0  0  0
  -31.1347  -29.1208   24.3166 C   0  0  0  0  0  0  0  0  0  0  0  0
  -32.5765  -28.1372   22.5343 C   0  0  0  0  0  0  0  0  0  0  0  0
  -28.3218  -32.3840   19.2580 C   0  0  0  0  0  0  0  0  0  0  0  0
  -20.8967  -25.2811   23.2335 C   0  0  0  0  0  0  0  0  0  0  0  0
  -18.6298  -26.1595   24.8671 C   0  0  0  0  0  0  0  0  0  0  0  0
  -21.5376  -26.9016   20.8752 C   0  0  0  0  0  0  0  0  0  1  0  0
  -24.5718  -19.8628   22.8209 C   0  0  0  0  0  0  0  0  0  0  0  0
  -23.6023  -20.9402   22.3249 C   0  0  0  0  0  0  0  0  0  0  0  0
  -26.0423  -20.1988   22.5515 C   0  0  0  0  0  0  0  0  0  0  0  0
  -22.1306  -20.5733   22.5259 C   0  0  0  0  0  0  0  0  0  0  0  0
  -26.9867  -19.0912   23.0096 C   0  0  0  0  0  0  0  0  0  0  0  0
  -20.5984  -24.0604   22.3590 C   0  0  0  0  0  0  0  0  0  0  0  0
  -21.2196  -21.6693   21.9908 C   0  0  0  0  0  0  0  0  0  0  0  0
  -30.1578  -28.6653   22.0211 C   0  0  1  0  0  0  0  0  0  0  0  0
  -30.1296  -32.3101   20.9800 C   0  0  2  0  0  0  0  0  0  0  0  0
  -31.1440  -28.1573   23.1106 C   0  0  0  0  0  0  0  0  0  0  0  0
  -18.2992  -28.0094   23.3592 N   0  0  0  0  0  0  0  0  0  0  0  0
  -19.7012  -28.3686   21.4324 N   0  0  0  0  0  0  0  0  0  0  0  0
  -24.0035  -12.6686   20.6471 N   0  0  0  0  0  0  0  0  0  0  0  0
  -23.8458  -13.9822   20.8832 N   0  0  0  0  0  0  0  0  0  0  0  0
  -28.8542  -27.1851   20.5267 N   0  0  0  0  0  0  0  0  0  0  0  0
  -26.9440  -16.2088   20.6542 N   0  0  0  0  0  0  0  0  0  0  0  0
  -22.4546  -15.5491   21.9877 N   0  0  0  0  0  0  0  0  0  0  0  0
  -20.5091  -11.5835   22.9286 N   0  0  0  0  0  0  0  0  0  0  0  0
  -28.8491  -23.7213   19.3869 N   0  0  0  0  0  0  0  0  0  0  0  0
  -30.4696  -29.9940   21.5057 N   0  0  0  0  0  0  0  0  0  0  0  0
  -26.7103  -17.8284   22.3618 N   0  0  0  0  0  0  0  0  0  0  0  0
  -29.0437  -33.1041   20.3385 N   0  3  0  0  0  0  0  0  0  0  0  0
  -21.4723  -22.9258   22.7473 N   0  3  0  0  0  0  0  0  0  0  0  0
  -20.3570  -13.8512   23.2343 O   0  0  0  0  0  0  0  0  0  0  0  0
  -28.8911  -24.8012   21.4496 O   0  0  0  0  0  0  0  0  0  0  0  0
  -31.1293  -27.5478   20.1680 O   0  0  0  0  0  0  0  0  0  0  0  0
  -28.4405  -30.9667   22.0660 O   0  0  0  0  0  0  0  0  0  0  0  0
  -28.1251  -18.2037   20.5970 O   0  0  0  0  0  0  0  0  0  0  0  0
  -22.2635   -6.5721   21.2423 O   0  0  0  0  0  0  0  0  0  0  0  0
  -22.7655  -27.2461   21.5153 O   0  0  0  0  0  0  0  0  0  1  0  0
  -21.0581   -4.1027   26.0228 F   0  0  0  0  0  0  0  0  0  0  0  0
  -23.9230   -4.6258   22.2913 F   0  0  0  0  0  0  0  0  0  0  0  0
  1  2  1  0  0  0  0
  1  5  2  0  0  0  0
  2  6  2  0  0  0  0
  3  8  2  0  0  0  0
  3 16  1  0  0  0  0
  4  9  1  0  0  0  0
  4 16  2  0  0  0  0
  5 18  1  0  0  0  0
  6 20  1  0  0  0  0
  7 10  2  0  0  0  0
  7 19  1  0  0  0  0
  8 23  1  0  0  0  0
  9 23  2  0  0  0  0
 10 24  1  0  0  0  0
 11 12  2  0  0  0  0
 11 25  1  0  0  0  0
 12 26  1  0  0  0  0
 13 21  1  0  0  0  0
 13 24  2  0  0  0  0
 14 26  2  0  0  0  0
 14 27  1  0  0  0  0
 15 68  2  0  0  0  0
 15 69  1  0  0  0  0
 16 28  1  0  0  0  0
 17 28  1  0  0  0  0
 17 31  2  0  0  0  0
 17 32  1  0  0  0  0
 18 20  2  0  0  0  0
 18 37  1  0  0  0  0
 19 21  2  0  0  0  0
 19 38  1  0  0  0  0
 20 46  1  0  0  0  0
 21 39  1  0  0  0  0
 22 29  2  0  0  0  0
 22 30  1  0  0  0  0
 22 55  1  0  0  0  0
 23 86  1  0  0  0  0
 24 87  1  0  0  0  0
 25 27  2  0  0  0  0
 25 86  1  0  0  0  0
 26 88  1  0  0  0  0
 27 89  1  0  0  0  0
 28 70  2  0  0  0  0
 29 56  1  0  0  0  0
 29 68  1  0  0  0  0
 30 57  1  0  0  0  0
 30 69  2  0  0  0  0
 31 71  1  0  0  0  0
 31 74  1  0  0  0  0
 32 75  1  0  0  0  0
 32 81  2  0  0  0  0
 33 47  1  0  0  0  0
 33 76  1  0  0  0  0
 33 82  2  0  0  0  0
 34 65  1  0  0  0  0
 34 72  1  0  0  0  0
 34 83  2  0  0  0  0
 35 66  1  0  0  0  0
 35 77  1  0  0  0  0
 35 84  2  0  0  0  0
 36 73  1  0  0  0  0
 36 78  1  0  0  0  0
 36 85  2  0  0  0  0
 37 40  1  0  0  0  0
 38 47  1  0  0  0  0
 39 72  1  0  0  0  0
 40 42  1  0  0  0  0
 41 43  1  0  0  0  0
 41 44  1  0  0  0  0
 42 46  1  0  0  0  0
 43 48  1  0  0  0  0
 44 73  1  0  0  0  0
 45 48  1  0  0  0  0
 45 73  1  0  0  0  0
 46 76  1  0  0  0  0
 47 72  1  0  0  0  0
 48 71  1  0  0  0  0
 49 56  1  0  0  0  0
 50 66  1  0  0  0  0
 51 67  1  0  0  0  0
 52 67  1  0  0  0  0
 53 67  1  0  0  0  0
 54 79  1  0  0  0  0
 55 63  1  0  0  0  0
 57 87  1  0  0  0  0
 58 59  1  0  0  0  0
 58 60  1  0  0  0  0
 59 61  1  0  0  0  0
 60 62  1  0  0  0  0
 61 64  1  0  0  0  0
 62 78  1  0  0  0  0
 63 80  1  0  0  0  0
 64 80  1  0  0  0  0
 65 67  1  0  0  0  0
 65 77  1  0  0  0  0
 66 79  1  0  0  0  0
 70 71  1  0  0  0  0
M  CHG  2  79   1  80   1
M  ISO  4  36 100  57 101  78 100  87 101
M  END
> <Batch ID>
0044

> <Smiles>
CCc1ncnc([101CH2:1][101O:1]c2ccc3c(c2)CN(C(=O)C(NC(=O)C(C)NC)C(C)(C)C)C(C(=O)NC2CCCc4ccccc42)C3)c1CCNCCCCCC[100NH:0][100C:0](=O)N1CCCC(n2nc(-c3ccc(Oc4ccc(F)cc4F)cc3)c(C(N)=O)c2N)C1

> <Shape>
0.251

> <Color>
0.061

> <Negative vol penalty>
0.000

$$$$

  -OEChem-04052317173D

 87 95  0     1  0  0  0  0  0999 V2000
  -22.8130  -22.5442   10.6983 C   0  0  0  0  0  0  0  0  0  0  0  0
  -23.0761  -22.1286   11.9996 C   0  0  0  0  0  0  0  0  0  0  0  0
  -23.0010   -9.9091   19.9713 C   0  0  0  0  0  0  0  0  0  0  0  0
  -23.7403   -9.9321   22.2713 C   0  0  0  0  0  0  0  0  0  0  0  0
  -23.4354  -23.6847   10.1926 C   0  0  0  0  0  0  0  0  0  0  0  0
  -23.9628  -22.8528   12.7957 C   0  0  0  0  0  0  0  0  0  0  0  0
  -23.6066  -23.7252   18.8470 C   0  0  0  0  0  0  0  0  0  0  0  0
  -22.2360   -8.7715   20.2285 C   0  0  0  0  0  0  0  0  0  0  0  0
  -22.9753   -8.7944   22.5285 C   0  0  0  0  0  0  0  0  0  0  0  0
  -24.2325  -23.0982   19.9235 C   0  0  0  0  0  0  0  0  0  0  0  0
  -21.5010   -5.6870   23.7033 C   0  0  0  0  0  0  0  0  0  0  0  0
  -22.0916   -4.6621   24.4424 C   0  0  0  0  0  0  0  0  0  0  0  0
  -25.9057  -24.8356   19.9549 C   0  0  0  0  0  0  0  0  0  0  0  0
  -23.8076   -4.4352   22.7569 C   0  0  0  0  0  0  0  0  0  0  0  0
  -28.3658  -21.4420   19.0023 C   0  0  0  0  0  0  0  0  0  0  0  0
  -23.7532  -10.4894   20.9927 C   0  0  0  0  0  0  0  0  0  0  0  0
  -24.1376  -13.0070   20.8449 C   0  0  0  0  0  0  0  0  0  0  0  0
  -24.3228  -24.4287   10.9862 C   0  0  0  0  0  0  0  0  0  0  0  0
  -24.1326  -24.9082   18.3084 C   0  0  0  0  0  0  0  0  0  0  0  0
  -24.5987  -24.0036   12.2998 C   0  0  0  0  0  0  0  0  0  0  0  0
  -25.2831  -25.4770   18.8732 C   0  0  0  0  0  0  0  0  0  0  0  0
  -28.5304  -20.8044   20.2076 C   0  0  0  0  0  0  0  0  0  0  0  0
  -22.2231   -8.2141   21.5071 C   0  0  0  0  0  0  0  0  0  0  0  0
  -25.3839  -23.6518   20.4758 C   0  0  0  0  0  0  0  0  0  0  0  0
  -22.0637   -6.0860   22.4909 C   0  0  0  0  0  0  0  0  0  0  0  0
  -23.2449   -4.0362   23.9693 C   0  0  0  0  0  0  0  0  0  0  0  0
  -23.2170   -5.4601   22.0177 C   0  0  0  0  0  0  0  0  0  0  0  0
  -24.5441  -11.6643   20.7274 C   0  0  0  0  0  0  0  0  0  0  0  0
  -28.8176  -19.4699   19.8634 C   0  0  0  0  0  0  0  0  0  0  0  0
  -25.2452  -13.7339   20.4825 C   0  0  0  0  0  0  0  0  0  0  0  0
  -22.8721  -13.5486   21.2459 C   0  0  0  0  0  0  0  0  0  0  0  0
  -25.2938  -25.7608   15.4750 C   0  0  0  0  0  0  0  0  0  0  0  0
  -25.3689  -28.7080   16.8281 C   0  0  0  0  0  0  0  0  0  0  0  0
  -25.5000  -30.5868   19.6741 C   0  0  0  0  0  0  0  0  0  0  0  0
  -30.7431  -14.6654   20.7086 C   0  0  0  0  0  0  0  0  0  0  0  0
  -25.0078  -25.6278   10.3801 C   0  0  0  0  0  0  0  0  0  0  0  0
  -23.4305  -25.5867   17.1643 C   0  0  0  0  0  0  0  0  0  0  0  0
  -25.8764  -26.7566   18.3447 C   0  0  0  0  0  0  0  0  0  0  0  0
  -25.6470  -26.5514   11.4139 C   0  0  0  0  0  0  0  0  0  0  0  0
  -29.5877  -12.2704   18.3408 C   0  0  0  0  0  0  0  0  0  0  0  0
  -26.4440  -25.7422   12.4322 C   0  0  0  0  0  0  0  0  0  0  0  0
  -28.1418  -12.0056   18.7641 C   0  0  0  0  0  0  0  0  0  0  0  0
  -30.4976  -12.4911   19.5473 C   0  0  0  0  0  0  0  0  0  0  0  0
  -28.5958  -13.2703   20.9074 C   0  0  0  0  0  0  0  0  0  0  0  0
  -25.5354  -24.7766   13.2026 C   0  0  1  0  0  0  0  0  0  0  0  0
  -24.3445  -26.5111   16.3659 C   0  0  1  0  0  0  0  0  0  0  0  0
  -27.6295  -13.0971   19.7231 C   0  0  2  0  0  0  0  0  0  0  0  0
  -25.5872  -32.9684   20.4601 C   0  0  0  0  0  0  0  0  0  0  0  0
  -27.0483  -18.6918   16.1380 C   0  0  0  0  0  0  0  0  0  0  0  0
  -25.9387  -20.8945   16.5230 C   0  0  0  0  0  0  0  0  0  0  0  0
  -27.2157  -20.4825   14.4070 C   0  0  0  0  0  0  0  0  0  0  0  0
  -28.3123  -28.8583   16.0383 C   0  0  0  0  0  0  0  0  0  0  0  0
  -28.5725  -30.7658   17.6390 C   0  0  0  0  0  0  0  0  0  0  0  0
  -27.0293  -30.9767   15.6905 C   0  0  0  0  0  0  0  0  0  0  0  0
  -22.9471  -30.3161   21.1467 C   0  0  0  0  0  0  0  0  0  0  0  0
  -28.4242  -21.4099   21.5844 C   0  0  0  0  0  0  0  0  0  0  0  0
  -29.0846  -18.3405   20.7712 C   0  0  0  0  0  0  0  0  0  0  0  0
  -27.1192  -21.0701   22.3077 C   0  0  0  0  0  0  0  0  0  0  0  0
  -30.5804  -17.9763   20.9430 C   0  0  0  0  0  0  0  0  0  0  0  0
  -28.4852  -20.6803   16.6180 C   0  0  0  0  0  0  0  0  0  0  0  0
  -30.8332  -16.8297   21.9196 C   0  0  0  0  0  0  0  0  0  0  0  0
  -25.8811  -21.6218   21.6105 C   0  0  0  0  0  0  0  0  0  1  0  0
  -26.3804  -29.4906   17.6302 C   0  0  1  0  0  0  0  0  0  0  0  0
  -24.6888  -31.7874   20.1268 C   0  0  2  0  0  0  0  0  0  0  0  0
  -27.1785  -20.2128   15.9204 C   0  0  0  0  0  0  0  0  0  0  0  0
  -27.5638  -29.9977   16.7585 C   0  0  0  0  0  0  0  0  0  0  0  0
  -25.8109  -11.5426   20.3220 N   0  0  0  0  0  0  0  0  0  0  0  0
  -28.8351  -19.2703   18.5428 N   0  0  0  0  0  0  0  0  0  0  0  0
  -28.5566  -20.4878   18.0466 N   0  0  0  0  0  0  0  0  0  0  0  0
  -26.2100  -12.8181   20.1814 N   0  0  0  0  0  0  0  0  0  0  0  0
  -25.1570  -27.3788   17.2209 N   0  0  0  0  0  0  0  0  0  0  0  0
  -29.9561  -13.5393   20.4155 N   0  0  0  0  0  0  0  0  0  0  0  0
  -25.4781  -15.0608   20.3952 N   0  0  0  0  0  0  0  0  0  0  0  0
  -21.8424  -12.6604   21.5849 N   0  0  0  0  0  0  0  0  0  0  0  0
  -24.7885  -25.4872   14.2183 N   0  0  0  0  0  0  0  0  0  0  0  0
  -25.6366  -30.5503   18.3025 N   0  0  0  0  0  0  0  0  0  0  0  0
  -30.1518  -15.6142   21.5337 N   0  0  0  0  0  0  0  0  0  0  0  0
  -23.8914  -31.4467   21.3388 N   0  3  0  0  0  0  0  0  0  0  0  0
  -22.6557  -14.7836   21.2860 O   0  0  0  0  0  0  0  0  0  0  0  0
  -26.4030  -25.4543   15.8960 O   0  0  0  0  0  0  0  0  0  0  0  0
  -24.7830  -29.2579   15.8922 O   0  0  0  0  0  0  0  0  0  0  0  0
  -25.9690  -29.7655   20.4591 O   0  0  0  0  0  0  0  0  0  0  0  0
  -31.8858  -14.8166   20.2632 O   0  0  0  0  0  0  0  0  0  0  0  0
  -21.4766   -7.1042   21.7586 O   0  0  0  0  0  0  0  0  0  0  0  0
  -25.9972  -23.0415   21.5261 O   0  0  0  0  0  0  0  0  0  1  0  0
  -23.8128   -3.0531   24.6800 F   0  0  0  0  0  0  0  0  0  0  0  0
  -23.7628   -5.8399   20.8542 F   0  0  0  0  0  0  0  0  0  0  0  0
  1  2  1  0  0  0  0
  1  5  2  0  0  0  0
  2  6  2  0  0  0  0
  3  8  2  0  0  0  0
  3 16  1  0  0  0  0
  4  9  1  0  0  0  0
  4 16  2  0  0  0  0
  5 18  1  0  0  0  0
  6 20  1  0  0  0  0
  7 10  2  0  0  0  0
  7 19  1  0  0  0  0
  8 23  1  0  0  0  0
  9 23  2  0  0  0  0
 10 24  1  0  0  0  0
 11 12  2  0  0  0  0
 11 25  1  0  0  0  0
 12 26  1  0  0  0  0
 13 21  1  0  0  0  0
 13 24  2  0  0  0  0
 14 26  2  0  0  0  0
 14 27  1  0  0  0  0
 15 22  2  0  0  0  0
 15 69  1  0  0  0  0
 16 28  1  0  0  0  0
 17 28  1  0  0  0  0
 17 30  2  0  0  0  0
 17 31  1  0  0  0  0
 18 20  2  0  0  0  0
 18 36  1  0  0  0  0
 19 21  2  0  0  0  0
 19 37  1  0  0  0  0
 20 45  1  0  0  0  0
 21 38  1  0  0  0  0
 22 29  1  0  0  0  0
 22 56  1  0  0  0  0
 23 84  1  0  0  0  0
 24 85  1  0  0  0  0
 25 27  2  0  0  0  0
 25 84  1  0  0  0  0
 26 86  1  0  0  0  0
 27 87  1  0  0  0  0
 28 67  2  0  0  0  0
 29 57  1  0  0  0  0
 29 68  2  0  0  0  0
 30 70  1  0  0  0  0
 30 73  1  0  0  0  0
 31 74  1  0  0  0  0
 31 79  2  0  0  0  0
 32 46  1  0  0  0  0
 32 75  1  0  0  0  0
 32 80  2  0  0  0  0
 33 63  1  0  0  0  0
 33 71  1  0  0  0  0
 33 81  2  0  0  0  0
 34 64  1  0  0  0  0
 34 76  1  0  0  0  0
 34 82  2  0  0  0  0
 35 72  1  0  0  0  0
 35 77  1  0  0  0  0
 35 83  2  0  0  0  0
 36 39  1  0  0  0  0
 37 46  1  0  0  0  0
 38 71  1  0  0  0  0
 39 41  1  0  0  0  0
 40 42  1  0  0  0  0
 40 43  1  0  0  0  0
 41 45  1  0  0  0  0
 42 47  1  0  0  0  0
 43 72  1  0  0  0  0
 44 47  1  0  0  0  0
 44 72  1  0  0  0  0
 45 75  1  0  0  0  0
 46 71  1  0  0  0  0
 47 70  1  0  0  0  0
 48 64  1  0  0  0  0
 49 65  1  0  0  0  0
 50 65  1  0  0  0  0
 51 65  1  0  0  0  0
 52 66  1  0  0  0  0
 53 66  1  0  0  0  0
 54 66  1  0  0  0  0
 55 78  1  0  0  0  0
 56 58  1  0  0  0  0
 57 59  1  0  0  0  0
 58 62  1  0  0  0  0
 59 61  1  0  0  0  0
 60 65  1  0  0  0  0
 60 69  1  0  0  0  0
 61 77  1  0  0  0  0
 62 85  1  0  0  0  0
 63 66  1  0  0  0  0
 63 76  1  0  0  0  0
 64 78  1  0  0  0  0
 67 70  1  0  0  0  0
 68 69  1  0  0  0  0
M  CHG  1  78   1
M  ISO  4  35 100  62 101  77 100  85 101
M  END
> <Batch ID>
0044

> <Smiles>
CNC(C)C(=O)NC(C(=O)N1Cc2cc([101O:1][101CH2:1]CCc3cn(CC(C)(C)C)nc3CCC[100NH:0][100C:0](=O)N3CCCC(n4nc(-c5ccc(Oc6ccc(F)cc6F)cc5)c(C(N)=O)c4N)C3)ccc2CC1C(=O)NC1CCCc2ccccc21)C(C)(C)C

> <Shape>
0.251

> <Color>
0.198

> <Negative vol penalty>
0.000

$$$$

  -OEChem-04052317173D

 83 91  0     1  0  0  0  0  0999 V2000
  -26.4744  -35.5411   22.4066 C   0  0  0  0  0  0  0  0  0  0  0  0
  -26.9520  -34.2388   22.2999 C   0  0  0  0  0  0  0  0  0  0  0  0
  -24.1790  -13.7238   21.8691 C   0  0  0  0  0  0  0  0  0  0  0  0
  -25.9654  -14.0019   20.2665 C   0  0  0  0  0  0  0  0  0  0  0  0
  -25.2001  -35.7749   22.9219 C   0  0  0  0  0  0  0  0  0  0  0  0
  -26.1561  -33.1697   22.7095 C   0  0  0  0  0  0  0  0  0  0  0  0
  -26.1898  -29.3410   19.3951 C   0  0  0  0  0  0  0  0  0  0  0  0
  -23.7835  -12.5516   21.2250 C   0  0  0  0  0  0  0  0  0  0  0  0
  -25.5700  -12.8295   19.6223 C   0  0  0  0  0  0  0  0  0  0  0  0
  -27.3046  -28.5038   19.4007 C   0  0  0  0  0  0  0  0  0  0  0  0
  -24.7778   -9.3223   21.0976 C   0  0  0  0  0  0  0  0  0  0  0  0
  -24.4836   -8.2139   21.8917 C   0  0  0  0  0  0  0  0  0  0  0  0
  -26.0739  -26.8837   20.6968 C   0  0  0  0  0  0  0  0  0  0  0  0
  -22.2333   -8.1817   21.0129 C   0  0  0  0  0  0  0  0  0  0  0  0
  -31.6975  -23.9308   19.2975 C   0  0  0  0  0  0  0  0  0  0  0  0
  -31.8117  -26.0365   20.0510 C   0  0  0  0  0  0  0  0  0  0  0  0
  -25.2699  -14.4490   21.3898 C   0  0  0  0  0  0  0  0  0  0  0  0
  -26.6049  -15.7812   23.1077 C   0  0  0  0  0  0  0  0  0  0  0  0
  -24.3844  -34.7075   23.3290 C   0  0  0  0  0  0  0  0  0  0  0  0
  -25.0102  -28.9599   20.0507 C   0  0  0  0  0  0  0  0  0  0  0  0
  -24.8703  -33.3896   23.2320 C   0  0  0  0  0  0  0  0  0  0  0  0
  -24.9447  -27.7167   20.6958 C   0  0  0  0  0  0  0  0  0  0  0  0
  -30.4984  -24.5398   18.9998 C   0  0  0  0  0  0  0  0  0  0  0  0
  -30.5706  -25.8719   19.4766 C   0  0  0  0  0  0  0  0  0  0  0  0
  -24.4790  -12.1044   20.1016 C   0  0  0  0  0  0  0  0  0  0  0  0
  -27.2477  -27.2762   20.0540 C   0  0  0  0  0  0  0  0  0  0  0  0
  -23.7997   -9.8604   20.2612 C   0  0  0  0  0  0  0  0  0  0  0  0
  -23.2113   -7.6436   21.8493 C   0  0  0  0  0  0  0  0  0  0  0  0
  -22.5275   -9.2901   20.2189 C   0  0  0  0  0  0  0  0  0  0  0  0
  -25.6786  -15.6604   22.0545 C   0  0  0  0  0  0  0  0  0  0  0  0
  -26.6412  -17.1269   23.3803 C   0  0  0  0  0  0  0  0  0  0  0  0
  -27.3646  -14.7677   23.7794 C   0  0  0  0  0  0  0  0  0  0  0  0
  -23.3111  -30.1274   22.4702 C   0  0  0  0  0  0  0  0  0  0  0  0
  -21.2389  -27.7736   21.6407 C   0  0  0  0  0  0  0  0  0  0  0  0
  -20.7398  -24.7485   20.1419 C   0  0  0  0  0  0  0  0  0  0  0  0
  -25.4400  -21.9866   20.0952 C   0  0  0  0  0  0  0  0  0  0  0  0
  -23.0325  -35.0128   23.9238 C   0  0  0  0  0  0  0  0  0  0  0  0
  -23.8077  -29.8627   20.0127 C   0  0  0  0  0  0  0  0  0  0  0  0
  -23.6954  -27.2521   21.3972 C   0  0  0  0  0  0  0  0  0  0  0  0
  -22.1068  -33.8006   23.9866 C   0  0  0  0  0  0  0  0  0  0  0  0
  -23.9270  -21.0620   23.1827 C   0  0  0  0  0  0  0  0  0  0  0  0
  -22.8492  -32.5904   24.5444 C   0  0  0  0  0  0  0  0  0  0  0  0
  -24.2879  -19.5837   23.3387 C   0  0  0  0  0  0  0  0  0  0  0  0
  -23.6596  -21.4268   21.7241 C   0  0  0  0  0  0  0  0  0  0  0  0
  -25.1004  -19.5861   20.9431 C   0  0  0  0  0  0  0  0  0  0  0  0
  -24.0271  -32.2019   23.6426 C   0  0  1  0  0  0  0  0  0  0  0  0
  -22.8260  -29.5985   21.1501 C   0  0  1  0  0  0  0  0  0  0  0  0
  -25.4335  -19.1830   22.3898 C   0  0  2  0  0  0  0  0  0  0  0  0
  -18.9452  -23.0633   19.6554 C   0  0  0  0  0  0  0  0  0  0  0  0
  -34.7941  -24.2825   19.2702 C   0  0  0  0  0  0  0  0  0  0  0  0
  -33.8645  -23.5319   21.5016 C   0  0  0  0  0  0  0  0  0  0  0  0
  -21.3300  -26.8418   24.5448 C   0  0  0  0  0  0  0  0  0  0  0  0
  -20.3229  -24.6716   23.8071 C   0  0  0  0  0  0  0  0  0  0  0  0
  -19.0554  -26.7989   23.5063 C   0  0  0  0  0  0  0  0  0  0  0  0
  -21.1065  -25.0297   17.2186 C   0  0  0  0  0  0  0  0  0  0  0  0
  -29.3556  -23.9101   18.3089 C   0  0  0  0  0  0  0  0  0  0  0  0
  -29.5003  -26.9191   19.3802 C   0  0  0  0  0  0  0  0  0  1  0  0
  -28.4754  -22.9999   19.1989 C   0  0  0  0  0  0  0  0  0  0  0  0
  -27.2755  -22.3928   18.4750 C   0  0  0  0  0  0  0  0  0  0  0  0
  -21.0528  -26.3269   22.0300 C   0  0  1  0  0  0  0  0  0  0  0  0
  -19.6992  -24.2797   19.1410 C   0  0  2  0  0  0  0  0  0  0  0  0
  -33.8302  -24.6066   20.4133 C   0  0  0  0  0  0  0  0  0  0  0  0
  -20.4646  -26.1691   23.4606 C   0  0  0  0  0  0  0  0  0  0  0  0
  -25.1635  -16.8356   21.6834 N   0  0  0  0  0  0  0  0  0  0  0  0
  -32.4882  -24.8502   19.9361 N   0  0  0  0  0  0  0  0  0  0  0  0
  -25.7682  -17.7076   22.5081 N   0  0  0  0  0  0  0  0  0  0  0  0
  -22.5483  -28.1730   21.3374 N   0  0  0  0  0  0  0  0  0  0  0  0
  -24.7844  -21.0216   20.8776 N   0  0  0  0  0  0  0  0  0  0  0  0
  -27.3343  -17.8582   24.2787 N   0  0  0  0  0  0  0  0  0  0  0  0
  -27.2070  -13.4355   23.3737 N   0  0  0  0  0  0  0  0  0  0  0  0
  -23.5559  -31.4874   22.4756 N   0  0  0  0  0  0  0  0  0  0  0  0
  -20.2401  -25.7229   20.9798 N   0  0  0  0  0  0  0  0  0  0  0  0
  -26.4995  -21.5195   19.3270 N   0  0  0  0  0  0  0  0  0  0  0  0
  -20.3487  -23.9185   17.8493 N   0  3  0  0  0  0  0  0  0  0  0  0
  -28.1475  -15.0336   24.7228 O   0  0  0  0  0  0  0  0  0  0  0  0
  -23.4514  -29.3589   23.4143 O   0  0  0  0  0  0  0  0  0  0  0  0
  -20.2577  -28.5200   21.6001 O   0  0  0  0  0  0  0  0  0  0  0  0
  -21.8807  -24.2930   20.1793 O   0  0  0  0  0  0  0  0  0  0  0  0
  -25.1092  -23.1771   20.0862 O   0  0  0  0  0  0  0  0  0  0  0  0
  -24.0936  -10.9604   19.4729 O   0  0  0  0  0  0  0  0  0  0  0  0
  -28.3346  -26.4574   20.0616 O   0  0  0  0  0  0  0  0  0  1  0  0
  -22.9294   -6.5783   22.6107 F   0  0  0  0  0  0  0  0  0  0  0  0
  -21.5841   -9.8020   19.4165 F   0  0  0  0  0  0  0  0  0  0  0  0
  1  2  1  0  0  0  0
  1  5  2  0  0  0  0
  2  6  2  0  0  0  0
  3  8  2  0  0  0  0
  3 17  1  0  0  0  0
  4  9  1  0  0  0  0
  4 17  2  0  0  0  0
  5 19  1  0  0  0  0
  6 21  1  0  0  0  0
  7 10  2  0  0  0  0
  7 20  1  0  0  0  0
  8 25  1  0  0  0  0
  9 25  2  0  0  0  0
 10 26  1  0  0  0  0
 11 12  2  0  0  0  0
 11 27  1  0  0  0  0
 12 28  1  0  0  0  0
 13 22  1  0  0  0  0
 13 26  2  0  0  0  0
 14 28  2  0  0  0  0
 14 29  1  0  0  0  0
 15 23  2  0  0  0  0
 15 65  1  0  0  0  0
 16 24  2  0  0  0  0
 16 65  1  0  0  0  0
 17 30  1  0  0  0  0
 18 30  1  0  0  0  0
 18 31  2  0  0  0  0
 18 32  1  0  0  0  0
 19 21  2  0  0  0  0
 19 37  1  0  0  0  0
 20 22  2  0  0  0  0
 20 38  1  0  0  0  0
 21 46  1  0  0  0  0
 22 39  1  0  0  0  0
 23 24  1  0  0  0  0
 23 56  1  0  0  0  0
 24 57  1  0  0  0  0
 25 80  1  0  0  0  0
 26 81  1  0  0  0  0
 27 29  2  0  0  0  0
 27 80  1  0  0  0  0
 28 82  1  0  0  0  0
 29 83  1  0  0  0  0
 30 64  2  0  0  0  0
 31 66  1  0  0  0  0
 31 69  1  0  0  0  0
 32 70  1  0  0  0  0
 32 75  2  0  0  0  0
 33 47  1  0  0  0  0
 33 71  1  0  0  0  0
 33 76  2  0  0  0  0
 34 60  1  0  0  0  0
 34 67  1  0  0  0  0
 34 77  2  0  0  0  0
 35 61  1  0  0  0  0
 35 72  1  0  0  0  0
 35 78  2  0  0  0  0
 36 68  1  0  0  0  0
 36 73  1  0  0  0  0
 36 79  2  0  0  0  0
 37 40  1  0  0  0  0
 38 47  1  0  0  0  0
 39 67  1  0  0  0  0
 40 42  1  0  0  0  0
 41 43  1  0  0  0  0
 41 44  1  0  0  0  0
 42 46  1  0  0  0  0
 43 48  1  0  0  0  0
 44 68  1  0  0  0  0
 45 48  1  0  0  0  0
 45 68  1  0  0  0  0
 46 71  1  0  0  0  0
 47 67  1  0  0  0  0
 48 66  1  0  0  0  0
 49 61  1  0  0  0  0
 50 62  1  0  0  0  0
 51 62  1  0  0  0  0
 52 63  1  0  0  0  0
 53 63  1  0  0  0  0
 54 63  1  0  0  0  0
 55 74  1  0  0  0  0
 56 58  1  0  0  0  0
 57 81  1  0  0  0  0
 58 59  1  0  0  0  0
 59 73  1  0  0  0  0
 60 63  1  0  0  0  0
 60 72  1  0  0  0  0
 61 74  1  0  0  0  0
 62 65  1  0  0  0  0
 64 66  1  0  0  0  0
M  CHG  1  74   1
M  ISO  4  36 100  57 101  73 100  81 101
M  END
> <Batch ID>
0044

> <Smiles>
CNC(C)C(=O)NC(C(=O)N1Cc2cc([101O:1][101CH2:1]c3cn(C(C)C)cc3CCC[100NH:0][100C:0](=O)N3CCCC(n4nc(-c5ccc(Oc6ccc(F)cc6F)cc5)c(C(N)=O)c4N)C3)ccc2CC1C(=O)NC1CCCc2ccccc21)C(C)(C)C

> <Shape>
0.249

> <Color>
0.078

> <Negative vol penalty>
0.000

$$$$

  -OEChem-04052317173D

 83 91  0     1  0  0  0  0  0999 V2000
  -36.3149  -28.7309   11.9691 C   0  0  0  0  0  0  0  0  0  0  0  0
  -35.2775  -27.8723   12.3187 C   0  0  0  0  0  0  0  0  0  0  0  0
  -23.0710   -9.8732   19.9407 C   0  0  0  0  0  0  0  0  0  0  0  0
  -23.8350   -9.8753   22.2327 C   0  0  0  0  0  0  0  0  0  0  0  0
  -37.6114  -28.2365   11.8327 C   0  0  0  0  0  0  0  0  0  0  0  0
  -35.5359  -26.5186   12.5310 C   0  0  0  0  0  0  0  0  0  0  0  0
  -33.2505  -24.7322   16.6820 C   0  0  0  0  0  0  0  0  0  0  0  0
  -28.2339  -21.9007   19.6482 C   0  0  0  0  0  0  0  0  0  0  0  0
  -28.4912  -20.8007   20.4662 C   0  0  0  0  0  0  0  0  0  0  0  0
  -22.3273   -8.7198   20.1896 C   0  0  0  0  0  0  0  0  0  0  0  0
  -23.0912   -8.7218   22.4816 C   0  0  0  0  0  0  0  0  0  0  0  0
  -31.8884  -24.4500   16.5874 C   0  0  0  0  0  0  0  0  0  0  0  0
  -22.8991   -5.4006   20.4726 C   0  0  0  0  0  0  0  0  0  0  0  0
  -22.9640   -4.3729   19.5317 C   0  0  0  0  0  0  0  0  0  0  0  0
  -32.3989  -22.1087   16.3103 C   0  0  0  0  0  0  0  0  0  0  0  0
  -28.5208  -20.5129   17.6915 C   0  0  0  0  0  0  0  0  0  0  0  0
  -20.5789   -4.5401   19.1847 C   0  0  0  0  0  0  0  0  0  0  0  0
  -23.8250  -10.4510   20.9622 C   0  0  0  0  0  0  0  0  0  0  0  0
  -24.1673  -12.9763   20.8468 C   0  0  0  0  0  0  0  0  0  0  0  0
  -37.8874  -26.8778   12.0528 C   0  0  0  0  0  0  0  0  0  0  0  0
  -34.1990  -23.7045   16.5803 C   0  0  0  0  0  0  0  0  0  0  0  0
  -36.8371  -26.0053   12.3960 C   0  0  0  0  0  0  0  0  0  0  0  0
  -33.7723  -22.3801   16.4065 C   0  0  0  0  0  0  0  0  0  0  0  0
  -28.2487  -21.7568   18.2608 C   0  0  0  0  0  0  0  0  0  0  0  0
  -28.7633  -19.5567   19.8970 C   0  0  0  0  0  0  0  0  0  0  0  0
  -28.7781  -19.4128   18.5096 C   0  0  0  0  0  0  0  0  0  0  0  0
  -22.3373   -8.1441   21.4601 C   0  0  0  0  0  0  0  0  0  0  0  0
  -31.4626  -23.1385   16.3987 C   0  0  0  0  0  0  0  0  0  0  0  0
  -21.6741   -5.9980   20.7696 C   0  0  0  0  0  0  0  0  0  0  0  0
  -21.8039   -3.9427   18.8877 C   0  0  0  0  0  0  0  0  0  0  0  0
  -20.5140   -5.5678   20.1256 C   0  0  0  0  0  0  0  0  0  0  0  0
  -24.5939  -11.6421   20.7056 C   0  0  0  0  0  0  0  0  0  0  0  0
  -25.2590  -13.7262   20.4831 C   0  0  0  0  0  0  0  0  0  0  0  0
  -22.8977  -13.4916   21.2691 C   0  0  0  0  0  0  0  0  0  0  0  0
  -36.5751  -23.0349   14.5780 C   0  0  0  0  0  0  0  0  0  0  0  0
  -37.1734  -20.6554   16.6999 C   0  0  0  0  0  0  0  0  0  0  0  0
  -35.9888  -18.5827   19.1386 C   0  0  0  0  0  0  0  0  0  0  0  0
  -30.7434  -14.7433   20.6637 C   0  0  0  0  0  0  0  0  0  0  0  0
  -39.2965  -26.3808   11.8472 C   0  0  0  0  0  0  0  0  0  0  0  0
  -35.6635  -24.0219   16.7112 C   0  0  0  0  0  0  0  0  0  0  0  0
  -34.7496  -21.2381   16.3115 C   0  0  0  0  0  0  0  0  0  0  0  0
  -39.5517  -25.0043   12.4558 C   0  0  0  0  0  0  0  0  0  0  0  0
  -29.6008  -12.3640   18.2740 C   0  0  0  0  0  0  0  0  0  0  0  0
  -38.4217  -24.0443   12.0973 C   0  0  0  0  0  0  0  0  0  0  0  0
  -28.1640  -12.0698   18.7090 C   0  0  0  0  0  0  0  0  0  0  0  0
  -30.5201  -12.5821   19.4737 C   0  0  0  0  0  0  0  0  0  0  0  0
  -28.6211  -13.3109   20.8653 C   0  0  0  0  0  0  0  0  0  0  0  0
  -37.0818  -24.5352   12.6588 C   0  0  1  0  0  0  0  0  0  0  0  0
  -36.5629  -22.9643   16.0788 C   0  0  1  0  0  0  0  0  0  0  0  0
  -27.6448  -13.1390   19.6890 C   0  0  2  0  0  0  0  0  0  0  0  0
  -29.0674  -18.0907   17.8776 C   0  0  0  0  0  0  0  0  0  0  0  0
  -36.7045  -16.7187   20.6587 C   0  0  0  0  0  0  0  0  0  0  0  0
  -37.0806  -18.7086   14.3524 C   0  0  0  0  0  0  0  0  0  0  0  0
  -36.8467  -16.8396   16.0018 C   0  0  0  0  0  0  0  0  0  0  0  0
  -38.8985  -18.2583   16.0098 C   0  0  0  0  0  0  0  0  0  0  0  0
  -35.3768  -20.1681   21.5615 C   0  0  0  0  0  0  0  0  0  0  0  0
  -27.9707  -22.9475   17.3758 C   0  0  0  0  0  0  0  0  0  0  0  0
  -29.0369  -18.3936   20.7931 C   0  0  0  0  0  0  0  0  0  0  0  0
  -30.5302  -18.0474   20.9478 C   0  0  0  0  0  0  0  0  0  0  0  0
  -30.8121  -16.8913   21.9049 C   0  0  0  0  0  0  0  0  0  0  0  0
  -29.2399  -23.7136   17.0190 C   0  0  0  0  0  0  0  0  0  1  0  0
  -36.7207  -19.2238   16.8565 C   0  0  1  0  0  0  0  0  0  0  0  0
  -36.5361  -18.2226   20.5080 C   0  0  2  0  0  0  0  0  0  0  0  0
  -37.3680  -18.2791   15.8049 C   0  0  0  0  0  0  0  0  0  0  0  0
  -25.8580  -11.5468   20.2848 N   0  0  0  0  0  0  0  0  0  0  0  0
  -26.2350  -12.8306   20.1584 N   0  0  0  0  0  0  0  0  0  0  0  0
  -36.1709  -21.6002   16.4390 N   0  0  0  0  0  0  0  0  0  0  0  0
  -29.9715  -13.6089   20.3628 N   0  0  0  0  0  0  0  0  0  0  0  0
  -25.4697  -15.0577   20.4125 N   0  0  0  0  0  0  0  0  0  0  0  0
  -21.8861  -12.5820   21.6063 N   0  0  0  0  0  0  0  0  0  0  0  0
  -36.9933  -24.2523   14.0754 N   0  0  0  0  0  0  0  0  0  0  0  0
  -36.9989  -18.8569   18.2409 N   0  0  0  0  0  0  0  0  0  0  0  0
  -30.1460  -15.6705   21.5087 N   0  0  0  0  0  0  0  0  0  0  0  0
  -35.6143  -18.7017   21.5765 N   0  3  0  0  0  0  0  0  0  0  0  0
  -22.6619  -14.7221   21.3294 O   0  0  0  0  0  0  0  0  0  0  0  0
  -36.2321  -22.0568   13.9243 O   0  0  0  0  0  0  0  0  0  0  0  0
  -38.3716  -20.9265   16.8122 O   0  0  0  0  0  0  0  0  0  0  0  0
  -34.7858  -18.6137   18.8891 O   0  0  0  0  0  0  0  0  0  0  0  0
  -31.8785  -14.9194   20.2084 O   0  0  0  0  0  0  0  0  0  0  0  0
  -21.6115   -7.0187   21.7034 O   0  0  0  0  0  0  0  0  0  0  0  0
  -30.1337  -22.8604   16.3054 O   0  0  0  0  0  0  0  0  0  1  0  0
  -21.8666   -2.9568   17.9831 F   0  0  0  0  0  0  0  0  0  0  0  0
  -19.3345   -6.1387   20.4059 F   0  0  0  0  0  0  0  0  0  0  0  0
  1  2  1  0  0  0  0
  1  5  2  0  0  0  0
  2  6  2  0  0  0  0
  3 10  2  0  0  0  0
  3 18  1  0  0  0  0
  4 11  1  0  0  0  0
  4 18  2  0  0  0  0
  5 20  1  0  0  0  0
  6 22  1  0  0  0  0
  7 12  2  0  0  0  0
  7 21  1  0  0  0  0
  8  9  2  0  0  0  0
  8 24  1  0  0  0  0
  9 25  1  0  0  0  0
 10 27  1  0  0  0  0
 11 27  2  0  0  0  0
 12 28  1  0  0  0  0
 13 14  2  0  0  0  0
 13 29  1  0  0  0  0
 14 30  1  0  0  0  0
 15 23  1  0  0  0  0
 15 28  2  0  0  0  0
 16 24  2  0  0  0  0
 16 26  1  0  0  0  0
 17 30  2  0  0  0  0
 17 31  1  0  0  0  0
 18 32  1  0  0  0  0
 19 32  1  0  0  0  0
 19 33  2  0  0  0  0
 19 34  1  0  0  0  0
 20 22  2  0  0  0  0
 20 39  1  0  0  0  0
 21 23  2  0  0  0  0
 21 40  1  0  0  0  0
 22 48  1  0  0  0  0
 23 41  1  0  0  0  0
 24 57  1  0  0  0  0
 25 26  2  0  0  0  0
 25 58  1  0  0  0  0
 26 51  1  0  0  0  0
 27 80  1  0  0  0  0
 28 81  1  0  0  0  0
 29 31  2  0  0  0  0
 29 80  1  0  0  0  0
 30 82  1  0  0  0  0
 31 83  1  0  0  0  0
 32 65  2  0  0  0  0
 33 66  1  0  0  0  0
 33 69  1  0  0  0  0
 34 70  1  0  0  0  0
 34 75  2  0  0  0  0
 35 49  1  0  0  0  0
 35 71  1  0  0  0  0
 35 76  2  0  0  0  0
 36 62  1  0  0  0  0
 36 67  1  0  0  0  0
 36 77  2  0  0  0  0
 37 63  1  0  0  0  0
 37 72  1  0  0  0  0
 37 78  2  0  0  0  0
 38 68  1  0  0  0  0
 38 73  1  0  0  0  0
 38 79  2  0  0  0  0
 39 42  1  0  0  0  0
 40 49  1  0  0  0  0
 41 67  1  0  0  0  0
 42 44  1  0  0  0  0
 43 45  1  0  0  0  0
 43 46  1  0  0  0  0
 44 48  1  0  0  0  0
 45 50  1  0  0  0  0
 46 68  1  0  0  0  0
 47 50  1  0  0  0  0
 47 68  1  0  0  0  0
 48 71  1  0  0  0  0
 49 67  1  0  0  0  0
 50 66  1  0  0  0  0
 52 63  1  0  0  0  0
 53 64  1  0  0  0  0
 54 64  1  0  0  0  0
 55 64  1  0  0  0  0
 56 74  1  0  0  0  0
 57 61  1  0  0  0  0
 58 59  1  0  0  0  0
 59 60  1  0  0  0  0
 60 73  1  0  0  0  0
 61 81  1  0  0  0  0
 62 64  1  0  0  0  0
 62 72  1  0  0  0  0
 63 74  1  0  0  0  0
 65 66  1  0  0  0  0
M  CHG  1  74   1
M  ISO  4  38 100  61 101  73 100  81 101
M  END
> <Batch ID>
0044

> <Smiles>
CNC(C)C(=O)NC(C(=O)N1Cc2cc([101O:1][101CH2:1]Cc3ccc(CCC[100NH:0][100C:0](=O)N4CCCC(n5nc(-c6ccc(Oc7ccc(F)cc7F)cc6)c(C(N)=O)c5N)C4)c(C)c3)ccc2CC1C(=O)NC1CCCc2ccccc21)C(C)(C)C

> <Shape>
0.202

> <Color>
0.200

> <Negative vol penalty>
0.000

$$$$

  -OEChem-04052317173D

 78 86  0     1  0  0  0  0  0999 V2000
  -25.2108  -35.5515   22.4300 C   0  0  0  0  0  0  0  0  0  0  0  0
  -25.9190  -34.3707   22.2310 C   0  0  0  0  0  0  0  0  0  0  0  0
  -26.7070  -12.6614   21.1187 C   0  0  0  0  0  0  0  0  0  0  0  0
  -26.6818  -13.0694   18.7376 C   0  0  0  0  0  0  0  0  0  0  0  0
  -23.9925  -35.5266   23.1075 C   0  0  0  0  0  0  0  0  0  0  0  0
  -25.4097  -33.1643   22.7103 C   0  0  0  0  0  0  0  0  0  0  0  0
  -25.7742  -29.4186   19.3218 C   0  0  0  0  0  0  0  0  0  0  0  0
  -26.1842  -11.3860   20.9057 C   0  0  0  0  0  0  0  0  0  0  0  0
  -26.1590  -11.7939   18.5245 C   0  0  0  0  0  0  0  0  0  0  0  0
  -27.0239  -28.8207   19.1656 C   0  0  0  0  0  0  0  0  0  0  0  0
  -23.1684  -10.0085   20.2485 C   0  0  0  0  0  0  0  0  0  0  0  0
  -22.1242   -9.5908   21.0736 C   0  0  0  0  0  0  0  0  0  0  0  0
  -26.3150  -26.9879   20.5648 C   0  0  0  0  0  0  0  0  0  0  0  0
  -23.4720   -7.7383   21.8412 C   0  0  0  0  0  0  0  0  0  0  0  0
  -29.3035  -23.7725   18.8348 C   0  0  0  0  0  0  0  0  0  0  0  0
  -26.9558  -13.5032   20.0346 C   0  0  0  0  0  0  0  0  0  0  0  0
  -28.8541  -15.1863   20.3021 C   0  0  0  0  0  0  0  0  0  0  0  0
  -23.4633  -34.3179   23.5869 C   0  0  0  0  0  0  0  0  0  0  0  0
  -24.7875  -28.8101   20.1108 C   0  0  0  0  0  0  0  0  0  0  0  0
  -24.1838  -33.1234   23.3959 C   0  0  0  0  0  0  0  0  0  0  0  0
  -25.0527  -27.5789   20.7272 C   0  0  0  0  0  0  0  0  0  0  0  0
  -25.9102  -10.9522   19.6086 C   0  0  0  0  0  0  0  0  0  0  0  0
  -27.2955  -27.6066   19.7895 C   0  0  0  0  0  0  0  0  0  0  0  0
  -24.3643   -9.2911   20.2196 C   0  0  0  0  0  0  0  0  0  0  0  0
  -22.2760   -8.4557   21.8700 C   0  0  0  0  0  0  0  0  0  0  0  0
  -24.5161   -8.1560   21.0160 C   0  0  0  0  0  0  0  0  0  0  0  0
  -27.4953  -14.8211   20.2541 C   0  0  0  0  0  0  0  0  0  0  0  0
  -28.5174  -22.8524   18.1879 C   0  0  0  0  0  0  0  0  0  0  0  0
  -28.8378  -16.5401   20.5334 C   0  0  0  0  0  0  0  0  0  0  0  0
  -30.0261  -14.3744   20.1510 C   0  0  0  0  0  0  0  0  0  0  0  0
  -23.2162  -29.6156   22.7539 C   0  0  0  0  0  0  0  0  0  0  0  0
  -26.7512  -21.6022   19.3885 C   0  0  0  0  0  0  0  0  0  0  0  0
  -21.5618  -26.8956   22.1324 C   0  0  0  0  0  0  0  0  0  0  0  0
  -21.4828  -23.8314   20.6320 C   0  0  0  0  0  0  0  0  0  0  0  0
  -22.1656  -34.3475   24.3547 C   0  0  0  0  0  0  0  0  0  0  0  0
  -23.4354  -29.4548   20.2475 C   0  0  0  0  0  0  0  0  0  0  0  0
  -24.0208  -26.8745   21.5683 C   0  0  0  0  0  0  0  0  0  0  0  0
  -21.5140  -32.9750   24.5028 C   0  0  0  0  0  0  0  0  0  0  0  0
  -25.0557  -19.6196   21.8451 C   0  0  0  0  0  0  0  0  0  0  0  0
  -22.5465  -31.9374   24.9317 C   0  0  0  0  0  0  0  0  0  0  0  0
  -25.6287  -18.2189   21.6337 C   0  0  0  0  0  0  0  0  0  0  0  0
  -24.9301  -20.3763   20.5265 C   0  0  0  0  0  0  0  0  0  0  0  0
  -26.7798  -19.0629   19.5390 C   0  0  0  0  0  0  0  0  0  0  0  0
  -23.6522  -31.7915   23.8792 C   0  0  1  0  0  0  0  0  0  0  0  0
  -22.6799  -29.0003   21.4924 C   0  0  1  0  0  0  0  0  0  0  0  0
  -26.9520  -18.2754   20.8500 C   0  0  2  0  0  0  0  0  0  0  0  0
  -20.0097  -21.8219   20.3327 C   0  0  0  0  0  0  0  0  0  0  0  0
  -22.2077  -26.0013   24.9772 C   0  0  0  0  0  0  0  0  0  0  0  0
  -21.5637  -23.6737   24.3174 C   0  0  0  0  0  0  0  0  0  0  0  0
  -19.8723  -25.5053   24.2327 C   0  0  0  0  0  0  0  0  0  0  0  0
  -21.4079  -24.1795   17.6939 C   0  0  0  0  0  0  0  0  0  0  0  0
  -28.0649  -21.5343   18.6512 C   0  0  0  0  0  0  0  0  0  0  0  0
  -30.1393  -26.0996   18.1085 C   0  0  0  0  0  0  0  0  0  0  0  0
  -29.2066  -27.2661   18.4155 C   0  0  0  0  0  0  0  0  0  1  0  0
  -21.7172  -25.4409   22.5051 C   0  0  1  0  0  0  0  0  0  0  0  0
  -20.4356  -23.1642   19.7585 C   0  0  2  0  0  0  0  0  0  0  0  0
  -21.3606  -25.1693   23.9939 C   0  0  0  0  0  0  0  0  0  0  0  0
  -26.6756  -15.8591   20.4401 N   0  0  0  0  0  0  0  0  0  0  0  0
  -28.1640  -23.3338   16.9579 N   0  0  0  0  0  0  0  0  0  0  0  0
  -28.7117  -24.5360   16.8174 N   0  0  0  0  0  0  0  0  0  0  0  0
  -29.3946  -24.7972   17.9438 N   0  0  0  0  0  0  0  0  0  0  0  0
  -27.5216  -16.8898   20.6073 N   0  0  0  0  0  0  0  0  0  0  0  0
  -22.7161  -27.5480   21.6768 N   0  0  0  0  0  0  0  0  0  0  0  0
  -26.2021  -20.3883   19.8018 N   0  0  0  0  0  0  0  0  0  0  0  0
  -29.8211  -17.4535   20.6788 N   0  0  0  0  0  0  0  0  0  0  0  0
  -29.8627  -13.0020   19.9184 N   0  0  0  0  0  0  0  0  0  0  0  0
  -23.1858  -30.9971   22.7630 N   0  0  0  0  0  0  0  0  0  0  0  0
  -20.9120  -24.6867   21.5506 N   0  0  0  0  0  0  0  0  0  0  0  0
  -20.9723  -22.9395   18.3865 N   0  3  0  0  0  0  0  0  0  0  0  0
  -31.1841  -14.8490   20.2367 O   0  0  0  0  0  0  0  0  0  0  0  0
  -23.6259  -28.8907   23.6530 O   0  0  0  0  0  0  0  0  0  0  0  0
  -26.2317  -22.7025   19.5928 O   0  0  0  0  0  0  0  0  0  0  0  0
  -20.4553  -27.4312   22.2347 O   0  0  0  0  0  0  0  0  0  0  0  0
  -22.6864  -23.6126   20.5138 O   0  0  0  0  0  0  0  0  0  0  0  0
  -25.4002   -9.7075   19.4004 O   0  0  0  0  0  0  0  0  0  0  0  0
  -28.5147  -27.0210   19.6393 O   0  0  0  0  0  0  0  0  0  1  0  0
  -21.2738   -8.0556   22.6635 F   0  0  0  0  0  0  0  0  0  0  0  0
  -25.6631   -7.4634   20.9934 F   0  0  0  0  0  0  0  0  0  0  0  0
  1  2  1  0  0  0  0
  1  5  2  0  0  0  0
  2  6  2  0  0  0  0
  3  8  2  0  0  0  0
  3 16  1  0  0  0  0
  4  9  1  0  0  0  0
  4 16  2  0  0  0  0
  5 18  1  0  0  0  0
  6 20  1  0  0  0  0
  7 10  2  0  0  0  0
  7 19  1  0  0  0  0
  8 22  1  0  0  0  0
  9 22  2  0  0  0  0
 10 23  1  0  0  0  0
 11 12  2  0  0  0  0
 11 24  1  0  0  0  0
 12 25  1  0  0  0  0
 13 21  1  0  0  0  0
 13 23  2  0  0  0  0
 14 25  2  0  0  0  0
 14 26  1  0  0  0  0
 15 28  2  0  0  0  0
 15 61  1  0  0  0  0
 16 27  1  0  0  0  0
 17 27  1  0  0  0  0
 17 29  2  0  0  0  0
 17 30  1  0  0  0  0
 18 20  2  0  0  0  0
 18 35  1  0  0  0  0
 19 21  2  0  0  0  0
 19 36  1  0  0  0  0
 20 44  1  0  0  0  0
 21 37  1  0  0  0  0
 22 75  1  0  0  0  0
 23 76  1  0  0  0  0
 24 26  2  0  0  0  0
 24 75  1  0  0  0  0
 25 77  1  0  0  0  0
 26 78  1  0  0  0  0
 27 58  2  0  0  0  0
 28 52  1  0  0  0  0
 28 59  1  0  0  0  0
 29 62  1  0  0  0  0
 29 65  1  0  0  0  0
 30 66  1  0  0  0  0
 30 70  2  0  0  0  0
 31 45  1  0  0  0  0
 31 67  1  0  0  0  0
 31 71  2  0  0  0  0
 32 52  1  0  0  0  0
 32 64  1  0  0  0  0
 32 72  2  0  0  0  0
 33 55  1  0  0  0  0
 33 63  1  0  0  0  0
 33 73  2  0  0  0  0
 34 56  1  0  0  0  0
 34 68  1  0  0  0  0
 34 74  2  0  0  0  0
 35 38  1  0  0  0  0
 36 45  1  0  0  0  0
 37 63  1  0  0  0  0
 38 40  1  0  0  0  0
 39 41  1  0  0  0  0
 39 42  1  0  0  0  0
 40 44  1  0  0  0  0
 41 46  1  0  0  0  0
 42 64  1  0  0  0  0
 43 46  1  0  0  0  0
 43 64  1  0  0  0  0
 44 67  1  0  0  0  0
 45 63  1  0  0  0  0
 46 62  1  0  0  0  0
 47 56  1  0  0  0  0
 48 57  1  0  0  0  0
 49 57  1  0  0  0  0
 50 57  1  0  0  0  0
 51 69  1  0  0  0  0
 53 54  1  0  0  0  0
 53 61  1  0  0  0  0
 54 76  1  0  0  0  0
 55 57  1  0  0  0  0
 55 68  1  0  0  0  0
 56 69  1  0  0  0  0
 58 62  1  0  0  0  0
 59 60  2  0  0  0  0
 60 61  1  0  0  0  0
M  CHG  1  69   1
M  ISO  4  32 100  52 100  54 101  76 101
M  END
> <Batch ID>
0044

> <Smiles>
CNC(C)C(=O)NC(C(=O)N1Cc2cc([101O:1][101CH2:1]Cn3cc([100CH2:0][100C:0](=O)N4CCCC(n5nc(-c6ccc(Oc7ccc(F)cc7F)cc6)c(C(N)=O)c5N)C4)nn3)ccc2CC1C(=O)NC1CCCc2ccccc21)C(C)(C)C

> <Shape>
0.249

> <Color>
0.095

> <Negative vol penalty>
0.000

$$$$

  -OEChem-04052317173D

 77 84  0     1  0  0  0  0  0999 V2000
  -15.7303  -27.8926   21.9822 C   0  0  0  0  0  0  0  0  0  0  0  0
  -16.1645  -27.3604   20.7724 C   0  0  0  0  0  0  0  0  0  0  0  0
  -26.2935  -12.6184   21.4981 C   0  0  0  0  0  0  0  0  0  0  0  0
  -25.9699  -13.2295   19.1832 C   0  0  0  0  0  0  0  0  0  0  0  0
  -16.6557  -28.2050   22.9772 C   0  0  0  0  0  0  0  0  0  0  0  0
  -17.5245  -27.1414   20.5564 C   0  0  0  0  0  0  0  0  0  0  0  0
  -21.9921  -22.6876   17.1622 C   0  0  0  0  0  0  0  0  0  0  0  0
  -25.0866  -11.9193   21.4824 C   0  0  0  0  0  0  0  0  0  0  0  0
  -24.7629  -12.5304   19.1674 C   0  0  0  0  0  0  0  0  0  0  0  0
  -23.0627  -22.7096   16.2693 C   0  0  0  0  0  0  0  0  0  0  0  0
  -23.9543   -8.9287   20.3836 C   0  0  0  0  0  0  0  0  0  0  0  0
  -23.9328   -7.6594   20.9614 C   0  0  0  0  0  0  0  0  0  0  0  0
  -24.5629  -23.2134   18.0900 C   0  0  0  0  0  0  0  0  0  0  0  0
  -22.2460   -8.3996   22.5247 C   0  0  0  0  0  0  0  0  0  0  0  0
  -26.7351  -13.2735   20.3486 C   0  0  0  0  0  0  0  0  0  0  0  0
  -29.2593  -13.4942   20.0531 C   0  0  0  0  0  0  0  0  0  0  0  0
  -18.0269  -27.9807   22.7770 C   0  0  0  0  0  0  0  0  0  0  0  0
  -22.1977  -22.9396   18.5263 C   0  0  0  0  0  0  0  0  0  0  0  0
  -18.4693  -27.4524   21.5491 C   0  0  0  0  0  0  0  0  0  0  0  0
  -23.4937  -23.1915   18.9985 C   0  0  0  0  0  0  0  0  0  0  0  0
  -24.3213  -11.8753   20.3170 C   0  0  0  0  0  0  0  0  0  0  0  0
  -24.3479  -22.9753   16.7327 C   0  0  0  0  0  0  0  0  0  0  0  0
  -23.1217   -9.9336   20.8764 C   0  0  0  0  0  0  0  0  0  0  0  0
  -23.0786   -7.3948   22.0319 C   0  0  0  0  0  0  0  0  0  0  0  0
  -22.2675   -9.6690   21.9469 C   0  0  0  0  0  0  0  0  0  0  0  0
  -27.9815  -13.9963   20.3644 C   0  0  0  0  0  0  0  0  0  0  0  0
  -30.0997  -14.5680   20.2182 C   0  0  0  0  0  0  0  0  0  0  0  0
  -29.6516  -12.1752   19.6505 C   0  0  0  0  0  0  0  0  0  0  0  0
  -21.1915  -25.1515   20.5753 C   0  0  0  0  0  0  0  0  0  0  0  0
  -22.7157  -23.2797   22.7422 C   0  0  0  0  0  0  0  0  0  0  0  0
  -25.1231  -20.9430   23.3673 C   0  0  0  0  0  0  0  0  0  0  0  0
  -29.2466  -20.4893   19.9696 C   0  0  0  0  0  0  0  0  0  0  0  0
  -18.9938  -28.3784   23.8640 C   0  0  0  0  0  0  0  0  0  0  0  0
  -21.0363  -22.8858   19.4806 C   0  0  0  0  0  0  0  0  0  0  0  0
  -23.7705  -23.4483   20.4565 C   0  0  0  0  0  0  0  0  0  0  0  0
  -20.3825  -27.7666   23.6976 C   0  0  0  0  0  0  0  0  0  0  0  0
  -30.5437  -18.6265   22.7126 C   0  0  0  0  0  0  0  0  0  0  0  0
  -20.8627  -27.9163   22.2575 C   0  0  0  0  0  0  0  0  0  0  0  0
  -30.1494  -17.1833   22.3938 C   0  0  0  0  0  0  0  0  0  0  0  0
  -29.4648  -19.6156   22.2773 C   0  0  0  0  0  0  0  0  0  0  0  0
  -28.6576  -18.0571   20.5473 C   0  0  0  0  0  0  0  0  0  0  0  0
  -19.9340  -27.1773   21.2866 C   0  0  1  0  0  0  0  0  0  0  0  0
  -21.2849  -23.6644   20.7687 C   0  0  1  0  0  0  0  0  0  0  0  0
  -29.7389  -17.0274   20.9171 C   0  0  2  0  0  0  0  0  0  0  0  0
  -25.3497  -25.7089   14.8603 C   0  0  0  0  0  0  0  0  0  0  0  0
  -26.1595  -19.6352   25.2416 C   0  0  0  0  0  0  0  0  0  0  0  0
  -24.2436  -25.7672   23.6297 C   0  0  0  0  0  0  0  0  0  0  0  0
  -25.8809  -24.2649   24.7831 C   0  0  0  0  0  0  0  0  0  0  0  0
  -23.4908  -24.2837   25.4971 C   0  0  0  0  0  0  0  0  0  0  0  0
  -24.3197  -18.3609   22.1647 C   0  0  0  0  0  0  0  0  0  0  0  0
  -26.6245  -24.8996   15.0620 C   0  0  0  0  0  0  0  0  0  0  0  0
  -27.6922  -22.0012   17.4494 C   0  0  0  0  0  0  0  0  0  0  0  0
  -27.7755  -23.0435   16.3263 C   0  0  0  0  0  0  0  0  0  0  0  0
  -28.9895  -21.2132   17.6097 C   0  0  0  0  0  0  0  0  0  0  0  0
  -24.1184  -23.2101   23.2958 C   0  0  1  0  0  0  0  0  0  0  0  0
  -25.0894  -19.6495   24.1612 C   0  0  2  0  0  0  0  0  0  0  0  0
  -26.4848  -23.8619   16.1817 C   0  0  2  0  0  0  0  0  0  1  0  0
  -24.4282  -24.3786   24.2736 C   0  0  0  0  0  0  0  0  0  0  0  0
  -28.0033  -15.2884   20.7020 N   0  0  0  0  0  0  0  0  0  0  0  0
  -29.3051  -15.6074   20.6037 N   0  0  0  0  0  0  0  0  0  0  0  0
  -22.6012  -23.3912   21.3492 N   0  0  0  0  0  0  0  0  0  0  0  0
  -29.1221  -19.4160   20.8671 N   0  0  0  0  0  0  0  0  0  0  0  0
  -31.4334  -14.7151   20.0698 N   0  0  0  0  0  0  0  0  0  0  0  0
  -28.6610  -11.1911   19.5300 N   0  0  0  0  0  0  0  0  0  0  0  0
  -20.1962  -25.7544   21.3206 N   0  0  0  0  0  0  0  0  0  0  0  0
  -24.2588  -21.8835   23.8865 N   0  0  0  0  0  0  0  0  0  0  0  0
  -28.9074  -20.2130   18.6507 N   0  0  0  0  0  0  0  0  0  0  0  0
  -25.3147  -18.4833   23.2611 N   0  3  0  0  0  0  0  0  0  0  0  0
  -30.8474  -11.8739   19.4208 O   0  0  0  0  0  0  0  0  0  0  0  0
  -21.9661  -25.7108   19.8079 O   0  0  0  0  0  0  0  0  0  0  0  0
  -21.7568  -23.2295   23.5165 O   0  0  0  0  0  0  0  0  0  0  0  0
  -25.8468  -21.1043   22.3871 O   0  0  0  0  0  0  0  0  0  0  0  0
  -29.6367  -21.6093   20.3168 O   0  0  0  0  0  0  0  0  0  0  0  0
  -23.1437  -11.1930   20.3012 O   0  0  0  0  0  0  0  0  0  0  0  0
  -25.3945  -22.9980   15.8633 O   0  0  0  0  0  0  0  0  0  1  0  0
  -23.0570   -6.1753   22.5857 F   0  0  0  0  0  0  0  0  0  0  0  0
  -21.4645  -10.6299   22.4239 F   0  0  0  0  0  0  0  0  0  0  0  0
  1  2  1  0  0  0  0
  1  5  2  0  0  0  0
  2  6  2  0  0  0  0
  3  8  2  0  0  0  0
  3 15  1  0  0  0  0
  4  9  1  0  0  0  0
  4 15  2  0  0  0  0
  5 17  1  0  0  0  0
  6 19  1  0  0  0  0
  7 10  2  0  0  0  0
  7 18  1  0  0  0  0
  8 21  1  0  0  0  0
  9 21  2  0  0  0  0
 10 22  1  0  0  0  0
 11 12  2  0  0  0  0
 11 23  1  0  0  0  0
 12 24  1  0  0  0  0
 13 20  1  0  0  0  0
 13 22  2  0  0  0  0
 14 24  2  0  0  0  0
 14 25  1  0  0  0  0
 15 26  1  0  0  0  0
 16 26  1  0  0  0  0
 16 27  2  0  0  0  0
 16 28  1  0  0  0  0
 17 19  2  0  0  0  0
 17 33  1  0  0  0  0
 18 20  2  0  0  0  0
 18 34  1  0  0  0  0
 19 42  1  0  0  0  0
 20 35  1  0  0  0  0
 21 74  1  0  0  0  0
 22 75  1  0  0  0  0
 23 25  2  0  0  0  0
 23 74  1  0  0  0  0
 24 76  1  0  0  0  0
 25 77  1  0  0  0  0
 26 59  2  0  0  0  0
 27 60  1  0  0  0  0
 27 63  1  0  0  0  0
 28 64  1  0  0  0  0
 28 69  2  0  0  0  0
 29 43  1  0  0  0  0
 29 65  1  0  0  0  0
 29 70  2  0  0  0  0
 30 55  1  0  0  0  0
 30 61  1  0  0  0  0
 30 71  2  0  0  0  0
 31 56  1  0  0  0  0
 31 66  1  0  0  0  0
 31 72  2  0  0  0  0
 32 62  1  0  0  0  0
 32 67  1  0  0  0  0
 32 73  2  0  0  0  0
 33 36  1  0  0  0  0
 34 43  1  0  0  0  0
 35 61  1  0  0  0  0
 36 38  1  0  0  0  0
 37 39  1  0  0  0  0
 37 40  1  0  0  0  0
 38 42  1  0  0  0  0
 39 44  1  0  0  0  0
 40 62  1  0  0  0  0
 41 44  1  0  0  0  0
 41 62  1  0  0  0  0
 42 65  1  0  0  0  0
 43 61  1  0  0  0  0
 44 60  1  0  0  0  0
 45 51  1  0  0  0  0
 46 56  1  0  0  0  0
 47 58  1  0  0  0  0
 48 58  1  0  0  0  0
 49 58  1  0  0  0  0
 50 68  1  0  0  0  0
 51 57  1  0  0  0  0
 52 53  1  0  0  0  0
 52 54  1  0  0  0  0
 53 57  1  0  0  0  0
 54 67  1  0  0  0  0
 55 58  1  0  0  0  0
 55 66  1  0  0  0  0
 56 68  1  0  0  0  0
 57 75  1  0  0  0  0
 59 60  1  0  0  0  0
M  CHG  1  68   1
M  ISO  4  32 100  57 101  67 100  75 101
M  END
> <Batch ID>
0044

> <Smiles>
CC[101CH:1](CCC[100NH:0][100C:0](=O)N1CCCC(n2nc(-c3ccc(Oc4ccc(F)cc4F)cc3)c(C(N)=O)c2N)C1)[101O:1]c1ccc2c(c1)CN(C(=O)C(NC(=O)C(C)NC)C(C)(C)C)C(C(=O)NC1CCCc3ccccc31)C2

> <Shape>
0.208

> <Color>
0.071

> <Negative vol penalty>
0.000

$$$$

  -OEChem-04052317173D

 83 91  0     1  0  0  0  0  0999 V2000
  -27.0049  -34.7057   22.1966 C   0  0  0  0  0  0  0  0  0  0  0  0
  -27.4536  -33.3936   22.0850 C   0  0  0  0  0  0  0  0  0  0  0  0
  -22.9571  -10.1047   20.1484 C   0  0  0  0  0  0  0  0  0  0  0  0
  -24.2132   -9.3440   22.0669 C   0  0  0  0  0  0  0  0  0  0  0  0
  -25.7136  -34.9630   22.6552 C   0  0  0  0  0  0  0  0  0  0  0  0
  -26.6116  -32.3380   22.4329 C   0  0  0  0  0  0  0  0  0  0  0  0
  -26.3458  -26.8176   19.7946 C   0  0  0  0  0  0  0  0  0  0  0  0
  -22.2120   -8.9257   20.1687 C   0  0  0  0  0  0  0  0  0  0  0  0
  -23.4681   -8.1650   22.0872 C   0  0  0  0  0  0  0  0  0  0  0  0
  -26.8969  -25.5848   20.1413 C   0  0  0  0  0  0  0  0  0  0  0  0
  -21.6542   -5.1119   22.8660 C   0  0  0  0  0  0  0  0  0  0  0  0
  -21.1803   -4.6645   24.0992 C   0  0  0  0  0  0  0  0  0  0  0  0
  -24.8275  -24.9692   21.2175 C   0  0  0  0  0  0  0  0  0  0  0  0
  -28.6999  -21.5963   22.5646 C   0  0  0  0  0  0  0  0  0  0  0  0
  -19.9376   -6.7191   24.3671 C   0  0  0  0  0  0  0  0  0  0  0  0
  -23.9577  -10.3139   21.0974 C   0  0  0  0  0  0  0  0  0  0  0  0
  -24.4347  -12.7345   21.7460 C   0  0  0  0  0  0  0  0  0  0  0  0
  -24.8520  -33.9096   22.9997 C   0  0  0  0  0  0  0  0  0  0  0  0
  -25.0328  -27.1403   20.1668 C   0  0  0  0  0  0  0  0  0  0  0  0
  -25.3080  -32.5814   22.8977 C   0  0  0  0  0  0  0  0  0  0  0  0
  -24.2612  -26.2057   20.8720 C   0  0  0  0  0  0  0  0  0  0  0  0
  -29.0642  -20.3076   22.9384 C   0  0  0  0  0  0  0  0  0  0  0  0
  -29.1309  -19.3039   21.9784 C   0  0  0  0  0  0  0  0  0  0  0  0
  -22.4675   -7.9558   21.1381 C   0  0  0  0  0  0  0  0  0  0  0  0
  -26.1387  -24.6615   20.8554 C   0  0  0  0  0  0  0  0  0  0  0  0
  -21.2698   -6.3629   22.3833 C   0  0  0  0  0  0  0  0  0  0  0  0
  -20.3220   -5.4681   24.8498 C   0  0  0  0  0  0  0  0  0  0  0  0
  -20.4115   -7.1665   23.1338 C   0  0  0  0  0  0  0  0  0  0  0  0
  -24.7281  -11.5313   21.0766 C   0  0  0  0  0  0  0  0  0  0  0  0
  -28.4143  -21.8279   21.2287 C   0  0  0  0  0  0  0  0  0  0  0  0
  -28.8259  -19.6381   20.6688 C   0  0  0  0  0  0  0  0  0  0  0  0
  -25.4652  -13.5766   21.4062 C   0  0  0  0  0  0  0  0  0  0  0  0
  -23.3295  -13.0617   22.5988 C   0  0  0  0  0  0  0  0  0  0  0  0
  -23.7045  -29.3781   21.9920 C   0  0  0  0  0  0  0  0  0  0  0  0
  -20.9416  -28.1053   20.8656 C   0  0  0  0  0  0  0  0  0  0  0  0
  -19.3240  -25.4115   19.5340 C   0  0  0  0  0  0  0  0  0  0  0  0
  -30.9064  -14.5413   20.6269 C   0  0  0  0  0  0  0  0  0  0  0  0
  -23.4811  -34.2387   23.5354 C   0  0  0  0  0  0  0  0  0  0  0  0
  -24.4440  -28.4638   19.7620 C   0  0  0  0  0  0  0  0  0  0  0  0
  -22.8401  -26.4955   21.2779 C   0  0  0  0  0  0  0  0  0  0  0  0
  -22.5227  -33.0506   23.5277 C   0  0  0  0  0  0  0  0  0  0  0  0
  -29.1004  -13.0920   17.9224 C   0  0  0  0  0  0  0  0  0  0  0  0
  -23.2059  -31.8100   24.0943 C   0  0  0  0  0  0  0  0  0  0  0  0
  -27.7810  -12.6507   18.5584 C   0  0  0  0  0  0  0  0  0  0  0  0
  -30.2775  -12.9046   18.8770 C   0  0  0  0  0  0  0  0  0  0  0  0
  -28.7917  -13.0985   20.8336 C   0  0  0  0  0  0  0  0  0  0  0  0
  -24.4158  -31.4086   23.2419 C   0  0  1  0  0  0  0  0  0  0  0  0
  -23.2705  -28.8891   20.6392 C   0  0  1  0  0  0  0  0  0  0  0  0
  -27.5675  -13.3208   19.9291 C   0  0  2  0  0  0  0  0  0  0  0  0
  -29.3748  -20.0280   24.3717 C   0  0  0  0  0  0  0  0  0  0  0  0
  -28.8814  -18.6032   19.5928 C   0  0  0  0  0  0  0  0  0  0  0  0
  -17.0599  -24.6608   18.7545 C   0  0  0  0  0  0  0  0  0  0  0  0
  -20.0488  -27.7938   23.7666 C   0  0  0  0  0  0  0  0  0  0  0  0
  -18.2711  -26.2173   22.9772 C   0  0  0  0  0  0  0  0  0  0  0  0
  -18.2643  -28.5895   22.2057 C   0  0  0  0  0  0  0  0  0  0  0  0
  -20.2990  -24.9452   16.7789 C   0  0  0  0  0  0  0  0  0  0  0  0
  -29.5211  -17.9128   22.3497 C   0  0  0  0  0  0  0  0  0  0  0  0
  -28.0190  -23.2068   20.7887 C   0  0  0  0  0  0  0  0  0  1  0  0
  -30.9851  -17.5538   22.0278 C   0  0  0  0  0  0  0  0  0  0  0  0
  -31.3957  -16.1463   22.4555 C   0  0  0  0  0  0  0  0  0  0  0  0
  -20.0145  -26.9999   21.3101 C   0  0  1  0  0  0  0  0  0  0  0  0
  -18.3854  -25.2855   18.3476 C   0  0  2  0  0  0  0  0  0  0  0  0
  -19.1771  -27.3951   22.5591 C   0  0  0  0  0  0  0  0  0  0  0  0
  -25.8565  -11.5990   20.3652 N   0  0  0  0  0  0  0  0  0  0  0  0
  -28.4682  -20.8786   20.2677 N   0  0  0  0  0  0  0  0  0  0  0  0
  -26.2812  -12.8548   20.5856 N   0  0  0  0  0  0  0  0  0  0  0  0
  -22.3113  -27.8058   20.8642 N   0  0  0  0  0  0  0  0  0  0  0  0
  -30.0122  -13.5651   20.1573 N   0  0  0  0  0  0  0  0  0  0  0  0
  -25.7438  -14.8566   21.7322 N   0  0  0  0  0  0  0  0  0  0  0  0
  -22.3602  -12.0792   22.8429 N   0  0  0  0  0  0  0  0  0  0  0  0
  -23.9836  -30.7307   22.0385 N   0  0  0  0  0  0  0  0  0  0  0  0
  -19.2149  -26.6438   20.1429 N   0  0  0  0  0  0  0  0  0  0  0  0
  -30.5772  -15.1222   21.8455 N   0  0  0  0  0  0  0  0  0  0  0  0
  -19.0000  -24.4357   17.2888 N   0  3  0  0  0  0  0  0  0  0  0  0
  -23.1965  -14.1970   23.1154 O   0  0  0  0  0  0  0  0  0  0  0  0
  -23.7791  -28.5871   22.9250 O   0  0  0  0  0  0  0  0  0  0  0  0
  -20.4675  -29.1920   20.5253 O   0  0  0  0  0  0  0  0  0  0  0  0
  -20.0758  -24.5058   19.8877 O   0  0  0  0  0  0  0  0  0  0  0  0
  -31.9201  -14.8745   20.0037 O   0  0  0  0  0  0  0  0  0  0  0  0
  -21.7405   -6.8053   21.1584 O   0  0  0  0  0  0  0  0  0  0  0  0
  -26.6744  -23.4577   21.1956 O   0  0  0  0  0  0  0  0  0  1  0  0
  -19.8658   -5.0377   26.0333 F   0  0  0  0  0  0  0  0  0  0  0  0
  -20.0378   -8.3687   22.6748 F   0  0  0  0  0  0  0  0  0  0  0  0
  1  2  1  0  0  0  0
  1  5  2  0  0  0  0
  2  6  2  0  0  0  0
  3  8  2  0  0  0  0
  3 16  1  0  0  0  0
  4  9  1  0  0  0  0
  4 16  2  0  0  0  0
  5 18  1  0  0  0  0
  6 20  1  0  0  0  0
  7 10  2  0  0  0  0
  7 19  1  0  0  0  0
  8 24  1  0  0  0  0
  9 24  2  0  0  0  0
 10 25  1  0  0  0  0
 11 12  2  0  0  0  0
 11 26  1  0  0  0  0
 12 27  1  0  0  0  0
 13 21  1  0  0  0  0
 13 25  2  0  0  0  0
 14 22  2  0  0  0  0
 14 30  1  0  0  0  0
 15 27  2  0  0  0  0
 15 28  1  0  0  0  0
 16 29  1  0  0  0  0
 17 29  1  0  0  0  0
 17 32  2  0  0  0  0
 17 33  1  0  0  0  0
 18 20  2  0  0  0  0
 18 38  1  0  0  0  0
 19 21  2  0  0  0  0
 19 39  1  0  0  0  0
 20 47  1  0  0  0  0
 21 40  1  0  0  0  0
 22 23  1  0  0  0  0
 22 50  1  0  0  0  0
 23 31  2  0  0  0  0
 23 57  1  0  0  0  0
 24 80  1  0  0  0  0
 25 81  1  0  0  0  0
 26 28  2  0  0  0  0
 26 80  1  0  0  0  0
 27 82  1  0  0  0  0
 28 83  1  0  0  0  0
 29 64  2  0  0  0  0
 30 58  1  0  0  0  0
 30 65  2  0  0  0  0
 31 51  1  0  0  0  0
 31 65  1  0  0  0  0
 32 66  1  0  0  0  0
 32 69  1  0  0  0  0
 33 70  1  0  0  0  0
 33 75  2  0  0  0  0
 34 48  1  0  0  0  0
 34 71  1  0  0  0  0
 34 76  2  0  0  0  0
 35 61  1  0  0  0  0
 35 67  1  0  0  0  0
 35 77  2  0  0  0  0
 36 62  1  0  0  0  0
 36 72  1  0  0  0  0
 36 78  2  0  0  0  0
 37 68  1  0  0  0  0
 37 73  1  0  0  0  0
 37 79  2  0  0  0  0
 38 41  1  0  0  0  0
 39 48  1  0  0  0  0
 40 67  1  0  0  0  0
 41 43  1  0  0  0  0
 42 44  1  0  0  0  0
 42 45  1  0  0  0  0
 43 47  1  0  0  0  0
 44 49  1  0  0  0  0
 45 68  1  0  0  0  0
 46 49  1  0  0  0  0
 46 68  1  0  0  0  0
 47 71  1  0  0  0  0
 48 67  1  0  0  0  0
 49 66  1  0  0  0  0
 52 62  1  0  0  0  0
 53 63  1  0  0  0  0
 54 63  1  0  0  0  0
 55 63  1  0  0  0  0
 56 74  1  0  0  0  0
 57 59  1  0  0  0  0
 58 81  1  0  0  0  0
 59 60  1  0  0  0  0
 60 73  1  0  0  0  0
 61 63  1  0  0  0  0
 61 72  1  0  0  0  0
 62 74  1  0  0  0  0
 64 66  1  0  0  0  0
M  CHG  1  74   1
M  ISO  4  37 100  58 101  73 100  81 101
M  END
> <Batch ID>
0044

> <Smiles>
CNC(C)C(=O)NC(C(=O)N1Cc2cc([101O:1][101CH2:1]c3cc(C)c(CCC[100NH:0][100C:0](=O)N4CCCC(n5nc(-c6ccc(Oc7ccc(F)cc7F)cc6)c(C(N)=O)c5N)C4)c(C)n3)ccc2CC1C(=O)NC1CCCc2ccccc21)C(C)(C)C

> <Shape>
0.358

> <Color>
0.154

> <Negative vol penalty>
0.000

$$$$

  -OEChem-04052317173D

 83 91  0     1  0  0  0  0  0999 V2000
  -27.8351  -20.2472   25.6592 C   0  0  0  0  0  0  0  0  0  0  0  0
  -27.7612  -21.6243   25.4826 C   0  0  0  0  0  0  0  0  0  0  0  0
  -23.8597  -13.6327   19.5212 C   0  0  0  0  0  0  0  0  0  0  0  0
  -23.2257  -14.7630   21.5602 C   0  0  0  0  0  0  0  0  0  0  0  0
  -26.8103  -19.4314   25.1845 C   0  0  0  0  0  0  0  0  0  0  0  0
  -26.6568  -22.1870   24.8418 C   0  0  0  0  0  0  0  0  0  0  0  0
  -26.3612  -27.0976   24.7971 C   0  0  0  0  0  0  0  0  0  0  0  0
  -23.1555  -12.5003   19.9300 C   0  0  0  0  0  0  0  0  0  0  0  0
  -22.5214  -13.6305   21.9690 C   0  0  0  0  0  0  0  0  0  0  0  0
  -27.1955  -27.8958   24.0159 C   0  0  0  0  0  0  0  0  0  0  0  0
  -23.6240   -9.9046   22.0436 C   0  0  0  0  0  0  0  0  0  0  0  0
  -24.2452   -8.6653   21.8894 C   0  0  0  0  0  0  0  0  0  0  0  0
  -25.3917  -28.2398   22.4515 C   0  0  0  0  0  0  0  0  0  0  0  0
  -22.4467   -7.9432   20.4469 C   0  0  0  0  0  0  0  0  0  0  0  0
  -30.6540  -26.5788   19.4140 C   0  0  0  0  0  0  0  0  0  0  0  0
  -23.8949  -14.7641   20.3363 C   0  0  0  0  0  0  0  0  0  0  0  0
  -24.1295  -17.0165   19.1618 C   0  0  0  0  0  0  0  0  0  0  0  0
  -25.6992  -19.9842   24.5266 C   0  0  0  0  0  0  0  0  0  0  0  0
  -25.0368  -26.8552   24.4051 C   0  0  0  0  0  0  0  0  0  0  0  0
  -25.6008  -21.3825   24.3768 C   0  0  0  0  0  0  0  0  0  0  0  0
  -24.5418  -27.4402   23.2309 C   0  0  0  0  0  0  0  0  0  0  0  0
  -22.4863  -12.4991   21.1538 C   0  0  0  0  0  0  0  0  0  0  0  0
  -26.7117  -28.4647   22.8414 C   0  0  0  0  0  0  0  0  0  0  0  0
  -22.4140  -10.1632   21.3995 C   0  0  0  0  0  0  0  0  0  0  0  0
  -23.6567   -7.6846   21.0910 C   0  0  0  0  0  0  0  0  0  0  0  0
  -21.8254   -9.1825   20.6011 C   0  0  0  0  0  0  0  0  0  0  0  0
  -24.6226  -15.9341   19.9149 C   0  0  0  0  0  0  0  0  0  0  0  0
  -29.4408  -24.8392   19.5935 C   0  0  0  0  0  0  0  0  0  0  0  0
  -28.5733  -25.9026   19.6781 C   0  0  0  0  0  0  0  0  0  0  0  0
  -25.2048  -17.8607   19.0292 C   0  0  0  0  0  0  0  0  0  0  0  0
  -22.8168  -17.2390   18.6298 C   0  0  0  0  0  0  0  0  0  0  0  0
  -23.3650  -24.2648   23.6313 C   0  0  0  0  0  0  0  0  0  0  0  0
  -20.8885  -26.3589   23.5665 C   0  0  0  0  0  0  0  0  0  0  0  0
  -19.8299  -29.5840   23.2123 C   0  0  0  0  0  0  0  0  0  0  0  0
  -29.6190  -20.4971   21.1992 C   0  0  0  0  0  0  0  0  0  0  0  0
  -24.6149  -19.0555   24.0398 C   0  0  0  0  0  0  0  0  0  0  0  0
  -24.1416  -26.0136   25.2728 C   0  0  0  0  0  0  0  0  0  0  0  0
  -23.1217  -27.2274   22.7765 C   0  0  0  0  0  0  0  0  0  0  0  0
  -23.7111  -19.6950   22.9907 C   0  0  0  0  0  0  0  0  0  0  0  0
  -30.0995  -17.1488   20.0881 C   0  0  0  0  0  0  0  0  0  0  0  0
  -23.2383  -21.0581   23.4734 C   0  0  0  0  0  0  0  0  0  0  0  0
  -28.6774  -16.6221   19.8880 C   0  0  0  0  0  0  0  0  0  0  0  0
  -30.1898  -18.0882   21.2886 C   0  0  0  0  0  0  0  0  0  0  0  0
  -27.8074  -18.6809   21.0727 C   0  0  0  0  0  0  0  0  0  0  0  0
  -24.4239  -22.0143   23.6557 C   0  0  1  0  0  0  0  0  0  0  0  0
  -22.9631  -25.4143   24.5115 C   0  0  1  0  0  0  0  0  0  0  0  0
  -27.6547  -17.7733   19.8401 C   0  0  2  0  0  0  0  0  0  0  0  0
  -27.1113  -25.9672   19.8520 C   0  0  0  0  0  0  0  0  0  0  0  0
  -17.7446  -30.9793   23.1695 C   0  0  0  0  0  0  0  0  0  0  0  0
  -29.2117  -29.1377   18.2435 C   0  0  0  0  0  0  0  0  0  0  0  0
  -20.2810  -25.3602   20.7481 C   0  0  0  0  0  0  0  0  0  0  0  0
  -18.8527  -27.3889   20.4122 C   0  0  0  0  0  0  0  0  0  0  0  0
  -18.2649  -25.7308   22.1807 C   0  0  0  0  0  0  0  0  0  0  0  0
  -20.7009  -31.1654   25.5573 C   0  0  0  0  0  0  0  0  0  0  0  0
  -29.1353  -23.4012   19.6571 C   0  0  0  0  0  0  0  0  0  0  0  0
  -29.5376  -29.2674   20.7425 C   0  0  0  0  0  0  0  0  0  0  0  0
  -28.8920  -22.8671   21.0825 C   0  0  0  0  0  0  0  0  0  0  0  0
  -28.9199  -28.9471   22.1015 C   0  0  0  0  0  0  0  0  0  1  0  0
  -20.2633  -27.2430   22.5146 C   0  0  1  0  0  0  0  0  0  0  0  0
  -18.8672  -30.4239   24.0321 C   0  0  2  0  0  0  0  0  0  0  0  0
  -28.9147  -28.4606   19.5869 C   0  0  2  0  0  0  0  0  0  0  0  0
  -19.4429  -26.4333   21.4712 C   0  0  0  0  0  0  0  0  0  0  0  0
  -30.7346  -25.2669   19.4294 N   0  0  0  0  0  0  0  0  0  0  0  0
  -25.9109  -16.0751   20.2379 N   0  0  0  0  0  0  0  0  0  0  0  0
  -29.3651  -27.0102   19.5619 N   0  0  0  0  0  0  0  0  0  0  0  0
  -26.2365  -17.2560   19.6850 N   0  0  0  0  0  0  0  0  0  0  0  0
  -22.2874  -26.3916   23.6557 N   0  0  0  0  0  0  0  0  0  0  0  0
  -29.1950  -19.1581   21.1811 N   0  0  0  0  0  0  0  0  0  0  0  0
  -25.3590  -19.0537   18.4166 N   0  0  0  0  0  0  0  0  0  0  0  0
  -21.8300  -16.2704   18.8590 N   0  0  0  0  0  0  0  0  0  0  0  0
  -23.9624  -23.2193   24.3090 N   0  0  0  0  0  0  0  0  0  0  0  0
  -19.4885  -28.2482   23.2342 N   0  0  0  0  0  0  0  0  0  0  0  0
  -28.6126  -21.4484   21.0860 N   0  0  0  0  0  0  0  0  0  0  0  0
  -19.5852  -31.5675   24.6627 N   0  3  0  0  0  0  0  0  0  0  0  0
  -22.5319  -18.2584   17.9567 O   0  0  0  0  0  0  0  0  0  0  0  0
  -23.1476  -24.3216   22.4266 O   0  0  0  0  0  0  0  0  0  0  0  0
  -20.1621  -25.6703   24.2874 O   0  0  0  0  0  0  0  0  0  0  0  0
  -20.7868  -30.0652   22.6095 O   0  0  0  0  0  0  0  0  0  0  0  0
  -30.8071  -20.8207   21.3030 O   0  0  0  0  0  0  0  0  0  0  0  0
  -21.7988  -11.3943   21.5530 O   0  0  0  0  0  0  0  0  0  0  0  0
  -27.5242  -29.2437   22.0766 O   0  0  0  0  0  0  0  0  0  1  0  0
  -24.2542   -6.4951   20.9418 F   0  0  0  0  0  0  0  0  0  0  0  0
  -20.6637   -9.4255   19.9788 F   0  0  0  0  0  0  0  0  0  0  0  0
  1  2  1  0  0  0  0
  1  5  2  0  0  0  0
  2  6  2  0  0  0  0
  3  8  2  0  0  0  0
  3 16  1  0  0  0  0
  4  9  1  0  0  0  0
  4 16  2  0  0  0  0
  5 18  1  0  0  0  0
  6 20  1  0  0  0  0
  7 10  2  0  0  0  0
  7 19  1  0  0  0  0
  8 22  1  0  0  0  0
  9 22  2  0  0  0  0
 10 23  1  0  0  0  0
 11 12  2  0  0  0  0
 11 24  1  0  0  0  0
 12 25  1  0  0  0  0
 13 21  1  0  0  0  0
 13 23  2  0  0  0  0
 14 25  2  0  0  0  0
 14 26  1  0  0  0  0
 15 63  2  0  0  0  0
 15 65  1  0  0  0  0
 16 27  1  0  0  0  0
 17 27  1  0  0  0  0
 17 30  2  0  0  0  0
 17 31  1  0  0  0  0
 18 20  2  0  0  0  0
 18 36  1  0  0  0  0
 19 21  2  0  0  0  0
 19 37  1  0  0  0  0
 20 45  1  0  0  0  0
 21 38  1  0  0  0  0
 22 80  1  0  0  0  0
 23 81  1  0  0  0  0
 24 26  2  0  0  0  0
 24 80  1  0  0  0  0
 25 82  1  0  0  0  0
 26 83  1  0  0  0  0
 27 64  2  0  0  0  0
 28 29  2  0  0  0  0
 28 55  1  0  0  0  0
 28 63  1  0  0  0  0
 29 48  1  0  0  0  0
 29 65  1  0  0  0  0
 30 66  1  0  0  0  0
 30 69  1  0  0  0  0
 31 70  1  0  0  0  0
 31 75  2  0  0  0  0
 32 46  1  0  0  0  0
 32 71  1  0  0  0  0
 32 76  2  0  0  0  0
 33 59  1  0  0  0  0
 33 67  1  0  0  0  0
 33 77  2  0  0  0  0
 34 60  1  0  0  0  0
 34 72  1  0  0  0  0
 34 78  2  0  0  0  0
 35 68  1  0  0  0  0
 35 73  1  0  0  0  0
 35 79  2  0  0  0  0
 36 39  1  0  0  0  0
 37 46  1  0  0  0  0
 38 67  1  0  0  0  0
 39 41  1  0  0  0  0
 40 42  1  0  0  0  0
 40 43  1  0  0  0  0
 41 45  1  0  0  0  0
 42 47  1  0  0  0  0
 43 68  1  0  0  0  0
 44 47  1  0  0  0  0
 44 68  1  0  0  0  0
 45 71  1  0  0  0  0
 46 67  1  0  0  0  0
 47 66  1  0  0  0  0
 49 60  1  0  0  0  0
 50 61  1  0  0  0  0
 51 62  1  0  0  0  0
 52 62  1  0  0  0  0
 53 62  1  0  0  0  0
 54 74  1  0  0  0  0
 55 57  1  0  0  0  0
 56 58  1  0  0  0  0
 56 61  1  0  0  0  0
 57 73  1  0  0  0  0
 58 81  1  0  0  0  0
 59 62  1  0  0  0  0
 59 72  1  0  0  0  0
 60 74  1  0  0  0  0
 61 65  1  0  0  0  0
 64 66  1  0  0  0  0
M  CHG  1  74   1
M  ISO  4  35 100  58 101  73 100  81 101
M  END
> <Batch ID>
0044

> <Smiles>
CNC(C)C(=O)NC(C(=O)N1Cc2cc([101O:1][101CH2:1]CC(C)n3cnc(CC[100NH:0][100C:0](=O)N4CCCC(n5nc(-c6ccc(Oc7ccc(F)cc7F)cc6)c(C(N)=O)c5N)C4)c3C)ccc2CC1C(=O)NC1CCCc2ccccc21)C(C)(C)C

> <Shape>
0.235

> <Color>
0.042

> <Negative vol penalty>
0.000

$$$$

  -OEChem-04052317173D

 83 91  0     1  0  0  0  0  0999 V2000
  -25.3143  -22.6340   17.7477 C   0  0  0  0  0  0  0  0  0  0  0  0
  -25.7613  -21.3186   17.6752 C   0  0  0  0  0  0  0  0  0  0  0  0
  -27.1253  -29.1421   20.6357 C   0  0  0  0  0  0  0  0  0  0  0  0
  -25.4939  -27.3647   20.5081 C   0  0  0  0  0  0  0  0  0  0  0  0
  -24.8736  -23.1532   18.9643 C   0  0  0  0  0  0  0  0  0  0  0  0
  -25.7689  -20.5219   18.8196 C   0  0  0  0  0  0  0  0  0  0  0  0
  -24.6939  -14.5003   19.1203 C   0  0  0  0  0  0  0  0  0  0  0  0
  -26.1054  -30.0865   20.5204 C   0  0  0  0  0  0  0  0  0  0  0  0
  -24.4739  -28.3091   20.3929 C   0  0  0  0  0  0  0  0  0  0  0  0
  -25.5447  -13.3976   19.1841 C   0  0  0  0  0  0  0  0  0  0  0  0
  -21.4051  -30.2583   20.4274 C   0  0  0  0  0  0  0  0  0  0  0  0
  -20.2561  -30.0701   21.1955 C   0  0  0  0  0  0  0  0  0  0  0  0
  -25.3228  -13.3730   21.5860 C   0  0  0  0  0  0  0  0  0  0  0  0
  -21.5858  -30.1733   23.2100 C   0  0  0  0  0  0  0  0  0  0  0  0
  -26.8196  -27.7811   20.6295 C   0  0  0  0  0  0  0  0  0  0  0  0
  -28.3862  -26.2482   21.9347 C   0  0  0  0  0  0  0  0  0  0  0  0
  -24.8667  -22.3595   20.1222 C   0  0  0  0  0  0  0  0  0  0  0  0
  -24.1589  -15.0553   20.2917 C   0  0  0  0  0  0  0  0  0  0  0  0
  -25.3289  -21.0314   20.0531 C   0  0  0  0  0  0  0  0  0  0  0  0
  -24.4634  -14.4811   21.5342 C   0  0  0  0  0  0  0  0  0  0  0  0
  -24.7797  -29.6701   20.3990 C   0  0  0  0  0  0  0  0  0  0  0  0
  -25.8616  -12.8356   20.4173 C   0  0  0  0  0  0  0  0  0  0  0  0
  -22.6445  -30.4039   21.0506 C   0  0  0  0  0  0  0  0  0  0  0  0
  -20.3464  -30.0277   22.5868 C   0  0  0  0  0  0  0  0  0  0  0  0
  -22.7349  -30.3615   22.4419 C   0  0  0  0  0  0  0  0  0  0  0  0
  -27.8728  -26.8049   20.7480 C   0  0  0  0  0  0  0  0  0  0  0  0
  -29.3634  -25.3804   21.5121 C   0  0  0  0  0  0  0  0  0  0  0  0
  -30.5066  -15.2841   20.6915 C   0  0  0  0  0  0  0  0  0  0  0  0
  -30.0794  -12.9767   20.9370 C   0  0  0  0  0  0  0  0  0  0  0  0
  -28.0132  -26.4934   23.2972 C   0  0  0  0  0  0  0  0  0  0  0  0
  -24.3581  -17.8840   21.7278 C   0  0  0  0  0  0  0  0  0  0  0  0
  -22.1372  -16.5972   23.7112 C   0  0  0  0  0  0  0  0  0  0  0  0
  -20.7159  -13.7927   25.0385 C   0  0  0  0  0  0  0  0  0  0  0  0
  -30.5056  -21.6941   17.1970 C   0  0  0  0  0  0  0  0  0  0  0  0
  -24.4255  -22.9792   21.4245 C   0  0  0  0  0  0  0  0  0  0  0  0
  -23.2215  -16.2282   20.2038 C   0  0  0  0  0  0  0  0  0  0  0  0
  -23.8991  -15.0268   22.8196 C   0  0  0  0  0  0  0  0  0  0  0  0
  -24.1134  -21.9543   22.5119 C   0  0  0  0  0  0  0  0  0  0  0  0
  -32.0483  -24.8972   17.3890 C   0  0  0  0  0  0  0  0  0  0  0  0
  -25.2155  -20.9023   22.5861 C   0  0  0  0  0  0  0  0  0  0  0  0
  -31.1766  -25.6639   18.3850 C   0  0  0  0  0  0  0  0  0  0  0  0
  -31.2158  -23.9658   16.5106 C   0  0  0  0  0  0  0  0  0  0  0  0
  -29.4730  -23.7992   18.2452 C   0  0  0  0  0  0  0  0  0  0  0  0
  -25.3290  -20.1281   21.2673 C   0  0  1  0  0  0  0  0  0  0  0  0
  -23.1436  -17.0293   21.4999 C   0  0  1  0  0  0  0  0  0  0  0  0
  -30.2745  -24.7100   19.1909 C   0  0  2  0  0  0  0  0  0  0  0  0
  -18.9477  -13.0598   26.6613 C   0  0  0  0  0  0  0  0  0  0  0  0
  -23.9705  -17.3320   26.0369 C   0  0  0  0  0  0  0  0  0  0  0  0
  -22.6495  -15.7704   27.4806 C   0  0  0  0  0  0  0  0  0  0  0  0
  -21.5404  -17.7534   26.4508 C   0  0  0  0  0  0  0  0  0  0  0  0
  -19.2082  -12.3650   22.9296 C   0  0  0  0  0  0  0  0  0  0  0  0
  -30.4694  -16.7605   20.7023 C   0  0  0  0  0  0  0  0  0  0  0  0
  -29.5104  -11.6164   21.2525 C   0  0  0  0  0  0  0  0  0  0  0  0
  -30.0733  -17.3569   19.3363 C   0  0  0  0  0  0  0  0  0  0  0  0
  -28.8930  -10.9114   20.0428 C   0  0  0  0  0  0  0  0  0  0  0  0
  -30.0782  -18.8884   19.3496 C   0  0  0  0  0  0  0  0  0  0  0  0
  -29.7004  -19.4878   17.9989 C   0  0  0  0  0  0  0  0  0  0  0  0
  -27.6878  -11.6453   19.4665 C   0  0  0  0  0  0  0  0  0  1  0  0
  -22.1820  -15.7934   24.9883 C   0  0  1  0  0  0  0  0  0  0  0  0
  -19.2641  -13.3837   25.2095 C   0  0  2  0  0  0  0  0  0  0  0  0
  -22.5979  -16.6530   26.2153 C   0  0  0  0  0  0  0  0  0  0  0  0
  -28.4741  -26.3308   19.6537 N   0  0  0  0  0  0  0  0  0  0  0  0
  -31.4711  -14.5520   20.1760 N   0  0  0  0  0  0  0  0  0  0  0  0
  -31.2200  -13.1985   20.3191 N   0  0  0  0  0  0  0  0  0  0  0  0
  -29.3756  -25.4671   20.1510 N   0  0  0  0  0  0  0  0  0  0  0  0
  -22.9923  -16.1784   22.6820 N   0  0  0  0  0  0  0  0  0  0  0  0
  -30.3843  -23.0865   17.3360 N   0  0  0  0  0  0  0  0  0  0  0  0
  -30.2049  -24.5595   22.1757 N   0  0  0  0  0  0  0  0  0  0  0  0
  -26.9895  -27.4156   23.5540 N   0  0  0  0  0  0  0  0  0  0  0  0
  -24.2729  -19.1438   21.1665 N   0  0  0  0  0  0  0  0  0  0  0  0
  -20.8741  -15.1602   25.1181 N   0  0  0  0  0  0  0  0  0  0  0  0
  -29.6855  -20.9335   18.0215 N   0  0  0  0  0  0  0  0  0  0  0  0
  -18.9642  -12.1802   24.3834 N   0  3  0  0  0  0  0  0  0  0  0  0
  -28.5823  -25.9242   24.2593 O   0  0  0  0  0  0  0  0  0  0  0  0
  -25.3021  -17.4343   22.3668 O   0  0  0  0  0  0  0  0  0  0  0  0
  -21.3666  -17.5568   23.6273 O   0  0  0  0  0  0  0  0  0  0  0  0
  -21.6199  -12.9802   24.8566 O   0  0  0  0  0  0  0  0  0  0  0  0
  -31.2907  -21.1676   16.4011 O   0  0  0  0  0  0  0  0  0  0  0  0
  -23.7842  -30.5915   20.2867 O   0  0  0  0  0  0  0  0  0  0  0  0
  -26.6922  -11.7597   20.4824 O   0  0  0  0  0  0  0  0  0  1  0  0
  -19.2428  -29.8485   23.3243 F   0  0  0  0  0  0  0  0  0  0  0  0
  -23.9226  -30.5020   23.0463 F   0  0  0  0  0  0  0  0  0  0  0  0
  -29.2214  -14.3902   21.3922 S   0  0  0  0  0  0  0  0  0  0  0  0
  1  2  1  0  0  0  0
  1  5  2  0  0  0  0
  2  6  2  0  0  0  0
  3  8  2  0  0  0  0
  3 15  1  0  0  0  0
  4  9  1  0  0  0  0
  4 15  2  0  0  0  0
  5 17  1  0  0  0  0
  6 19  1  0  0  0  0
  7 10  2  0  0  0  0
  7 18  1  0  0  0  0
  8 21  1  0  0  0  0
  9 21  2  0  0  0  0
 10 22  1  0  0  0  0
 11 12  2  0  0  0  0
 11 23  1  0  0  0  0
 12 24  1  0  0  0  0
 13 20  1  0  0  0  0
 13 22  2  0  0  0  0
 14 24  2  0  0  0  0
 14 25  1  0  0  0  0
 15 26  1  0  0  0  0
 16 26  1  0  0  0  0
 16 27  2  0  0  0  0
 16 30  1  0  0  0  0
 17 19  2  0  0  0  0
 17 35  1  0  0  0  0
 18 20  2  0  0  0  0
 18 36  1  0  0  0  0
 19 44  1  0  0  0  0
 20 37  1  0  0  0  0
 21 79  1  0  0  0  0
 22 80  1  0  0  0  0
 23 25  2  0  0  0  0
 23 79  1  0  0  0  0
 24 81  1  0  0  0  0
 25 82  1  0  0  0  0
 26 62  2  0  0  0  0
 27 65  1  0  0  0  0
 27 68  1  0  0  0  0
 28 52  1  0  0  0  0
 28 63  2  0  0  0  0
 28 83  1  0  0  0  0
 29 53  1  0  0  0  0
 29 64  2  0  0  0  0
 29 83  1  0  0  0  0
 30 69  1  0  0  0  0
 30 74  2  0  0  0  0
 31 45  1  0  0  0  0
 31 70  1  0  0  0  0
 31 75  2  0  0  0  0
 32 59  1  0  0  0  0
 32 66  1  0  0  0  0
 32 76  2  0  0  0  0
 33 60  1  0  0  0  0
 33 71  1  0  0  0  0
 33 77  2  0  0  0  0
 34 67  1  0  0  0  0
 34 72  1  0  0  0  0
 34 78  2  0  0  0  0
 35 38  1  0  0  0  0
 36 45  1  0  0  0  0
 37 66  1  0  0  0  0
 38 40  1  0  0  0  0
 39 41  1  0  0  0  0
 39 42  1  0  0  0  0
 40 44  1  0  0  0  0
 41 46  1  0  0  0  0
 42 67  1  0  0  0  0
 43 46  1  0  0  0  0
 43 67  1  0  0  0  0
 44 70  1  0  0  0  0
 45 66  1  0  0  0  0
 46 65  1  0  0  0  0
 47 60  1  0  0  0  0
 48 61  1  0  0  0  0
 49 61  1  0  0  0  0
 50 61  1  0  0  0  0
 51 73  1  0  0  0  0
 52 54  1  0  0  0  0
 53 55  1  0  0  0  0
 54 56  1  0  0  0  0
 55 58  1  0  0  0  0
 56 57  1  0  0  0  0
 57 72  1  0  0  0  0
 58 80  1  0  0  0  0
 59 61  1  0  0  0  0
 59 71  1  0  0  0  0
 60 73  1  0  0  0  0
 62 65  1  0  0  0  0
 63 64  1  0  0  0  0
M  CHG  1  73   1
M  ISO  4  34 100  58 101  72 100  80 101
M  END
> <Batch ID>
0044

> <Smiles>
CNC(C)C(=O)NC(C(=O)N1Cc2cc([101O:1][101CH2:1]CCc3nnc(CCCC[100NH:0][100C:0](=O)N4CCCC(n5nc(-c6ccc(Oc7ccc(F)cc7F)cc6)c(C(N)=O)c5N)C4)s3)ccc2CC1C(=O)NC1CCCc2ccccc21)C(C)(C)C

> <Shape>
0.213

> <Color>
0.058

> <Negative vol penalty>
0.000

$$$$

  -OEChem-04052317173D

 84 92  0     1  0  0  0  0  0999 V2000
  -16.3496  -26.5694   26.1924 C   0  0  0  0  0  0  0  0  0  0  0  0
  -17.3273  -25.6770   25.7643 C   0  0  0  0  0  0  0  0  0  0  0  0
  -23.1323   -9.9801   21.6186 C   0  0  0  0  0  0  0  0  0  0  0  0
  -23.7779  -11.0786   23.6713 C   0  0  0  0  0  0  0  0  0  0  0  0
  -16.2880  -27.8498   25.6442 C   0  0  0  0  0  0  0  0  0  0  0  0
  -18.2433  -26.0642   24.7869 C   0  0  0  0  0  0  0  0  0  0  0  0
  -24.1184  -24.3849   24.3755 C   0  0  0  0  0  0  0  0  0  0  0  0
  -22.3986   -9.0456   22.3493 C   0  0  0  0  0  0  0  0  0  0  0  0
  -23.0443  -10.1441   24.4021 C   0  0  0  0  0  0  0  0  0  0  0  0
  -24.7645  -23.4111   23.6152 C   0  0  0  0  0  0  0  0  0  0  0  0
  -19.3978   -8.8964   23.9004 C   0  0  0  0  0  0  0  0  0  0  0  0
  -18.1175   -8.5792   23.4468 C   0  0  0  0  0  0  0  0  0  0  0  0
  -25.3136  -25.0771   21.9592 C   0  0  0  0  0  0  0  0  0  0  0  0
  -18.7779   -6.2685   23.1989 C   0  0  0  0  0  0  0  0  0  0  0  0
  -23.8220  -10.9966   22.2795 C   0  0  0  0  0  0  0  0  0  0  0  0
  -24.1221  -13.1901   21.0123 C   0  0  0  0  0  0  0  0  0  0  0  0
  -17.2098  -28.2562   24.6665 C   0  0  0  0  0  0  0  0  0  0  0  0
  -24.0554  -25.7121   23.9273 C   0  0  0  0  0  0  0  0  0  0  0  0
  -18.1931  -27.3509   24.2241 C   0  0  0  0  0  0  0  0  0  0  0  0
  -24.6682  -26.0663   22.7168 C   0  0  0  0  0  0  0  0  0  0  0  0
  -22.3546   -9.1276   23.7411 C   0  0  0  0  0  0  0  0  0  0  0  0
  -25.3598  -23.7566   22.4054 C   0  0  0  0  0  0  0  0  0  0  0  0
  -20.3682   -7.8997   24.0032 C   0  0  0  0  0  0  0  0  0  0  0  0
  -17.8075   -7.2653   23.0960 C   0  0  0  0  0  0  0  0  0  0  0  0
  -20.0582   -6.5857   23.6525 C   0  0  0  0  0  0  0  0  0  0  0  0
  -24.5805  -11.9619   21.5252 C   0  0  0  0  0  0  0  0  0  0  0  0
  -28.2039  -20.4051   19.4691 C   0  0  0  0  0  0  0  0  0  0  0  0
  -28.1265  -19.0323   19.5523 C   0  0  0  0  0  0  0  0  0  0  0  0
  -26.6876  -19.2206   21.3198 C   0  0  0  0  0  0  0  0  0  0  0  0
  -26.7657  -20.5934   21.2370 C   0  0  0  0  0  0  0  0  0  0  0  0
  -25.2167  -13.7285   20.3809 C   0  0  0  0  0  0  0  0  0  0  0  0
  -22.8232  -13.7908   21.0989 C   0  0  0  0  0  0  0  0  0  0  0  0
  -21.7075  -27.7046   23.1391 C   0  0  0  0  0  0  0  0  0  0  0  0
  -24.1307  -29.8483   22.9055 C   0  0  0  0  0  0  0  0  0  0  0  0
  -27.4612  -30.4149   22.4223 C   0  0  0  0  0  0  0  0  0  0  0  0
  -30.6645  -14.9340   20.2662 C   0  0  0  0  0  0  0  0  0  0  0  0
  -17.0741  -29.6344   24.0692 C   0  0  0  0  0  0  0  0  0  0  0  0
  -23.3777  -26.7560   24.7720 C   0  0  0  0  0  0  0  0  0  0  0  0
  -24.6463  -27.4812   22.2011 C   0  0  0  0  0  0  0  0  0  0  0  0
  -18.3152  -30.0932   23.3080 C   0  0  0  0  0  0  0  0  0  0  0  0
  -29.6906  -11.6725   19.2220 C   0  0  0  0  0  0  0  0  0  0  0  0
  -18.8145  -28.9866   22.3845 C   0  0  0  0  0  0  0  0  0  0  0  0
  -28.2393  -11.5563   19.6912 C   0  0  0  0  0  0  0  0  0  0  0  0
  -30.5432  -12.4604   20.2141 C   0  0  0  0  0  0  0  0  0  0  0  0
  -28.5621  -13.6750   21.0350 C   0  0  0  0  0  0  0  0  0  0  0  0
  -19.2200  -27.7422   23.1837 C   0  0  1  0  0  0  0  0  0  0  0  0
  -22.9295  -27.9743   23.9707 C   0  0  1  0  0  0  0  0  0  0  0  0
  -27.6506  -12.9365   20.0399 C   0  0  2  0  0  0  0  0  0  0  0  0
  -29.0479  -21.0754   18.4397 C   0  0  0  0  0  0  0  0  0  0  0  0
  -24.5367  -18.0134   21.7700 C   0  0  0  0  0  0  0  0  0  0  0  0
  -29.1381  -32.2735   22.2464 C   0  0  0  0  0  0  0  0  0  0  0  0
  -23.1416  -30.4706   20.0869 C   0  0  0  0  0  0  0  0  0  0  0  0
  -25.3420  -31.5758   19.6339 C   0  0  0  0  0  0  0  0  0  0  0  0
  -23.8407  -32.4725   21.4129 C   0  0  0  0  0  0  0  0  0  0  0  0
  -28.9744  -29.4276   24.7663 C   0  0  0  0  0  0  0  0  0  0  0  0
  -25.8433  -18.5507   22.3493 C   0  0  0  0  0  0  0  0  0  0  0  0
  -28.8837  -18.1532   18.6167 C   0  0  0  0  0  0  0  0  0  0  0  0
  -26.0045  -21.4786   22.1796 C   0  0  0  0  0  0  0  0  0  1  0  0
  -30.3749  -17.9797   18.9686 C   0  0  0  0  0  0  0  0  0  0  0  0
  -30.6292  -17.4136   20.3640 C   0  0  0  0  0  0  0  0  0  0  0  0
  -25.0618  -30.2935   21.8038 C   0  0  1  0  0  0  0  0  0  0  0  0
  -28.4552  -31.2812   23.1746 C   0  0  2  0  0  0  0  0  0  0  0  0
  -24.3454  -31.1760   20.7429 C   0  0  0  0  0  0  0  0  0  0  0  0
  -25.8660  -11.7331   21.2438 N   0  0  0  0  0  0  0  0  0  0  0  0
  -27.5249  -21.2104   20.3100 N   0  0  0  0  0  0  0  0  0  0  0  0
  -27.3669  -18.4154   20.4792 N   0  0  0  0  0  0  0  0  0  0  0  0
  -26.2247  -12.8249   20.5472 N   0  0  0  0  0  0  0  0  0  0  0  0
  -23.9661  -28.4645   23.0600 N   0  0  0  0  0  0  0  0  0  0  0  0
  -29.9305  -13.7597   20.5011 N   0  0  0  0  0  0  0  0  0  0  0  0
  -25.4056  -14.8818   19.7052 N   0  0  0  0  0  0  0  0  0  0  0  0
  -21.8130  -13.1022   21.7843 N   0  0  0  0  0  0  0  0  0  0  0  0
  -20.5156  -27.9366   23.7987 N   0  0  0  0  0  0  0  0  0  0  0  0
  -26.1893  -30.9458   22.4608 N   0  0  0  0  0  0  0  0  0  0  0  0
  -30.0074  -16.1228   20.5589 N   0  0  0  0  0  0  0  0  0  0  0  0
  -29.5036  -30.4339   23.8101 N   0  3  0  0  0  0  0  0  0  0  0  0
  -22.5614  -14.8976   20.5698 O   0  0  0  0  0  0  0  0  0  0  0  0
  -21.8364  -27.3162   21.9840 O   0  0  0  0  0  0  0  0  0  0  0  0
  -23.5756  -30.6970   23.6079 O   0  0  0  0  0  0  0  0  0  0  0  0
  -27.7818  -29.3734   21.8538 O   0  0  0  0  0  0  0  0  0  0  0  0
  -31.8180  -14.9240   19.8230 O   0  0  0  0  0  0  0  0  0  0  0  0
  -21.6386   -8.2160   24.4545 O   0  0  0  0  0  0  0  0  0  0  0  0
  -25.9906  -22.8079   21.6611 O   0  0  0  0  0  0  0  0  0  1  0  0
  -16.5776   -6.9605   22.6619 F   0  0  0  0  0  0  0  0  0  0  0  0
  -20.9859   -5.6236   23.7503 F   0  0  0  0  0  0  0  0  0  0  0  0
  1  2  1  0  0  0  0
  1  5  2  0  0  0  0
  2  6  2  0  0  0  0
  3  8  2  0  0  0  0
  3 15  1  0  0  0  0
  4  9  1  0  0  0  0
  4 15  2  0  0  0  0
  5 17  1  0  0  0  0
  6 19  1  0  0  0  0
  7 10  2  0  0  0  0
  7 18  1  0  0  0  0
  8 21  1  0  0  0  0
  9 21  2  0  0  0  0
 10 22  1  0  0  0  0
 11 12  2  0  0  0  0
 11 23  1  0  0  0  0
 12 24  1  0  0  0  0
 13 20  1  0  0  0  0
 13 22  2  0  0  0  0
 14 24  2  0  0  0  0
 14 25  1  0  0  0  0
 15 26  1  0  0  0  0
 16 26  1  0  0  0  0
 16 31  2  0  0  0  0
 16 32  1  0  0  0  0
 17 19  2  0  0  0  0
 17 37  1  0  0  0  0
 18 20  2  0  0  0  0
 18 38  1  0  0  0  0
 19 46  1  0  0  0  0
 20 39  1  0  0  0  0
 21 81  1  0  0  0  0
 22 82  1  0  0  0  0
 23 25  2  0  0  0  0
 23 81  1  0  0  0  0
 24 83  1  0  0  0  0
 25 84  1  0  0  0  0
 26 64  2  0  0  0  0
 27 28  1  0  0  0  0
 27 49  1  0  0  0  0
 27 65  2  0  0  0  0
 28 57  1  0  0  0  0
 28 66  2  0  0  0  0
 29 30  2  0  0  0  0
 29 56  1  0  0  0  0
 29 66  1  0  0  0  0
 30 58  1  0  0  0  0
 30 65  1  0  0  0  0
 31 67  1  0  0  0  0
 31 70  1  0  0  0  0
 32 71  1  0  0  0  0
 32 76  2  0  0  0  0
 33 47  1  0  0  0  0
 33 72  1  0  0  0  0
 33 77  2  0  0  0  0
 34 61  1  0  0  0  0
 34 68  1  0  0  0  0
 34 78  2  0  0  0  0
 35 62  1  0  0  0  0
 35 73  1  0  0  0  0
 35 79  2  0  0  0  0
 36 69  1  0  0  0  0
 36 74  1  0  0  0  0
 36 80  2  0  0  0  0
 37 40  1  0  0  0  0
 38 47  1  0  0  0  0
 39 68  1  0  0  0  0
 40 42  1  0  0  0  0
 41 43  1  0  0  0  0
 41 44  1  0  0  0  0
 42 46  1  0  0  0  0
 43 48  1  0  0  0  0
 44 69  1  0  0  0  0
 45 48  1  0  0  0  0
 45 69  1  0  0  0  0
 46 72  1  0  0  0  0
 47 68  1  0  0  0  0
 48 67  1  0  0  0  0
 50 56  1  0  0  0  0
 51 62  1  0  0  0  0
 52 63  1  0  0  0  0
 53 63  1  0  0  0  0
 54 63  1  0  0  0  0
 55 75  1  0  0  0  0
 57 59  1  0  0  0  0
 58 82  1  0  0  0  0
 59 60  1  0  0  0  0
 60 74  1  0  0  0  0
 61 63  1  0  0  0  0
 61 73  1  0  0  0  0
 62 75  1  0  0  0  0
 64 67  1  0  0  0  0
M  CHG  1  75   1
M  ISO  4  36 100  58 101  74 100  82 101
M  END
> <Batch ID>
0044

> <Smiles>
CCc1nc(CCC[100NH:0][100C:0](=O)N2CCCC(n3nc(-c4ccc(Oc5ccc(F)cc5F)cc4)c(C(N)=O)c3N)C2)c(C)nc1[101CH2:1][101O:1]c1ccc2c(c1)CN(C(=O)C(NC(=O)C(C)NC)C(C)(C)C)C(C(=O)NC1CCCc3ccccc31)C2

> <Shape>
0.273

> <Color>
0.134

> <Negative vol penalty>
0.000

$$$$
